data_PCOD8185950
_publ_section_title
;
Structure prediction by ZEFSAII (Michael W. Deem and Ramdas Pophale) SiO2 
 PCOD8185950
Probable space group: F M M 2
;
_chemical_formula_sum "Si O2"
_cell_formula_units_Z 128
_cell_length_a 23.764370
_cell_length_b 18.036265
_cell_length_c 16.154843
_cell_angle_alpha 90.000000
_cell_angle_beta 90.000000
_cell_angle_gamma 90.000000
_cell_volume 6924.296478
_symmetry_space_group_name_H-M "F M M 2"
_symmetry_group_IT_number 42
_symmetry_cell_setting 'orthorhombic'
loop_
_space_group_symop_operation_xyz
x,y,z
-x,-y,z
-x,y,z
x,-y,z
x,1/2+y,1/2+z
-x,1/2-y,1/2+z
-x,1/2+y,1/2+z
x,1/2-y,1/2+z
1/2+x,y,1/2+z
1/2-x,-y,1/2+z
1/2-x,y,1/2+z
1/2+x,-y,1/2+z
1/2+x,1/2+y,z
1/2-x,1/2-y,z
1/2-x,1/2+y,z
1/2+x,1/2-y,z
loop_
_atom_site_type_symbol
_atom_site_label
_atom_site_fract_x
_atom_site_fract_y
_atom_site_fract_z
Si Si1 0.935698 0.800004 0.779050
Si Si2 0.063369 0.717873 0.954828
Si Si3 0.848279 0.417320 0.605292
Si Si4 0.281084 0.917228 0.769118
Si Si5 0.563917 0.697176 0.127402
Si Si6 0.658017 0.583908 0.802640
Si Si7 0.201100 0.844507 0.954670
Si Si8 0.821881 0.822801 0.412392
O O1 0.930480 0.764736 0.870309
O O2 0.915104 0.746999 0.704389
O O3 0.895296 0.870221 0.771682
O O4 0.000000 0.825527 0.763630
O O5 0.115736 0.658838 0.950879
O O6 0.000000 0.681878 0.957753
O O7 0.073189 0.766288 0.036984
O O8 0.857448 0.500000 0.567861
O O9 0.805156 0.422632 0.678938
O O10 0.907223 0.383030 0.633593
O O11 0.822478 0.355289 0.545367
O O12 0.216405 0.890342 0.759196
O O13 0.317855 0.857827 0.820863
O O14 0.282782 0.000000 0.810547
O O15 0.500000 0.678074 0.142413
O O16 0.642529 0.500000 0.781621
O O17 0.670640 0.592823 0.900179
O O18 0.185142 0.766202 0.912733
O O19 0.268784 0.856744 0.962100
#
# Coordination Sequence:
#
# PCOD8185950 Si02
#       8
#    16  16  16  16  16  16  16  16
#     4  10  20  34  54  80 110 146 187 231 273 321
#     4  10  19  34  54  78 110 140 181 229 271 321
#     4  11  21  36  55  82 115 141 177 226 285 341
#     4   9  21  36  54  79 109 146 179 227 284 331
#     4  10  21  36  54  80 112 147 185 227 276 326
#     4  10  19  35  54  77 111 147 182 221 282 340
#     4  10  20  32  53  85 110 140 181 227 275 329
#     4  10  18  35  54  77 108 143 186 218 268 331
#
# _framework density 18.485631999999999
#
# number of rings (size 3 to 8) (size 9 to 14) (size 15 to 20)
#    0.000    2.000    2.500    1.125    0.000    2.000 
#    0.000    0.000    0.000    5.625    0.000    1.750 
#    0.000    0.000    0.000    0.000    0.000    0.000 
#
# Total GULP energy -396430.907027 kJ/mol
# GULP energy per Si atom -12388.465845 kJ/mol
# Density = 1.844356 g / cm^3
# Si number density = 18.485632 Si / 1000 Ang^3
#
#
#
# Elastic Constant Matrix: (Units=GPa)
#
#
# Indices 1 2 3 4 5 6 
#
# 1 129.5817 47.1634 25.1448 0.0000 0.0000 0.0000
# 2 47.1634 80.6091 42.3691 0.0000 0.0000 0.0000
# 3 25.1448 42.3691 87.4086 0.0000 0.0000 0.0000
# 4 0.0000 0.0000 0.0000 21.2363 0.0000 0.0000
# 5 0.0000 0.0000 0.0000 0.0000 17.0551 0.0000
# 6 0.0000 0.0000 0.0000 0.0000 0.0000 19.9615
#
#
#
# Elastic Compliance Matrix: (Units=1/GPa)
#
#
# Indices 1 2 3 4 5 6 
#
# 1 0.009805 -0.005709 -0.000053 0.000000 0.000000 0.000000
# 2 -0.005709 0.019971 -0.008038 0.000000 0.000000 0.000000
# 3 -0.000053 -0.008038 0.015352 0.000000 0.000000 0.000000
# 4 0.000000 0.000000 0.000000 0.047089 0.000000 0.000000
# 5 0.000000 0.000000 0.000000 0.000000 0.058634 0.000000
# 6 0.000000 0.000000 0.000000 0.000000 0.000000 0.050097
#
#
# Mechanical properties :
#
#
# Convention : Reuss Voigt Hill
#
# Bulk Modulus (GPa) = 57.05348 58.55045 57.80196
# Shear Modulus (GPa) = 21.33192 23.84537 22.58865
#
# Velocity S-wave (km/s) = 3.40070 3.59547 3.49944
# Velocity P-wave (km/s) = 6.80811 6.99849 6.90396
#
# Compressibility (1/GPa) = 0.01752742
#
# Stress axis : x y z
#
# Youngs Moduli (GPa) = 101.98504 50.07358 65.13767
#
# Poissons Ratio (x) = 0.28587 0.00348
# Poissons Ratio (y) = 0.58222 0.52357
# Poissons Ratio (z) = 0.00545 0.40249
#
# Static dielectric constant tensor:
#      x y z
#    x 3.852770 0.000000 0.000000 
#    y 0.000000 3.309820 0.000000 
#    z 0.000000 0.000000 3.349510 
# 
# 
# High freq. dielectric constant tensor:
#      x y z
#    x 1.737830 0.000000 0.000000 
#    y 0.000000 1.688150 0.000000 
#    z 0.000000 0.000000 1.710360 
# 
# From -- ./inp_files/22339.got.cif
#   From: 2010.03.12/outbox.cif.g09.slc.cpg/sg42_12_cif.got.tgz:22339.got - 2010.04.14 02:04:31.
