data_PCOD8185194
_publ_section_title
;
Structure prediction by ZEFSAII (Michael W. Deem and Ramdas Pophale) SiO2 
 PCOD8185194
Probable space group: A B A 2
;
_chemical_formula_sum "Si O2"
_cell_formula_units_Z 52
_cell_length_a 12.028639
_cell_length_b 8.612439
_cell_length_c 24.488416
_cell_angle_alpha 90.000000
_cell_angle_beta 90.000000
_cell_angle_gamma 90.000000
_cell_volume 2536.899976
_symmetry_space_group_name_H-M "A B A 2"
_symmetry_group_IT_number 41
_symmetry_cell_setting 'orthorhombic'
loop_
_space_group_symop_operation_xyz
x,y,z
-x,-y,z
1/2-x,y,1/2+z
1/2+x,-y,1/2+z
x,1/2+y,1/2+z
-x,1/2-y,1/2+z
1/2-x,1/2+y,z
1/2+x,1/2-y,z
loop_
_atom_site_type_symbol
_atom_site_label
_atom_site_fract_x
_atom_site_fract_y
_atom_site_fract_z
Si Si1 0.208911 0.795151 0.010110
Si Si2 0.296435 0.687120 0.258864
Si Si3 0.130352 0.979513 0.696627
Si Si4 0.200214 0.534536 0.431752
Si Si5 0.162849 0.798856 0.359869
Si Si6 0.000000 0.500000 0.799966
Si Si7 0.129076 0.521620 0.072858
O O1 0.147380 0.704123 0.058312
O O2 0.310741 0.895454 0.034537
O O3 0.241388 0.664838 0.967412
O O4 0.134654 0.919232 0.974124
O O5 0.337472 0.808057 0.214434
O O6 0.187931 0.604007 0.235506
O O7 0.260531 0.767712 0.315608
O O8 0.396424 0.563408 0.265037
O O9 0.170630 0.999934 0.634534
O O10 0.000000 0.000000 0.702829
O O11 0.128626 0.634139 0.388421
O O12 0.292761 0.431116 0.400782
O O13 0.046623 0.857554 0.335558
O O14 0.000000 0.500000 0.065995
#
# Coordination Sequence:
#
# PCOD8185194 Si02
#       7
#     8   8   8   8   8   4   8
#     4   9  19  40  63  87 126 158 202 265 304 371
#     4  12  23  42  63  94 131 165 217 261 313 382
#     4  11  24  40  66  94 126 170 212 260 320 378
#     4   9  19  38  62  87 126 164 205 251 313 370
#     4  11  20  40  60  92 129 165 210 257 310 377
#     4  12  24  38  66  88 132 176 210 268 318 364
#     4  10  21  41  65  91 122 161 207 259 320 368
#
# _framework density 20.497458000000002
#
# number of rings (size 3 to 8) (size 9 to 14) (size 15 to 20)
#    0.000    1.538    3.077    1.846    0.000    0.000 
#   12.462    4.615    0.000    0.000    0.000    0.000 
#    0.000    0.000    0.000    0.000    0.000    0.000 
#
# Total GULP energy -322136.950232 kJ/mol
# GULP energy per Si atom -12389.882701 kJ/mol
# Density = 2.045080 g / cm^3
# Si number density = 20.497458 Si / 1000 Ang^3
#
#
#
# Elastic Constant Matrix: (Units=GPa)
#
#
# Indices 1 2 3 4 5 6 
#
# 1 69.3127 40.6568 39.5187 0.0000 0.0000 0.0000
# 2 40.6568 153.7602 75.9306 0.0000 0.0000 0.0000
# 3 39.5187 75.9306 127.2798 0.0000 0.0000 0.0000
# 4 0.0000 0.0000 0.0000 51.6560 0.0000 0.0000
# 5 0.0000 0.0000 0.0000 0.0000 61.3285 0.0000
# 6 0.0000 0.0000 0.0000 0.0000 0.0000 34.1076
#
#
#
# Elastic Compliance Matrix: (Units=1/GPa)
#
#
# Indices 1 2 3 4 5 6 
#
# 1 0.018398 -0.002897 -0.003984 0.000000 0.000000 0.000000
# 2 -0.002897 0.009676 -0.004873 0.000000 0.000000 0.000000
# 3 -0.003984 -0.004873 0.012001 0.000000 0.000000 0.000000
# 4 0.000000 0.000000 0.000000 0.019359 0.000000 0.000000
# 5 0.000000 0.000000 0.000000 0.000000 0.016306 0.000000
# 6 0.000000 0.000000 0.000000 0.000000 0.000000 0.029319
#
#
# Mechanical properties :
#
#
# Convention : Reuss Voigt Hill
#
# Bulk Modulus (GPa) = 60.36207 73.61832 66.99020
# Shear Modulus (GPa) = 37.28864 42.36819 39.82842
#
# Velocity S-wave (km/s) = 4.26982 4.55136 4.41283
# Velocity P-wave (km/s) = 7.33628 7.97581 7.66272
#
# Compressibility (1/GPa) = 0.01656670
#
# Stress axis : x y z
#
# Youngs Moduli (GPa) = 54.35257 103.34765 83.32931
#
# Poissons Ratio (x) = 0.29945 0.33198
# Poissons Ratio (y) = 0.15749 0.40604
# Poissons Ratio (z) = 0.21654 0.50359
#
# Static dielectric constant tensor:
#      x y z
#    x 3.297960 0.000000 0.000000 
#    y 0.000000 4.614440 0.000000 
#    z 0.000000 0.000000 4.236200 
# 
# 
# High freq. dielectric constant tensor:
#      x y z
#    x 1.765050 0.000000 0.000000 
#    y 0.000000 1.830010 0.000000 
#    z 0.000000 0.000000 1.818840 
# 
# From -- ./inp_files/12197.got.cif
#   From: 2010.03.12/outbox.cif.g09.slc.cpg/sg41_7_cif.got.tgz:12197.got - 2010.04.14 01:55:53.
