data_PCOD8185939
_publ_section_title
;
Structure prediction by ZEFSAII (Michael W. Deem and Ramdas Pophale) SiO2 
 PCOD8185939
Probable space group: F M M 2
;
_chemical_formula_sum "Si O2"
_cell_formula_units_Z 104
_cell_length_a 15.214228
_cell_length_b 22.602657
_cell_length_c 17.084774
_cell_angle_alpha 90.000000
_cell_angle_beta 90.000000
_cell_angle_gamma 90.000000
_cell_volume 5875.145860
_symmetry_space_group_name_H-M "F M M 2"
_symmetry_group_IT_number 42
_symmetry_cell_setting 'orthorhombic'
loop_
_space_group_symop_operation_xyz
x,y,z
-x,-y,z
-x,y,z
x,-y,z
x,1/2+y,1/2+z
-x,1/2-y,1/2+z
-x,1/2+y,1/2+z
x,1/2-y,1/2+z
1/2+x,y,1/2+z
1/2-x,-y,1/2+z
1/2-x,y,1/2+z
1/2+x,-y,1/2+z
1/2+x,1/2+y,z
1/2-x,1/2-y,z
1/2-x,1/2+y,z
1/2+x,1/2-y,z
loop_
_atom_site_type_symbol
_atom_site_label
_atom_site_fract_x
_atom_site_fract_y
_atom_site_fract_z
Si Si1 0.796987 0.312682 0.554370
Si Si2 0.361166 0.375212 0.621019
Si Si3 0.265171 0.363499 0.892775
Si Si4 0.099165 0.431131 0.959392
Si Si5 0.599862 0.930417 0.284802
Si Si6 0.750000 0.750000 0.789964
Si Si7 0.905864 0.750967 0.668898
O O1 0.750000 0.250000 0.541360
O O2 0.740118 0.358065 0.606130
O O3 0.815794 0.342317 0.470932
O O4 0.884335 0.299419 0.604284
O O5 0.399331 0.413533 0.550296
O O6 0.366636 0.413724 0.699008
O O7 0.415657 0.314564 0.627361
O O8 0.172917 0.395938 0.910623
O O9 0.334744 0.404421 0.849213
O O10 0.238326 0.307538 0.841840
O O11 0.121415 0.500000 0.951550
O O12 0.000000 0.417951 0.927438
O O13 0.500000 0.906788 0.297609
O O14 0.602538 0.000000 0.294207
O O15 0.835389 0.756304 0.736999
O O16 0.000000 0.733983 0.705646
#
# Coordination Sequence:
#
# PCOD8185939 Si02
#       7
#    16  16  16  16  16   8  16
#     4   9  18  35  53  76 107 138 177 216 262 320
#     4  10  18  34  55  79 106 137 177 227 273 310
#     4  11  22  36  56  78 112 146 174 220 276 325
#     4  10  21  37  57  81 108 142 187 231 269 316
#     4  11  22  35  53  79 110 143 180 220 268 324
#     4  12  22  36  54  80 112 138 178 222 266 330
#     4  11  20  34  55  77 107 145 178 217 266 318
#
# _framework density 17.701688999999998
#
# number of rings (size 3 to 8) (size 9 to 14) (size 15 to 20)
#    0.000    1.538    4.615    2.308    0.000    2.462 
#    0.000    0.000    0.000    0.000    0.000    0.000 
#    0.000    9.846    0.000    0.000    0.000    0.000 
#
# Total GULP energy -322308.013111 kJ/mol
# GULP energy per Si atom -12396.462043 kJ/mol
# Density = 1.766140 g / cm^3
# Si number density = 17.701689 Si / 1000 Ang^3
#
#
#
# Elastic Constant Matrix: (Units=GPa)
#
#
# Indices 1 2 3 4 5 6 
#
# 1 125.6364 49.9657 71.1054 0.0000 0.0000 0.0000
# 2 49.9657 92.2090 50.5137 0.0000 0.0000 0.0000
# 3 71.1054 50.5137 112.8089 0.0000 0.0000 0.0000
# 4 0.0000 0.0000 0.0000 18.1191 0.0000 0.0000
# 5 0.0000 0.0000 0.0000 0.0000 10.2695 0.0000
# 6 0.0000 0.0000 0.0000 0.0000 0.0000 4.6106
#
#
#
# Elastic Compliance Matrix: (Units=1/GPa)
#
#
# Indices 1 2 3 4 5 6 
#
# 1 0.013141 -0.003423 -0.006750 0.000000 0.000000 0.000000
# 2 -0.003423 0.015261 -0.004676 0.000000 0.000000 0.000000
# 3 -0.006750 -0.004676 0.015213 0.000000 0.000000 0.000000
# 4 0.000000 0.000000 0.000000 0.055190 0.000000 0.000000
# 5 0.000000 0.000000 0.000000 0.000000 0.097376 0.000000
# 6 0.000000 0.000000 0.000000 0.000000 0.000000 0.216891
#
#
# Mechanical properties :
#
#
# Convention : Reuss Voigt Hill
#
# Bulk Modulus (GPa) = 71.85520 74.86934 73.36227
# Shear Modulus (GPa) = 11.17538 17.20447 14.18993
#
# Velocity S-wave (km/s) = 2.51533 3.12093 2.83435
# Velocity P-wave (km/s) = 7.00830 7.44136 7.22807
#
# Compressibility (1/GPa) = 0.01391688
#
# Stress axis : x y z
#
# Youngs Moduli (GPa) = 76.09615 65.52456 65.73131
#
# Poissons Ratio (x) = 0.22428 0.44372
# Poissons Ratio (y) = 0.26047 0.30738
# Poissons Ratio (z) = 0.51368 0.30641
#
# Static dielectric constant tensor:
#      x y z
#    x 3.266740 0.000000 0.000000 
#    y 0.000000 3.370070 0.000000 
#    z 0.000000 0.000000 3.316170 
# 
# 
# High freq. dielectric constant tensor:
#      x y z
#    x 1.682770 0.000000 0.000000 
#    y 0.000000 1.686700 0.000000 
#    z 0.000000 0.000000 1.684350 
# 
# From -- ./inp_files/20086.got.cif
#   From: 2010.03.12/outbox.cif.g09.slc.cpg/sg42_11_cif.got.tgz:20086.got - 2010.04.14 02:04:31.
