data_PCOD8185686
_publ_section_title
;
Structure prediction by ZEFSAII (Michael W. Deem and Ramdas Pophale) SiO2 
 PCOD8185686
Probable space group: A B A 2
;
_chemical_formula_sum "Si O2"
_cell_formula_units_Z 32
_cell_length_a 9.822367
_cell_length_b 16.517819
_cell_length_c 7.541646
_cell_angle_alpha 90.000000
_cell_angle_beta 90.000000
_cell_angle_gamma 90.000000
_cell_volume 1223.587419
_symmetry_space_group_name_H-M "A B A 2"
_symmetry_group_IT_number 41
_symmetry_cell_setting 'orthorhombic'
loop_
_space_group_symop_operation_xyz
x,y,z
-x,-y,z
1/2-x,y,1/2+z
1/2+x,-y,1/2+z
x,1/2+y,1/2+z
-x,1/2-y,1/2+z
1/2-x,1/2+y,z
1/2+x,1/2-y,z
loop_
_atom_site_type_symbol
_atom_site_label
_atom_site_fract_x
_atom_site_fract_y
_atom_site_fract_z
Si Si1 0.361676 0.007860 0.028630
Si Si2 0.067238 0.791672 0.101691
Si Si3 0.412564 0.071044 0.403247
Si Si4 0.644620 0.173328 0.996437
O O1 0.419752 0.060855 0.192327
O O2 0.500000 0.000000 0.906885
O O3 0.247503 0.061832 0.940279
O O4 0.311199 0.916079 0.068341
O O5 0.214284 0.775567 0.010047
O O6 0.970471 0.845065 0.973833
O O7 0.977909 0.709323 0.117363
O O8 0.091808 0.829458 0.294647
O O9 0.500000 0.000000 0.496653
#
# Coordination Sequence:
#
# PCOD8185686 Si02
#       4
#     8   8   8   8
#     4  11  27  45  77 108 156 191 260 312 387 455
#     4  12  29  48  83 112 161 202 264 316 399 458
#     4  11  26  47  76 108 152 198 256 315 387 451
#     4  12  28  51  78 116 155 208 254 328 385 472
#
# _framework density 26.152609000000002
#
# number of rings (size 3 to 8) (size 9 to 14) (size 15 to 20)
#    0.000    0.500    2.500    3.000   17.500    0.000 
#    0.000    0.000    0.000    0.000    0.000    0.000 
#    0.000    0.000    0.000    0.000    0.000    0.000 
#
# Total GULP energy -198264.534673 kJ/mol
# GULP energy per Si atom -12391.533417 kJ/mol
# Density = 2.609308 g / cm^3
# Si number density = 26.152609 Si / 1000 Ang^3
#
#
#
# Elastic Constant Matrix: (Units=GPa)
#
#
# Indices 1 2 3 4 5 6 
#
# 1 204.4202 13.2400 10.7683 0.0000 0.0000 0.0000
# 2 13.2400 78.4270 12.9799 0.0000 0.0000 0.0000
# 3 10.7683 12.9799 73.9465 0.0000 0.0000 0.0000
# 4 0.0000 0.0000 0.0000 31.9184 0.0000 0.0000
# 5 0.0000 0.0000 0.0000 0.0000 37.2361 0.0000
# 6 0.0000 0.0000 0.0000 0.0000 0.0000 54.0296
#
#
#
# Elastic Compliance Matrix: (Units=1/GPa)
#
#
# Indices 1 2 3 4 5 6 
#
# 1 0.004971 -0.000741 -0.000594 0.000000 0.000000 0.000000
# 2 -0.000741 0.013243 -0.002217 0.000000 0.000000 0.000000
# 3 -0.000594 -0.002217 0.013999 0.000000 0.000000 0.000000
# 4 0.000000 0.000000 0.000000 0.031330 0.000000 0.000000
# 5 0.000000 0.000000 0.000000 0.000000 0.026856 0.000000
# 6 0.000000 0.000000 0.000000 0.000000 0.000000 0.018508
#
#
# Mechanical properties :
#
#
# Convention : Reuss Voigt Hill
#
# Bulk Modulus (GPa) = 39.82497 47.86333 43.84415
# Shear Modulus (GPa) = 40.19961 45.95719 43.07840
#
# Velocity S-wave (km/s) = 3.92486 4.19653 4.06297
# Velocity P-wave (km/s) = 5.98334 6.46702 6.22988
#
# Compressibility (1/GPa) = 0.02510988
#
# Stress axis : x y z
#
# Youngs Moduli (GPa) = 201.16041 75.51357 71.43448
#
# Poissons Ratio (x) = 0.05595 0.04242
# Poissons Ratio (y) = 0.14905 0.15834
# Poissons Ratio (z) = 0.11946 0.16738
#
# Static dielectric constant tensor:
#      x y z
#    x 5.601640 0.000000 0.000000 
#    y 0.000000 4.556930 0.000000 
#    z 0.000000 0.000000 4.346580 
# 
# 
# High freq. dielectric constant tensor:
#      x y z
#    x 2.081020 0.000000 0.000000 
#    y 0.000000 2.042790 0.000000 
#    z 0.000000 0.000000 2.025110 
# 
# From -- ./inp_files/1630.got.cif
#   From: 2010.03.12/outbox.cif.g09.slc.cpg/sg41_1_cif.got.tgz:1630.got - 2010.04.14 01:55:53.
