data_PCOD8185843
_publ_section_title
;
Structure prediction by ZEFSAII (Michael W. Deem and Ramdas Pophale) SiO2 
 PCOD8185843
Probable space group: F M M 2
;
_chemical_formula_sum "Si O2"
_cell_formula_units_Z 64
_cell_length_a 22.121554
_cell_length_b 13.210925
_cell_length_c 12.226699
_cell_angle_alpha 90.000000
_cell_angle_beta 90.000000
_cell_angle_gamma 90.000000
_cell_volume 3573.206209
_symmetry_space_group_name_H-M "F M M 2"
_symmetry_group_IT_number 42
_symmetry_cell_setting 'orthorhombic'
loop_
_space_group_symop_operation_xyz
x,y,z
-x,-y,z
-x,y,z
x,-y,z
x,1/2+y,1/2+z
-x,1/2-y,1/2+z
-x,1/2+y,1/2+z
x,1/2-y,1/2+z
1/2+x,y,1/2+z
1/2-x,-y,1/2+z
1/2-x,y,1/2+z
1/2+x,-y,1/2+z
1/2+x,1/2+y,z
1/2-x,1/2-y,z
1/2-x,1/2+y,z
1/2+x,1/2-y,z
loop_
_atom_site_type_symbol
_atom_site_label
_atom_site_fract_x
_atom_site_fract_y
_atom_site_fract_z
Si Si1 0.756827 0.885761 0.311760
Si Si2 0.165002 0.113864 0.620921
Si Si3 0.162810 0.240895 0.916652
Si Si4 0.069233 0.384623 0.305400
O O1 0.724189 0.871201 0.195746
O O2 0.817768 0.818382 0.318229
O O3 0.712409 0.849875 0.411486
O O4 0.775176 0.000000 0.334150
O O5 0.163625 0.200214 0.530173
O O6 0.104576 0.127152 0.691954
O O7 0.165942 0.000000 0.570230
O O8 0.096968 0.192989 0.894611
O O9 0.075464 0.500000 0.348755
O O10 0.000000 0.354576 0.285688
#
# Coordination Sequence:
#
# PCOD8185843 Si02
#       4
#    16  16  16  16
#     4   9  19  33  48  73 107 134 161 200 246 298
#     4   9  18  33  52  76 104 134 167 201 245 297
#     4  10  18  29  53  78  96 127 171 207 240 286
#     4   9  19  36  54  72  98 131 168 209 249 294
#
# _framework density 17.911085
#
# number of rings (size 3 to 8) (size 9 to 14) (size 15 to 20)
#    0.000    2.750    0.000    3.000    0.000    9.000 
#    0.000    0.000    0.000   29.250    0.000    0.000 
#    0.000    0.000    0.000    0.000    0.000    0.000 
#
# Total GULP energy -198253.996350 kJ/mol
# GULP energy per Si atom -12390.874772 kJ/mol
# Density = 1.787032 g / cm^3
# Si number density = 17.911085 Si / 1000 Ang^3
#
#
#
# Elastic Constant Matrix: (Units=GPa)
#
#
# Indices 1 2 3 4 5 6 
#
# 1 96.1902 46.2038 30.3290 0.0000 0.0000 0.0000
# 2 46.2038 111.6146 44.0274 0.0000 0.0000 0.0000
# 3 30.3290 44.0274 85.7030 0.0000 0.0000 0.0000
# 4 0.0000 0.0000 0.0000 38.2992 0.0000 0.0000
# 5 0.0000 0.0000 0.0000 0.0000 12.6685 0.0000
# 6 0.0000 0.0000 0.0000 0.0000 0.0000 31.6053
#
#
#
# Elastic Compliance Matrix: (Units=1/GPa)
#
#
# Indices 1 2 3 4 5 6 
#
# 1 0.013348 -0.004593 -0.002364 0.000000 0.000000 0.000000
# 2 -0.004593 0.012817 -0.004959 0.000000 0.000000 0.000000
# 3 -0.002364 -0.004959 0.015052 0.000000 0.000000 0.000000
# 4 0.000000 0.000000 0.000000 0.026110 0.000000 0.000000
# 5 0.000000 0.000000 0.000000 0.000000 0.078936 0.000000
# 6 0.000000 0.000000 0.000000 0.000000 0.000000 0.031640
#
#
# Mechanical properties :
#
#
# Convention : Reuss Voigt Hill
#
# Bulk Modulus (GPa) = 57.52075 59.40313 58.46194
# Shear Modulus (GPa) = 24.09297 28.04445 26.06871
#
# Velocity S-wave (km/s) = 3.67160 3.96126 3.81918
# Velocity P-wave (km/s) = 7.08227 7.35933 7.22213
#
# Compressibility (1/GPa) = 0.01738503
#
# Stress axis : x y z
#
# Youngs Moduli (GPa) = 74.92003 78.02321 66.43504
#
# Poissons Ratio (x) = 0.35834 0.15706
# Poissons Ratio (y) = 0.34409 0.32944
# Poissons Ratio (z) = 0.17712 0.38691
#
# Static dielectric constant tensor:
#      x y z
#    x 3.315180 0.000000 0.000000 
#    y 0.000000 3.632040 0.000000 
#    z 0.000000 0.000000 3.047970 
# 
# 
# High freq. dielectric constant tensor:
#      x y z
#    x 1.673230 0.000000 0.000000 
#    y 0.000000 1.711880 0.000000 
#    z 0.000000 0.000000 1.666540 
# 
# From -- ./inp_files/7583.got.cif
#   From: 2010.03.12/outbox.cif.g09.slc.cpg/sg42_4_cif.got.tgz:7583.got - 2010.04.14 02:04:31.
