data_PCOD8185680
_publ_section_title
;
Structure prediction by ZEFSAII (Michael W. Deem and Ramdas Pophale) SiO2 
 PCOD8185680
Probable space group: A B A 2
;
_chemical_formula_sum "Si O2"
_cell_formula_units_Z 40
_cell_length_a 9.364132
_cell_length_b 9.363640
_cell_length_c 19.896773
_cell_angle_alpha 90.000000
_cell_angle_beta 90.000000
_cell_angle_gamma 90.000000
_cell_volume 1744.596032
_symmetry_space_group_name_H-M "A B A 2"
_symmetry_group_IT_number 41
_symmetry_cell_setting 'orthorhombic'
loop_
_space_group_symop_operation_xyz
x,y,z
-x,-y,z
1/2-x,y,1/2+z
1/2+x,-y,1/2+z
x,1/2+y,1/2+z
-x,1/2-y,1/2+z
1/2-x,1/2+y,z
1/2+x,1/2-y,z
loop_
_atom_site_type_symbol
_atom_site_label
_atom_site_fract_x
_atom_site_fract_y
_atom_site_fract_z
Si Si1 0.428181 0.653132 0.702540
Si Si2 0.738985 0.257914 0.422671
Si Si3 0.388081 0.114048 0.647278
Si Si4 0.487883 0.332925 0.334361
Si Si5 0.343104 0.993723 0.500302
O O1 0.500000 0.500000 0.712791
O O2 0.520887 0.737078 0.644836
O O3 0.258816 0.635486 0.688191
O O4 0.438677 0.746566 0.769292
O O5 0.634036 0.260348 0.359225
O O6 0.883668 0.189252 0.396549
O O7 0.745873 0.418166 0.449315
O O8 0.701985 0.170226 0.491019
O O9 0.339132 0.053548 0.575506
O O10 0.500000 0.000000 0.679986
O O11 0.500000 0.500000 0.316484
O O12 0.500000 0.000000 0.470150
#
# Coordination Sequence:
#
# PCOD8185680 Si02
#       5
#     8   8   8   8   8
#     4  12  28  47  78 107 149 202 257 318 376 447
#     4  12  25  45  73 108 146 193 241 304 378 444
#     4  11  27  51  74 112 151 196 253 310 385 457
#     4  12  27  47  72 107 148 193 246 308 372 447
#     4  11  26  45  74 109 153 189 246 305 376 458
#
# _framework density 22.927944
#
# number of rings (size 3 to 8) (size 9 to 14) (size 15 to 20)
#    0.000    0.400    4.000    3.000   11.200    3.200 
#    0.000    0.000    0.000    0.000    0.000    0.000 
#    0.000    0.000    0.000    0.000    0.000    0.000 
#
# Total GULP energy -247834.310873 kJ/mol
# GULP energy per Si atom -12391.715544 kJ/mol
# Density = 2.287576 g / cm^3
# Si number density = 22.927944 Si / 1000 Ang^3
#
#
#
# Elastic Constant Matrix: (Units=GPa)
#
#
# Indices 1 2 3 4 5 6 
#
# 1 138.9182 52.9684 36.0778 0.0000 0.0000 0.0000
# 2 52.9684 159.7758 46.3477 0.0000 0.0000 0.0000
# 3 36.0778 46.3477 111.8927 0.0000 0.0000 0.0000
# 4 0.0000 0.0000 0.0000 21.7563 0.0000 0.0000
# 5 0.0000 0.0000 0.0000 0.0000 28.1845 0.0000
# 6 0.0000 0.0000 0.0000 0.0000 0.0000 44.2062
#
#
#
# Elastic Compliance Matrix: (Units=1/GPa)
#
#
# Indices 1 2 3 4 5 6 
#
# 1 0.008547 -0.002312 -0.001798 0.000000 0.000000 0.000000
# 2 -0.002312 0.007739 -0.002460 0.000000 0.000000 0.000000
# 3 -0.001798 -0.002460 0.010536 0.000000 0.000000 0.000000
# 4 0.000000 0.000000 0.000000 0.045964 0.000000 0.000000
# 5 0.000000 0.000000 0.000000 0.000000 0.035481 0.000000
# 6 0.000000 0.000000 0.000000 0.000000 0.000000 0.022621
#
#
# Mechanical properties :
#
#
# Convention : Reuss Voigt Hill
#
# Bulk Modulus (GPa) = 73.09205 75.70828 74.40016
# Shear Modulus (GPa) = 33.65005 37.17557 35.41281
#
# Velocity S-wave (km/s) = 3.83514 4.03104 3.93431
# Velocity P-wave (km/s) = 7.18048 7.39983 7.29098
#
# Compressibility (1/GPa) = 0.01368138
#
# Stress axis : x y z
#
# Youngs Moduli (GPa) = 117.00042 129.21868 94.91302
#
# Poissons Ratio (x) = 0.29873 0.17067
# Poissons Ratio (y) = 0.27049 0.23350
# Poissons Ratio (z) = 0.21039 0.31789
#
# Static dielectric constant tensor:
#      x y z
#    x 4.473660 0.000000 0.000000 
#    y 0.000000 4.002500 0.000000 
#    z 0.000000 0.000000 3.856610 
# 
# 
# High freq. dielectric constant tensor:
#      x y z
#    x 1.921470 0.000000 0.000000 
#    y 0.000000 1.922770 0.000000 
#    z 0.000000 0.000000 1.901570 
# 
# From -- ./inp_files/11921.got.cif
#   From: 2010.03.12/outbox.cif.g09.slc.cpg/sg41_6_cif.got.tgz:11921.got - 2010.04.14 01:55:53.
