data_PCOD8185836
_publ_section_title
;
Structure prediction by ZEFSAII (Michael W. Deem and Ramdas Pophale) SiO2 
 PCOD8185836
Probable space group: F M M 2
;
_chemical_formula_sum "Si O2"
_cell_formula_units_Z 64
_cell_length_a 18.751014
_cell_length_b 8.799196
_cell_length_c 21.012554
_cell_angle_alpha 90.000000
_cell_angle_beta 90.000000
_cell_angle_gamma 90.000000
_cell_volume 3466.942128
_symmetry_space_group_name_H-M "F M M 2"
_symmetry_group_IT_number 42
_symmetry_cell_setting 'orthorhombic'
loop_
_space_group_symop_operation_xyz
x,y,z
-x,-y,z
-x,y,z
x,-y,z
x,1/2+y,1/2+z
-x,1/2-y,1/2+z
-x,1/2+y,1/2+z
x,1/2-y,1/2+z
1/2+x,y,1/2+z
1/2-x,-y,1/2+z
1/2-x,y,1/2+z
1/2+x,-y,1/2+z
1/2+x,1/2+y,z
1/2-x,1/2-y,z
1/2-x,1/2+y,z
1/2+x,1/2-y,z
loop_
_atom_site_type_symbol
_atom_site_label
_atom_site_fract_x
_atom_site_fract_y
_atom_site_fract_z
Si Si1 0.079871 0.319191 0.651660
Si Si2 0.828360 0.680164 0.532243
Si Si3 0.672910 0.177631 0.767467
Si Si4 0.327155 0.822226 0.907133
O O1 0.077079 0.500000 0.653191
O O2 0.122633 0.262217 0.589931
O O3 0.118903 0.256037 0.714896
O O4 0.000000 0.251756 0.649576
O O5 0.822251 0.500000 0.530508
O O6 0.750000 0.750000 0.540850
O O7 0.865999 0.739895 0.466674
O O8 0.750000 0.250000 0.758555
O O9 0.638101 0.208775 0.837610
O O10 0.684431 0.000000 0.757219
O O11 0.250000 0.750000 0.903380
O O12 0.322071 0.000000 0.921991
#
# Coordination Sequence:
#
# PCOD8185836 Si02
#       4
#    16  16  16  16
#     4   9  18  32  48  67  92 123 158 190 223 269
#     4  10  18  29  49  72  93 120 152 189 229 269
#     4   9  17  30  50  72  92 118 152 190 229 269
#     4   9  16  27  45  70  96 119 147 186 230 272
#
# _framework density 18.460073000000001
#
# number of rings (size 3 to 8) (size 9 to 14) (size 15 to 20)
#    0.000    2.750    0.000    3.750    0.000    1.000 
#    0.000    2.500    0.000    8.250    0.000    0.000 
#    0.000    0.000    0.000    0.000    0.000    0.000 
#
# Total GULP energy -198254.831443 kJ/mol
# GULP energy per Si atom -12390.926965 kJ/mol
# Density = 1.841806 g / cm^3
# Si number density = 18.460073 Si / 1000 Ang^3
#
#
#
# Elastic Constant Matrix: (Units=GPa)
#
#
# Indices 1 2 3 4 5 6 
#
# 1 96.9778 23.3308 82.5392 0.0000 0.0000 0.0000
# 2 23.3308 56.4004 44.4417 0.0000 0.0000 0.0000
# 3 82.5392 44.4417 213.1889 0.0000 0.0000 0.0000
# 4 0.0000 0.0000 0.0000 3.2804 0.0000 0.0000
# 5 0.0000 0.0000 0.0000 0.0000 7.4192 0.0000
# 6 0.0000 0.0000 0.0000 0.0000 0.0000 13.3281
#
#
#
# Elastic Compliance Matrix: (Units=1/GPa)
#
#
# Indices 1 2 3 4 5 6 
#
# 1 0.015570 -0.002023 -0.005606 0.000000 0.000000 0.000000
# 2 -0.002023 0.021478 -0.003694 0.000000 0.000000 0.000000
# 3 -0.005606 -0.003694 0.007631 0.000000 0.000000 0.000000
# 4 0.000000 0.000000 0.000000 0.304842 0.000000 0.000000
# 5 0.000000 0.000000 0.000000 0.000000 0.134786 0.000000
# 6 0.000000 0.000000 0.000000 0.000000 0.000000 0.075029
#
#
# Mechanical properties :
#
#
# Convention : Reuss Voigt Hill
#
# Bulk Modulus (GPa) = 45.38793 74.13227 59.76010
# Shear Modulus (GPa) = 8.48423 19.22257 13.85340
#
# Velocity S-wave (km/s) = 2.14615 3.23043 2.74241
# Velocity P-wave (km/s) = 5.54813 7.35932 6.51695
#
# Compressibility (1/GPa) = 0.02203229
#
# Stress axis : x y z
#
# Youngs Moduli (GPa) = 64.22581 46.55912 131.03815
#
# Poissons Ratio (x) = 0.09419 0.73466
# Poissons Ratio (y) = 0.12993 0.48407
# Poissons Ratio (z) = 0.36008 0.17199
#
# Static dielectric constant tensor:
#      x y z
#    x 3.169600 0.000000 0.000000 
#    y 0.000000 3.256350 0.000000 
#    z 0.000000 0.000000 4.475650 
# 
# 
# High freq. dielectric constant tensor:
#      x y z
#    x 1.671200 0.000000 0.000000 
#    y 0.000000 1.698150 0.000000 
#    z 0.000000 0.000000 1.747600 
# 
# From -- ./inp_files/21338.got.cif
#   From: 2010.03.12/outbox.cif.g09.slc.cpg/sg42_11_cif.got.tgz:21338.got - 2010.04.14 02:04:31.
