data_PCOD8185673
_publ_section_title
;
Structure prediction by ZEFSAII (Michael W. Deem and Ramdas Pophale) SiO2 
 PCOD8185673
Probable space group: A B A 2
;
_chemical_formula_sum "Si O2"
_cell_formula_units_Z 52
_cell_length_a 11.328003
_cell_length_b 26.953475
_cell_length_c 7.621307
_cell_angle_alpha 90.000000
_cell_angle_beta 90.000000
_cell_angle_gamma 90.000000
_cell_volume 2327.006393
_symmetry_space_group_name_H-M "A B A 2"
_symmetry_group_IT_number 41
_symmetry_cell_setting 'orthorhombic'
loop_
_space_group_symop_operation_xyz
x,y,z
-x,-y,z
1/2-x,y,1/2+z
1/2+x,-y,1/2+z
x,1/2+y,1/2+z
-x,1/2-y,1/2+z
1/2-x,1/2+y,z
1/2+x,1/2-y,z
loop_
_atom_site_type_symbol
_atom_site_label
_atom_site_fract_x
_atom_site_fract_y
_atom_site_fract_z
Si Si1 0.135331 0.560888 0.500000
Si Si2 0.500000 0.000000 0.774027
Si Si3 0.532479 0.687698 0.750234
Si Si4 0.292362 0.969296 0.992750
Si Si5 0.609461 0.285705 0.412961
Si Si6 0.842311 0.328989 0.547589
Si Si7 0.900003 0.580198 0.310762
O O1 0.240985 0.524021 0.453183
O O2 0.195026 0.613464 0.544199
O O3 0.070198 0.540798 0.668548
O O4 0.035644 0.565632 0.348455
O O5 0.409093 0.964735 0.876354
O O6 0.496323 0.703916 0.551907
O O7 0.612717 0.729478 0.841992
O O8 0.605832 0.636402 0.738237
O O9 0.423359 0.681021 0.880598
O O10 0.189788 0.926933 0.974524
O O11 0.341846 0.961393 0.186737
O O12 0.727597 0.295154 0.523556
O O13 0.597135 0.319315 0.237265
#
# Coordination Sequence:
#
# PCOD8185673 Si02
#       7
#     8   4   8   8   8   8   8
#     4  11  25  48  67 103 145 186 241 299 338 437
#     4  12  26  40  72 100 142 192 234 280 354 424
#     4  11  26  46  74 105 144 181 246 302 364 439
#     4  12  25  44  69 104 146 191 231 292 360 420
#     4  12  24  48  72 108 136 189 235 304 362 429
#     4  11  26  43  74 103 143 184 242 294 368 424
#     4  11  25  47  70 103 143 191 236 297 360 427
#
# _framework density 22.346309000000002
#
# number of rings (size 3 to 8) (size 9 to 14) (size 15 to 20)
#    0.000    0.615    6.154    0.000    6.462    1.231 
#    0.000    0.000    0.000    0.000    0.000    0.000 
#    0.000    0.000    0.000    0.000    0.000    0.000 
#
# Total GULP energy -322228.510616 kJ/mol
# GULP energy per Si atom -12393.404254 kJ/mol
# Density = 2.229545 g / cm^3
# Si number density = 22.346309 Si / 1000 Ang^3
#
#
#
# Elastic Constant Matrix: (Units=GPa)
#
#
# Indices 1 2 3 4 5 6 
#
# 1 78.4631 42.8418 24.8305 0.0000 0.0000 0.0000
# 2 42.8418 149.9333 41.1553 0.0000 0.0000 0.0000
# 3 24.8305 41.1553 115.8215 0.0000 0.0000 0.0000
# 4 0.0000 0.0000 0.0000 18.3705 0.0000 0.0000
# 5 0.0000 0.0000 0.0000 0.0000 -125.4327 0.0000
# 6 0.0000 0.0000 0.0000 0.0000 0.0000 34.4443
#
#
#
# Elastic Compliance Matrix: (Units=1/GPa)
#
#
# Indices 1 2 3 4 5 6 
#
# 1 0.015483 -0.003893 -0.001936 0.000000 0.000000 0.000000
# 2 -0.003893 0.008369 -0.002139 0.000000 0.000000 0.000000
# 3 -0.001936 -0.002139 0.009809 0.000000 0.000000 0.000000
# 4 0.000000 0.000000 0.000000 0.054435 0.000000 0.000000
# 5 0.000000 0.000000 0.000000 0.000000 -0.007972 0.000000
# 6 0.000000 0.000000 0.000000 0.000000 0.000000 0.029032
#
#
# Mechanical properties :
#
#
# Convention : Reuss Voigt Hill
#
# Bulk Modulus (GPa) = 56.41701 62.43036 59.42368
# Shear Modulus (GPa) = 38.16767 1.16911 19.66839
#
# Velocity S-wave (km/s) = 4.13729 0.72410 2.96997
# Velocity P-wave (km/s) = 6.93717 5.35700 6.19765
#
# Compressibility (1/GPa) = 0.01772515
#
# Stress axis : x y z
#
# Youngs Moduli (GPa) = 64.58694 119.48666 101.94484
#
# Poissons Ratio (x) = 0.46512 0.19738
# Poissons Ratio (y) = 0.25141 0.21809
# Poissons Ratio (z) = 0.12505 0.25562
#
# Static dielectric constant tensor:
#      x y z
#    x 29.663930 0.000000 0.000000 
#    y 0.000000 4.383280 0.000000 
#    z 0.000000 0.000000 4.224320 
# 
# 
# High freq. dielectric constant tensor:
#      x y z
#    x 1.876290 0.000000 0.000000 
#    y 0.000000 1.879280 0.000000 
#    z 0.000000 0.000000 1.893630 
# 
# From -- ./inp_files/2153.got.cif
#   From: 2010.03.12/outbox.cif.g09.slc.cpg/sg41_2_cif.got.tgz:2153.got - 2010.04.14 01:55:53.
