data_PCOD8185872
_publ_section_title
;
Structure prediction by ZEFSAII (Michael W. Deem and Ramdas Pophale) SiO2 
 PCOD8185872
Probable space group: F M M 2
;
_chemical_formula_sum "Si O2"
_cell_formula_units_Z 80
_cell_length_a 19.792451
_cell_length_b 19.026252
_cell_length_c 12.515782
_cell_angle_alpha 90.000000
_cell_angle_beta 90.000000
_cell_angle_gamma 90.000000
_cell_volume 4713.145130
_symmetry_space_group_name_H-M "F M M 2"
_symmetry_group_IT_number 42
_symmetry_cell_setting 'orthorhombic'
loop_
_space_group_symop_operation_xyz
x,y,z
-x,-y,z
-x,y,z
x,-y,z
x,1/2+y,1/2+z
-x,1/2-y,1/2+z
-x,1/2+y,1/2+z
x,1/2-y,1/2+z
1/2+x,y,1/2+z
1/2-x,-y,1/2+z
1/2-x,y,1/2+z
1/2+x,-y,1/2+z
1/2+x,1/2+y,z
1/2-x,1/2-y,z
1/2-x,1/2+y,z
1/2+x,1/2-y,z
loop_
_atom_site_type_symbol
_atom_site_label
_atom_site_fract_x
_atom_site_fract_y
_atom_site_fract_z
Si Si1 0.835515 0.319583 0.191280
Si Si2 0.337284 0.081790 0.541998
Si Si3 0.577459 0.081580 0.338744
Si Si4 0.214199 0.826074 0.469315
Si Si5 0.678338 0.332792 0.241295
O O1 0.881253 0.376391 0.249724
O O2 0.841650 0.324280 0.062914
O O3 0.757597 0.330707 0.217958
O O4 0.858239 0.241933 0.225571
O O5 0.397730 0.097154 0.459173
O O6 0.270857 0.116829 0.493849
O O7 0.356228 0.112277 0.659487
O O8 0.322859 0.000000 0.555740
O O9 0.500000 0.104969 0.332210
O O10 0.587235 0.000000 0.311052
O O11 0.250000 0.750000 0.451922
O O12 0.171977 0.852129 0.366032
#
# Coordination Sequence:
#
# PCOD8185872 Si02
#       5
#    16  16  16  16  16
#     4  10  18  30  54  78 104 140 179 215 270 322
#     4  10  20  32  50  78 108 140 181 218 264 321
#     4  10  21  38  57  76 106 146 187 227 261 312
#     4  11  17  31  52  80 107 141 167 219 282 320
#     4  10  18  30  53  79 111 137 167 222 275 321
#
# _framework density 16.973804000000001
#
# number of rings (size 3 to 8) (size 9 to 14) (size 15 to 20)
#    0.000    1.800    8.000    0.000    0.000    4.000 
#    0.000    1.000    0.000    1.200    0.000    2.800 
#    0.000    0.000    0.000    0.000    0.000    0.000 
#
# Total GULP energy -247899.693021 kJ/mol
# GULP energy per Si atom -12394.984651 kJ/mol
# Density = 1.693517 g / cm^3
# Si number density = 16.973804 Si / 1000 Ang^3
#
#
#
# Elastic Constant Matrix: (Units=GPa)
#
#
# Indices 1 2 3 4 5 6 
#
# 1 49.7751 32.1971 33.4833 0.0000 0.0000 0.0000
# 2 32.1971 89.3146 51.7067 0.0000 0.0000 0.0000
# 3 33.4833 51.7067 165.7418 0.0000 0.0000 0.0000
# 4 0.0000 0.0000 0.0000 31.4494 0.0000 0.0000
# 5 0.0000 0.0000 0.0000 0.0000 14.1896 0.0000
# 6 0.0000 0.0000 0.0000 0.0000 0.0000 18.7953
#
#
#
# Elastic Compliance Matrix: (Units=1/GPa)
#
#
# Indices 1 2 3 4 5 6 
#
# 1 0.027363 -0.008133 -0.002991 0.000000 0.000000 0.000000
# 2 -0.008133 0.016081 -0.003374 0.000000 0.000000 0.000000
# 3 -0.002991 -0.003374 0.007690 0.000000 0.000000 0.000000
# 4 0.000000 0.000000 0.000000 0.031797 0.000000 0.000000
# 5 0.000000 0.000000 0.000000 0.000000 0.070474 0.000000
# 6 0.000000 0.000000 0.000000 0.000000 0.000000 0.053205
#
#
# Mechanical properties :
#
#
# Convention : Reuss Voigt Hill
#
# Bulk Modulus (GPa) = 45.16746 59.95618 52.56182
# Shear Modulus (GPa) = 20.57742 25.38317 22.98029
#
# Velocity S-wave (km/s) = 3.48559 3.87128 3.68349
# Velocity P-wave (km/s) = 6.54729 7.44190 7.00888
#
# Compressibility (1/GPa) = 0.02213983
#
# Stress axis : x y z
#
# Youngs Moduli (GPa) = 36.54594 62.18362 130.03480
#
# Poissons Ratio (x) = 0.50572 0.38890
# Poissons Ratio (y) = 0.29721 0.43873
# Poissons Ratio (z) = 0.10930 0.20981
#
# Static dielectric constant tensor:
#      x y z
#    x 2.766240 0.000000 0.000000 
#    y 0.000000 3.250690 0.000000 
#    z 0.000000 0.000000 3.830990 
# 
# 
# High freq. dielectric constant tensor:
#      x y z
#    x 1.597790 0.000000 0.000000 
#    y 0.000000 1.657420 0.000000 
#    z 0.000000 0.000000 1.676620 
# 
# From -- ./inp_files/15894.got.cif
#   From: 2010.03.12/outbox.cif.g09.slc.cpg/sg42_8_cif.got.tgz:15894.got - 2010.04.14 02:04:31.
