data_PCOD8185410
_publ_section_title
;
Structure prediction by ZEFSAII (Michael W. Deem and Ramdas Pophale) SiO2 
 PCOD8185410
Probable space group: A B A 2
;
_chemical_formula_sum "Si O2"
_cell_formula_units_Z 40
_cell_length_a 25.294292
_cell_length_b 12.451400
_cell_length_c 4.962107
_cell_angle_alpha 90.000000
_cell_angle_beta 90.000000
_cell_angle_gamma 90.000000
_cell_volume 1562.812361
_symmetry_space_group_name_H-M "A B A 2"
_symmetry_group_IT_number 41
_symmetry_cell_setting 'orthorhombic'
loop_
_space_group_symop_operation_xyz
x,y,z
-x,-y,z
1/2-x,y,1/2+z
1/2+x,-y,1/2+z
x,1/2+y,1/2+z
-x,1/2-y,1/2+z
1/2-x,1/2+y,z
1/2+x,1/2-y,z
loop_
_atom_site_type_symbol
_atom_site_label
_atom_site_fract_x
_atom_site_fract_y
_atom_site_fract_z
Si Si1 0.434236 0.295800 0.116850
Si Si2 0.551221 0.841102 0.626995
Si Si3 0.214162 0.381945 0.064680
Si Si4 0.366087 0.988638 0.723622
Si Si5 0.215117 0.639714 0.466757
O O1 0.431884 0.194728 0.324546
O O2 0.488550 0.362570 0.158280
O O3 0.382618 0.370601 0.124404
O O4 0.432262 0.257984 0.811363
O O5 0.579939 0.444930 0.252787
O O6 0.235219 0.402512 0.366614
O O7 0.193652 0.260221 0.019641
O O8 0.167129 0.466325 0.998001
O O9 0.331246 0.054882 0.511749
O O10 0.234730 0.620652 0.162697
#
# Coordination Sequence:
#
# PCOD8185410 Si02
#       5
#     8   8   8   8   8
#     4  10  24  44  64  93 130 163 204 260 317 375
#     4  10  24  44  64  93 130 163 204 260 317 375
#     4  10  23  41  60  89 129 166 206 258 312 368
#     4  12  23  40  70  96 120 168 217 256 310 374
#     4  10  23  41  60  89 129 166 206 258 312 368
#
# _framework density 25.594885000000001
#
# number of rings (size 3 to 8) (size 9 to 14) (size 15 to 20)
#    0.000    1.600    0.000    3.000    0.000   12.800 
#    0.000    6.000    0.000    0.000    0.000    0.000 
#    0.000    0.000    0.000    0.000    0.000    0.000 
#
# Total GULP energy -247937.851409 kJ/mol
# GULP energy per Si atom -12396.892570 kJ/mol
# Density = 2.553663 g / cm^3
# Si number density = 25.594885 Si / 1000 Ang^3
#
#
#
# Elastic Constant Matrix: (Units=GPa)
#
#
# Indices 1 2 3 4 5 6 
#
# 1 60.4518 40.3708 11.1942 0.0000 0.0000 0.0000
# 2 40.3708 71.5925 6.8975 0.0000 0.0000 0.0000
# 3 11.1942 6.8975 90.1689 0.0000 0.0000 0.0000
# 4 0.0000 0.0000 0.0000 28.9467 0.0000 0.0000
# 5 0.0000 0.0000 0.0000 0.0000 22.3764 0.0000
# 6 0.0000 0.0000 0.0000 0.0000 0.0000 58.6048
#
#
#
# Elastic Compliance Matrix: (Units=1/GPa)
#
#
# Indices 1 2 3 4 5 6 
#
# 1 0.026961 -0.014991 -0.002200 0.000000 0.000000 0.000000
# 2 -0.014991 0.022407 0.000147 0.000000 0.000000 0.000000
# 3 -0.002200 0.000147 0.011352 0.000000 0.000000 0.000000
# 4 0.000000 0.000000 0.000000 0.034546 0.000000 0.000000
# 5 0.000000 0.000000 0.000000 0.000000 0.044690 0.000000
# 6 0.000000 0.000000 0.000000 0.000000 0.000000 0.017063
#
#
# Mechanical properties :
#
#
# Convention : Reuss Voigt Hill
#
# Bulk Modulus (GPa) = 37.54966 37.68205 37.61586
# Shear Modulus (GPa) = 25.00173 32.90230 28.95202
#
# Velocity S-wave (km/s) = 3.12881 3.58928 3.36693
# Velocity P-wave (km/s) = 5.26832 5.65081 5.46292
#
# Compressibility (1/GPa) = 0.02663140
#
# Stress axis : x y z
#
# Youngs Moduli (GPa) = 37.09070 44.62839 88.08847
#
# Poissons Ratio (x) = 0.66903 0.19383
# Poissons Ratio (y) = 0.55603 -0.01295
# Poissons Ratio (z) = 0.08161 -0.00656
#
# Static dielectric constant tensor:
#      x y z
#    x 4.645150 0.000000 0.000000 
#    y 0.000000 4.838390 0.000000 
#    z 0.000000 0.000000 4.340060 
# 
# 
# High freq. dielectric constant tensor:
#      x y z
#    x 2.026390 0.000000 0.000000 
#    y 0.000000 2.033000 0.000000 
#    z 0.000000 0.000000 2.013440 
# 
# From -- ./inp_files/922.got.cif
#   From: 2010.03.12/outbox.cif.g09.slc.cpg/sg41_1_cif.got.tgz:922.got - 2010.04.14 01:55:53.
