data_PCOD8185008
_publ_section_title
;
Structure prediction by ZEFSAII (Michael W. Deem and Ramdas Pophale) SiO2 
 PCOD8185008
Probable space group: A B A 2
;
_chemical_formula_sum "Si O2"
_cell_formula_units_Z 48
_cell_length_a 11.572857
_cell_length_b 8.901041
_cell_length_c 21.103858
_cell_angle_alpha 90.000000
_cell_angle_beta 90.000000
_cell_angle_gamma 90.000000
_cell_volume 2173.918429
_symmetry_space_group_name_H-M "A B A 2"
_symmetry_group_IT_number 41
_symmetry_cell_setting 'orthorhombic'
loop_
_space_group_symop_operation_xyz
x,y,z
-x,-y,z
1/2-x,y,1/2+z
1/2+x,-y,1/2+z
x,1/2+y,1/2+z
-x,1/2-y,1/2+z
1/2-x,1/2+y,z
1/2+x,1/2-y,z
loop_
_atom_site_type_symbol
_atom_site_label
_atom_site_fract_x
_atom_site_fract_y
_atom_site_fract_z
Si Si1 0.532736 0.220852 0.630100
Si Si2 0.853704 0.879789 0.526685
Si Si3 0.124033 0.072787 0.875570
Si Si4 0.283547 0.349570 0.446847
Si Si5 0.877736 0.920664 0.728795
Si Si6 0.315498 0.552123 0.135746
O O1 0.533346 0.338260 0.569973
O O2 0.606637 0.265439 0.691968
O O3 0.402864 0.188343 0.654052
O O4 0.604351 0.077311 0.607222
O O5 0.819203 0.742378 0.480674
O O6 0.750522 0.886111 0.575915
O O7 0.863597 0.041231 0.490893
O O8 0.130670 0.231042 0.912906
O O9 0.147039 0.105657 0.802008
O O10 0.222760 0.957221 0.895972
O O11 0.000000 0.000000 0.887859
O O12 0.766690 0.998591 0.694590
O O13 0.000000 0.000000 0.715791
#
# Coordination Sequence:
#
# PCOD8185008 Si02
#       6
#     8   8   8   8   8   8
#     4  10  22  38  66  97 131 175 209 274 341 400
#     4  10  20  40  64  97 130 170 219 268 340 402
#     4  10  24  45  67  94 132 180 231 284 336 393
#     4  10  22  41  67  93 133 179 223 280 328 399
#     4  10  24  39  66  93 130 172 223 273 337 399
#     4  10  22  39  64  98 135 167 215 276 337 404
#
# _framework density 22.079944000000001
#
# number of rings (size 3 to 8) (size 9 to 14) (size 15 to 20)
#    0.000    2.000    1.667    0.000    7.000    4.000 
#    0.000   10.000    0.000    0.000    0.000    0.000 
#    0.000    0.000    0.000    0.000    0.000    0.000 
#
# Total GULP energy -297342.408572 kJ/mol
# GULP energy per Si atom -12389.267024 kJ/mol
# Density = 2.202969 g / cm^3
# Si number density = 22.079944 Si / 1000 Ang^3
#
#
#
# Elastic Constant Matrix: (Units=GPa)
#
#
# Indices 1 2 3 4 5 6 
#
# 1 101.4999 41.0740 50.8215 0.0000 0.0000 0.0000
# 2 41.0740 116.8048 62.2715 0.0000 0.0000 0.0000
# 3 50.8215 62.2715 145.2293 0.0000 0.0000 0.0000
# 4 0.0000 0.0000 0.0000 26.9816 0.0000 0.0000
# 5 0.0000 0.0000 0.0000 0.0000 30.2918 0.0000
# 6 0.0000 0.0000 0.0000 0.0000 0.0000 39.0727
#
#
#
# Elastic Compliance Matrix: (Units=1/GPa)
#
#
# Indices 1 2 3 4 5 6 
#
# 1 0.012565 -0.002689 -0.003244 0.000000 0.000000 0.000000
# 2 -0.002689 0.011674 -0.004065 0.000000 0.000000 0.000000
# 3 -0.003244 -0.004065 0.009764 0.000000 0.000000 0.000000
# 4 0.000000 0.000000 0.000000 0.037062 0.000000 0.000000
# 5 0.000000 0.000000 0.000000 0.000000 0.033012 0.000000
# 6 0.000000 0.000000 0.000000 0.000000 0.000000 0.025593
#
#
# Mechanical properties :
#
#
# Convention : Reuss Voigt Hill
#
# Bulk Modulus (GPa) = 71.39131 74.65200 73.02165
# Shear Modulus (GPa) = 32.39737 33.22701 32.81219
#
# Velocity S-wave (km/s) = 3.83466 3.88345 3.85913
# Velocity P-wave (km/s) = 7.21176 7.34789 7.28014
#
# Compressibility (1/GPa) = 0.01400731
#
# Stress axis : x y z
#
# Youngs Moduli (GPa) = 79.58881 85.66243 102.42112
#
# Poissons Ratio (x) = 0.23034 0.33224
# Poissons Ratio (y) = 0.21401 0.41629
# Poissons Ratio (z) = 0.25818 0.34818
#
# Static dielectric constant tensor:
#      x y z
#    x 4.049290 0.000000 0.000000 
#    y 0.000000 4.178450 0.000000 
#    z 0.000000 0.000000 4.003440 
# 
# 
# High freq. dielectric constant tensor:
#      x y z
#    x 1.868670 0.000000 0.000000 
#    y 0.000000 1.877010 0.000000 
#    z 0.000000 0.000000 1.863080 
# 
# From -- ./inp_files/12105.got.cif
#   From: 2010.03.12/outbox.cif.g09.slc.cpg/sg41_7_cif.got.tgz:12105.got - 2010.04.14 01:55:53.
