data_PCOD8185780
_publ_section_title
;
Structure prediction by ZEFSAII (Michael W. Deem and Ramdas Pophale) SiO2 
 PCOD8185780
Probable space group: F M M 2
;
_chemical_formula_sum "Si O2"
_cell_formula_units_Z 80
_cell_length_a 8.664378
_cell_length_b 29.951536
_cell_length_c 15.113057
_cell_angle_alpha 90.000000
_cell_angle_beta 90.000000
_cell_angle_gamma 90.000000
_cell_volume 3922.011027
_symmetry_space_group_name_H-M "F M M 2"
_symmetry_group_IT_number 42
_symmetry_cell_setting 'orthorhombic'
loop_
_space_group_symop_operation_xyz
x,y,z
-x,-y,z
-x,y,z
x,-y,z
x,1/2+y,1/2+z
-x,1/2-y,1/2+z
-x,1/2+y,1/2+z
x,1/2-y,1/2+z
1/2+x,y,1/2+z
1/2-x,-y,1/2+z
1/2-x,y,1/2+z
1/2+x,-y,1/2+z
1/2+x,1/2+y,z
1/2-x,1/2-y,z
1/2-x,1/2+y,z
1/2+x,1/2-y,z
loop_
_atom_site_type_symbol
_atom_site_label
_atom_site_fract_x
_atom_site_fract_y
_atom_site_fract_z
Si Si1 0.682802 0.886745 0.828670
Si Si2 0.182408 0.051562 0.685490
Si Si3 0.821967 0.110054 0.527432
Si Si4 0.680575 0.705012 0.824802
Si Si5 0.679008 0.707852 0.516417
O O1 0.500000 0.882516 0.830880
O O2 0.735657 0.928907 0.771844
O O3 0.749129 0.894166 0.928687
O O4 0.748656 0.840923 0.785808
O O5 0.252034 0.075946 0.598018
O O6 0.000000 0.059293 0.694300
O O7 0.226331 0.000000 0.678052
O O8 0.799854 0.160565 0.565896
O O9 0.000000 0.097600 0.519137
O O10 0.500000 0.704475 0.806584
O O11 0.750000 0.750000 0.779287
O O12 0.720189 0.705949 0.927992
O O13 0.500000 0.715701 0.492734
O O14 0.750000 0.750000 0.572032
#
# Coordination Sequence:
#
# PCOD8185780 Si02
#       5
#    16  16  16  16  16
#     4  10  20  36  57  82 111 144 182 223 271 324
#     4  10  21  38  58  79 104 138 182 231 281 330
#     4   8  17  34  55  77 105 142 180 218 265 325
#     4  10  17  28  49  78 111 146 182 219 263 315
#     4   9  15  26  46  74 107 142 179 218 263 316
#
# _framework density 20.397697999999998
#
# number of rings (size 3 to 8) (size 9 to 14) (size 15 to 20)
#    0.000    2.600    0.000    5.400    0.000    1.200 
#    0.000    9.000    0.000    2.400    0.000    0.000 
#    0.000    0.000    0.000    0.000    0.000    0.000 
#
# Total GULP energy -247824.260784 kJ/mol
# GULP energy per Si atom -12391.213039 kJ/mol
# Density = 2.035127 g / cm^3
# Si number density = 20.397698 Si / 1000 Ang^3
#
#
#
# Elastic Constant Matrix: (Units=GPa)
#
#
# Indices 1 2 3 4 5 6 
#
# 1 84.5340 51.4609 23.7448 0.0000 0.0000 0.0000
# 2 51.4609 174.3710 64.9311 0.0000 0.0000 0.0000
# 3 23.7448 64.9311 83.6365 0.0000 0.0000 0.0000
# 4 0.0000 0.0000 0.0000 10.6015 0.0000 0.0000
# 5 0.0000 0.0000 0.0000 0.0000 14.2909 0.0000
# 6 0.0000 0.0000 0.0000 0.0000 0.0000 31.4297
#
#
#
# Elastic Compliance Matrix: (Units=1/GPa)
#
#
# Indices 1 2 3 4 5 6 
#
# 1 0.014494 -0.003862 -0.001117 0.000000 0.000000 0.000000
# 2 -0.003862 0.009096 -0.005965 0.000000 0.000000 0.000000
# 3 -0.001117 -0.005965 0.016905 0.000000 0.000000 0.000000
# 4 0.000000 0.000000 0.000000 0.094327 0.000000 0.000000
# 5 0.000000 0.000000 0.000000 0.000000 0.069975 0.000000
# 6 0.000000 0.000000 0.000000 0.000000 0.000000 0.031817
#
#
# Mechanical properties :
#
#
# Convention : Reuss Voigt Hill
#
# Bulk Modulus (GPa) = 53.74315 69.20168 61.47241
# Shear Modulus (GPa) = 18.88910 24.75805 21.82358
#
# Velocity S-wave (km/s) = 3.04639 3.48770 3.27449
# Velocity P-wave (km/s) = 6.22727 7.08651 6.67074
#
# Compressibility (1/GPa) = 0.01860702
#
# Stress axis : x y z
#
# Youngs Moduli (GPa) = 68.99357 109.94044 59.15506
#
# Poissons Ratio (x) = 0.42455 0.06608
# Poissons Ratio (y) = 0.26643 0.35287
# Poissons Ratio (z) = 0.07707 0.65582
#
# Static dielectric constant tensor:
#      x y z
#    x 3.475250 0.000000 0.000000 
#    y 0.000000 4.281570 0.000000 
#    z 0.000000 0.000000 3.497160 
# 
# 
# High freq. dielectric constant tensor:
#      x y z
#    x 1.777620 0.000000 0.000000 
#    y 0.000000 1.812110 0.000000 
#    z 0.000000 0.000000 1.765120 
# 
# From -- ./inp_files/18213.got.cif
#   From: 2010.03.12/outbox.cif.g09.slc.cpg/sg42_10_cif.got.tgz:18213.got - 2010.04.14 02:04:31.
