data_PCOD8185932
_publ_section_title
;
Structure prediction by ZEFSAII (Michael W. Deem and Ramdas Pophale) SiO2 
 PCOD8185932
Probable space group: F M M 2
;
_chemical_formula_sum "Si O2"
_cell_formula_units_Z 112
_cell_length_a 16.926332
_cell_length_b 20.087642
_cell_length_c 16.881112
_cell_angle_alpha 90.000000
_cell_angle_beta 90.000000
_cell_angle_gamma 90.000000
_cell_volume 5739.748539
_symmetry_space_group_name_H-M "F M M 2"
_symmetry_group_IT_number 42
_symmetry_cell_setting 'orthorhombic'
loop_
_space_group_symop_operation_xyz
x,y,z
-x,-y,z
-x,y,z
x,-y,z
x,1/2+y,1/2+z
-x,1/2-y,1/2+z
-x,1/2+y,1/2+z
x,1/2-y,1/2+z
1/2+x,y,1/2+z
1/2-x,-y,1/2+z
1/2-x,y,1/2+z
1/2+x,-y,1/2+z
1/2+x,1/2+y,z
1/2-x,1/2-y,z
1/2-x,1/2+y,z
1/2+x,1/2-y,z
loop_
_atom_site_type_symbol
_atom_site_label
_atom_site_fract_x
_atom_site_fract_y
_atom_site_fract_z
Si Si1 0.703420 0.681660 0.564740
Si Si2 0.092850 0.234309 0.692392
Si Si3 0.091145 0.073880 0.968298
Si Si4 0.853670 0.876427 0.132673
Si Si5 0.909536 0.191427 0.862337
Si Si6 0.409093 0.333798 0.428228
Si Si7 0.589984 0.926922 0.785519
O O1 0.750000 0.750000 0.543329
O O2 0.634350 0.689594 0.627720
O O3 0.764622 0.629447 0.601179
O O4 0.658344 0.647480 0.491327
O O5 0.111872 0.310198 0.672934
O O6 0.128516 0.210939 0.777602
O O7 0.000000 0.222525 0.688641
O O8 0.095150 0.099210 0.058478
O O9 0.000000 0.068641 0.946303
O O10 0.130199 0.000000 0.958733
O O11 0.130971 0.127951 0.907438
O O12 0.857075 0.927631 0.205782
O O13 0.902944 0.254421 0.920073
O O14 0.000000 0.173758 0.846527
O O15 0.500000 0.353365 0.451810
O O16 0.383563 0.371209 0.348216
O O17 0.500000 0.912253 0.759820
O O18 0.598139 0.000000 0.824876
#
# Coordination Sequence:
#
# PCOD8185932 Si02
#       7
#    16  16  16  16  16  16  16
#     4  10  22  35  50  84 116 152 186 231 288 344
#     4  10  18  33  57  83 111 148 196 242 280 331
#     4  10  20  34  56  84 115 152 189 231 285 349
#     4  11  20  35  52  83 121 149 187 232 294 352
#     4   9  17  31  55  85 111 140 187 242 284 326
#     4  10  19  37  61  84 111 148 197 245 288 337
#     4  10  20  36  61  87 110 145 195 247 292 339
#
# _framework density 19.513048999999999
#
# number of rings (size 3 to 8) (size 9 to 14) (size 15 to 20)
#    0.000    2.000    1.429    3.857    0.000    2.286 
#    5.143    1.429    0.000    1.714    0.000    4.000 
#    0.000    0.000    0.000    0.000    0.000    0.000 
#
# Total GULP energy -346989.547989 kJ/mol
# GULP energy per Si atom -12392.483857 kJ/mol
# Density = 1.946864 g / cm^3
# Si number density = 19.513049 Si / 1000 Ang^3
#
#
#
# Elastic Constant Matrix: (Units=GPa)
#
#
# Indices 1 2 3 4 5 6 
#
# 1 73.6270 18.1962 45.6620 0.0000 0.0000 0.0000
# 2 18.1962 114.5736 59.3661 0.0000 0.0000 0.0000
# 3 45.6620 59.3661 125.0744 0.0000 0.0000 0.0000
# 4 0.0000 0.0000 0.0000 22.1731 0.0000 0.0000
# 5 0.0000 0.0000 0.0000 0.0000 22.5285 0.0000
# 6 0.0000 0.0000 0.0000 0.0000 0.0000 15.3810
#
#
#
# Elastic Compliance Matrix: (Units=1/GPa)
#
#
# Indices 1 2 3 4 5 6 
#
# 1 0.017600 0.000708 -0.006762 0.000000 0.000000 0.000000
# 2 0.000708 0.011603 -0.005766 0.000000 0.000000 0.000000
# 3 -0.006762 -0.005766 0.013201 0.000000 0.000000 0.000000
# 4 0.000000 0.000000 0.000000 0.045100 0.000000 0.000000
# 5 0.000000 0.000000 0.000000 0.000000 0.044388 0.000000
# 6 0.000000 0.000000 0.000000 0.000000 0.000000 0.065015
#
#
# Mechanical properties :
#
#
# Convention : Reuss Voigt Hill
#
# Bulk Modulus (GPa) = 53.28959 62.19151 57.74055
# Shear Modulus (GPa) = 22.04571 24.68655 23.36613
#
# Velocity S-wave (km/s) = 3.36489 3.56073 3.46419
# Velocity P-wave (km/s) = 6.51656 6.98899 6.75691
#
# Compressibility (1/GPa) = 0.01876539
#
# Stress axis : x y z
#
# Youngs Moduli (GPa) = 56.81685 86.18336 75.75398
#
# Poissons Ratio (x) = -0.06105 0.51223
# Poissons Ratio (y) = -0.04025 0.43680
# Poissons Ratio (z) = 0.38418 0.49693
#
# Static dielectric constant tensor:
#      x y z
#    x 3.393090 0.000000 0.000000 
#    y 0.000000 3.671900 0.000000 
#    z 0.000000 0.000000 3.729280 
# 
# 
# High freq. dielectric constant tensor:
#      x y z
#    x 1.734860 0.000000 0.000000 
#    y 0.000000 1.744170 0.000000 
#    z 0.000000 0.000000 1.766180 
# 
# From -- ./inp_files/21089.got.cif
#   From: 2010.03.12/outbox.cif.g09.slc.cpg/sg42_11_cif.got.tgz:21089.got - 2010.04.14 02:04:31.
