data_PCOD8185252
_publ_section_title
;
Structure prediction by ZEFSAII (Michael W. Deem and Ramdas Pophale) SiO2 
 PCOD8185252
Probable space group: A B A 2
;
_chemical_formula_sum "Si O2"
_cell_formula_units_Z 48
_cell_length_a 22.726699
_cell_length_b 8.026543
_cell_length_c 11.134683
_cell_angle_alpha 90.000000
_cell_angle_beta 90.000000
_cell_angle_gamma 90.000000
_cell_volume 2031.153540
_symmetry_space_group_name_H-M "A B A 2"
_symmetry_group_IT_number 41
_symmetry_cell_setting 'orthorhombic'
loop_
_space_group_symop_operation_xyz
x,y,z
-x,-y,z
1/2-x,y,1/2+z
1/2+x,-y,1/2+z
x,1/2+y,1/2+z
-x,1/2-y,1/2+z
1/2-x,1/2+y,z
1/2+x,1/2-y,z
loop_
_atom_site_type_symbol
_atom_site_label
_atom_site_fract_x
_atom_site_fract_y
_atom_site_fract_z
Si Si1 0.439613 0.927804 0.761720
Si Si2 0.358852 0.926444 0.545702
Si Si3 0.160875 0.033998 0.694896
Si Si4 0.938170 0.411710 0.370472
Si Si5 0.151190 0.090668 0.423032
Si Si6 0.777093 0.609678 0.738635
O O1 0.401409 0.853073 0.651691
O O2 0.453135 0.780022 0.853522
O O3 0.500000 0.000000 0.709419
O O4 0.406339 0.067396 0.840183
O O5 0.342006 0.789249 0.444852
O O6 0.300279 0.986023 0.616514
O O7 0.394861 0.076743 0.485896
O O8 0.098411 0.009866 0.759979
O O9 0.146572 0.012395 0.555158
O O10 0.194474 0.205501 0.735340
O O11 0.206186 0.886007 0.732933
O O12 0.000000 0.500000 0.391396
O O13 0.204996 0.998059 0.355946
#
# Coordination Sequence:
#
# PCOD8185252 Si02
#       6
#     8   8   8   8   8   8
#     4  11  23  46  68  95 138 182 228 281 339 409
#     4  10  23  46  67 102 137 175 236 283 341 405
#     4  11  25  44  67 105 138 178 234 282 351 416
#     4  12  25  46  67 104 140 182 233 283 344 418
#     4  10  21  45  66  97 140 177 222 288 344 405
#     4  10  24  43  69  99 140 179 227 289 346 412
#
# _framework density 23.631891
#
# number of rings (size 3 to 8) (size 9 to 14) (size 15 to 20)
#    0.000    1.333    5.000    1.500    4.667    3.333 
#    9.000    0.000    0.000    0.000    0.000    0.000 
#    0.000    0.000    0.000    0.000    0.000    0.000 
#
# Total GULP energy -297369.092850 kJ/mol
# GULP energy per Si atom -12390.378869 kJ/mol
# Density = 2.357810 g / cm^3
# Si number density = 23.631891 Si / 1000 Ang^3
#
#
#
# Elastic Constant Matrix: (Units=GPa)
#
#
# Indices 1 2 3 4 5 6 
#
# 1 76.7425 -21.9694 7.7122 0.0000 0.0000 0.0000
# 2 -21.9694 44.0565 7.0601 0.0000 0.0000 0.0000
# 3 7.7122 7.0601 111.3117 0.0000 0.0000 0.0000
# 4 0.0000 0.0000 0.0000 37.8562 0.0000 0.0000
# 5 0.0000 0.0000 0.0000 0.0000 28.3598 0.0000
# 6 0.0000 0.0000 0.0000 0.0000 0.0000 26.9654
#
#
#
# Elastic Compliance Matrix: (Units=1/GPa)
#
#
# Indices 1 2 3 4 5 6 
#
# 1 0.015470 0.007967 -0.001577 0.000000 0.000000 0.000000
# 2 0.007967 0.027034 -0.002267 0.000000 0.000000 0.000000
# 3 -0.001577 -0.002267 0.009237 0.000000 0.000000 0.000000
# 4 0.000000 0.000000 0.000000 0.026416 0.000000 0.000000
# 5 0.000000 0.000000 0.000000 0.000000 0.035261 0.000000
# 6 0.000000 0.000000 0.000000 0.000000 0.000000 0.037085
#
#
# Mechanical properties :
#
#
# Convention : Reuss Voigt Hill
#
# Bulk Modulus (GPa) = 16.67023 24.19073 20.43048
# Shear Modulus (GPa) = 30.81633 34.59014 32.70324
#
# Velocity S-wave (km/s) = 3.61503 3.82999 3.72406
# Velocity P-wave (km/s) = 4.94915 5.46051 5.21110
#
# Compressibility (1/GPa) = 0.05998718
#
# Stress axis : x y z
#
# Youngs Moduli (GPa) = 64.64196 36.99019 108.26242
#
# Poissons Ratio (x) = -0.29470 0.17074
# Poissons Ratio (y) = -0.51500 0.24539
# Poissons Ratio (z) = 0.10195 0.08384
#
# Static dielectric constant tensor:
#      x y z
#    x 4.383120 0.000000 0.000000 
#    y 0.000000 4.037510 0.000000 
#    z 0.000000 0.000000 4.431510 
# 
# 
# High freq. dielectric constant tensor:
#      x y z
#    x 1.939080 0.000000 0.000000 
#    y 0.000000 1.915320 0.000000 
#    z 0.000000 0.000000 1.946810 
# 
# From -- ./inp_files/6384.got.cif
#   From: 2010.03.12/outbox.cif.g09.slc.cpg/sg41_4_cif.got.tgz:6384.got - 2010.04.14 01:55:53.
