data_PCOD8185966
_publ_section_title
;
Structure prediction by ZEFSAII (Michael W. Deem and Ramdas Pophale) SiO2 
 PCOD8185966
Probable space group: F M M 2
;
_chemical_formula_sum "Si O2"
_cell_formula_units_Z 112
_cell_length_a 15.931300
_cell_length_b 26.805133
_cell_length_c 14.081695
_cell_angle_alpha 90.000000
_cell_angle_beta 90.000000
_cell_angle_gamma 90.000000
_cell_volume 6013.455698
_symmetry_space_group_name_H-M "F M M 2"
_symmetry_group_IT_number 42
_symmetry_cell_setting 'orthorhombic'
loop_
_space_group_symop_operation_xyz
x,y,z
-x,-y,z
-x,y,z
x,-y,z
x,1/2+y,1/2+z
-x,1/2-y,1/2+z
-x,1/2+y,1/2+z
x,1/2-y,1/2+z
1/2+x,y,1/2+z
1/2-x,-y,1/2+z
1/2-x,y,1/2+z
1/2+x,-y,1/2+z
1/2+x,1/2+y,z
1/2-x,1/2-y,z
1/2-x,1/2+y,z
1/2+x,1/2-y,z
loop_
_atom_site_type_symbol
_atom_site_label
_atom_site_fract_x
_atom_site_fract_y
_atom_site_fract_z
Si Si1 0.402222 0.058922 0.810900
Si Si2 0.876298 0.235870 0.310900
Si Si3 0.908364 0.797962 0.112230
Si Si4 0.908364 0.297962 0.009570
Si Si5 0.794026 0.388236 0.651487
Si Si6 0.205974 0.611764 0.970313
Si Si7 0.786058 0.831386 0.810900
O O1 0.500000 0.076594 0.810900
O O2 0.356249 0.077956 0.715137
O O3 0.356249 0.077956 0.906663
O O4 0.396393 0.000000 0.810900
O O5 0.926462 0.217193 0.220385
O O6 0.926462 0.217193 0.401414
O O7 0.869000 0.296800 0.310900
O O8 0.788149 0.208063 0.310900
O O9 0.866459 0.750000 0.060900
O O10 0.846982 0.844453 0.101792
O O11 0.000000 0.810557 0.067389
O O12 0.000000 0.310557 0.054411
O O13 0.846982 0.344453 0.020007
O O14 0.750000 0.416584 0.560900
O O15 0.720054 0.366285 0.717881
O O16 0.279946 0.633715 0.903919
#
# Coordination Sequence:
#
# PCOD8185966 Si02
#       7
#    16  16  16  16  16  16  16
#     4  10  22  40  60  81 105 135 175 224 277 330
#     4   9  15  26  40  57  91 135 177 213 245 284
#     4  10  19  28  42  67 100 139 179 215 253 305
#     4  10  19  28  42  67 100 139 179 215 253 305
#     4  10  19  32  52  76 104 136 174 222 272 317
#     4  10  19  32  52  76 104 136 174 222 272 317
#     4   8  16  26  41  66  94 131 172 210 252 302
#
# _framework density 18.624898999999999
#
# number of rings (size 3 to 8) (size 9 to 14) (size 15 to 20)
#    0.000    2.429    0.000    3.857    0.000    3.429 
#    0.000    0.000    0.000    0.000    0.000    9.000 
#    0.000   13.714    0.000    0.000    0.000    0.000 
#
# Total GULP energy -346874.003618 kJ/mol
# GULP energy per Si atom -12388.357272 kJ/mol
# Density = 1.858251 g / cm^3
# Si number density = 18.624899 Si / 1000 Ang^3
#
#
#
# Elastic Constant Matrix: (Units=GPa)
#
#
# Indices 1 2 3 4 5 6 
#
# 1 64.4873 22.1726 33.9452 0.0000 0.0000 0.0000
# 2 22.1726 60.6954 28.0664 0.0000 0.0000 0.0000
# 3 33.9452 28.0664 117.2152 0.0000 0.0000 0.0000
# 4 0.0000 0.0000 0.0000 18.3888 0.0000 0.0000
# 5 0.0000 0.0000 0.0000 0.0000 -26.4626 0.0000
# 6 0.0000 0.0000 0.0000 0.0000 0.0000 15.2888
#
#
#
# Elastic Compliance Matrix: (Units=1/GPa)
#
#
# Indices 1 2 3 4 5 6 
#
# 1 0.019607 -0.005102 -0.004457 0.000000 0.000000 0.000000
# 2 -0.005102 0.019855 -0.003277 0.000000 0.000000 0.000000
# 3 -0.004457 -0.003277 0.010606 0.000000 0.000000 0.000000
# 4 0.000000 0.000000 0.000000 0.054381 0.000000 0.000000
# 5 0.000000 0.000000 0.000000 0.000000 -0.037789 0.000000
# 6 0.000000 0.000000 0.000000 0.000000 0.000000 0.065408
#
#
# Mechanical properties :
#
#
# Convention : Reuss Voigt Hill
#
# Bulk Modulus (GPa) = 40.98674 45.64070 43.31372
# Shear Modulus (GPa) = 30.14412 11.99057 21.06734
#
# Velocity S-wave (km/s) = 4.02740 2.54006 3.36689
# Velocity P-wave (km/s) = 6.60915 5.75855 6.19846
#
# Compressibility (1/GPa) = 0.02439814
#
# Stress axis : x y z
#
# Youngs Moduli (GPa) = 51.00238 50.36623 94.28216
#
# Poissons Ratio (x) = 0.25696 0.42017
# Poissons Ratio (y) = 0.26021 0.30892
# Poissons Ratio (z) = 0.22729 0.16503
#
# Static dielectric constant tensor:
#      x y z
#    x 3.368800 0.000000 0.000000 
#    y 0.000000 3.169940 0.000000 
#    z 0.000000 0.000000 3.594090 
# 
# 
# High freq. dielectric constant tensor:
#      x y z
#    x 1.711000 0.000000 0.000000 
#    y 0.000000 1.681710 0.000000 
#    z 0.000000 0.000000 1.733020 
# 
# From -- ./inp_files/9776.got.cif
#   From: 2010.03.12/outbox.cif.g09.slc.cpg/sg42_5_cif.got.tgz:9776.got - 2010.04.14 02:04:31.
