data_PCOD8185274
_publ_section_title
;
Structure prediction by ZEFSAII (Michael W. Deem and Ramdas Pophale) SiO2 
 PCOD8185274
Probable space group: A B A 2
;
_chemical_formula_sum "Si O2"
_cell_formula_units_Z 52
_cell_length_a 8.829959
_cell_length_b 20.196721
_cell_length_c 13.922558
_cell_angle_alpha 90.000000
_cell_angle_beta 90.000000
_cell_angle_gamma 90.000000
_cell_volume 2482.896344
_symmetry_space_group_name_H-M "A B A 2"
_symmetry_group_IT_number 41
_symmetry_cell_setting 'orthorhombic'
loop_
_space_group_symop_operation_xyz
x,y,z
-x,-y,z
1/2-x,y,1/2+z
1/2+x,-y,1/2+z
x,1/2+y,1/2+z
-x,1/2-y,1/2+z
1/2-x,1/2+y,z
1/2+x,1/2-y,z
loop_
_atom_site_type_symbol
_atom_site_label
_atom_site_fract_x
_atom_site_fract_y
_atom_site_fract_z
Si Si1 0.606158 0.092408 0.281080
Si Si2 0.055544 0.925068 0.303439
Si Si3 0.616909 0.892710 0.994067
Si Si4 0.582354 0.165511 0.620074
Si Si5 0.042412 0.573731 0.471322
Si Si6 0.000000 0.500000 0.123308
Si Si7 0.072420 0.802095 0.634275
O O1 0.767979 0.082176 0.333028
O O2 0.479250 0.072095 0.356668
O O3 0.608319 0.045364 0.187803
O O4 0.560649 0.165142 0.240812
O O5 0.039131 0.884405 0.205538
O O6 0.958108 0.893335 0.389015
O O7 0.000000 0.000000 0.286260
O O8 0.796586 0.891029 0.986576
O O9 0.540103 0.834392 0.055698
O O10 0.605382 0.960362 0.051991
O O11 0.567617 0.126256 0.520743
O O12 0.751508 0.191932 0.610030
O O13 0.466978 0.225324 0.637184
O O14 0.000000 0.500000 0.510938
#
# Coordination Sequence:
#
# PCOD8185274 Si02
#       7
#     8   8   8   8   8   4   8
#     4  10  23  41  65  92 134 168 215 266 327 381
#     4  11  23  40  66  98 129 171 212 275 324 390
#     4  11  24  39  68  94 134 169 217 264 327 381
#     4  11  25  43  67  93 134 170 226 264 326 389
#     4  12  25  39  66 101 132 173 215 270 323 395
#     4  10  22  38  62  92 130 168 202 268 318 382
#     4  10  24  46  66  95 127 180 216 273 323 384
#
# _framework density 20.943283000000001
#
# number of rings (size 3 to 8) (size 9 to 14) (size 15 to 20)
#    0.000    1.231    1.538    3.231    8.615    3.692 
#    0.000    3.077    0.000    0.000    0.000    0.000 
#    0.000    0.000    0.000    0.000    0.000    0.000 
#
# Total GULP energy -322185.549728 kJ/mol
# GULP energy per Si atom -12391.751913 kJ/mol
# Density = 2.089562 g / cm^3
# Si number density = 20.943283 Si / 1000 Ang^3
#
#
#
# Elastic Constant Matrix: (Units=GPa)
#
#
# Indices 1 2 3 4 5 6 
#
# 1 116.9726 42.2819 42.1306 0.0000 0.0000 0.0000
# 2 42.2819 121.3805 30.5572 0.0000 0.0000 0.0000
# 3 42.1306 30.5572 83.8922 0.0000 0.0000 0.0000
# 4 0.0000 0.0000 0.0000 28.9651 0.0000 0.0000
# 5 0.0000 0.0000 0.0000 0.0000 36.1847 0.0000
# 6 0.0000 0.0000 0.0000 0.0000 0.0000 34.4750
#
#
#
# Elastic Compliance Matrix: (Units=1/GPa)
#
#
# Indices 1 2 3 4 5 6 
#
# 1 0.011207 -0.002738 -0.004631 0.000000 0.000000 0.000000
# 2 -0.002738 0.009739 -0.002172 0.000000 0.000000 0.000000
# 3 -0.004631 -0.002172 0.015037 0.000000 0.000000 0.000000
# 4 0.000000 0.000000 0.000000 0.034524 0.000000 0.000000
# 5 0.000000 0.000000 0.000000 0.000000 0.027636 0.000000
# 6 0.000000 0.000000 0.000000 0.000000 0.000000 0.029007
#
#
# Mechanical properties :
#
#
# Convention : Reuss Voigt Hill
#
# Bulk Modulus (GPa) = 59.16970 61.35383 60.26177
# Shear Modulus (GPa) = 32.92397 33.74333 33.33365
#
# Velocity S-wave (km/s) = 3.96922 4.01830 3.99383
# Velocity P-wave (km/s) = 7.02281 7.13357 7.07841
#
# Compressibility (1/GPa) = 0.01690054
#
# Stress axis : x y z
#
# Youngs Moduli (GPa) = 89.23365 102.67775 66.50322
#
# Poissons Ratio (x) = 0.28113 0.30795
# Poissons Ratio (y) = 0.24432 0.14447
# Poissons Ratio (z) = 0.41321 0.22306
#
# Static dielectric constant tensor:
#      x y z
#    x 3.806030 0.000000 0.000000 
#    y 0.000000 3.870890 0.000000 
#    z 0.000000 0.000000 3.822260 
# 
# 
# High freq. dielectric constant tensor:
#      x y z
#    x 1.829100 0.000000 0.000000 
#    y 0.000000 1.820750 0.000000 
#    z 0.000000 0.000000 1.827150 
# 
# From -- ./inp_files/7411.got.cif
#   From: 2010.03.12/outbox.cif.g09.slc.cpg/sg41_4_cif.got.tgz:7411.got - 2010.04.14 01:55:53.
