data_PCOD8185198
_publ_section_title
;
Structure prediction by ZEFSAII (Michael W. Deem and Ramdas Pophale) SiO2 
 PCOD8185198
Probable space group: A B A 2
;
_chemical_formula_sum "Si O2"
_cell_formula_units_Z 60
_cell_length_a 21.267968
_cell_length_b 27.878912
_cell_length_c 5.035802
_cell_angle_alpha 90.000000
_cell_angle_beta 90.000000
_cell_angle_gamma 90.000000
_cell_volume 2985.867043
_symmetry_space_group_name_H-M "A B A 2"
_symmetry_group_IT_number 41
_symmetry_cell_setting 'orthorhombic'
loop_
_space_group_symop_operation_xyz
x,y,z
-x,-y,z
1/2-x,y,1/2+z
1/2+x,-y,1/2+z
x,1/2+y,1/2+z
-x,1/2-y,1/2+z
1/2-x,1/2+y,z
1/2+x,1/2-y,z
loop_
_atom_site_type_symbol
_atom_site_label
_atom_site_fract_x
_atom_site_fract_y
_atom_site_fract_z
Si Si1 0.467768 0.100056 0.328220
Si Si2 0.000000 0.500000 0.542450
Si Si3 0.607380 0.110206 0.271835
Si Si4 0.709060 0.298959 0.256914
Si Si5 0.209300 0.811734 0.780399
Si Si6 0.708852 0.961293 0.695987
Si Si7 0.389471 0.620895 0.317157
Si Si8 0.620017 0.047259 0.769931
O O1 0.534009 0.124299 0.250174
O O2 0.446530 0.122352 0.608637
O O3 0.475878 0.042597 0.352649
O O4 0.415973 0.111835 0.109350
O O5 0.055728 0.482407 0.733652
O O6 0.647445 0.157657 0.218579
O O7 0.623438 0.090685 0.562972
O O8 0.623458 0.068260 0.064719
O O9 0.762514 0.311984 0.471082
O O10 0.688937 0.243595 0.267719
O O11 0.646307 0.328685 0.312108
O O12 0.263185 0.824185 0.568101
O O13 0.733802 0.954435 0.398461
O O14 0.656505 0.921680 0.739492
O O15 0.680262 0.013880 0.731841
#
# Coordination Sequence:
#
# PCOD8185198 Si02
#       8
#     8   4   8   8   8   8   8   8
#     4  11  24  37  63  86 124 162 212 243 299 353
#     4  10  22  42  60  86 116 174 216 250 276 374
#     4  11  24  40  60  93 120 157 203 259 291 363
#     4  10  21  41  66  92 118 158 206 253 304 374
#     4  10  22  41  68  90 118 158 202 250 313 372
#     4  12  25  38  55  86 122 155 194 248 307 355
#     4  12  23  40  61  90 120 164 201 251 303 361
#     4  11  24  38  61  84 120 162 203 250 297 354
#
# _framework density 20.094666
#
# number of rings (size 3 to 8) (size 9 to 14) (size 15 to 20)
#    0.000    1.067    1.333    5.600    3.733    4.267 
#    0.000    1.333    0.000    0.000    0.000    0.000 
#    0.000    0.000    0.000    0.000    0.000    0.000 
#
# Total GULP energy -372222.339951 kJ/mol
# GULP energy per Si atom -12407.411332 kJ/mol
# Density = 2.004893 g / cm^3
# Si number density = 20.094666 Si / 1000 Ang^3
#
#
#
# Elastic Constant Matrix: (Units=GPa)
#
#
# Indices 1 2 3 4 5 6 
#
# 1 92.7733 62.2447 17.0215 0.0000 0.0000 0.0000
# 2 62.2447 93.4732 20.1117 0.0000 0.0000 0.0000
# 3 17.0215 20.1117 76.1127 0.0000 0.0000 0.0000
# 4 0.0000 0.0000 0.0000 22.9975 0.0000 0.0000
# 5 0.0000 0.0000 0.0000 0.0000 22.1163 0.0000
# 6 0.0000 0.0000 0.0000 0.0000 0.0000 34.8610
#
#
#
# Elastic Compliance Matrix: (Units=1/GPa)
#
#
# Indices 1 2 3 4 5 6 
#
# 1 0.019554 -0.012809 -0.000988 0.000000 0.000000 0.000000
# 2 -0.012809 0.019733 -0.002350 0.000000 0.000000 0.000000
# 3 -0.000988 -0.002350 0.013980 0.000000 0.000000 0.000000
# 4 0.000000 0.000000 0.000000 0.043483 0.000000 0.000000
# 5 0.000000 0.000000 0.000000 0.000000 0.045216 0.000000
# 6 0.000000 0.000000 0.000000 0.000000 0.000000 0.028685
#
#
# Mechanical properties :
#
#
# Convention : Reuss Voigt Hill
#
# Bulk Modulus (GPa) = 47.67817 51.23499 49.45658
# Shear Modulus (GPa) = 23.81675 26.86038 25.33857
#
# Velocity S-wave (km/s) = 3.44645 3.66005 3.55485
# Velocity P-wave (km/s) = 6.29409 6.58889 6.44318
#
# Compressibility (1/GPa) = 0.02097396
#
# Stress axis : x y z
#
# Youngs Moduli (GPa) = 51.14046 50.67617 71.52890
#
# Poissons Ratio (x) = 0.64909 0.07071
# Poissons Ratio (y) = 0.65503 0.16808
# Poissons Ratio (z) = 0.05055 0.11908
#
# Static dielectric constant tensor:
#      x y z
#    x 3.753350 0.000000 0.000000 
#    y 0.000000 3.607420 0.000000 
#    z 0.000000 0.000000 3.809740 
# 
# 
# High freq. dielectric constant tensor:
#      x y z
#    x 1.787620 0.000000 0.000000 
#    y 0.000000 1.772440 0.000000 
#    z 0.000000 0.000000 1.802140 
# 
# From -- ./inp_files/565.got.cif
#   From: 2010.03.12/outbox.cif.g09.slc.cpg/sg41_1_cif.got.tgz:565.got - 2010.04.14 01:55:53.
