data_PCOD8185610
_publ_section_title
;
Structure prediction by ZEFSAII (Michael W. Deem and Ramdas Pophale) SiO2 
 PCOD8185610
Probable space group: A B A 2
;
_chemical_formula_sum "Si O2"
_cell_formula_units_Z 64
_cell_length_a 26.983251
_cell_length_b 8.877003
_cell_length_c 10.505290
_cell_angle_alpha 90.000000
_cell_angle_beta 90.000000
_cell_angle_gamma 90.000000
_cell_volume 2516.336317
_symmetry_space_group_name_H-M "A B A 2"
_symmetry_group_IT_number 41
_symmetry_cell_setting 'orthorhombic'
loop_
_space_group_symop_operation_xyz
x,y,z
-x,-y,z
1/2-x,y,1/2+z
1/2+x,-y,1/2+z
x,1/2+y,1/2+z
-x,1/2-y,1/2+z
1/2-x,1/2+y,z
1/2+x,1/2-y,z
loop_
_atom_site_type_symbol
_atom_site_label
_atom_site_fract_x
_atom_site_fract_y
_atom_site_fract_z
Si Si1 0.304872 0.345217 0.879600
Si Si2 0.220281 0.900254 0.549460
Si Si3 0.635520 0.872075 0.009991
Si Si4 0.953893 0.276976 0.353673
Si Si5 0.292858 0.597505 0.185839
Si Si6 0.602545 0.997738 0.762749
Si Si7 0.604805 0.016482 0.243910
Si Si8 0.037722 0.227427 0.145360
O O1 0.335834 0.287793 0.004177
O O2 0.287396 0.189370 0.815807
O O3 0.339023 0.448319 0.788869
O O4 0.257129 0.432019 0.930823
O O5 0.210068 0.722952 0.572650
O O6 0.169492 0.978241 0.512929
O O7 0.247439 0.978104 0.672378
O O8 0.602666 0.880661 0.882076
O O9 0.604393 0.879960 0.139622
O O10 0.929703 0.445585 0.354460
O O11 0.976801 0.251700 0.495713
O O12 0.993969 0.268069 0.241482
O O13 0.910177 0.159498 0.321989
O O14 0.345168 0.507242 0.186935
O O15 0.557869 0.942130 0.670324
O O16 0.583695 0.164469 0.177948
#
# Coordination Sequence:
#
# PCOD8185610 Si02
#       8
#     8   8   8   8   8   8   8   8
#     4  11  26  44  69 106 150 197 252 319 363 449
#     4  12  25  44  71 108 153 200 258 317 375 433
#     4  11  23  46  72 103 148 202 245 307 375 444
#     4  12  31  47  85 113 150 199 258 319 400 472
#     4  11  26  45  69 106 149 196 256 316 364 462
#     4  11  26  49  77 105 154 198 249 312 389 456
#     4  12  26  47  77 108 150 196 259 309 388 461
#     4  12  27  54  75 116 154 193 253 326 390 483
#
# _framework density 25.433800000000002
#
# number of rings (size 3 to 8) (size 9 to 14) (size 15 to 20)
#    0.000    0.500    6.250    0.750    8.750    3.000 
#    0.000    0.000    0.000    0.000    0.000    0.000 
#    0.000    0.000    0.000    0.000    0.000    0.000 
#
# Total GULP energy -396692.977547 kJ/mol
# GULP energy per Si atom -12396.655548 kJ/mol
# Density = 2.537591 g / cm^3
# Si number density = 25.433800 Si / 1000 Ang^3
#
#
#
# Elastic Constant Matrix: (Units=GPa)
#
#
# Indices 1 2 3 4 5 6 
#
# 1 93.9574 1.6445 45.4137 0.0000 0.0000 0.0000
# 2 1.6445 33.7075 35.4722 0.0000 0.0000 0.0000
# 3 45.4137 35.4722 142.8377 0.0000 0.0000 0.0000
# 4 0.0000 0.0000 0.0000 43.6417 0.0000 0.0000
# 5 0.0000 0.0000 0.0000 0.0000 39.9448 0.0000
# 6 0.0000 0.0000 0.0000 0.0000 0.0000 22.4319
#
#
#
# Elastic Compliance Matrix: (Units=1/GPa)
#
#
# Indices 1 2 3 4 5 6 
#
# 1 0.013194 0.005105 -0.005463 0.000000 0.000000 0.000000
# 2 0.005105 0.042138 -0.012088 0.000000 0.000000 0.000000
# 3 -0.005463 -0.012088 0.011740 0.000000 0.000000 0.000000
# 4 0.000000 0.000000 0.000000 0.022914 0.000000 0.000000
# 5 0.000000 0.000000 0.000000 0.000000 0.025035 0.000000
# 6 0.000000 0.000000 0.000000 0.000000 0.000000 0.044579
#
#
# Mechanical properties :
#
#
# Convention : Reuss Voigt Hill
#
# Bulk Modulus (GPa) = 23.70716 48.39593 36.05154
# Shear Modulus (GPa) = 25.18242 33.73517 29.45879
#
# Velocity S-wave (km/s) = 3.15002 3.64592 3.40700
# Velocity P-wave (km/s) = 4.75095 6.06573 5.44815
#
# Compressibility (1/GPa) = 0.04218136
#
# Stress axis : x y z
#
# Youngs Moduli (GPa) = 75.79129 23.73130 85.18177
#
# Poissons Ratio (x) = -0.12115 0.46532
# Poissons Ratio (y) = -0.38691 1.02965
# Poissons Ratio (z) = 0.41402 0.28686
#
# Static dielectric constant tensor:
#      x y z
#    x 4.372200 0.000000 0.000000 
#    y 0.000000 4.472600 0.000000 
#    z 0.000000 0.000000 4.810610 
# 
# 
# High freq. dielectric constant tensor:
#      x y z
#    x 2.008400 0.000000 0.000000 
#    y 0.000000 2.012700 0.000000 
#    z 0.000000 0.000000 2.024760 
# 
# From -- ./inp_files/6677.got.cif
#   From: 2010.03.12/outbox.cif.g09.slc.cpg/sg41_4_cif.got.tgz:6677.got - 2010.04.14 01:55:53.
