data_PCOD8185460
_publ_section_title
;
Structure prediction by ZEFSAII (Michael W. Deem and Ramdas Pophale) SiO2 
 PCOD8185460
Probable space group: A B A 2
;
_chemical_formula_sum "Si O2"
_cell_formula_units_Z 60
_cell_length_a 10.507248
_cell_length_b 20.409632
_cell_length_c 13.469025
_cell_angle_alpha 90.000000
_cell_angle_beta 90.000000
_cell_angle_gamma 90.000000
_cell_volume 2888.419818
_symmetry_space_group_name_H-M "A B A 2"
_symmetry_group_IT_number 41
_symmetry_cell_setting 'orthorhombic'
loop_
_space_group_symop_operation_xyz
x,y,z
-x,-y,z
1/2-x,y,1/2+z
1/2+x,-y,1/2+z
x,1/2+y,1/2+z
-x,1/2-y,1/2+z
1/2-x,1/2+y,z
1/2+x,1/2-y,z
loop_
_atom_site_type_symbol
_atom_site_label
_atom_site_fract_x
_atom_site_fract_y
_atom_site_fract_z
Si Si1 0.190205 0.300972 0.380980
Si Si2 0.180563 0.584137 0.262897
Si Si3 0.000000 0.500000 0.395589
Si Si4 0.553931 0.429914 0.355812
Si Si5 0.135792 0.351078 0.736294
Si Si6 0.915751 0.777009 0.813445
Si Si7 0.169491 0.913033 0.027636
Si Si8 0.630141 0.475070 0.563451
O O1 0.220222 0.345244 0.281419
O O2 0.295742 0.242302 0.385317
O O3 0.210021 0.344560 0.479189
O O4 0.047282 0.273465 0.375015
O O5 0.113328 0.527584 0.327612
O O6 0.323724 0.592856 0.296110
O O7 0.101480 0.650808 0.270133
O O8 0.199367 0.566146 0.147656
O O9 0.050554 0.442198 0.466856
O O10 0.500000 0.500000 0.322300
O O11 0.443988 0.379164 0.329295
O O12 0.590948 0.428975 0.471655
O O13 0.081500 0.276364 0.722432
O O14 0.127652 0.396687 0.640318
O O15 0.284143 0.964719 0.025424
O O16 0.500000 0.500000 0.613530
#
# Coordination Sequence:
#
# PCOD8185460 Si02
#       8
#     8   8   4   8   8   8   8   8
#     4  10  23  49  68  98 140 180 239 282 348 420
#     4  12  24  44  68  98 147 178 237 295 344 429
#     4  12  26  44  70 102 138 184 230 298 354 412
#     4  11  23  43  66 104 140 179 235 291 355 414
#     4  10  26  44  70  98 142 183 233 290 347 417
#     4  10  24  47  68  98 138 189 231 287 350 413
#     4  12  25  47  69 104 135 191 227 286 367 421
#     4  11  25  38  67 104 130 183 228 282 366 408
#
# _framework density 20.772604999999999
#
# number of rings (size 3 to 8) (size 9 to 14) (size 15 to 20)
#    0.800    0.267    3.333    3.200    6.533    0.000 
#    7.200    0.000    0.000    0.000    0.000    0.000 
#    0.000    0.000    0.000    0.000    0.000    0.000 
#
# Total GULP energy -371815.436426 kJ/mol
# GULP energy per Si atom -12393.847881 kJ/mol
# Density = 2.072533 g / cm^3
# Si number density = 20.772605 Si / 1000 Ang^3
#
#
#
# Elastic Constant Matrix: (Units=GPa)
#
#
# Indices 1 2 3 4 5 6 
#
# 1 111.0097 22.5345 24.6233 0.0000 0.0000 0.0000
# 2 22.5345 80.3516 34.4287 0.0000 0.0000 0.0000
# 3 24.6233 34.4287 106.6389 0.0000 0.0000 0.0000
# 4 0.0000 0.0000 0.0000 34.2955 0.0000 0.0000
# 5 0.0000 0.0000 0.0000 0.0000 13.7102 0.0000
# 6 0.0000 0.0000 0.0000 0.0000 0.0000 41.4645
#
#
#
# Elastic Compliance Matrix: (Units=1/GPa)
#
#
# Indices 1 2 3 4 5 6 
#
# 1 0.009780 -0.002060 -0.001593 0.000000 0.000000 0.000000
# 2 -0.002060 0.014877 -0.004327 0.000000 0.000000 0.000000
# 3 -0.001593 -0.004327 0.011142 0.000000 0.000000 0.000000
# 4 0.000000 0.000000 0.000000 0.029158 0.000000 0.000000
# 5 0.000000 0.000000 0.000000 0.000000 0.072939 0.000000
# 6 0.000000 0.000000 0.000000 0.000000 0.000000 0.024117
#
#
# Mechanical properties :
#
#
# Convention : Reuss Voigt Hill
#
# Bulk Modulus (GPa) = 50.40800 51.24147 50.82473
# Shear Modulus (GPa) = 27.08743 32.32163 29.70453
#
# Velocity S-wave (km/s) = 3.61501 3.94886 3.78562
# Velocity P-wave (km/s) = 6.46093 6.74631 6.60516
#
# Compressibility (1/GPa) = 0.01983812
#
# Stress axis : x y z
#
# Youngs Moduli (GPa) = 102.25182 67.21659 89.74702
#
# Poissons Ratio (x) = 0.13848 0.14297
# Poissons Ratio (y) = 0.21065 0.38838
# Poissons Ratio (z) = 0.16289 0.29088
#
# Static dielectric constant tensor:
#      x y z
#    x 3.819450 0.000000 0.000000 
#    y 0.000000 3.746030 0.000000 
#    z 0.000000 0.000000 3.510690 
# 
# 
# High freq. dielectric constant tensor:
#      x y z
#    x 1.825160 0.000000 0.000000 
#    y 0.000000 1.812930 0.000000 
#    z 0.000000 0.000000 1.794810 
# 
# From -- ./inp_files/5150.got.cif
#   From: 2010.03.12/outbox.cif.g09.slc.cpg/sg41_3_cif.got.tgz:5150.got - 2010.04.14 01:55:53.
