data_PCOD8185947
_publ_section_title
;
Structure prediction by ZEFSAII (Michael W. Deem and Ramdas Pophale) SiO2 
 PCOD8185947
Probable space group: F M M 2
;
_chemical_formula_sum "Si O2"
_cell_formula_units_Z 104
_cell_length_a 22.642399
_cell_length_b 8.983399
_cell_length_c 25.026739
_cell_angle_alpha 90.000000
_cell_angle_beta 90.000000
_cell_angle_gamma 90.000000
_cell_volume 5090.581478
_symmetry_space_group_name_H-M "F M M 2"
_symmetry_group_IT_number 42
_symmetry_cell_setting 'orthorhombic'
loop_
_space_group_symop_operation_xyz
x,y,z
-x,-y,z
-x,y,z
x,-y,z
x,1/2+y,1/2+z
-x,1/2-y,1/2+z
-x,1/2+y,1/2+z
x,1/2-y,1/2+z
1/2+x,y,1/2+z
1/2-x,-y,1/2+z
1/2-x,y,1/2+z
1/2+x,-y,1/2+z
1/2+x,1/2+y,z
1/2-x,1/2-y,z
1/2-x,1/2+y,z
1/2+x,1/2-y,z
loop_
_atom_site_type_symbol
_atom_site_label
_atom_site_fract_x
_atom_site_fract_y
_atom_site_fract_z
Si Si1 0.000000 0.663850 0.536820
Si Si2 0.500000 0.723256 0.649071
Si Si3 0.000000 0.174782 0.767012
Si Si4 0.189612 0.675195 0.724736
Si Si5 0.371069 0.660165 0.635995
Si Si6 0.623602 0.676123 0.819900
Si Si7 0.381851 0.327788 0.518612
Si Si8 0.186848 0.823676 0.414477
O O1 0.057369 0.740654 0.511876
O O2 0.000000 0.500000 0.513196
O O3 0.000000 0.651762 0.602115
O O4 0.500000 0.772501 0.712039
O O5 0.441173 0.629040 0.638321
O O6 0.057034 0.215372 0.802207
O O7 0.000000 0.000000 0.750923
O O8 0.195130 0.500000 0.734332
O O9 0.250000 0.750000 0.705966
O O10 0.144481 0.708062 0.676588
O O11 0.169600 0.755761 0.778290
O O12 0.341589 0.500000 0.651516
O O13 0.352151 0.707445 0.576199
O O14 0.633554 0.500000 0.823829
O O15 0.637066 0.754137 0.875998
O O16 0.398214 0.500000 0.513730
O O17 0.334061 0.282153 0.474115
O O18 0.250000 0.750000 0.402995
O O19 0.191654 0.000000 0.405030
#
# Coordination Sequence:
#
# PCOD8185947 Si02
#       8
#     8   8   8  16  16  16  16  16
#     4  10  21  35  58  94 131 164 204 253 302 358
#     4  10  18  34  59  90 127 166 198 239 298 365
#     4  10  20  37  63  92 122 160 200 242 298 367
#     4  12  25  40  58  84 119 160 202 252 306 361
#     4  10  19  36  62  91 122 159 201 246 300 366
#     4  11  23  42  65  92 122 158 203 249 302 366
#     4   9  21  40  63  89 122 164 206 248 305 370
#     4  11  24  44  66  90 119 160 209 258 311 364
#
# _framework density 20.429886
#
# number of rings (size 3 to 8) (size 9 to 14) (size 15 to 20)
#    0.000    1.538    1.538    3.692    0.000    7.385 
#    0.000    4.615    0.000    0.000    0.000    0.000 
#    0.000    0.000    0.000    0.000    0.000    0.000 
#
# Total GULP energy -322306.706287 kJ/mol
# GULP energy per Si atom -12396.411780 kJ/mol
# Density = 2.038339 g / cm^3
# Si number density = 20.429886 Si / 1000 Ang^3
#
#
#
# Elastic Constant Matrix: (Units=GPa)
#
#
# Indices 1 2 3 4 5 6 
#
# 1 88.3334 34.1036 39.6670 0.0000 0.0000 0.0000
# 2 34.1036 104.0029 39.9900 0.0000 0.0000 0.0000
# 3 39.6670 39.9900 130.8774 0.0000 0.0000 0.0000
# 4 0.0000 0.0000 0.0000 26.9188 0.0000 0.0000
# 5 0.0000 0.0000 0.0000 0.0000 29.3373 0.0000
# 6 0.0000 0.0000 0.0000 0.0000 0.0000 16.4107
#
#
#
# Elastic Compliance Matrix: (Units=1/GPa)
#
#
# Indices 1 2 3 4 5 6 
#
# 1 0.014075 -0.003371 -0.003236 0.000000 0.000000 0.000000
# 2 -0.003371 0.011703 -0.002554 0.000000 0.000000 0.000000
# 3 -0.003236 -0.002554 0.009402 0.000000 0.000000 0.000000
# 4 0.000000 0.000000 0.000000 0.037149 0.000000 0.000000
# 5 0.000000 0.000000 0.000000 0.000000 0.034086 0.000000
# 6 0.000000 0.000000 0.000000 0.000000 0.000000 0.060936
#
#
# Mechanical properties :
#
#
# Convention : Reuss Voigt Hill
#
# Bulk Modulus (GPa) = 59.32055 61.19276 60.25665
# Shear Modulus (GPa) = 26.13796 28.49688 27.31742
#
# Velocity S-wave (km/s) = 3.58075 3.73884 3.66065
# Velocity P-wave (km/s) = 6.79668 6.97540 6.88662
#
# Compressibility (1/GPa) = 0.01685757
#
# Stress axis : x y z
#
# Youngs Moduli (GPa) = 71.04573 85.45109 106.36148
#
# Poissons Ratio (x) = 0.28807 0.34418
# Poissons Ratio (y) = 0.23951 0.27165
# Poissons Ratio (z) = 0.22990 0.21824
#
# Static dielectric constant tensor:
#      x y z
#    x 3.718750 0.000000 0.000000 
#    y 0.000000 3.531300 0.000000 
#    z 0.000000 0.000000 3.887350 
# 
# 
# High freq. dielectric constant tensor:
#      x y z
#    x 1.797430 0.000000 0.000000 
#    y 0.000000 1.789670 0.000000 
#    z 0.000000 0.000000 1.803850 
# 
# From -- ./inp_files/33090.got.cif
#   From: 2010.03.12/outbox.cif.g09.slc.cpg/sg42_17_cif.got.tgz:33090.got - 2010.04.14 02:04:31.
