data_PCOD8185092
_publ_section_title
;
Structure prediction by ZEFSAII (Michael W. Deem and Ramdas Pophale) SiO2 
 PCOD8185092
Probable space group: A B A 2
;
_chemical_formula_sum "Si O2"
_cell_formula_units_Z 64
_cell_length_a 8.971301
_cell_length_b 19.040221
_cell_length_c 19.921839
_cell_angle_alpha 90.000000
_cell_angle_beta 90.000000
_cell_angle_gamma 90.000000
_cell_volume 3402.959959
_symmetry_space_group_name_H-M "A B A 2"
_symmetry_group_IT_number 41
_symmetry_cell_setting 'orthorhombic'
loop_
_space_group_symop_operation_xyz
x,y,z
-x,-y,z
1/2-x,y,1/2+z
1/2+x,-y,1/2+z
x,1/2+y,1/2+z
-x,1/2-y,1/2+z
1/2-x,1/2+y,z
1/2+x,1/2-y,z
loop_
_atom_site_type_symbol
_atom_site_label
_atom_site_fract_x
_atom_site_fract_y
_atom_site_fract_z
Si Si1 0.417066 0.566624 0.257150
Si Si2 0.844742 0.105313 0.151130
Si Si3 0.611033 0.300737 0.345890
Si Si4 0.837238 0.472439 0.169501
Si Si5 0.849779 0.818155 0.635943
Si Si6 0.358998 0.744468 0.937974
Si Si7 0.886629 0.705100 0.528854
Si Si8 0.641765 0.721661 0.712008
O O1 0.500000 0.500000 0.289663
O O2 0.501720 0.588721 0.188659
O O3 0.416045 0.625265 0.312530
O O4 0.246834 0.547556 0.238502
O O5 0.878986 0.141798 0.080818
O O6 0.750000 0.155763 0.200093
O O7 0.754556 0.034434 0.132962
O O8 0.754657 0.306354 0.393873
O O9 0.464767 0.287947 0.389322
O O10 0.636597 0.239585 0.290786
O O11 0.844809 0.402017 0.123671
O O12 0.000000 0.500000 0.188343
O O13 0.881960 0.781360 0.564991
O O14 0.696160 0.789405 0.668826
O O15 0.976732 0.797795 0.689192
O O16 0.458196 0.697908 0.988862
O O17 0.254307 0.798988 0.978812
#
# Coordination Sequence:
#
# PCOD8185092 Si02
#       8
#     8   8   8   8   8   8   8   8
#     4  10  22  38  61  86 121 156 181 246 308 364
#     4  10  21  37  60  91 124 148 188 243 317 358
#     4  11  20  38  58  89 115 151 206 242 290 345
#     4  11  22  36  55  97 123 151 184 230 320 371
#     4  11  21  34  61  89 121 150 188 243 317 352
#     4  10  23  35  58  84 115 159 204 244 274 334
#     4  10  21  38  58  86 118 154 200 248 287 345
#     4  11  20  33  60  94 114 149 188 251 303 358
#
# _framework density 18.807157
#
# number of rings (size 3 to 8) (size 9 to 14) (size 15 to 20)
#    0.000    1.500    2.500    4.500    1.750    0.000 
#    0.000    0.000    5.500    0.000    6.500    0.000 
#    0.000    0.000    0.000    0.000    0.000    0.000 
#
# Total GULP energy -396831.283713 kJ/mol
# GULP energy per Si atom -12400.977616 kJ/mol
# Density = 1.876435 g / cm^3
# Si number density = 18.807157 Si / 1000 Ang^3
#
#
#
# Elastic Constant Matrix: (Units=GPa)
#
#
# Indices 1 2 3 4 5 6 
#
# 1 120.5387 55.5241 55.2094 0.0000 0.0000 0.0000
# 2 55.5241 143.4200 55.9523 0.0000 0.0000 0.0000
# 3 55.2094 55.9523 114.2782 0.0000 0.0000 0.0000
# 4 0.0000 0.0000 0.0000 24.2287 0.0000 0.0000
# 5 0.0000 0.0000 0.0000 0.0000 20.3947 0.0000
# 6 0.0000 0.0000 0.0000 0.0000 0.0000 26.2682
#
#
#
# Elastic Compliance Matrix: (Units=1/GPa)
#
#
# Indices 1 2 3 4 5 6 
#
# 1 0.011512 -0.002827 -0.004177 0.000000 0.000000 0.000000
# 2 -0.002827 0.009313 -0.003194 0.000000 0.000000 0.000000
# 3 -0.004177 -0.003194 0.012333 0.000000 0.000000 0.000000
# 4 0.000000 0.000000 0.000000 0.041273 0.000000 0.000000
# 5 0.000000 0.000000 0.000000 0.000000 0.049032 0.000000
# 6 0.000000 0.000000 0.000000 0.000000 0.000000 0.038069
#
#
# Mechanical properties :
#
#
# Convention : Reuss Voigt Hill
#
# Bulk Modulus (GPa) = 78.36645 79.06760 78.71703
# Shear Modulus (GPa) = 26.85549 28.28175 27.56862
#
# Velocity S-wave (km/s) = 3.78291 3.88206 3.83281
# Velocity P-wave (km/s) = 7.79996 7.88837 7.84429
#
# Compressibility (1/GPa) = 0.01276056
#
# Stress axis : x y z
#
# Youngs Moduli (GPa) = 86.86916 107.37601 81.08633
#
# Poissons Ratio (x) = 0.30355 0.33872
# Poissons Ratio (y) = 0.24558 0.25900
# Poissons Ratio (z) = 0.36288 0.34297
#
# Static dielectric constant tensor:
#      x y z
#    x 3.783130 0.000000 0.000000 
#    y 0.000000 3.578920 0.000000 
#    z 0.000000 0.000000 3.347890 
# 
# 
# High freq. dielectric constant tensor:
#      x y z
#    x 1.757850 0.000000 0.000000 
#    y 0.000000 1.720880 0.000000 
#    z 0.000000 0.000000 1.708710 
# 
# From -- ./inp_files/9831.got.cif
#   From: 2010.03.12/outbox.cif.g09.slc.cpg/sg41_5_cif.got.tgz:9831.got - 2010.04.14 01:55:53.
