data_PCOD8185719
_publ_section_title
;
Structure prediction by ZEFSAII (Michael W. Deem and Ramdas Pophale) SiO2 
 PCOD8185719
Probable space group: A B A 2
;
_chemical_formula_sum "Si O2"
_cell_formula_units_Z 36
_cell_length_a 8.814877
_cell_length_b 23.356986
_cell_length_c 7.115468
_cell_angle_alpha 90.000000
_cell_angle_beta 90.000000
_cell_angle_gamma 90.000000
_cell_volume 1464.996297
_symmetry_space_group_name_H-M "A B A 2"
_symmetry_group_IT_number 41
_symmetry_cell_setting 'orthorhombic'
loop_
_space_group_symop_operation_xyz
x,y,z
-x,-y,z
1/2-x,y,1/2+z
1/2+x,-y,1/2+z
x,1/2+y,1/2+z
-x,1/2-y,1/2+z
1/2-x,1/2+y,z
1/2+x,1/2-y,z
loop_
_atom_site_type_symbol
_atom_site_label
_atom_site_fract_x
_atom_site_fract_y
_atom_site_fract_z
Si Si1 0.967798 0.690046 0.497740
Si Si2 0.860021 0.922699 0.887812
Si Si3 0.974289 0.416834 0.990813
Si Si4 0.000000 0.000000 0.191349
Si Si5 0.371708 0.806527 0.911755
O O1 0.809007 0.697590 0.389815
O O2 0.936753 0.677171 0.711977
O O3 0.059007 0.637187 0.419994
O O4 0.067583 0.746906 0.488087
O O5 0.928820 0.946040 0.689986
O O6 0.682013 0.908078 0.872568
O O7 0.880795 0.969310 0.053594
O O8 0.076214 0.455528 0.844474
O O9 0.065657 0.358598 0.040258
#
# Coordination Sequence:
#
# PCOD8185719 Si02
#       5
#     8   8   8   4   8
#     4  12  25  46  72 109 145 187 237 296 361 430
#     4  12  25  49  74 106 144 193 242 297 360 425
#     4  12  25  49  74 106 144 193 242 297 360 425
#     4  12  26  48  72 108 144 188 250 288 364 422
#     4  12  25  46  72 109 145 187 237 296 361 430
#
# _framework density 24.573442
#
# number of rings (size 3 to 8) (size 9 to 14) (size 15 to 20)
#    0.000    0.000    4.444    6.000    0.000    1.778 
#    8.000    0.000    0.000    0.000    0.000    0.000 
#    0.000    0.000    0.000    0.000    0.000    0.000 
#
# Total GULP energy -223077.614351 kJ/mol
# GULP energy per Si atom -12393.200797 kJ/mol
# Density = 2.451751 g / cm^3
# Si number density = 24.573442 Si / 1000 Ang^3
#
#
#
# Elastic Constant Matrix: (Units=GPa)
#
#
# Indices 1 2 3 4 5 6 
#
# 1 85.7814 66.0922 9.5531 0.0000 0.0000 0.0000
# 2 66.0922 141.6856 36.9391 0.0000 0.0000 0.0000
# 3 9.5531 36.9391 128.1493 0.0000 0.0000 0.0000
# 4 0.0000 0.0000 0.0000 34.7049 0.0000 0.0000
# 5 0.0000 0.0000 0.0000 0.0000 43.4970 0.0000
# 6 0.0000 0.0000 0.0000 0.0000 0.0000 24.7570
#
#
#
# Elastic Compliance Matrix: (Units=1/GPa)
#
#
# Indices 1 2 3 4 5 6 
#
# 1 0.018364 -0.008877 0.001190 0.000000 0.000000 0.000000
# 2 -0.008877 0.011922 -0.002775 0.000000 0.000000 0.000000
# 3 0.001190 -0.002775 0.008515 0.000000 0.000000 0.000000
# 4 0.000000 0.000000 0.000000 0.028814 0.000000 0.000000
# 5 0.000000 0.000000 0.000000 0.000000 0.022990 0.000000
# 6 0.000000 0.000000 0.000000 0.000000 0.000000 0.040393
#
#
# Mechanical properties :
#
#
# Convention : Reuss Voigt Hill
#
# Bulk Modulus (GPa) = 55.93660 64.53170 60.23415
# Shear Modulus (GPa) = 31.66959 36.79390 34.23174
#
# Velocity S-wave (km/s) = 3.59384 3.87370 3.73639
# Velocity P-wave (km/s) = 6.32719 6.80626 6.57109
#
# Compressibility (1/GPa) = 0.01787738
#
# Stress axis : x y z
#
# Youngs Moduli (GPa) = 54.45386 83.87895 117.44606
#
# Poissons Ratio (x) = 0.74455 -0.13972
# Poissons Ratio (y) = 0.48336 0.32589
# Poissons Ratio (z) = -0.06478 0.23275
#
# Static dielectric constant tensor:
#      x y z
#    x 1.890820 0.000000 0.000000 
#    y 0.000000 4.350510 0.000000 
#    z 0.000000 0.000000 4.802170 
# 
# 
# High freq. dielectric constant tensor:
#      x y z
#    x 1.961530 0.000000 0.000000 
#    y 0.000000 1.980010 0.000000 
#    z 0.000000 0.000000 2.009860 
# 
# From -- ./inp_files/1651.got.cif
#   From: 2010.03.12/outbox.cif.g09.slc.cpg/sg41_1_cif.got.tgz:1651.got - 2010.04.14 01:55:53.
