data_PCOD8185039
_publ_section_title
;
Structure prediction by ZEFSAII (Michael W. Deem and Ramdas Pophale) SiO2 
 PCOD8185039
Probable space group: A B A 2
;
_chemical_formula_sum "Si O2"
_cell_formula_units_Z 52
_cell_length_a 9.049707
_cell_length_b 12.781416
_cell_length_c 20.656024
_cell_angle_alpha 90.000000
_cell_angle_beta 90.000000
_cell_angle_gamma 90.000000
_cell_volume 2389.242427
_symmetry_space_group_name_H-M "A B A 2"
_symmetry_group_IT_number 41
_symmetry_cell_setting 'orthorhombic'
loop_
_space_group_symop_operation_xyz
x,y,z
-x,-y,z
1/2-x,y,1/2+z
1/2+x,-y,1/2+z
x,1/2+y,1/2+z
-x,1/2-y,1/2+z
1/2-x,1/2+y,z
1/2+x,1/2-y,z
loop_
_atom_site_type_symbol
_atom_site_label
_atom_site_fract_x
_atom_site_fract_y
_atom_site_fract_z
Si Si1 0.500000 0.000000 0.365391
Si Si2 0.183464 0.665632 0.421667
Si Si3 0.306542 0.434868 0.202596
Si Si4 0.189462 0.317111 0.093792
Si Si5 0.674506 0.691892 0.809390
Si Si6 0.067594 0.234391 0.506642
Si Si7 0.386521 0.655937 0.197741
O O1 0.355771 0.045385 0.402876
O O2 0.551360 0.105827 0.328934
O O3 0.241340 0.745107 0.365981
O O4 0.315500 0.655363 0.473480
O O5 0.030748 0.709026 0.452098
O O6 0.189075 0.410673 0.145885
O O7 0.294887 0.372581 0.269582
O O8 0.286886 0.556882 0.218772
O O9 0.460822 0.394024 0.173602
O O10 0.188508 0.210232 0.135916
O O11 0.333267 0.317298 0.047201
O O12 0.039662 0.331071 0.053177
O O13 0.593203 0.771075 0.760353
#
# Coordination Sequence:
#
# PCOD8185039 Si02
#       7
#     4   8   8   8   8   8   8
#     4  12  24  44  70 102 134 186 226 286 362 410
#     4  11  23  45  69 100 136 184 228 288 340 415
#     4  10  21  38  65  96 129 172 220 278 354 409
#     4  10  20  42  65  95 130 178 221 281 341 411
#     4  11  23  42  68  97 137 172 230 280 351 415
#     4  10  22  43  67  92 141 180 227 287 338 395
#     4  10  21  40  66  96 131 168 219 286 344 414
#
# _framework density 21.764222
#
# number of rings (size 3 to 8) (size 9 to 14) (size 15 to 20)
#    0.000    1.538    3.077    1.846    0.000    1.231 
#    5.538    1.538    0.000    0.000    0.000    0.000 
#    0.000    0.000    0.000    0.000    0.000    0.000 
#
# Total GULP energy -322112.114559 kJ/mol
# GULP energy per Si atom -12388.927483 kJ/mol
# Density = 2.171469 g / cm^3
# Si number density = 21.764222 Si / 1000 Ang^3
#
#
#
# Elastic Constant Matrix: (Units=GPa)
#
#
# Indices 1 2 3 4 5 6 
#
# 1 108.2117 42.8052 47.9941 0.0000 0.0000 0.0000
# 2 42.8052 143.8369 55.8604 0.0000 0.0000 0.0000
# 3 47.9941 55.8604 121.4384 0.0000 0.0000 0.0000
# 4 0.0000 0.0000 0.0000 15.9579 0.0000 0.0000
# 5 0.0000 0.0000 0.0000 0.0000 37.2775 0.0000
# 6 0.0000 0.0000 0.0000 0.0000 0.0000 36.6540
#
#
#
# Elastic Compliance Matrix: (Units=1/GPa)
#
#
# Indices 1 2 3 4 5 6 
#
# 1 0.011681 -0.002050 -0.003674 0.000000 0.000000 0.000000
# 2 -0.002050 0.008824 -0.003249 0.000000 0.000000 0.000000
# 3 -0.003674 -0.003249 0.011181 0.000000 0.000000 0.000000
# 4 0.000000 0.000000 0.000000 0.062665 0.000000 0.000000
# 5 0.000000 0.000000 0.000000 0.000000 0.026826 0.000000
# 6 0.000000 0.000000 0.000000 0.000000 0.000000 0.027282
#
#
# Mechanical properties :
#
#
# Convention : Reuss Voigt Hill
#
# Bulk Modulus (GPa) = 72.77109 74.08960 73.43035
# Shear Modulus (GPa) = 29.24242 33.09969 31.17106
#
# Velocity S-wave (km/s) = 3.66949 3.90401 3.78857
# Velocity P-wave (km/s) = 7.17372 7.37818 7.27667
#
# Compressibility (1/GPa) = 0.01374172
#
# Stress axis : x y z
#
# Youngs Moduli (GPa) = 85.60688 113.32713 89.43690
#
# Poissons Ratio (x) = 0.23227 0.32858
# Poissons Ratio (y) = 0.17545 0.29058
# Poissons Ratio (z) = 0.31451 0.36819
#
# Static dielectric constant tensor:
#      x y z
#    x 4.088580 0.000000 0.000000 
#    y 0.000000 3.882590 0.000000 
#    z 0.000000 0.000000 4.101080 
# 
# 
# High freq. dielectric constant tensor:
#      x y z
#    x 1.860060 0.000000 0.000000 
#    y 0.000000 1.836640 0.000000 
#    z 0.000000 0.000000 1.866070 
# 
# From -- ./inp_files/11172.got.cif
#   From: 2010.03.12/outbox.cif.g09.slc.cpg/sg41_6_cif.got.tgz:11172.got - 2010.04.14 01:55:53.
