data_PCOD8185285
_publ_section_title
;
Structure prediction by ZEFSAII (Michael W. Deem and Ramdas Pophale) SiO2 
 PCOD8185285
Probable space group: A B A 2
;
_chemical_formula_sum "Si O2"
_cell_formula_units_Z 36
_cell_length_a 5.095540
_cell_length_b 12.197110
_cell_length_c 26.252293
_cell_angle_alpha 90.000000
_cell_angle_beta 90.000000
_cell_angle_gamma 90.000000
_cell_volume 1631.602637
_symmetry_space_group_name_H-M "A B A 2"
_symmetry_group_IT_number 41
_symmetry_cell_setting 'orthorhombic'
loop_
_space_group_symop_operation_xyz
x,y,z
-x,-y,z
1/2-x,y,1/2+z
1/2+x,-y,1/2+z
x,1/2+y,1/2+z
-x,1/2-y,1/2+z
1/2-x,1/2+y,z
1/2+x,1/2-y,z
loop_
_atom_site_type_symbol
_atom_site_label
_atom_site_fract_x
_atom_site_fract_y
_atom_site_fract_z
Si Si1 0.858009 0.677870 0.761840
Si Si2 0.969824 0.824281 0.995026
Si Si3 0.500000 0.000000 0.841287
Si Si4 0.000000 0.500000 0.576388
Si Si5 0.293946 0.825109 0.647160
Si Si6 0.500000 0.500000 0.909503
O O1 0.611281 0.751716 0.771732
O O2 0.868911 0.587337 0.804402
O O3 0.831325 0.630165 0.704668
O O4 0.754886 0.729897 0.999258
O O5 0.006716 0.889973 0.942755
O O6 0.879188 0.907004 0.039915
O O7 0.743270 0.970927 0.876897
O O8 0.794568 0.565791 0.612179
O O9 0.524097 0.737708 0.635906
#
# Coordination Sequence:
#
# PCOD8185285 Si02
#       6
#     8   8   4   4   8   4
#     4  10  22  39  60  89 125 160 196 241 293 349
#     4  11  25  44  63  88 121 155 197 250 303 357
#     4  12  23  40  63  92 117 156 205 246 292 354
#     4  11  23  40  66  92 118 158 201 245 294 354
#     4  10  22  39  60  90 125 160 196 239 293 351
#     4  11  26  40  63  90 117 156 202 247 304 352
#
# _framework density 22.064194000000001
#
# number of rings (size 3 to 8) (size 9 to 14) (size 15 to 20)
#    0.000    1.333    0.000    4.667    0.000   10.667 
#    0.000    6.667    0.000    0.000    0.000    0.000 
#    0.000    0.000    0.000    0.000    0.000    0.000 
#
# Total GULP energy -222998.416103 kJ/mol
# GULP energy per Si atom -12388.800895 kJ/mol
# Density = 2.201397 g / cm^3
# Si number density = 22.064194 Si / 1000 Ang^3
#
#
#
# Elastic Constant Matrix: (Units=GPa)
#
#
# Indices 1 2 3 4 5 6 
#
# 1 96.7530 2.3067 11.1160 0.0000 0.0000 0.0000
# 2 2.3067 81.7786 47.6910 0.0000 0.0000 0.0000
# 3 11.1160 47.6910 113.5777 0.0000 0.0000 0.0000
# 4 0.0000 0.0000 0.0000 38.0650 0.0000 0.0000
# 5 0.0000 0.0000 0.0000 0.0000 13.2172 0.0000
# 6 0.0000 0.0000 0.0000 0.0000 0.0000-2864.4713
#
#
#
# Elastic Compliance Matrix: (Units=1/GPa)
#
#
# Indices 1 2 3 4 5 6 
#
# 1 0.010463 0.000400 -0.001192 0.000000 0.000000 0.000000
# 2 0.000400 0.016209 -0.006845 0.000000 0.000000 0.000000
# 3 -0.001192 -0.006845 0.011795 0.000000 0.000000 0.000000
# 4 0.000000 0.000000 0.000000 0.026271 0.000000 0.000000
# 5 0.000000 0.000000 0.000000 0.000000 0.075659 0.000000
# 6 0.000000 0.000000 0.000000 0.000000 0.000000 -0.000349
#
#
# Mechanical properties :
#
#
# Convention : Reuss Voigt Hill
#
# Bulk Modulus (GPa) = 43.11655 46.03742 44.57699
# Shear Modulus (GPa) = 30.66484 -547.23809 -258.28662
#
# Velocity S-wave (km/s) = 3.73205 -15.76576 -10.83123
# Velocity P-wave (km/s) = 6.17695 17.62106 11.66934
#
# Compressibility (1/GPa) = 0.02319295
#
# Stress axis : x y z
#
# Youngs Moduli (GPa) = 95.57480 61.69497 84.77821
#
# Poissons Ratio (x) = -0.02468 0.10106
# Poissons Ratio (y) = -0.03823 0.58032
# Poissons Ratio (z) = 0.11392 0.42231
#
# Static dielectric constant tensor:
#      x y z
#    x 3.878100 0.000000 0.000000 
#    y 0.000000 3.966760 0.000000 
#    z 0.000000 0.000000 4.496120 
# 
# 
# High freq. dielectric constant tensor:
#      x y z
#    x 1.870690 0.000000 0.000000 
#    y 0.000000 1.871310 0.000000 
#    z 0.000000 0.000000 1.894250 
# 
# From -- ./inp_files/11805.got.cif
#   From: 2010.03.12/outbox.cif.g09.slc.cpg/sg41_6_cif.got.tgz:11805.got - 2010.04.14 01:55:53.
