data_PCOD8185241
_publ_section_title
;
Structure prediction by ZEFSAII (Michael W. Deem and Ramdas Pophale) SiO2 
 PCOD8185241
Probable space group: A B A 2
;
_chemical_formula_sum "Si O2"
_cell_formula_units_Z 48
_cell_length_a 12.249455
_cell_length_b 13.607477
_cell_length_c 13.397804
_cell_angle_alpha 90.000000
_cell_angle_beta 90.000000
_cell_angle_gamma 90.000000
_cell_volume 2233.201936
_symmetry_space_group_name_H-M "A B A 2"
_symmetry_group_IT_number 41
_symmetry_cell_setting 'orthorhombic'
loop_
_space_group_symop_operation_xyz
x,y,z
-x,-y,z
1/2-x,y,1/2+z
1/2+x,-y,1/2+z
x,1/2+y,1/2+z
-x,1/2-y,1/2+z
1/2-x,1/2+y,z
1/2+x,1/2-y,z
loop_
_atom_site_type_symbol
_atom_site_label
_atom_site_fract_x
_atom_site_fract_y
_atom_site_fract_z
Si Si1 0.277463 0.015128 0.514190
Si Si2 0.350589 0.754484 0.287574
Si Si3 0.953029 0.140925 0.952762
Si Si4 0.943750 0.397276 0.649313
Si Si5 0.879165 0.541130 0.173574
Si Si6 0.825171 0.385395 0.332109
O O1 0.377515 0.955037 0.463349
O O2 0.179234 0.953802 0.564195
O O3 0.325481 0.081955 0.602603
O O4 0.240423 0.082213 0.420811
O O5 0.381993 0.773102 0.403215
O O6 0.430727 0.669696 0.246322
O O7 0.368819 0.850774 0.220172
O O8 0.224439 0.716973 0.288201
O O9 0.052745 0.124939 0.875080
O O10 0.989921 0.165566 0.065330
O O11 0.000000 0.500000 0.679669
O O12 0.818050 0.466488 0.246341
O O13 0.000000 0.500000 0.156150
#
# Coordination Sequence:
#
# PCOD8185241 Si02
#       6
#     8   8   8   8   8   8
#     4  10  21  43  72  94 141 187 227 290 352 419
#     4  12  24  40  74 103 131 190 235 289 360 421
#     4  10  22  44  72  94 136 191 231 277 365 426
#     4   9  21  41  66  99 138 181 231 287 347 425
#     4  12  24  45  72 102 143 185 237 295 356 429
#     4  11  22  45  67 100 138 181 231 289 352 425
#
# _framework density 21.493804000000001
#
# number of rings (size 3 to 8) (size 9 to 14) (size 15 to 20)
#    0.000    1.333    5.000    1.500    0.000    6.667 
#    0.000    0.833    0.000    0.000    0.000    0.000 
#    0.000    0.000    0.000    0.000    0.000    0.000 
#
# Total GULP energy -297325.149726 kJ/mol
# GULP energy per Si atom -12388.547905 kJ/mol
# Density = 2.144488 g / cm^3
# Si number density = 21.493804 Si / 1000 Ang^3
#
#
#
# Elastic Constant Matrix: (Units=GPa)
#
#
# Indices 1 2 3 4 5 6 
#
# 1 98.8065 55.0703 42.1797 0.0000 0.0000 0.0000
# 2 55.0703 106.0310 32.4935 0.0000 0.0000 0.0000
# 3 42.1797 32.4935 57.8801 0.0000 0.0000 0.0000
# 4 0.0000 0.0000 0.0000 31.7833 0.0000 0.0000
# 5 0.0000 0.0000 0.0000 0.0000 40.2959 0.0000
# 6 0.0000 0.0000 0.0000 0.0000 0.0000 34.8065
#
#
#
# Elastic Compliance Matrix: (Units=1/GPa)
#
#
# Indices 1 2 3 4 5 6 
#
# 1 0.017592 -0.006290 -0.009289 0.000000 0.000000 0.000000
# 2 -0.006290 0.013640 -0.003073 0.000000 0.000000 0.000000
# 3 -0.009289 -0.003073 0.025772 0.000000 0.000000 0.000000
# 4 0.000000 0.000000 0.000000 0.031463 0.000000 0.000000
# 5 0.000000 0.000000 0.000000 0.000000 0.024816 0.000000
# 6 0.000000 0.000000 0.000000 0.000000 0.000000 0.028730
#
#
# Mechanical properties :
#
#
# Convention : Reuss Voigt Hill
#
# Bulk Modulus (GPa) = 50.76461 58.02275 54.39368
# Shear Modulus (GPa) = 26.89837 30.24207 28.57022
#
# Velocity S-wave (km/s) = 3.54142 3.75509 3.64982
# Velocity P-wave (km/s) = 6.35545 6.77160 6.56682
#
# Compressibility (1/GPa) = 0.01969876
#
# Stress axis : x y z
#
# Youngs Moduli (GPa) = 56.84388 73.31292 38.80242
#
# Poissons Ratio (x) = 0.46117 0.36042
# Poissons Ratio (y) = 0.35757 0.11926
# Poissons Ratio (z) = 0.52801 0.22532
#
# Static dielectric constant tensor:
#      x y z
#    x 3.846050 0.000000 0.000000 
#    y 0.000000 3.787290 0.000000 
#    z 0.000000 0.000000 4.062900 
# 
# 
# High freq. dielectric constant tensor:
#      x y z
#    x 1.832790 0.000000 0.000000 
#    y 0.000000 1.829140 0.000000 
#    z 0.000000 0.000000 1.852100 
# 
# From -- ./inp_files/7905.got.cif
#   From: 2010.03.12/outbox.cif.g09.slc.cpg/sg41_4_cif.got.tgz:7905.got - 2010.04.14 01:55:53.
