data_PCOD8185906
_publ_section_title
;
Structure prediction by ZEFSAII (Michael W. Deem and Ramdas Pophale) SiO2 
 PCOD8185906
Probable space group: F M M 2
;
_chemical_formula_sum "Si O2"
_cell_formula_units_Z 80
_cell_length_a 22.934092
_cell_length_b 20.629993
_cell_length_c 8.614103
_cell_angle_alpha 90.000000
_cell_angle_beta 90.000000
_cell_angle_gamma 90.000000
_cell_volume 4075.591908
_symmetry_space_group_name_H-M "F M M 2"
_symmetry_group_IT_number 42
_symmetry_cell_setting 'orthorhombic'
loop_
_space_group_symop_operation_xyz
x,y,z
-x,-y,z
-x,y,z
x,-y,z
x,1/2+y,1/2+z
-x,1/2-y,1/2+z
-x,1/2+y,1/2+z
x,1/2-y,1/2+z
1/2+x,y,1/2+z
1/2-x,-y,1/2+z
1/2-x,y,1/2+z
1/2+x,-y,1/2+z
1/2+x,1/2+y,z
1/2-x,1/2-y,z
1/2-x,1/2+y,z
1/2+x,1/2-y,z
loop_
_atom_site_type_symbol
_atom_site_label
_atom_site_fract_x
_atom_site_fract_y
_atom_site_fract_z
Si Si1 0.209121 0.576074 0.478330
Si Si2 0.905501 0.076612 0.149056
Si Si3 0.435937 0.111078 0.990909
Si Si4 0.000000 0.844079 0.993813
Si Si5 0.819495 0.425720 0.147179
Si Si6 0.500000 0.286823 0.648699
O O1 0.213986 0.500000 0.451028
O O2 0.161928 0.590336 0.612321
O O3 0.187920 0.607956 0.315864
O O4 0.271811 0.605830 0.529692
O O5 0.919966 0.111200 0.310615
O O6 0.943939 0.109638 0.013924
O O7 0.919326 0.000000 0.157706
O O8 0.500000 0.076548 0.014641
O O9 0.385390 0.076532 0.087067
O O10 0.442691 0.184184 0.059367
O O11 0.000000 0.790379 0.131629
O O12 0.000000 0.808733 0.828108
O O13 0.801573 0.500000 0.162621
#
# Coordination Sequence:
#
# PCOD8185906 Si02
#       6
#    16  16  16   8  16   8
#     4   9  19  32  50  78 110 150 189 228 283 342
#     4  11  21  35  56  86 118 149 187 234 291 340
#     4  10  21  36  53  80 113 149 187 234 280 334
#     4  12  21  39  60  78 115 147 195 240 281 342
#     4  10  18  32  52  76 112 151 190 234 282 338
#     4  10  24  39  56  82 106 155 195 234 283 334
#
# _framework density 19.629052000000001
#
# number of rings (size 3 to 8) (size 9 to 14) (size 15 to 20)
#    0.600    1.200    1.000    4.500    0.000    4.400 
#    0.000    3.000    0.000    1.200    0.000    8.400 
#    0.000    0.000    0.000    0.000    0.000    0.000 
#
# Total GULP energy -247786.573793 kJ/mol
# GULP energy per Si atom -12389.328690 kJ/mol
# Density = 1.958437 g / cm^3
# Si number density = 19.629052 Si / 1000 Ang^3
#
#
#
# Elastic Constant Matrix: (Units=GPa)
#
#
# Indices 1 2 3 4 5 6 
#
# 1 158.3154 11.8617 68.5836 -0.0001 0.0001 0.0000
# 2 11.8617 41.3487 18.2780 -0.0013 0.0009 0.0006
# 3 68.5836 18.2780 135.0167 -0.0032 0.0022 0.0009
# 4 -0.0001 -0.0013 -0.0032 26.1028 0.0011 0.0007
# 5 0.0001 0.0009 0.0022 0.0011 29.7351 -0.0001
# 6 0.0000 0.0006 0.0009 0.0007 -0.0001 1.2688
#
#
#
# Elastic Compliance Matrix: (Units=1/GPa)
#
#
# Indices 1 2 3 4 5 6 
#
# 1 0.008110 -0.000538 -0.004047 0.000000 0.000000 0.000003
# 2 -0.000538 0.025760 -0.003214 0.000001 -0.000001 -0.000011
# 3 -0.004047 -0.003214 0.009897 0.000001 -0.000001 -0.000005
# 4 0.000000 0.000001 0.000001 0.038310 -0.000001 -0.000021
# 5 0.000000 -0.000001 -0.000001 -0.000001 0.033630 0.000003
# 6 0.000003 -0.000011 -0.000005 -0.000021 0.000003 0.788118
#
#
# Mechanical properties :
#
#
# Convention : Reuss Voigt Hill
#
# Bulk Modulus (GPa) = 35.49920 59.12529 47.31225
# Shear Modulus (GPa) = 5.38322 27.15186 16.26754
#
# Velocity S-wave (km/s) = 1.65784 3.72324 2.88192
# Velocity P-wave (km/s) = 4.66785 6.97639 5.93544
#
# Compressibility (1/GPa) = 0.02816965
#
# Stress axis : x y z
#
# Youngs Moduli (GPa) = 123.30662 38.82048 101.03867
#
# Poissons Ratio (x) = 0.02087 0.40888
# Poissons Ratio (y) = 0.06629 0.32475
# Poissons Ratio (z) = 0.49899 0.12477
#
# Static dielectric constant tensor:
#      x y z
#    x 3.677110 0.000000 0.000000 
#    y 0.000000 3.084020 0.000000 
#    z 0.000000 0.000000 3.810870 
# 
# 
# High freq. dielectric constant tensor:
#      x y z
#    x 1.772920 0.000000 0.000000 
#    y 0.000000 1.701630 0.000000 
#    z 0.000000 0.000000 1.784010 
# 
# From -- ./inp_files/4582.got.cif
#   From: 2010.03.12/outbox.cif.g09.slc.cpg/sg42_3_cif.got.tgz:4582.got - 2010.04.14 02:04:31.
