data_PCOD8185237
_publ_section_title
;
Structure prediction by ZEFSAII (Michael W. Deem and Ramdas Pophale) SiO2 
 PCOD8185237
Probable space group: A B A 2
;
_chemical_formula_sum "Si O2"
_cell_formula_units_Z 44
_cell_length_a 15.712659
_cell_length_b 14.075465
_cell_length_c 8.406375
_cell_angle_alpha 90.000000
_cell_angle_beta 90.000000
_cell_angle_gamma 90.000000
_cell_volume 1859.178961
_symmetry_space_group_name_H-M "A B A 2"
_symmetry_group_IT_number 41
_symmetry_cell_setting 'orthorhombic'
loop_
_space_group_symop_operation_xyz
x,y,z
-x,-y,z
1/2-x,y,1/2+z
1/2+x,-y,1/2+z
x,1/2+y,1/2+z
-x,1/2-y,1/2+z
1/2-x,1/2+y,z
1/2+x,1/2-y,z
loop_
_atom_site_type_symbol
_atom_site_label
_atom_site_fract_x
_atom_site_fract_y
_atom_site_fract_z
Si Si1 0.000000 0.500000 0.908190
Si Si2 0.216755 0.766412 0.790137
Si Si3 0.943659 0.155479 0.628068
Si Si4 0.339538 0.870605 0.605624
Si Si5 0.145448 0.574270 0.688952
Si Si6 0.986012 0.342280 0.475473
O O1 0.066689 0.560764 0.807765
O O2 0.059612 0.438127 0.023284
O O3 0.152550 0.813404 0.663142
O O4 0.312890 0.801797 0.751826
O O5 0.208163 0.651663 0.773466
O O6 0.196002 0.810720 0.958967
O O7 0.997170 0.139800 0.790141
O O8 0.991319 0.231565 0.517065
O O9 0.439941 0.889433 0.585816
O O10 0.303333 0.977353 0.643577
O O11 0.105316 0.614517 0.524174
#
# Coordination Sequence:
#
# PCOD8185237 Si02
#       6
#     4   8   8   8   8   8
#     4  12  22  38  72  98 126 176 232 274 336 402
#     4  10  26  43  62 100 135 178 225 273 345 412
#     4  10  23  39  66  97 133 168 223 280 334 403
#     4  11  23  42  68  91 137 174 220 278 338 403
#     4  11  24  44  70  97 134 179 226 282 342 400
#     4  10  21  43  66  98 129 173 222 282 336 395
#
# _framework density 23.666360999999998
#
# number of rings (size 3 to 8) (size 9 to 14) (size 15 to 20)
#    0.000    1.455    1.818    3.273    7.636    2.909 
#    3.273    0.000    0.000    0.000    0.000    0.000 
#    0.000    0.000    0.000    0.000    0.000    0.000 
#
# Total GULP energy -272636.861137 kJ/mol
# GULP energy per Si atom -12392.584597 kJ/mol
# Density = 2.361250 g / cm^3
# Si number density = 23.666361 Si / 1000 Ang^3
#
#
#
# Elastic Constant Matrix: (Units=GPa)
#
#
# Indices 1 2 3 4 5 6 
#
# 1 20.5920 14.1734 12.7135 0.0000 0.0000 0.0000
# 2 14.1734 152.7271 30.4940 0.0000 0.0000 0.0000
# 3 12.7135 30.4940 66.3165 0.0000 0.0000 0.0000
# 4 0.0000 0.0000 0.0000 44.1146 0.0000 0.0000
# 5 0.0000 0.0000 0.0000 0.0000 6.6970 0.0000
# 6 0.0000 0.0000 0.0000 0.0000 0.0000 30.6821
#
#
#
# Elastic Compliance Matrix: (Units=1/GPa)
#
#
# Indices 1 2 3 4 5 6 
#
# 1 0.056642 -0.003401 -0.009295 0.000000 0.000000 0.000000
# 2 -0.003401 0.007414 -0.002757 0.000000 0.000000 0.000000
# 3 -0.009295 -0.002757 0.018129 0.000000 0.000000 0.000000
# 4 0.000000 0.000000 0.000000 0.022668 0.000000 0.000000
# 5 0.000000 0.000000 0.000000 0.000000 0.149320 0.000000
# 6 0.000000 0.000000 0.000000 0.000000 0.000000 0.032592
#
#
# Mechanical properties :
#
#
# Convention : Reuss Voigt Hill
#
# Bulk Modulus (GPa) = 19.50116 39.37748 29.43932
# Shear Modulus (GPa) = 14.93589 28.44906 21.69248
#
# Velocity S-wave (km/s) = 2.51490 3.47088 3.03082
# Velocity P-wave (km/s) = 4.08545 5.72166 4.97133
#
# Compressibility (1/GPa) = 0.05127899
#
# Stress axis : x y z
#
# Youngs Moduli (GPa) = 17.65477 134.88550 55.16040
#
# Poissons Ratio (x) = 0.45869 0.51272
# Poissons Ratio (y) = 0.06004 0.15208
# Poissons Ratio (z) = 0.16410 0.37189
#
# Static dielectric constant tensor:
#      x y z
#    x 4.182630 0.000000 0.000000 
#    y 0.000000 4.396920 0.000000 
#    z 0.000000 0.000000 4.190960 
# 
# 
# High freq. dielectric constant tensor:
#      x y z
#    x 1.912400 0.000000 0.000000 
#    y 0.000000 1.947760 0.000000 
#    z 0.000000 0.000000 1.945670 
# 
# From -- ./inp_files/2985.got.cif
#   From: 2010.03.12/outbox.cif.g09.slc.cpg/sg41_2_cif.got.tgz:2985.got - 2010.04.14 01:55:53.
