data_PCOD8185646
_publ_section_title
;
Structure prediction by ZEFSAII (Michael W. Deem and Ramdas Pophale) SiO2 
 PCOD8185646
Probable space group: A B A 2
;
_chemical_formula_sum "Si O2"
_cell_formula_units_Z 60
_cell_length_a 17.195821
_cell_length_b 8.275907
_cell_length_c 16.642338
_cell_angle_alpha 90.000000
_cell_angle_beta 90.000000
_cell_angle_gamma 90.000000
_cell_volume 2368.388019
_symmetry_space_group_name_H-M "A B A 2"
_symmetry_group_IT_number 41
_symmetry_cell_setting 'orthorhombic'
loop_
_space_group_symop_operation_xyz
x,y,z
-x,-y,z
1/2-x,y,1/2+z
1/2+x,-y,1/2+z
x,1/2+y,1/2+z
-x,1/2-y,1/2+z
1/2-x,1/2+y,z
1/2+x,1/2-y,z
loop_
_atom_site_type_symbol
_atom_site_label
_atom_site_fract_x
_atom_site_fract_y
_atom_site_fract_z
Si Si1 0.989208 0.309236 0.625000
Si Si2 0.500000 0.000000 0.347066
Si Si3 0.374271 0.874144 0.235502
Si Si4 0.155037 0.796695 0.180422
Si Si5 0.802761 0.902585 0.446897
Si Si6 0.725242 0.681548 0.339345
Si Si7 0.022302 0.683617 0.956377
Si Si8 0.759719 0.968224 0.615806
O O1 0.070743 0.239426 0.656115
O O2 0.976324 0.220322 0.539549
O O3 0.000000 0.500000 0.613465
O O4 0.924368 0.267095 0.691571
O O5 0.574107 0.007021 0.289494
O O6 0.496619 0.169576 0.397595
O O7 0.309089 0.809072 0.296071
O O8 0.335952 0.978951 0.165661
O O9 0.163087 0.754891 0.274685
O O10 0.228930 0.724954 0.128104
O O11 0.176577 0.983317 0.155907
O O12 0.733741 0.780193 0.421923
O O13 0.884067 0.812991 0.467194
O O14 0.769046 0.005424 0.521616
O O15 0.809833 0.011159 0.367033
O O16 0.000000 0.500000 0.926797
#
# Coordination Sequence:
#
# PCOD8185646 Si02
#       8
#     8   4   8   8   8   8   8   8
#     4  12  28  49  83 117 164 213 278 339 414 500
#     4  12  26  50  82 116 166 206 268 346 412 490
#     4  11  26  48  79 112 156 213 262 334 411 491
#     4  11  25  45  72 111 145 201 262 322 399 477
#     4  12  25  48  71 111 150 204 268 325 405 490
#     4  11  26  47  72 107 155 197 264 332 394 478
#     4  12  28  52  79 122 161 214 275 338 419 501
#     4  11  24  45  75 101 151 199 259 318 397 482
#
# _framework density 25.333687999999999
#
# number of rings (size 3 to 8) (size 9 to 14) (size 15 to 20)
#    0.000    0.533    3.333    4.000    6.533    3.733 
#    2.400    0.000    0.000    0.000    0.000    0.000 
#    0.000    0.000    0.000    0.000    0.000    0.000 
#
# Total GULP energy -371660.620518 kJ/mol
# GULP energy per Si atom -12388.687351 kJ/mol
# Density = 2.527603 g / cm^3
# Si number density = 25.333688 Si / 1000 Ang^3
#
#
#
# Elastic Constant Matrix: (Units=GPa)
#
#
# Indices 1 2 3 4 5 6 
#
# 1 58.6929 12.3418 45.9752 0.0000 0.0000 0.0000
# 2 12.3418 101.7037 45.2544 0.0000 0.0000 0.0000
# 3 45.9752 45.2544 161.7148 0.0000 0.0000 0.0000
# 4 0.0000 0.0000 0.0000 47.5763 0.0000 0.0000
# 5 0.0000 0.0000 0.0000 0.0000 31.7754 0.0000
# 6 0.0000 0.0000 0.0000 0.0000 0.0000 35.0743
#
#
#
# Elastic Compliance Matrix: (Units=1/GPa)
#
#
# Indices 1 2 3 4 5 6 
#
# 1 0.021921 0.000129 -0.006268 0.000000 0.000000 0.000000
# 2 0.000129 0.011232 -0.003180 0.000000 0.000000 0.000000
# 3 -0.006268 -0.003180 0.008856 0.000000 0.000000 0.000000
# 4 0.000000 0.000000 0.000000 0.021019 0.000000 0.000000
# 5 0.000000 0.000000 0.000000 0.000000 0.031471 0.000000
# 6 0.000000 0.000000 0.000000 0.000000 0.000000 0.028511
#
#
# Mechanical properties :
#
#
# Convention : Reuss Voigt Hill
#
# Bulk Modulus (GPa) = 42.78959 58.80602 50.79780
# Shear Modulus (GPa) = 33.45906 37.45452 35.45679
#
# Velocity S-wave (km/s) = 3.63813 3.84923 3.74517
# Velocity P-wave (km/s) = 5.88006 6.55884 6.22870
#
# Compressibility (1/GPa) = 0.02337017
#
# Stress axis : x y z
#
# Youngs Moduli (GPa) = 45.61914 89.03365 112.92343
#
# Poissons Ratio (x) = -0.01148 0.70781
# Poissons Ratio (y) = -0.00588 0.35907
# Poissons Ratio (z) = 0.28594 0.28311
#
# Static dielectric constant tensor:
#      x y z
#    x 4.421860 0.000000 0.000000 
#    y 0.000000 5.099240 0.000000 
#    z 0.000000 0.000000 4.649960 
# 
# 
# High freq. dielectric constant tensor:
#      x y z
#    x 2.001630 0.000000 0.000000 
#    y 0.000000 2.027370 0.000000 
#    z 0.000000 0.000000 2.022620 
# 
# From -- ./inp_files/10593.got.cif
#   From: 2010.03.12/outbox.cif.g09.slc.cpg/sg41_6_cif.got.tgz:10593.got - 2010.04.14 01:55:53.
