data_PCOD8185056
_publ_section_title
;
Structure prediction by ZEFSAII (Michael W. Deem and Ramdas Pophale) SiO2 
 PCOD8185056
Probable space group: A B A 2
;
_chemical_formula_sum "Si O2"
_cell_formula_units_Z 40
_cell_length_a 19.329510
_cell_length_b 11.922006
_cell_length_c 7.318156
_cell_angle_alpha 90.000000
_cell_angle_beta 90.000000
_cell_angle_gamma 90.000000
_cell_volume 1686.443687
_symmetry_space_group_name_H-M "A B A 2"
_symmetry_group_IT_number 41
_symmetry_cell_setting 'orthorhombic'
loop_
_space_group_symop_operation_xyz
x,y,z
-x,-y,z
1/2-x,y,1/2+z
1/2+x,-y,1/2+z
x,1/2+y,1/2+z
-x,1/2-y,1/2+z
1/2-x,1/2+y,z
1/2+x,1/2-y,z
loop_
_atom_site_type_symbol
_atom_site_label
_atom_site_fract_x
_atom_site_fract_y
_atom_site_fract_z
Si Si1 0.909725 0.817247 0.434550
Si Si2 0.312382 0.874280 0.379108
Si Si3 0.833876 0.681760 0.988268
Si Si4 0.869358 0.917382 0.088403
Si Si5 0.454719 0.703726 0.825479
O O1 0.843615 0.738355 0.466418
O O2 0.888902 0.923872 0.305973
O O3 0.938982 0.853698 0.629697
O O4 0.966346 0.742821 0.324801
O O5 0.229280 0.862757 0.365870
O O6 0.340314 0.894848 0.172184
O O7 0.331320 0.973809 0.516629
O O8 0.818925 0.809651 0.059336
O O9 0.904513 0.687783 0.867401
O O10 0.940510 0.893933 0.974544
#
# Coordination Sequence:
#
# PCOD8185056 Si02
#       5
#     8   8   8   8   8
#     4  11  20  41  70  92 134 173 213 284 333 404
#     4  11  21  41  64  95 133 168 231 274 325 411
#     4   9  22  40  60  93 130 174 212 275 334 388
#     4   9  23  40  64  97 122 174 219 262 343 391
#     4  10  20  44  65  92 134 175 213 272 349 390
#
# _framework density 23.71855
#
# number of rings (size 3 to 8) (size 9 to 14) (size 15 to 20)
#    1.200    0.800    2.000    1.200    0.000    4.000 
#    7.200    0.000    0.000    0.000    0.000    0.000 
#    0.000    0.000    0.000    0.000    0.000    0.000 
#
# Total GULP energy -247796.111090 kJ/mol
# GULP energy per Si atom -12389.805554 kJ/mol
# Density = 2.366457 g / cm^3
# Si number density = 23.718550 Si / 1000 Ang^3
#
#
#
# Elastic Constant Matrix: (Units=GPa)
#
#
# Indices 1 2 3 4 5 6 
#
# 1 79.5879 7.5012 5.1065 0.0000 0.0000 0.0000
# 2 7.5012 52.8328 23.0704 0.0000 0.0000 0.0000
# 3 5.1065 23.0704 148.2913 0.0000 0.0000 0.0000
# 4 0.0000 0.0000 0.0000 34.2475 0.0000 0.0000
# 5 0.0000 0.0000 0.0000 0.0000 36.7274 0.0000
# 6 0.0000 0.0000 0.0000 0.0000 0.0000 17.3823
#
#
#
# Elastic Compliance Matrix: (Units=1/GPa)
#
#
# Indices 1 2 3 4 5 6 
#
# 1 0.012739 -0.001735 -0.000169 0.000000 0.000000 0.000000
# 2 -0.001735 0.020544 -0.003136 0.000000 0.000000 0.000000
# 3 -0.000169 -0.003136 0.007237 0.000000 0.000000 0.000000
# 4 0.000000 0.000000 0.000000 0.029199 0.000000 0.000000
# 5 0.000000 0.000000 0.000000 0.000000 0.027228 0.000000
# 6 0.000000 0.000000 0.000000 0.000000 0.000000 0.057530
#
#
# Mechanical properties :
#
#
# Convention : Reuss Voigt Hill
#
# Bulk Modulus (GPa) = 32.85188 39.11869 35.98529
# Shear Modulus (GPa) = 28.61997 34.00703 31.31350
#
# Velocity S-wave (km/s) = 3.47745 3.79063 3.63741
# Velocity P-wave (km/s) = 5.47762 5.97387 5.73112
#
# Compressibility (1/GPa) = 0.03043966
#
# Stress axis : x y z
#
# Youngs Moduli (GPa) = 78.49865 48.67719 138.17454
#
# Poissons Ratio (x) = 0.08446 0.02332
# Poissons Ratio (y) = 0.13620 0.43336
# Poissons Ratio (z) = 0.01325 0.15267
#
# Static dielectric constant tensor:
#      x y z
#    x 4.062750 0.000000 0.000000 
#    y 0.000000 3.640130 0.000000 
#    z 0.000000 0.000000 4.330470 
# 
# 
# High freq. dielectric constant tensor:
#      x y z
#    x 1.928090 0.000000 0.000000 
#    y 0.000000 1.888400 0.000000 
#    z 0.000000 0.000000 1.959230 
# 
# From -- ./inp_files/3332.got.cif
#   From: 2010.03.12/outbox.cif.g09.slc.cpg/sg41_2_cif.got.tgz:3332.got - 2010.04.14 01:55:53.
