data_PCOD8185300
_publ_section_title
;
Structure prediction by ZEFSAII (Michael W. Deem and Ramdas Pophale) SiO2 
 PCOD8185300
Probable space group: A B A 2
;
_chemical_formula_sum "Si O2"
_cell_formula_units_Z 60
_cell_length_a 8.509876
_cell_length_b 10.837609
_cell_length_c 28.991971
_cell_angle_alpha 90.000000
_cell_angle_beta 90.000000
_cell_angle_gamma 90.000000
_cell_volume 2673.834065
_symmetry_space_group_name_H-M "A B A 2"
_symmetry_group_IT_number 41
_symmetry_cell_setting 'orthorhombic'
loop_
_space_group_symop_operation_xyz
x,y,z
-x,-y,z
1/2-x,y,1/2+z
1/2+x,-y,1/2+z
x,1/2+y,1/2+z
-x,1/2-y,1/2+z
1/2-x,1/2+y,z
1/2+x,1/2-y,z
loop_
_atom_site_type_symbol
_atom_site_label
_atom_site_fract_x
_atom_site_fract_y
_atom_site_fract_z
Si Si1 0.403255 0.622892 0.721510
Si Si2 0.008884 0.638286 0.585335
Si Si3 0.603642 0.279033 0.376702
Si Si4 0.063530 0.639572 0.685823
Si Si5 0.000000 0.000000 0.496069
Si Si6 0.176913 0.841660 0.438659
Si Si7 0.612165 0.389004 0.827263
Si Si8 0.296139 0.208647 0.026133
O O1 0.500000 0.500000 0.706413
O O2 0.251227 0.632412 0.689517
O O3 0.498503 0.752883 0.719988
O O4 0.344118 0.602095 0.773936
O O5 0.022559 0.700723 0.635764
O O6 0.160710 0.645077 0.554080
O O7 0.000000 0.500000 0.601581
O O8 0.855748 0.674924 0.555802
O O9 0.702634 0.160757 0.396145
O O10 0.500936 0.323758 0.419943
O O11 0.726211 0.382580 0.357644
O O12 0.490265 0.234873 0.335695
O O13 0.000000 0.500000 0.696576
O O14 0.049744 0.118980 0.525662
O O15 0.841449 0.030034 0.466142
O O16 0.231854 0.738199 0.475268
O O17 0.500000 0.500000 0.843787
#
# Coordination Sequence:
#
# PCOD8185300 Si02
#       8
#     8   8   8   8   4   8   8   8
#     4  11  23  44  70  99 136 178 221 276 349 413
#     4  11  25  43  65  95 131 167 218 274 327 386
#     4  10  22  40  61  94 128 164 219 264 319 387
#     4  11  24  44  69 100 133 175 225 283 339 410
#     4  12  24  38  66  88 124 172 212 262 326 380
#     4  11  22  39  62  92 128 170 214 265 319 385
#     4  10  23  41  64  94 130 170 213 273 332 393
#     4  12  23  44  63  95 128 172 217 266 327 395
#
# _framework density 22.439688
#
# number of rings (size 3 to 8) (size 9 to 14) (size 15 to 20)
#    0.000    1.067    2.667    3.200    1.867    2.133 
#    2.400    1.333    0.000    0.000    0.000    0.000 
#    0.000    0.000    0.000    0.000    0.000    0.000 
#
# Total GULP energy -371683.275632 kJ/mol
# GULP energy per Si atom -12389.442521 kJ/mol
# Density = 2.238861 g / cm^3
# Si number density = 22.439688 Si / 1000 Ang^3
#
#
#
# Elastic Constant Matrix: (Units=GPa)
#
#
# Indices 1 2 3 4 5 6 
#
# 1 114.4046 22.5143 37.9093 0.0000 0.0000 0.0000
# 2 22.5143 87.1798 13.4313 0.0000 0.0000 0.0000
# 3 37.9093 13.4313 92.7973 0.0000 0.0000 0.0000
# 4 0.0000 0.0000 0.0000 25.9622 0.0000 0.0000
# 5 0.0000 0.0000 0.0000 0.0000 42.2923 0.0000
# 6 0.0000 0.0000 0.0000 0.0000 0.0000 33.7366
#
#
#
# Elastic Compliance Matrix: (Units=1/GPa)
#
#
# Indices 1 2 3 4 5 6 
#
# 1 0.010469 -0.002091 -0.003974 0.000000 0.000000 0.000000
# 2 -0.002091 0.012150 -0.000904 0.000000 0.000000 0.000000
# 3 -0.003974 -0.000904 0.012531 0.000000 0.000000 0.000000
# 4 0.000000 0.000000 0.000000 0.038517 0.000000 0.000000
# 5 0.000000 0.000000 0.000000 0.000000 0.023645 0.000000
# 6 0.000000 0.000000 0.000000 0.000000 0.000000 0.029641
#
#
# Mechanical properties :
#
#
# Convention : Reuss Voigt Hill
#
# Bulk Modulus (GPa) = 47.14698 49.12130 48.13414
# Shear Modulus (GPa) = 33.79211 35.10002 34.44607
#
# Velocity S-wave (km/s) = 3.88481 3.95928 3.92222
# Velocity P-wave (km/s) = 6.41705 6.54516 6.48142
#
# Compressibility (1/GPa) = 0.02121026
#
# Stress axis : x y z
#
# Youngs Moduli (GPa) = 95.51646 82.30475 79.80481
#
# Poissons Ratio (x) = 0.17214 0.31716
# Poissons Ratio (y) = 0.19977 0.07216
# Poissons Ratio (z) = 0.37960 0.07442
#
# Static dielectric constant tensor:
#      x y z
#    x 3.917240 0.000000 0.000000 
#    y 0.000000 3.969100 0.000000 
#    z 0.000000 0.000000 3.979340 
# 
# 
# High freq. dielectric constant tensor:
#      x y z
#    x 1.893300 0.000000 0.000000 
#    y 0.000000 1.873170 0.000000 
#    z 0.000000 0.000000 1.889220 
# 
# From -- ./inp_files/12447.got.cif
#   From: 2010.03.12/outbox.cif.g09.slc.cpg/sg41_7_cif.got.tgz:12447.got - 2010.04.14 01:55:53.
