data_PCOD8185521
_publ_section_title
;
Structure prediction by ZEFSAII (Michael W. Deem and Ramdas Pophale) SiO2 
 PCOD8185521
Probable space group: A B A 2
;
_chemical_formula_sum "Si O2"
_cell_formula_units_Z 24
_cell_length_a 10.640989
_cell_length_b 6.990436
_cell_length_c 12.145584
_cell_angle_alpha 90.000000
_cell_angle_beta 90.000000
_cell_angle_gamma 90.000000
_cell_volume 903.451119
_symmetry_space_group_name_H-M "A B A 2"
_symmetry_group_IT_number 41
_symmetry_cell_setting 'orthorhombic'
loop_
_space_group_symop_operation_xyz
x,y,z
-x,-y,z
1/2-x,y,1/2+z
1/2+x,-y,1/2+z
x,1/2+y,1/2+z
-x,1/2-y,1/2+z
1/2-x,1/2+y,z
1/2+x,1/2-y,z
loop_
_atom_site_type_symbol
_atom_site_label
_atom_site_fract_x
_atom_site_fract_y
_atom_site_fract_z
Si Si1 0.106972 0.341746 0.637280
Si Si2 0.327093 0.500000 0.768020
Si Si3 0.606972 0.841746 0.898760
O O1 0.241631 0.437592 0.663210
O O2 0.103807 0.250000 0.518020
O O3 0.000000 0.500000 0.652489
O O4 0.085364 0.172634 0.726311
O O5 0.414637 0.327366 0.809729
O O6 0.241630 0.562407 0.872830
O O7 0.500000 0.000000 0.883551
#
# Coordination Sequence:
#
# PCOD8185521 Si02
#       3
#     8   8   8
#     4  11  25  45  75 109 143 190 245 300 361 432
#     4  10  25  50  73 104 148 194 240 298 366 432
#     4  11  25  45  75 109 143 190 245 300 361 432
#
# _framework density 26.564803000000001
#
# number of rings (size 3 to 8) (size 9 to 14) (size 15 to 20)
#    0.000    1.333    0.000    3.000    0.000   18.667 
#    0.000    3.333    0.000    0.000    0.000    0.000 
#    0.000    0.000    0.000    0.000    0.000    0.000 
#
# Total GULP energy -148782.286686 kJ/mol
# GULP energy per Si atom -12398.523891 kJ/mol
# Density = 2.650434 g / cm^3
# Si number density = 26.564803 Si / 1000 Ang^3
#
#
#
# Elastic Constant Matrix: (Units=GPa)
#
#
# Indices 1 2 3 4 5 6 
#
# 1 121.1868 102.5144 120.2761 0.0000 0.0000 0.0000
# 2 102.5144 255.4784 119.1531 0.0000 0.0000 0.0000
# 3 120.2761 119.1531 144.9444 0.0000 0.0000 0.0000
# 4 0.0000 0.0000 0.0000 71.0093 0.0000 0.0000
# 5 0.0000 0.0000 0.0000 0.0000 30.7147 0.0000
# 6 0.0000 0.0000 0.0000 0.0000 0.0000 -228.4621
#
#
#
# Elastic Compliance Matrix: (Units=1/GPa)
#
#
# Indices 1 2 3 4 5 6 
#
# 1 0.046956 -0.001085 -0.038073 0.000000 0.000000 0.000000
# 2 -0.001085 0.006373 -0.004339 0.000000 0.000000 0.000000
# 3 -0.038073 -0.004339 0.042059 0.000000 0.000000 0.000000
# 4 0.000000 0.000000 0.000000 0.014083 0.000000 0.000000
# 5 0.000000 0.000000 0.000000 0.000000 0.032558 0.000000
# 6 0.000000 0.000000 0.000000 0.000000 0.000000 -0.004377
#
#
# Mechanical properties :
#
#
# Convention : Reuss Voigt Hill
#
# Bulk Modulus (GPa) = 119.11354 133.94409 126.52881
# Shear Modulus (GPa) = 21.98358 -13.36990 4.30684
#
# Velocity S-wave (km/s) = 2.87983 -2.24585 1.27467
# Velocity P-wave (km/s) = 7.48292 6.61861 7.06399
#
# Compressibility (1/GPa) = 0.00839535
#
# Stress axis : x y z
#
# Youngs Moduli (GPa) = 21.29653 156.90762 23.77622
#
# Poissons Ratio (x) = 0.17025 0.90522
# Poissons Ratio (y) = 0.02311 0.10316
# Poissons Ratio (z) = 0.81081 0.68078
#
# Static dielectric constant tensor:
#      x y z
#    x 4.577730 0.000000 0.000000 
#    y 0.000000 5.734850 0.000000 
#    z 0.000000 0.000000 4.763050 
# 
# 
# High freq. dielectric constant tensor:
#      x y z
#    x 2.075770 0.000000 0.000000 
#    y 0.000000 2.098780 0.000000 
#    z 0.000000 0.000000 2.068050 
# 
# From -- ./inp_files/4666.got.cif
#   From: 2010.03.12/outbox.cif.g09.slc.cpg/sg41_3_cif.got.tgz:4666.got - 2010.04.14 01:55:53.
