data_PCOD8185902
_publ_section_title
;
Structure prediction by ZEFSAII (Michael W. Deem and Ramdas Pophale) SiO2 
 PCOD8185902
Probable space group: F M M 2
;
_chemical_formula_sum "Si O2"
_cell_formula_units_Z 128
_cell_length_a 16.779590
_cell_length_b 17.695507
_cell_length_c 22.179605
_cell_angle_alpha 90.000000
_cell_angle_beta 90.000000
_cell_angle_gamma 90.000000
_cell_volume 6585.642669
_symmetry_space_group_name_H-M "F M M 2"
_symmetry_group_IT_number 42
_symmetry_cell_setting 'orthorhombic'
loop_
_space_group_symop_operation_xyz
x,y,z
-x,-y,z
-x,y,z
x,-y,z
x,1/2+y,1/2+z
-x,1/2-y,1/2+z
-x,1/2+y,1/2+z
x,1/2-y,1/2+z
1/2+x,y,1/2+z
1/2-x,-y,1/2+z
1/2-x,y,1/2+z
1/2+x,-y,1/2+z
1/2+x,1/2+y,z
1/2-x,1/2-y,z
1/2-x,1/2+y,z
1/2+x,1/2-y,z
loop_
_atom_site_type_symbol
_atom_site_label
_atom_site_fract_x
_atom_site_fract_y
_atom_site_fract_z
Si Si1 0.716489 0.912612 0.075290
Si Si2 0.087494 0.084277 0.204711
Si Si3 0.340830 0.733412 0.249782
Si Si4 0.162944 0.222027 0.386822
Si Si5 0.880215 0.156536 0.086777
Si Si6 0.760564 0.914536 0.435041
Si Si7 0.589138 0.649220 0.949886
Si Si8 0.909576 0.684409 0.139295
O O1 0.787478 0.859853 0.098265
O O2 0.639512 0.885665 0.112385
O O3 0.732493 0.000000 0.091142
O O4 0.711532 0.901648 0.003579
O O5 0.144660 0.145481 0.235158
O O6 0.073373 0.104987 0.134562
O O7 0.000000 0.087345 0.235305
O O8 0.124197 0.000000 0.211559
O O9 0.250000 0.750000 0.236654
O O10 0.362759 0.745928 0.319548
O O11 0.390391 0.791174 0.208260
O O12 0.250000 0.250000 0.405782
O O13 0.173970 0.131909 0.395609
O O14 0.100090 0.262093 0.431949
O O15 0.895693 0.244703 0.095916
O O16 0.910394 0.135078 0.020994
O O17 0.666258 0.894843 0.422656
O O18 0.771757 0.000000 0.414310
O O19 0.500000 0.622805 0.927278
O O20 0.000000 0.657053 0.137904
#
# Coordination Sequence:
#
# PCOD8185902 Si02
#       8
#    16  16  16  16  16  16  16  16
#     4  10  20  34  54  79 108 141 172 207 255 313
#     4  10  20  33  50  75 106 133 160 205 263 315
#     4  10  20  35  54  76 101 136 181 220 257 306
#     4   9  19  35  54  75 101 139 182 219 257 306
#     4  10  18  32  51  76 105 136 175 212 254 309
#     4   9  19  35  54  78 108 140 175 216 260 311
#     4  10  19  31  52  80 107 137 174 218 268 314
#     4  11  21  33  53  78 105 136 171 217 267 311
#
# _framework density 19.436219999999999
#
# number of rings (size 3 to 8) (size 9 to 14) (size 15 to 20)
#    0.000    2.125    0.000    5.250    0.000    4.500 
#    0.000    0.000    0.000    4.125    0.000    5.250 
#    0.000    0.000    0.000    0.000    0.000    0.000 
#
# Total GULP energy -396533.027627 kJ/mol
# GULP energy per Si atom -12391.657113 kJ/mol
# Density = 1.939198 g / cm^3
# Si number density = 19.436220 Si / 1000 Ang^3
#
#
#
# Elastic Constant Matrix: (Units=GPa)
#
#
# Indices 1 2 3 4 5 6 
#
# 1 106.5078 38.2061 38.1961 0.0000 0.0000 0.0000
# 2 38.2061 85.7332 16.5696 0.0000 0.0000 0.0000
# 3 38.1961 16.5696 47.7788 0.0000 0.0000 0.0000
# 4 0.0000 0.0000 0.0000 19.1795 0.0000 0.0000
# 5 0.0000 0.0000 0.0000 0.0000 22.7979 0.0000
# 6 0.0000 0.0000 0.0000 0.0000 0.0000 30.3257
#
#
#
# Elastic Compliance Matrix: (Units=1/GPa)
#
#
# Indices 1 2 3 4 5 6 
#
# 1 0.014666 -0.004577 -0.010138 0.000000 0.000000 0.000000
# 2 -0.004577 0.013930 -0.001172 0.000000 0.000000 0.000000
# 3 -0.010138 -0.001172 0.029441 0.000000 0.000000 0.000000
# 4 0.000000 0.000000 0.000000 0.052139 0.000000 0.000000
# 5 0.000000 0.000000 0.000000 0.000000 0.043864 0.000000
# 6 0.000000 0.000000 0.000000 0.000000 0.000000 0.032975
#
#
# Mechanical properties :
#
#
# Convention : Reuss Voigt Hill
#
# Bulk Modulus (GPa) = 38.07458 47.32925 42.70191
# Shear Modulus (GPa) = 21.97389 24.26381 23.11885
#
# Velocity S-wave (km/s) = 3.36603 3.53708 3.45261
# Velocity P-wave (km/s) = 5.89397 6.40977 6.15727
#
# Compressibility (1/GPa) = 0.02626424
#
# Stress axis : x y z
#
# Youngs Moduli (GPa) = 68.18382 71.78668 33.96660
#
# Poissons Ratio (x) = 0.32854 0.34434
# Poissons Ratio (y) = 0.31205 0.03982
# Poissons Ratio (z) = 0.69122 0.08415
#
# Static dielectric constant tensor:
#      x y z
#    x 3.550260 0.000000 0.000000 
#    y 0.000000 3.571950 0.000000 
#    z 0.000000 0.000000 3.419050 
# 
# 
# High freq. dielectric constant tensor:
#      x y z
#    x 1.752450 0.000000 0.000000 
#    y 0.000000 1.746690 0.000000 
#    z 0.000000 0.000000 1.742710 
# 
# From -- ./inp_files/30024.got.cif
#   From: 2010.03.12/outbox.cif.g09.slc.cpg/sg42_16_cif.got.tgz:30024.got - 2010.04.14 02:04:31.
