data_PCOD8185134
_publ_section_title
;
Structure prediction by ZEFSAII (Michael W. Deem and Ramdas Pophale) SiO2 
 PCOD8185134
Probable space group: A B A 2
;
_chemical_formula_sum "Si O2"
_cell_formula_units_Z 52
_cell_length_a 24.889329
_cell_length_b 8.462176
_cell_length_c 12.458459
_cell_angle_alpha 90.000000
_cell_angle_beta 90.000000
_cell_angle_gamma 90.000000
_cell_volume 2623.974254
_symmetry_space_group_name_H-M "A B A 2"
_symmetry_group_IT_number 41
_symmetry_cell_setting 'orthorhombic'
loop_
_space_group_symop_operation_xyz
x,y,z
-x,-y,z
1/2-x,y,1/2+z
1/2+x,-y,1/2+z
x,1/2+y,1/2+z
-x,1/2-y,1/2+z
1/2-x,1/2+y,z
1/2+x,1/2-y,z
loop_
_atom_site_type_symbol
_atom_site_label
_atom_site_fract_x
_atom_site_fract_y
_atom_site_fract_z
Si Si1 0.226554 0.713943 0.681100
Si Si2 0.923595 0.225335 0.299277
Si Si3 0.025743 0.762690 0.525504
Si Si4 0.000000 0.000000 0.177401
Si Si5 0.807265 0.576863 0.811588
Si Si6 0.077088 0.580267 0.092215
Si Si7 0.805727 0.495330 0.049628
O O1 0.189619 0.583763 0.740819
O O2 0.264677 0.799385 0.766229
O O3 0.262035 0.626291 0.592581
O O4 0.190055 0.845843 0.622303
O O5 0.950732 0.281312 0.409755
O O6 0.864224 0.162242 0.318810
O O7 0.923977 0.372061 0.217548
O O8 0.957800 0.082374 0.253985
O O9 0.034620 0.613757 0.601518
O O10 0.961994 0.806918 0.521252
O O11 0.057809 0.901859 0.583157
O O12 0.787340 0.536496 0.930301
O O13 0.137134 0.594469 0.046905
#
# Coordination Sequence:
#
# PCOD8185134 Si02
#       7
#     8   8   8   4   8   8   8
#     4  10  24  40  61  90 125 160 205 249 299 359
#     4  11  22  39  63  88 122 157 201 247 304 362
#     4  10  22  41  60  87 120 159 197 250 302 358
#     4  10  24  38  60  90 118 152 210 244 292 372
#     4  11  22  39  64  89 120 164 202 245 306 359
#     4  10  21  39  63  87 122 157 197 248 309 353
#     4  11  21  41  63  88 125 158 199 255 296 362
#
# _framework density 19.817267000000001
#
# number of rings (size 3 to 8) (size 9 to 14) (size 15 to 20)
#    0.000    1.538    3.077    1.846    2.154    2.462 
#    0.000    3.077    0.000    0.000    0.000    0.000 
#    0.000    0.000    0.000    0.000    0.000    0.000 
#
# Total GULP energy -322449.784102 kJ/mol
# GULP energy per Si atom -12401.914773 kJ/mol
# Density = 1.977216 g / cm^3
# Si number density = 19.817267 Si / 1000 Ang^3
#
#
#
# Elastic Constant Matrix: (Units=GPa)
#
#
# Indices 1 2 3 4 5 6 
#
# 1 74.1642 -9.9899 28.4754 0.0000 0.0000 0.0000
# 2 -9.9899 31.8620 10.8920 0.0000 0.0000 0.0000
# 3 28.4754 10.8920 112.6905 0.0000 0.0000 0.0000
# 4 0.0000 0.0000 0.0000 30.7134 0.0000 0.0000
# 5 0.0000 0.0000 0.0000 0.0000 23.4740 0.0000
# 6 0.0000 0.0000 0.0000 0.0000 0.0000 16.1678
#
#
#
# Elastic Compliance Matrix: (Units=1/GPa)
#
#
# Indices 1 2 3 4 5 6 
#
# 1 0.016208 0.006703 -0.004743 0.000000 0.000000 0.000000
# 2 0.006703 0.035230 -0.005099 0.000000 0.000000 0.000000
# 3 -0.004743 -0.005099 0.010565 0.000000 0.000000 0.000000
# 4 0.000000 0.000000 0.000000 0.032559 0.000000 0.000000
# 5 0.000000 0.000000 0.000000 0.000000 0.042600 0.000000
# 6 0.000000 0.000000 0.000000 0.000000 0.000000 0.061851
#
#
# Mechanical properties :
#
#
# Convention : Reuss Voigt Hill
#
# Bulk Modulus (GPa) = 17.94527 30.83019 24.38773
# Shear Modulus (GPa) = 22.33469 26.69365 24.51417
#
# Velocity S-wave (km/s) = 3.36077 3.67412 3.52093
# Velocity P-wave (km/s) = 4.91271 5.79568 5.37236
#
# Compressibility (1/GPa) = 0.05572498
#
# Stress axis : x y z
#
# Youngs Moduli (GPa) = 61.69893 28.38477 94.64955
#
# Poissons Ratio (x) = -0.19027 0.44896
# Poissons Ratio (y) = -0.41358 0.48261
# Poissons Ratio (z) = 0.29266 0.14473
#
# Static dielectric constant tensor:
#      x y z
#    x 3.685550 0.000000 0.000000 
#    y 0.000000 3.964920 0.000000 
#    z 0.000000 0.000000 3.694190 
# 
# 
# High freq. dielectric constant tensor:
#      x y z
#    x 1.772400 0.000000 0.000000 
#    y 0.000000 1.776870 0.000000 
#    z 0.000000 0.000000 1.780200 
# 
# From -- ./inp_files/6535.got.cif
#   From: 2010.03.12/outbox.cif.g09.slc.cpg/sg41_4_cif.got.tgz:6535.got - 2010.04.14 01:55:53.
