data_PCOD8185989
_publ_section_title
;
Structure prediction by ZEFSAII (Michael W. Deem and Ramdas Pophale) SiO2 
 PCOD8185989
Probable space group: F M M 2
;
_chemical_formula_sum "Si O2"
_cell_formula_units_Z 112
_cell_length_a 9.005608
_cell_length_b 29.092480
_cell_length_c 25.735335
_cell_angle_alpha 90.000000
_cell_angle_beta 90.000000
_cell_angle_gamma 90.000000
_cell_volume 6742.541205
_symmetry_space_group_name_H-M "F M M 2"
_symmetry_group_IT_number 42
_symmetry_cell_setting 'orthorhombic'
loop_
_space_group_symop_operation_xyz
x,y,z
-x,-y,z
-x,y,z
x,-y,z
x,1/2+y,1/2+z
-x,1/2-y,1/2+z
-x,1/2+y,1/2+z
x,1/2-y,1/2+z
1/2+x,y,1/2+z
1/2-x,-y,1/2+z
1/2-x,y,1/2+z
1/2+x,-y,1/2+z
1/2+x,1/2+y,z
1/2-x,1/2-y,z
1/2-x,1/2+y,z
1/2+x,1/2-y,z
loop_
_atom_site_type_symbol
_atom_site_label
_atom_site_fract_x
_atom_site_fract_y
_atom_site_fract_z
Si Si1 0.324515 0.702487 0.354680
Si Si2 0.826689 0.296922 0.738301
Si Si3 0.672078 0.354154 0.140956
Si Si4 0.176487 0.799554 0.549688
Si Si5 0.675916 0.949787 0.991341
Si Si6 0.169648 0.050596 0.098775
Si Si7 0.676160 0.355975 0.449615
O O1 0.500000 0.708769 0.359305
O O2 0.250000 0.750000 0.371146
O O3 0.275966 0.688175 0.296316
O O4 0.265681 0.663928 0.394814
O O5 0.750000 0.250000 0.720313
O O6 0.782305 0.337101 0.698395
O O7 0.000000 0.286882 0.737670
O O8 0.500000 0.342660 0.129170
O O9 0.773161 0.329239 0.098811
O O10 0.701411 0.409160 0.140445
O O11 0.250000 0.750000 0.552258
O O12 0.232814 0.824789 0.497389
O O13 0.000000 0.794205 0.551089
O O14 0.500000 0.949044 0.992158
O O15 0.727350 0.940404 0.049631
O O16 0.733298 0.000000 0.971586
O O17 0.736707 0.908412 0.955115
O O18 0.000000 0.053086 0.079493
O O19 0.202840 0.000000 0.123378
O O20 0.500000 0.356352 0.450636
#
# Coordination Sequence:
#
# PCOD8185989 Si02
#       7
#    16  16  16  16  16  16  16
#     4   9  17  31  48  64  86 115 150 187 220 258
#     4   9  18  31  47  65  85 115 152 187 220 258
#     4  10  19  31  46  66  91 119 150 183 224 268
#     4  11  21  31  43  64  93 121 148 178 222 272
#     4   9  16  28  46  66  89 116 147 181 218 264
#     4   9  17  29  45  65  90 118 148 183 221 263
#     4   9  17  29  45  66  90 116 145 180 222 263
#
# _framework density 16.610946999999999
#
# number of rings (size 3 to 8) (size 9 to 14) (size 15 to 20)
#    0.000    2.571    1.429    1.286    0.000    1.714 
#    0.000    1.429    0.000    0.857    0.000    6.000 
#    0.000    0.000    0.000   14.286    0.000   14.857 
#
# Total GULP energy -347048.206010 kJ/mol
# GULP energy per Si atom -12394.578786 kJ/mol
# Density = 1.657314 g / cm^3
# Si number density = 16.610947 Si / 1000 Ang^3
#
#
#
# Elastic Constant Matrix: (Units=GPa)
#
#
# Indices 1 2 3 4 5 6 
#
# 1 21.8741 24.9491 18.3245 0.0000 0.0000 0.0000
# 2 24.9491 165.5557 83.0895 0.0000 0.0000 0.0000
# 3 18.3245 83.0895 107.5458 0.0000 0.0000 0.0000
# 4 0.0000 0.0000 0.0000 26.2323 0.0000 0.0000
# 5 0.0000 0.0000 0.0000 0.0000 14.2761 0.0000
# 6 0.0000 0.0000 0.0000 0.0000 0.0000 14.7473
#
#
#
# Elastic Compliance Matrix: (Units=1/GPa)
#
#
# Indices 1 2 3 4 5 6 
#
# 1 0.056809 -0.006048 -0.005007 0.000000 0.000000 0.000000
# 2 -0.006048 0.010510 -0.007089 0.000000 0.000000 0.000000
# 3 -0.005007 -0.007089 0.015629 0.000000 0.000000 0.000000
# 4 0.000000 0.000000 0.000000 0.038121 0.000000 0.000000
# 5 0.000000 0.000000 0.000000 0.000000 0.070047 0.000000
# 6 0.000000 0.000000 0.000000 0.000000 0.000000 0.067809
#
#
# Mechanical properties :
#
#
# Convention : Reuss Voigt Hill
#
# Bulk Modulus (GPa) = 21.43213 60.85576 41.14394
# Shear Modulus (GPa) = 16.08930 22.29197 19.19064
#
# Velocity S-wave (km/s) = 3.11560 3.66731 3.40266
# Velocity P-wave (km/s) = 5.08656 7.39241 6.34511
#
# Compressibility (1/GPa) = 0.04665893
#
# Stress axis : x y z
#
# Youngs Moduli (GPa) = 17.60282 95.15032 63.98553
#
# Poissons Ratio (x) = 0.57550 0.32035
# Poissons Ratio (y) = 0.10647 0.45361
# Poissons Ratio (z) = 0.08813 0.67454
#
# Static dielectric constant tensor:
#      x y z
#    x 3.007590 0.000000 0.000000 
#    y 0.000000 3.596790 0.000000 
#    z 0.000000 0.000000 3.208960 
# 
# 
# High freq. dielectric constant tensor:
#      x y z
#    x 1.626340 0.000000 0.000000 
#    y 0.000000 1.647760 0.000000 
#    z 0.000000 0.000000 1.620050 
# 
# From -- ./inp_files/29069.got.cif
#   From: 2010.03.12/outbox.cif.g09.slc.cpg/sg42_15_cif.got.tgz:29069.got - 2010.04.14 02:04:31.
