data_PCOD8185371
_publ_section_title
;
Structure prediction by ZEFSAII (Michael W. Deem and Ramdas Pophale) SiO2 
 PCOD8185371
Probable space group: A B A 2
;
_chemical_formula_sum "Si O2"
_cell_formula_units_Z 36
_cell_length_a 16.329739
_cell_length_b 12.609601
_cell_length_c 8.074092
_cell_angle_alpha 90.000000
_cell_angle_beta 90.000000
_cell_angle_gamma 90.000000
_cell_volume 1662.548340
_symmetry_space_group_name_H-M "A B A 2"
_symmetry_group_IT_number 41
_symmetry_cell_setting 'orthorhombic'
loop_
_space_group_symop_operation_xyz
x,y,z
-x,-y,z
1/2-x,y,1/2+z
1/2+x,-y,1/2+z
x,1/2+y,1/2+z
-x,1/2-y,1/2+z
1/2-x,1/2+y,z
1/2+x,1/2-y,z
loop_
_atom_site_type_symbol
_atom_site_label
_atom_site_fract_x
_atom_site_fract_y
_atom_site_fract_z
Si Si1 0.398342 0.292823 0.824800
Si Si2 0.954911 0.843070 0.051292
Si Si3 0.500000 0.500000 0.314671
Si Si4 0.171491 0.022478 0.854529
Si Si5 0.655681 0.917715 0.987770
O O1 0.409975 0.258743 0.632495
O O2 0.346376 0.399097 0.828062
O O3 0.349914 0.202933 0.925522
O O4 0.488345 0.308508 0.901164
O O5 0.008217 0.896463 0.198226
O O6 0.887985 0.928377 0.992345
O O7 0.579248 0.489270 0.430779
O O8 0.263983 0.028474 0.914486
O O9 0.158701 0.086746 0.685569
#
# Coordination Sequence:
#
# PCOD8185371 Si02
#       5
#     8   8   4   8   8
#     4  11  25  44  73 105 138 192 227 295 351 422
#     4  11  23  44  72 105 141 181 243 278 356 421
#     4  10  22  44  70 100 142 178 228 294 332 428
#     4  12  26  48  70 103 147 183 232 306 343 417
#     4  11  27  45  69 106 139 183 241 279 360 418
#
# _framework density 21.653504000000002
#
# number of rings (size 3 to 8) (size 9 to 14) (size 15 to 20)
#    0.000    0.889    2.222    4.000    9.333    3.556 
#    0.000    0.000    0.000    0.000    0.000    0.000 
#    0.000    0.000    0.000    0.000    0.000    0.000 
#
# Total GULP energy -223303.916413 kJ/mol
# GULP energy per Si atom -12405.773134 kJ/mol
# Density = 2.160422 g / cm^3
# Si number density = 21.653504 Si / 1000 Ang^3
#
#
#
# Elastic Constant Matrix: (Units=GPa)
#
#
# Indices 1 2 3 4 5 6 
#
# 1 114.0766 46.8438 23.6241 0.0000 0.0000 0.0000
# 2 46.8438 114.6071 7.3243 0.0000 0.0000 0.0000
# 3 23.6241 7.3243 74.8121 0.0000 0.0000 0.0000
# 4 0.0000 0.0000 0.0000 33.8718 0.0000 0.0000
# 5 0.0000 0.0000 0.0000 0.0000 25.9948 0.0000
# 6 0.0000 0.0000 0.0000 0.0000 0.0000 27.2357
#
#
#
# Elastic Compliance Matrix: (Units=1/GPa)
#
#
# Indices 1 2 3 4 5 6 
#
# 1 0.011210 -0.004383 -0.003111 0.000000 0.000000 0.000000
# 2 -0.004383 0.010494 0.000357 0.000000 0.000000 0.000000
# 3 -0.003111 0.000357 0.014314 0.000000 0.000000 0.000000
# 4 0.000000 0.000000 0.000000 0.029523 0.000000 0.000000
# 5 0.000000 0.000000 0.000000 0.000000 0.038469 0.000000
# 6 0.000000 0.000000 0.000000 0.000000 0.000000 0.036716
#
#
# Mechanical properties :
#
#
# Convention : Reuss Voigt Hill
#
# Bulk Modulus (GPa) = 45.98960 51.00892 48.49926
# Shear Modulus (GPa) = 30.81667 32.46738 31.64202
#
# Velocity S-wave (km/s) = 3.77659 3.87642 3.82683
# Velocity P-wave (km/s) = 6.34837 6.60632 6.47863
#
# Compressibility (1/GPa) = 0.02174405
#
# Stress axis : x y z
#
# Youngs Moduli (GPa) = 89.20499 95.29057 69.86057
#
# Poissons Ratio (x) = 0.41767 0.21732
# Poissons Ratio (y) = 0.39100 -0.02492
# Poissons Ratio (z) = 0.27750 -0.03399
#
# Static dielectric constant tensor:
#      x y z
#    x 3.845110 0.000000 0.000000 
#    y 0.000000 3.957530 0.000000 
#    z 0.000000 0.000000 4.123460 
# 
# 
# High freq. dielectric constant tensor:
#      x y z
#    x 1.848150 0.000000 0.000000 
#    y 0.000000 1.857550 0.000000 
#    z 0.000000 0.000000 1.865620 
# 
# From -- ./inp_files/2371.got.cif
#   From: 2010.03.12/outbox.cif.g09.slc.cpg/sg41_2_cif.got.tgz:2371.got - 2010.04.14 01:55:53.
