data_PCOD8185627
_publ_section_title
;
Structure prediction by ZEFSAII (Michael W. Deem and Ramdas Pophale) SiO2 
 PCOD8185627
Probable space group: A B A 2
;
_chemical_formula_sum "Si O2"
_cell_formula_units_Z 48
_cell_length_a 25.988391
_cell_length_b 9.194845
_cell_length_c 9.772155
_cell_angle_alpha 90.000000
_cell_angle_beta 90.000000
_cell_angle_gamma 90.000000
_cell_volume 2335.146605
_symmetry_space_group_name_H-M "A B A 2"
_symmetry_group_IT_number 41
_symmetry_cell_setting 'orthorhombic'
loop_
_space_group_symop_operation_xyz
x,y,z
-x,-y,z
1/2-x,y,1/2+z
1/2+x,-y,1/2+z
x,1/2+y,1/2+z
-x,1/2-y,1/2+z
1/2-x,1/2+y,z
1/2+x,1/2-y,z
loop_
_atom_site_type_symbol
_atom_site_label
_atom_site_fract_x
_atom_site_fract_y
_atom_site_fract_z
Si Si1 0.476445 0.658068 0.752410
Si Si2 0.309155 0.027583 0.916063
Si Si3 0.354611 0.521480 0.127596
Si Si4 0.464865 0.139295 0.556653
Si Si5 0.862492 0.808895 0.653663
Si Si6 0.207069 0.694565 0.416170
O O1 0.500000 0.500000 0.757706
O O2 0.518522 0.753542 0.676088
O O3 0.422752 0.661566 0.672499
O O4 0.469033 0.715820 0.907770
O O5 0.348657 0.032574 0.790300
O O6 0.263063 0.135787 0.876657
O O7 0.288043 0.865878 0.945630
O O8 0.340542 0.074227 0.048859
O O9 0.406628 0.596130 0.081326
O O10 0.353868 0.350842 0.089406
O O11 0.308934 0.605812 0.051394
O O12 0.500000 0.000000 0.565224
O O13 0.833313 0.834351 0.795819
#
# Coordination Sequence:
#
# PCOD8185627 Si02
#       6
#     8   8   8   8   8   8
#     4  11  26  41  66  99 131 173 217 268 320 389
#     4  11  26  41  69  96 127 174 215 271 327 386
#     4  11  24  42  69  96 131 173 213 270 324 384
#     4  11  24  45  66  96 135 172 213 265 325 382
#     4  11  24  44  66  98 133 168 222 267 324 388
#     4  11  24  46  64  97 131 169 222 269 326 388
#
# _framework density 20.555454999999998
#
# number of rings (size 3 to 8) (size 9 to 14) (size 15 to 20)
#    0.000    1.000    3.333    2.000    4.667    6.000 
#    0.000    0.000    0.000    0.000    0.000    0.000 
#    0.000    0.000    0.000    0.000    0.000    0.000 
#
# Total GULP energy -297732.862173 kJ/mol
# GULP energy per Si atom -12405.535924 kJ/mol
# Density = 2.050867 g / cm^3
# Si number density = 20.555455 Si / 1000 Ang^3
#
#
#
# Elastic Constant Matrix: (Units=GPa)
#
#
# Indices 1 2 3 4 5 6 
#
# 1 52.3362 18.2257 20.8506 0.0000 0.0000 0.0000
# 2 18.2257 110.6503 61.9444 0.0000 0.0000 0.0000
# 3 20.8506 61.9444 99.5006 0.0000 0.0000 0.0000
# 4 0.0000 0.0000 0.0000 36.7487 0.0000 0.0000
# 5 0.0000 0.0000 0.0000 0.0000 30.2946 0.0000
# 6 0.0000 0.0000 0.0000 0.0000 0.0000 39.1441
#
#
#
# Elastic Compliance Matrix: (Units=1/GPa)
#
#
# Indices 1 2 3 4 5 6 
#
# 1 0.021015 -0.001529 -0.003452 0.000000 0.000000 0.000000
# 2 -0.001529 0.013983 -0.008385 0.000000 0.000000 0.000000
# 3 -0.003452 -0.008385 0.015994 0.000000 0.000000 0.000000
# 4 0.000000 0.000000 0.000000 0.027212 0.000000 0.000000
# 5 0.000000 0.000000 0.000000 0.000000 0.033009 0.000000
# 6 0.000000 0.000000 0.000000 0.000000 0.000000 0.025547
#
#
# Mechanical properties :
#
#
# Convention : Reuss Voigt Hill
#
# Bulk Modulus (GPa) = 41.21973 51.61428 46.41700
# Shear Modulus (GPa) = 29.14125 32.00193 30.57159
#
# Velocity S-wave (km/s) = 3.76931 3.94998 3.86070
# Velocity P-wave (km/s) = 6.24820 6.77993 6.51949
#
# Compressibility (1/GPa) = 0.02426023
#
# Stress axis : x y z
#
# Youngs Moduli (GPa) = 47.58524 71.51307 62.52487
#
# Poissons Ratio (x) = 0.10935 0.21582
# Poissons Ratio (y) = 0.07276 0.52427
# Poissons Ratio (z) = 0.16425 0.59964
#
# Static dielectric constant tensor:
#      x y z
#    x 3.685370 0.000000 0.000000 
#    y 0.000000 3.826080 0.000000 
#    z 0.000000 0.000000 3.900450 
# 
# 
# High freq. dielectric constant tensor:
#      x y z
#    x 1.817230 0.000000 0.000000 
#    y 0.000000 1.809010 0.000000 
#    z 0.000000 0.000000 1.813600 
# 
# From -- ./inp_files/3914.got.cif
#   From: 2010.03.12/outbox.cif.g09.slc.cpg/sg41_2_cif.got.tgz:3914.got - 2010.04.14 01:55:53.
