data_PCOD8185211
_publ_section_title
;
Structure prediction by ZEFSAII (Michael W. Deem and Ramdas Pophale) SiO2 
 PCOD8185211
Probable space group: A B A 2
;
_chemical_formula_sum "Si O2"
_cell_formula_units_Z 64
_cell_length_a 10.183787
_cell_length_b 21.569998
_cell_length_c 13.267383
_cell_angle_alpha 90.000000
_cell_angle_beta 90.000000
_cell_angle_gamma 90.000000
_cell_volume 2914.369938
_symmetry_space_group_name_H-M "A B A 2"
_symmetry_group_IT_number 41
_symmetry_cell_setting 'orthorhombic'
loop_
_space_group_symop_operation_xyz
x,y,z
-x,-y,z
1/2-x,y,1/2+z
1/2+x,-y,1/2+z
x,1/2+y,1/2+z
-x,1/2-y,1/2+z
1/2-x,1/2+y,z
1/2+x,1/2-y,z
loop_
_atom_site_type_symbol
_atom_site_label
_atom_site_fract_x
_atom_site_fract_y
_atom_site_fract_z
Si Si1 0.778066 0.766960 0.266610
Si Si2 0.403738 0.943437 0.368453
Si Si3 0.046381 0.806083 0.363280
Si Si4 0.780395 0.977281 0.704021
Si Si5 0.809189 0.081475 0.084098
Si Si6 0.428128 0.635246 0.737212
Si Si7 0.117467 0.805096 0.592895
Si Si8 0.015888 0.570367 0.758561
O O1 0.678551 0.713713 0.304944
O O2 0.703937 0.832509 0.278983
O O3 0.814221 0.753486 0.148898
O O4 0.915818 0.768299 0.328976
O O5 0.340322 0.915904 0.467528
O O6 0.471751 0.880474 0.327231
O O7 0.500000 0.000000 0.396198
O O8 0.293837 0.970246 0.291911
O O9 0.074875 0.790388 0.479637
O O10 0.021301 0.879387 0.344079
O O11 0.907060 0.934035 0.691156
O O12 0.667850 0.926656 0.727789
O O13 0.758945 0.014679 0.601416
O O14 0.712255 0.137019 0.106783
O O15 0.935244 0.084839 0.156812
O O16 0.484443 0.680365 0.652959
O O17 0.000000 0.500000 0.799390
#
# Coordination Sequence:
#
# PCOD8185211 Si02
#       8
#     8   8   8   8   8   8   8   8
#     4  12  27  53  73 101 149 189 248 310 353 447
#     4  10  22  41  67 103 140 189 233 295 367 435
#     4  12  28  49  76 108 140 197 243 305 372 428
#     4  10  21  41  71 102 143 183 227 291 360 436
#     4  11  23  41  70 104 142 185 235 292 363 437
#     4  11  24  48  68  99 146 185 239 300 366 425
#     4  12  28  44  75 106 135 189 250 299 367 430
#     4  10  22  43  69 105 143 182 228 296 360 437
#
# _framework density 21.960149000000001
#
# number of rings (size 3 to 8) (size 9 to 14) (size 15 to 20)
#    0.000    1.000    5.000    1.125    7.000    1.000 
#    4.500    0.000    0.000    0.000    0.000    0.000 
#    0.000    0.000    0.000    0.000    0.000    0.000 
#
# Total GULP energy -396600.097681 kJ/mol
# GULP energy per Si atom -12393.753053 kJ/mol
# Density = 2.191017 g / cm^3
# Si number density = 21.960149 Si / 1000 Ang^3
#
#
#
# Elastic Constant Matrix: (Units=GPa)
#
#
# Indices 1 2 3 4 5 6 
#
# 1 108.6534 39.8802 51.0026 0.0000 0.0000 0.0000
# 2 39.8802 95.7483 39.4718 0.0000 0.0000 0.0000
# 3 51.0026 39.4718 129.9052 0.0000 0.0000 0.0000
# 4 0.0000 0.0000 0.0000 30.5410 0.0000 0.0000
# 5 0.0000 0.0000 0.0000 0.0000 27.1197 0.0000
# 6 0.0000 0.0000 0.0000 0.0000 0.0000 46.3845
#
#
#
# Elastic Compliance Matrix: (Units=1/GPa)
#
#
# Indices 1 2 3 4 5 6 
#
# 1 0.012265 -0.003571 -0.003731 0.000000 0.000000 0.000000
# 2 -0.003571 0.012979 -0.002542 0.000000 0.000000 0.000000
# 3 -0.003731 -0.002542 0.009935 0.000000 0.000000 0.000000
# 4 0.000000 0.000000 0.000000 0.032743 0.000000 0.000000
# 5 0.000000 0.000000 0.000000 0.000000 0.036874 0.000000
# 6 0.000000 0.000000 0.000000 0.000000 0.000000 0.021559
#
#
# Mechanical properties :
#
#
# Convention : Reuss Voigt Hill
#
# Bulk Modulus (GPa) = 64.54449 66.11289 65.32869
# Shear Modulus (GPa) = 33.06761 34.40586 33.73674
#
# Velocity S-wave (km/s) = 3.88467 3.96250 3.92378
# Velocity P-wave (km/s) = 7.04105 7.14888 7.09517
#
# Compressibility (1/GPa) = 0.01549319
#
# Stress axis : x y z
#
# Youngs Moduli (GPa) = 81.53061 77.04668 100.65509
#
# Poissons Ratio (x) = 0.27511 0.37550
# Poissons Ratio (y) = 0.29112 0.25585
# Poissons Ratio (z) = 0.30416 0.19584
#
# Static dielectric constant tensor:
#      x y z
#    x 4.337220 0.000000 0.000000 
#    y 0.000000 3.963980 0.000000 
#    z 0.000000 0.000000 3.716060 
# 
# 
# High freq. dielectric constant tensor:
#      x y z
#    x 1.884000 0.000000 0.000000 
#    y 0.000000 1.874720 0.000000 
#    z 0.000000 0.000000 1.838620 
# 
# From -- ./inp_files/5181.got.cif
#   From: 2010.03.12/outbox.cif.g09.slc.cpg/sg41_3_cif.got.tgz:5181.got - 2010.04.14 01:55:53.
