data_PCOD8185451
_publ_section_title
;
Structure prediction by ZEFSAII (Michael W. Deem and Ramdas Pophale) SiO2 
 PCOD8185451
Probable space group: A B A 2
;
_chemical_formula_sum "Si O2"
_cell_formula_units_Z 40
_cell_length_a 17.366118
_cell_length_b 10.543206
_cell_length_c 9.407818
_cell_angle_alpha 90.000000
_cell_angle_beta 90.000000
_cell_angle_gamma 90.000000
_cell_volume 1722.520293
_symmetry_space_group_name_H-M "A B A 2"
_symmetry_group_IT_number 41
_symmetry_cell_setting 'orthorhombic'
loop_
_space_group_symop_operation_xyz
x,y,z
-x,-y,z
1/2-x,y,1/2+z
1/2+x,-y,1/2+z
x,1/2+y,1/2+z
-x,1/2-y,1/2+z
1/2-x,1/2+y,z
1/2+x,1/2-y,z
loop_
_atom_site_type_symbol
_atom_site_label
_atom_site_fract_x
_atom_site_fract_y
_atom_site_fract_z
Si Si1 0.611582 0.817031 0.616140
Si Si2 0.811163 0.005203 0.932247
Si Si3 0.836466 0.035355 0.607705
Si Si4 0.532182 0.625618 0.951183
Si Si5 0.565114 0.899254 0.889749
O O1 0.616881 0.665608 0.628194
O O2 0.523473 0.861264 0.587227
O O3 0.630013 0.890028 0.765010
O O4 0.670812 0.865508 0.495733
O O5 0.806658 0.991092 0.761654
O O6 0.878132 0.101301 0.985650
O O7 0.732782 0.059154 0.997729
O O8 0.893354 0.929799 0.539629
O O9 0.500000 0.500000 0.863225
O O10 0.524471 0.761068 0.875712
O O11 0.500000 0.000000 0.856288
#
# Coordination Sequence:
#
# PCOD8185451 Si02
#       5
#     8   8   8   8   8
#     4  11  25  48  72 108 144 190 246 297 364 430
#     4  11  26  47  70 101 150 190 238 301 361 430
#     4  12  27  46  71 108 143 194 246 298 366 430
#     4  10  23  46  73 106 144 189 236 298 360 427
#     4  12  24  46  77 110 144 191 246 300 365 437
#
# _framework density 23.221788
#
# number of rings (size 3 to 8) (size 9 to 14) (size 15 to 20)
#    0.000    0.800    4.000    3.000    2.800    7.200 
#    7.200    0.000    0.000    0.000    0.000    0.000 
#    0.000    0.000    0.000    0.000    0.000    0.000 
#
# Total GULP energy -247797.578497 kJ/mol
# GULP energy per Si atom -12389.878925 kJ/mol
# Density = 2.316893 g / cm^3
# Si number density = 23.221788 Si / 1000 Ang^3
#
#
#
# Elastic Constant Matrix: (Units=GPa)
#
#
# Indices 1 2 3 4 5 6 
#
# 1 90.0667 41.3796 36.6205 0.0000 0.0000 0.0000
# 2 41.3796 171.6623 54.8976 0.0000 0.0000 0.0000
# 3 36.6205 54.8976 170.1621 0.0000 0.0000 0.0000
# 4 0.0000 0.0000 0.0000 33.4612 0.0000 0.0000
# 5 0.0000 0.0000 0.0000 0.0000 31.5029 0.0000
# 6 0.0000 0.0000 0.0000 0.0000 0.0000 27.6908
#
#
#
# Elastic Compliance Matrix: (Units=1/GPa)
#
#
# Indices 1 2 3 4 5 6 
#
# 1 0.013071 -0.002510 -0.002003 0.000000 0.000000 0.000000
# 2 -0.002510 0.006978 -0.001711 0.000000 0.000000 0.000000
# 3 -0.002003 -0.001711 0.006860 0.000000 0.000000 0.000000
# 4 0.000000 0.000000 0.000000 0.029885 0.000000 0.000000
# 5 0.000000 0.000000 0.000000 0.000000 0.031743 0.000000
# 6 0.000000 0.000000 0.000000 0.000000 0.000000 0.036113
#
#
# Mechanical properties :
#
#
# Convention : Reuss Voigt Hill
#
# Bulk Modulus (GPa) = 69.15750 77.52072 73.33911
# Shear Modulus (GPa) = 35.23169 38.46387 36.84778
#
# Velocity S-wave (km/s) = 3.89933 4.07427 3.98776
# Velocity P-wave (km/s) = 7.07948 7.45574 7.27004
#
# Compressibility (1/GPa) = 0.01445975
#
# Stress axis : x y z
#
# Youngs Moduli (GPa) = 76.50783 143.31565 145.77669
#
# Poissons Ratio (x) = 0.35974 0.29201
# Poissons Ratio (y) = 0.19204 0.24941
# Poissons Ratio (z) = 0.15325 0.24520
#
# Static dielectric constant tensor:
#      x y z
#    x 4.130400 0.000000 0.000000 
#    y 0.000000 4.394340 0.000000 
#    z 0.000000 0.000000 4.272180 
# 
# 
# High freq. dielectric constant tensor:
#      x y z
#    x 1.912660 0.000000 0.000000 
#    y 0.000000 1.924210 0.000000 
#    z 0.000000 0.000000 1.913900 
# 
# From -- ./inp_files/2904.got.cif
#   From: 2010.03.12/outbox.cif.g09.slc.cpg/sg41_2_cif.got.tgz:2904.got - 2010.04.14 01:55:53.
