data_PCOD8185937
_publ_section_title
;
Structure prediction by ZEFSAII (Michael W. Deem and Ramdas Pophale) SiO2 
 PCOD8185937
Probable space group: F M M 2
;
_chemical_formula_sum "Si O2"
_cell_formula_units_Z 128
_cell_length_a 25.037780
_cell_length_b 25.165412
_cell_length_c 10.291008
_cell_angle_alpha 90.000000
_cell_angle_beta 90.000000
_cell_angle_gamma 90.000000
_cell_volume 6484.220574
_symmetry_space_group_name_H-M "F M M 2"
_symmetry_group_IT_number 42
_symmetry_cell_setting 'orthorhombic'
loop_
_space_group_symop_operation_xyz
x,y,z
-x,-y,z
-x,y,z
x,-y,z
x,1/2+y,1/2+z
-x,1/2-y,1/2+z
-x,1/2+y,1/2+z
x,1/2-y,1/2+z
1/2+x,y,1/2+z
1/2-x,-y,1/2+z
1/2-x,y,1/2+z
1/2+x,-y,1/2+z
1/2+x,1/2+y,z
1/2-x,1/2-y,z
1/2-x,1/2+y,z
1/2+x,1/2-y,z
loop_
_atom_site_type_symbol
_atom_site_label
_atom_site_fract_x
_atom_site_fract_y
_atom_site_fract_z
Si Si1 0.334556 0.407540 0.669630
Si Si2 0.897928 0.256492 0.057798
Si Si3 0.857230 0.558437 0.460644
Si Si4 0.829935 0.253638 0.809873
Si Si5 0.939381 0.852351 0.969847
Si Si6 0.058457 0.353637 0.168073
Si Si7 0.743968 0.338430 0.799491
Si Si8 0.758059 0.058383 0.466069
O O1 0.341714 0.434386 0.809417
O O2 0.393283 0.390809 0.617831
O O3 0.291725 0.358710 0.677857
O O4 0.307009 0.446589 0.567028
O O5 0.859261 0.264265 0.179848
O O6 0.943813 0.300334 0.081638
O O7 0.869108 0.271827 0.923839
O O8 0.924600 0.198748 0.054719
O O9 0.882115 0.500000 0.480976
O O10 0.900579 0.599887 0.512690
O O11 0.800506 0.564819 0.535968
O O12 0.795040 0.303782 0.760682
O O13 0.796191 0.203766 0.870688
O O14 0.930651 0.838794 0.818721
O O15 0.000000 0.869532 0.999460
O O16 0.000000 0.381678 0.154698
O O17 0.765368 0.389815 0.876668
O O18 0.757941 0.000000 0.393887
#
# Coordination Sequence:
#
# PCOD8185937 Si02
#       8
#    16  16  16  16  16  16  16  16
#     4  10  18  34  54  82 114 150 188 244 293 352
#     4  12  20  39  54  86 113 158 186 243 284 356
#     4   9  19  35  54  81 112 148 195 242 294 350
#     4  11  24  34  60  85 122 151 196 232 304 345
#     4  10  21  36  57  83 115 151 195 247 294 348
#     4  10  20  36  56  81 114 154 195 242 294 345
#     4  10  22  35  52  85 116 156 187 244 282 366
#     4  10  20  34  56  81 114 153 193 238 292 347
#
# _framework density 19.740228999999999
#
# number of rings (size 3 to 8) (size 9 to 14) (size 15 to 20)
#    0.000    1.750    2.500    3.000    3.500    1.750 
#    0.000    0.000    0.000    1.125    0.000    0.000 
#    0.000    0.000    0.000    0.000    0.000    0.000 
#
# Total GULP energy -396425.251881 kJ/mol
# GULP energy per Si atom -12388.289121 kJ/mol
# Density = 1.969530 g / cm^3
# Si number density = 19.740229 Si / 1000 Ang^3
#
#
#
# Elastic Constant Matrix: (Units=GPa)
#
#
# Indices 1 2 3 4 5 6 
#
# 1 125.9698 46.2114 25.4076 0.0006 -0.0003 -0.0001
# 2 46.2114 105.7957 8.8076 0.0008 -0.0004 -0.0003
# 3 25.4076 8.8076 41.7563 0.0019 -0.0007 -0.0004
# 4 0.0006 0.0008 0.0019 21.6598 -0.0005 -0.0003
# 5 -0.0003 -0.0004 -0.0007 -0.0005 21.4802 0.0001
# 6 -0.0001 -0.0003 -0.0004 -0.0003 0.0001 21.4024
#
#
#
# Elastic Compliance Matrix: (Units=1/GPa)
#
#
# Indices 1 2 3 4 5 6 
#
# 1 0.010587 -0.004161 -0.005564 0.000000 0.000000 0.000000
# 2 -0.004161 0.011257 0.000158 0.000000 0.000000 0.000000
# 3 -0.005564 0.000158 0.027301 -0.000002 0.000001 0.000000
# 4 0.000000 0.000000 -0.000002 0.046169 0.000001 0.000001
# 5 0.000000 0.000000 0.000001 0.000001 0.046555 0.000000
# 6 0.000000 0.000000 0.000000 0.000001 0.000000 0.046724
#
#
# Mechanical properties :
#
#
# Convention : Reuss Voigt Hill
#
# Bulk Modulus (GPa) = 33.32326 48.26389 40.79357
# Shear Modulus (GPa) = 22.96416 25.78148 24.37282
#
# Velocity S-wave (km/s) = 3.41444 3.61783 3.51761
# Velocity P-wave (km/s) = 5.69755 6.47721 6.09985
#
# Compressibility (1/GPa) = 0.03000907
#
# Stress axis : x y z
#
# Youngs Moduli (GPa) = 94.45324 88.83602 36.62871
#
# Poissons Ratio (x) = 0.36967 0.20381
# Poissons Ratio (y) = 0.39304 -0.00577
# Poissons Ratio (z) = 0.52557 -0.01401
#
# Static dielectric constant tensor:
#      x y z
#    x 3.767180 0.000000 0.000000 
#    y 0.000000 3.644730 0.000000 
#    z 0.000000 0.000000 3.184170 
# 
# 
# High freq. dielectric constant tensor:
#      x y z
#    x 1.776380 0.000000 0.000000 
#    y 0.000000 1.774610 0.000000 
#    z 0.000000 0.000000 1.720320 
# 
# From -- ./inp_files/10418.got.cif
#   From: 2010.03.12/outbox.cif.g09.slc.cpg/sg42_6_cif.got.tgz:10418.got - 2010.04.14 02:04:31.
