data_PCOD8185894
_publ_section_title
;
Structure prediction by ZEFSAII (Michael W. Deem and Ramdas Pophale) SiO2 
 PCOD8185894
Probable space group: F M M 2
;
_chemical_formula_sum "Si O2"
_cell_formula_units_Z 64
_cell_length_a 18.415547
_cell_length_b 8.660099
_cell_length_c 20.776530
_cell_angle_alpha 90.000000
_cell_angle_beta 90.000000
_cell_angle_gamma 90.000000
_cell_volume 3313.450565
_symmetry_space_group_name_H-M "F M M 2"
_symmetry_group_IT_number 42
_symmetry_cell_setting 'orthorhombic'
loop_
_space_group_symop_operation_xyz
x,y,z
-x,-y,z
-x,y,z
x,-y,z
x,1/2+y,1/2+z
-x,1/2-y,1/2+z
-x,1/2+y,1/2+z
x,1/2-y,1/2+z
1/2+x,y,1/2+z
1/2-x,-y,1/2+z
1/2-x,y,1/2+z
1/2+x,-y,1/2+z
1/2+x,1/2+y,z
1/2-x,1/2-y,z
1/2-x,1/2+y,z
1/2+x,1/2-y,z
loop_
_atom_site_type_symbol
_atom_site_label
_atom_site_fract_x
_atom_site_fract_y
_atom_site_fract_z
Si Si1 0.170804 0.318790 0.511750
Si Si2 0.084679 0.178109 0.138863
Si Si3 0.669509 0.682886 0.382253
Si Si4 0.329219 0.819231 0.252591
O O1 0.178960 0.500000 0.501182
O O2 0.250000 0.250000 0.525565
O O3 0.119221 0.276321 0.570802
O O4 0.132901 0.245509 0.447898
O O5 0.118542 0.285732 0.193210
O O6 0.000000 0.212784 0.134420
O O7 0.100843 0.000000 0.155742
O O8 0.668662 0.500000 0.381844
O O9 0.750000 0.750000 0.382363
O O10 0.633092 0.746008 0.316611
O O11 0.250000 0.750000 0.238474
O O12 0.320412 0.000000 0.262906
#
# Coordination Sequence:
#
# PCOD8185894 Si02
#       4
#    16  16  16  16
#     4  10  19  33  55  81 108 139 176 220 268 320
#     4  10  22  39  56  77 109 146 182 223 270 318
#     4  10  18  31  53  80 109 138 173 221 271 319
#     4  11  21  35  57  83 110 141 180 224 269 320
#
# _framework density 19.315211999999999
#
# number of rings (size 3 to 8) (size 9 to 14) (size 15 to 20)
#    0.000    1.750    0.000    9.000    0.000    4.500 
#    0.000    1.250    0.000    4.500    0.000    0.000 
#    0.000    0.000    0.000    0.000    0.000    0.000 
#
# Total GULP energy -198393.691255 kJ/mol
# GULP energy per Si atom -12399.605703 kJ/mol
# Density = 1.927125 g / cm^3
# Si number density = 19.315212 Si / 1000 Ang^3
#
#
#
# Elastic Constant Matrix: (Units=GPa)
#
#
# Indices 1 2 3 4 5 6 
#
# 1 70.6296 35.9855 57.6302 0.0000 0.0000 0.0000
# 2 35.9855 155.4605 82.8823 0.0000 0.0000 0.0000
# 3 57.6302 82.8823 179.8463 0.0000 0.0000 0.0000
# 4 0.0000 0.0000 0.0000 46.3789 0.0000 0.0000
# 5 0.0000 0.0000 0.0000 0.0000 -4.4700 0.0000
# 6 0.0000 0.0000 0.0000 0.0000 0.0000 19.3883
#
#
#
# Elastic Compliance Matrix: (Units=1/GPa)
#
#
# Indices 1 2 3 4 5 6 
#
# 1 0.019453 -0.001564 -0.005513 0.000000 0.000000 0.000000
# 2 -0.001564 0.008653 -0.003487 0.000000 0.000000 0.000000
# 3 -0.005513 -0.003487 0.008934 0.000000 0.000000 0.000000
# 4 0.000000 0.000000 0.000000 0.021562 0.000000 0.000000
# 5 0.000000 0.000000 0.000000 0.000000 -0.223713 0.000000
# 6 0.000000 0.000000 0.000000 0.000000 0.000000 0.051577
#
#
# Mechanical properties :
#
#
# Convention : Reuss Voigt Hill
#
# Bulk Modulus (GPa) = 62.84011 84.32583 73.58297
# Shear Modulus (GPa) = -57.40430 27.55534 -14.92448
#
# Velocity S-wave (km/s) = -5.45750 3.78115 -2.78273
# Velocity P-wave (km/s) = 2.66603 7.92561 5.27767
#
# Compressibility (1/GPa) = 0.01591340
#
# Stress axis : x y z
#
# Youngs Moduli (GPa) = 51.40473 115.56055 111.93420
#
# Poissons Ratio (x) = 0.18071 0.61709
# Poissons Ratio (y) = 0.08039 0.39030
# Poissons Ratio (z) = 0.28340 0.40294
#
# Static dielectric constant tensor:
#      x y z
#    x 3.131190 0.000000 0.000000 
#    y 0.000000 3.564310 0.000000 
#    z 0.000000 0.000000 4.379580 
# 
# 
# High freq. dielectric constant tensor:
#      x y z
#    x 1.705120 0.000000 0.000000 
#    y 0.000000 1.765500 0.000000 
#    z 0.000000 0.000000 1.780620 
# 
# From -- ./inp_files/29181.got.cif
#   From: 2010.03.12/outbox.cif.g09.slc.cpg/sg42_15_cif.got.tgz:29181.got - 2010.04.14 02:04:31.
