data_PCOD8185642
_publ_section_title
;
Structure prediction by ZEFSAII (Michael W. Deem and Ramdas Pophale) SiO2 
 PCOD8185642
Probable space group: A B A 2
;
_chemical_formula_sum "Si O2"
_cell_formula_units_Z 40
_cell_length_a 9.804953
_cell_length_b 13.942799
_cell_length_c 12.896462
_cell_angle_alpha 90.000000
_cell_angle_beta 90.000000
_cell_angle_gamma 90.000000
_cell_volume 1763.055832
_symmetry_space_group_name_H-M "A B A 2"
_symmetry_group_IT_number 41
_symmetry_cell_setting 'orthorhombic'
loop_
_space_group_symop_operation_xyz
x,y,z
-x,-y,z
1/2-x,y,1/2+z
1/2+x,-y,1/2+z
x,1/2+y,1/2+z
-x,1/2-y,1/2+z
1/2-x,1/2+y,z
1/2+x,1/2-y,z
loop_
_atom_site_type_symbol
_atom_site_label
_atom_site_fract_x
_atom_site_fract_y
_atom_site_fract_z
Si Si1 0.157466 0.512903 0.891050
Si Si2 0.081602 0.591402 0.086024
Si Si3 0.067258 0.728955 0.512673
Si Si4 0.694580 0.186706 0.387907
Si Si5 0.690761 0.833922 0.716186
O O1 0.242703 0.417749 0.869647
O O2 0.155590 0.578109 0.789991
O O3 0.000000 0.500000 0.920180
O O4 0.200947 0.562600 0.000488
O O5 0.154659 0.648847 0.178660
O O6 0.000000 0.500000 0.132715
O O7 0.972718 0.661612 0.033619
O O8 0.209886 0.739281 0.451171
O O9 0.087456 0.669567 0.618843
O O10 0.951547 0.676032 0.444470
O O11 0.676770 0.232395 0.274295
#
# Coordination Sequence:
#
# PCOD8185642 Si02
#       5
#     8   8   8   8   8
#     4  11  24  46  68 102 146 188 241 307 364 428
#     4  11  24  45  70 100 150 190 239 304 363 426
#     4  12  25  47  72 105 147 193 243 305 367 429
#     4  12  26  47  77 103 151 196 240 307 368 430
#     4  12  27  43  75 112 141 193 252 295 365 447
#
# _framework density 22.687881000000001
#
# number of rings (size 3 to 8) (size 9 to 14) (size 15 to 20)
#    0.000    0.400    8.000    0.000    8.400    1.600 
#    0.000    2.000    0.000    0.000    0.000    0.000 
#    0.000    0.000    0.000    0.000    0.000    0.000 
#
# Total GULP energy -247963.522694 kJ/mol
# GULP energy per Si atom -12398.176135 kJ/mol
# Density = 2.263624 g / cm^3
# Si number density = 22.687881 Si / 1000 Ang^3
#
#
#
# Elastic Constant Matrix: (Units=GPa)
#
#
# Indices 1 2 3 4 5 6 
#
# 1 70.5329 11.5574 43.1777 0.0000 0.0000 0.0000
# 2 11.5574 106.0504 38.5602 0.0000 0.0000 0.0000
# 3 43.1777 38.5602 133.5126 0.0000 0.0000 0.0000
# 4 0.0000 0.0000 0.0000 37.4603 0.0000 0.0000
# 5 0.0000 0.0000 0.0000 0.0000 32.9604 0.0000
# 6 0.0000 0.0000 0.0000 0.0000 0.0000 26.7180
#
#
#
# Elastic Compliance Matrix: (Units=1/GPa)
#
#
# Indices 1 2 3 4 5 6 
#
# 1 0.017680 0.000170 -0.005767 0.000000 0.000000 0.000000
# 2 0.000170 0.010538 -0.003098 0.000000 0.000000 0.000000
# 3 -0.005767 -0.003098 0.010250 0.000000 0.000000 0.000000
# 4 0.000000 0.000000 0.000000 0.026695 0.000000 0.000000
# 5 0.000000 0.000000 0.000000 0.000000 0.030339 0.000000
# 6 0.000000 0.000000 0.000000 0.000000 0.000000 0.037428
#
#
# Mechanical properties :
#
#
# Convention : Reuss Voigt Hill
#
# Bulk Modulus (GPa) = 47.44478 55.18740 51.31609
# Shear Modulus (GPa) = 31.77712 33.88110 32.82911
#
# Velocity S-wave (km/s) = 3.74655 3.86859 3.80806
# Velocity P-wave (km/s) = 6.29864 6.65823 6.48093
#
# Compressibility (1/GPa) = 0.02107714
#
# Stress axis : x y z
#
# Youngs Moduli (GPa) = 56.56049 94.89899 97.56320
#
# Poissons Ratio (x) = -0.01614 0.56263
# Poissons Ratio (y) = -0.00962 0.30229
# Poissons Ratio (z) = 0.32618 0.29403
#
# Static dielectric constant tensor:
#      x y z
#    x 3.981910 0.000000 0.000000 
#    y 0.000000 4.026530 0.000000 
#    z 0.000000 0.000000 4.377660 
# 
# 
# High freq. dielectric constant tensor:
#      x y z
#    x 1.885110 0.000000 0.000000 
#    y 0.000000 1.900870 0.000000 
#    z 0.000000 0.000000 1.908180 
# 
# From -- ./inp_files/4848.got.cif
#   From: 2010.03.12/outbox.cif.g09.slc.cpg/sg41_3_cif.got.tgz:4848.got - 2010.04.14 01:55:53.
