data_PCOD8185582
_publ_section_title
;
Structure prediction by ZEFSAII (Michael W. Deem and Ramdas Pophale) SiO2 
 PCOD8185582
Probable space group: A B A 2
;
_chemical_formula_sum "Si O2"
_cell_formula_units_Z 40
_cell_length_a 23.972041
_cell_length_b 4.969417
_cell_length_c 13.183446
_cell_angle_alpha 90.000000
_cell_angle_beta 90.000000
_cell_angle_gamma 90.000000
_cell_volume 1570.505269
_symmetry_space_group_name_H-M "A B A 2"
_symmetry_group_IT_number 41
_symmetry_cell_setting 'orthorhombic'
loop_
_space_group_symop_operation_xyz
x,y,z
-x,-y,z
1/2-x,y,1/2+z
1/2+x,-y,1/2+z
x,1/2+y,1/2+z
-x,1/2-y,1/2+z
1/2-x,1/2+y,z
1/2+x,1/2-y,z
loop_
_atom_site_type_symbol
_atom_site_label
_atom_site_fract_x
_atom_site_fract_y
_atom_site_fract_z
Si Si1 0.376825 0.506733 0.195020
Si Si2 0.000000 0.000000 0.117727
Si Si3 0.603824 0.259691 0.400141
Si Si4 0.000000 0.000000 0.482371
Si Si5 0.285492 0.673081 0.791770
Si Si6 0.347532 0.235672 0.486737
O O1 0.442262 0.425721 0.177110
O O2 0.372420 0.722286 0.286767
O O3 0.343041 0.241625 0.231910
O O4 0.342660 0.643627 0.102822
O O5 0.020600 0.258531 0.054340
O O6 0.542731 0.379274 0.402437
O O7 0.638631 0.447418 0.479595
O O8 0.603507 0.953507 0.438192
O O9 0.263073 0.381828 0.760820
O O10 0.294159 0.676959 0.914922
#
# Coordination Sequence:
#
# PCOD8185582 Si02
#       6
#     8   4   8   4   8   8
#     4  11  25  46  75 107 145 194 240 298 373 444
#     4  12  25  42  71 110 148 192 237 290 375 456
#     4  11  23  41  66 100 143 184 235 289 351 434
#     4  12  21  42  65 100 150 192 229 290 355 434
#     4  11  26  47  72 107 143 191 255 308 364 432
#     4  11  24  44  70  99 140 184 238 303 360 420
#
# _framework density 25.469511000000001
#
# number of rings (size 3 to 8) (size 9 to 14) (size 15 to 20)
#    0.000    0.800    4.000    3.000    0.000   11.200 
#    0.000    2.000    0.000    0.000    0.000    0.000 
#    0.000    0.000    0.000    0.000    0.000    0.000 
#
# Total GULP energy -247798.667960 kJ/mol
# GULP energy per Si atom -12389.933398 kJ/mol
# Density = 2.541154 g / cm^3
# Si number density = 25.469511 Si / 1000 Ang^3
#
#
#
# Elastic Constant Matrix: (Units=GPa)
#
#
# Indices 1 2 3 4 5 6 
#
# 1 110.2075 31.5812 30.0979 0.0000 0.0000 0.0000
# 2 31.5812 84.7459 26.2898 0.0000 0.0000 0.0000
# 3 30.0979 26.2898 156.3094 0.0000 0.0000 0.0000
# 4 0.0000 0.0000 0.0000 18.5214 0.0000 0.0000
# 5 0.0000 0.0000 0.0000 0.0000 40.4394 0.0000
# 6 0.0000 0.0000 0.0000 0.0000 0.0000 38.8754
#
#
#
# Elastic Compliance Matrix: (Units=1/GPa)
#
#
# Indices 1 2 3 4 5 6 
#
# 1 0.010454 -0.003451 -0.001432 0.000000 0.000000 0.000000
# 2 -0.003451 0.013589 -0.001621 0.000000 0.000000 0.000000
# 3 -0.001432 -0.001621 0.006946 0.000000 0.000000 0.000000
# 4 0.000000 0.000000 0.000000 0.053992 0.000000 0.000000
# 5 0.000000 0.000000 0.000000 0.000000 0.024728 0.000000
# 6 0.000000 0.000000 0.000000 0.000000 0.000000 0.025723
#
#
# Mechanical properties :
#
#
# Convention : Reuss Voigt Hill
#
# Bulk Modulus (GPa) = 55.61913 58.57784 57.09848
# Shear Modulus (GPa) = 32.37604 37.12015 34.74809
#
# Velocity S-wave (km/s) = 3.56921 3.82178 3.69765
# Velocity P-wave (km/s) = 6.23463 6.52103 6.37944
#
# Compressibility (1/GPa) = 0.01797942
#
# Stress axis : x y z
#
# Youngs Moduli (GPa) = 95.65683 73.58876 143.96714
#
# Poissons Ratio (x) = 0.25398 0.20623
# Poissons Ratio (y) = 0.33015 0.23337
# Poissons Ratio (z) = 0.13703 0.11929
#
# Static dielectric constant tensor:
#      x y z
#    x 4.555690 0.000000 0.000000 
#    y 0.000000 4.565790 0.000000 
#    z 0.000000 0.000000 4.609400 
# 
# 
# High freq. dielectric constant tensor:
#      x y z
#    x 2.013440 0.000000 0.000000 
#    y 0.000000 2.023450 0.000000 
#    z 0.000000 0.000000 2.009470 
# 
# From -- ./inp_files/6516.got.cif
#   From: 2010.03.12/outbox.cif.g09.slc.cpg/sg41_4_cif.got.tgz:6516.got - 2010.04.14 01:55:53.
