data_PCOD8185785
_publ_section_title
;
Structure prediction by ZEFSAII (Michael W. Deem and Ramdas Pophale) SiO2 
 PCOD8185785
Probable space group: F M M 2
;
_chemical_formula_sum "Si O2"
_cell_formula_units_Z 96
_cell_length_a 18.016137
_cell_length_b 15.146454
_cell_length_c 23.640722
_cell_angle_alpha 90.000000
_cell_angle_beta 90.000000
_cell_angle_gamma 90.000000
_cell_volume 6451.094175
_symmetry_space_group_name_H-M "F M M 2"
_symmetry_group_IT_number 42
_symmetry_cell_setting 'orthorhombic'
loop_
_space_group_symop_operation_xyz
x,y,z
-x,-y,z
-x,y,z
x,-y,z
x,1/2+y,1/2+z
-x,1/2-y,1/2+z
-x,1/2+y,1/2+z
x,1/2-y,1/2+z
1/2+x,y,1/2+z
1/2-x,-y,1/2+z
1/2-x,y,1/2+z
1/2+x,-y,1/2+z
1/2+x,1/2+y,z
1/2-x,1/2-y,z
1/2-x,1/2+y,z
1/2+x,1/2-y,z
loop_
_atom_site_type_symbol
_atom_site_label
_atom_site_fract_x
_atom_site_fract_y
_atom_site_fract_z
Si Si1 0.414138 0.750431 0.864880
Si Si2 0.655196 0.397425 0.294821
Si Si3 0.585966 0.396856 0.056382
Si Si4 0.918244 0.895870 0.181803
Si Si5 0.310405 0.100941 0.350018
Si Si6 0.319890 0.193977 0.460912
O O1 0.500000 0.729248 0.870280
O O2 0.401221 0.842363 0.833277
O O3 0.375853 0.668024 0.830971
O O4 0.378212 0.756858 0.927529
O O5 0.636094 0.500000 0.304653
O O6 0.641896 0.369321 0.229393
O O7 0.739522 0.376189 0.311400
O O8 0.500000 0.377482 0.041507
O O9 0.602629 0.500000 0.050318
O O10 0.604791 0.361169 0.119602
O O11 0.640317 0.346413 0.014732
O O12 0.000000 0.858453 0.198502
O O13 0.924602 0.000000 0.176591
O O14 0.291877 0.118438 0.416500
O O15 0.335902 0.000000 0.341499
O O16 0.250000 0.250000 0.482598
#
# Coordination Sequence:
#
# PCOD8185785 Si02
#       6
#    16  16  16  16  16  16
#     4  10  19  30  44  67  94 121 157 197 231 276
#     4  10  17  30  49  67  93 129 156 187 233 281
#     4   9  17  30  49  72  93 117 154 200 242 276
#     4   8  15  27  45  70  95 119 155 197 235 276
#     4   9  18  31  46  65  90 125 157 191 235 277
#     4  10  18  31  43  63  96 123 154 181 226 287
#
# _framework density 14.881195999999999
#
# number of rings (size 3 to 8) (size 9 to 14) (size 15 to 20)
#    1.000    1.667    1.667    3.000    0.000    1.333 
#    0.000    1.667    0.000    0.000    0.000    0.000 
#    0.000    0.000    0.000    7.000    0.000    0.000 
#
# Total GULP energy -297362.759046 kJ/mol
# GULP energy per Si atom -12390.114960 kJ/mol
# Density = 1.484733 g / cm^3
# Si number density = 14.881196 Si / 1000 Ang^3
#
#
#
# Elastic Constant Matrix: (Units=GPa)
#
#
# Indices 1 2 3 4 5 6 
#
# 1 114.9243 45.0490 65.9954 0.0000 0.0000 0.0000
# 2 45.0490 57.1030 35.5013 0.0000 0.0000 0.0000
# 3 65.9954 35.5013 114.7441 0.0000 0.0000 0.0000
# 4 0.0000 0.0000 0.0000 15.9400 0.0000 0.0000
# 5 0.0000 0.0000 0.0000 0.0000 27.4169 0.0000
# 6 0.0000 0.0000 0.0000 0.0000 0.0000 22.1394
#
#
#
# Elastic Compliance Matrix: (Units=1/GPa)
#
#
# Indices 1 2 3 4 5 6 
#
# 1 0.015671 -0.008369 -0.006424 0.000000 0.000000 0.000000
# 2 -0.008369 0.026153 -0.003278 0.000000 0.000000 0.000000
# 3 -0.006424 -0.003278 0.013424 0.000000 0.000000 0.000000
# 4 0.000000 0.000000 0.000000 0.062735 0.000000 0.000000
# 5 0.000000 0.000000 0.000000 0.000000 0.036474 0.000000
# 6 0.000000 0.000000 0.000000 0.000000 0.000000 0.045168
#
#
# Mechanical properties :
#
#
# Convention : Reuss Voigt Hill
#
# Bulk Modulus (GPa) = 52.34062 64.42918 58.38490
# Shear Modulus (GPa) = 20.64964 22.44764 21.54864
#
# Velocity S-wave (km/s) = 3.72914 3.88810 3.80945
# Velocity P-wave (km/s) = 7.33421 7.97158 7.65953
#
# Compressibility (1/GPa) = 0.01910562
#
# Stress axis : x y z
#
# Youngs Moduli (GPa) = 63.81281 38.23701 74.49423
#
# Poissons Ratio (x) = 0.32001 0.47853
# Poissons Ratio (y) = 0.53406 0.24419
# Poissons Ratio (z) = 0.40992 0.12534
#
# Static dielectric constant tensor:
#      x y z
#    x 2.804750 0.000000 0.000000 
#    y 0.000000 2.685240 0.000000 
#    z 0.000000 0.000000 2.923570 
# 
# 
# High freq. dielectric constant tensor:
#      x y z
#    x 1.564670 0.000000 0.000000 
#    y 0.000000 1.548280 0.000000 
#    z 0.000000 0.000000 1.560910 
# 
# From -- ./inp_files/26476.got.cif
#   From: 2010.03.12/outbox.cif.g09.slc.cpg/sg42_14_cif.got.tgz:26476.got - 2010.04.14 02:04:31.
