data_PCOD8185717
_publ_section_title
;
Structure prediction by ZEFSAII (Michael W. Deem and Ramdas Pophale) SiO2 
 PCOD8185717
Probable space group: A B A 2
;
_chemical_formula_sum "Si O2"
_cell_formula_units_Z 48
_cell_length_a 17.459827
_cell_length_b 14.568334
_cell_length_c 8.315041
_cell_angle_alpha 90.000000
_cell_angle_beta 90.000000
_cell_angle_gamma 90.000000
_cell_volume 2115.018746
_symmetry_space_group_name_H-M "A B A 2"
_symmetry_group_IT_number 41
_symmetry_cell_setting 'orthorhombic'
loop_
_space_group_symop_operation_xyz
x,y,z
-x,-y,z
1/2-x,y,1/2+z
1/2+x,-y,1/2+z
x,1/2+y,1/2+z
-x,1/2-y,1/2+z
1/2-x,1/2+y,z
1/2+x,1/2-y,z
loop_
_atom_site_type_symbol
_atom_site_label
_atom_site_fract_x
_atom_site_fract_y
_atom_site_fract_z
Si Si1 0.707421 0.989885 0.948860
Si Si2 0.328655 0.828624 0.129001
Si Si3 0.322702 0.200211 0.123338
Si Si4 0.420887 0.833874 0.446419
Si Si5 0.407977 0.182266 0.438477
Si Si6 0.861398 0.993973 0.093454
O O1 0.676662 0.001661 0.768749
O O2 0.691982 0.888052 0.014424
O O3 0.798128 0.004480 0.953228
O O4 0.672768 0.068767 0.061059
O O5 0.248614 0.771667 0.125104
O O6 0.356248 0.836556 0.310644
O O7 0.392649 0.778728 0.022904
O O8 0.344011 0.165914 0.301580
O O9 0.399006 0.249749 0.061245
O O10 0.505191 0.819166 0.371917
O O11 0.421477 0.925207 0.557731
O O12 0.401175 0.104422 0.575852
#
# Coordination Sequence:
#
# PCOD8185717 Si02
#       6
#     8   8   8   8   8   8
#     4  12  26  45  74 108 138 182 246 298 345 421
#     4  12  25  45  75 105 140 191 236 295 349 420
#     4  12  25  45  75 105 140 191 236 295 349 420
#     4  12  26  46  71 107 147 187 234 291 357 421
#     4  12  26  46  71 107 147 187 234 291 357 421
#     4  12  25  45  72 104 143 186 234 296 356 411
#
# _framework density 22.694832999999999
#
# number of rings (size 3 to 8) (size 9 to 14) (size 15 to 20)
#    0.000    0.000    3.333    7.500    0.000    0.000 
#    0.000    7.500    0.000    0.000    0.000    0.000 
#    0.000    0.000    0.000    0.000    0.000    0.000 
#
# Total GULP energy -297587.068750 kJ/mol
# GULP energy per Si atom -12399.461198 kJ/mol
# Density = 2.264318 g / cm^3
# Si number density = 22.694833 Si / 1000 Ang^3
#
#
#
# Elastic Constant Matrix: (Units=GPa)
#
#
# Indices 1 2 3 4 5 6 
#
# 1 97.0810 13.5632 27.8110 0.0000 0.0000 0.0000
# 2 13.5632 89.2191 19.2843 0.0000 0.0000 0.0000
# 3 27.8110 19.2843 105.3090 0.0000 0.0000 0.0000
# 4 0.0000 0.0000 0.0000 40.3762 0.0000 0.0000
# 5 0.0000 0.0000 0.0000 0.0000 31.8974 0.0000
# 6 0.0000 0.0000 0.0000 0.0000 0.0000 -2.6915
#
#
#
# Elastic Compliance Matrix: (Units=1/GPa)
#
#
# Indices 1 2 3 4 5 6 
#
# 1 0.011249 -0.001112 -0.002767 0.000000 0.000000 0.000000
# 2 -0.001112 0.011780 -0.001864 0.000000 0.000000 0.000000
# 3 -0.002767 -0.001864 0.010568 0.000000 0.000000 0.000000
# 4 0.000000 0.000000 0.000000 0.024767 0.000000 0.000000
# 5 0.000000 0.000000 0.000000 0.000000 0.031351 0.000000
# 6 0.000000 0.000000 0.000000 0.000000 0.000000 -0.371538
#
#
# Mechanical properties :
#
#
# Convention : Reuss Voigt Hill
#
# Bulk Modulus (GPa) = 45.22500 45.88071 45.55285
# Shear Modulus (GPa) = -19.01370 29.31311 5.14970
#
# Velocity S-wave (km/s) = -2.89762 3.59781 1.50799
# Velocity P-wave (km/s) = 2.96240 6.12530 4.81119
#
# Compressibility (1/GPa) = 0.02211167
#
# Stress axis : x y z
#
# Youngs Moduli (GPa) = 88.89911 84.88822 94.62644
#
# Poissons Ratio (x) = 0.09439 0.26184
# Poissons Ratio (y) = 0.09885 0.17634
# Poissons Ratio (z) = 0.24599 0.15819
#
# Static dielectric constant tensor:
#      x y z
#    x 3.954990 0.000000 0.000000 
#    y 0.000000 4.372170 0.000000 
#    z 0.000000 0.000000 4.048910 
# 
# 
# High freq. dielectric constant tensor:
#      x y z
#    x 1.887330 0.000000 0.000000 
#    y 0.000000 1.918460 0.000000 
#    z 0.000000 0.000000 1.899550 
# 
# From -- ./inp_files/2546.got.cif
#   From: 2010.03.12/outbox.cif.g09.slc.cpg/sg41_2_cif.got.tgz:2546.got - 2010.04.14 01:55:53.
