data_PCOD8185453
_publ_section_title
;
Structure prediction by ZEFSAII (Michael W. Deem and Ramdas Pophale) SiO2 
 PCOD8185453
Probable space group: A B A 2
;
_chemical_formula_sum "Si O2"
_cell_formula_units_Z 44
_cell_length_a 18.312214
_cell_length_b 7.247111
_cell_length_c 12.815662
_cell_angle_alpha 90.000000
_cell_angle_beta 90.000000
_cell_angle_gamma 90.000000
_cell_volume 1700.774802
_symmetry_space_group_name_H-M "A B A 2"
_symmetry_group_IT_number 41
_symmetry_cell_setting 'orthorhombic'
loop_
_space_group_symop_operation_xyz
x,y,z
-x,-y,z
1/2-x,y,1/2+z
1/2+x,-y,1/2+z
x,1/2+y,1/2+z
-x,1/2-y,1/2+z
1/2-x,1/2+y,z
1/2+x,1/2-y,z
loop_
_atom_site_type_symbol
_atom_site_label
_atom_site_fract_x
_atom_site_fract_y
_atom_site_fract_z
Si Si1 0.967051 0.266742 0.387460
Si Si2 0.000000 0.500000 0.575842
Si Si3 0.108236 0.393111 0.306297
Si Si4 0.344924 0.426256 0.165209
Si Si5 0.191530 0.023811 0.610975
Si Si6 0.357169 0.522311 0.389772
O O1 0.898080 0.405368 0.360468
O O2 0.940740 0.055204 0.391153
O O3 0.001493 0.320891 0.499777
O O4 0.026373 0.303911 0.294909
O O5 0.074086 0.508382 0.645202
O O6 0.152452 0.392419 0.197059
O O7 0.148156 0.245157 0.382690
O O8 0.345541 0.221007 0.122171
O O9 0.279058 0.543919 0.115932
O O10 0.322776 0.428888 0.287366
O O11 0.178899 0.946028 0.494954
#
# Coordination Sequence:
#
# PCOD8185453 Si02
#       6
#     8   4   8   8   8   8
#     4  10  23  46  77 114 162 206 258 325 388 472
#     4  10  26  48  80 114 158 214 264 332 398 472
#     4  10  23  48  71 112 158 198 258 320 382 466
#     4  12  29  51  78 116 160 205 271 328 401 479
#     4  12  28  52  78 114 157 211 263 334 402 474
#     4  12  27  46  79 115 152 205 263 318 398 467
#
# _framework density 25.870562
#
# number of rings (size 3 to 8) (size 9 to 14) (size 15 to 20)
#    0.000    1.091    1.818    3.818    7.636    5.818 
#    6.545    0.000    0.000    0.000    0.000    0.000 
#    0.000    0.000    0.000    0.000    0.000    0.000 
#
# Total GULP energy -272550.922087 kJ/mol
# GULP energy per Si atom -12388.678277 kJ/mol
# Density = 2.581168 g / cm^3
# Si number density = 25.870562 Si / 1000 Ang^3
#
#
#
# Elastic Constant Matrix: (Units=GPa)
#
#
# Indices 1 2 3 4 5 6 
#
# 1 165.3668 29.9055 76.8864 0.0000 0.0000 0.0000
# 2 29.9055 39.0957 24.9563 0.0000 0.0000 0.0000
# 3 76.8864 24.9563 181.0791 0.0000 0.0000 0.0000
# 4 0.0000 0.0000 0.0000 31.9292 0.0000 0.0000
# 5 0.0000 0.0000 0.0000 0.0000 30.9880 0.0000
# 6 0.0000 0.0000 0.0000 0.0000 0.0000 30.6627
#
#
#
# Elastic Compliance Matrix: (Units=1/GPa)
#
#
# Indices 1 2 3 4 5 6 
#
# 1 0.008179 -0.004429 -0.002862 0.000000 0.000000 0.000000
# 2 -0.004429 0.030444 -0.002315 0.000000 0.000000 0.000000
# 3 -0.002862 -0.002315 0.007057 0.000000 0.000000 0.000000
# 4 0.000000 0.000000 0.000000 0.031319 0.000000 0.000000
# 5 0.000000 0.000000 0.000000 0.000000 0.032271 0.000000
# 6 0.000000 0.000000 0.000000 0.000000 0.000000 0.032613
#
#
# Mechanical properties :
#
#
# Convention : Reuss Voigt Hill
#
# Bulk Modulus (GPa) = 37.78357 72.11533 54.94945
# Shear Modulus (GPa) = 29.42587 35.63553 32.53070
#
# Velocity S-wave (km/s) = 3.37623 3.71543 3.54989
# Velocity P-wave (km/s) = 5.46216 6.80749 6.17159
#
# Compressibility (1/GPa) = 0.02646653
#
# Stress axis : x y z
#
# Youngs Moduli (GPa) = 122.26427 32.84707 141.70539
#
# Poissons Ratio (x) = 0.14549 0.40562
# Poissons Ratio (y) = 0.54153 0.32807
# Poissons Ratio (z) = 0.34997 0.07605
#
# Static dielectric constant tensor:
#      x y z
#    x 4.546290 0.000000 0.000000 
#    y 0.000000 4.636290 0.000000 
#    z 0.000000 0.000000 4.559930 
# 
# 
# High freq. dielectric constant tensor:
#      x y z
#    x 2.026950 0.000000 0.000000 
#    y 0.000000 2.039580 0.000000 
#    z 0.000000 0.000000 2.028670 
# 
# From -- ./inp_files/8687.got.cif
#   From: 2010.03.12/outbox.cif.g09.slc.cpg/sg41_5_cif.got.tgz:8687.got - 2010.04.14 01:55:53.
