data_PCOD8185839
_publ_section_title
;
Structure prediction by ZEFSAII (Michael W. Deem and Ramdas Pophale) SiO2 
 PCOD8185839
Probable space group: F M M 2
;
_chemical_formula_sum "Si O2"
_cell_formula_units_Z 96
_cell_length_a 9.074480
_cell_length_b 25.577247
_cell_length_c 23.492791
_cell_angle_alpha 90.000000
_cell_angle_beta 90.000000
_cell_angle_gamma 90.000000
_cell_volume 5452.681874
_symmetry_space_group_name_H-M "F M M 2"
_symmetry_group_IT_number 42
_symmetry_cell_setting 'orthorhombic'
loop_
_space_group_symop_operation_xyz
x,y,z
-x,-y,z
-x,y,z
x,-y,z
x,1/2+y,1/2+z
-x,1/2-y,1/2+z
-x,1/2+y,1/2+z
x,1/2-y,1/2+z
1/2+x,y,1/2+z
1/2-x,-y,1/2+z
1/2-x,y,1/2+z
1/2+x,-y,1/2+z
1/2+x,1/2+y,z
1/2-x,1/2-y,z
1/2-x,1/2+y,z
1/2+x,1/2-y,z
loop_
_atom_site_type_symbol
_atom_site_label
_atom_site_fract_x
_atom_site_fract_y
_atom_site_fract_z
Si Si1 0.831882 0.000000 0.251650
Si Si2 0.674745 0.000000 0.134258
Si Si3 0.171529 0.102988 0.323530
Si Si4 0.824903 0.441039 0.942571
Si Si5 0.324554 0.402735 0.563069
Si Si6 0.673408 0.303694 0.760447
Si Si7 0.327054 0.302817 0.629754
O O1 0.797032 0.949307 0.288641
O O2 0.724344 0.000000 0.198766
O O3 0.000000 0.000000 0.230476
O O4 0.737807 0.050746 0.102215
O O5 0.500000 0.000000 0.132948
O O6 0.225368 0.092191 0.387934
O O7 0.267849 0.149910 0.299435
O O8 0.000000 0.118558 0.321009
O O9 0.759614 0.500000 0.940931
O O10 0.000000 0.445476 0.943389
O O11 0.766976 0.410840 0.998707
O O12 0.500000 0.403307 0.564722
O O13 0.265268 0.348473 0.588993
O O14 0.500000 0.297735 0.769410
O O15 0.750000 0.250000 0.779689
O O16 0.713370 0.316549 0.694943
O O17 0.500000 0.295138 0.622651
O O18 0.250000 0.250000 0.609464
#
# Coordination Sequence:
#
# PCOD8185839 Si02
#       7
#     8   8  16  16  16  16  16
#     4  10  20  31  45  71 107 138 165 204 256 308
#     4  10  18  29  49  75  99 124 161 212 260 302
#     4  10  19  32  51  75 103 135 173 211 250 299
#     4   9  15  28  50  75 100 132 171 208 245 292
#     4   9  16  28  49  76 100 123 162 211 252 292
#     4  10  20  35  54  76 103 134 170 210 257 307
#     4   9  18  32  50  73  99 128 162 202 248 299
#
# _framework density 17.606016
#
# number of rings (size 3 to 8) (size 9 to 14) (size 15 to 20)
#    0.000    2.500    1.667    1.500    0.000    2.667 
#    0.000    1.667    0.000    4.000    0.000    0.000 
#    0.000    0.000    0.000    0.000    0.000    0.000 
#
# Total GULP energy -297590.738760 kJ/mol
# GULP energy per Si atom -12399.614115 kJ/mol
# Density = 1.756594 g / cm^3
# Si number density = 17.606016 Si / 1000 Ang^3
#
#
#
# Elastic Constant Matrix: (Units=GPa)
#
#
# Indices 1 2 3 4 5 6 
#
# 1 34.0024 42.4784 31.5431 0.0000 0.0000 0.0000
# 2 42.4784 163.9137 83.5994 0.0000 0.0000 0.0000
# 3 31.5431 83.5994 132.8199 0.0000 0.0000 0.0000
# 4 0.0000 0.0000 0.0000 -47.6272 0.0000 0.0000
# 5 0.0000 0.0000 0.0000 0.0000 17.3259 0.0000
# 6 0.0000 0.0000 0.0000 0.0000 0.0000 26.2847
#
#
#
# Elastic Compliance Matrix: (Units=1/GPa)
#
#
# Indices 1 2 3 4 5 6 
#
# 1 0.045637 -0.009277 -0.004999 0.000000 0.000000 0.000000
# 2 -0.009277 0.010871 -0.004639 0.000000 0.000000 0.000000
# 3 -0.004999 -0.004639 0.011636 0.000000 0.000000 0.000000
# 4 0.000000 0.000000 0.000000 -0.020996 0.000000 0.000000
# 5 0.000000 0.000000 0.000000 0.000000 0.057717 0.000000
# 6 0.000000 0.000000 0.000000 0.000000 0.000000 0.038045
#
#
# Mechanical properties :
#
#
# Convention : Reuss Voigt Hill
#
# Bulk Modulus (GPa) = 32.98876 71.77533 52.38205
# Shear Modulus (GPa) = 26.19922 10.73767 18.46845
#
# Velocity S-wave (km/s) = 3.86175 2.47227 3.24232
# Velocity P-wave (km/s) = 6.21788 7.00039 6.62071
#
# Compressibility (1/GPa) = 0.03031335
#
# Stress axis : x y z
#
# Youngs Moduli (GPa) = 21.91205 91.98687 85.93879
#
# Poissons Ratio (x) = 0.85339 0.42960
# Poissons Ratio (y) = 0.20329 0.39869
# Poissons Ratio (z) = 0.10954 0.42675
#
# Static dielectric constant tensor:
#      x y z
#    x 2.901190 0.000000 0.000000 
#    y 0.000000 3.781060 0.000000 
#    z 0.000000 0.000000 3.428940 
# 
# 
# High freq. dielectric constant tensor:
#      x y z
#    x 1.642830 0.000000 0.000000 
#    y 0.000000 1.687720 0.000000 
#    z 0.000000 0.000000 1.683660 
# 
# From -- ./inp_files/24531.got.cif
#   From: 2010.03.12/outbox.cif.g09.slc.cpg/sg42_13_cif.got.tgz:24531.got - 2010.04.14 02:04:31.
