data_PCOD8185234
_publ_section_title
;
Structure prediction by ZEFSAII (Michael W. Deem and Ramdas Pophale) SiO2 
 PCOD8185234
Probable space group: A B A 2
;
_chemical_formula_sum "Si O2"
_cell_formula_units_Z 64
_cell_length_a 29.834728
_cell_length_b 11.447056
_cell_length_c 8.125156
_cell_angle_alpha 90.000000
_cell_angle_beta 90.000000
_cell_angle_gamma 90.000000
_cell_volume 2774.901670
_symmetry_space_group_name_H-M "A B A 2"
_symmetry_group_IT_number 41
_symmetry_cell_setting 'orthorhombic'
loop_
_space_group_symop_operation_xyz
x,y,z
-x,-y,z
1/2-x,y,1/2+z
1/2+x,-y,1/2+z
x,1/2+y,1/2+z
-x,1/2-y,1/2+z
1/2-x,1/2+y,z
1/2+x,1/2-y,z
loop_
_atom_site_type_symbol
_atom_site_label
_atom_site_fract_x
_atom_site_fract_y
_atom_site_fract_z
Si Si1 0.879497 0.352301 0.602950
Si Si2 0.129402 0.831168 0.894896
Si Si3 0.911383 0.016718 0.645860
Si Si4 0.944544 0.259757 0.132352
Si Si5 0.840551 0.505632 0.854529
Si Si6 0.710124 0.794714 0.003021
Si Si7 0.694513 0.260128 0.865914
Si Si8 0.460573 0.271723 0.495091
O O1 0.875460 0.259422 0.747695
O O2 0.866369 0.477972 0.680848
O O3 0.847415 0.320436 0.451943
O O4 0.930774 0.342962 0.540539
O O5 0.114933 0.956930 0.819486
O O6 0.098560 0.796183 0.048280
O O7 0.181050 0.821017 0.954054
O O8 0.947536 0.117866 0.608352
O O9 0.937491 0.896730 0.664514
O O10 0.875997 0.012678 0.499846
O O11 0.952357 0.194769 0.305051
O O12 0.987564 0.239977 0.017205
O O13 0.814439 0.624789 0.830702
O O14 0.804455 0.405051 0.893326
O O15 0.702502 0.825906 0.194100
O O16 0.762199 0.768107 0.981256
#
# Coordination Sequence:
#
# PCOD8185234 Si02
#       8
#     8   8   8   8   8   8   8   8
#     4  10  21  43  65  98 132 173 221 276 333 407
#     4  10  21  43  67  97 136 173 222 278 331 400
#     4  11  23  43  70  93 136 175 224 270 344 396
#     4  12  24  44  67  99 138 180 221 285 334 396
#     4  11  24  44  72  95 134 180 215 278 347 387
#     4  11  25  44  68 100 135 174 227 277 336 407
#     4  12  25  45  68  98 136 172 228 280 330 407
#     4  11  24  42  69  99 137 176 230 276 335 402
#
# _framework density 23.063882
#
# number of rings (size 3 to 8) (size 9 to 14) (size 15 to 20)
#    0.000    1.000    5.000    4.125    0.000    3.000 
#    0.000    0.000    0.000    0.000    0.000    0.000 
#    0.000    0.000    0.000    0.000    0.000    0.000 
#
# Total GULP energy -396890.776890 kJ/mol
# GULP energy per Si atom -12402.836778 kJ/mol
# Density = 2.301139 g / cm^3
# Si number density = 23.063882 Si / 1000 Ang^3
#
#
#
# Elastic Constant Matrix: (Units=GPa)
#
#
# Indices 1 2 3 4 5 6 
#
# 1 77.8214 14.3934 -11.9903 0.0000 0.0000 0.0000
# 2 14.3934 76.3707 2.4879 0.0000 0.0000 0.0000
# 3 -11.9903 2.4879 93.0137 0.0000 0.0000 0.0000
# 4 0.0000 0.0000 0.0000 30.4733 0.0000 0.0000
# 5 0.0000 0.0000 0.0000 0.0000 45.6607 0.0000
# 6 0.0000 0.0000 0.0000 0.0000 0.0000 22.6353
#
#
#
# Elastic Compliance Matrix: (Units=1/GPa)
#
#
# Indices 1 2 3 4 5 6 
#
# 1 0.013617 -0.002626 0.001826 0.000000 0.000000 0.000000
# 2 -0.002626 0.013612 -0.000703 0.000000 0.000000 0.000000
# 3 0.001826 -0.000703 0.011005 0.000000 0.000000 0.000000
# 4 0.000000 0.000000 0.000000 0.032816 0.000000 0.000000
# 5 0.000000 0.000000 0.000000 0.000000 0.021901 0.000000
# 6 0.000000 0.000000 0.000000 0.000000 0.000000 0.044179
#
#
# Mechanical properties :
#
#
# Convention : Reuss Voigt Hill
#
# Bulk Modulus (GPa) = 28.38629 28.55419 28.47024
# Shear Modulus (GPa) = 32.92130 35.90819 34.41474
#
# Velocity S-wave (km/s) = 3.78219 3.95004 3.86702
# Velocity P-wave (km/s) = 5.60425 5.76291 5.68413
#
# Compressibility (1/GPa) = 0.03522827
#
# Stress axis : x y z
#
# Youngs Moduli (GPa) = 73.43838 73.46573 90.86584
#
# Poissons Ratio (x) = 0.19291 -0.16588
# Poissons Ratio (y) = 0.19283 0.06384
# Poissons Ratio (z) = -0.13407 0.05162
#
# Static dielectric constant tensor:
#      x y z
#    x 4.306760 0.000000 0.000000 
#    y 0.000000 4.506970 0.000000 
#    z 0.000000 0.000000 4.550530 
# 
# 
# High freq. dielectric constant tensor:
#      x y z
#    x 1.913000 0.000000 0.000000 
#    y 0.000000 1.895300 0.000000 
#    z 0.000000 0.000000 1.933560 
# 
# From -- ./inp_files/3985.got.cif
#   From: 2010.03.12/outbox.cif.g09.slc.cpg/sg41_2_cif.got.tgz:3985.got - 2010.04.14 01:55:53.
