data_PCOD8185321
_publ_section_title
;
Structure prediction by ZEFSAII (Michael W. Deem and Ramdas Pophale) SiO2 
 PCOD8185321
Probable space group: A B A 2
;
_chemical_formula_sum "Si O2"
_cell_formula_units_Z 52
_cell_length_a 19.821793
_cell_length_b 15.448741
_cell_length_c 8.623309
_cell_angle_alpha 90.000000
_cell_angle_beta 90.000000
_cell_angle_gamma 90.000000
_cell_volume 2640.644740
_symmetry_space_group_name_H-M "A B A 2"
_symmetry_group_IT_number 41
_symmetry_cell_setting 'orthorhombic'
loop_
_space_group_symop_operation_xyz
x,y,z
-x,-y,z
1/2-x,y,1/2+z
1/2+x,-y,1/2+z
x,1/2+y,1/2+z
-x,1/2-y,1/2+z
1/2-x,1/2+y,z
1/2+x,1/2-y,z
loop_
_atom_site_type_symbol
_atom_site_label
_atom_site_fract_x
_atom_site_fract_y
_atom_site_fract_z
Si Si1 0.412429 0.566555 0.322140
Si Si2 0.000000 0.000000 0.590057
Si Si3 0.467253 0.337812 0.795228
Si Si4 0.519786 0.166097 0.641873
Si Si5 0.769602 0.679544 0.020164
Si Si6 0.335991 0.244238 0.802727
Si Si7 0.160007 0.398874 0.735127
O O1 0.435961 0.531041 0.489023
O O2 0.481510 0.589330 0.231885
O O3 0.367663 0.651692 0.339371
O O4 0.366578 0.497376 0.230804
O O5 0.973854 0.075291 0.699778
O O6 0.497454 0.260541 0.694615
O O7 0.388986 0.321020 0.831993
O O8 0.502153 0.345079 0.962983
O O9 0.599422 0.161878 0.675796
O O10 0.812031 0.745737 0.125603
O O11 0.724426 0.613226 0.122598
O O12 0.725824 0.744156 0.917523
O O13 0.819643 0.624405 0.911492
#
# Coordination Sequence:
#
# PCOD8185321 Si02
#       7
#     8   4   8   8   8   8   8
#     4  11  24  40  66  94 130 161 209 273 322 368
#     4  12  24  38  62 100 128 162 206 264 332 378
#     4  11  24  39  64  95 126 166 208 263 328 376
#     4  11  23  41  66  93 128 163 208 266 326 381
#     4  10  23  40  65  85 123 179 210 257 305 384
#     4  10  22  41  61  90 124 167 217 250 319 377
#     4  11  22  42  64  91 128 164 214 260 313 375
#
# _framework density 19.692160999999999
#
# number of rings (size 3 to 8) (size 9 to 14) (size 15 to 20)
#    0.000    1.231    3.077    2.769    6.462    1.231 
#    0.000    0.000    0.000    0.000    0.000    0.000 
#    0.000    0.000    0.000    0.000    0.000    0.000 
#
# Total GULP energy -322461.466364 kJ/mol
# GULP energy per Si atom -12402.364091 kJ/mol
# Density = 1.964734 g / cm^3
# Si number density = 19.692161 Si / 1000 Ang^3
#
#
#
# Elastic Constant Matrix: (Units=GPa)
#
#
# Indices 1 2 3 4 5 6 
#
# 1 76.1230 44.6043 32.9748 0.0000 0.0000 0.0000
# 2 44.6043 122.1791 61.1455 0.0000 0.0000 0.0000
# 3 32.9748 61.1455 140.0900 0.0000 0.0000 0.0000
# 4 0.0000 0.0000 0.0000 32.3056 0.0000 0.0000
# 5 0.0000 0.0000 0.0000 0.0000 30.7261 0.0000
# 6 0.0000 0.0000 0.0000 0.0000 0.0000 32.6952
#
#
#
# Elastic Compliance Matrix: (Units=1/GPa)
#
#
# Indices 1 2 3 4 5 6 
#
# 1 0.017006 -0.005380 -0.001655 0.000000 0.000000 0.000000
# 2 -0.005380 0.012174 -0.004047 0.000000 0.000000 0.000000
# 3 -0.001655 -0.004047 0.009294 0.000000 0.000000 0.000000
# 4 0.000000 0.000000 0.000000 0.030954 0.000000 0.000000
# 5 0.000000 0.000000 0.000000 0.000000 0.032546 0.000000
# 6 0.000000 0.000000 0.000000 0.000000 0.000000 0.030586
#
#
# Mechanical properties :
#
#
# Convention : Reuss Voigt Hill
#
# Bulk Modulus (GPa) = 61.31150 68.42681 64.86916
# Shear Modulus (GPa) = 31.21846 32.45654 31.83750
#
# Velocity S-wave (km/s) = 3.98593 4.06420 4.02526
# Velocity P-wave (km/s) = 7.23783 7.53972 7.39031
#
# Compressibility (1/GPa) = 0.01631015
#
# Stress axis : x y z
#
# Youngs Moduli (GPa) = 58.80275 82.13893 107.59302
#
# Poissons Ratio (x) = 0.44194 0.17802
# Poissons Ratio (y) = 0.31638 0.43547
# Poissons Ratio (z) = 0.09729 0.33245
#
# Static dielectric constant tensor:
#      x y z
#    x 3.740170 0.000000 0.000000 
#    y 0.000000 3.434660 0.000000 
#    z 0.000000 0.000000 3.745410 
# 
# 
# High freq. dielectric constant tensor:
#      x y z
#    x 1.774030 0.000000 0.000000 
#    y 0.000000 1.761830 0.000000 
#    z 0.000000 0.000000 1.781820 
# 
# From -- ./inp_files/3145.got.cif
#   From: 2010.03.12/outbox.cif.g09.slc.cpg/sg41_2_cif.got.tgz:3145.got - 2010.04.14 01:55:53.
