data_PCOD8185043
_publ_section_title
;
Structure prediction by ZEFSAII (Michael W. Deem and Ramdas Pophale) SiO2 
 PCOD8185043
Probable space group: A B A 2
;
_chemical_formula_sum "Si O2"
_cell_formula_units_Z 60
_cell_length_a 9.791534
_cell_length_b 15.856579
_cell_length_c 17.828584
_cell_angle_alpha 90.000000
_cell_angle_beta 90.000000
_cell_angle_gamma 90.000000
_cell_volume 2768.070095
_symmetry_space_group_name_H-M "A B A 2"
_symmetry_group_IT_number 41
_symmetry_cell_setting 'orthorhombic'
loop_
_space_group_symop_operation_xyz
x,y,z
-x,-y,z
1/2-x,y,1/2+z
1/2+x,-y,1/2+z
x,1/2+y,1/2+z
-x,1/2-y,1/2+z
1/2-x,1/2+y,z
1/2+x,1/2-y,z
loop_
_atom_site_type_symbol
_atom_site_label
_atom_site_fract_x
_atom_site_fract_y
_atom_site_fract_z
Si Si1 0.522743 0.682532 0.380080
Si Si2 0.000000 0.000000 0.439313
Si Si3 0.794336 0.405102 0.269740
Si Si4 0.518185 0.828823 0.714378
Si Si5 0.217628 0.949889 0.176323
Si Si6 0.300929 0.070561 0.049789
Si Si7 0.273133 0.683063 0.923776
Si Si8 0.011861 0.849373 0.657867
O O1 0.525428 0.581431 0.387874
O O2 0.547616 0.702521 0.292664
O O3 0.379727 0.716668 0.411483
O O4 0.636236 0.733133 0.425845
O O5 0.863942 0.992910 0.489062
O O6 0.675383 0.351768 0.228673
O O7 0.756318 0.503578 0.254979
O O8 0.807347 0.384225 0.357581
O O9 0.939214 0.384585 0.232393
O O10 0.430127 0.906377 0.681581
O O11 0.513957 0.751889 0.656152
O O12 0.333073 0.881950 0.156141
O O13 0.211186 0.021456 0.111115
O O14 0.431059 0.118241 0.085520
O O15 0.207540 0.137510 0.004436
#
# Coordination Sequence:
#
# PCOD8185043 Si02
#       8
#     8   4   8   8   8   8   8   8
#     4  10  23  39  68  97 126 166 215 270 312 384
#     4  10  20  42  68  86 132 176 218 248 326 392
#     4  10  21  40  63  94 128 165 207 271 317 377
#     4  11  23  37  62  99 127 159 212 271 324 364
#     4  11  23  39  66  92 127 169 216 262 318 389
#     4  10  21  41  64  90 125 175 217 250 326 389
#     4  10  22  42  66  94 132 164 221 261 321 383
#     4  11  21  41  65  90 126 169 216 261 315 392
#
# _framework density 21.675751000000002
#
# number of rings (size 3 to 8) (size 9 to 14) (size 15 to 20)
#    0.000    1.600    2.667    2.400    7.467    1.067 
#    9.600    0.000    5.867    0.000    0.000    0.000 
#    0.000    0.000    0.000    0.000    0.000    0.000 
#
# Total GULP energy -371980.800672 kJ/mol
# GULP energy per Si atom -12399.360022 kJ/mol
# Density = 2.162642 g / cm^3
# Si number density = 21.675751 Si / 1000 Ang^3
#
#
#
# Elastic Constant Matrix: (Units=GPa)
#
#
# Indices 1 2 3 4 5 6 
#
# 1 71.5580 30.3777 26.4641 0.0000 0.0000 0.0000
# 2 30.3777 121.6861 31.3819 0.0000 0.0000 0.0000
# 3 26.4641 31.3819 75.7319 0.0000 0.0000 0.0000
# 4 0.0000 0.0000 0.0000 29.9283 0.0000 0.0000
# 5 0.0000 0.0000 0.0000 0.0000 18.4434 0.0000
# 6 0.0000 0.0000 0.0000 0.0000 0.0000 39.0561
#
#
#
# Elastic Compliance Matrix: (Units=1/GPa)
#
#
# Indices 1 2 3 4 5 6 
#
# 1 0.016994 -0.003035 -0.004681 0.000000 0.000000 0.000000
# 2 -0.003035 0.009743 -0.002977 0.000000 0.000000 0.000000
# 3 -0.004681 -0.002977 0.016074 0.000000 0.000000 0.000000
# 4 0.000000 0.000000 0.000000 0.033413 0.000000 0.000000
# 5 0.000000 0.000000 0.000000 0.000000 0.054220 0.000000
# 6 0.000000 0.000000 0.000000 0.000000 0.000000 0.025604
#
#
# Mechanical properties :
#
#
# Convention : Reuss Voigt Hill
#
# Bulk Modulus (GPa) = 46.67329 49.49147 48.08238
# Shear Modulus (GPa) = 27.08907 29.53570 28.31239
#
# Velocity S-wave (km/s) = 3.53900 3.69537 3.61803
# Velocity P-wave (km/s) = 6.18697 6.41014 6.29954
#
# Compressibility (1/GPa) = 0.02142553
#
# Stress axis : x y z
#
# Youngs Moduli (GPa) = 58.84323 102.63478 62.21352
#
# Poissons Ratio (x) = 0.31153 0.29121
# Poissons Ratio (y) = 0.17861 0.18519
# Poissons Ratio (z) = 0.27543 0.30552
#
# Static dielectric constant tensor:
#      x y z
#    x 3.775880 0.000000 0.000000 
#    y 0.000000 3.902890 0.000000 
#    z 0.000000 0.000000 3.951530 
# 
# 
# High freq. dielectric constant tensor:
#      x y z
#    x 1.843300 0.000000 0.000000 
#    y 0.000000 1.851290 0.000000 
#    z 0.000000 0.000000 1.846490 
# 
# From -- ./inp_files/10087.got.cif
#   From: 2010.03.12/outbox.cif.g09.slc.cpg/sg41_6_cif.got.tgz:10087.got - 2010.04.14 01:55:53.
