data_PCOD8185012
_publ_section_title
;
Structure prediction by ZEFSAII (Michael W. Deem and Ramdas Pophale) SiO2 
 PCOD8185012
Probable space group: A B A 2
;
_chemical_formula_sum "Si O2"
_cell_formula_units_Z 48
_cell_length_a 21.461917
_cell_length_b 9.246401
_cell_length_c 10.881518
_cell_angle_alpha 90.000000
_cell_angle_beta 90.000000
_cell_angle_gamma 90.000000
_cell_volume 2159.388180
_symmetry_space_group_name_H-M "A B A 2"
_symmetry_group_IT_number 41
_symmetry_cell_setting 'orthorhombic'
loop_
_space_group_symop_operation_xyz
x,y,z
-x,-y,z
1/2-x,y,1/2+z
1/2+x,-y,1/2+z
x,1/2+y,1/2+z
-x,1/2-y,1/2+z
1/2-x,1/2+y,z
1/2+x,1/2-y,z
loop_
_atom_site_type_symbol
_atom_site_label
_atom_site_fract_x
_atom_site_fract_y
_atom_site_fract_z
Si Si1 0.941485 0.913953 0.479020
Si Si2 0.306017 0.621592 0.435777
Si Si3 0.942215 0.578211 0.488173
Si Si4 0.604388 0.436193 0.745487
Si Si5 0.727594 0.092026 0.306416
Si Si6 0.837538 0.676106 0.651559
O O1 0.875760 0.942801 0.407836
O O2 0.957708 0.745119 0.464621
O O3 0.934344 0.964461 0.620878
O O4 0.000000 0.000000 0.420442
O O5 0.288258 0.743751 0.337202
O O6 0.252679 0.497666 0.426043
O O7 0.307708 0.694737 0.569415
O O8 0.934611 0.487655 0.362497
O O9 0.879454 0.567904 0.569172
O O10 0.000000 0.500000 0.557328
O O11 0.668366 0.525038 0.741241
O O12 0.620563 0.263516 0.752097
O O13 0.784375 0.080273 0.210938
#
# Coordination Sequence:
#
# PCOD8185012 Si02
#       6
#     8   8   8   8   8   8
#     4  10  23  44  62  97 132 171 223 263 325 388
#     4  10  24  40  67  95 130 170 211 270 323 389
#     4  10  21  42  66  91 127 176 220 263 320 391
#     4  10  20  40  66  92 129 171 206 270 326 374
#     4  12  21  42  65  98 130 165 215 266 331 382
#     4  10  24  40  63 101 134 163 220 268 325 393
#
# _framework density 22.228518999999999
#
# number of rings (size 3 to 8) (size 9 to 14) (size 15 to 20)
#    0.000    2.000    5.000    0.500    4.667    1.333 
#    3.000    4.167    0.000    0.000    0.000    0.000 
#    0.000    0.000    0.000    0.000    0.000    0.000 
#
# Total GULP energy -297440.325226 kJ/mol
# GULP energy per Si atom -12393.346884 kJ/mol
# Density = 2.217793 g / cm^3
# Si number density = 22.228519 Si / 1000 Ang^3
#
#
#
# Elastic Constant Matrix: (Units=GPa)
#
#
# Indices 1 2 3 4 5 6 
#
# 1 115.7474 37.8065 28.1569 0.0000 0.0000 0.0000
# 2 37.8065 57.0975 25.1295 0.0000 0.0000 0.0000
# 3 28.1569 25.1295 72.0235 0.0000 0.0000 0.0000
# 4 0.0000 0.0000 0.0000 25.2441 0.0000 0.0000
# 5 0.0000 0.0000 0.0000 0.0000 33.7599 0.0000
# 6 0.0000 0.0000 0.0000 0.0000 0.0000 43.5842
#
#
#
# Elastic Compliance Matrix: (Units=1/GPa)
#
#
# Indices 1 2 3 4 5 6 
#
# 1 0.011295 -0.006539 -0.002134 0.000000 0.000000 0.000000
# 2 -0.006539 0.024478 -0.005984 0.000000 0.000000 0.000000
# 3 -0.002134 -0.005984 0.016806 0.000000 0.000000 0.000000
# 4 0.000000 0.000000 0.000000 0.039613 0.000000 0.000000
# 5 0.000000 0.000000 0.000000 0.000000 0.029621 0.000000
# 6 0.000000 0.000000 0.000000 0.000000 0.000000 0.022944
#
#
# Mechanical properties :
#
#
# Convention : Reuss Voigt Hill
#
# Bulk Modulus (GPa) = 42.98453 47.45047 45.21750
# Shear Modulus (GPa) = 27.49887 30.76933 29.13410
#
# Velocity S-wave (km/s) = 3.52106 3.72456 3.62424
# Velocity P-wave (km/s) = 5.99249 6.31581 6.15627
#
# Compressibility (1/GPa) = 0.02326418
#
# Stress axis : x y z
#
# Youngs Moduli (GPa) = 88.53820 40.85380 59.50120
#
# Poissons Ratio (x) = 0.26716 0.12697
# Poissons Ratio (y) = 0.57899 0.35605
# Poissons Ratio (z) = 0.18893 0.24446
#
# Static dielectric constant tensor:
#      x y z
#    x 4.206960 0.000000 0.000000 
#    y 0.000000 3.989220 0.000000 
#    z 0.000000 0.000000 3.723830 
# 
# 
# High freq. dielectric constant tensor:
#      x y z
#    x 1.890650 0.000000 0.000000 
#    y 0.000000 1.868670 0.000000 
#    z 0.000000 0.000000 1.849570 
# 
# From -- ./inp_files/6400.got.cif
#   From: 2010.03.12/outbox.cif.g09.slc.cpg/sg41_4_cif.got.tgz:6400.got - 2010.04.14 01:55:53.
