data_PCOD8185977
_publ_section_title
;
Structure prediction by ZEFSAII (Michael W. Deem and Ramdas Pophale) SiO2 
 PCOD8185977
Probable space group: F M M 2
;
_chemical_formula_sum "Si O2"
_cell_formula_units_Z 96
_cell_length_a 25.296748
_cell_length_b 9.043408
_cell_length_c 25.244521
_cell_angle_alpha 90.000000
_cell_angle_beta 90.000000
_cell_angle_gamma 90.000000
_cell_volume 5775.159110
_symmetry_space_group_name_H-M "F M M 2"
_symmetry_group_IT_number 42
_symmetry_cell_setting 'orthorhombic'
loop_
_space_group_symop_operation_xyz
x,y,z
-x,-y,z
-x,y,z
x,-y,z
x,1/2+y,1/2+z
-x,1/2-y,1/2+z
-x,1/2+y,1/2+z
x,1/2-y,1/2+z
1/2+x,y,1/2+z
1/2-x,-y,1/2+z
1/2-x,y,1/2+z
1/2+x,-y,1/2+z
1/2+x,1/2+y,z
1/2-x,1/2-y,z
1/2-x,1/2+y,z
1/2+x,1/2-y,z
loop_
_atom_site_type_symbol
_atom_site_label
_atom_site_fract_x
_atom_site_fract_y
_atom_site_fract_z
Si Si1 0.500000 0.833281 0.368420
Si Si2 0.305657 0.171809 0.791708
Si Si3 0.895514 0.674135 0.869787
Si Si4 0.104106 0.827963 0.491014
Si Si5 0.193202 0.825096 0.573394
Si Si6 0.693776 0.173000 0.674838
Si Si7 0.500000 0.666263 0.994354
O O1 0.448036 0.751101 0.347076
O O2 0.500000 0.826685 0.431398
O O3 0.500000 0.000000 0.346960
O O4 0.250000 0.250000 0.799884
O O5 0.346645 0.233038 0.834950
O O6 0.331335 0.198529 0.733086
O O7 0.294591 0.000000 0.800517
O O8 0.903243 0.500000 0.863276
O O9 0.884524 0.719476 0.930508
O O10 0.155945 0.785462 0.524051
O O11 0.053053 0.745382 0.515164
O O12 0.090996 0.000000 0.494708
O O13 0.250000 0.750000 0.563077
O O14 0.164561 0.756090 0.626079
O O15 0.200394 0.000000 0.580286
O O16 0.750000 0.250000 0.676900
O O17 0.698860 0.000000 0.661596
O O18 0.500000 0.500000 0.016111
#
# Coordination Sequence:
#
# PCOD8185977 Si02
#       7
#     8  16  16  16  16  16   8
#     4   9  17  29  45  68  91 114 149 188 220 257
#     4   9  18  30  46  68  92 118 150 183 220 264
#     4   9  17  31  48  66  90 121 150 179 219 268
#     4   9  18  31  47  66  91 121 150 179 219 268
#     4  10  19  30  45  67  92 120 151 183 219 263
#     4   9  16  28  45  64  86 115 151 188 220 257
#     4   9  17  29  47  68  89 114 149 188 222 257
#
# _framework density 16.622919
#
# number of rings (size 3 to 8) (size 9 to 14) (size 15 to 20)
#    0.000    2.833    0.000    2.500    0.000    5.333 
#    0.000    0.000    0.000    1.000    0.000    1.167 
#    0.000    0.000    0.000    0.000    0.000    0.000 
#
# Total GULP energy -297447.596406 kJ/mol
# GULP energy per Si atom -12393.649850 kJ/mol
# Density = 1.658508 g / cm^3
# Si number density = 16.622919 Si / 1000 Ang^3
#
#
#
# Elastic Constant Matrix: (Units=GPa)
#
#
# Indices 1 2 3 4 5 6 
#
# 1 116.3795 53.3222 66.5160 0.0000 0.0000 -0.0002
# 2 53.3222 77.8545 44.4882 0.0000 0.0000 -0.0002
# 3 66.5160 44.4882 97.2838 0.0000 0.0000 0.0000
# 4 0.0000 0.0000 0.0000 20.6078 0.0000 0.0000
# 5 0.0000 0.0000 0.0000 0.0000 4.6517 0.0000
# 6 -0.0002 -0.0002 0.0000 0.0000 0.0000 23.7637
#
#
#
# Elastic Compliance Matrix: (Units=1/GPa)
#
#
# Indices 1 2 3 4 5 6 
#
# 1 0.016187 -0.006447 -0.008119 0.000000 0.000000 0.000000
# 2 -0.006447 0.019956 -0.004718 0.000000 0.000000 0.000000
# 3 -0.008119 -0.004718 0.017988 0.000000 0.000000 0.000000
# 4 0.000000 0.000000 0.000000 0.048525 0.000000 0.000000
# 5 0.000000 0.000000 0.000000 0.000000 0.214973 0.000000
# 6 0.000000 0.000000 0.000000 0.000000 0.000000 0.042081
#
#
# Mechanical properties :
#
#
# Convention : Reuss Voigt Hill
#
# Bulk Modulus (GPa) = 64.25619 68.90784 66.58202
# Shear Modulus (GPa) = 12.39261 18.28407 15.33834
#
# Velocity S-wave (km/s) = 2.73337 3.32012 3.04093
# Velocity P-wave (km/s) = 6.97860 7.49941 7.24369
#
# Compressibility (1/GPa) = 0.01556270
#
# Stress axis : x y z
#
# Youngs Moduli (GPa) = 61.77839 50.11070 55.59177
#
# Poissons Ratio (x) = 0.32305 0.45137
# Poissons Ratio (y) = 0.39827 0.26228
# Poissons Ratio (z) = 0.50160 0.23642
#
# Static dielectric constant tensor:
#      x y z
#    x 3.014940 0.000000 0.000000 
#    y 0.000000 3.210690 0.000000 
#    z 0.000000 0.000000 3.607010 
# 
# 
# High freq. dielectric constant tensor:
#      x y z
#    x 1.619550 0.000000 0.000000 
#    y 0.000000 1.648070 0.000000 
#    z 0.000000 0.000000 1.629030 
# 
# From -- ./inp_files/28196.got.cif
#   From: 2010.03.12/outbox.cif.g09.slc.cpg/sg42_15_cif.got.tgz:28196.got - 2010.04.14 02:04:31.
