data_PCOD8185022
_publ_section_title
;
Structure prediction by ZEFSAII (Michael W. Deem and Ramdas Pophale) SiO2 
 PCOD8185022
Probable space group: A B A 2
;
_chemical_formula_sum "Si O2"
_cell_formula_units_Z 60
_cell_length_a 22.360635
_cell_length_b 17.007321
_cell_length_c 8.134758
_cell_angle_alpha 90.000000
_cell_angle_beta 90.000000
_cell_angle_gamma 90.000000
_cell_volume 3093.603704
_symmetry_space_group_name_H-M "A B A 2"
_symmetry_group_IT_number 41
_symmetry_cell_setting 'orthorhombic'
loop_
_space_group_symop_operation_xyz
x,y,z
-x,-y,z
1/2-x,y,1/2+z
1/2+x,-y,1/2+z
x,1/2+y,1/2+z
-x,1/2-y,1/2+z
1/2-x,1/2+y,z
1/2+x,1/2-y,z
loop_
_atom_site_type_symbol
_atom_site_label
_atom_site_fract_x
_atom_site_fract_y
_atom_site_fract_z
Si Si1 0.004316 0.309630 0.931090
Si Si2 0.500000 0.000000 0.475474
Si Si3 0.534380 0.653060 0.776529
Si Si4 0.275877 0.080520 0.252890
Si Si5 0.826590 0.500972 0.945997
Si Si6 0.368718 0.831762 0.026984
Si Si7 0.078462 0.081398 0.230764
Si Si8 0.180962 0.168875 0.057613
O O1 0.976083 0.223670 0.904522
O O2 0.977702 0.374174 0.808796
O O3 0.990055 0.333820 0.120190
O O4 0.076327 0.309497 0.904044
O O5 0.479296 0.928990 0.361275
O O6 0.556026 0.976510 0.588635
O O7 0.603084 0.652720 0.709363
O O8 0.229922 0.017463 0.330063
O O9 0.318773 0.037048 0.125145
O O10 0.239518 0.150193 0.164200
O O11 0.317749 0.119374 0.389575
O O12 0.831966 0.594117 0.961863
O O13 0.887721 0.468313 0.869379
O O14 0.320539 0.761753 0.026783
O O15 0.121030 0.147417 0.154706
#
# Coordination Sequence:
#
# PCOD8185022 Si02
#       8
#     8   4   8   8   8   8   8   8
#     4  10  21  40  57  89 128 168 197 252 295 389
#     4  12  24  36  58  94 126 166 204 252 300 374
#     4  10  23  37  58  88 128 164 204 245 297 368
#     4   9  22  41  65  84 121 153 217 260 322 356
#     4  10  22  40  63  93 116 165 201 272 309 364
#     4  10  22  35  63  87 126 152 209 237 317 364
#     4  11  22  38  62  84 130 162 208 243 311 373
#     4  10  20  41  61  88 114 167 200 261 304 379
#
# _framework density 19.394856000000001
#
# number of rings (size 3 to 8) (size 9 to 14) (size 15 to 20)
#    0.800    1.067    1.333    2.400    3.733    2.133 
#    0.000    0.000    0.000    0.000    0.000    0.000 
#    0.000    0.000    0.000    0.000    0.000    0.000 
#
# Total GULP energy -372011.714113 kJ/mol
# GULP energy per Si atom -12400.390470 kJ/mol
# Density = 1.935071 g / cm^3
# Si number density = 19.394856 Si / 1000 Ang^3
#
#
#
# Elastic Constant Matrix: (Units=GPa)
#
#
# Indices 1 2 3 4 5 6 
#
# 1 53.5354 42.9901 22.7619 0.0000 0.0000 0.0000
# 2 42.9901 165.3785 52.0407 0.0000 0.0000 0.0000
# 3 22.7619 52.0407 97.6408 0.0000 0.0000 0.0000
# 4 0.0000 0.0000 0.0000 34.3297 0.0000 0.0000
# 5 0.0000 0.0000 0.0000 0.0000 16.0579 0.0000
# 6 0.0000 0.0000 0.0000 0.0000 0.0000 20.9092
#
#
#
# Elastic Compliance Matrix: (Units=1/GPa)
#
#
# Indices 1 2 3 4 5 6 
#
# 1 0.024207 -0.005427 -0.002751 0.000000 0.000000 0.000000
# 2 -0.005427 0.008482 -0.003256 0.000000 0.000000 0.000000
# 3 -0.002751 -0.003256 0.012618 0.000000 0.000000 0.000000
# 4 0.000000 0.000000 0.000000 0.029129 0.000000 0.000000
# 5 0.000000 0.000000 0.000000 0.000000 0.062274 0.000000
# 6 0.000000 0.000000 0.000000 0.000000 0.000000 0.047826
#
#
# Mechanical properties :
#
#
# Convention : Reuss Voigt Hill
#
# Bulk Modulus (GPa) = 44.56255 61.34891 52.95573
# Shear Modulus (GPa) = 23.26852 27.51017 25.38935
#
# Velocity S-wave (km/s) = 3.46746 3.77029 3.62204
# Velocity P-wave (km/s) = 6.24959 7.11714 6.69743
#
# Compressibility (1/GPa) = 0.02244037
#
# Stress axis : x y z
#
# Youngs Moduli (GPa) = 41.31086 117.89774 79.25198
#
# Poissons Ratio (x) = 0.63983 0.21799
# Poissons Ratio (y) = 0.22419 0.25801
# Poissons Ratio (z) = 0.11363 0.38382
#
# Static dielectric constant tensor:
#      x y z
#    x 3.348840 0.000000 0.000000 
#    y 0.000000 3.454700 0.000000 
#    z 0.000000 0.000000 3.622990 
# 
# 
# High freq. dielectric constant tensor:
#      x y z
#    x 1.739960 0.000000 0.000000 
#    y 0.000000 1.759360 0.000000 
#    z 0.000000 0.000000 1.759490 
# 
# From -- ./inp_files/3845.got.cif
#   From: 2010.03.12/outbox.cif.g09.slc.cpg/sg41_2_cif.got.tgz:3845.got - 2010.04.14 01:55:53.
