data_PCOD8185344
_publ_section_title
;
Structure prediction by ZEFSAII (Michael W. Deem and Ramdas Pophale) SiO2 
 PCOD8185344
Probable space group: A B A 2
;
_chemical_formula_sum "Si O2"
_cell_formula_units_Z 60
_cell_length_a 8.956527
_cell_length_b 23.891973
_cell_length_c 12.177864
_cell_angle_alpha 90.000000
_cell_angle_beta 90.000000
_cell_angle_gamma 90.000000
_cell_volume 2605.930173
_symmetry_space_group_name_H-M "A B A 2"
_symmetry_group_IT_number 41
_symmetry_cell_setting 'orthorhombic'
loop_
_space_group_symop_operation_xyz
x,y,z
-x,-y,z
1/2-x,y,1/2+z
1/2+x,-y,1/2+z
x,1/2+y,1/2+z
-x,1/2-y,1/2+z
1/2-x,1/2+y,z
1/2+x,1/2-y,z
loop_
_atom_site_type_symbol
_atom_site_label
_atom_site_fract_x
_atom_site_fract_y
_atom_site_fract_z
Si Si1 0.707108 0.509918 0.202320
Si Si2 0.466711 0.678801 0.332946
Si Si3 0.159605 0.566099 0.899077
Si Si4 0.423329 0.795087 0.074970
Si Si5 0.878346 0.405292 0.566892
Si Si6 0.161099 0.866414 0.157167
Si Si7 0.500000 0.000000 0.078131
Si Si8 0.760762 0.300572 0.164959
O O1 0.693914 0.487935 0.326086
O O2 0.616063 0.467039 0.123620
O O3 0.649163 0.572772 0.212248
O O4 0.872385 0.519799 0.159335
O O5 0.423336 0.613641 0.331940
O O6 0.509427 0.700914 0.452482
O O7 0.606608 0.680446 0.246706
O O8 0.320331 0.711189 0.283407
O O9 0.319335 0.588439 0.942945
O O10 0.057085 0.550909 0.003326
O O11 0.319964 0.848537 0.106541
O O12 0.319749 0.740332 0.077364
O O13 0.560538 0.790257 0.162086
O O14 0.763223 0.365378 0.632936
O O15 0.037497 0.373121 0.560133
#
# Coordination Sequence:
#
# PCOD8185344 Si02
#       8
#     8   8   8   8   8   8   4   8
#     4  11  22  40  69  99 147 189 238 289 354 425
#     4  11  24  46  74 105 138 192 239 292 369 429
#     4  11  20  41  70  98 140 197 231 284 367 409
#     4  12  27  49  75 105 145 187 238 311 359 443
#     4  10  22  42  67 104 138 184 234 300 348 432
#     4  11  24  44  69 106 150 185 243 295 361 427
#     4  10  24  38  62 100 142 182 240 290 338 422
#     4  11  24  47  74 102 140 182 242 298 364 430
#
# _framework density 23.024405999999999
#
# number of rings (size 3 to 8) (size 9 to 14) (size 15 to 20)
#    0.000    1.067    4.000    3.600    1.867    3.200 
#    9.600    0.000    0.000    0.000    0.000    0.000 
#    0.000    0.000    0.000    0.000    0.000    0.000 
#
# Total GULP energy -371771.795927 kJ/mol
# GULP energy per Si atom -12392.393198 kJ/mol
# Density = 2.297200 g / cm^3
# Si number density = 23.024406 Si / 1000 Ang^3
#
#
#
# Elastic Constant Matrix: (Units=GPa)
#
#
# Indices 1 2 3 4 5 6 
#
# 1 163.3533 26.3925 49.4442 0.0000 0.0000 0.0000
# 2 26.3925 79.2100 0.3128 0.0000 0.0000 0.0000
# 3 49.4442 0.3128 60.4297 0.0000 0.0000 0.0000
# 4 0.0000 0.0000 0.0000 29.1820 0.0000 0.0000
# 5 0.0000 0.0000 0.0000 0.0000 69.9595 0.0000
# 6 0.0000 0.0000 0.0000 0.0000 0.0000 35.6059
#
#
#
# Elastic Compliance Matrix: (Units=1/GPa)
#
#
# Indices 1 2 3 4 5 6 
#
# 1 0.008751 -0.002888 -0.007145 0.000000 0.000000 0.000000
# 2 -0.002888 0.013578 0.002292 0.000000 0.000000 0.000000
# 3 -0.007145 0.002292 0.022383 0.000000 0.000000 0.000000
# 4 0.000000 0.000000 0.000000 0.034268 0.000000 0.000000
# 5 0.000000 0.000000 0.000000 0.000000 0.014294 0.000000
# 6 0.000000 0.000000 0.000000 0.000000 0.000000 0.028085
#
#
# Mechanical properties :
#
#
# Convention : Reuss Voigt Hill
#
# Bulk Modulus (GPa) = 34.21086 50.58798 42.39942
# Shear Modulus (GPa) = 34.11052 42.07240 38.09146
#
# Velocity S-wave (km/s) = 3.85319 4.27933 4.07184
# Velocity P-wave (km/s) = 5.88956 6.81440 6.36879
#
# Compressibility (1/GPa) = 0.02923049
#
# Stress axis : x y z
#
# Youngs Moduli (GPa) = 114.27320 73.64993 44.67766
#
# Poissons Ratio (x) = 0.21267 0.31923
# Poissons Ratio (y) = 0.32997 -0.10242
# Poissons Ratio (z) = 0.81650 -0.16883
#
# Static dielectric constant tensor:
#      x y z
#    x 4.367140 0.000000 0.000000 
#    y 0.000000 4.131130 0.000000 
#    z 0.000000 0.000000 3.987760 
# 
# 
# High freq. dielectric constant tensor:
#      x y z
#    x 1.916530 0.000000 0.000000 
#    y 0.000000 1.917340 0.000000 
#    z 0.000000 0.000000 1.889030 
# 
# From -- ./inp_files/4587.got.cif
#   From: 2010.03.12/outbox.cif.g09.slc.cpg/sg41_3_cif.got.tgz:4587.got - 2010.04.14 01:55:53.
