data_PCOD8185059
_publ_section_title
;
Structure prediction by ZEFSAII (Michael W. Deem and Ramdas Pophale) SiO2 
 PCOD8185059
Probable space group: A B A 2
;
_chemical_formula_sum "Si O2"
_cell_formula_units_Z 48
_cell_length_a 12.921002
_cell_length_b 18.537888
_cell_length_c 7.261504
_cell_angle_alpha 90.000000
_cell_angle_beta 90.000000
_cell_angle_gamma 90.000000
_cell_volume 1739.334169
_symmetry_space_group_name_H-M "A B A 2"
_symmetry_group_IT_number 41
_symmetry_cell_setting 'orthorhombic'
loop_
_space_group_symop_operation_xyz
x,y,z
-x,-y,z
1/2-x,y,1/2+z
1/2+x,-y,1/2+z
x,1/2+y,1/2+z
-x,1/2-y,1/2+z
1/2-x,1/2+y,z
1/2+x,1/2-y,z
loop_
_atom_site_type_symbol
_atom_site_label
_atom_site_fract_x
_atom_site_fract_y
_atom_site_fract_z
Si Si1 0.056380 0.426426 0.409590
Si Si2 0.581074 0.331598 0.117920
Si Si3 0.779469 0.361360 0.269769
Si Si4 0.075405 0.433743 0.856212
Si Si5 0.271608 0.971167 0.184569
Si Si6 0.024195 0.178653 0.594486
O O1 0.178841 0.440440 0.379173
O O2 0.000000 0.500000 0.353902
O O3 0.008698 0.396160 0.609533
O O4 0.019765 0.363675 0.271082
O O5 0.666444 0.354464 0.965742
O O6 0.661452 0.328789 0.289252
O O7 0.524741 0.257148 0.082149
O O8 0.767702 0.443248 0.199937
O O9 0.851762 0.318824 0.120835
O O10 0.154059 0.437708 0.676958
O O11 0.000000 0.500000 0.851388
O O12 0.152641 0.444919 0.026557
O O13 0.011106 0.358943 0.899442
#
# Coordination Sequence:
#
# PCOD8185059 Si02
#       6
#     8   8   8   8   8   8
#     4  10  20  44  72  98 138 193 237 290 363 428
#     4  11  25  40  73 103 140 190 240 298 370 442
#     4  11  23  45  69 100 147 191 235 303 379 422
#     4  11  23  43  68 101 138 187 241 299 359 437
#     4  11  21  43  73  98 136 187 240 300 358 420
#     4  10  22  42  66  97 144 186 227 300 365 426
#
# _framework density 27.596768999999998
#
# number of rings (size 3 to 8) (size 9 to 14) (size 15 to 20)
#    0.000    1.333    5.000    2.000    0.000    6.667 
#    3.000    0.000    0.000    0.000    0.000    0.000 
#    0.000    0.000    0.000    0.000    0.000    0.000 
#
# Total GULP energy -297522.418956 kJ/mol
# GULP energy per Si atom -12396.767457 kJ/mol
# Density = 2.753396 g / cm^3
# Si number density = 27.596769 Si / 1000 Ang^3
#
#
#
# Elastic Constant Matrix: (Units=GPa)
#
#
# Indices 1 2 3 4 5 6 
#
# 1 264.3707 102.0118 47.1377 0.0000 0.0000 0.0000
# 2 102.0118 166.4800 -3.0397 0.0000 0.0000 0.0000
# 3 47.1377 -3.0397 88.3733 0.0000 0.0000 0.0000
# 4 0.0000 0.0000 0.0000 22.9195 0.0000 0.0000
# 5 0.0000 0.0000 0.0000 0.0000 34.2907 0.0000
# 6 0.0000 0.0000 0.0000 0.0000 0.0000 46.7372
#
#
#
# Elastic Compliance Matrix: (Units=1/GPa)
#
#
# Indices 1 2 3 4 5 6 
#
# 1 0.005725 -0.003566 -0.003176 0.000000 0.000000 0.000000
# 2 -0.003566 0.008232 0.002185 0.000000 0.000000 0.000000
# 3 -0.003176 0.002185 0.013085 0.000000 0.000000 0.000000
# 4 0.000000 0.000000 0.000000 0.043631 0.000000 0.000000
# 5 0.000000 0.000000 0.000000 0.000000 0.029162 0.000000
# 6 0.000000 0.000000 0.000000 0.000000 0.000000 0.021396
#
#
# Mechanical properties :
#
#
# Convention : Reuss Voigt Hill
#
# Bulk Modulus (GPa) = 55.78018 90.16040 72.97029
# Shear Modulus (GPa) = 36.67811 45.66376 41.17093
#
# Velocity S-wave (km/s) = 3.64960 4.07219 3.86667
# Velocity P-wave (km/s) = 6.16570 7.40620 6.81424
#
# Compressibility (1/GPa) = 0.01792751
#
# Stress axis : x y z
#
# Youngs Moduli (GPa) = 174.67601 121.48174 76.42337
#
# Poissons Ratio (x) = 0.43320 0.24274
# Poissons Ratio (y) = 0.62289 -0.16700
# Poissons Ratio (z) = 0.55482 -0.26546
#
# Static dielectric constant tensor:
#      x y z
#    x 6.752670 0.000000 0.000000 
#    y 0.000000 4.832070 0.000000 
#    z 0.000000 0.000000 6.763720 
# 
# 
# High freq. dielectric constant tensor:
#      x y z
#    x 2.174590 0.000000 0.000000 
#    y 0.000000 2.072860 0.000000 
#    z 0.000000 0.000000 2.198430 
# 
# From -- ./inp_files/2526.got.cif
#   From: 2010.03.12/outbox.cif.g09.slc.cpg/sg41_2_cif.got.tgz:2526.got - 2010.04.14 01:55:53.
