data_PCOD8185804
_publ_section_title
;
Structure prediction by ZEFSAII (Michael W. Deem and Ramdas Pophale) SiO2 
 PCOD8185804
Probable space group: F M M 2
;
_chemical_formula_sum "Si O2"
_cell_formula_units_Z 88
_cell_length_a 18.128584
_cell_length_b 13.059225
_cell_length_c 19.247266
_cell_angle_alpha 90.000000
_cell_angle_beta 90.000000
_cell_angle_gamma 90.000000
_cell_volume 4556.698943
_symmetry_space_group_name_H-M "F M M 2"
_symmetry_group_IT_number 42
_symmetry_cell_setting 'orthorhombic'
loop_
_space_group_symop_operation_xyz
x,y,z
-x,-y,z
-x,y,z
x,-y,z
x,1/2+y,1/2+z
-x,1/2-y,1/2+z
-x,1/2+y,1/2+z
x,1/2-y,1/2+z
1/2+x,y,1/2+z
1/2-x,-y,1/2+z
1/2-x,y,1/2+z
1/2+x,-y,1/2+z
1/2+x,1/2+y,z
1/2-x,1/2-y,z
1/2-x,1/2+y,z
1/2+x,1/2-y,z
loop_
_atom_site_type_symbol
_atom_site_label
_atom_site_fract_x
_atom_site_fract_y
_atom_site_fract_z
Si Si1 0.085561 0.379618 0.570700
Si Si2 0.670212 0.500000 0.304596
Si Si3 0.682101 0.000000 0.366683
Si Si4 0.333960 0.722819 0.469656
Si Si5 0.083923 0.804745 0.848071
Si Si6 0.582601 0.664943 0.227027
Si Si7 0.684855 0.000000 0.958015
O O1 0.109637 0.500000 0.568816
O O2 0.133207 0.308633 0.520298
O O3 0.100497 0.329338 0.645822
O O4 0.000000 0.370705 0.549971
O O5 0.759652 0.500000 0.303119
O O6 0.643462 0.597885 0.263654
O O7 0.641474 0.500000 0.384070
O O8 0.629347 0.904899 0.362553
O O9 0.726854 0.000000 0.440047
O O10 0.250000 0.750000 0.451607
O O11 0.380059 0.718588 0.397868
O O12 0.336383 0.604941 0.499511
O O13 0.087433 0.774130 0.766426
O O14 0.000000 0.823365 0.871131
O O15 0.500000 0.618528 0.236651
#
# Coordination Sequence:
#
# PCOD8185804 Si02
#       7
#    16   8   8  16  16  16   8
#     4  10  23  43  65  90 125 168 218 266 312 374
#     4  10  17  35  62  89 118 156 193 260 321 355
#     4  10  21  37  56  92 128 164 202 259 322 372
#     4  12  23  41  59  93 127 162 211 260 319 381
#     4  11  22  38  64  91 121 164 212 260 314 377
#     4  10  20  38  63  92 121 157 208 260 309 370
#     4  10  22  38  62  89 130 164 197 259 329 371
#
# _framework density 19.312225999999999
#
# number of rings (size 3 to 8) (size 9 to 14) (size 15 to 20)
#    0.545    0.909    4.545    1.091    2.545    0.000 
#    3.273    2.727    0.000    2.182    0.000    0.000 
#    0.000    0.000    0.000    0.000    0.000    0.000 
#
# Total GULP energy -272560.981227 kJ/mol
# GULP energy per Si atom -12389.135510 kJ/mol
# Density = 1.926827 g / cm^3
# Si number density = 19.312226 Si / 1000 Ang^3
#
#
#
# Elastic Constant Matrix: (Units=GPa)
#
#
# Indices 1 2 3 4 5 6 
#
# 1 114.1722 48.6883 40.9937 0.0000 0.0000 0.0000
# 2 48.6883 138.3245 40.8906 0.0000 0.0000 0.0000
# 3 40.9937 40.8906 92.8818 0.0000 0.0000 0.0000
# 4 0.0000 0.0000 0.0000 30.2295 0.0000 0.0000
# 5 0.0000 0.0000 0.0000 0.0000 23.8330 0.0000
# 6 0.0000 0.0000 0.0000 0.0000 0.0000 35.6145
#
#
#
# Elastic Compliance Matrix: (Units=1/GPa)
#
#
# Indices 1 2 3 4 5 6 
#
# 1 0.011328 -0.002885 -0.003730 0.000000 0.000000 0.000000
# 2 -0.002885 0.009046 -0.002709 0.000000 0.000000 0.000000
# 3 -0.003730 -0.002709 0.013605 0.000000 0.000000 0.000000
# 4 0.000000 0.000000 0.000000 0.033080 0.000000 0.000000
# 5 0.000000 0.000000 0.000000 0.000000 0.041959 0.000000
# 6 0.000000 0.000000 0.000000 0.000000 0.000000 0.028078
#
#
# Mechanical properties :
#
#
# Convention : Reuss Voigt Hill
#
# Bulk Modulus (GPa) = 65.22408 67.39154 66.30781
# Shear Modulus (GPa) = 31.08414 32.25579 31.66996
#
# Velocity S-wave (km/s) = 4.01628 4.09127 4.05395
# Velocity P-wave (km/s) = 7.44004 7.56899 7.50479
#
# Compressibility (1/GPa) = 0.01533176
#
# Stress axis : x y z
#
# Youngs Moduli (GPa) = 88.27650 110.55084 73.50166
#
# Poissons Ratio (x) = 0.31891 0.27414
# Poissons Ratio (y) = 0.25466 0.19912
# Poissons Ratio (z) = 0.32924 0.29949
#
# Static dielectric constant tensor:
#      x y z
#    x 3.588290 0.000000 0.000000 
#    y 0.000000 3.245150 0.000000 
#    z 0.000000 0.000000 3.446270 
# 
# 
# High freq. dielectric constant tensor:
#      x y z
#    x 1.754080 0.000000 0.000000 
#    y 0.000000 1.755960 0.000000 
#    z 0.000000 0.000000 1.729300 
# 
# From -- ./inp_files/25810.got.cif
#   From: 2010.03.12/outbox.cif.g09.slc.cpg/sg42_13_cif.got.tgz:25810.got - 2010.04.14 02:04:31.
