data_PCOD8185957
_publ_section_title
;
Structure prediction by ZEFSAII (Michael W. Deem and Ramdas Pophale) SiO2 
 PCOD8185957
Probable space group: F M M 2
;
_chemical_formula_sum "Si O2"
_cell_formula_units_Z 96
_cell_length_a 23.749589
_cell_length_b 8.695528
_cell_length_c 25.259755
_cell_angle_alpha 90.000000
_cell_angle_beta 90.000000
_cell_angle_gamma 90.000000
_cell_volume 5216.523763
_symmetry_space_group_name_H-M "F M M 2"
_symmetry_group_IT_number 42
_symmetry_cell_setting 'orthorhombic'
loop_
_space_group_symop_operation_xyz
x,y,z
-x,-y,z
-x,y,z
x,-y,z
x,1/2+y,1/2+z
-x,1/2-y,1/2+z
-x,1/2+y,1/2+z
x,1/2-y,1/2+z
1/2+x,y,1/2+z
1/2-x,-y,1/2+z
1/2-x,y,1/2+z
1/2+x,-y,1/2+z
1/2+x,1/2+y,z
1/2-x,1/2-y,z
1/2-x,1/2+y,z
1/2+x,1/2-y,z
loop_
_atom_site_type_symbol
_atom_site_label
_atom_site_fract_x
_atom_site_fract_y
_atom_site_fract_z
Si Si1 0.309948 0.817678 0.806150
Si Si2 0.882001 0.317238 0.022038
Si Si3 0.308749 0.180766 0.926760
Si Si4 0.311170 0.318692 0.620705
Si Si5 0.500000 0.681565 0.179846
Si Si6 0.886931 0.182000 0.719123
Si Si7 0.000000 0.183125 0.562904
O O1 0.250000 0.750000 0.787685
O O2 0.322303 0.770009 0.866837
O O3 0.359485 0.739725 0.773352
O O4 0.309381 0.000000 0.797716
O O5 0.882990 0.500000 0.024456
O O6 0.841551 0.253433 0.068294
O O7 0.945297 0.255116 0.031317
O O8 0.858501 0.258990 0.965396
O O9 0.250000 0.250000 0.946512
O O10 0.302583 0.000000 0.931513
O O11 0.305755 0.500000 0.618152
O O12 0.250000 0.250000 0.626304
O O13 0.347373 0.266021 0.670919
O O14 0.500000 0.500000 0.173714
O O15 0.553561 0.735486 0.213249
O O16 0.500000 0.756643 0.122285
O O17 0.895799 0.000000 0.720528
O O18 0.000000 0.000000 0.566866
#
# Coordination Sequence:
#
# PCOD8185957 Si02
#       7
#    16  16  16  16   8  16   8
#     4  10  20  35  55  82 114 148 187 232 279 331
#     4   9  17  32  54  78 104 141 186 226 268 325
#     4   9  18  33  54  80 110 144 183 225 274 327
#     4  10  20  32  50  77 107 137 175 221 271 325
#     4  12  24  38  57  82 111 143 182 230 278 329
#     4  11  22  38  58  79 107 147 187 225 275 334
#     4  10  18  36  59  76 105 147 188 224 270 333
#
# _framework density 18.40306
#
# number of rings (size 3 to 8) (size 9 to 14) (size 15 to 20)
#    0.000    2.000    1.667    2.750    0.000    3.333 
#    0.000    1.667    0.000    3.000    0.000    0.000 
#    0.000    0.000    0.000    0.000    0.000    0.000 
#
# Total GULP energy -297632.798182 kJ/mol
# GULP energy per Si atom -12401.366591 kJ/mol
# Density = 1.836117 g / cm^3
# Si number density = 18.403060 Si / 1000 Ang^3
#
#
#
# Elastic Constant Matrix: (Units=GPa)
#
#
# Indices 1 2 3 4 5 6 
#
# 1 163.5211 25.1073 71.6747 0.0000 0.0000 -0.0001
# 2 25.1073 30.3379 17.0085 0.0000 0.0000 -0.0001
# 3 71.6747 17.0085 109.3673 0.0000 0.0000 0.0000
# 4 0.0000 0.0000 0.0000 17.7050 0.0000 0.0000
# 5 0.0000 0.0000 0.0000 0.0000 25.0334 0.0000
# 6 -0.0001 -0.0001 0.0000 0.0000 0.0000 28.7301
#
#
#
# Elastic Compliance Matrix: (Units=1/GPa)
#
#
# Indices 1 2 3 4 5 6 
#
# 1 0.009132 -0.004603 -0.005269 0.000000 0.000000 0.000000
# 2 -0.004603 0.038431 -0.002960 0.000000 0.000000 0.000000
# 3 -0.005269 -0.002960 0.013057 0.000000 0.000000 0.000000
# 4 0.000000 0.000000 0.000000 0.056481 0.000000 0.000000
# 5 0.000000 0.000000 0.000000 0.000000 0.039947 0.000000
# 6 0.000000 0.000000 0.000000 0.000000 0.000000 0.034807
#
#
# Mechanical properties :
#
#
# Convention : Reuss Voigt Hill
#
# Bulk Modulus (GPa) = 28.60758 58.97859 43.79308
# Shear Modulus (GPa) = 21.81793 26.92276 24.37034
#
# Velocity S-wave (km/s) = 3.44693 3.82900 3.64298
# Velocity P-wave (km/s) = 5.60540 7.18792 6.44541
#
# Compressibility (1/GPa) = 0.03495577
#
# Stress axis : x y z
#
# Youngs Moduli (GPa) = 109.51073 26.02051 76.58984
#
# Poissons Ratio (x) = 0.11978 0.40351
# Poissons Ratio (y) = 0.50412 0.22669
# Poissons Ratio (z) = 0.57696 0.07702
#
# Static dielectric constant tensor:
#      x y z
#    x 3.649820 0.000000 0.000000 
#    y 0.000000 3.224540 0.000000 
#    z 0.000000 0.000000 3.586720 
# 
# 
# High freq. dielectric constant tensor:
#      x y z
#    x 1.719330 0.000000 0.000000 
#    y 0.000000 1.698490 0.000000 
#    z 0.000000 0.000000 1.717050 
# 
# From -- ./inp_files/28066.got.cif
#   From: 2010.03.12/outbox.cif.g09.slc.cpg/sg42_15_cif.got.tgz:28066.got - 2010.04.14 02:04:31.
