data_PCOD8185662
_publ_section_title
;
Structure prediction by ZEFSAII (Michael W. Deem and Ramdas Pophale) SiO2 
 PCOD8185662
Probable space group: A B A 2
;
_chemical_formula_sum "Si O2"
_cell_formula_units_Z 40
_cell_length_a 14.431138
_cell_length_b 11.036672
_cell_length_c 9.694695
_cell_angle_alpha 90.000000
_cell_angle_beta 90.000000
_cell_angle_gamma 90.000000
_cell_volume 1544.090909
_symmetry_space_group_name_H-M "A B A 2"
_symmetry_group_IT_number 41
_symmetry_cell_setting 'orthorhombic'
loop_
_space_group_symop_operation_xyz
x,y,z
-x,-y,z
1/2-x,y,1/2+z
1/2+x,-y,1/2+z
x,1/2+y,1/2+z
-x,1/2-y,1/2+z
1/2-x,1/2+y,z
1/2+x,1/2-y,z
loop_
_atom_site_type_symbol
_atom_site_label
_atom_site_fract_x
_atom_site_fract_y
_atom_site_fract_z
Si Si1 0.608103 0.766197 0.527050
Si Si2 0.195860 0.614666 0.027050
Si Si3 0.398893 0.447140 0.731935
Si Si4 0.410261 0.363395 0.027050
Si Si5 0.101107 0.447141 0.822165
O O1 0.698246 0.848127 0.527050
O O2 0.605818 0.685967 0.664940
O O3 0.522043 0.859111 0.527049
O O4 0.605819 0.685967 0.389160
O O5 0.176190 0.535096 0.890863
O O6 0.176190 0.535094 0.163237
O O7 0.128393 0.728717 0.027051
O O8 0.500000 0.500000 0.703726
O O9 0.374381 0.435334 0.893060
O O10 0.374382 0.435335 0.161040
O O11 0.000000 0.500000 0.850376
#
# Coordination Sequence:
#
# PCOD8185662 Si02
#       5
#     8   8   8   8   8
#     4  11  24  50  84 117 159 214 266 325 397 472
#     4  11  26  52  77 115 166 204 265 334 381 476
#     4  11  24  53  81 112 158 211 267 325 398 468
#     4  12  25  51  81 116 157 215 256 324 410 466
#     4  11  24  53  81 112 158 211 267 325 398 468
#
# _framework density 25.905208999999999
#
# number of rings (size 3 to 8) (size 9 to 14) (size 15 to 20)
#    0.000    0.800    4.000    3.000    0.000    1.600 
#   21.600    2.000    0.000    0.000    0.000    0.000 
#    0.000    0.000    0.000    0.000    0.000    0.000 
#
# Total GULP energy -248199.490444 kJ/mol
# GULP energy per Si atom -12409.974522 kJ/mol
# Density = 2.584625 g / cm^3
# Si number density = 25.905209 Si / 1000 Ang^3
#
#
#
# Elastic Constant Matrix: (Units=GPa)
#
#
# Indices 1 2 3 4 5 6 
#
# 1 134.3924 75.8485 79.0333 0.0000 0.0000 0.0000
# 2 75.8485 120.6958 97.7905 0.0000 0.0000 0.0000
# 3 79.0333 97.7905 260.1546 0.0000 0.0000 0.0000
# 4 0.0000 0.0000 0.0000 25.1372 0.0000 0.0000
# 5 0.0000 0.0000 0.0000 0.0000 -46.0109 0.0000
# 6 0.0000 0.0000 0.0000 0.0000 0.0000 62.0750
#
#
#
# Elastic Compliance Matrix: (Units=1/GPa)
#
#
# Indices 1 2 3 4 5 6 
#
# 1 0.011762 -0.006466 -0.001143 0.000000 0.000000 0.000000
# 2 -0.006466 0.015468 -0.003850 0.000000 0.000000 0.000000
# 3 -0.001143 -0.003850 0.005638 0.000000 0.000000 0.000000
# 4 0.000000 0.000000 0.000000 0.039782 0.000000 0.000000
# 5 0.000000 0.000000 0.000000 0.000000 -0.021734 0.000000
# 6 0.000000 0.000000 0.000000 0.000000 0.000000 0.016110
#
#
# Mechanical properties :
#
#
# Convention : Reuss Voigt Hill
#
# Bulk Modulus (GPa) = 100.49115 113.39860 106.94487
# Shear Modulus (GPa) = 53.61382 25.74498 39.67940
#
# Velocity S-wave (km/s) = 4.55424 3.15590 3.91796
# Velocity P-wave (km/s) = 8.15665 7.55970 7.86384
#
# Compressibility (1/GPa) = 0.00995113
#
# Stress axis : x y z
#
# Youngs Moduli (GPa) = 85.01908 64.65009 177.35940
#
# Poissons Ratio (x) = 0.41800 0.20269
# Poissons Ratio (y) = 0.54970 0.68284
# Poissons Ratio (z) = 0.09716 0.24891
#
# Static dielectric constant tensor:
#      x y z
#    x 4.626230 0.000000 0.000000 
#    y 0.000000 4.829340 0.000000 
#    z 0.000000 0.000000 4.869350 
# 
# 
# High freq. dielectric constant tensor:
#      x y z
#    x 2.041270 0.000000 0.000000 
#    y 0.000000 2.056210 0.000000 
#    z 0.000000 0.000000 2.047230 
# 
# From -- ./inp_files/2916.got.cif
#   From: 2010.03.12/outbox.cif.g09.slc.cpg/sg41_2_cif.got.tgz:2916.got - 2010.04.14 01:55:53.
