data_PCOD8185315
_publ_section_title
;
Structure prediction by ZEFSAII (Michael W. Deem and Ramdas Pophale) SiO2 
 PCOD8185315
Probable space group: A B A 2
;
_chemical_formula_sum "Si O2"
_cell_formula_units_Z 64
_cell_length_a 15.820653
_cell_length_b 9.398952
_cell_length_c 20.557114
_cell_angle_alpha 90.000000
_cell_angle_beta 90.000000
_cell_angle_gamma 90.000000
_cell_volume 3056.792655
_symmetry_space_group_name_H-M "A B A 2"
_symmetry_group_IT_number 41
_symmetry_cell_setting 'orthorhombic'
loop_
_space_group_symop_operation_xyz
x,y,z
-x,-y,z
1/2-x,y,1/2+z
1/2+x,-y,1/2+z
x,1/2+y,1/2+z
-x,1/2-y,1/2+z
1/2-x,1/2+y,z
1/2+x,1/2-y,z
loop_
_atom_site_type_symbol
_atom_site_label
_atom_site_fract_x
_atom_site_fract_y
_atom_site_fract_z
Si Si1 0.187038 0.343072 0.907800
Si Si2 0.447223 0.357535 0.769781
Si Si3 0.309112 0.508144 0.713941
Si Si4 0.498359 0.665818 0.389311
Si Si5 0.520878 0.161172 0.677465
Si Si6 0.582463 0.907517 0.094282
Si Si7 0.319110 0.314495 0.255912
Si Si8 0.169491 0.643297 0.963527
O O1 0.201224 0.339166 0.830910
O O2 0.201590 0.504600 0.927177
O O3 0.255396 0.255141 0.949829
O O4 0.089231 0.296055 0.922294
O O5 0.500000 0.500000 0.753597
O O6 0.352051 0.417776 0.773718
O O7 0.479768 0.278177 0.833017
O O8 0.443171 0.250201 0.707360
O O9 0.370346 0.508432 0.651867
O O10 0.221346 0.426188 0.704574
O O11 0.283491 0.661752 0.738135
O O12 0.500000 0.500000 0.365372
O O13 0.423000 0.693615 0.439754
O O14 0.557128 0.246969 0.615599
O O15 0.582010 0.170389 0.740902
O O16 0.500000 0.000000 0.656606
O O17 0.500000 0.000000 0.072116
O O18 0.654022 0.890387 0.039239
#
# Coordination Sequence:
#
# PCOD8185315 Si02
#       8
#     8   8   8   8   8   8   8   8
#     4  11  22  43  64  95 134 169 221 279 323 394
#     4  12  19  39  63  93 128 163 206 263 333 386
#     4  11  23  37  62  94 127 171 204 275 331 389
#     4  10  22  40  65  97 128 175 219 263 333 399
#     4  11  23  39  67  99 127 164 213 273 324 398
#     4  11  22  47  65  88 129 174 227 262 326 396
#     4  11  23  38  61 100 133 160 217 265 342 390
#     4  11  26  42  67  94 128 182 223 266 324 391
#
# _framework density 20.936978
#
# number of rings (size 3 to 8) (size 9 to 14) (size 15 to 20)
#    0.000    1.000    5.000    3.000    3.500    3.000 
#    0.000    4.375    0.000    0.000    0.000    0.000 
#    0.000    0.000    0.000    0.000    0.000    0.000 
#
# Total GULP energy -396492.506383 kJ/mol
# GULP energy per Si atom -12390.390824 kJ/mol
# Density = 2.088932 g / cm^3
# Si number density = 20.936978 Si / 1000 Ang^3
#
#
#
# Elastic Constant Matrix: (Units=GPa)
#
#
# Indices 1 2 3 4 5 6 
#
# 1 100.8591 49.2639 40.4554 0.0000 0.0000 0.0000
# 2 49.2639 123.5445 33.0960 0.0000 0.0000 0.0000
# 3 40.4554 33.0960 75.5449 0.0000 0.0000 0.0000
# 4 0.0000 0.0000 0.0000 19.1942 0.0000 0.0000
# 5 0.0000 0.0000 0.0000 0.0000 -65.9964 0.0000
# 6 0.0000 0.0000 0.0000 0.0000 0.0000 27.9013
#
#
#
# Elastic Compliance Matrix: (Units=1/GPa)
#
#
# Indices 1 2 3 4 5 6 
#
# 1 0.014271 -0.004128 -0.005834 0.000000 0.000000 0.000000
# 2 -0.004128 0.010364 -0.002330 0.000000 0.000000 0.000000
# 3 -0.005834 -0.002330 0.017382 0.000000 0.000000 0.000000
# 4 0.000000 0.000000 0.000000 0.052099 0.000000 0.000000
# 5 0.000000 0.000000 0.000000 0.000000 -0.015152 0.000000
# 6 0.000000 0.000000 0.000000 0.000000 0.000000 0.035841
#
#
# Mechanical properties :
#
#
# Convention : Reuss Voigt Hill
#
# Bulk Modulus (GPa) = 57.35972 60.61992 58.98982
# Shear Modulus (GPa) = 34.43523 8.02870 21.23197
#
# Velocity S-wave (km/s) = 4.05990 1.96036 3.18793
# Velocity P-wave (km/s) = 7.03085 5.84298 6.46426
#
# Compressibility (1/GPa) = 0.01743384
#
# Stress axis : x y z
#
# Youngs Moduli (GPa) = 70.07180 96.48371 57.53014
#
# Poissons Ratio (x) = 0.39827 0.33563
# Poissons Ratio (y) = 0.28924 0.13405
# Poissons Ratio (z) = 0.40880 0.22482
#
# Static dielectric constant tensor:
#      x y z
#    x 6.995290 0.000000 0.000000 
#    y 0.000000 3.982060 0.000000 
#    z 0.000000 0.000000 3.614760 
# 
# 
# High freq. dielectric constant tensor:
#      x y z
#    x 1.830460 0.000000 0.000000 
#    y 0.000000 1.828330 0.000000 
#    z 0.000000 0.000000 1.796100 
# 
# From -- ./inp_files/11667.got.cif
#   From: 2010.03.12/outbox.cif.g09.slc.cpg/sg41_6_cif.got.tgz:11667.got - 2010.04.14 01:55:53.
