data_PCOD8185145
_publ_section_title
;
Structure prediction by ZEFSAII (Michael W. Deem and Ramdas Pophale) SiO2 
 PCOD8185145
Probable space group: A B A 2
;
_chemical_formula_sum "Si O2"
_cell_formula_units_Z 40
_cell_length_a 18.352412
_cell_length_b 11.385553
_cell_length_c 8.247953
_cell_angle_alpha 90.000000
_cell_angle_beta 90.000000
_cell_angle_gamma 90.000000
_cell_volume 1723.429240
_symmetry_space_group_name_H-M "A B A 2"
_symmetry_group_IT_number 41
_symmetry_cell_setting 'orthorhombic'
loop_
_space_group_symop_operation_xyz
x,y,z
-x,-y,z
1/2-x,y,1/2+z
1/2+x,-y,1/2+z
x,1/2+y,1/2+z
-x,1/2-y,1/2+z
1/2-x,1/2+y,z
1/2+x,1/2-y,z
loop_
_atom_site_type_symbol
_atom_site_label
_atom_site_fract_x
_atom_site_fract_y
_atom_site_fract_z
Si Si1 0.666422 0.668186 0.722830
Si Si2 0.843582 0.477724 0.966322
Si Si3 0.095069 0.309334 0.779876
Si Si4 0.051935 0.236636 0.442752
Si Si5 0.224629 0.206853 0.919736
O O1 0.666636 0.540798 0.640549
O O2 0.585251 0.696868 0.786864
O O3 0.721217 0.683250 0.875765
O O4 0.691861 0.768895 0.596906
O O5 0.864318 0.570100 0.826289
O O6 0.909374 0.386535 0.978812
O O7 0.767688 0.415615 0.916735
O O8 0.061698 0.318687 0.601119
O O9 0.156813 0.206182 0.791979
O O10 0.033044 0.284495 0.912969
#
# Coordination Sequence:
#
# PCOD8185145 Si02
#       5
#     8   8   8   8   8
#     4  10  22  41  67  98 131 171 220 269 326 390
#     4  10  23  44  68  95 133 177 218 269 335 394
#     4  11  23  43  70  98 135 175 221 275 331 393
#     4  11  24  45  69  99 135 173 221 279 331 393
#     4  10  21  39  64  98 134 172 217 270 322 392
#
# _framework density 23.209538999999999
#
# number of rings (size 3 to 8) (size 9 to 14) (size 15 to 20)
#    0.000    1.600    0.000    5.400    0.000    9.600 
#    0.000   20.000    0.000    0.000    0.000    0.000 
#    0.000    0.000    0.000    0.000    0.000    0.000 
#
# Total GULP energy -247989.365018 kJ/mol
# GULP energy per Si atom -12399.468251 kJ/mol
# Density = 2.315671 g / cm^3
# Si number density = 23.209539 Si / 1000 Ang^3
#
#
#
# Elastic Constant Matrix: (Units=GPa)
#
#
# Indices 1 2 3 4 5 6 
#
# 1 136.7586 66.1134 17.2083 0.0000 0.0000 0.0000
# 2 66.1134 127.6837 52.1205 0.0000 0.0000 0.0000
# 3 17.2083 52.1205 83.8862 0.0000 0.0000 0.0000
# 4 0.0000 0.0000 0.0000 38.0480 0.0000 0.0000
# 5 0.0000 0.0000 0.0000 0.0000 47.0749 0.0000
# 6 0.0000 0.0000 0.0000 0.0000 0.0000 33.5007
#
#
#
# Elastic Compliance Matrix: (Units=1/GPa)
#
#
# Indices 1 2 3 4 5 6 
#
# 1 0.009901 -0.005758 0.001546 0.000000 0.000000 0.000000
# 2 -0.005758 0.013842 -0.007419 0.000000 0.000000 0.000000
# 3 0.001546 -0.007419 0.016213 0.000000 0.000000 0.000000
# 4 0.000000 0.000000 0.000000 0.026283 0.000000 0.000000
# 5 0.000000 0.000000 0.000000 0.000000 0.021243 0.000000
# 6 0.000000 0.000000 0.000000 0.000000 0.000000 0.029850
#
#
# Mechanical properties :
#
#
# Convention : Reuss Voigt Hill
#
# Bulk Modulus (GPa) = 59.89784 68.80145 64.34964
# Shear Modulus (GPa) = 34.20961 37.91713 36.06337
#
# Velocity S-wave (km/s) = 3.84337 4.04627 3.94612
# Velocity P-wave (km/s) = 6.74972 7.17898 6.96766
#
# Compressibility (1/GPa) = 0.01669509
#
# Stress axis : x y z
#
# Youngs Moduli (GPa) = 100.99828 72.24532 61.67782
#
# Poissons Ratio (x) = 0.41599 -0.09538
# Poissons Ratio (y) = 0.58155 0.45759
# Poissons Ratio (z) = -0.15619 0.53599
#
# Static dielectric constant tensor:
#      x y z
#    x 4.403100 0.000000 0.000000 
#    y 0.000000 3.925850 0.000000 
#    z 0.000000 0.000000 4.161110 
# 
# 
# High freq. dielectric constant tensor:
#      x y z
#    x 1.933580 0.000000 0.000000 
#    y 0.000000 1.893210 0.000000 
#    z 0.000000 0.000000 1.925870 
# 
# From -- ./inp_files/2896.got.cif
#   From: 2010.03.12/outbox.cif.g09.slc.cpg/sg41_2_cif.got.tgz:2896.got - 2010.04.14 01:55:53.
