data_PCOD8185169
_publ_section_title
;
Structure prediction by ZEFSAII (Michael W. Deem and Ramdas Pophale) SiO2 
 PCOD8185169
Probable space group: A B A 2
;
_chemical_formula_sum "Si O2"
_cell_formula_units_Z 40
_cell_length_a 26.638760
_cell_length_b 13.224213
_cell_length_c 4.943378
_cell_angle_alpha 90.000000
_cell_angle_beta 90.000000
_cell_angle_gamma 90.000000
_cell_volume 1741.436574
_symmetry_space_group_name_H-M "A B A 2"
_symmetry_group_IT_number 41
_symmetry_cell_setting 'orthorhombic'
loop_
_space_group_symop_operation_xyz
x,y,z
-x,-y,z
1/2-x,y,1/2+z
1/2+x,-y,1/2+z
x,1/2+y,1/2+z
-x,1/2-y,1/2+z
1/2-x,1/2+y,z
1/2+x,1/2-y,z
loop_
_atom_site_type_symbol
_atom_site_label
_atom_site_fract_x
_atom_site_fract_y
_atom_site_fract_z
Si Si1 0.851974 0.510268 0.991090
Si Si2 0.531561 0.271056 0.203895
Si Si3 0.103858 0.580693 0.491971
Si Si4 0.283291 0.172175 0.050543
Si Si5 0.140268 0.776413 0.706429
O O1 0.875904 0.506359 0.693178
O O2 0.801701 0.443753 0.016486
O O3 0.894564 0.464042 0.192018
O O4 0.837749 0.625113 0.059751
O O5 0.499318 0.288480 0.473603
O O6 0.581371 0.206564 0.285188
O O7 0.548291 0.380553 0.079142
O O8 0.142173 0.677564 0.508374
O O9 0.236085 0.192093 0.852061
O O10 0.327841 0.251063 0.975679
#
# Coordination Sequence:
#
# PCOD8185169 Si02
#       5
#     8   8   8   8   8
#     4  11  21  42  63  92 121 173 207 261 328 370
#     4  10  21  40  65  93 130 171 209 258 321 382
#     4   9  22  38  63  88 131 163 206 262 307 369
#     4  11  24  41  64  94 126 167 216 270 326 387
#     4   9  24  41  68  88 135 167 211 267 323 379
#
# _framework density 22.969542000000001
#
# number of rings (size 3 to 8) (size 9 to 14) (size 15 to 20)
#    1.200    0.800    0.000    3.600    0.000    8.000 
#    0.000    6.000    0.000    0.000    0.000    0.000 
#    0.000    0.000    0.000    0.000    0.000    0.000 
#
# Total GULP energy -247892.167051 kJ/mol
# GULP energy per Si atom -12394.608353 kJ/mol
# Density = 2.291726 g / cm^3
# Si number density = 22.969542 Si / 1000 Ang^3
#
#
#
# Elastic Constant Matrix: (Units=GPa)
#
#
# Indices 1 2 3 4 5 6 
#
# 1 99.5208 14.6185 25.8257 0.0000 0.0000 0.0000
# 2 14.6185 115.7187 12.1258 0.0000 0.0000 0.0000
# 3 25.8257 12.1258 69.7288 0.0000 0.0000 0.0000
# 4 0.0000 0.0000 0.0000 28.4994 0.0000 0.0000
# 5 0.0000 0.0000 0.0000 0.0000 31.7599 0.0000
# 6 0.0000 0.0000 0.0000 0.0000 0.0000 15.9875
#
#
#
# Elastic Compliance Matrix: (Units=1/GPa)
#
#
# Indices 1 2 3 4 5 6 
#
# 1 0.011229 -0.001001 -0.003985 0.000000 0.000000 0.000000
# 2 -0.001001 0.008891 -0.001175 0.000000 0.000000 0.000000
# 3 -0.003985 -0.001175 0.016022 0.000000 0.000000 0.000000
# 4 0.000000 0.000000 0.000000 0.035088 0.000000 0.000000
# 5 0.000000 0.000000 0.000000 0.000000 0.031486 0.000000
# 6 0.000000 0.000000 0.000000 0.000000 0.000000 0.062549
#
#
# Mechanical properties :
#
#
# Convention : Reuss Voigt Hill
#
# Bulk Modulus (GPa) = 41.98264 43.34535 42.66400
# Shear Modulus (GPa) = 26.95005 30.74259 28.84632
#
# Velocity S-wave (km/s) = 3.42906 3.66239 3.54764
# Velocity P-wave (km/s) = 5.83053 6.06596 5.94941
#
# Compressibility (1/GPa) = 0.02381937
#
# Stress axis : x y z
#
# Youngs Moduli (GPa) = 89.05291 112.46989 62.41571
#
# Poissons Ratio (x) = 0.11258 0.24872
# Poissons Ratio (y) = 0.08914 0.07337
# Poissons Ratio (z) = 0.35487 0.13220
#
# Static dielectric constant tensor:
#      x y z
#    x 4.006000 0.000000 0.000000 
#    y 0.000000 3.787180 0.000000 
#    z 0.000000 0.000000 3.945170 
# 
# 
# High freq. dielectric constant tensor:
#      x y z
#    x 1.898310 0.000000 0.000000 
#    y 0.000000 1.878600 0.000000 
#    z 0.000000 0.000000 1.910240 
# 
# From -- ./inp_files/909.got.cif
#   From: 2010.03.12/outbox.cif.g09.slc.cpg/sg41_1_cif.got.tgz:909.got - 2010.04.14 01:55:53.
