data_PCOD8185705
_publ_section_title
;
Structure prediction by ZEFSAII (Michael W. Deem and Ramdas Pophale) SiO2 
 PCOD8185705
Probable space group: A B A 2
;
_chemical_formula_sum "Si O2"
_cell_formula_units_Z 36
_cell_length_a 19.798512
_cell_length_b 14.629699
_cell_length_c 5.220172
_cell_angle_alpha 90.000000
_cell_angle_beta 90.000000
_cell_angle_gamma 90.000000
_cell_volume 1512.003355
_symmetry_space_group_name_H-M "A B A 2"
_symmetry_group_IT_number 41
_symmetry_cell_setting 'orthorhombic'
loop_
_space_group_symop_operation_xyz
x,y,z
-x,-y,z
1/2-x,y,1/2+z
1/2+x,-y,1/2+z
x,1/2+y,1/2+z
-x,1/2-y,1/2+z
1/2-x,1/2+y,z
1/2+x,1/2-y,z
loop_
_atom_site_type_symbol
_atom_site_label
_atom_site_fract_x
_atom_site_fract_y
_atom_site_fract_z
Si Si1 0.500000 0.000000 0.287580
Si Si2 0.500673 0.803068 0.766104
Si Si3 0.206258 0.249201 0.005265
Si Si4 0.611610 0.412737 0.147220
Si Si5 0.608726 0.588633 0.422560
O O1 0.448243 0.061696 0.450065
O O2 0.549291 0.064814 0.122705
O O3 0.523985 0.754729 0.507199
O O4 0.568426 0.856878 0.860381
O O5 0.434276 0.863491 0.693932
O O6 0.237049 0.252177 0.722345
O O7 0.162164 0.341248 0.045083
O O8 0.168008 0.151795 0.022433
O O9 0.645021 0.500031 0.293129
#
# Coordination Sequence:
#
# PCOD8185705 Si02
#       5
#     4   8   8   8   8
#     4  12  24  48  78 130 150 186 254 344 420 444
#     4  12  24  42  76 118 152 192 243 335 407 453
#     4  12  34  54  74 108 158 224 268 302 376 482
#     4  12  27  45  81 116 157 196 262 330 404 463
#     4  12  27  45  81 116 157 196 262 330 404 463
#
# _framework density 23.809472
#
# number of rings (size 3 to 8) (size 9 to 14) (size 15 to 20)
#    0.000    0.000    6.667    1.333    9.333    1.778 
#    0.000    0.000    0.000    0.000    0.000    0.000 
#    0.000    0.000    0.000    0.000    0.000    0.000 
#
# Total GULP energy -223001.686375 kJ/mol
# GULP energy per Si atom -12388.982576 kJ/mol
# Density = 2.375528 g / cm^3
# Si number density = 23.809472 Si / 1000 Ang^3
#
#
#
# Elastic Constant Matrix: (Units=GPa)
#
#
# Indices 1 2 3 4 5 6 
#
# 1 98.8028 52.5503 18.7480 0.0000 0.0000 0.0000
# 2 52.5503 156.5940 34.3467 0.0000 0.0000 0.0000
# 3 18.7480 34.3467 75.9153 0.0000 0.0000 0.0000
# 4 0.0000 0.0000 0.0000 29.1806 0.0000 0.0000
# 5 0.0000 0.0000 0.0000 0.0000 36.7857 0.0000
# 6 0.0000 0.0000 0.0000 0.0000 0.0000 49.7602
#
#
#
# Elastic Compliance Matrix: (Units=1/GPa)
#
#
# Indices 1 2 3 4 5 6 
#
# 1 0.012437 -0.003886 -0.001313 0.000000 0.000000 0.000000
# 2 -0.003886 0.008303 -0.002797 0.000000 0.000000 0.000000
# 3 -0.001313 -0.002797 0.014762 0.000000 0.000000 0.000000
# 4 0.000000 0.000000 0.000000 0.034269 0.000000 0.000000
# 5 0.000000 0.000000 0.000000 0.000000 0.027184 0.000000
# 6 0.000000 0.000000 0.000000 0.000000 0.000000 0.020096
#
#
# Mechanical properties :
#
#
# Convention : Reuss Voigt Hill
#
# Bulk Modulus (GPa) = 51.25448 60.28913 55.77180
# Shear Modulus (GPa) = 35.82972 38.18978 37.00975
#
# Velocity S-wave (km/s) = 3.88345 4.00931 3.94688
# Velocity P-wave (km/s) = 6.45615 6.84173 6.65173
#
# Compressibility (1/GPa) = 0.01951049
#
# Stress axis : x y z
#
# Youngs Moduli (GPa) = 80.40510 120.43272 67.73926
#
# Poissons Ratio (x) = 0.46795 0.08897
# Poissons Ratio (y) = 0.31242 0.18948
# Poissons Ratio (z) = 0.10561 0.33687
#
# Static dielectric constant tensor:
#      x y z
#    x 4.094140 0.000000 0.000000 
#    y 0.000000 5.208180 0.000000 
#    z 0.000000 0.000000 4.154530 
# 
# 
# High freq. dielectric constant tensor:
#      x y z
#    x 1.927520 0.000000 0.000000 
#    y 0.000000 1.978480 0.000000 
#    z 0.000000 0.000000 1.936640 
# 
# From -- ./inp_files/644.got.cif
#   From: 2010.03.12/outbox.cif.g09.slc.cpg/sg41_1_cif.got.tgz:644.got - 2010.04.14 01:55:53.
