data_PCOD8185659
_publ_section_title
;
Structure prediction by ZEFSAII (Michael W. Deem and Ramdas Pophale) SiO2 
 PCOD8185659
Probable space group: A B A 2
;
_chemical_formula_sum "Si O2"
_cell_formula_units_Z 48
_cell_length_a 11.073961
_cell_length_b 13.928803
_cell_length_c 13.891454
_cell_angle_alpha 90.000000
_cell_angle_beta 90.000000
_cell_angle_gamma 90.000000
_cell_volume 2142.715400
_symmetry_space_group_name_H-M "A B A 2"
_symmetry_group_IT_number 41
_symmetry_cell_setting 'orthorhombic'
loop_
_space_group_symop_operation_xyz
x,y,z
-x,-y,z
1/2-x,y,1/2+z
1/2+x,-y,1/2+z
x,1/2+y,1/2+z
-x,1/2-y,1/2+z
1/2-x,1/2+y,z
1/2+x,1/2-y,z
loop_
_atom_site_type_symbol
_atom_site_label
_atom_site_fract_x
_atom_site_fract_y
_atom_site_fract_z
Si Si1 0.711656 0.624793 0.126880
Si Si2 0.000000 0.000000 0.052216
Si Si3 0.345883 0.667174 0.583148
Si Si4 0.087049 0.347654 0.975734
Si Si5 0.245894 0.538234 0.745931
Si Si6 0.345464 0.641981 0.928254
Si Si7 0.500000 0.500000 0.328130
O O1 0.594156 0.557689 0.117345
O O2 0.674029 0.734723 0.143486
O O3 0.791258 0.621803 0.030444
O O4 0.772441 0.576420 0.223433
O O5 0.064640 0.078315 0.988233
O O6 0.486363 0.652293 0.560080
O O7 0.284796 0.585005 0.645520
O O8 0.282156 0.662029 0.479349
O O9 0.092227 0.246336 0.919279
O O10 0.070988 0.425734 0.894215
O O11 0.326881 0.585813 0.828381
O O12 0.102960 0.554766 0.766523
#
# Coordination Sequence:
#
# PCOD8185659 Si02
#       7
#     8   4   8   8   8   8   4
#     4  11  25  43  76 102 142 194 239 300 373 434
#     4  12  21  48  69 104 140 194 235 298 371 452
#     4  11  24  48  71 104 148 192 243 302 374 451
#     4  11  24  49  75 100 152 201 240 305 379 447
#     4  12  26  44  72 111 141 187 252 306 370 447
#     4  11  25  45  72 105 146 190 244 305 367 445
#     4  12  25  44  75 106 144 190 247 310 373 452
#
# _framework density 22.401482999999999
#
# number of rings (size 3 to 8) (size 9 to 14) (size 15 to 20)
#    0.000    0.667    5.000    2.500    2.333    1.333 
#    3.000    0.000    0.000    0.000    0.000    0.000 
#    0.000    0.000    0.000    0.000    0.000    0.000 
#
# Total GULP energy -297489.448185 kJ/mol
# GULP energy per Si atom -12395.393674 kJ/mol
# Density = 2.235050 g / cm^3
# Si number density = 22.401483 Si / 1000 Ang^3
#
#
#
# Elastic Constant Matrix: (Units=GPa)
#
#
# Indices 1 2 3 4 5 6 
#
# 1 84.1045 24.2379 16.3261 0.0000 0.0000 0.0000
# 2 24.2379 105.3288 22.7158 0.0000 0.0000 0.0000
# 3 16.3261 22.7158 75.7248 0.0000 0.0000 0.0000
# 4 0.0000 0.0000 0.0000 44.2824 0.0000 0.0000
# 5 0.0000 0.0000 0.0000 0.0000 38.2865 0.0000
# 6 0.0000 0.0000 0.0000 0.0000 0.0000 40.4090
#
#
#
# Elastic Compliance Matrix: (Units=1/GPa)
#
#
# Indices 1 2 3 4 5 6 
#
# 1 0.013023 -0.002557 -0.002041 0.000000 0.000000 0.000000
# 2 -0.002557 0.010653 -0.002644 0.000000 0.000000 0.000000
# 3 -0.002041 -0.002644 0.014439 0.000000 0.000000 0.000000
# 4 0.000000 0.000000 0.000000 0.022582 0.000000 0.000000
# 5 0.000000 0.000000 0.000000 0.000000 0.026119 0.000000
# 6 0.000000 0.000000 0.000000 0.000000 0.000000 0.024747
#
#
# Mechanical properties :
#
#
# Convention : Reuss Voigt Hill
#
# Bulk Modulus (GPa) = 42.31735 43.52419 42.92077
# Shear Modulus (GPa) = 37.33477 38.05412 37.69444
#
# Velocity S-wave (km/s) = 4.08686 4.12604 4.10649
# Velocity P-wave (km/s) = 6.41882 6.49386 6.45645
#
# Compressibility (1/GPa) = 0.02363097
#
# Stress axis : x y z
#
# Youngs Moduli (GPa) = 76.78772 93.87281 69.25707
#
# Poissons Ratio (x) = 0.24000 0.14134
# Poissons Ratio (y) = 0.19632 0.18314
# Poissons Ratio (z) = 0.15671 0.24823
#
# Static dielectric constant tensor:
#      x y z
#    x 4.087850 0.000000 0.000000 
#    y 0.000000 4.501990 0.000000 
#    z 0.000000 0.000000 3.984540 
# 
# 
# High freq. dielectric constant tensor:
#      x y z
#    x 1.885610 0.000000 0.000000 
#    y 0.000000 1.898510 0.000000 
#    z 0.000000 0.000000 1.876030 
# 
# From -- ./inp_files/7924.got.cif
#   From: 2010.03.12/outbox.cif.g09.slc.cpg/sg41_4_cif.got.tgz:7924.got - 2010.04.14 01:55:53.
