data_PCOD8185170
_publ_section_title
;
Structure prediction by ZEFSAII (Michael W. Deem and Ramdas Pophale) SiO2 
 PCOD8185170
Probable space group: A B A 2
;
_chemical_formula_sum "Si O2"
_cell_formula_units_Z 48
_cell_length_a 27.063779
_cell_length_b 13.881937
_cell_length_c 5.201251
_cell_angle_alpha 90.000000
_cell_angle_beta 90.000000
_cell_angle_gamma 90.000000
_cell_volume 1954.097908
_symmetry_space_group_name_H-M "A B A 2"
_symmetry_group_IT_number 41
_symmetry_cell_setting 'orthorhombic'
loop_
_space_group_symop_operation_xyz
x,y,z
-x,-y,z
1/2-x,y,1/2+z
1/2+x,-y,1/2+z
x,1/2+y,1/2+z
-x,1/2-y,1/2+z
1/2-x,1/2+y,z
1/2+x,1/2-y,z
loop_
_atom_site_type_symbol
_atom_site_label
_atom_site_fract_x
_atom_site_fract_y
_atom_site_fract_z
Si Si1 0.925967 0.580044 0.262860
Si Si2 0.224672 0.239635 0.906703
Si Si3 0.484814 0.194896 0.334457
Si Si4 0.614736 0.283076 0.071971
Si Si5 0.225285 0.962500 0.375617
Si Si6 0.885370 0.484792 0.781688
O O1 0.984992 0.595272 0.300207
O O2 0.899325 0.683784 0.214979
O O3 0.901856 0.529753 0.509621
O O4 0.922244 0.514412 0.009459
O O5 0.247313 0.191093 0.649927
O O6 0.239217 0.350948 0.893572
O O7 0.165972 0.225015 0.920278
O O8 0.506691 0.236774 0.596095
O O9 0.426129 0.182750 0.363481
O O10 0.617348 0.369164 0.278690
O O11 0.247080 0.011714 0.633279
O O12 0.167125 0.972819 0.357623
#
# Coordination Sequence:
#
# PCOD8185170 Si02
#       6
#     8   8   8   8   8   8
#     4  11  25  47  69 101 146 177 234 292 346 413
#     4  10  23  39  68  99 136 184 226 284 347 406
#     4  10  23  44  73 101 135 187 225 286 351 411
#     4  11  26  47  73 104 141 182 239 281 354 415
#     4  10  21  40  65  96 138 182 229 280 347 413
#     4  12  26  43  74 104 133 191 228 290 350 412
#
# _framework density 24.563762000000001
#
# number of rings (size 3 to 8) (size 9 to 14) (size 15 to 20)
#    0.000    1.333    1.667    3.000    4.667    8.667 
#    0.000    5.000    0.000    0.000    0.000    0.000 
#    0.000    0.000    0.000    0.000    0.000    0.000 
#
# Total GULP energy -297568.385577 kJ/mol
# GULP energy per Si atom -12398.682732 kJ/mol
# Density = 2.450785 g / cm^3
# Si number density = 24.563762 Si / 1000 Ang^3
#
#
#
# Elastic Constant Matrix: (Units=GPa)
#
#
# Indices 1 2 3 4 5 6 
#
# 1 126.9754 -17.0050 50.5030 0.0000 0.0000 0.0000
# 2 -17.0050 77.9789 23.7771 0.0000 0.0000 0.0000
# 3 50.5030 23.7771 190.6731 0.0000 0.0000 0.0000
# 4 0.0000 0.0000 0.0000 5.2410 0.0000 0.0000
# 5 0.0000 0.0000 0.0000 0.0000 43.9681 0.0000
# 6 0.0000 0.0000 0.0000 0.0000 0.0000 -7.1543
#
#
#
# Elastic Compliance Matrix: (Units=1/GPa)
#
#
# Indices 1 2 3 4 5 6 
#
# 1 0.009402 0.002921 -0.002855 0.000000 0.000000 0.000000
# 2 0.002921 0.014238 -0.002549 0.000000 0.000000 0.000000
# 3 -0.002855 -0.002549 0.006319 0.000000 0.000000 0.000000
# 4 0.000000 0.000000 0.000000 0.190804 0.000000 0.000000
# 5 0.000000 0.000000 0.000000 0.000000 0.022744 0.000000
# 6 0.000000 0.000000 0.000000 0.000000 0.000000 -0.139776
#
#
# Mechanical properties :
#
#
# Convention : Reuss Voigt Hill
#
# Bulk Modulus (GPa) = 40.01134 56.68640 48.34887
# Shear Modulus (GPa) = 42.72490 30.96776 36.84633
#
# Velocity S-wave (km/s) = 4.17507 3.55450 3.87722
# Velocity P-wave (km/s) = 6.29013 6.32244 6.30631
#
# Compressibility (1/GPa) = 0.02499291
#
# Stress axis : x y z
#
# Youngs Moduli (GPa) = 106.35994 70.23369 158.26491
#
# Poissons Ratio (x) = -0.20513 0.45177
# Poissons Ratio (y) = -0.31065 0.40344
# Poissons Ratio (z) = 0.30360 0.17903
#
# Static dielectric constant tensor:
#      x y z
#    x 4.558800 0.000000 0.000000 
#    y 0.000000 4.419310 0.000000 
#    z 0.000000 0.000000 4.769080 
# 
# 
# High freq. dielectric constant tensor:
#      x y z
#    x 1.983700 0.000000 0.000000 
#    y 0.000000 1.980060 0.000000 
#    z 0.000000 0.000000 1.987780 
# 
# From -- ./inp_files/1135.got.cif
#   From: 2010.03.12/outbox.cif.g09.slc.cpg/sg41_1_cif.got.tgz:1135.got - 2010.04.14 01:55:53.
