data_PCOD8185571
_publ_section_title
;
Structure prediction by ZEFSAII (Michael W. Deem and Ramdas Pophale) SiO2 
 PCOD8185571
Probable space group: A B A 2
;
_chemical_formula_sum "Si O2"
_cell_formula_units_Z 56
_cell_length_a 13.953297
_cell_length_b 11.741237
_cell_length_c 15.784092
_cell_angle_alpha 90.000000
_cell_angle_beta 90.000000
_cell_angle_gamma 90.000000
_cell_volume 2585.891488
_symmetry_space_group_name_H-M "A B A 2"
_symmetry_group_IT_number 41
_symmetry_cell_setting 'orthorhombic'
loop_
_space_group_symop_operation_xyz
x,y,z
-x,-y,z
1/2-x,y,1/2+z
1/2+x,-y,1/2+z
x,1/2+y,1/2+z
-x,1/2-y,1/2+z
1/2-x,1/2+y,z
1/2+x,1/2-y,z
loop_
_atom_site_type_symbol
_atom_site_label
_atom_site_fract_x
_atom_site_fract_y
_atom_site_fract_z
Si Si1 0.853712 0.662846 0.634470
Si Si2 0.161281 0.562628 0.437640
Si Si3 0.500000 0.000000 0.557431
Si Si4 0.107880 0.163629 0.776605
Si Si5 0.392125 0.336373 0.840243
Si Si6 0.000000 0.000000 0.559416
Si Si7 0.338720 0.937373 0.179207
Si Si8 0.646288 0.337153 0.482377
O O1 0.874477 0.720800 0.725356
O O2 0.763406 0.577014 0.633881
O O3 0.836052 0.749999 0.558423
O O4 0.946538 0.588167 0.617225
O O5 0.072711 0.577688 0.502062
O O6 0.164767 0.661262 0.365535
O O7 0.146839 0.437627 0.399038
O O8 0.263408 0.577013 0.482964
O O9 0.000003 0.142974 0.808424
O O10 0.146845 0.062379 0.717804
O O11 0.335237 0.338740 0.751313
O O12 0.374480 0.220805 0.891493
O O13 0.072709 0.922311 0.614787
O O14 0.946536 0.911835 0.499622
#
# Coordination Sequence:
#
# PCOD8185571 Si02
#       8
#     8   8   4   8   8   4   8   8
#     4  12  26  43  70 106 136 180 235 294 352 403
#     4  11  22  45  71  96 137 181 235 274 347 428
#     4  12  24  47  69 104 144 178 228 298 347 420
#     4  11  22  46  70  97 138 190 227 282 352 416
#     4  11  22  46  70  97 138 190 227 282 352 416
#     4  12  24  47  69 104 144 178 228 298 347 420
#     4  11  22  45  71  96 137 181 235 274 347 428
#     4  12  26  43  70 106 136 180 235 294 352 403
#
# _framework density 21.655974000000001
#
# number of rings (size 3 to 8) (size 9 to 14) (size 15 to 20)
#    0.000    0.571    5.714    2.571    0.000    3.429 
#   10.286    0.000    0.000    0.000    0.000    0.000 
#    0.000    0.000    0.000    0.000    0.000    0.000 
#
# Total GULP energy -347082.278715 kJ/mol
# GULP energy per Si atom -12395.795668 kJ/mol
# Density = 2.160668 g / cm^3
# Si number density = 21.655974 Si / 1000 Ang^3
#
#
#
# Elastic Constant Matrix: (Units=GPa)
#
#
# Indices 1 2 3 4 5 6 
#
# 1 154.5388 75.8363 53.3748 0.0000 0.0000 0.0000
# 2 75.8363 103.1956 65.9936 0.0000 0.0000 0.0000
# 3 53.3748 65.9936 94.6367 0.0000 0.0000 0.0000
# 4 0.0000 0.0000 0.0000 33.2185 0.0000 0.0000
# 5 0.0000 0.0000 0.0000 0.0000 9.5442 0.0000
# 6 0.0000 0.0000 0.0000 0.0000 0.0000 40.6981
#
#
#
# Elastic Compliance Matrix: (Units=1/GPa)
#
#
# Indices 1 2 3 4 5 6 
#
# 1 0.010167 -0.006867 -0.000946 0.000000 0.000000 0.000000
# 2 -0.006867 0.022128 -0.011558 0.000000 0.000000 0.000000
# 3 -0.000946 -0.011558 0.019160 0.000000 0.000000 0.000000
# 4 0.000000 0.000000 0.000000 0.030104 0.000000 0.000000
# 5 0.000000 0.000000 0.000000 0.000000 0.104776 0.000000
# 6 0.000000 0.000000 0.000000 0.000000 0.000000 0.024571
#
#
# Mechanical properties :
#
#
# Convention : Reuss Voigt Hill
#
# Bulk Modulus (GPa) = 78.65228 82.53116 80.59172
# Shear Modulus (GPa) = 19.69400 27.16991 23.43196
#
# Velocity S-wave (km/s) = 3.01890 3.54590 3.29296
# Velocity P-wave (km/s) = 6.96775 7.41332 7.19399
#
# Compressibility (1/GPa) = 0.01271419
#
# Stress axis : x y z
#
# Youngs Moduli (GPa) = 98.35460 45.19208 52.19299
#
# Poissons Ratio (x) = 0.31033 0.04936
# Poissons Ratio (y) = 0.67539 0.60322
# Poissons Ratio (z) = 0.09302 0.52231
#
# Static dielectric constant tensor:
#      x y z
#    x 3.932430 0.000000 0.000000 
#    y 0.000000 3.864550 0.000000 
#    z 0.000000 0.000000 4.347370 
# 
# 
# High freq. dielectric constant tensor:
#      x y z
#    x 1.861350 0.000000 0.000000 
#    y 0.000000 1.830330 0.000000 
#    z 0.000000 0.000000 1.868270 
# 
# From -- ./inp_files/8411.got.cif
#   From: 2010.03.12/outbox.cif.g09.slc.cpg/sg41_5_cif.got.tgz:8411.got - 2010.04.14 01:55:53.
