data_PCOD8185576
_publ_section_title
;
Structure prediction by ZEFSAII (Michael W. Deem and Ramdas Pophale) SiO2 
 PCOD8185576
Probable space group: A B A 2
;
_chemical_formula_sum "Si O2"
_cell_formula_units_Z 64
_cell_length_a 29.781941
_cell_length_b 10.529267
_cell_length_c 9.675961
_cell_angle_alpha 90.000000
_cell_angle_beta 90.000000
_cell_angle_gamma 90.000000
_cell_volume 3034.207285
_symmetry_space_group_name_H-M "A B A 2"
_symmetry_group_IT_number 41
_symmetry_cell_setting 'orthorhombic'
loop_
_space_group_symop_operation_xyz
x,y,z
-x,-y,z
1/2-x,y,1/2+z
1/2+x,-y,1/2+z
x,1/2+y,1/2+z
-x,1/2-y,1/2+z
1/2-x,1/2+y,z
1/2+x,1/2-y,z
loop_
_atom_site_type_symbol
_atom_site_label
_atom_site_fract_x
_atom_site_fract_y
_atom_site_fract_z
Si Si1 0.886909 0.382391 0.981440
Si Si2 0.244650 0.338541 0.884098
Si Si3 0.378399 0.940953 0.225696
Si Si4 0.197587 0.747580 0.642509
Si Si5 0.977561 0.135861 0.697319
Si Si6 0.832875 0.507124 0.762919
Si Si7 0.988370 0.859137 0.398976
Si Si8 0.660790 0.623942 0.990842
O O1 0.871157 0.494001 0.878462
O O2 0.937276 0.345826 0.947150
O O3 0.852930 0.267449 0.950747
O O4 0.883725 0.428819 0.139969
O O5 0.261526 0.260535 0.751478
O O6 0.213698 0.454164 0.833786
O O7 0.286174 0.396790 0.969520
O O8 0.216643 0.247663 0.986783
O O9 0.337933 0.860722 0.159637
O O10 0.424702 0.863877 0.225637
O O11 0.365988 0.970064 0.386148
O O12 0.173220 0.615653 0.667274
O O13 0.999642 0.250507 0.786245
O O14 0.982113 0.165424 0.535119
O O15 0.000000 0.000000 0.736415
O O16 0.851623 0.608136 0.651508
O O17 0.000000 0.000000 0.338985
#
# Coordination Sequence:
#
# PCOD8185576 Si02
#       8
#     8   8   8   8   8   8   8   8
#     4  12  23  47  70  94 141 175 219 289 338 401
#     4  11  23  40  61  96 130 175 228 271 334 388
#     4  11  22  47  68  93 142 177 214 283 343 392
#     4  11  24  41  66  94 134 178 222 287 327 399
#     4  11  23  46  71 105 138 180 225 278 346 420
#     4  12  25  42  68  97 134 177 231 276 336 399
#     4  11  24  45  74 104 138 178 227 281 350 415
#     4  11  26  42  64 101 131 178 225 277 335 402
#
# _framework density 21.092825000000001
#
# number of rings (size 3 to 8) (size 9 to 14) (size 15 to 20)
#    0.000    0.750    8.750    0.000    1.750    4.500 
#    4.500    0.000    0.000    0.000    0.000    0.000 
#    0.000    0.000    0.000    0.000    0.000    0.000 
#
# Total GULP energy -396809.180401 kJ/mol
# GULP energy per Si atom -12400.286888 kJ/mol
# Density = 2.104482 g / cm^3
# Si number density = 21.092825 Si / 1000 Ang^3
#
#
#
# Elastic Constant Matrix: (Units=GPa)
#
#
# Indices 1 2 3 4 5 6 
#
# 1 76.5650 -0.2092 18.8000 0.0000 0.0000 0.0000
# 2 -0.2092 75.1382 36.4231 0.0000 0.0000 0.0000
# 3 18.8000 36.4231 107.8083 0.0000 0.0000 0.0000
# 4 0.0000 0.0000 0.0000 38.1665 0.0000 0.0000
# 5 0.0000 0.0000 0.0000 0.0000 27.3183 0.0000
# 6 0.0000 0.0000 0.0000 0.0000 0.0000 22.8271
#
#
#
# Elastic Compliance Matrix: (Units=1/GPa)
#
#
# Indices 1 2 3 4 5 6 
#
# 1 0.013774 0.001438 -0.002888 0.000000 0.000000 0.000000
# 2 0.001438 0.016065 -0.005679 0.000000 0.000000 0.000000
# 3 -0.002888 -0.005679 0.011698 0.000000 0.000000 0.000000
# 4 0.000000 0.000000 0.000000 0.026201 0.000000 0.000000
# 5 0.000000 0.000000 0.000000 0.000000 0.036606 0.000000
# 6 0.000000 0.000000 0.000000 0.000000 0.000000 0.043808
#
#
# Mechanical properties :
#
#
# Convention : Reuss Voigt Hill
#
# Bulk Modulus (GPa) = 36.65581 41.05992 38.85786
# Shear Modulus (GPa) = 29.15435 31.29556 30.22495
#
# Velocity S-wave (km/s) = 3.72182 3.85607 3.78954
# Velocity P-wave (km/s) = 5.99043 6.27170 6.13268
#
# Compressibility (1/GPa) = 0.02728080
#
# Stress axis : x y z
#
# Youngs Moduli (GPa) = 72.60156 62.24533 85.48610
#
# Poissons Ratio (x) = -0.08952 0.24687
# Poissons Ratio (y) = -0.10442 0.48543
# Poissons Ratio (z) = 0.20966 0.35346
#
# Static dielectric constant tensor:
#      x y z
#    x 3.775210 0.000000 0.000000 
#    y 0.000000 3.623260 0.000000 
#    z 0.000000 0.000000 3.995170 
# 
# 
# High freq. dielectric constant tensor:
#      x y z
#    x 1.828700 0.000000 0.000000 
#    y 0.000000 1.808730 0.000000 
#    z 0.000000 0.000000 1.840020 
# 
# From -- ./inp_files/3976.got.cif
#   From: 2010.03.12/outbox.cif.g09.slc.cpg/sg41_2_cif.got.tgz:3976.got - 2010.04.14 01:55:53.
