data_PCOD8185128
_publ_section_title
;
Structure prediction by ZEFSAII (Michael W. Deem and Ramdas Pophale) SiO2 
 PCOD8185128
Probable space group: A B A 2
;
_chemical_formula_sum "Si O2"
_cell_formula_units_Z 60
_cell_length_a 23.890606
_cell_length_b 25.317154
_cell_length_c 5.048703
_cell_angle_alpha 90.000000
_cell_angle_beta 90.000000
_cell_angle_gamma 90.000000
_cell_volume 3053.668384
_symmetry_space_group_name_H-M "A B A 2"
_symmetry_group_IT_number 41
_symmetry_cell_setting 'orthorhombic'
loop_
_space_group_symop_operation_xyz
x,y,z
-x,-y,z
1/2-x,y,1/2+z
1/2+x,-y,1/2+z
x,1/2+y,1/2+z
-x,1/2-y,1/2+z
1/2-x,1/2+y,z
1/2+x,1/2-y,z
loop_
_atom_site_type_symbol
_atom_site_label
_atom_site_fract_x
_atom_site_fract_y
_atom_site_fract_z
Si Si1 0.549049 0.401035 0.009500
Si Si2 0.461923 0.751880 0.496025
Si Si3 0.099539 0.645925 0.027181
Si Si4 0.070506 0.863839 0.890518
Si Si5 0.401766 0.927908 0.891338
Si Si6 0.500000 0.000000 0.729964
Si Si7 0.213027 0.990099 0.395274
Si Si8 0.784506 0.387599 0.873795
O O1 0.562498 0.381098 0.301965
O O2 0.536829 0.463342 0.034645
O O3 0.597713 0.389696 0.795778
O O4 0.496105 0.370296 0.893719
O O5 0.503610 0.765476 0.736445
O O6 0.421744 0.704563 0.586379
O O7 0.420768 0.801283 0.432982
O O8 0.163347 0.649802 0.934612
O O9 0.094287 0.882134 0.609307
O O10 0.101005 0.899128 0.109714
O O11 0.345022 0.959873 0.931870
O O12 0.456787 0.965766 0.908406
O O13 0.256460 0.974501 0.624356
O O14 0.196915 0.051629 0.403546
O O15 0.765200 0.374708 0.577389
#
# Coordination Sequence:
#
# PCOD8185128 Si02
#       8
#     8   8   8   8   8   4   8   8
#     4  11  22  35  55  87 121 159 190 230 292 373
#     4  12  22  39  62  88 120 161 204 249 296 372
#     4  12  22  38  62  84 117 160 199 247 300 358
#     4  11  22  37  56  87 124 153 195 245 297 348
#     4  11  23  38  59  86 124 162 197 249 301 369
#     4  10  24  36  56  90 132 162 188 236 318 386
#     4  10  21  39  61  85 113 159 209 248 290 357
#     4  10  22  38  59  85 115 148 200 253 301 354
#
# _framework density 19.648496999999999
#
# number of rings (size 3 to 8) (size 9 to 14) (size 15 to 20)
#    0.000    1.067    2.667    4.800    0.000    9.067 
#    0.000    0.000    0.000    4.800    0.000    0.000 
#    0.000    0.000    0.000    0.000    0.000    0.000 
#
# Total GULP energy -372116.487551 kJ/mol
# GULP energy per Si atom -12403.882918 kJ/mol
# Density = 1.960378 g / cm^3
# Si number density = 19.648497 Si / 1000 Ang^3
#
#
#
# Elastic Constant Matrix: (Units=GPa)
#
#
# Indices 1 2 3 4 5 6 
#
# 1 77.8415 32.9251 5.1828 0.0000 0.0000 0.0000
# 2 32.9251 98.3564 20.3939 0.0000 0.0000 0.0000
# 3 5.1828 20.3939 82.4528 0.0000 0.0000 0.0000
# 4 0.0000 0.0000 0.0000 25.0504 0.0000 0.0000
# 5 0.0000 0.0000 0.0000 0.0000 21.0563 0.0000
# 6 0.0000 0.0000 0.0000 0.0000 0.0000 21.9485
#
#
#
# Elastic Compliance Matrix: (Units=1/GPa)
#
#
# Indices 1 2 3 4 5 6 
#
# 1 0.014973 -0.005078 0.000315 0.000000 0.000000 0.000000
# 2 -0.005078 0.012439 -0.002757 0.000000 0.000000 0.000000
# 3 0.000315 -0.002757 0.012790 0.000000 0.000000 0.000000
# 4 0.000000 0.000000 0.000000 0.039920 0.000000 0.000000
# 5 0.000000 0.000000 0.000000 0.000000 0.047492 0.000000
# 6 0.000000 0.000000 0.000000 0.000000 0.000000 0.045561
#
#
# Mechanical properties :
#
#
# Convention : Reuss Voigt Hill
#
# Bulk Modulus (GPa) = 39.74293 41.73937 40.74115
# Shear Modulus (GPa) = 25.43199 26.95430 26.19315
#
# Velocity S-wave (km/s) = 3.60161 3.70783 3.65511
# Velocity P-wave (km/s) = 6.12914 6.29443 6.21233
#
# Compressibility (1/GPa) = 0.02516171
#
# Stress axis : x y z
#
# Youngs Moduli (GPa) = 66.78521 80.39497 78.18375
#
# Poissons Ratio (x) = 0.40822 -0.02460
# Poissons Ratio (y) = 0.33911 0.21558
# Poissons Ratio (z) = -0.02102 0.22168
#
# Static dielectric constant tensor:
#      x y z
#    x 3.351760 0.000000 0.000000 
#    y 0.000000 3.546950 0.000000 
#    z 0.000000 0.000000 3.725170 
# 
# 
# High freq. dielectric constant tensor:
#      x y z
#    x 1.745290 0.000000 0.000000 
#    y 0.000000 1.755600 0.000000 
#    z 0.000000 0.000000 1.784380 
# 
# From -- ./inp_files/789.got.cif
#   From: 2010.03.12/outbox.cif.g09.slc.cpg/sg41_1_cif.got.tgz:789.got - 2010.04.14 01:55:53.
