data_PCOD8185782
_publ_section_title
;
Structure prediction by ZEFSAII (Michael W. Deem and Ramdas Pophale) SiO2 
 PCOD8185782
Probable space group: F M M 2
;
_chemical_formula_sum "Si O2"
_cell_formula_units_Z 112
_cell_length_a 22.426145
_cell_length_b 18.319119
_cell_length_c 17.355711
_cell_angle_alpha 90.000000
_cell_angle_beta 90.000000
_cell_angle_gamma 90.000000
_cell_volume 7130.198483
_symmetry_space_group_name_H-M "F M M 2"
_symmetry_group_IT_number 42
_symmetry_cell_setting 'orthorhombic'
loop_
_space_group_symop_operation_xyz
x,y,z
-x,-y,z
-x,y,z
x,-y,z
x,1/2+y,1/2+z
-x,1/2-y,1/2+z
-x,1/2+y,1/2+z
x,1/2-y,1/2+z
1/2+x,y,1/2+z
1/2-x,-y,1/2+z
1/2-x,y,1/2+z
1/2+x,-y,1/2+z
1/2+x,1/2+y,z
1/2-x,1/2-y,z
1/2-x,1/2+y,z
1/2+x,1/2-y,z
loop_
_atom_site_type_symbol
_atom_site_label
_atom_site_fract_x
_atom_site_fract_y
_atom_site_fract_z
Si Si1 0.343046 0.085794 0.864500
Si Si2 0.285201 0.414052 0.067259
Si Si3 0.227025 0.169685 0.917660
Si Si4 0.848251 0.584209 0.124907
Si Si5 0.318616 0.681130 0.755699
Si Si6 0.433354 0.413146 0.492062
Si Si7 0.318721 0.660185 0.216408
O O1 0.282825 0.121422 0.893929
O O2 0.399006 0.112828 0.915263
O O3 0.354141 0.108721 0.776264
O O4 0.334160 0.000000 0.871792
O O5 0.299821 0.500000 0.059971
O O6 0.215711 0.401106 0.085812
O O7 0.326088 0.377178 0.133254
O O8 0.303279 0.370815 0.989919
O O9 0.250000 0.250000 0.940593
O O10 0.177373 0.175184 0.848930
O O11 0.858321 0.500000 0.140578
O O12 0.855951 0.620925 0.208848
O O13 0.898189 0.615884 0.067136
O O14 0.344125 0.757827 0.723288
O O15 0.250028 0.667385 0.737535
O O16 0.500000 0.380079 0.491363
O O17 0.435355 0.500000 0.494343
#
# Coordination Sequence:
#
# PCOD8185782 Si02
#       7
#    16  16  16  16  16  16  16
#     4  10  17  29  46  62  90 123 151 190 230 272
#     4  10  19  27  41  63  89 122 154 183 216 264
#     4  11  19  28  41  65  94 121 154 182 222 274
#     4   9  17  28  43  62  86 117 149 186 229 268
#     4   9  17  29  40  62  88 122 152 175 221 275
#     4   9  17  29  46  69  90 112 151 196 236 274
#     4   9  17  29  41  62  90 119 152 181 221 275
#
# _framework density 15.707837
#
# number of rings (size 3 to 8) (size 9 to 14) (size 15 to 20)
#    0.000    2.429    4.286    0.857    4.000    4.000 
#    0.000    0.000    0.000    0.857    0.000    0.000 
#    0.000    0.000    0.000    7.571    0.000    1.857 
#
# Total GULP energy -347008.916666 kJ/mol
# GULP energy per Si atom -12393.175595 kJ/mol
# Density = 1.567209 g / cm^3
# Si number density = 15.707837 Si / 1000 Ang^3
#
#
#
# Elastic Constant Matrix: (Units=GPa)
#
#
# Indices 1 2 3 4 5 6 
#
# 1 42.0661 21.5517 32.7384 0.0000 0.0000 0.0000
# 2 21.5517 91.8381 64.8279 0.0000 0.0000 0.0000
# 3 32.7384 64.8279 150.2731 0.0000 0.0000 0.0000
# 4 0.0000 0.0000 0.0000 31.5948 0.0000 0.0000
# 5 0.0000 0.0000 0.0000 0.0000 11.9855 0.0000
# 6 0.0000 0.0000 0.0000 0.0000 0.0000 5.8282
#
#
#
# Elastic Compliance Matrix: (Units=1/GPa)
#
#
# Indices 1 2 3 4 5 6 
#
# 1 0.029352 -0.003414 -0.004922 0.000000 0.000000 0.000000
# 2 -0.003414 0.016054 -0.006182 0.000000 0.000000 0.000000
# 3 -0.004922 -0.006182 0.010394 0.000000 0.000000 0.000000
# 4 0.000000 0.000000 0.000000 0.031651 0.000000 0.000000
# 5 0.000000 0.000000 0.000000 0.000000 0.083434 0.000000
# 6 0.000000 0.000000 0.000000 0.000000 0.000000 0.171580
#
#
# Mechanical properties :
#
#
# Convention : Reuss Voigt Hill
#
# Bulk Modulus (GPa) = 37.36349 58.04592 47.70471
# Shear Modulus (GPa) = 13.14340 20.88567 17.01453
#
# Velocity S-wave (km/s) = 2.89579 3.65037 3.29475
# Velocity P-wave (km/s) = 5.91768 7.40275 6.70148
#
# Compressibility (1/GPa) = 0.02676410
#
# Stress axis : x y z
#
# Youngs Moduli (GPa) = 34.06981 62.29170 96.21254
#
# Poissons Ratio (x) = 0.21264 0.47354
# Poissons Ratio (y) = 0.11630 0.59477
# Poissons Ratio (z) = 0.16769 0.38508
#
# Static dielectric constant tensor:
#      x y z
#    x 2.622370 0.000000 0.000000 
#    y 0.000000 3.125220 0.000000 
#    z 0.000000 0.000000 3.482470 
# 
# 
# High freq. dielectric constant tensor:
#      x y z
#    x 1.529620 0.000000 0.000000 
#    y 0.000000 1.604650 0.000000 
#    z 0.000000 0.000000 1.617190 
# 
# From -- ./inp_files/21056.got.cif
#   From: 2010.03.12/outbox.cif.g09.slc.cpg/sg42_11_cif.got.tgz:21056.got - 2010.04.14 02:04:31.
