data_PCOD8185122
_publ_section_title
;
Structure prediction by ZEFSAII (Michael W. Deem and Ramdas Pophale) SiO2 
 PCOD8185122
Probable space group: A B A 2
;
_chemical_formula_sum "Si O2"
_cell_formula_units_Z 64
_cell_length_a 16.906115
_cell_length_b 13.444817
_cell_length_c 13.542969
_cell_angle_alpha 90.000000
_cell_angle_beta 90.000000
_cell_angle_gamma 90.000000
_cell_volume 3078.311739
_symmetry_space_group_name_H-M "A B A 2"
_symmetry_group_IT_number 41
_symmetry_cell_setting 'orthorhombic'
loop_
_space_group_symop_operation_xyz
x,y,z
-x,-y,z
1/2-x,y,1/2+z
1/2+x,-y,1/2+z
x,1/2+y,1/2+z
-x,1/2-y,1/2+z
1/2-x,1/2+y,z
1/2+x,1/2-y,z
loop_
_atom_site_type_symbol
_atom_site_label
_atom_site_fract_x
_atom_site_fract_y
_atom_site_fract_z
Si Si1 0.171741 0.151182 0.876120
Si Si2 0.503898 0.386787 0.791970
Si Si3 0.759043 0.196077 0.511290
Si Si4 0.942238 0.912585 0.336097
Si Si5 0.718020 0.524823 0.372496
Si Si6 0.474762 0.799206 0.669336
Si Si7 0.294699 0.808309 0.723937
Si Si8 0.922372 0.216778 0.954372
O O1 0.079931 0.139007 0.857141
O O2 0.215821 0.206486 0.785076
O O3 0.206519 0.042722 0.891920
O O4 0.183410 0.216379 0.974743
O O5 0.500000 0.500000 0.753870
O O6 0.502475 0.314732 0.696804
O O7 0.432788 0.365683 0.868607
O O8 0.793388 0.090922 0.471588
O O9 0.761116 0.197452 0.629027
O O10 0.670021 0.219812 0.477409
O O11 0.952076 0.822784 0.413227
O O12 0.964781 0.874650 0.224857
O O13 0.854320 0.954831 0.342205
O O14 0.000000 0.000000 0.370457
O O15 0.738865 0.599003 0.284187
O O16 0.386999 0.827493 0.704953
O O17 0.475543 0.809741 0.550773
#
# Coordination Sequence:
#
# PCOD8185122 Si02
#       8
#     8   8   8   8   8   8   8   8
#     4  10  21  39  57  85 121 156 194 249 307 352
#     4  10  21  39  60  85 120 157 197 252 301 361
#     4  10  21  39  60  86 120 156 202 252 302 366
#     4  11  21  38  62  89 120 157 203 250 307 362
#     4  11  21  38  61  88 119 159 198 252 304 361
#     4   9  20  39  61  85 118 153 201 250 295 359
#     4   9  20  39  60  84 117 156 199 247 296 361
#     4  10  21  40  62  87 117 161 202 248 307 366
#
# _framework density 20.790617000000001
#
# number of rings (size 3 to 8) (size 9 to 14) (size 15 to 20)
#    0.000    2.000    2.500    0.750    1.750    2.000 
#    6.750    0.000    0.000    0.000    0.000    0.000 
#    0.000    0.000    0.000    0.000    0.000    0.000 
#
# Total GULP energy -396764.346659 kJ/mol
# GULP energy per Si atom -12398.885833 kJ/mol
# Density = 2.074330 g / cm^3
# Si number density = 20.790617 Si / 1000 Ang^3
#
#
#
# Elastic Constant Matrix: (Units=GPa)
#
#
# Indices 1 2 3 4 5 6 
#
# 1 33.4767 3.7924 0.5683 0.0000 0.0000 0.0000
# 2 3.7924 109.3315 15.4716 0.0000 0.0000 0.0000
# 3 0.5683 15.4716 82.1924 0.0000 0.0000 0.0000
# 4 0.0000 0.0000 0.0000 15.5892 0.0000 0.0000
# 5 0.0000 0.0000 0.0000 0.0000 27.7677 0.0000
# 6 0.0000 0.0000 0.0000 0.0000 0.0000 28.6522
#
#
#
# Elastic Compliance Matrix: (Units=1/GPa)
#
#
# Indices 1 2 3 4 5 6 
#
# 1 0.029989 -0.001039 -0.000012 0.000000 0.000000 0.000000
# 2 -0.001039 0.009433 -0.001768 0.000000 0.000000 0.000000
# 3 -0.000012 -0.001768 0.012500 0.000000 0.000000 0.000000
# 4 0.000000 0.000000 0.000000 0.064147 0.000000 0.000000
# 5 0.000000 0.000000 0.000000 0.000000 0.036013 0.000000
# 6 0.000000 0.000000 0.000000 0.000000 0.000000 0.034901
#
#
# Mechanical properties :
#
#
# Convention : Reuss Voigt Hill
#
# Bulk Modulus (GPa) = 21.60572 29.40725 25.50648
# Shear Modulus (GPa) = 24.03282 28.07971 26.05626
#
# Velocity S-wave (km/s) = 3.40361 3.67903 3.54400
# Velocity P-wave (km/s) = 5.08534 5.67646 5.38901
#
# Compressibility (1/GPa) = 0.04628403
#
# Stress axis : x y z
#
# Youngs Moduli (GPa) = 33.34510 106.01338 80.00302
#
# Poissons Ratio (x) = 0.11010 0.00095
# Poissons Ratio (y) = 0.03463 0.14148
# Poissons Ratio (z) = 0.00040 0.18748
#
# Static dielectric constant tensor:
#      x y z
#    x 3.753100 0.000000 0.000000 
#    y 0.000000 3.939400 0.000000 
#    z 0.000000 0.000000 3.740740 
# 
# 
# High freq. dielectric constant tensor:
#      x y z
#    x 1.808760 0.000000 0.000000 
#    y 0.000000 1.821260 0.000000 
#    z 0.000000 0.000000 1.802210 
# 
# From -- ./inp_files/8820.got.cif
#   From: 2010.03.12/outbox.cif.g09.slc.cpg/sg41_5_cif.got.tgz:8820.got - 2010.04.14 01:55:53.
