data_PCOD8185375
_publ_section_title
;
Structure prediction by ZEFSAII (Michael W. Deem and Ramdas Pophale) SiO2 
 PCOD8185375
Probable space group: A B A 2
;
_chemical_formula_sum "Si O2"
_cell_formula_units_Z 48
_cell_length_a 16.418426
_cell_length_b 11.512274
_cell_length_c 10.912992
_cell_angle_alpha 90.000000
_cell_angle_beta 90.000000
_cell_angle_gamma 90.000000
_cell_volume 2062.701927
_symmetry_space_group_name_H-M "A B A 2"
_symmetry_group_IT_number 41
_symmetry_cell_setting 'orthorhombic'
loop_
_space_group_symop_operation_xyz
x,y,z
-x,-y,z
1/2-x,y,1/2+z
1/2+x,-y,1/2+z
x,1/2+y,1/2+z
-x,1/2-y,1/2+z
1/2-x,1/2+y,z
1/2+x,1/2-y,z
loop_
_atom_site_type_symbol
_atom_site_label
_atom_site_fract_x
_atom_site_fract_y
_atom_site_fract_z
Si Si1 0.161068 0.600933 0.943630
Si Si2 0.858603 0.283909 0.184111
Si Si3 0.584683 0.056006 0.763053
Si Si4 0.163320 0.556035 0.546964
Si Si5 0.405991 0.989245 0.303158
Si Si6 0.323473 0.759743 0.207956
O O1 0.108645 0.488344 0.899715
O O2 0.170818 0.685618 0.830580
O O3 0.113833 0.675403 0.047908
O O4 0.244733 0.551639 0.998266
O O5 0.922394 0.196056 0.250431
O O6 0.853446 0.399223 0.264919
O O7 0.771496 0.219720 0.180596
O O8 0.500000 0.000000 0.721532
O O9 0.656320 0.020729 0.669116
O O10 0.103800 0.492200 0.450133
O O11 0.139893 0.688477 0.590211
O O12 0.500000 0.000000 0.266168
O O13 0.370535 0.879361 0.230297
#
# Coordination Sequence:
#
# PCOD8185375 Si02
#       6
#     8   8   8   8   8   8
#     4  10  22  44  71 100 134 184 242 289 350 433
#     4  11  25  42  69 100 136 186 235 291 357 427
#     4  11  25  44  71 102 147 184 238 297 370 435
#     4  10  22  44  71  99 132 190 232 291 358 431
#     4  12  26  44  68 104 143 180 232 301 366 428
#     4  10  23  44  68  97 136 178 243 286 349 439
#
# _framework density 23.27045
#
# number of rings (size 3 to 8) (size 9 to 14) (size 15 to 20)
#    0.000    1.333    1.667    2.500    9.333    2.000 
#    0.000    0.000    0.000    0.000    0.000    0.000 
#    0.000    0.000    0.000    0.000    0.000    0.000 
#
# Total GULP energy -297440.164019 kJ/mol
# GULP energy per Si atom -12393.340167 kJ/mol
# Density = 2.321749 g / cm^3
# Si number density = 23.270450 Si / 1000 Ang^3
#
#
#
# Elastic Constant Matrix: (Units=GPa)
#
#
# Indices 1 2 3 4 5 6 
#
# 1 81.6650 34.2409 20.8665 0.0000 0.0000 0.0000
# 2 34.2409 131.5177 43.8004 0.0000 0.0000 0.0000
# 3 20.8665 43.8004 103.8813 0.0000 0.0000 0.0000
# 4 0.0000 0.0000 0.0000 45.0943 0.0000 0.0000
# 5 0.0000 0.0000 0.0000 0.0000 23.0669 0.0000
# 6 0.0000 0.0000 0.0000 0.0000 0.0000 32.3897
#
#
#
# Elastic Compliance Matrix: (Units=1/GPa)
#
#
# Indices 1 2 3 4 5 6 
#
# 1 0.013938 -0.003137 -0.001477 0.000000 0.000000 0.000000
# 2 -0.003137 0.009552 -0.003397 0.000000 0.000000 0.000000
# 3 -0.001477 -0.003397 0.011355 0.000000 0.000000 0.000000
# 4 0.000000 0.000000 0.000000 0.022176 0.000000 0.000000
# 5 0.000000 0.000000 0.000000 0.000000 0.043352 0.000000
# 6 0.000000 0.000000 0.000000 0.000000 0.000000 0.030874
#
#
# Mechanical properties :
#
#
# Convention : Reuss Voigt Hill
#
# Bulk Modulus (GPa) = 53.12750 57.20884 55.16817
# Shear Modulus (GPa) = 32.56409 34.65391 33.60900
#
# Velocity S-wave (km/s) = 3.74488 3.86318 3.80449
# Velocity P-wave (km/s) = 6.44817 6.67357 6.56184
#
# Compressibility (1/GPa) = 0.01882264
#
# Stress axis : x y z
#
# Youngs Moduli (GPa) = 71.74742 104.69418 88.06321
#
# Poissons Ratio (x) = 0.32841 0.13007
# Poissons Ratio (y) = 0.22506 0.29917
# Poissons Ratio (z) = 0.10598 0.35567
#
# Static dielectric constant tensor:
#      x y z
#    x 3.844770 0.000000 0.000000 
#    y 0.000000 4.503040 0.000000 
#    z 0.000000 0.000000 4.595290 
# 
# 
# High freq. dielectric constant tensor:
#      x y z
#    x 1.896960 0.000000 0.000000 
#    y 0.000000 1.928000 0.000000 
#    z 0.000000 0.000000 1.928650 
# 
# From -- ./inp_files/5908.got.cif
#   From: 2010.03.12/outbox.cif.g09.slc.cpg/sg41_3_cif.got.tgz:5908.got - 2010.04.14 01:55:53.
