data_PCOD8185784
_publ_section_title
;
Structure prediction by ZEFSAII (Michael W. Deem and Ramdas Pophale) SiO2 
 PCOD8185784
Probable space group: F M M 2
;
_chemical_formula_sum "Si O2"
_cell_formula_units_Z 80
_cell_length_a 8.381369
_cell_length_b 29.911792
_cell_length_c 14.693155
_cell_angle_alpha 90.000000
_cell_angle_beta 90.000000
_cell_angle_gamma 90.000000
_cell_volume 3683.599910
_symmetry_space_group_name_H-M "F M M 2"
_symmetry_group_IT_number 42
_symmetry_cell_setting 'orthorhombic'
loop_
_space_group_symop_operation_xyz
x,y,z
-x,-y,z
-x,y,z
x,-y,z
x,1/2+y,1/2+z
-x,1/2-y,1/2+z
-x,1/2+y,1/2+z
x,1/2-y,1/2+z
1/2+x,y,1/2+z
1/2-x,-y,1/2+z
1/2-x,y,1/2+z
1/2+x,-y,1/2+z
1/2+x,1/2+y,z
1/2-x,1/2-y,z
1/2-x,1/2+y,z
1/2+x,1/2-y,z
loop_
_atom_site_type_symbol
_atom_site_label
_atom_site_fract_x
_atom_site_fract_y
_atom_site_fract_z
Si Si1 0.316405 0.112740 0.193240
Si Si2 0.813820 0.113789 0.994624
Si Si3 0.185547 0.948233 0.345166
Si Si4 0.187617 0.705821 0.007079
Si Si5 0.684398 0.704132 0.207508
O O1 0.500000 0.113320 0.164040
O O2 0.213576 0.106356 0.101899
O O3 0.283960 0.072664 0.262112
O O4 0.272938 0.159590 0.243792
O O5 0.732413 0.159701 0.956916
O O6 0.000000 0.115535 0.973129
O O7 0.734986 0.072957 0.941133
O O8 0.000000 0.940313 0.326697
O O9 0.230044 0.000000 0.350281
O O10 0.250000 0.750000 0.952211
O O11 0.289003 0.705903 0.099723
O O12 0.000000 0.708199 0.026489
O O13 0.500000 0.699881 0.232677
O O14 0.750000 0.750000 0.252902
#
# Coordination Sequence:
#
# PCOD8185784 Si02
#       5
#    16  16  16  16  16
#     4  11  22  39  63  91 123 160 201 245 297 355
#     4  11  22  39  63  91 123 160 201 245 297 355
#     4  11  25  45  66  89 118 153 197 251 307 361
#     4  10  17  29  51  82 119 158 199 241 289 345
#     4  10  17  29  51  82 119 158 199 241 289 345
#
# _framework density 21.717884000000002
#
# number of rings (size 3 to 8) (size 9 to 14) (size 15 to 20)
#    0.000    1.400    0.000   11.400    0.000    2.400 
#    0.000    1.000    0.000    0.000    0.000    0.000 
#    0.000    0.000    0.000    0.000    0.000    0.000 
#
# Total GULP energy -247990.582551 kJ/mol
# GULP energy per Si atom -12399.529128 kJ/mol
# Density = 2.166845 g / cm^3
# Si number density = 21.717884 Si / 1000 Ang^3
#
#
#
# Elastic Constant Matrix: (Units=GPa)
#
#
# Indices 1 2 3 4 5 6 
#
# 1 110.2292 51.3539 -1.7849 0.0000 0.0000 0.0000
# 2 51.3539 185.4495 45.1925 0.0000 0.0000 0.0000
# 3 -1.7849 45.1925 58.6980 0.0000 0.0000 0.0000
# 4 0.0000 0.0000 0.0000 116.3458 0.0000 0.0000
# 5 0.0000 0.0000 0.0000 0.0000 23.6780 0.0000
# 6 0.0000 0.0000 0.0000 0.0000 0.0000 35.7686
#
#
#
# Elastic Compliance Matrix: (Units=1/GPa)
#
#
# Indices 1 2 3 4 5 6 
#
# 1 0.010903 -0.003816 0.003269 0.000000 0.000000 0.000000
# 2 -0.003816 0.007973 -0.006255 0.000000 0.000000 0.000000
# 3 0.003269 -0.006255 0.021951 0.000000 0.000000 0.000000
# 4 0.000000 0.000000 0.000000 0.008595 0.000000 0.000000
# 5 0.000000 0.000000 0.000000 0.000000 0.042233 0.000000
# 6 0.000000 0.000000 0.000000 0.000000 0.000000 0.027957
#
#
# Mechanical properties :
#
#
# Convention : Reuss Voigt Hill
#
# Bulk Modulus (GPa) = 36.73104 60.43332 48.58218
# Shear Modulus (GPa) = 35.13942 52.46617 43.80279
#
# Velocity S-wave (km/s) = 4.02679 4.92042 4.49586
# Velocity P-wave (km/s) = 6.21044 7.75678 7.02628
#
# Compressibility (1/GPa) = 0.02722493
#
# Stress axis : x y z
#
# Youngs Moduli (GPa) = 91.72055 125.42019 45.55521
#
# Poissons Ratio (x) = 0.47858 -0.14894
# Poissons Ratio (y) = 0.34999 0.28494
# Poissons Ratio (z) = -0.29987 0.78447
#
# Static dielectric constant tensor:
#      x y z
#    x 3.891730 0.000000 0.000000 
#    y 0.000000 4.570000 0.000000 
#    z 0.000000 0.000000 3.429090 
# 
# 
# High freq. dielectric constant tensor:
#      x y z
#    x 1.867240 0.000000 0.000000 
#    y 0.000000 1.867410 0.000000 
#    z 0.000000 0.000000 1.821500 
# 
# From -- ./inp_files/18214.got.cif
#   From: 2010.03.12/outbox.cif.g09.slc.cpg/sg42_10_cif.got.tgz:18214.got - 2010.04.14 02:04:31.
