data_PCOD8185386
_publ_section_title
;
Structure prediction by ZEFSAII (Michael W. Deem and Ramdas Pophale) SiO2 
 PCOD8185386
Probable space group: A B A 2
;
_chemical_formula_sum "Si O2"
_cell_formula_units_Z 40
_cell_length_a 8.701028
_cell_length_b 22.426535
_cell_length_c 8.620448
_cell_angle_alpha 90.000000
_cell_angle_beta 90.000000
_cell_angle_gamma 90.000000
_cell_volume 1682.141715
_symmetry_space_group_name_H-M "A B A 2"
_symmetry_group_IT_number 41
_symmetry_cell_setting 'orthorhombic'
loop_
_space_group_symop_operation_xyz
x,y,z
-x,-y,z
1/2-x,y,1/2+z
1/2+x,-y,1/2+z
x,1/2+y,1/2+z
-x,1/2-y,1/2+z
1/2-x,1/2+y,z
1/2+x,1/2-y,z
loop_
_atom_site_type_symbol
_atom_site_label
_atom_site_fract_x
_atom_site_fract_y
_atom_site_fract_z
Si Si1 0.500000 0.000000 0.375000
Si Si2 0.462979 0.690099 0.660537
Si Si3 0.853954 0.293377 0.516206
Si Si4 0.509335 0.410655 0.127691
Si Si5 0.344643 0.928377 0.132576
Si Si6 0.500000 0.500000 0.380607
O O1 0.431102 0.053077 0.478876
O O2 0.639586 0.025666 0.273966
O O3 0.329025 0.699833 0.533558
O O4 0.599579 0.732571 0.602412
O O5 0.527515 0.623148 0.650384
O O6 0.406753 0.704207 0.836382
O O7 0.925781 0.344866 0.622654
O O8 0.325413 0.402633 0.131131
O O9 0.573115 0.447432 0.274848
O O10 0.368369 0.968037 0.979906
#
# Coordination Sequence:
#
# PCOD8185386 Si02
#       6
#     4   8   8   8   8   4
#     4  10  22  46  62 108 142 186 234 290 356 422
#     4  12  28  49  76 107 145 188 242 301 365 435
#     4  12  28  49  76 107 145 188 242 301 365 435
#     4  11  24  45  73 103 144 188 241 293 358 421
#     4  11  24  45  73 103 144 188 241 293 358 421
#     4  10  26  38  70 108 142 194 230 298 344 434
#
# _framework density 23.779209000000002
#
# number of rings (size 3 to 8) (size 9 to 14) (size 15 to 20)
#    0.000    0.800    2.000    3.600    5.600    9.600 
#    0.000    0.000    0.000    0.000    0.000    0.000 
#    0.000    0.000    0.000    0.000    0.000    0.000 
#
# Total GULP energy -247981.023121 kJ/mol
# GULP energy per Si atom -12399.051156 kJ/mol
# Density = 2.372509 g / cm^3
# Si number density = 23.779209 Si / 1000 Ang^3
#
#
#
# Elastic Constant Matrix: (Units=GPa)
#
#
# Indices 1 2 3 4 5 6 
#
# 1 108.2220 42.9270 21.7898 0.0000 0.0000 0.0000
# 2 42.9270 99.7922 46.2406 0.0000 0.0000 0.0000
# 3 21.7898 46.2406 145.2749 0.0000 0.0000 0.0000
# 4 0.0000 0.0000 0.0000 44.6893 0.0000 0.0000
# 5 0.0000 0.0000 0.0000 0.0000 34.5188 0.0000
# 6 0.0000 0.0000 0.0000 0.0000 0.0000 31.4050
#
#
#
# Elastic Compliance Matrix: (Units=1/GPa)
#
#
# Indices 1 2 3 4 5 6 
#
# 1 0.011145 -0.004715 -0.000171 0.000000 0.000000 0.000000
# 2 -0.004715 0.013749 -0.003669 0.000000 0.000000 0.000000
# 3 -0.000171 -0.003669 0.008077 0.000000 0.000000 0.000000
# 4 0.000000 0.000000 0.000000 0.022377 0.000000 0.000000
# 5 0.000000 0.000000 0.000000 0.000000 0.028970 0.000000
# 6 0.000000 0.000000 0.000000 0.000000 0.000000 0.031842
#
#
# Mechanical properties :
#
#
# Convention : Reuss Voigt Hill
#
# Bulk Modulus (GPa) = 63.04703 63.91154 63.47928
# Shear Modulus (GPa) = 36.08636 38.27807 37.18221
#
# Velocity S-wave (km/s) = 3.89981 4.01649 3.95858
# Velocity P-wave (km/s) = 6.84464 6.96025 6.90269
#
# Compressibility (1/GPa) = 0.01586118
#
# Stress axis : x y z
#
# Youngs Moduli (GPa) = 89.72719 72.73151 123.80822
#
# Poissons Ratio (x) = 0.34293 0.02115
# Poissons Ratio (y) = 0.42306 0.45427
# Poissons Ratio (z) = 0.01533 0.26686
#
# Static dielectric constant tensor:
#      x y z
#    x 4.060900 0.000000 0.000000 
#    y 0.000000 4.338200 0.000000 
#    z 0.000000 0.000000 4.631850 
# 
# 
# High freq. dielectric constant tensor:
#      x y z
#    x 1.934870 0.000000 0.000000 
#    y 0.000000 1.950740 0.000000 
#    z 0.000000 0.000000 1.961810 
# 
# From -- ./inp_files/1719.got.cif
#   From: 2010.03.12/outbox.cif.g09.slc.cpg/sg41_1_cif.got.tgz:1719.got - 2010.04.14 01:55:53.
