data_PCOD8185533
_publ_section_title
;
Structure prediction by ZEFSAII (Michael W. Deem and Ramdas Pophale) SiO2 
 PCOD8185533
Probable space group: A B A 2
;
_chemical_formula_sum "Si O2"
_cell_formula_units_Z 24
_cell_length_a 9.245655
_cell_length_b 11.284163
_cell_length_c 8.239777
_cell_angle_alpha 90.000000
_cell_angle_beta 90.000000
_cell_angle_gamma 90.000000
_cell_volume 859.651634
_symmetry_space_group_name_H-M "A B A 2"
_symmetry_group_IT_number 41
_symmetry_cell_setting 'orthorhombic'
loop_
_space_group_symop_operation_xyz
x,y,z
-x,-y,z
1/2-x,y,1/2+z
1/2+x,-y,1/2+z
x,1/2+y,1/2+z
-x,1/2-y,1/2+z
1/2-x,1/2+y,z
1/2+x,1/2-y,z
loop_
_atom_site_type_symbol
_atom_site_label
_atom_site_fract_x
_atom_site_fract_y
_atom_site_fract_z
Si Si1 0.148177 0.045005 0.977100
Si Si2 0.407083 0.888376 0.049800
Si Si3 0.131354 0.685186 0.792192
O O1 0.216314 0.159761 0.884881
O O2 0.111868 0.080763 0.161645
O O3 0.000000 0.000000 0.894325
O O4 0.259777 0.935385 0.968874
O O5 0.364658 0.811815 0.206152
O O6 0.500000 0.000000 0.111526
O O7 0.500034 0.813741 0.920173
#
# Coordination Sequence:
#
# PCOD8185533 Si02
#       3
#     8   8   8
#     4  11  26  49  79 119 164 210 265 335 407 482
#     4  10  26  54  82 117 159 212 273 335 400 479
#     4  11  27  51  83 116 160 218 273 330 402 479
#
# _framework density 27.918289000000001
#
# number of rings (size 3 to 8) (size 9 to 14) (size 15 to 20)
#    0.000    1.333    0.000    3.000    0.000   25.333 
#    0.000   11.667    0.000    0.000    0.000    0.000 
#    0.000    0.000    0.000    0.000    0.000    0.000 
#
# Total GULP energy -148857.617562 kJ/mol
# GULP energy per Si atom -12404.801464 kJ/mol
# Density = 2.785475 g / cm^3
# Si number density = 27.918289 Si / 1000 Ang^3
#
#
#
# Elastic Constant Matrix: (Units=GPa)
#
#
# Indices 1 2 3 4 5 6 
#
# 1 251.8966 96.4427 63.6749 0.0000 0.0000 0.0000
# 2 96.4427 128.4834 55.2091 0.0000 0.0000 0.0000
# 3 63.6749 55.2091 149.0122 0.0000 0.0000 0.0000
# 4 0.0000 0.0000 0.0000 1879.1402 0.0000 0.0000
# 5 0.0000 0.0000 0.0000 0.0000 14.7780 0.0000
# 6 0.0000 0.0000 0.0000 0.0000 0.0000 41.6596
#
#
#
# Elastic Compliance Matrix: (Units=1/GPa)
#
#
# Indices 1 2 3 4 5 6 
#
# 1 0.005696 -0.003841 -0.001011 0.000000 0.000000 0.000000
# 2 -0.003841 0.011847 -0.002748 0.000000 0.000000 0.000000
# 3 -0.001011 -0.002748 0.008161 0.000000 0.000000 0.000000
# 4 0.000000 0.000000 0.000000 0.000532 0.000000 0.000000
# 5 0.000000 0.000000 0.000000 0.000000 0.067668 0.000000
# 6 0.000000 0.000000 0.000000 0.000000 0.000000 0.024004
#
#
# Mechanical properties :
#
#
# Convention : Reuss Voigt Hill
#
# Bulk Modulus (GPa) = 95.20082 106.67174 100.93628
# Shear Modulus (GPa) = 36.60053 408.05326 222.32690
#
# Velocity S-wave (km/s) = 3.62468 12.10277 8.93352
# Velocity P-wave (km/s) = 7.18969 15.28379 11.94332
#
# Compressibility (1/GPa) = 0.01050411
#
# Stress axis : x y z
#
# Youngs Moduli (GPa) = 175.55890 84.40765 122.53503
#
# Poissons Ratio (x) = 0.32423 0.12386
# Poissons Ratio (y) = 0.67437 0.33673
# Poissons Ratio (z) = 0.17746 0.23195
#
# Static dielectric constant tensor:
#      x y z
#    x 5.253020 0.000000 0.000000 
#    y 0.000000 -4.688560 0.000000 
#    z 0.000000 0.000000 4.981250 
# 
# 
# High freq. dielectric constant tensor:
#      x y z
#    x 2.133620 0.000000 0.000000 
#    y 0.000000 2.134850 0.000000 
#    z 0.000000 0.000000 2.140300 
# 
# From -- ./inp_files/1585.got.cif
#   From: 2010.03.12/outbox.cif.g09.slc.cpg/sg41_1_cif.got.tgz:1585.got - 2010.04.14 01:55:53.
