data_PCOD8185503
_publ_section_title
;
Structure prediction by ZEFSAII (Michael W. Deem and Ramdas Pophale) SiO2 
 PCOD8185503
Probable space group: A B A 2
;
_chemical_formula_sum "Si O2"
_cell_formula_units_Z 52
_cell_length_a 11.336742
_cell_length_b 9.306448
_cell_length_c 25.124845
_cell_angle_alpha 90.000000
_cell_angle_beta 90.000000
_cell_angle_gamma 90.000000
_cell_volume 2650.791745
_symmetry_space_group_name_H-M "A B A 2"
_symmetry_group_IT_number 41
_symmetry_cell_setting 'orthorhombic'
loop_
_space_group_symop_operation_xyz
x,y,z
-x,-y,z
1/2-x,y,1/2+z
1/2+x,-y,1/2+z
x,1/2+y,1/2+z
-x,1/2-y,1/2+z
1/2-x,1/2+y,z
1/2+x,1/2-y,z
loop_
_atom_site_type_symbol
_atom_site_label
_atom_site_fract_x
_atom_site_fract_y
_atom_site_fract_z
Si Si1 0.000000 0.000000 0.706910
Si Si2 0.000000 0.500000 0.606318
Si Si3 0.208905 0.327342 0.248026
Si Si4 0.638548 0.753526 0.149854
Si Si5 0.123199 0.041138 0.296359
Si Si6 0.288540 0.646294 0.049886
Si Si7 0.883715 0.566700 0.999391
Si Si8 0.000000 0.500000 0.897794
O O1 0.080955 0.101054 0.670948
O O2 0.916330 0.093514 0.744805
O O3 0.965365 0.637791 0.641550
O O4 0.887528 0.460941 0.571109
O O5 0.268923 0.318633 0.190219
O O6 0.190263 0.167256 0.267496
O O7 0.291470 0.403728 0.291655
O O8 0.704859 0.794153 0.095933
O O9 0.000000 0.000000 0.266722
O O10 0.091144 0.083250 0.357996
O O11 0.217681 0.553209 0.006275
O O12 0.350431 0.780935 0.022784
O O13 0.000000 0.500000 0.028599
O O14 0.916959 0.595499 0.936889
#
# Coordination Sequence:
#
# PCOD8185503 Si02
#       8
#     4   4   8   8   8   8   8   4
#     4  12  26  39  64  99 138 183 219 264 324 396
#     4  12  26  39  64  99 138 183 219 264 324 396
#     4  12  24  43  68  96 140 177 224 268 336 402
#     4  12  26  42  62 102 138 184 214 272 322 410
#     4  10  24  45  68  99 131 175 224 285 332 397
#     4  12  24  43  68  96 140 177 224 268 336 402
#     4  10  24  45  68  99 131 175 224 285 332 397
#     4   8  24  46  72  96 132 168 226 302 334 386
#
# _framework density 19.616781
#
# number of rings (size 3 to 8) (size 9 to 14) (size 15 to 20)
#    0.923    0.000    3.077    3.692    6.462    1.231 
#    0.000    0.000    0.000    1.846    0.000    0.000 
#    0.000    0.000    0.000    0.000    0.000    0.000 
#
# Total GULP energy -322257.432008 kJ/mol
# GULP energy per Si atom -12394.516616 kJ/mol
# Density = 1.957213 g / cm^3
# Si number density = 19.616781 Si / 1000 Ang^3
#
#
#
# Elastic Constant Matrix: (Units=GPa)
#
#
# Indices 1 2 3 4 5 6 
#
# 1 89.0615 26.9375 21.2518 0.0000 0.0000 0.0000
# 2 26.9375 92.9386 11.5817 0.0000 0.0000 0.0000
# 3 21.2518 11.5817 85.2260 0.0000 0.0000 0.0000
# 4 0.0000 0.0000 0.0000 4.7568 0.0000 0.0000
# 5 0.0000 0.0000 0.0000 0.0000 36.4355 0.0000
# 6 0.0000 0.0000 0.0000 0.0000 0.0000 49.5022
#
#
#
# Elastic Compliance Matrix: (Units=1/GPa)
#
#
# Indices 1 2 3 4 5 6 
#
# 1 0.012915 -0.003399 -0.002758 0.000000 0.000000 0.000000
# 2 -0.003399 0.011840 -0.000761 0.000000 0.000000 0.000000
# 3 -0.002758 -0.000761 0.012525 0.000000 0.000000 0.000000
# 4 0.000000 0.000000 0.000000 0.210227 0.000000 0.000000
# 5 0.000000 0.000000 0.000000 0.000000 0.027446 0.000000
# 6 0.000000 0.000000 0.000000 0.000000 0.000000 0.020201
#
#
# Mechanical properties :
#
#
# Convention : Reuss Voigt Hill
#
# Bulk Modulus (GPa) = 42.66019 42.97425 42.81722
# Shear Modulus (GPa) = 15.78257 31.96923 23.87590
#
# Velocity S-wave (km/s) = 2.83953 4.04132 3.49250
# Velocity P-wave (km/s) = 5.70478 6.61293 6.17557
#
# Compressibility (1/GPa) = 0.02344106
#
# Stress axis : x y z
#
# Youngs Moduli (GPa) = 77.43174 84.45972 79.84168
#
# Poissons Ratio (x) = 0.28712 0.22024
# Poissons Ratio (y) = 0.26323 0.06078
# Poissons Ratio (z) = 0.21359 0.06430
#
# Static dielectric constant tensor:
#      x y z
#    x 3.770770 0.000000 0.000000 
#    y 0.000000 3.611470 0.000000 
#    z 0.000000 0.000000 3.378060 
# 
# 
# High freq. dielectric constant tensor:
#      x y z
#    x 1.785430 0.000000 0.000000 
#    y 0.000000 1.768640 0.000000 
#    z 0.000000 0.000000 1.742690 
# 
# From -- ./inp_files/12507.got.cif
#   From: 2010.03.12/outbox.cif.g09.slc.cpg/sg41_7_cif.got.tgz:12507.got - 2010.04.14 01:55:53.
