data_PCOD8185372
_publ_section_title
;
Structure prediction by ZEFSAII (Michael W. Deem and Ramdas Pophale) SiO2 
 PCOD8185372
Probable space group: A B A 2
;
_chemical_formula_sum "Si O2"
_cell_formula_units_Z 52
_cell_length_a 5.218923
_cell_length_b 19.338235
_cell_length_c 21.679136
_cell_angle_alpha 90.000000
_cell_angle_beta 90.000000
_cell_angle_gamma 90.000000
_cell_volume 2187.961585
_symmetry_space_group_name_H-M "A B A 2"
_symmetry_group_IT_number 41
_symmetry_cell_setting 'orthorhombic'
loop_
_space_group_symop_operation_xyz
x,y,z
-x,-y,z
1/2-x,y,1/2+z
1/2+x,-y,1/2+z
x,1/2+y,1/2+z
-x,1/2-y,1/2+z
1/2-x,1/2+y,z
1/2+x,1/2-y,z
loop_
_atom_site_type_symbol
_atom_site_label
_atom_site_fract_x
_atom_site_fract_y
_atom_site_fract_z
Si Si1 0.482765 0.840763 0.025170
Si Si2 0.489403 0.288260 0.393716
Si Si3 0.000000 0.500000 0.798006
Si Si4 0.538794 0.791019 0.158532
Si Si5 0.482415 0.580552 0.993301
Si Si6 0.113490 0.577092 0.236979
Si Si7 0.849990 0.093877 0.857704
O O1 0.524120 0.793481 0.084717
O O2 0.482829 0.788222 0.967957
O O3 0.713047 0.895223 0.019793
O O4 0.215388 0.882265 0.028490
O O5 0.771907 0.266662 0.370749
O O6 0.410989 0.361905 0.366129
O O7 0.085842 0.563504 0.753205
O O8 0.241456 0.483019 0.842526
O O9 0.277384 0.755145 0.182278
O O10 0.572370 0.870456 0.180799
O O11 0.500000 0.500000 0.006016
O O12 0.484813 0.597321 0.919909
O O13 0.000000 0.500000 0.222304
O O14 0.000985 0.616908 0.296933
#
# Coordination Sequence:
#
# PCOD8185372 Si02
#       7
#     8   8   4   8   8   8   8
#     4  11  24  44  66  98 140 186 232 285 356 418
#     4  11  23  38  63  95 135 176 224 276 335 414
#     4  10  22  44  70  92 144 176 234 276 370 424
#     4  12  28  50  77 102 140 190 245 298 354 421
#     4  11  23  39  69 105 142 178 232 285 347 421
#     4  10  25  46  72 104 140 191 237 298 357 426
#     4  10  24  39  68  99 140 182 223 280 357 415
#
# _framework density 23.766414999999999
#
# number of rings (size 3 to 8) (size 9 to 14) (size 15 to 20)
#    0.000    1.231    0.000    5.538   15.077    2.462 
#    1.385    0.000    0.000    0.000    0.000    0.000 
#    0.000    0.000    0.000    0.000    0.000    0.000 
#
# Total GULP energy -322307.423058 kJ/mol
# GULP energy per Si atom -12396.439348 kJ/mol
# Density = 2.371232 g / cm^3
# Si number density = 23.766415 Si / 1000 Ang^3
#
#
#
# Elastic Constant Matrix: (Units=GPa)
#
#
# Indices 1 2 3 4 5 6 
#
# 1 120.2572 25.6797 24.5585 0.0000 0.0000 0.0000
# 2 25.6797 94.1690 20.5265 0.0000 0.0000 0.0000
# 3 24.5585 20.5265 67.7220 0.0000 0.0000 0.0000
# 4 0.0000 0.0000 0.0000 37.1230 0.0000 0.0000
# 5 0.0000 0.0000 0.0000 0.0000 25.5281 0.0000
# 6 0.0000 0.0000 0.0000 0.0000 0.0000 46.5478
#
#
#
# Elastic Compliance Matrix: (Units=1/GPa)
#
#
# Indices 1 2 3 4 5 6 
#
# 1 0.009296 -0.001928 -0.002787 0.000000 0.000000 0.000000
# 2 -0.001928 0.011770 -0.002868 0.000000 0.000000 0.000000
# 3 -0.002787 -0.002868 0.016646 0.000000 0.000000 0.000000
# 4 0.000000 0.000000 0.000000 0.026937 0.000000 0.000000
# 5 0.000000 0.000000 0.000000 0.000000 0.039173 0.000000
# 6 0.000000 0.000000 0.000000 0.000000 0.000000 0.021483
#
#
# Mechanical properties :
#
#
# Convention : Reuss Voigt Hill
#
# Bulk Modulus (GPa) = 44.35240 47.07529 45.71385
# Shear Modulus (GPa) = 33.78660 35.93200 34.85930
#
# Velocity S-wave (km/s) = 3.77452 3.89251 3.83397
# Velocity P-wave (km/s) = 6.13989 6.32872 6.23502
#
# Compressibility (1/GPa) = 0.02254669
#
# Stress axis : x y z
#
# Youngs Moduli (GPa) = 107.57009 84.96094 60.07330
#
# Poissons Ratio (x) = 0.16377 0.16742
# Poissons Ratio (y) = 0.20735 0.17232
# Poissons Ratio (z) = 0.29979 0.24371
#
# Static dielectric constant tensor:
#      x y z
#    x 4.556090 0.000000 0.000000 
#    y 0.000000 4.218930 0.000000 
#    z 0.000000 0.000000 4.018170 
# 
# 
# High freq. dielectric constant tensor:
#      x y z
#    x 1.962740 0.000000 0.000000 
#    y 0.000000 1.945900 0.000000 
#    z 0.000000 0.000000 1.912400 
# 
# From -- ./inp_files/10963.got.cif
#   From: 2010.03.12/outbox.cif.g09.slc.cpg/sg41_6_cif.got.tgz:10963.got - 2010.04.14 01:55:53.
