data_PCOD8185216
_publ_section_title
;
Structure prediction by ZEFSAII (Michael W. Deem and Ramdas Pophale) SiO2 
 PCOD8185216
Probable space group: A B A 2
;
_chemical_formula_sum "Si O2"
_cell_formula_units_Z 64
_cell_length_a 9.787254
_cell_length_b 25.796669
_cell_length_c 12.783453
_cell_angle_alpha 90.000000
_cell_angle_beta 90.000000
_cell_angle_gamma 90.000000
_cell_volume 3227.547701
_symmetry_space_group_name_H-M "A B A 2"
_symmetry_group_IT_number 41
_symmetry_cell_setting 'orthorhombic'
loop_
_space_group_symop_operation_xyz
x,y,z
-x,-y,z
1/2-x,y,1/2+z
1/2+x,-y,1/2+z
x,1/2+y,1/2+z
-x,1/2-y,1/2+z
1/2-x,1/2+y,z
1/2+x,1/2-y,z
loop_
_atom_site_type_symbol
_atom_site_label
_atom_site_fract_x
_atom_site_fract_y
_atom_site_fract_z
Si Si1 0.400587 0.198918 0.005040
Si Si2 0.682386 0.729658 0.600224
Si Si3 0.643627 0.637220 0.172872
Si Si4 0.627194 0.583601 0.784265
Si Si5 0.894116 0.546340 0.516146
Si Si6 0.649056 0.497306 0.617539
Si Si7 0.142014 0.616986 0.174882
Si Si8 0.124755 0.686917 0.761953
O O1 0.271423 0.235128 0.024130
O O2 0.536157 0.226380 0.046220
O O3 0.380369 0.144607 0.063920
O O4 0.409777 0.190068 0.882691
O O5 0.752508 0.673633 0.608603
O O6 0.668081 0.757373 0.713958
O O7 0.731222 0.615282 0.271056
O O8 0.514635 0.669842 0.207646
O O9 0.584918 0.590866 0.101986
O O10 0.593831 0.572672 0.903971
O O11 0.644680 0.529375 0.725069
O O12 0.500909 0.616363 0.737352
O O13 0.745084 0.521660 0.529761
O O14 0.000000 0.500000 0.533159
O O15 0.500000 0.500000 0.564780
O O16 0.697139 0.440082 0.648996
O O17 0.254115 0.645803 0.245193
#
# Coordination Sequence:
#
# PCOD8185216 Si02
#       8
#     8   8   8   8   8   8   8   8
#     4  11  25  41  69  90 127 170 208 266 328 379
#     4  11  24  46  60  96 130 161 216 268 320 386
#     4  11  24  42  64  94 130 169 215 271 320 392
#     4  10  22  39  66  90 128 173 208 262 328 381
#     4  11  23  40  64  95 126 172 217 265 324 389
#     4   9  20  39  62  88 130 165 206 268 314 379
#     4  10  21  42  62  95 130 162 215 265 315 380
#     4  11  26  41  66  95 125 168 214 267 321 383
#
# _framework density 19.829298000000001
#
# number of rings (size 3 to 8) (size 9 to 14) (size 15 to 20)
#    0.000    1.500    2.500    1.875    3.500    4.000 
#    0.000    2.500    0.000    0.000    0.000    0.000 
#    0.000    0.000    0.000    0.000    0.000    0.000 
#
# Total GULP energy -396875.011787 kJ/mol
# GULP energy per Si atom -12402.344118 kJ/mol
# Density = 1.978417 g / cm^3
# Si number density = 19.829298 Si / 1000 Ang^3
#
#
#
# Elastic Constant Matrix: (Units=GPa)
#
#
# Indices 1 2 3 4 5 6 
#
# 1 79.2825 28.0642 24.0556 0.0000 0.0000 0.0000
# 2 28.0642 95.4970 26.1916 0.0000 0.0000 0.0000
# 3 24.0556 26.1916 97.7209 0.0000 0.0000 0.0000
# 4 0.0000 0.0000 0.0000 15.8018 0.0000 0.0000
# 5 0.0000 0.0000 0.0000 0.0000 20.7135 0.0000
# 6 0.0000 0.0000 0.0000 0.0000 0.0000 34.3304
#
#
#
# Elastic Compliance Matrix: (Units=1/GPa)
#
#
# Indices 1 2 3 4 5 6 
#
# 1 0.014689 -0.003589 -0.002654 0.000000 0.000000 0.000000
# 2 -0.003589 0.012179 -0.002381 0.000000 0.000000 0.000000
# 3 -0.002654 -0.002381 0.011525 0.000000 0.000000 0.000000
# 4 0.000000 0.000000 0.000000 0.063284 0.000000 0.000000
# 5 0.000000 0.000000 0.000000 0.000000 0.048278 0.000000
# 6 0.000000 0.000000 0.000000 0.000000 0.000000 0.029129
#
#
# Mechanical properties :
#
#
# Convention : Reuss Voigt Hill
#
# Bulk Modulus (GPa) = 47.29180 47.68036 47.48608
# Shear Modulus (GPa) = 24.58471 27.11508 25.84989
#
# Velocity S-wave (km/s) = 3.52492 3.70188 3.61449
# Velocity P-wave (km/s) = 6.36145 6.50919 6.43574
#
# Compressibility (1/GPa) = 0.02114532
#
# Stress axis : x y z
#
# Youngs Moduli (GPa) = 68.07938 82.10737 86.77023
#
# Poissons Ratio (x) = 0.29466 0.23029
# Poissons Ratio (y) = 0.24432 0.20659
# Poissons Ratio (z) = 0.18068 0.19549
#
# Static dielectric constant tensor:
#      x y z
#    x 4.376570 0.000000 0.000000 
#    y 0.000000 3.803260 0.000000 
#    z 0.000000 0.000000 3.371240 
# 
# 
# High freq. dielectric constant tensor:
#      x y z
#    x 1.792090 0.000000 0.000000 
#    y 0.000000 1.788640 0.000000 
#    z 0.000000 0.000000 1.757200 
# 
# From -- ./inp_files/4617.got.cif
#   From: 2010.03.12/outbox.cif.g09.slc.cpg/sg41_3_cif.got.tgz:4617.got - 2010.04.14 01:55:53.
