data_PCOD8185681
_publ_section_title
;
Structure prediction by ZEFSAII (Michael W. Deem and Ramdas Pophale) SiO2 
 PCOD8185681
Probable space group: A B A 2
;
_chemical_formula_sum "Si O2"
_cell_formula_units_Z 24
_cell_length_a 4.756825
_cell_length_b 10.781936
_cell_length_c 17.571282
_cell_angle_alpha 90.000000
_cell_angle_beta 90.000000
_cell_angle_gamma 90.000000
_cell_volume 901.192093
_symmetry_space_group_name_H-M "A B A 2"
_symmetry_group_IT_number 41
_symmetry_cell_setting 'orthorhombic'
loop_
_space_group_symop_operation_xyz
x,y,z
-x,-y,z
1/2-x,y,1/2+z
1/2+x,-y,1/2+z
x,1/2+y,1/2+z
-x,1/2-y,1/2+z
1/2-x,1/2+y,z
1/2+x,1/2-y,z
loop_
_atom_site_type_symbol
_atom_site_label
_atom_site_fract_x
_atom_site_fract_y
_atom_site_fract_z
Si Si1 0.307699 0.836905 0.046980
Si Si2 0.751723 0.333740 0.801465
Si Si3 0.500000 0.000000 0.428154
Si Si4 0.500000 0.500000 0.675641
O O1 0.628896 0.789730 0.043838
O O2 0.288684 0.916606 0.124489
O O3 0.227307 0.925398 0.977511
O O4 0.578946 0.203975 0.800757
O O5 0.685582 0.407577 0.877881
O O6 0.697555 0.413808 0.726744
#
# Coordination Sequence:
#
# PCOD8185681 Si02
#       4
#     8   8   4   4
#     4  12  26  44  70 106 144 186 236 294 358 426
#     4  11  26  47  72 104 142 190 242 296 358 430
#     4  11  26  46  74 105 146 190 242 299 362 430
#     4  11  26  46  74 105 146 190 242 299 362 430
#
# _framework density 26.631392000000002
#
# number of rings (size 3 to 8) (size 9 to 14) (size 15 to 20)
#    0.000    0.667    0.000    6.000    0.000   16.000 
#    0.000    0.000    0.000    0.000    0.000    0.000 
#    0.000    0.000    0.000    0.000    0.000    0.000 
#
# Total GULP energy -148905.389339 kJ/mol
# GULP energy per Si atom -12408.782445 kJ/mol
# Density = 2.657078 g / cm^3
# Si number density = 26.631392 Si / 1000 Ang^3
#
#
#
# Elastic Constant Matrix: (Units=GPa)
#
#
# Indices 1 2 3 4 5 6 
#
# 1 61.2725 17.2559 16.3833 0.0000 0.0000 0.0000
# 2 17.2559 134.6238 62.7370 0.0000 0.0000 0.0000
# 3 16.3833 62.7370 180.1882 0.0000 0.0000 0.0000
# 4 0.0000 0.0000 0.0000 65.5066 0.0000 0.0000
# 5 0.0000 0.0000 0.0000 0.0000 24.2677 0.0000
# 6 0.0000 0.0000 0.0000 0.0000 0.0000 52.9037
#
#
#
# Elastic Compliance Matrix: (Units=1/GPa)
#
#
# Indices 1 2 3 4 5 6 
#
# 1 0.017065 -0.001748 -0.000943 0.000000 0.000000 0.000000
# 2 -0.001748 0.009046 -0.002991 0.000000 0.000000 0.000000
# 3 -0.000943 -0.002991 0.006677 0.000000 0.000000 0.000000
# 4 0.000000 0.000000 0.000000 0.015266 0.000000 0.000000
# 5 0.000000 0.000000 0.000000 0.000000 0.041207 0.000000
# 6 0.000000 0.000000 0.000000 0.000000 0.000000 0.018902
#
#
# Mechanical properties :
#
#
# Convention : Reuss Voigt Hill
#
# Bulk Modulus (GPa) = 46.67562 63.20409 54.93986
# Shear Modulus (GPa) = 39.47358 47.18283 43.32821
#
# Velocity S-wave (km/s) = 3.85414 4.21372 4.03794
# Velocity P-wave (km/s) = 6.11314 6.88901 6.51263
#
# Compressibility (1/GPa) = 0.02142446
#
# Stress axis : x y z
#
# Youngs Moduli (GPa) = 58.59967 110.54829 149.77353
#
# Poissons Ratio (x) = 0.19323 0.14124
# Poissons Ratio (y) = 0.10243 0.44791
# Poissons Ratio (z) = 0.05526 0.33061
#
# Static dielectric constant tensor:
#      x y z
#    x 4.637050 0.000000 0.000000 
#    y 0.000000 4.992500 0.000000 
#    z 0.000000 0.000000 5.011460 
# 
# 
# High freq. dielectric constant tensor:
#      x y z
#    x 2.063450 0.000000 0.000000 
#    y 0.000000 2.093180 0.000000 
#    z 0.000000 0.000000 2.084750 
# 
# From -- ./inp_files/9328.got.cif
#   From: 2010.03.12/outbox.cif.g09.slc.cpg/sg41_5_cif.got.tgz:9328.got - 2010.04.14 01:55:53.
