data_PCOD8185795
_publ_section_title
;
Structure prediction by ZEFSAII (Michael W. Deem and Ramdas Pophale) SiO2 
 PCOD8185795
Probable space group: F M M 2
;
_chemical_formula_sum "Si O2"
_cell_formula_units_Z 112
_cell_length_a 28.527674
_cell_length_b 14.455584
_cell_length_c 13.677450
_cell_angle_alpha 90.000000
_cell_angle_beta 90.000000
_cell_angle_gamma 90.000000
_cell_volume 5640.364110
_symmetry_space_group_name_H-M "F M M 2"
_symmetry_group_IT_number 42
_symmetry_cell_setting 'orthorhombic'
loop_
_space_group_symop_operation_xyz
x,y,z
-x,-y,z
-x,y,z
x,-y,z
x,1/2+y,1/2+z
-x,1/2-y,1/2+z
-x,1/2+y,1/2+z
x,1/2-y,1/2+z
1/2+x,y,1/2+z
1/2-x,-y,1/2+z
1/2-x,y,1/2+z
1/2+x,-y,1/2+z
1/2+x,1/2+y,z
1/2-x,1/2-y,z
1/2-x,1/2+y,z
1/2+x,1/2-y,z
loop_
_atom_site_type_symbol
_atom_site_label
_atom_site_fract_x
_atom_site_fract_y
_atom_site_fract_z
Si Si1 0.551583 0.150682 0.440820
Si Si2 0.650258 0.602872 0.514565
Si Si3 0.804714 0.255972 0.873315
Si Si4 0.850839 0.897306 0.000349
Si Si5 0.449772 0.857207 0.018410
Si Si6 0.551045 0.708775 0.726067
Si Si7 0.351455 0.237413 0.670941
O O1 0.500000 0.109979 0.467254
O O2 0.593002 0.090994 0.487857
O O3 0.556845 0.252361 0.484697
O O4 0.558462 0.150605 0.324310
O O5 0.671246 0.500000 0.533630
O O6 0.677488 0.651313 0.426238
O O7 0.595750 0.588343 0.481231
O O8 0.653298 0.665943 0.611747
O O9 0.750000 0.250000 0.893210
O O10 0.830093 0.163947 0.912717
O O11 0.814448 0.262633 0.758321
O O12 0.828574 0.000000 0.999163
O O13 0.838352 0.848951 0.102748
O O14 0.500000 0.896718 0.978671
O O15 0.450613 0.862531 0.136114
O O16 0.500000 0.761715 0.731613
O O17 0.595415 0.777120 0.711618
#
# Coordination Sequence:
#
# PCOD8185795 Si02
#       7
#    16  16  16  16  16  16  16
#     4  10  17  31  55  85 120 162 196 228 276 342
#     4  10  21  38  62  91 120 151 194 244 294 350
#     4  11  24  44  64  82 112 155 198 249 307 357
#     4  11  23  39  61  93 124 152 192 244 296 353
#     4   9  16  30  53  84 121 158 196 233 278 334
#     4   9  15  27  53  81 113 158 199 227 269 334
#     4  10  20  39  60  88 118 158 195 239 294 352
#
# _framework density 19.856874000000001
#
# number of rings (size 3 to 8) (size 9 to 14) (size 15 to 20)
#    0.000    2.000    5.714    0.000    0.000    4.571 
#    0.000    0.000    0.000    2.571    0.000    2.000 
#    0.000    0.000    0.000    0.000    0.000    0.000 
#
# Total GULP energy -346941.540975 kJ/mol
# GULP energy per Si atom -12390.769321 kJ/mol
# Density = 1.981168 g / cm^3
# Si number density = 19.856874 Si / 1000 Ang^3
#
#
#
# Elastic Constant Matrix: (Units=GPa)
#
#
# Indices 1 2 3 4 5 6 
#
# 1 103.9496 27.2480 37.4202 0.0000 0.0000 0.0000
# 2 27.2480 124.3493 45.5360 0.0000 0.0000 0.0000
# 3 37.4202 45.5360 103.4715 0.0000 0.0000 0.0000
# 4 0.0000 0.0000 0.0000 5.5137 0.0000 0.0000
# 5 0.0000 0.0000 0.0000 0.0000 22.0472 0.0000
# 6 0.0000 0.0000 0.0000 0.0000 0.0000 4.4140
#
#
#
# Elastic Compliance Matrix: (Units=1/GPa)
#
#
# Indices 1 2 3 4 5 6 
#
# 1 0.011198 -0.001157 -0.003540 0.000000 0.000000 0.000000
# 2 -0.001157 0.009706 -0.003853 0.000000 0.000000 0.000000
# 3 -0.003540 -0.003853 0.012641 0.000000 0.000000 0.000000
# 4 0.000000 0.000000 0.000000 0.181366 0.000000 0.000000
# 5 0.000000 0.000000 0.000000 0.000000 0.045357 0.000000
# 6 0.000000 0.000000 0.000000 0.000000 0.000000 0.226551
#
#
# Mechanical properties :
#
#
# Convention : Reuss Voigt Hill
#
# Bulk Modulus (GPa) = 60.81490 61.35321 61.08406
# Shear Modulus (GPa) = 9.81542 21.16606 15.49074
#
# Velocity S-wave (km/s) = 2.22572 3.26840 2.79609
# Velocity P-wave (km/s) = 6.10723 6.72369 6.42286
#
# Compressibility (1/GPa) = 0.01644334
#
# Stress axis : x y z
#
# Youngs Moduli (GPa) = 89.30258 103.02451 79.11041
#
# Poissons Ratio (x) = 0.11923 0.28008
# Poissons Ratio (y) = 0.10335 0.30482
# Poissons Ratio (z) = 0.31617 0.39696
#
# Static dielectric constant tensor:
#      x y z
#    x 3.854510 0.000000 0.000000 
#    y 0.000000 3.395770 0.000000 
#    z 0.000000 0.000000 3.666330 
# 
# 
# High freq. dielectric constant tensor:
#      x y z
#    x 1.779990 0.000000 0.000000 
#    y 0.000000 1.731920 0.000000 
#    z 0.000000 0.000000 1.773410 
# 
# From -- ./inp_files/14503.got.cif
#   From: 2010.03.12/outbox.cif.g09.slc.cpg/sg42_8_cif.got.tgz:14503.got - 2010.04.14 02:04:31.
