data_PCOD8185755
_publ_section_title
;
Structure prediction by ZEFSAII (Michael W. Deem and Ramdas Pophale) SiO2 
 PCOD8185755
Probable space group: F M M 2
;
_chemical_formula_sum "Si O2"
_cell_formula_units_Z 88
_cell_length_a 9.028139
_cell_length_b 24.157505
_cell_length_c 20.252660
_cell_angle_alpha 90.000000
_cell_angle_beta 90.000000
_cell_angle_gamma 90.000000
_cell_volume 4417.050728
_symmetry_space_group_name_H-M "F M M 2"
_symmetry_group_IT_number 42
_symmetry_cell_setting 'orthorhombic'
loop_
_space_group_symop_operation_xyz
x,y,z
-x,-y,z
-x,y,z
x,-y,z
x,1/2+y,1/2+z
-x,1/2-y,1/2+z
-x,1/2+y,1/2+z
x,1/2-y,1/2+z
1/2+x,y,1/2+z
1/2-x,-y,1/2+z
1/2-x,y,1/2+z
1/2+x,-y,1/2+z
1/2+x,1/2+y,z
1/2-x,1/2-y,z
1/2-x,1/2+y,z
1/2+x,1/2-y,z
loop_
_atom_site_type_symbol
_atom_site_label
_atom_site_fract_x
_atom_site_fract_y
_atom_site_fract_z
Si Si1 0.677180 0.382585 0.432240
Si Si2 0.336018 0.621087 0.802322
Si Si3 0.323823 0.308978 0.676182
Si Si4 0.659164 0.000000 0.905734
Si Si5 0.246765 0.500000 0.268219
Si Si6 0.170577 0.500000 0.615810
Si Si7 0.177228 0.118471 0.065507
O O1 0.500000 0.376899 0.438454
O O2 0.728392 0.358715 0.361732
O O3 0.741755 0.445491 0.430352
O O4 0.760822 0.358504 0.495570
O O5 0.500000 0.638854 0.823998
O O6 0.281530 0.655291 0.739755
O O7 0.344086 0.556309 0.781595
O O8 0.500000 0.304502 0.664820
O O9 0.250000 0.250000 0.685947
O O10 0.246063 0.338276 0.615302
O O11 0.500000 0.000000 0.940098
O O12 0.630345 0.000000 0.826147
O O13 0.310365 0.500000 0.194693
O O14 0.237491 0.556269 0.583492
O O15 0.000000 0.500000 0.598774
O O16 0.000000 0.121379 0.067164
#
# Coordination Sequence:
#
# PCOD8185755 Si02
#       7
#    16  16  16   8   8   8  16
#     4  10  20  35  56  84 119 159 199 241 292 351
#     4  10  21  37  60  89 120 154 194 243 297 354
#     4  11  24  43  64  88 117 153 199 249 302 355
#     4   8  16  28  48  78 117 158 192 235 284 343
#     4  10  16  32  54  87 121 153 194 235 292 351
#     4  10  20  32  54  89 125 159 197 240 291 352
#     4  11  22  38  60  89 124 161 199 244 295 352
#
# _framework density 19.922794
#
# number of rings (size 3 to 8) (size 9 to 14) (size 15 to 20)
#    0.000    1.818    1.818    2.727    0.000    2.182 
#    0.000    5.000    0.000    2.182    0.000    0.000 
#    0.000    0.000    0.000    0.000    0.000    0.000 
#
# Total GULP energy -272543.086336 kJ/mol
# GULP energy per Si atom -12388.322106 kJ/mol
# Density = 1.987745 g / cm^3
# Si number density = 19.922794 Si / 1000 Ang^3
#
#
#
# Elastic Constant Matrix: (Units=GPa)
#
#
# Indices 1 2 3 4 5 6 
#
# 1 94.6318 34.7783 59.8835 0.0000 0.0000 0.0000
# 2 34.7783 90.8980 57.6736 0.0000 0.0000 0.0000
# 3 59.8835 57.6736 156.9617 0.0000 0.0000 0.0000
# 4 0.0000 0.0000 0.0000 -0.4890 0.0000 0.0000
# 5 0.0000 0.0000 0.0000 0.0000 36.3050 0.0000
# 6 0.0000 0.0000 0.0000 0.0000 0.0000 9.6326
#
#
#
# Elastic Compliance Matrix: (Units=1/GPa)
#
#
# Indices 1 2 3 4 5 6 
#
# 1 0.014400 -0.002639 -0.004524 0.000000 0.000000 0.000000
# 2 -0.002639 0.014829 -0.004442 0.000000 0.000000 0.000000
# 3 -0.004524 -0.004442 0.009729 0.000000 0.000000 0.000000
# 4 0.000000 0.000000 0.000000 -2.044933 0.000000 0.000000
# 5 0.000000 0.000000 0.000000 0.000000 0.027544 0.000000
# 6 0.000000 0.000000 0.000000 0.000000 0.000000 0.103814
#
#
# Mechanical properties :
#
#
# Convention : Reuss Voigt Hill
#
# Bulk Modulus (GPa) = 63.49938 71.90692 67.70315
# Shear Modulus (GPa) = -2.70833 21.76678 9.52923
#
# Velocity S-wave (km/s) = -1.16720 3.30897 2.18940
# Velocity P-wave (km/s) = 5.48866 7.12532 6.35986
#
# Compressibility (1/GPa) = 0.01574819
#
# Stress axis : x y z
#
# Youngs Moduli (GPa) = 69.44404 67.43320 102.78317
#
# Poissons Ratio (x) = 0.17796 0.46501
# Poissons Ratio (y) = 0.18327 0.45657
# Poissons Ratio (z) = 0.31418 0.29954
#
# Static dielectric constant tensor:
#      x y z
#    x 3.476000 0.000000 0.000000 
#    y 0.000000 3.637360 0.000000 
#    z 0.000000 0.000000 3.729050 
# 
# 
# High freq. dielectric constant tensor:
#      x y z
#    x 1.770000 0.000000 0.000000 
#    y 0.000000 1.754550 0.000000 
#    z 0.000000 0.000000 1.792600 
# 
# From -- ./inp_files/23560.got.cif
#   From: 2010.03.12/outbox.cif.g09.slc.cpg/sg42_12_cif.got.tgz:23560.got - 2010.04.14 02:04:31.
