data_PCOD8185095
_publ_section_title
;
Structure prediction by ZEFSAII (Michael W. Deem and Ramdas Pophale) SiO2 
 PCOD8185095
Probable space group: A B A 2
;
_chemical_formula_sum "Si O2"
_cell_formula_units_Z 40
_cell_length_a 9.864005
_cell_length_b 9.815888
_cell_length_c 20.326997
_cell_angle_alpha 90.000000
_cell_angle_beta 90.000000
_cell_angle_gamma 90.000000
_cell_volume 1968.140513
_symmetry_space_group_name_H-M "A B A 2"
_symmetry_group_IT_number 41
_symmetry_cell_setting 'orthorhombic'
loop_
_space_group_symop_operation_xyz
x,y,z
-x,-y,z
1/2-x,y,1/2+z
1/2+x,-y,1/2+z
x,1/2+y,1/2+z
-x,1/2-y,1/2+z
1/2-x,1/2+y,z
1/2+x,1/2-y,z
loop_
_atom_site_type_symbol
_atom_site_label
_atom_site_fract_x
_atom_site_fract_y
_atom_site_fract_z
Si Si1 0.000000 0.500000 0.643000
Si Si2 0.647174 0.880551 0.524314
Si Si3 0.000000 0.500000 0.264473
Si Si4 0.815846 0.198520 0.826853
Si Si5 0.354122 0.326277 0.976378
Si Si6 0.450634 0.285747 0.248078
O O1 0.885487 0.427160 0.599074
O O2 0.926627 0.612141 0.688291
O O3 0.767764 0.770795 0.525333
O O4 0.513002 0.811871 0.492940
O O5 0.690790 0.016207 0.484336
O O6 0.121454 0.451278 0.312755
O O7 0.050056 0.628714 0.220520
O O8 0.821781 0.229016 0.903982
O O9 0.662370 0.200243 0.803612
O O10 0.905820 0.310331 0.786002
#
# Coordination Sequence:
#
# PCOD8185095 Si02
#       6
#     4   8   4   8   8   8
#     4  10  24  43  58  90 129 158 222 254 300 376
#     4  10  24  43  62  90 119 175 205 263 299 363
#     4   8  22  39  58  98 125 162 200 244 326 360
#     4  10  21  37  64  96 125 156 201 258 322 367
#     4  10  21  40  67  89 128 155 212 255 317 367
#     4  10  23  36  63  92 129 163 199 257 318 370
#
# _framework density 20.323751999999999
#
# number of rings (size 3 to 8) (size 9 to 14) (size 15 to 20)
#    1.200    1.200    0.000    2.400    5.600    4.000 
#    0.000    0.000    0.000    0.000    0.000    0.000 
#    0.000    0.000    0.000    0.000    0.000    0.000 
#
# Total GULP energy -247817.934035 kJ/mol
# GULP energy per Si atom -12390.896702 kJ/mol
# Density = 2.027749 g / cm^3
# Si number density = 20.323752 Si / 1000 Ang^3
#
#
#
# Elastic Constant Matrix: (Units=GPa)
#
#
# Indices 1 2 3 4 5 6 
#
# 1 80.9301 49.5240 36.5573 0.0000 0.0000 0.0000
# 2 49.5240 112.1016 42.6581 0.0000 0.0000 0.0000
# 3 36.5573 42.6581 129.8785 0.0000 0.0000 0.0000
# 4 0.0000 0.0000 0.0000 30.2428 0.0000 0.0000
# 5 0.0000 0.0000 0.0000 0.0000 12.8074 0.0000
# 6 0.0000 0.0000 0.0000 0.0000 0.0000 38.3273
#
#
#
# Elastic Compliance Matrix: (Units=1/GPa)
#
#
# Indices 1 2 3 4 5 6 
#
# 1 0.017765 -0.006795 -0.002769 0.000000 0.000000 0.000000
# 2 -0.006795 0.012793 -0.002289 0.000000 0.000000 0.000000
# 3 -0.002769 -0.002289 0.009231 0.000000 0.000000 0.000000
# 4 0.000000 0.000000 0.000000 0.033066 0.000000 0.000000
# 5 0.000000 0.000000 0.000000 0.000000 0.078080 0.000000
# 6 0.000000 0.000000 0.000000 0.000000 0.000000 0.026091
#
#
# Mechanical properties :
#
#
# Convention : Reuss Voigt Hill
#
# Bulk Modulus (GPa) = 62.17507 64.48767 63.33137
# Shear Modulus (GPa) = 24.26100 29.22024 26.74062
#
# Velocity S-wave (km/s) = 3.45878 3.79587 3.63124
# Velocity P-wave (km/s) = 6.82713 7.14217 6.98642
#
# Compressibility (1/GPa) = 0.01608362
#
# Stress axis : x y z
#
# Youngs Moduli (GPa) = 56.29109 78.16563 108.33328
#
# Poissons Ratio (x) = 0.53110 0.29994
# Poissons Ratio (y) = 0.38247 0.24802
# Poissons Ratio (z) = 0.15585 0.17896
#
# Static dielectric constant tensor:
#      x y z
#    x 3.524410 0.000000 0.000000 
#    y 0.000000 3.699420 0.000000 
#    z 0.000000 0.000000 3.403450 
# 
# 
# High freq. dielectric constant tensor:
#      x y z
#    x 1.788210 0.000000 0.000000 
#    y 0.000000 1.793310 0.000000 
#    z 0.000000 0.000000 1.777230 
# 
# From -- ./inp_files/9573.got.cif
#   From: 2010.03.12/outbox.cif.g09.slc.cpg/sg41_5_cif.got.tgz:9573.got - 2010.04.14 01:55:53.
