data_PCOD8185824
_publ_section_title
;
Structure prediction by ZEFSAII (Michael W. Deem and Ramdas Pophale) SiO2 
 PCOD8185824
Probable space group: F M M 2
;
_chemical_formula_sum "Si O2"
_cell_formula_units_Z 112
_cell_length_a 21.085011
_cell_length_b 17.924546
_cell_length_c 17.476879
_cell_angle_alpha 90.000000
_cell_angle_beta 90.000000
_cell_angle_gamma 90.000000
_cell_volume 6605.198534
_symmetry_space_group_name_H-M "F M M 2"
_symmetry_group_IT_number 42
_symmetry_cell_setting 'orthorhombic'
loop_
_space_group_symop_operation_xyz
x,y,z
-x,-y,z
-x,y,z
x,-y,z
x,1/2+y,1/2+z
-x,1/2-y,1/2+z
-x,1/2+y,1/2+z
x,1/2-y,1/2+z
1/2+x,y,1/2+z
1/2-x,-y,1/2+z
1/2-x,y,1/2+z
1/2+x,-y,1/2+z
1/2+x,1/2+y,z
1/2-x,1/2-y,z
1/2-x,1/2+y,z
1/2+x,1/2-y,z
loop_
_atom_site_type_symbol
_atom_site_label
_atom_site_fract_x
_atom_site_fract_y
_atom_site_fract_z
Si Si1 0.212327 0.323611 0.665430
Si Si2 0.671531 0.412347 0.716245
Si Si3 0.350831 0.912209 0.053269
Si Si4 0.705913 0.087940 0.525785
Si Si5 0.427576 0.088474 0.911250
Si Si6 0.328751 0.818023 0.827459
Si Si7 0.687248 0.155903 0.368138
O O1 0.250000 0.250000 0.637471
O O2 0.256684 0.388484 0.699271
O O3 0.174833 0.361941 0.594192
O O4 0.167234 0.299694 0.736327
O O5 0.668451 0.500000 0.724602
O O6 0.632782 0.384497 0.640030
O O7 0.647316 0.378261 0.796566
O O8 0.280282 0.888962 0.025946
O O9 0.354337 0.000000 0.053211
O O10 0.402239 0.881306 0.993266
O O11 0.672741 0.111896 0.446380
O O12 0.694993 0.000000 0.539387
O O13 0.500000 0.113579 0.902184
O O14 0.386204 0.126565 0.845299
O O15 0.419854 0.000000 0.903438
O O16 0.334480 0.741453 0.875518
O O17 0.261643 0.854383 0.849781
#
# Coordination Sequence:
#
# PCOD8185824 Si02
#       7
#    16  16  16  16  16  16  16
#     4  10  18  29  42  68 102 137 170 200 255 320
#     4   9  16  27  44  65  95 130 165 202 245 311
#     4   8  15  27  43  67  97 126 158 203 251 287
#     4  10  19  28  45  73 104 139 170 205 252 309
#     4  10  20  33  52  75 100 137 180 217 258 310
#     4  10  19  32  45  71 101 131 167 209 262 311
#     4  10  18  29  46  74 101 134 167 199 266 317
#
# _framework density 16.956341999999999
#
# number of rings (size 3 to 8) (size 9 to 14) (size 15 to 20)
#    0.000    2.429    4.286    1.714    2.000    2.857 
#    0.000    0.000    0.000    0.857    0.000    0.000 
#    0.000    1.714    0.000    0.286    0.000    0.000 
#
# Total GULP energy -346884.366329 kJ/mol
# GULP energy per Si atom -12388.727369 kJ/mol
# Density = 1.691775 g / cm^3
# Si number density = 16.956342 Si / 1000 Ang^3
#
#
#
# Elastic Constant Matrix: (Units=GPa)
#
#
# Indices 1 2 3 4 5 6 
#
# 1 42.2794 17.2910 11.6466 0.0000 0.0000 0.0000
# 2 17.2910 68.3051 44.0365 0.0000 0.0000 0.0000
# 3 11.6466 44.0365 130.3305 0.0000 0.0000 0.0000
# 4 0.0000 0.0000 0.0000 32.3656 0.0000 0.0000
# 5 0.0000 0.0000 0.0000 0.0000 12.2979 0.0000
# 6 0.0000 0.0000 0.0000 0.0000 0.0000 14.3059
#
#
#
# Elastic Compliance Matrix: (Units=1/GPa)
#
#
# Indices 1 2 3 4 5 6 
#
# 1 0.026385 -0.006596 -0.000129 0.000000 0.000000 0.000000
# 2 -0.006596 0.020366 -0.006292 0.000000 0.000000 0.000000
# 3 -0.000129 -0.006292 0.009810 0.000000 0.000000 0.000000
# 4 0.000000 0.000000 0.000000 0.030897 0.000000 0.000000
# 5 0.000000 0.000000 0.000000 0.000000 0.081315 0.000000
# 6 0.000000 0.000000 0.000000 0.000000 0.000000 0.069901
#
#
# Mechanical properties :
#
#
# Convention : Reuss Voigt Hill
#
# Bulk Modulus (GPa) = 32.75720 42.98483 37.87101
# Shear Modulus (GPa) = 18.18940 22.98994 20.58967
#
# Velocity S-wave (km/s) = 3.27879 3.68616 3.48843
# Velocity P-wave (km/s) = 5.80469 6.59715 6.21357
#
# Compressibility (1/GPa) = 0.03052764
#
# Stress axis : x y z
#
# Youngs Moduli (GPa) = 37.89981 49.10036 101.93344
#
# Poissons Ratio (x) = 0.32387 0.01317
# Poissons Ratio (y) = 0.24999 0.64137
# Poissons Ratio (z) = 0.00490 0.30894
#
# Static dielectric constant tensor:
#      x y z
#    x 2.629470 0.000000 0.000000 
#    y 0.000000 3.143090 0.000000 
#    z 0.000000 0.000000 3.769700 
# 
# 
# High freq. dielectric constant tensor:
#      x y z
#    x 1.562100 0.000000 0.000000 
#    y 0.000000 1.657130 0.000000 
#    z 0.000000 0.000000 1.675990 
# 
# From -- ./inp_files/21066.got.cif
#   From: 2010.03.12/outbox.cif.g09.slc.cpg/sg42_11_cif.got.tgz:21066.got - 2010.04.14 02:04:31.
