data_PCOD8185591
_publ_section_title
;
Structure prediction by ZEFSAII (Michael W. Deem and Ramdas Pophale) SiO2 
 PCOD8185591
Probable space group: A B A 2
;
_chemical_formula_sum "Si O2"
_cell_formula_units_Z 64
_cell_length_a 22.384384
_cell_length_b 9.118312
_cell_length_c 14.010243
_cell_angle_alpha 90.000000
_cell_angle_beta 90.000000
_cell_angle_gamma 90.000000
_cell_volume 2859.599838
_symmetry_space_group_name_H-M "A B A 2"
_symmetry_group_IT_number 41
_symmetry_cell_setting 'orthorhombic'
loop_
_space_group_symop_operation_xyz
x,y,z
-x,-y,z
1/2-x,y,1/2+z
1/2+x,-y,1/2+z
x,1/2+y,1/2+z
-x,1/2-y,1/2+z
1/2-x,1/2+y,z
1/2+x,1/2-y,z
loop_
_atom_site_type_symbol
_atom_site_label
_atom_site_fract_x
_atom_site_fract_y
_atom_site_fract_z
Si Si1 0.744742 0.964902 0.605030
Si Si2 0.348733 0.809464 0.846200
Si Si3 0.629499 0.926259 0.504739
Si Si4 0.437758 0.287469 0.968475
Si Si5 0.321093 0.125110 0.924353
Si Si6 0.735033 0.222441 0.243472
Si Si7 0.022916 0.163933 0.121848
Si Si8 0.515124 0.665071 0.319473
O O1 0.684564 0.020306 0.550769
O O2 0.786803 0.886669 0.525841
O O3 0.713736 0.844716 0.671348
O O4 0.777858 0.075049 0.679786
O O5 0.306215 0.762256 0.759200
O O6 0.414273 0.823365 0.802913
O O7 0.320679 0.963215 0.880574
O O8 0.343863 0.687336 0.928469
O O9 0.589493 0.828994 0.577867
O O10 0.587599 0.048689 0.457559
O O11 0.389069 0.164648 0.947177
O O12 0.494478 0.278968 0.898627
O O13 0.470116 0.248985 0.067973
O O14 0.296103 0.248994 0.848277
O O15 0.023502 0.221518 0.229389
O O16 0.000000 0.000000 0.127586
O O17 0.500000 0.500000 0.350624
#
# Coordination Sequence:
#
# PCOD8185591 Si02
#       8
#     8   8   8   8   8   8   8   8
#     4  12  27  46  71 100 143 184 237 293 362 425
#     4  12  25  46  72  98 145 185 232 294 361 424
#     4  11  24  45  73  98 139 186 235 297 358 420
#     4  11  24  43  73 101 139 183 238 293 352 424
#     4  12  27  47  68 103 143 188 234 296 358 430
#     4  12  28  45  70 106 137 187 239 290 356 435
#     4   9  22  40  66 102 135 179 231 281 343 418
#     4  11  23  43  71 103 140 190 233 287 357 425
#
# _framework density 22.380754
#
# number of rings (size 3 to 8) (size 9 to 14) (size 15 to 20)
#    0.000    0.750    5.000    1.500   12.250    0.000 
#    0.000    0.000    5.500    0.000    0.000    0.000 
#    0.000    0.000    0.000    0.000    0.000    0.000 
#
# Total GULP energy -396423.798291 kJ/mol
# GULP energy per Si atom -12388.243697 kJ/mol
# Density = 2.232981 g / cm^3
# Si number density = 22.380754 Si / 1000 Ang^3
#
#
#
# Elastic Constant Matrix: (Units=GPa)
#
#
# Indices 1 2 3 4 5 6 
#
# 1 78.1189 8.9949 17.8452 0.0000 0.0000 0.0000
# 2 8.9949 67.9903 28.5661 0.0000 0.0000 0.0000
# 3 17.8452 28.5661 114.0467 0.0000 0.0000 0.0000
# 4 0.0000 0.0000 0.0000 36.9792 0.0000 0.0000
# 5 0.0000 0.0000 0.0000 0.0000 20.0900 0.0000
# 6 0.0000 0.0000 0.0000 0.0000 0.0000 32.7958
#
#
#
# Elastic Compliance Matrix: (Units=1/GPa)
#
#
# Indices 1 2 3 4 5 6 
#
# 1 0.013335 -0.000992 -0.001838 0.000000 0.000000 0.000000
# 2 -0.000992 0.016512 -0.003981 0.000000 0.000000 0.000000
# 3 -0.001838 -0.003981 0.010053 0.000000 0.000000 0.000000
# 4 0.000000 0.000000 0.000000 0.027042 0.000000 0.000000
# 5 0.000000 0.000000 0.000000 0.000000 0.049776 0.000000
# 6 0.000000 0.000000 0.000000 0.000000 0.000000 0.030492
#
#
# Mechanical properties :
#
#
# Convention : Reuss Voigt Hill
#
# Bulk Modulus (GPa) = 38.05392 41.21870 39.63631
# Shear Modulus (GPa) = 29.48280 31.62298 30.55289
#
# Velocity S-wave (km/s) = 3.63344 3.76301 3.69879
# Velocity P-wave (km/s) = 5.88578 6.11043 5.99915
#
# Compressibility (1/GPa) = 0.02627850
#
# Stress axis : x y z
#
# Youngs Moduli (GPa) = 74.99007 60.56334 99.47277
#
# Poissons Ratio (x) = 0.06007 0.18284
# Poissons Ratio (y) = 0.07438 0.39596
# Poissons Ratio (z) = 0.13784 0.24108
#
# Static dielectric constant tensor:
#      x y z
#    x 4.053610 0.000000 0.000000 
#    y 0.000000 3.942980 0.000000 
#    z 0.000000 0.000000 4.894430 
# 
# 
# High freq. dielectric constant tensor:
#      x y z
#    x 1.891670 0.000000 0.000000 
#    y 0.000000 1.863580 0.000000 
#    z 0.000000 0.000000 1.892310 
# 
# From -- ./inp_files/9155.got.cif
#   From: 2010.03.12/outbox.cif.g09.slc.cpg/sg41_5_cif.got.tgz:9155.got - 2010.04.14 01:55:53.
