data_PCOD8185732
_publ_section_title
;
Structure prediction by ZEFSAII (Michael W. Deem and Ramdas Pophale) SiO2 
 PCOD8185732
Probable space group: A B A 2
;
_chemical_formula_sum "Si O2"
_cell_formula_units_Z 28
_cell_length_a 20.791713
_cell_length_b 6.948247
_cell_length_c 7.306772
_cell_angle_alpha 90.000000
_cell_angle_beta 90.000000
_cell_angle_gamma 90.000000
_cell_volume 1055.579813
_symmetry_space_group_name_H-M "A B A 2"
_symmetry_group_IT_number 41
_symmetry_cell_setting 'orthorhombic'
loop_
_space_group_symop_operation_xyz
x,y,z
-x,-y,z
1/2-x,y,1/2+z
1/2+x,-y,1/2+z
x,1/2+y,1/2+z
-x,1/2-y,1/2+z
1/2-x,1/2+y,z
1/2+x,1/2-y,z
loop_
_atom_site_type_symbol
_atom_site_label
_atom_site_fract_x
_atom_site_fract_y
_atom_site_fract_z
Si Si1 0.329642 0.621354 0.293290
Si Si2 0.500000 0.000000 0.133313
Si Si3 0.685887 0.456527 0.706841
Si Si4 0.915065 0.201861 0.343296
O O1 0.331186 0.640856 0.513875
O O2 0.261518 0.528191 0.239723
O O3 0.387683 0.481158 0.225941
O O4 0.341407 0.827039 0.203068
O O5 0.443750 0.894331 0.023935
O O6 0.529647 0.826307 0.249894
O O7 0.648842 0.337576 0.868469
#
# Coordination Sequence:
#
# PCOD8185732 Si02
#       4
#     8   4   8   8
#     4  12  27  48  82 120 159 201 260 334 402 462
#     4  12  32  52  80 108 166 218 260 320 380 482
#     4  12  27  48  82 120 159 201 260 334 402 462
#     4  12  30  56  78 118 158 212 270 318 394 472
#
# _framework density 26.525708999999999
#
# number of rings (size 3 to 8) (size 9 to 14) (size 15 to 20)
#    0.000    0.000    5.714    1.714    4.000    5.714 
#    0.000    0.000    0.000    0.000    0.000    0.000 
#    0.000    0.000    0.000    0.000    0.000    0.000 
#
# Total GULP energy -173534.729570 kJ/mol
# GULP energy per Si atom -12395.337826 kJ/mol
# Density = 2.646534 g / cm^3
# Si number density = 26.525709 Si / 1000 Ang^3
#
#
#
# Elastic Constant Matrix: (Units=GPa)
#
#
# Indices 1 2 3 4 5 6 
#
# 1 108.7404 10.0355 5.1575 0.0000 0.0000 0.0000
# 2 10.0355 110.7838 3.4966 0.0000 0.0000 0.0000
# 3 5.1575 3.4966 48.2737 0.0000 0.0000 0.0000
# 4 0.0000 0.0000 0.0000 27.1399 0.0000 0.0000
# 5 0.0000 0.0000 0.0000 0.0000 41.3583 0.0000
# 6 0.0000 0.0000 0.0000 0.0000 0.0000 70.8636
#
#
#
# Elastic Compliance Matrix: (Units=1/GPa)
#
#
# Indices 1 2 3 4 5 6 
#
# 1 0.009316 -0.000814 -0.000936 0.000000 0.000000 0.000000
# 2 -0.000814 0.009118 -0.000573 0.000000 0.000000 0.000000
# 3 -0.000936 -0.000573 0.020857 0.000000 0.000000 0.000000
# 4 0.000000 0.000000 0.000000 0.036846 0.000000 0.000000
# 5 0.000000 0.000000 0.000000 0.000000 0.024179 0.000000
# 6 0.000000 0.000000 0.000000 0.000000 0.000000 0.014112
#
#
# Mechanical properties :
#
#
# Convention : Reuss Voigt Hill
#
# Bulk Modulus (GPa) = 28.86600 33.90855 31.38728
# Shear Modulus (GPa) = 38.27795 44.47958 41.37877
#
# Velocity S-wave (km/s) = 3.80287 4.09938 3.95390
# Velocity P-wave (km/s) = 5.49439 5.93444 5.71865
#
# Compressibility (1/GPa) = 0.03464283
#
# Stress axis : x y z
#
# Youngs Moduli (GPa) = 107.34481 109.66765 47.94603
#
# Poissons Ratio (x) = 0.08931 0.04489
# Poissons Ratio (y) = 0.08741 0.02750
# Poissons Ratio (z) = 0.10051 0.06289
#
# Static dielectric constant tensor:
#      x y z
#    x 5.170270 0.000000 0.000000 
#    y 0.000000 5.133460 0.000000 
#    z 0.000000 0.000000 4.430260 
# 
# 
# High freq. dielectric constant tensor:
#      x y z
#    x 2.087100 0.000000 0.000000 
#    y 0.000000 2.088900 0.000000 
#    z 0.000000 0.000000 2.044720 
# 
# From -- ./inp_files/3750.got.cif
#   From: 2010.03.12/outbox.cif.g09.slc.cpg/sg41_2_cif.got.tgz:3750.got - 2010.04.14 01:55:53.
