data_PCOD8185306
_publ_section_title
;
Structure prediction by ZEFSAII (Michael W. Deem and Ramdas Pophale) SiO2 
 PCOD8185306
Probable space group: A B A 2
;
_chemical_formula_sum "Si O2"
_cell_formula_units_Z 60
_cell_length_a 27.945108
_cell_length_b 11.271386
_cell_length_c 8.921575
_cell_angle_alpha 90.000000
_cell_angle_beta 90.000000
_cell_angle_gamma 90.000000
_cell_volume 2810.118577
_symmetry_space_group_name_H-M "A B A 2"
_symmetry_group_IT_number 41
_symmetry_cell_setting 'orthorhombic'
loop_
_space_group_symop_operation_xyz
x,y,z
-x,-y,z
1/2-x,y,1/2+z
1/2+x,-y,1/2+z
x,1/2+y,1/2+z
-x,1/2-y,1/2+z
1/2-x,1/2+y,z
1/2+x,1/2-y,z
loop_
_atom_site_type_symbol
_atom_site_label
_atom_site_fract_x
_atom_site_fract_y
_atom_site_fract_z
Si Si1 0.095154 0.576257 0.543680
Si Si2 0.812628 0.542342 0.111342
Si Si3 0.018947 0.271488 0.949934
Si Si4 0.500000 0.000000 0.118694
Si Si5 0.940007 0.179571 0.136353
Si Si6 0.188402 0.684929 0.630593
Si Si7 0.600306 0.410661 0.712697
Si Si8 0.248131 0.071264 0.870542
O O1 0.055814 0.678781 0.523959
O O2 0.075089 0.456640 0.619840
O O3 0.138349 0.615894 0.650621
O O4 0.117950 0.555831 0.379235
O O5 0.824794 0.679006 0.117307
O O6 0.864096 0.476780 0.099577
O O7 0.783809 0.506193 0.259354
O O8 0.782366 0.516381 0.962732
O O9 0.023403 0.296856 0.773569
O O10 0.025939 0.399802 0.022171
O O11 0.965993 0.219461 0.982190
O O12 0.543688 0.945089 0.213753
O O13 0.895639 0.269665 0.170018
O O14 0.215561 0.647132 0.480551
O O15 0.220213 0.663619 0.776720
#
# Coordination Sequence:
#
# PCOD8185306 Si02
#       8
#     8   8   8   4   8   8   8   8
#     4  11  23  40  66  95 131 171 220 266 333 388
#     4  11  22  45  69  97 136 172 217 278 330 399
#     4  10  23  41  65  95 129 173 214 270 324 382
#     4  10  22  40  62  96 134 166 224 264 326 392
#     4  10  24  42  65  94 131 175 220 270 318 397
#     4  11  23  43  67  98 127 171 214 267 332 390
#     4  10  23  41  63  95 132 175 211 272 328 379
#     4  10  24  43  66 101 129 171 218 269 333 398
#
# _framework density 21.351413000000001
#
# number of rings (size 3 to 8) (size 9 to 14) (size 15 to 20)
#    0.000    1.600    1.333    2.000    7.467    4.267 
#   12.000    0.000    0.000    0.000    0.000    0.000 
#    0.000    0.000    0.000    0.000    0.000    0.000 
#
# Total GULP energy -371896.186473 kJ/mol
# GULP energy per Si atom -12396.539549 kJ/mol
# Density = 2.130282 g / cm^3
# Si number density = 21.351413 Si / 1000 Ang^3
#
#
#
# Elastic Constant Matrix: (Units=GPa)
#
#
# Indices 1 2 3 4 5 6 
#
# 1 98.5040 51.0810 39.8168 0.0000 0.0000 0.0000
# 2 51.0810 168.6041 49.3816 0.0000 0.0000 0.0000
# 3 39.8168 49.3816 92.8962 0.0000 0.0000 0.0000
# 4 0.0000 0.0000 0.0000 24.1104 0.0000 0.0000
# 5 0.0000 0.0000 0.0000 0.0000 6.6681 0.0000
# 6 0.0000 0.0000 0.0000 0.0000 0.0000 32.6715
#
#
#
# Elastic Compliance Matrix: (Units=1/GPa)
#
#
# Indices 1 2 3 4 5 6 
#
# 1 0.013306 -0.002796 -0.004217 0.000000 0.000000 0.000000
# 2 -0.002796 0.007612 -0.002848 0.000000 0.000000 0.000000
# 3 -0.004217 -0.002848 0.014086 0.000000 0.000000 0.000000
# 4 0.000000 0.000000 0.000000 0.041476 0.000000 0.000000
# 5 0.000000 0.000000 0.000000 0.000000 0.149967 0.000000
# 6 0.000000 0.000000 0.000000 0.000000 0.000000 0.030608
#
#
# Mechanical properties :
#
#
# Convention : Reuss Voigt Hill
#
# Bulk Modulus (GPa) = 65.43456 71.17367 68.30412
# Shear Modulus (GPa) = 17.73855 27.33833 22.53844
#
# Velocity S-wave (km/s) = 2.88547 3.58215 3.25252
# Velocity P-wave (km/s) = 6.46639 7.10745 6.79449
#
# Compressibility (1/GPa) = 0.01528244
#
# Stress axis : x y z
#
# Youngs Moduli (GPa) = 75.15128 131.36490 70.99208
#
# Poissons Ratio (x) = 0.36734 0.29937
# Poissons Ratio (y) = 0.21015 0.20219
# Poissons Ratio (z) = 0.31691 0.37413
#
# Static dielectric constant tensor:
#      x y z
#    x 3.793590 0.000000 0.000000 
#    y 0.000000 3.980450 0.000000 
#    z 0.000000 0.000000 4.013450 
# 
# 
# High freq. dielectric constant tensor:
#      x y z
#    x 1.836170 0.000000 0.000000 
#    y 0.000000 1.849410 0.000000 
#    z 0.000000 0.000000 1.836550 
# 
# From -- ./inp_files/3794.got.cif
#   From: 2010.03.12/outbox.cif.g09.slc.cpg/sg41_2_cif.got.tgz:3794.got - 2010.04.14 01:55:53.
