data_PCOD8185417
_publ_section_title
;
Structure prediction by ZEFSAII (Michael W. Deem and Ramdas Pophale) SiO2 
 PCOD8185417
Probable space group: A B A 2
;
_chemical_formula_sum "Si O2"
_cell_formula_units_Z 56
_cell_length_a 15.297645
_cell_length_b 8.664052
_cell_length_c 19.212359
_cell_angle_alpha 90.000000
_cell_angle_beta 90.000000
_cell_angle_gamma 90.000000
_cell_volume 2546.398219
_symmetry_space_group_name_H-M "A B A 2"
_symmetry_group_IT_number 41
_symmetry_cell_setting 'orthorhombic'
loop_
_space_group_symop_operation_xyz
x,y,z
-x,-y,z
1/2-x,y,1/2+z
1/2+x,-y,1/2+z
x,1/2+y,1/2+z
-x,1/2-y,1/2+z
1/2-x,1/2+y,z
1/2+x,1/2-y,z
loop_
_atom_site_type_symbol
_atom_site_label
_atom_site_fract_x
_atom_site_fract_y
_atom_site_fract_z
Si Si1 0.767983 0.438655 0.010760
Si Si2 0.683089 0.302128 0.817595
Si Si3 0.269682 0.958931 0.725215
Si Si4 0.507222 0.167585 0.325352
Si Si5 0.327934 0.321307 0.921009
Si Si6 0.169679 0.801407 0.599689
Si Si7 0.938149 0.860976 0.194616
O O1 0.713051 0.358772 0.072762
O O2 0.831820 0.576370 0.036489
O O3 0.702251 0.512362 0.952093
O O4 0.832336 0.308056 0.980780
O O5 0.673425 0.181290 0.754884
O O6 0.703442 0.471581 0.784252
O O7 0.589545 0.299598 0.856819
O O8 0.759037 0.243657 0.866576
O O9 0.221200 0.891780 0.659310
O O10 0.336869 0.093321 0.705134
O O11 0.576162 0.166266 0.388075
O O12 0.528871 0.290693 0.266316
O O13 0.500000 0.000000 0.289427
O O14 0.072420 0.760349 0.630185
O O15 0.000000 0.000000 0.170644
#
# Coordination Sequence:
#
# PCOD8185417 Si02
#       7
#     8   8   8   8   8   8   8
#     4  10  23  41  71  90 127 189 236 267 325 398
#     4  12  23  39  70 100 133 170 215 276 352 412
#     4  12  21  40  71  99 130 173 212 274 350 411
#     4  12  25  41  67 102 138 171 217 280 349 414
#     4  11  23  44  66  97 135 179 231 278 332 402
#     4  11  21  43  70  95 128 180 231 274 329 407
#     4  12  24  41  66 105 140 170 215 282 350 413
#
# _framework density 21.991847
#
# number of rings (size 3 to 8) (size 9 to 14) (size 15 to 20)
#    0.000    0.571    5.714    3.429    0.000    0.000 
#    0.000    3.571    3.143    0.000    0.000    0.000 
#    0.000    0.000    0.000    0.000    0.000    0.000 
#
# Total GULP energy -347049.930997 kJ/mol
# GULP energy per Si atom -12394.640393 kJ/mol
# Density = 2.194179 g / cm^3
# Si number density = 21.991847 Si / 1000 Ang^3
#
#
#
# Elastic Constant Matrix: (Units=GPa)
#
#
# Indices 1 2 3 4 5 6 
#
# 1 128.0550 30.8316 39.3734 0.0000 0.0000 0.0000
# 2 30.8316 114.7274 24.3897 0.0000 0.0000 0.0000
# 3 39.3734 24.3897 70.5212 0.0000 0.0000 0.0000
# 4 0.0000 0.0000 0.0000 47.9192 0.0000 0.0000
# 5 0.0000 0.0000 0.0000 0.0000 7.5581 0.0000
# 6 0.0000 0.0000 0.0000 0.0000 0.0000 33.5017
#
#
#
# Elastic Compliance Matrix: (Units=1/GPa)
#
#
# Indices 1 2 3 4 5 6 
#
# 1 0.009682 -0.001568 -0.004863 0.000000 0.000000 0.000000
# 2 -0.001568 0.009662 -0.002466 0.000000 0.000000 0.000000
# 3 -0.004863 -0.002466 0.017748 0.000000 0.000000 0.000000
# 4 0.000000 0.000000 0.000000 0.020868 0.000000 0.000000
# 5 0.000000 0.000000 0.000000 0.000000 0.132308 0.000000
# 6 0.000000 0.000000 0.000000 0.000000 0.000000 0.029849
#
#
# Mechanical properties :
#
#
# Convention : Reuss Voigt Hill
#
# Bulk Modulus (GPa) = 51.82067 55.83254 53.82660
# Shear Modulus (GPa) = 20.46282 32.37640 26.41961
#
# Velocity S-wave (km/s) = 3.05368 3.84109 3.46979
# Velocity P-wave (km/s) = 6.00400 6.71676 6.37036
#
# Compressibility (1/GPa) = 0.01929732
#
# Stress axis : x y z
#
# Youngs Moduli (GPa) = 103.28405 103.49854 56.34323
#
# Poissons Ratio (x) = 0.16229 0.27402
# Poissons Ratio (y) = 0.16195 0.13895
# Poissons Ratio (z) = 0.50231 0.25524
#
# Static dielectric constant tensor:
#      x y z
#    x 3.875310 0.000000 0.000000 
#    y 0.000000 4.522980 0.000000 
#    z 0.000000 0.000000 4.167300 
# 
# 
# High freq. dielectric constant tensor:
#      x y z
#    x 1.840890 0.000000 0.000000 
#    y 0.000000 1.894530 0.000000 
#    z 0.000000 0.000000 1.861850 
# 
# From -- ./inp_files/11541.got.cif
#   From: 2010.03.12/outbox.cif.g09.slc.cpg/sg41_6_cif.got.tgz:11541.got - 2010.04.14 01:55:53.
