data_PCOD8185289
_publ_section_title
;
Structure prediction by ZEFSAII (Michael W. Deem and Ramdas Pophale) SiO2 
 PCOD8185289
Probable space group: A B A 2
;
_chemical_formula_sum "Si O2"
_cell_formula_units_Z 56
_cell_length_a 21.850706
_cell_length_b 11.490887
_cell_length_c 10.606447
_cell_angle_alpha 90.000000
_cell_angle_beta 90.000000
_cell_angle_gamma 90.000000
_cell_volume 2663.109070
_symmetry_space_group_name_H-M "A B A 2"
_symmetry_group_IT_number 41
_symmetry_cell_setting 'orthorhombic'
loop_
_space_group_symop_operation_xyz
x,y,z
-x,-y,z
1/2-x,y,1/2+z
1/2+x,-y,1/2+z
x,1/2+y,1/2+z
-x,1/2-y,1/2+z
1/2-x,1/2+y,z
1/2+x,1/2-y,z
loop_
_atom_site_type_symbol
_atom_site_label
_atom_site_fract_x
_atom_site_fract_y
_atom_site_fract_z
Si Si1 0.191693 0.337038 0.933070
Si Si2 0.927156 0.625613 0.083896
Si Si3 0.836950 0.343306 0.235045
Si Si4 0.811432 0.033100 0.931098
Si Si5 0.061169 0.642050 0.048796
Si Si6 0.286367 0.141319 0.629173
Si Si7 0.871351 0.750931 0.324763
O O1 0.189212 0.271807 0.800335
O O2 0.237705 0.446865 0.912400
O O3 0.122325 0.366138 0.972299
O O4 0.217292 0.254515 0.042075
O O5 0.938555 0.490008 0.095221
O O6 0.906628 0.683139 0.214716
O O7 0.991364 0.689205 0.049276
O O8 0.846239 0.449530 0.332095
O O9 0.896291 0.301161 0.156966
O O10 0.784191 0.394321 0.144843
O O11 0.843110 0.158744 0.923924
O O12 0.820950 0.968491 0.065156
O O13 0.085397 0.665200 0.907211
O O14 0.318915 0.169282 0.762209
#
# Coordination Sequence:
#
# PCOD8185289 Si02
#       7
#     8   8   8   8   8   8   8
#     4  10  22  39  62  92 130 166 210 258 326 373
#     4  10  24  45  64  91 129 172 212 265 307 380
#     4  11  22  37  63  97 127 164 214 259 316 388
#     4  11  22  38  65  94 128 167 200 268 327 369
#     4  11  24  42  67  92 124 172 222 250 317 383
#     4  10  23  38  60  97 129 159 211 258 320 388
#     4  11  23  45  64  94 129 167 207 268 317 376
#
# _framework density 21.028051999999999
#
# number of rings (size 3 to 8) (size 9 to 14) (size 15 to 20)
#    0.000    1.429    2.857    1.714    8.000    1.143 
#    0.000    0.000    0.000    0.000    0.000    0.000 
#    0.000    0.000    0.000    0.000    0.000    0.000 
#
# Total GULP energy -346968.304198 kJ/mol
# GULP energy per Si atom -12391.725150 kJ/mol
# Density = 2.098019 g / cm^3
# Si number density = 21.028052 Si / 1000 Ang^3
#
#
#
# Elastic Constant Matrix: (Units=GPa)
#
#
# Indices 1 2 3 4 5 6 
#
# 1 120.4602 13.4796 33.0896 0.0000 0.0000 0.0000
# 2 13.4796 60.4029 20.2686 0.0000 0.0000 0.0000
# 3 33.0896 20.2686 72.7956 0.0000 0.0000 0.0000
# 4 0.0000 0.0000 0.0000 26.8890 0.0000 0.0000
# 5 0.0000 0.0000 0.0000 0.0000 29.8801 0.0000
# 6 0.0000 0.0000 0.0000 0.0000 0.0000 25.1794
#
#
#
# Elastic Compliance Matrix: (Units=1/GPa)
#
#
# Indices 1 2 3 4 5 6 
#
# 1 0.009516 -0.000741 -0.004119 0.000000 0.000000 0.000000
# 2 -0.000741 0.018319 -0.004764 0.000000 0.000000 0.000000
# 3 -0.004119 -0.004764 0.016936 0.000000 0.000000 0.000000
# 4 0.000000 0.000000 0.000000 0.037190 0.000000 0.000000
# 5 0.000000 0.000000 0.000000 0.000000 0.033467 0.000000
# 6 0.000000 0.000000 0.000000 0.000000 0.000000 0.039715
#
#
# Mechanical properties :
#
#
# Convention : Reuss Voigt Hill
#
# Bulk Modulus (GPa) = 39.18062 43.03713 41.10887
# Shear Modulus (GPa) = 27.33747 28.84444 28.09096
#
# Velocity S-wave (km/s) = 3.60953 3.70768 3.65893
# Velocity P-wave (km/s) = 6.00372 6.23219 6.11902
#
# Compressibility (1/GPa) = 0.02552282
#
# Stress axis : x y z
#
# Youngs Moduli (GPa) = 105.08678 54.58681 59.04645
#
# Poissons Ratio (x) = 0.04047 0.24322
# Poissons Ratio (y) = 0.07791 0.28128
# Poissons Ratio (z) = 0.43286 0.26004
#
# Static dielectric constant tensor:
#      x y z
#    x 4.270180 0.000000 0.000000 
#    y 0.000000 3.706860 0.000000 
#    z 0.000000 0.000000 3.743400 
# 
# 
# High freq. dielectric constant tensor:
#      x y z
#    x 1.818060 0.000000 0.000000 
#    y 0.000000 1.816360 0.000000 
#    z 0.000000 0.000000 1.825490 
# 
# From -- ./inp_files/6207.got.cif
#   From: 2010.03.12/outbox.cif.g09.slc.cpg/sg41_4_cif.got.tgz:6207.got - 2010.04.14 01:55:53.
