data_PCOD8185336
_publ_section_title
;
Structure prediction by ZEFSAII (Michael W. Deem and Ramdas Pophale) SiO2 
 PCOD8185336
Probable space group: A B A 2
;
_chemical_formula_sum "Si O2"
_cell_formula_units_Z 64
_cell_length_a 12.715446
_cell_length_b 11.516046
_cell_length_c 21.332960
_cell_angle_alpha 90.000000
_cell_angle_beta 90.000000
_cell_angle_gamma 90.000000
_cell_volume 3123.820768
_symmetry_space_group_name_H-M "A B A 2"
_symmetry_group_IT_number 41
_symmetry_cell_setting 'orthorhombic'
loop_
_space_group_symop_operation_xyz
x,y,z
-x,-y,z
1/2-x,y,1/2+z
1/2+x,-y,1/2+z
x,1/2+y,1/2+z
-x,1/2-y,1/2+z
1/2-x,1/2+y,z
1/2+x,1/2-y,z
loop_
_atom_site_type_symbol
_atom_site_label
_atom_site_fract_x
_atom_site_fract_y
_atom_site_fract_z
Si Si1 0.867164 0.228074 0.163950
Si Si2 0.058652 0.382159 0.172562
Si Si3 0.852542 0.081120 0.965563
Si Si4 0.387948 0.469033 0.253244
Si Si5 0.292699 0.815661 0.863489
Si Si6 0.296799 0.828337 0.065798
Si Si7 0.699906 0.785365 0.753822
Si Si8 0.422527 0.181982 0.464392
O O1 0.974424 0.290942 0.146567
O O2 0.892001 0.096226 0.185902
O O3 0.784737 0.245185 0.107568
O O4 0.816671 0.284862 0.225405
O O5 0.000000 0.500000 0.195637
O O6 0.132613 0.407608 0.112363
O O7 0.126640 0.321568 0.228082
O O8 0.782291 0.109654 0.906452
O O9 0.950346 0.172823 0.970758
O O10 0.885611 0.949307 0.958613
O O11 0.776194 0.087848 0.025159
O O12 0.500000 0.500000 0.281512
O O13 0.331799 0.400052 0.308658
O O14 0.339164 0.590365 0.234392
O O15 0.215924 0.723076 0.828948
O O16 0.386976 0.753110 0.902074
O O17 0.370489 0.743103 0.024812
#
# Coordination Sequence:
#
# PCOD8185336 Si02
#       8
#     8   8   8   8   8   8   8   8
#     4  10  23  39  62  91 128 164 207 259 313 378
#     4  11  24  40  60  96 126 165 207 258 321 374
#     4  10  22  42  64  91 123 165 210 262 314 371
#     4  11  22  41  63  94 125 167 212 252 314 378
#     4  10  23  40  64  94 127 164 206 262 316 368
#     4  10  23  41  63  90 122 163 210 259 315 368
#     4  10  23  40  63  92 130 167 206 256 313 379
#     4  10  22  42  63  91 123 164 216 256 315 370
#
# _framework density 20.487732000000001
#
# number of rings (size 3 to 8) (size 9 to 14) (size 15 to 20)
#    0.000    1.750    1.250    1.500    8.750    1.000 
#    4.500    1.250    0.000    0.000    0.000    0.000 
#    0.000    0.000    0.000    0.000    0.000    0.000 
#
# Total GULP energy -396488.887379 kJ/mol
# GULP energy per Si atom -12390.277731 kJ/mol
# Density = 2.044110 g / cm^3
# Si number density = 20.487732 Si / 1000 Ang^3
#
#
#
# Elastic Constant Matrix: (Units=GPa)
#
#
# Indices 1 2 3 4 5 6 
#
# 1 108.3779 28.9813 35.1975 0.0000 0.0000 0.0000
# 2 28.9813 94.7808 29.2724 0.0000 0.0000 0.0000
# 3 35.1975 29.2724 98.9484 0.0000 0.0000 0.0000
# 4 0.0000 0.0000 0.0000 16.4717 0.0000 0.0000
# 5 0.0000 0.0000 0.0000 0.0000 16.7045 0.0000
# 6 0.0000 0.0000 0.0000 0.0000 0.0000 31.8729
#
#
#
# Elastic Compliance Matrix: (Units=1/GPa)
#
#
# Indices 1 2 3 4 5 6 
#
# 1 0.010887 -0.002347 -0.003178 0.000000 0.000000 0.000000
# 2 -0.002347 0.012118 -0.002750 0.000000 0.000000 0.000000
# 3 -0.003178 -0.002750 0.012050 0.000000 0.000000 0.000000
# 4 0.000000 0.000000 0.000000 0.060710 0.000000 0.000000
# 5 0.000000 0.000000 0.000000 0.000000 0.059864 0.000000
# 6 0.000000 0.000000 0.000000 0.000000 0.000000 0.031375
#
#
# Mechanical properties :
#
#
# Convention : Reuss Voigt Hill
#
# Bulk Modulus (GPa) = 54.04213 54.33439 54.18826
# Shear Modulus (GPa) = 23.84101 26.92021 25.38061
#
# Velocity S-wave (km/s) = 3.41496 3.62880 3.52351
# Velocity P-wave (km/s) = 6.47954 6.64346 6.56201
#
# Compressibility (1/GPa) = 0.01850408
#
# Stress axis : x y z
#
# Youngs Moduli (GPa) = 91.85398 82.52406 82.98530
#
# Poissons Ratio (x) = 0.19371 0.26374
# Poissons Ratio (y) = 0.21561 0.22820
# Poissons Ratio (z) = 0.29193 0.22693
#
# Static dielectric constant tensor:
#      x y z
#    x 4.000060 0.000000 0.000000 
#    y 0.000000 3.616480 0.000000 
#    z 0.000000 0.000000 4.009050 
# 
# 
# High freq. dielectric constant tensor:
#      x y z
#    x 1.818910 0.000000 0.000000 
#    y 0.000000 1.793270 0.000000 
#    z 0.000000 0.000000 1.802090 
# 
# From -- ./inp_files/12155.got.cif
#   From: 2010.03.12/outbox.cif.g09.slc.cpg/sg41_7_cif.got.tgz:12155.got - 2010.04.14 01:55:53.
