data_PCOD8185682
_publ_section_title
;
Structure prediction by ZEFSAII (Michael W. Deem and Ramdas Pophale) SiO2 
 PCOD8185682
Probable space group: A B A 2
;
_chemical_formula_sum "Si O2"
_cell_formula_units_Z 40
_cell_length_a 9.587877
_cell_length_b 9.177499
_cell_length_c 20.373906
_cell_angle_alpha 90.000000
_cell_angle_beta 90.000000
_cell_angle_gamma 90.000000
_cell_volume 1792.755642
_symmetry_space_group_name_H-M "A B A 2"
_symmetry_group_IT_number 41
_symmetry_cell_setting 'orthorhombic'
loop_
_space_group_symop_operation_xyz
x,y,z
-x,-y,z
1/2-x,y,1/2+z
1/2+x,-y,1/2+z
x,1/2+y,1/2+z
-x,1/2-y,1/2+z
1/2-x,1/2+y,z
1/2+x,1/2-y,z
loop_
_atom_site_type_symbol
_atom_site_label
_atom_site_fract_x
_atom_site_fract_y
_atom_site_fract_z
Si Si1 0.191804 0.424178 0.392750
Si Si2 0.078821 0.711024 0.441127
Si Si3 0.495340 0.175897 0.082207
Si Si4 0.835749 0.477277 0.246403
Si Si5 0.750597 0.226003 0.664627
O O1 0.169409 0.561448 0.442047
O O2 0.334137 0.343418 0.410516
O O3 0.205961 0.486170 0.319971
O O4 0.059287 0.315269 0.396919
O O5 0.032489 0.754074 0.513157
O O6 0.593329 0.245492 0.137796
O O7 0.344285 0.236135 0.102028
O O8 0.500000 0.000000 0.079446
O O9 0.788470 0.314101 0.230568
O O10 0.743832 0.562294 0.192070
O O11 0.000000 0.500000 0.233741
#
# Coordination Sequence:
#
# PCOD8185682 Si02
#       5
#     8   8   8   8   8
#     4  11  26  48  72 107 144 189 244 302 365 434
#     4  11  26  46  75 103 146 193 240 301 368 435
#     4  12  27  48  71 106 148 183 245 304 360 442
#     4  12  24  48  71 104 150 183 244 302 355 443
#     4  12  24  47  74 101 144 191 230 304 367 421
#
# _framework density 22.31202
#
# number of rings (size 3 to 8) (size 9 to 14) (size 15 to 20)
#    0.000    0.400    6.000    2.400    5.600    4.000 
#    0.000    2.000    0.000    0.000    0.000    0.000 
#    0.000    0.000    0.000    0.000    0.000    0.000 
#
# Total GULP energy -247934.426855 kJ/mol
# GULP energy per Si atom -12396.721343 kJ/mol
# Density = 2.226124 g / cm^3
# Si number density = 22.312020 Si / 1000 Ang^3
#
#
#
# Elastic Constant Matrix: (Units=GPa)
#
#
# Indices 1 2 3 4 5 6 
#
# 1 62.7210 48.8201 48.9356 0.0000 0.0000 0.0000
# 2 48.8201 93.1124 58.8724 0.0000 0.0000 0.0000
# 3 48.9356 58.8724 141.8555 0.0000 0.0000 0.0000
# 4 0.0000 0.0000 0.0000 39.8511 0.0000 0.0000
# 5 0.0000 0.0000 0.0000 0.0000 28.0471 0.0000
# 6 0.0000 0.0000 0.0000 0.0000 0.0000 47.9625
#
#
#
# Elastic Compliance Matrix: (Units=1/GPa)
#
#
# Indices 1 2 3 4 5 6 
#
# 1 0.029408 -0.012208 -0.005078 0.000000 0.000000 0.000000
# 2 -0.012208 0.019629 -0.003935 0.000000 0.000000 0.000000
# 3 -0.005078 -0.003935 0.010434 0.000000 0.000000 0.000000
# 4 0.000000 0.000000 0.000000 0.025093 0.000000 0.000000
# 5 0.000000 0.000000 0.000000 0.000000 0.035654 0.000000
# 6 0.000000 0.000000 0.000000 0.000000 0.000000 0.020850
#
#
# Mechanical properties :
#
#
# Convention : Reuss Voigt Hill
#
# Bulk Modulus (GPa) = 58.72511 67.88278 63.30394
# Shear Modulus (GPa) = 26.42886 32.57620 29.50253
#
# Velocity S-wave (km/s) = 3.44541 3.82518 3.64025
# Velocity P-wave (km/s) = 6.49653 7.07104 6.78987
#
# Compressibility (1/GPa) = 0.01702849
#
# Stress axis : x y z
#
# Youngs Moduli (GPa) = 34.00396 50.94631 95.83853
#
# Poissons Ratio (x) = 0.62197 0.48669
# Poissons Ratio (y) = 0.41513 0.37709
# Poissons Ratio (z) = 0.17268 0.20046
#
# Static dielectric constant tensor:
#      x y z
#    x 4.128250 0.000000 0.000000 
#    y 0.000000 4.263070 0.000000 
#    z 0.000000 0.000000 4.046280 
# 
# 
# High freq. dielectric constant tensor:
#      x y z
#    x 1.880600 0.000000 0.000000 
#    y 0.000000 1.885920 0.000000 
#    z 0.000000 0.000000 1.889860 
# 
# From -- ./inp_files/11927.got.cif
#   From: 2010.03.12/outbox.cif.g09.slc.cpg/sg41_6_cif.got.tgz:11927.got - 2010.04.14 01:55:53.
