data_PCOD8185608
_publ_section_title
;
Structure prediction by ZEFSAII (Michael W. Deem and Ramdas Pophale) SiO2 
 PCOD8185608
Probable space group: A B A 2
;
_chemical_formula_sum "Si O2"
_cell_formula_units_Z 64
_cell_length_a 29.886513
_cell_length_b 8.788146
_cell_length_c 11.385509
_cell_angle_alpha 90.000000
_cell_angle_beta 90.000000
_cell_angle_gamma 90.000000
_cell_volume 2990.370234
_symmetry_space_group_name_H-M "A B A 2"
_symmetry_group_IT_number 41
_symmetry_cell_setting 'orthorhombic'
loop_
_space_group_symop_operation_xyz
x,y,z
-x,-y,z
1/2-x,y,1/2+z
1/2+x,-y,1/2+z
x,1/2+y,1/2+z
-x,1/2-y,1/2+z
1/2-x,1/2+y,z
1/2+x,1/2-y,z
loop_
_atom_site_type_symbol
_atom_site_label
_atom_site_fract_x
_atom_site_fract_y
_atom_site_fract_z
Si Si1 0.412302 0.656017 0.973310
Si Si2 0.207765 0.427753 0.701306
Si Si3 0.047757 0.816056 0.675835
Si Si4 0.697349 0.223320 0.168853
Si Si5 0.377889 0.711379 0.347321
Si Si6 0.052561 0.649614 0.228896
Si Si7 0.341699 0.893922 0.930060
Si Si8 0.882429 0.136350 0.089006
O O1 0.439618 0.593135 0.862867
O O2 0.371811 0.745807 0.910306
O O3 0.446564 0.763142 0.042319
O O4 0.394324 0.541542 0.074822
O O5 0.206836 0.598105 0.647982
O O6 0.255531 0.356014 0.684393
O O7 0.199936 0.406333 0.840924
O O8 0.168201 0.338230 0.633731
O O9 0.080184 0.719893 0.760631
O O10 0.997550 0.787248 0.718768
O O11 0.059961 0.993486 0.659789
O O12 0.665654 0.215908 0.283224
O O13 0.674888 0.125794 0.063986
O O14 0.371007 0.542399 0.398514
O O15 0.389358 0.812040 0.457513
O O16 0.084989 0.780763 0.180492
#
# Coordination Sequence:
#
# PCOD8185608 Si02
#       8
#     8   8   8   8   8   8   8   8
#     4  12  23  47  71  94 141 183 227 287 338 413
#     4  11  26  42  66 101 133 177 234 276 350 413
#     4  11  25  47  68 103 143 176 239 284 347 415
#     4  11  26  44  66 100 135 179 227 287 343 416
#     4  11  25  44  69 102 136 184 225 284 349 412
#     4  11  27  45  69 106 137 185 229 292 347 412
#     4  11  23  46  68  93 140 177 227 284 344 408
#     4  12  25  44  71 101 135 183 230 282 349 410
#
# _framework density 21.402031999999998
#
# number of rings (size 3 to 8) (size 9 to 14) (size 15 to 20)
#    0.000    0.750    5.000    1.500    5.250    2.500 
#    0.000    0.000    0.000    0.000    0.000    0.000 
#    0.000    0.000    0.000    0.000    0.000    0.000 
#
# Total GULP energy -396549.622278 kJ/mol
# GULP energy per Si atom -12392.175696 kJ/mol
# Density = 2.135332 g / cm^3
# Si number density = 21.402032 Si / 1000 Ang^3
#
#
#
# Elastic Constant Matrix: (Units=GPa)
#
#
# Indices 1 2 3 4 5 6 
#
# 1 117.4540 36.4351 30.5403 0.0000 0.0000 0.0000
# 2 36.4351 92.4166 30.6453 0.0000 0.0000 0.0000
# 3 30.5403 30.6453 105.1463 0.0000 0.0000 0.0000
# 4 0.0000 0.0000 0.0000 41.5821 0.0000 0.0000
# 5 0.0000 0.0000 0.0000 0.0000 28.1288 0.0000
# 6 0.0000 0.0000 0.0000 0.0000 0.0000 34.6816
#
#
#
# Elastic Compliance Matrix: (Units=1/GPa)
#
#
# Indices 1 2 3 4 5 6 
#
# 1 0.010050 -0.003315 -0.001953 0.000000 0.000000 0.000000
# 2 -0.003315 0.013071 -0.002847 0.000000 0.000000 0.000000
# 3 -0.001953 -0.002847 0.010908 0.000000 0.000000 0.000000
# 4 0.000000 0.000000 0.000000 0.024049 0.000000 0.000000
# 5 0.000000 0.000000 0.000000 0.000000 0.035551 0.000000
# 6 0.000000 0.000000 0.000000 0.000000 0.000000 0.028834
#
#
# Mechanical properties :
#
#
# Convention : Reuss Voigt Hill
#
# Bulk Modulus (GPa) = 56.18032 56.69536 56.43784
# Shear Modulus (GPa) = 34.57224 35.37158 34.97191
#
# Velocity S-wave (km/s) = 4.02353 4.06978 4.04672
# Velocity P-wave (km/s) = 6.92041 6.97368 6.94710
#
# Compressibility (1/GPa) = 0.01779983
#
# Stress axis : x y z
#
# Youngs Moduli (GPa) = 99.50243 76.50300 91.67933
#
# Poissons Ratio (x) = 0.25358 0.17905
# Poissons Ratio (y) = 0.32981 0.26101
# Poissons Ratio (z) = 0.19433 0.21780
#
# Static dielectric constant tensor:
#      x y z
#    x 3.920790 0.000000 0.000000 
#    y 0.000000 4.017930 0.000000 
#    z 0.000000 0.000000 4.183050 
# 
# 
# High freq. dielectric constant tensor:
#      x y z
#    x 1.842630 0.000000 0.000000 
#    y 0.000000 1.844930 0.000000 
#    z 0.000000 0.000000 1.853480 
# 
# From -- ./inp_files/6666.got.cif
#   From: 2010.03.12/outbox.cif.g09.slc.cpg/sg41_4_cif.got.tgz:6666.got - 2010.04.14 01:55:53.
