data_PCOD8185426
_publ_section_title
;
Structure prediction by ZEFSAII (Michael W. Deem and Ramdas Pophale) SiO2 
 PCOD8185426
Probable space group: A B A 2
;
_chemical_formula_sum "Si O2"
_cell_formula_units_Z 40
_cell_length_a 9.429268
_cell_length_b 20.582954
_cell_length_c 8.613056
_cell_angle_alpha 90.000000
_cell_angle_beta 90.000000
_cell_angle_gamma 90.000000
_cell_volume 1671.640767
_symmetry_space_group_name_H-M "A B A 2"
_symmetry_group_IT_number 41
_symmetry_cell_setting 'orthorhombic'
loop_
_space_group_symop_operation_xyz
x,y,z
-x,-y,z
1/2-x,y,1/2+z
1/2+x,-y,1/2+z
x,1/2+y,1/2+z
-x,1/2-y,1/2+z
1/2-x,1/2+y,z
1/2+x,1/2-y,z
loop_
_atom_site_type_symbol
_atom_site_label
_atom_site_fract_x
_atom_site_fract_y
_atom_site_fract_z
Si Si1 0.584449 0.798747 0.552610
Si Si2 0.349966 0.974525 0.204123
Si Si3 0.408744 0.058222 0.651024
Si Si4 0.830374 0.235883 0.248935
Si Si5 0.633634 0.597323 0.395487
O O1 0.589602 0.876314 0.553893
O O2 0.429202 0.773279 0.598611
O O3 0.685322 0.762901 0.677516
O O4 0.612331 0.787598 0.371913
O O5 0.268344 0.944865 0.348120
O O6 0.500000 0.000000 0.261939
O O7 0.254842 0.036398 0.153918
O O8 0.375809 0.916850 0.078272
O O9 0.485919 0.073823 0.817180
O O10 0.500000 0.000000 0.571990
O O11 0.824713 0.170669 0.353042
#
# Coordination Sequence:
#
# PCOD8185426 Si02
#       5
#     8   8   8   8   8
#     4  11  24  42  68  94 130 169 214 264 320 387
#     4  11  22  38  65  92 122 169 216 260 314 375
#     4   9  22  42  61  89 129 164 203 262 318 373
#     4  11  24  43  65  96 128 170 214 264 324 382
#     4  10  23  43  61  89 133 164 206 268 316 373
#
# _framework density 23.928585999999999
#
# number of rings (size 3 to 8) (size 9 to 14) (size 15 to 20)
#    0.000    1.600    0.000    4.200    0.000   15.200 
#    0.000    0.000    0.000    0.000    0.000    0.000 
#    0.000    0.000    0.000    0.000    0.000    0.000 
#
# Total GULP energy -247864.479662 kJ/mol
# GULP energy per Si atom -12393.223983 kJ/mol
# Density = 2.387412 g / cm^3
# Si number density = 23.928586 Si / 1000 Ang^3
#
#
#
# Elastic Constant Matrix: (Units=GPa)
#
#
# Indices 1 2 3 4 5 6 
#
# 1 120.0833 30.4066 -8.3205 0.0000 0.0000 0.0000
# 2 30.4066 127.9030 -2.6347 0.0000 0.0000 0.0000
# 3 -8.3205 -2.6347 46.7806 0.0000 0.0000 0.0000
# 4 0.0000 0.0000 0.0000 32.1145 0.0000 0.0000
# 5 0.0000 0.0000 0.0000 0.0000 24.4274 0.0000
# 6 0.0000 0.0000 0.0000 0.0000 0.0000 21.0047
#
#
#
# Elastic Compliance Matrix: (Units=1/GPa)
#
#
# Indices 1 2 3 4 5 6 
#
# 1 0.008962 -0.002100 0.001476 0.000000 0.000000 0.000000
# 2 -0.002100 0.008320 0.000095 0.000000 0.000000 0.000000
# 3 0.001476 0.000095 0.021644 0.000000 0.000000 0.000000
# 4 0.000000 0.000000 0.000000 0.031139 0.000000 0.000000
# 5 0.000000 0.000000 0.000000 0.000000 0.040938 0.000000
# 6 0.000000 0.000000 0.000000 0.000000 0.000000 0.047608
#
#
# Mechanical properties :
#
#
# Convention : Reuss Voigt Hill
#
# Bulk Modulus (GPa) = 26.40845 37.07440 31.74143
# Shear Modulus (GPa) = 29.02067 33.86369 31.44218
#
# Velocity S-wave (km/s) = 3.48631 3.76599 3.62885
# Velocity P-wave (km/s) = 5.22170 5.86836 5.55445
#
# Compressibility (1/GPa) = 0.03786667
#
# Stress axis : x y z
#
# Youngs Moduli (GPa) = 111.58780 120.19768 46.20178
#
# Poissons Ratio (x) = 0.25242 -0.06818
# Poissons Ratio (y) = 0.23434 -0.00439
# Poissons Ratio (z) = -0.16466 -0.01143
#
# Static dielectric constant tensor:
#      x y z
#    x 4.567980 0.000000 0.000000 
#    y 0.000000 4.608560 0.000000 
#    z 0.000000 0.000000 4.014390 
# 
# 
# High freq. dielectric constant tensor:
#      x y z
#    x 1.954780 0.000000 0.000000 
#    y 0.000000 1.962170 0.000000 
#    z 0.000000 0.000000 1.938210 
# 
# From -- ./inp_files/1693.got.cif
#   From: 2010.03.12/outbox.cif.g09.slc.cpg/sg41_1_cif.got.tgz:1693.got - 2010.04.14 01:55:53.
