data_PCOD8185480
_publ_section_title
;
Structure prediction by ZEFSAII (Michael W. Deem and Ramdas Pophale) SiO2 
 PCOD8185480
Probable space group: A B A 2
;
_chemical_formula_sum "Si O2"
_cell_formula_units_Z 64
_cell_length_a 29.532781
_cell_length_b 7.969124
_cell_length_c 12.192042
_cell_angle_alpha 90.000000
_cell_angle_beta 90.000000
_cell_angle_gamma 90.000000
_cell_volume 2869.401887
_symmetry_space_group_name_H-M "A B A 2"
_symmetry_group_IT_number 41
_symmetry_cell_setting 'orthorhombic'
loop_
_space_group_symop_operation_xyz
x,y,z
-x,-y,z
1/2-x,y,1/2+z
1/2+x,-y,1/2+z
x,1/2+y,1/2+z
-x,1/2-y,1/2+z
1/2-x,1/2+y,z
1/2+x,1/2-y,z
loop_
_atom_site_type_symbol
_atom_site_label
_atom_site_fract_x
_atom_site_fract_y
_atom_site_fract_z
Si Si1 0.607904 0.833553 0.506520
Si Si2 0.802960 0.608059 0.738969
Si Si3 0.772153 0.300200 0.866985
Si Si4 0.096103 0.326418 0.780339
Si Si5 0.703236 0.994574 0.497659
Si Si6 0.478305 0.682929 0.634270
Si Si7 0.456181 0.390027 0.933891
Si Si8 0.434429 0.694682 0.225691
O O1 0.590845 0.715755 0.408738
O O2 0.598377 0.747345 0.624812
O O3 0.660656 0.871098 0.492892
O O4 0.579567 0.006090 0.506166
O O5 0.804510 0.434072 0.807400
O O6 0.766441 0.738492 0.783758
O O7 0.852156 0.692608 0.742128
O O8 0.788914 0.572204 0.615667
O O9 0.802623 0.145761 0.909524
O O10 0.747817 0.387729 0.970196
O O11 0.066981 0.195094 0.708129
O O12 0.079154 0.513895 0.768323
O O13 0.500000 0.500000 0.639844
O O14 0.469611 0.730099 0.507620
O O15 0.514124 0.816039 0.682665
O O16 0.500000 0.500000 0.900952
O O17 0.431192 0.329173 0.823684
#
# Coordination Sequence:
#
# PCOD8185480 Si02
#       8
#     8   8   8   8   8   8   8   8
#     4  12  25  45  68 101 144 182 236 294 347 420
#     4  11  22  45  69 105 139 179 233 286 349 424
#     4  10  24  42  71 102 136 190 229 283 369 413
#     4  12  25  47  71 101 146 187 236 296 348 425
#     4  11  22  43  69 100 142 180 231 292 348 421
#     4  12  26  47  72 105 137 195 238 289 362 420
#     4  12  25  48  69  98 142 182 234 293 347 420
#     4  12  26  45  72 100 139 187 231 288 352 412
#
# _framework density 22.304300999999999
#
# number of rings (size 3 to 8) (size 9 to 14) (size 15 to 20)
#    0.000    0.500    5.000    3.000    3.500    0.000 
#    0.000    0.000    0.000    0.000    0.000    0.000 
#    0.000    0.000    0.000    0.000    0.000    0.000 
#
# Total GULP energy -396977.273446 kJ/mol
# GULP energy per Si atom -12405.539795 kJ/mol
# Density = 2.225354 g / cm^3
# Si number density = 22.304301 Si / 1000 Ang^3
#
#
#
# Elastic Constant Matrix: (Units=GPa)
#
#
# Indices 1 2 3 4 5 6 
#
# 1 103.6854 28.3999 45.1147 0.0000 0.0000 0.0000
# 2 28.3999 75.8151 53.8802 0.0000 0.0000 0.0000
# 3 45.1147 53.8802 147.9934 0.0000 0.0000 0.0000
# 4 0.0000 0.0000 0.0000 38.6690 0.0000 0.0000
# 5 0.0000 0.0000 0.0000 0.0000 13.9799 0.0000
# 6 0.0000 0.0000 0.0000 0.0000 0.0000 18.2520
#
#
#
# Elastic Compliance Matrix: (Units=1/GPa)
#
#
# Indices 1 2 3 4 5 6 
#
# 1 0.011444 -0.002439 -0.002601 0.000000 0.000000 0.000000
# 2 -0.002439 0.018314 -0.005924 0.000000 0.000000 0.000000
# 3 -0.002601 -0.005924 0.009707 0.000000 0.000000 0.000000
# 4 0.000000 0.000000 0.000000 0.025860 0.000000 0.000000
# 5 0.000000 0.000000 0.000000 0.000000 0.071531 0.000000
# 6 0.000000 0.000000 0.000000 0.000000 0.000000 0.054789
#
#
# Mechanical properties :
#
#
# Convention : Reuss Voigt Hill
#
# Bulk Modulus (GPa) = 57.02080 64.69816 60.85948
# Shear Modulus (GPa) = 22.78760 27.52011 25.15385
#
# Velocity S-wave (km/s) = 3.19982 3.51643 3.36185
# Velocity P-wave (km/s) = 6.26676 6.74959 6.51265
#
# Compressibility (1/GPa) = 0.01753746
#
# Stress axis : x y z
#
# Youngs Moduli (GPa) = 87.38086 54.60429 103.02157
#
# Poissons Ratio (x) = 0.13315 0.26794
# Poissons Ratio (y) = 0.21308 0.61031
# Poissons Ratio (z) = 0.22727 0.32348
#
# Static dielectric constant tensor:
#      x y z
#    x 4.026140 0.000000 0.000000 
#    y 0.000000 3.958960 0.000000 
#    z 0.000000 0.000000 4.202390 
# 
# 
# High freq. dielectric constant tensor:
#      x y z
#    x 1.874570 0.000000 0.000000 
#    y 0.000000 1.874620 0.000000 
#    z 0.000000 0.000000 1.896090 
# 
# From -- ./inp_files/6680.got.cif
#   From: 2010.03.12/outbox.cif.g09.slc.cpg/sg41_4_cif.got.tgz:6680.got - 2010.04.14 01:55:53.
