data_PCOD8185197
_publ_section_title
;
Structure prediction by ZEFSAII (Michael W. Deem and Ramdas Pophale) SiO2 
 PCOD8185197
Probable space group: A B A 2
;
_chemical_formula_sum "Si O2"
_cell_formula_units_Z 56
_cell_length_a 16.991664
_cell_length_b 5.308364
_cell_length_c 29.203391
_cell_angle_alpha 90.000000
_cell_angle_beta 90.000000
_cell_angle_gamma 90.000000
_cell_volume 2634.085636
_symmetry_space_group_name_H-M "A B A 2"
_symmetry_group_IT_number 41
_symmetry_cell_setting 'orthorhombic'
loop_
_space_group_symop_operation_xyz
x,y,z
-x,-y,z
1/2-x,y,1/2+z
1/2+x,-y,1/2+z
x,1/2+y,1/2+z
-x,1/2-y,1/2+z
1/2-x,1/2+y,z
1/2+x,1/2-y,z
loop_
_atom_site_type_symbol
_atom_site_label
_atom_site_fract_x
_atom_site_fract_y
_atom_site_fract_z
Si Si1 0.970291 0.746068 0.136380
Si Si2 0.202882 0.792485 0.659183
Si Si3 0.500000 0.000000 0.899021
Si Si4 0.000000 0.500000 0.049718
Si Si5 0.198224 0.540984 0.417849
Si Si6 0.584361 0.124503 0.342725
Si Si7 0.797648 0.211012 0.765736
Si Si8 0.433410 0.687057 0.978235
O O1 0.876609 0.740454 0.130337
O O2 0.000000 0.500000 0.165235
O O3 0.013466 0.731432 0.085786
O O4 0.000000 0.000000 0.161088
O O5 0.258660 0.559068 0.645889
O O6 0.180151 0.789844 0.712460
O O7 0.570813 0.888501 0.868729
O O8 0.463350 0.780157 0.929223
O O9 0.072163 0.416876 0.015525
O O10 0.244634 0.279303 0.416572
O O11 0.141749 0.549607 0.373386
O O12 0.149481 0.554139 0.466269
O O13 0.621987 0.184213 0.293668
O O14 0.500000 0.000000 0.333891
O O15 0.758105 0.476563 0.778701
O O16 0.500000 0.500000 0.998379
#
# Coordination Sequence:
#
# PCOD8185197 Si02
#       8
#     8   8   4   4   8   8   8   8
#     4  10  21  41  66 102 127 162 220 263 321 392
#     4  10  21  42  69  95 134 176 209 257 332 395
#     4  11  20  38  62  90 120 164 222 258 320 363
#     4   9  24  38  72  90 128 164 212 264 332 373
#     4  12  25  40  61  89 125 168 214 263 318 376
#     4  12  24  39  61  92 126 171 221 272 314 378
#     4  10  24  43  62  93 132 174 212 261 323 380
#     4  11  21  42  66  86 126 169 216 263 319 389
#
# _framework density 21.259748999999999
#
# number of rings (size 3 to 8) (size 9 to 14) (size 15 to 20)
#    0.429    0.857    2.857    3.000    4.000    0.571 
#    1.286    1.429    0.000    0.000    0.000    0.000 
#    0.000    0.000    0.000    0.000    0.000    0.000 
#
# Total GULP energy -346908.993206 kJ/mol
# GULP energy per Si atom -12389.606900 kJ/mol
# Density = 2.121136 g / cm^3
# Si number density = 21.259749 Si / 1000 Ang^3
#
#
#
# Elastic Constant Matrix: (Units=GPa)
#
#
# Indices 1 2 3 4 5 6 
#
# 1 120.5657 55.7994 32.1964 0.0000 0.0000 0.0000
# 2 55.7994 143.2680 27.0395 0.0000 0.0000 0.0000
# 3 32.1964 27.0395 53.4031 0.0000 0.0000 0.0000
# 4 0.0000 0.0000 0.0000 11.1549 0.0000 0.0000
# 5 0.0000 0.0000 0.0000 0.0000 21.5637 0.0000
# 6 0.0000 0.0000 0.0000 0.0000 0.0000 43.8958
#
#
#
# Elastic Compliance Matrix: (Units=1/GPa)
#
#
# Indices 1 2 3 4 5 6 
#
# 1 0.011221 -0.003420 -0.005033 0.000000 0.000000 0.000000
# 2 -0.003420 0.008760 -0.002373 0.000000 0.000000 0.000000
# 3 -0.005033 -0.002373 0.022962 0.000000 0.000000 0.000000
# 4 0.000000 0.000000 0.000000 0.089647 0.000000 0.000000
# 5 0.000000 0.000000 0.000000 0.000000 0.046374 0.000000
# 6 0.000000 0.000000 0.000000 0.000000 0.000000 0.022781
#
#
# Mechanical properties :
#
#
# Convention : Reuss Voigt Hill
#
# Bulk Modulus (GPa) = 46.97289 60.81192 53.89240
# Shear Modulus (GPa) = 21.69235 28.80298 25.24767
#
# Velocity S-wave (km/s) = 3.19775 3.68477 3.44987
# Velocity P-wave (km/s) = 5.98138 6.83884 6.42443
#
# Compressibility (1/GPa) = 0.02128888
#
# Stress axis : x y z
#
# Youngs Moduli (GPa) = 89.11524 114.15472 43.55059
#
# Poissons Ratio (x) = 0.39047 0.21921
# Poissons Ratio (y) = 0.30482 0.10336
# Poissons Ratio (z) = 0.44856 0.27092
#
# Static dielectric constant tensor:
#      x y z
#    x 3.799770 0.000000 0.000000 
#    y 0.000000 4.133150 0.000000 
#    z 0.000000 0.000000 3.686310 
# 
# 
# High freq. dielectric constant tensor:
#      x y z
#    x 1.819500 0.000000 0.000000 
#    y 0.000000 1.854170 0.000000 
#    z 0.000000 0.000000 1.811990 
# 
# From -- ./inp_files/12751.got.cif
#   From: 2010.03.12/outbox.cif.g09.slc.cpg/sg41_7_cif.got.tgz:12751.got - 2010.04.14 01:55:53.
