data_PCOD8185579
_publ_section_title
;
Structure prediction by ZEFSAII (Michael W. Deem and Ramdas Pophale) SiO2 
 PCOD8185579
Probable space group: A B A 2
;
_chemical_formula_sum "Si O2"
_cell_formula_units_Z 64
_cell_length_a 29.259239
_cell_length_b 9.150439
_cell_length_c 11.065278
_cell_angle_alpha 90.000000
_cell_angle_beta 90.000000
_cell_angle_gamma 90.000000
_cell_volume 2962.560896
_symmetry_space_group_name_H-M "A B A 2"
_symmetry_group_IT_number 41
_symmetry_cell_setting 'orthorhombic'
loop_
_space_group_symop_operation_xyz
x,y,z
-x,-y,z
1/2-x,y,1/2+z
1/2+x,-y,1/2+z
x,1/2+y,1/2+z
-x,1/2-y,1/2+z
1/2-x,1/2+y,z
1/2+x,1/2-y,z
loop_
_atom_site_type_symbol
_atom_site_label
_atom_site_fract_x
_atom_site_fract_y
_atom_site_fract_z
Si Si1 0.213522 0.599239 0.243000
Si Si2 0.114541 0.426860 0.652550
Si Si3 0.328853 0.615654 0.492040
Si Si4 0.456823 0.426740 0.767281
Si Si5 0.640390 0.577105 0.896263
Si Si6 0.541372 0.892695 0.792056
Si Si7 0.425361 0.625846 0.558725
Si Si8 0.205507 0.407359 0.798777
O O1 0.173528 0.512363 0.310480
O O2 0.257913 0.499842 0.222282
O O3 0.225449 0.744301 0.321603
O O4 0.198946 0.657625 0.111644
O O5 0.134496 0.496929 0.528440
O O6 0.086453 0.543676 0.729148
O O7 0.084547 0.284380 0.618748
O O8 0.157381 0.383891 0.733900
O O9 0.339290 0.759109 0.410563
O O10 0.377256 0.546268 0.530987
O O11 0.300314 0.491593 0.424437
O O12 0.500000 0.500000 0.839998
O O13 0.410266 0.422508 0.841791
O O14 0.469862 0.261781 0.729016
O O15 0.453447 0.523759 0.647298
O O16 0.500000 0.000000 0.766647
O O17 0.546892 0.859916 0.934219
#
# Coordination Sequence:
#
# PCOD8185579 Si02
#       8
#     8   8   8   8   8   8   8   8
#     4  12  27  45  70 104 143 182 235 296 347 420
#     4  11  23  47  72  99 141 182 232 292 351 416
#     4  11  23  47  74  98 140 184 231 289 351 414
#     4  12  24  44  70 102 138 182 233 290 348 417
#     4  11  23  48  72  98 142 183 230 292 355 412
#     4  12  26  45  70 102 141 185 235 290 352 421
#     4  11  22  48  72  98 140 181 230 291 349 413
#     4  12  25  44  71 103 137 185 235 286 353 417
#
# _framework density 21.602931999999999
#
# number of rings (size 3 to 8) (size 9 to 14) (size 15 to 20)
#    0.000    0.500    7.500    1.875    1.750    2.500 
#    9.000    0.000    0.000    0.000    0.000    0.000 
#    0.000    0.000    0.000    0.000    0.000    0.000 
#
# Total GULP energy -396709.977783 kJ/mol
# GULP energy per Si atom -12397.186806 kJ/mol
# Density = 2.155376 g / cm^3
# Si number density = 21.602932 Si / 1000 Ang^3
#
#
#
# Elastic Constant Matrix: (Units=GPa)
#
#
# Indices 1 2 3 4 5 6 
#
# 1 91.4423 60.5981 15.8711 0.0000 0.0000 0.0000
# 2 60.5981 157.3679 51.1964 0.0000 0.0000 0.0000
# 3 15.8711 51.1964 95.3620 0.0000 0.0000 0.0000
# 4 0.0000 0.0000 0.0000 21.1719 0.0000 0.0000
# 5 0.0000 0.0000 0.0000 0.0000 28.1019 0.0000
# 6 0.0000 0.0000 0.0000 0.0000 0.0000 36.9712
#
#
#
# Elastic Compliance Matrix: (Units=1/GPa)
#
#
# Indices 1 2 3 4 5 6 
#
# 1 0.014723 -0.005903 0.000719 0.000000 0.000000 0.000000
# 2 -0.005903 0.010066 -0.004422 0.000000 0.000000 0.000000
# 3 0.000719 -0.004422 0.012741 0.000000 0.000000 0.000000
# 4 0.000000 0.000000 0.000000 0.047233 0.000000 0.000000
# 5 0.000000 0.000000 0.000000 0.000000 0.035585 0.000000
# 6 0.000000 0.000000 0.000000 0.000000 0.000000 0.027048
#
#
# Mechanical properties :
#
#
# Convention : Reuss Voigt Hill
#
# Bulk Modulus (GPa) = 54.59199 66.61149 60.60174
# Shear Modulus (GPa) = 28.94964 31.68276 30.31620
#
# Velocity S-wave (km/s) = 3.66468 3.83377 3.75018
# Velocity P-wave (km/s) = 6.57511 7.10623 6.84582
#
# Compressibility (1/GPa) = 0.01831771
#
# Stress axis : x y z
#
# Youngs Moduli (GPa) = 67.91996 99.34144 78.48943
#
# Poissons Ratio (x) = 0.58645 -0.05643
# Poissons Ratio (y) = 0.40096 0.34706
# Poissons Ratio (z) = -0.04883 0.43926
#
# Static dielectric constant tensor:
#      x y z
#    x 4.092360 0.000000 0.000000 
#    y 0.000000 4.103800 0.000000 
#    z 0.000000 0.000000 3.902130 
# 
# 
# High freq. dielectric constant tensor:
#      x y z
#    x 1.864780 0.000000 0.000000 
#    y 0.000000 1.849420 0.000000 
#    z 0.000000 0.000000 1.842830 
# 
# From -- ./inp_files/6670.got.cif
#   From: 2010.03.12/outbox.cif.g09.slc.cpg/sg41_4_cif.got.tgz:6670.got - 2010.04.14 01:55:53.
