data_PCOD8185326
_publ_section_title
;
Structure prediction by ZEFSAII (Michael W. Deem and Ramdas Pophale) SiO2 
 PCOD8185326
Probable space group: A B A 2
;
_chemical_formula_sum "Si O2"
_cell_formula_units_Z 40
_cell_length_a 13.160367
_cell_length_b 25.557466
_cell_length_c 5.168365
_cell_angle_alpha 90.000000
_cell_angle_beta 90.000000
_cell_angle_gamma 90.000000
_cell_volume 1738.356993
_symmetry_space_group_name_H-M "A B A 2"
_symmetry_group_IT_number 41
_symmetry_cell_setting 'orthorhombic'
loop_
_space_group_symop_operation_xyz
x,y,z
-x,-y,z
1/2-x,y,1/2+z
1/2+x,-y,1/2+z
x,1/2+y,1/2+z
-x,1/2-y,1/2+z
1/2-x,1/2+y,z
1/2+x,1/2-y,z
loop_
_atom_site_type_symbol
_atom_site_label
_atom_site_fract_x
_atom_site_fract_y
_atom_site_fract_z
Si Si1 0.990717 0.874936 0.744810
Si Si2 0.690744 0.567244 0.736580
Si Si3 0.186073 0.184398 0.507386
Si Si4 0.549471 0.228926 0.461724
Si Si5 0.690362 0.944146 0.291938
O O1 0.924462 0.844318 0.526086
O O2 0.915614 0.917328 0.873931
O O3 0.086514 0.906747 0.636740
O O4 0.039194 0.833831 0.950104
O O5 0.772683 0.584882 0.520955
O O6 0.673744 0.505610 0.765274
O O7 0.245870 0.167623 0.251734
O O8 0.161989 0.247200 0.522498
O O9 0.471252 0.247520 0.677845
O O10 0.771349 0.925787 0.509020
#
# Coordination Sequence:
#
# PCOD8185326 Si02
#       5
#     8   8   8   8   8
#     4  11  23  41  68  94 125 170 217 261 318 384
#     4  10  24  42  62  92 130 168 212 261 318 379
#     4  11  23  40  62  92 126 162 205 259 315 373
#     4  10  23  40  58  86 124 163 207 259 312 372
#     4  10  22  41  64  96 130 163 207 264 322 384
#
# _framework density 23.010231999999998
#
# number of rings (size 3 to 8) (size 9 to 14) (size 15 to 20)
#    0.000    1.600    0.000    4.200    0.000   11.200 
#    0.000    6.000    0.000    0.000    0.000    0.000 
#    0.000    0.000    0.000    0.000    0.000    0.000 
#
# Total GULP energy -247812.773058 kJ/mol
# GULP energy per Si atom -12390.638653 kJ/mol
# Density = 2.295786 g / cm^3
# Si number density = 23.010232 Si / 1000 Ang^3
#
#
#
# Elastic Constant Matrix: (Units=GPa)
#
#
# Indices 1 2 3 4 5 6 
#
# 1 110.6488 60.1949 43.7882 0.0000 0.0000 0.0000
# 2 60.1949 70.3189 52.3025 0.0000 0.0000 0.0000
# 3 43.7882 52.3025 127.8906 0.0000 0.0000 0.0000
# 4 0.0000 0.0000 0.0000 27.2814 0.0000 0.0000
# 5 0.0000 0.0000 0.0000 0.0000 20.5741 0.0000
# 6 0.0000 0.0000 0.0000 0.0000 0.0000 55.0570
#
#
#
# Elastic Compliance Matrix: (Units=1/GPa)
#
#
# Indices 1 2 3 4 5 6 
#
# 1 0.016918 -0.014621 0.000187 0.000000 0.000000 0.000000
# 2 -0.014621 0.033074 -0.008520 0.000000 0.000000 0.000000
# 3 0.000187 -0.008520 0.011239 0.000000 0.000000 0.000000
# 4 0.000000 0.000000 0.000000 0.036655 0.000000 0.000000
# 5 0.000000 0.000000 0.000000 0.000000 0.048605 0.000000
# 6 0.000000 0.000000 0.000000 0.000000 0.000000 0.018163
#
#
# Mechanical properties :
#
#
# Convention : Reuss Voigt Hill
#
# Bulk Modulus (GPa) = 65.26049 69.04771 67.15410
# Shear Modulus (GPa) = 23.18354 30.75401 26.96878
#
# Velocity S-wave (km/s) = 3.17761 3.65983 3.42721
# Velocity P-wave (km/s) = 6.47194 6.92327 6.70141
#
# Compressibility (1/GPa) = 0.01532321
#
# Stress axis : x y z
#
# Youngs Moduli (GPa) = 59.10945 30.23505 88.97215
#
# Poissons Ratio (x) = 0.44207 -0.01665
# Poissons Ratio (y) = 0.86425 0.75804
# Poissons Ratio (z) = -0.01106 0.25760
#
# Static dielectric constant tensor:
#      x y z
#    x 4.095500 0.000000 0.000000 
#    y 0.000000 4.573180 0.000000 
#    z 0.000000 0.000000 4.025530 
# 
# 
# High freq. dielectric constant tensor:
#      x y z
#    x 1.896100 0.000000 0.000000 
#    y 0.000000 1.930350 0.000000 
#    z 0.000000 0.000000 1.899810 
# 
# From -- ./inp_files/123.got.cif
#   From: 2010.03.12/outbox.cif.g09.slc.cpg/sg41_1_cif.got.tgz:123.got - 2010.04.14 01:55:53.
