data_PCOD8185965
_publ_section_title
;
Structure prediction by ZEFSAII (Michael W. Deem and Ramdas Pophale) SiO2 
 PCOD8185965
Probable space group: F M M 2
;
_chemical_formula_sum "Si O2"
_cell_formula_units_Z 96
_cell_length_a 26.256506
_cell_length_b 8.944351
_cell_length_c 23.120065
_cell_angle_alpha 90.000000
_cell_angle_beta 90.000000
_cell_angle_gamma 90.000000
_cell_volume 5429.687285
_symmetry_space_group_name_H-M "F M M 2"
_symmetry_group_IT_number 42
_symmetry_cell_setting 'orthorhombic'
loop_
_space_group_symop_operation_xyz
x,y,z
-x,-y,z
-x,y,z
x,-y,z
x,1/2+y,1/2+z
-x,1/2-y,1/2+z
-x,1/2+y,1/2+z
x,1/2-y,1/2+z
1/2+x,y,1/2+z
1/2-x,-y,1/2+z
1/2-x,y,1/2+z
1/2+x,-y,1/2+z
1/2+x,1/2+y,z
1/2-x,1/2-y,z
1/2-x,1/2+y,z
1/2+x,1/2-y,z
loop_
_atom_site_type_symbol
_atom_site_label
_atom_site_fract_x
_atom_site_fract_y
_atom_site_fract_z
Si Si1 0.793952 0.159722 0.750000
Si Si2 0.195681 0.679318 0.570922
Si Si3 0.643775 0.327969 0.335536
Si Si4 0.942376 0.824005 0.249268
Si Si5 0.697620 0.176571 0.949160
Si Si6 0.620808 0.165776 0.157628
O O1 0.750000 0.250000 0.716399
O O2 0.808214 0.245703 0.808072
O O3 0.841221 0.140769 0.709500
O O4 0.771853 0.000000 0.768377
O O5 0.199843 0.500000 0.573320
O O6 0.250000 0.750000 0.590862
O O7 0.181952 0.737115 0.507172
O O8 0.148088 0.732927 0.609567
O O9 0.649749 0.500000 0.320535
O O10 0.590989 0.271697 0.305572
O O11 0.650255 0.299915 0.404371
O O12 0.926906 0.748267 0.187900
O O13 0.000000 0.776611 0.263559
O O14 0.937040 0.000000 0.239560
O O15 0.750000 0.250000 0.925477
O O16 0.706338 0.000000 0.961450
O O17 0.605553 0.000000 0.133213
#
# Coordination Sequence:
#
# PCOD8185965 Si02
#       6
#    16  16  16  16  16  16
#     4  10  19  28  42  65  94 126 156 192 237 287
#     4  11  21  33  50  72 100 135 171 205 244 290
#     4   9  18  31  48  70  96 127 162 200 242 291
#     4   9  18  34  55  77 100 127 161 204 255 305
#     4  10  19  31  47  69  99 134 169 203 240 286
#     4  10  20  33  49  71  98 128 164 204 246 294
#
# _framework density 17.680575999999999
#
# number of rings (size 3 to 8) (size 9 to 14) (size 15 to 20)
#    0.000    2.167    0.000    5.000    0.000    6.333 
#    0.000    0.000    0.000    1.000    0.000    2.333 
#    0.000    0.000    0.000    0.000    0.000    0.000 
#
# Total GULP energy -297323.267198 kJ/mol
# GULP energy per Si atom -12388.469467 kJ/mol
# Density = 1.764033 g / cm^3
# Si number density = 17.680576 Si / 1000 Ang^3
#
#
#
# Elastic Constant Matrix: (Units=GPa)
#
#
# Indices 1 2 3 4 5 6 
#
# 1 91.3390 43.8308 45.0600 0.0000 0.0000 0.0000
# 2 43.8308 111.0949 43.8633 0.0000 0.0000 0.0000
# 3 45.0600 43.8633 90.9058 0.0000 0.0000 0.0000
# 4 0.0000 0.0000 0.0000 25.4256 0.0000 0.0000
# 5 0.0000 0.0000 0.0000 0.0000 24.1003 0.0000
# 6 0.0000 0.0000 0.0000 0.0000 0.0000 20.2553
#
#
#
# Elastic Compliance Matrix: (Units=1/GPa)
#
#
# Indices 1 2 3 4 5 6 
#
# 1 0.015729 -0.003863 -0.005932 0.000000 0.000000 0.000000
# 2 -0.003863 0.012069 -0.003908 0.000000 0.000000 0.000000
# 3 -0.005932 -0.003908 0.015827 0.000000 0.000000 0.000000
# 4 0.000000 0.000000 0.000000 0.039330 0.000000 0.000000
# 5 0.000000 0.000000 0.000000 0.000000 0.041493 0.000000
# 6 0.000000 0.000000 0.000000 0.000000 0.000000 0.049370
#
#
# Mechanical properties :
#
#
# Convention : Reuss Voigt Hill
#
# Bulk Modulus (GPa) = 61.66658 62.09421 61.88040
# Shear Modulus (GPa) = 24.19777 24.66195 24.42986
#
# Velocity S-wave (km/s) = 3.70348 3.73884 3.72120
# Velocity P-wave (km/s) = 7.29668 7.33722 7.31698
#
# Compressibility (1/GPa) = 0.01621624
#
# Stress axis : x y z
#
# Youngs Moduli (GPa) = 63.57831 82.85939 63.18436
#
# Poissons Ratio (x) = 0.32011 0.37482
# Poissons Ratio (y) = 0.24562 0.24695
# Poissons Ratio (z) = 0.37716 0.32384
#
# Static dielectric constant tensor:
#      x y z
#    x 3.270970 0.000000 0.000000 
#    y 0.000000 3.942470 0.000000 
#    z 0.000000 0.000000 3.272590 
# 
# 
# High freq. dielectric constant tensor:
#      x y z
#    x 1.653220 0.000000 0.000000 
#    y 0.000000 1.699840 0.000000 
#    z 0.000000 0.000000 1.673860 
# 
# From -- ./inp_files/27031.got.cif
#   From: 2010.03.12/outbox.cif.g09.slc.cpg/sg42_14_cif.got.tgz:27031.got - 2010.04.14 02:04:31.
