data_PCOD8185473
_publ_section_title
;
Structure prediction by ZEFSAII (Michael W. Deem and Ramdas Pophale) SiO2 
 PCOD8185473
Probable space group: A B A 2
;
_chemical_formula_sum "Si O2"
_cell_formula_units_Z 56
_cell_length_a 17.707100
_cell_length_b 8.473973
_cell_length_c 17.971220
_cell_angle_alpha 90.000000
_cell_angle_beta 90.000000
_cell_angle_gamma 90.000000
_cell_volume 2696.572347
_symmetry_space_group_name_H-M "A B A 2"
_symmetry_group_IT_number 41
_symmetry_cell_setting 'orthorhombic'
loop_
_space_group_symop_operation_xyz
x,y,z
-x,-y,z
1/2-x,y,1/2+z
1/2+x,-y,1/2+z
x,1/2+y,1/2+z
-x,1/2-y,1/2+z
1/2-x,1/2+y,z
1/2+x,1/2-y,z
loop_
_atom_site_type_symbol
_atom_site_label
_atom_site_fract_x
_atom_site_fract_y
_atom_site_fract_z
Si Si1 0.200065 0.571711 0.851250
Si Si2 0.485573 0.245249 0.506735
Si Si3 0.876154 0.461238 0.006735
Si Si4 0.153552 0.921086 0.805965
Si Si5 0.000000 0.000000 0.131204
Si Si6 0.500000 0.000000 0.382265
Si Si7 0.799935 0.928289 0.662219
Si Si8 0.346448 0.921086 0.707504
O O1 0.179626 0.746529 0.826014
O O2 0.290326 0.545827 0.845969
O O3 0.158082 0.447538 0.796529
O O4 0.176901 0.539105 0.935332
O O5 0.571524 0.306700 0.506735
O O6 0.426181 0.383956 0.506735
O O7 0.472120 0.143869 0.580497
O O8 0.472120 0.143869 0.432973
O O9 0.823098 0.460895 0.078138
O O10 0.067980 0.947286 0.829897
O O11 0.158082 0.947538 0.716940
O O12 0.932020 0.052714 0.183573
O O13 0.820374 0.753470 0.687455
O O14 0.709674 0.954173 0.667500
#
# Coordination Sequence:
#
# PCOD8185473 Si02
#       8
#     8   8   8   8   4   4   8   8
#     4  11  25  45  70 101 136 179 232 276 339 407
#     4  10  24  42  64 105 143 169 224 291 327 416
#     4  11  24  44  70  98 137 180 225 276 346 396
#     4  11  25  45  70 101 137 178 230 279 335 410
#     4  11  24  44  70  99 142 180 222 283 348 390
#     4  11  24  44  70  99 142 180 222 283 348 390
#     4  11  25  45  70 101 136 179 232 276 339 407
#     4  11  25  45  70 101 137 178 230 279 335 410
#
# _framework density 20.767102999999999
#
# number of rings (size 3 to 8) (size 9 to 14) (size 15 to 20)
#    0.000    1.143    2.857    3.429    8.000    6.857 
#    0.000    0.000    0.000    0.000    0.000    0.000 
#    0.000    0.000    0.000    0.000    0.000    0.000 
#
# Total GULP energy -347286.861868 kJ/mol
# GULP energy per Si atom -12403.102210 kJ/mol
# Density = 2.071984 g / cm^3
# Si number density = 20.767103 Si / 1000 Ang^3
#
#
#
# Elastic Constant Matrix: (Units=GPa)
#
#
# Indices 1 2 3 4 5 6 
#
# 1 111.2434 46.8330 53.9517 0.0000 0.0000 0.0000
# 2 46.8330 92.1800 46.2768 0.0000 0.0000 0.0000
# 3 53.9517 46.2768 170.4613 0.0000 0.0000 0.0000
# 4 0.0000 0.0000 0.0000 -63.2878 0.0000 0.0000
# 5 0.0000 0.0000 0.0000 0.0000 14.2370 0.0000
# 6 0.0000 0.0000 0.0000 0.0000 0.0000 27.4443
#
#
#
# Elastic Compliance Matrix: (Units=1/GPa)
#
#
# Indices 1 2 3 4 5 6 
#
# 1 0.012322 -0.004981 -0.002548 0.000000 0.000000 0.000000
# 2 -0.004981 0.014574 -0.002380 0.000000 0.000000 0.000000
# 3 -0.002548 -0.002380 0.007319 0.000000 0.000000 0.000000
# 4 0.000000 0.000000 0.000000 -0.015801 0.000000 0.000000
# 5 0.000000 0.000000 0.000000 0.000000 0.070239 0.000000
# 6 0.000000 0.000000 0.000000 0.000000 0.000000 0.036437
#
#
# Mechanical properties :
#
#
# Convention : Reuss Voigt Hill
#
# Bulk Modulus (GPa) = 69.45876 74.22309 71.84092
# Shear Modulus (GPa) = 33.39844 10.80025 22.09935
#
# Velocity S-wave (km/s) = 4.01463 2.28297 3.26567
# Velocity P-wave (km/s) = 7.41680 6.53969 6.99201
#
# Compressibility (1/GPa) = 0.01439703
#
# Stress axis : x y z
#
# Youngs Moduli (GPa) = 81.15573 68.61566 136.63319
#
# Poissons Ratio (x) = 0.34180 0.34809
# Poissons Ratio (y) = 0.40426 0.32517
# Poissons Ratio (z) = 0.20675 0.16330
#
# Static dielectric constant tensor:
#      x y z
#    x 3.804320 0.000000 0.000000 
#    y 0.000000 3.945310 0.000000 
#    z 0.000000 0.000000 3.848410 
# 
# 
# High freq. dielectric constant tensor:
#      x y z
#    x 1.813500 0.000000 0.000000 
#    y 0.000000 1.828360 0.000000 
#    z 0.000000 0.000000 1.818940 
# 
# From -- ./inp_files/11642.got.cif
#   From: 2010.03.12/outbox.cif.g09.slc.cpg/sg41_6_cif.got.tgz:11642.got - 2010.04.14 01:55:53.
