data_PCOD8185013
_publ_section_title
;
Structure prediction by ZEFSAII (Michael W. Deem and Ramdas Pophale) SiO2 
 PCOD8185013
Probable space group: A B A 2
;
_chemical_formula_sum "Si O2"
_cell_formula_units_Z 56
_cell_length_a 13.509199
_cell_length_b 9.213297
_cell_length_c 20.232362
_cell_angle_alpha 90.000000
_cell_angle_beta 90.000000
_cell_angle_gamma 90.000000
_cell_volume 2518.206017
_symmetry_space_group_name_H-M "A B A 2"
_symmetry_group_IT_number 41
_symmetry_cell_setting 'orthorhombic'
loop_
_space_group_symop_operation_xyz
x,y,z
-x,-y,z
1/2-x,y,1/2+z
1/2+x,-y,1/2+z
x,1/2+y,1/2+z
-x,1/2-y,1/2+z
1/2-x,1/2+y,z
1/2+x,1/2-y,z
loop_
_atom_site_type_symbol
_atom_site_label
_atom_site_fract_x
_atom_site_fract_y
_atom_site_fract_z
Si Si1 0.204806 0.611902 0.219270
Si Si2 0.046729 0.275705 0.476857
Si Si3 0.254184 0.862108 0.807372
Si Si4 0.904829 0.897673 0.141017
Si Si5 0.461115 0.149648 0.112654
Si Si6 0.354745 0.570293 0.990671
Si Si7 0.823655 0.893185 0.395228
O O1 0.185830 0.769095 0.252998
O O2 0.183314 0.480729 0.271010
O O3 0.318661 0.588903 0.195474
O O4 0.127896 0.608317 0.160534
O O5 0.078271 0.245866 0.552485
O O6 0.109281 0.419167 0.458820
O O7 0.071059 0.140697 0.428930
O O8 0.930199 0.302496 0.469440
O O9 0.192651 0.742173 0.846619
O O10 0.325738 0.954473 0.856296
O O11 0.853574 0.934193 0.070441
O O12 0.947191 0.734139 0.146749
O O13 0.000000 0.000000 0.154865
O O14 0.500000 0.000000 0.082486
O O15 0.251340 0.608614 0.957407
#
# Coordination Sequence:
#
# PCOD8185013 Si02
#       7
#     8   8   8   8   8   8   8
#     4  11  23  44  62  89 132 170 207 267 314 358
#     4  10  21  40  64  96 129 157 204 259 325 384
#     4  10  24  40  62  90 124 171 224 250 293 383
#     4  11  21  40  68  94 127 164 207 258 323 387
#     4  11  23  40  65 100 126 156 208 262 324 389
#     4  10  20  40  66  94 129 162 198 263 326 377
#     4  11  21  42  65  90 124 173 208 258 314 361
#
# _framework density 22.238053000000001
#
# number of rings (size 3 to 8) (size 9 to 14) (size 15 to 20)
#    0.000    1.429    4.286    2.571    0.000    2.286 
#    7.714   14.286    0.000    0.000    0.000    0.000 
#    0.000    0.000    0.000    0.000    0.000    0.000 
#
# Total GULP energy -347011.042105 kJ/mol
# GULP energy per Si atom -12393.251504 kJ/mol
# Density = 2.218744 g / cm^3
# Si number density = 22.238053 Si / 1000 Ang^3
#
#
#
# Elastic Constant Matrix: (Units=GPa)
#
#
# Indices 1 2 3 4 5 6 
#
# 1 57.5087 20.6260 34.1991 0.0000 0.0000 0.0000
# 2 20.6260 119.5477 30.5102 0.0000 0.0000 0.0000
# 3 34.1991 30.5102 78.9368 0.0000 0.0000 0.0000
# 4 0.0000 0.0000 0.0000 42.8424 0.0000 0.0000
# 5 0.0000 0.0000 0.0000 0.0000 7.7906 0.0000
# 6 0.0000 0.0000 0.0000 0.0000 0.0000 26.5767
#
#
#
# Elastic Compliance Matrix: (Units=1/GPa)
#
#
# Indices 1 2 3 4 5 6 
#
# 1 0.023706 -0.001630 -0.009641 0.000000 0.000000 0.000000
# 2 -0.001630 0.009392 -0.002924 0.000000 0.000000 0.000000
# 3 -0.009641 -0.002924 0.017975 0.000000 0.000000 0.000000
# 4 0.000000 0.000000 0.000000 0.023341 0.000000 0.000000
# 5 0.000000 0.000000 0.000000 0.000000 0.128360 0.000000
# 6 0.000000 0.000000 0.000000 0.000000 0.000000 0.037627
#
#
# Mechanical properties :
#
#
# Convention : Reuss Voigt Hill
#
# Bulk Modulus (GPa) = 44.08250 47.40709 45.74480
# Shear Modulus (GPa) = 18.09278 26.81912 22.45595
#
# Velocity S-wave (km/s) = 2.85545 3.47652 3.18118
# Velocity P-wave (km/s) = 5.54414 6.12203 5.84024
#
# Compressibility (1/GPa) = 0.02268474
#
# Stress axis : x y z
#
# Youngs Moduli (GPa) = 42.18283 106.46982 55.63140
#
# Poissons Ratio (x) = 0.17351 0.53633
# Poissons Ratio (y) = 0.06874 0.16268
# Poissons Ratio (z) = 0.40668 0.31134
#
# Static dielectric constant tensor:
#      x y z
#    x 3.623570 0.000000 0.000000 
#    y 0.000000 4.437180 0.000000 
#    z 0.000000 0.000000 4.079710 
# 
# 
# High freq. dielectric constant tensor:
#      x y z
#    x 1.842140 0.000000 0.000000 
#    y 0.000000 1.896500 0.000000 
#    z 0.000000 0.000000 1.879130 
# 
# From -- ./inp_files/11564.got.cif
#   From: 2010.03.12/outbox.cif.g09.slc.cpg/sg41_6_cif.got.tgz:11564.got - 2010.04.14 01:55:53.
