data_PCOD8185462
_publ_section_title
;
Structure prediction by ZEFSAII (Michael W. Deem and Ramdas Pophale) SiO2 
 PCOD8185462
Probable space group: A B A 2
;
_chemical_formula_sum "Si O2"
_cell_formula_units_Z 40
_cell_length_a 8.658461
_cell_length_b 10.834986
_cell_length_c 20.107284
_cell_angle_alpha 90.000000
_cell_angle_beta 90.000000
_cell_angle_gamma 90.000000
_cell_volume 1886.350848
_symmetry_space_group_name_H-M "A B A 2"
_symmetry_group_IT_number 41
_symmetry_cell_setting 'orthorhombic'
loop_
_space_group_symop_operation_xyz
x,y,z
-x,-y,z
1/2-x,y,1/2+z
1/2+x,-y,1/2+z
x,1/2+y,1/2+z
-x,1/2-y,1/2+z
1/2-x,1/2+y,z
1/2+x,1/2-y,z
loop_
_atom_site_type_symbol
_atom_site_label
_atom_site_fract_x
_atom_site_fract_y
_atom_site_fract_z
Si Si1 0.911530 0.127533 0.415940
Si Si2 0.841159 0.245455 0.993367
Si Si3 0.845859 0.149030 0.268008
Si Si4 0.089074 0.118587 0.064556
Si Si5 0.819404 0.888872 0.216964
O O1 0.775836 0.135248 0.471665
O O2 0.824727 0.156928 0.347050
O O3 0.047976 0.225338 0.430875
O O4 0.000000 0.000000 0.416888
O O5 0.734975 0.359856 0.016517
O O6 0.952379 0.219739 0.056777
O O7 0.795853 0.277159 0.233586
O O8 0.027057 0.136514 0.257514
O O9 0.758162 0.026538 0.238357
O O10 0.145998 0.108355 0.139302
O O11 0.000000 0.000000 0.037978
#
# Coordination Sequence:
#
# PCOD8185462 Si02
#       5
#     8   8   8   8   8
#     4  11  21  41  63  92 128 164 214 264 319 384
#     4  10  24  38  64  96 126 164 212 264 328 378
#     4  11  23  42  66  92 128 170 214 268 321 381
#     4  11  21  41  63  92 128 164 214 264 319 384
#     4  11  23  42  66  92 128 170 214 268 321 381
#
# _framework density 21.204962999999999
#
# number of rings (size 3 to 8) (size 9 to 14) (size 15 to 20)
#    0.000    1.200    4.000    3.600    0.000    0.800 
#    0.000    0.000    0.000    0.000    0.000    0.000 
#    0.000    0.000    0.000    0.000    0.000    0.000 
#
# Total GULP energy -247780.587272 kJ/mol
# GULP energy per Si atom -12389.029364 kJ/mol
# Density = 2.115670 g / cm^3
# Si number density = 21.204963 Si / 1000 Ang^3
#
#
#
# Elastic Constant Matrix: (Units=GPa)
#
#
# Indices 1 2 3 4 5 6 
#
# 1 83.3992 36.4120 35.7830 0.0000 0.0000 0.0000
# 2 36.4120 115.3406 28.7951 0.0000 0.0000 0.0000
# 3 35.7830 28.7951 119.1465 0.0000 0.0000 0.0000
# 4 0.0000 0.0000 0.0000 31.0334 0.0000 0.0000
# 5 0.0000 0.0000 0.0000 0.0000 4.6578 0.0000
# 6 0.0000 0.0000 0.0000 0.0000 0.0000 31.7181
#
#
#
# Elastic Compliance Matrix: (Units=1/GPa)
#
#
# Indices 1 2 3 4 5 6 
#
# 1 0.015258 -0.003909 -0.003638 0.000000 0.000000 0.000000
# 2 -0.003909 0.010228 -0.001298 0.000000 0.000000 0.000000
# 3 -0.003638 -0.001298 0.009799 0.000000 0.000000 0.000000
# 4 0.000000 0.000000 0.000000 0.032223 0.000000 0.000000
# 5 0.000000 0.000000 0.000000 0.000000 0.214695 0.000000
# 6 0.000000 0.000000 0.000000 0.000000 0.000000 0.031528
#
#
# Mechanical properties :
#
#
# Convention : Reuss Voigt Hill
#
# Bulk Modulus (GPa) = 56.83005 57.76297 57.29651
# Shear Modulus (GPa) = 14.82424 27.94159 21.38292
#
# Velocity S-wave (km/s) = 2.64691 3.63394 3.17896
# Velocity P-wave (km/s) = 6.01664 6.70125 6.36816
#
# Compressibility (1/GPa) = 0.01759632
#
# Stress axis : x y z
#
# Youngs Moduli (GPa) = 65.54028 97.77150 102.04869
#
# Poissons Ratio (x) = 0.38215 0.37123
# Poissons Ratio (y) = 0.25617 0.13246
# Poissons Ratio (z) = 0.23842 0.12691
#
# Static dielectric constant tensor:
#      x y z
#    x 4.053740 0.000000 0.000000 
#    y 0.000000 4.286920 0.000000 
#    z 0.000000 0.000000 3.870560 
# 
# 
# High freq. dielectric constant tensor:
#      x y z
#    x 1.832420 0.000000 0.000000 
#    y 0.000000 1.829970 0.000000 
#    z 0.000000 0.000000 1.832780 
# 
# From -- ./inp_files/1747.got.cif
#   From: 2010.03.12/outbox.cif.g09.slc.cpg/sg41_1_cif.got.tgz:1747.got - 2010.04.14 01:55:53.
