data_PCOD8185415
_publ_section_title
;
Structure prediction by ZEFSAII (Michael W. Deem and Ramdas Pophale) SiO2 
 PCOD8185415
Probable space group: A B A 2
;
_chemical_formula_sum "Si O2"
_cell_formula_units_Z 48
_cell_length_a 11.362389
_cell_length_b 12.199452
_cell_length_c 15.407121
_cell_angle_alpha 90.000000
_cell_angle_beta 90.000000
_cell_angle_gamma 90.000000
_cell_volume 2135.656833
_symmetry_space_group_name_H-M "A B A 2"
_symmetry_group_IT_number 41
_symmetry_cell_setting 'orthorhombic'
loop_
_space_group_symop_operation_xyz
x,y,z
-x,-y,z
1/2-x,y,1/2+z
1/2+x,-y,1/2+z
x,1/2+y,1/2+z
-x,1/2-y,1/2+z
1/2-x,1/2+y,z
1/2+x,1/2-y,z
loop_
_atom_site_type_symbol
_atom_site_label
_atom_site_fract_x
_atom_site_fract_y
_atom_site_fract_z
Si Si1 0.927687 0.402062 0.246700
Si Si2 0.310130 0.526468 0.500492
Si Si3 0.528370 0.660761 0.240543
Si Si4 0.971630 0.660761 0.947122
Si Si5 0.572312 0.902062 0.440965
Si Si6 0.810130 0.473532 0.687173
O O1 0.952283 0.283589 0.204127
O O2 0.977525 0.393712 0.343833
O O3 0.789888 0.429307 0.251484
O O4 0.000000 0.500000 0.197469
O O5 0.417859 0.611766 0.499135
O O6 0.354005 0.407454 0.469632
O O7 0.210112 0.570694 0.436181
O O8 0.250000 0.520225 0.593833
O O9 0.506039 0.653757 0.343833
O O10 0.645995 0.592546 0.218033
O O11 0.417858 0.611766 0.188530
O O12 0.952283 0.783589 0.983539
O O13 0.500000 0.000000 0.490196
#
# Coordination Sequence:
#
# PCOD8185415 Si02
#       6
#     8   8   8   8   8   8
#     4  10  23  41  66  95 125 167 223 271 315 383
#     4  11  24  40  65  95 130 169 212 270 329 385
#     4  10  23  45  69  92 129 177 219 263 322 389
#     4  10  23  45  69  92 129 177 219 263 322 389
#     4  10  23  41  66  95 125 167 223 271 315 383
#     4  11  24  40  65  95 130 169 212 270 329 385
#
# _framework density 22.475522000000002
#
# number of rings (size 3 to 8) (size 9 to 14) (size 15 to 20)
#    0.000    1.667    0.000    4.000    9.333    2.667 
#    0.000    0.000    0.000    0.000    0.000    0.000 
#    0.000    0.000    0.000    0.000    0.000    0.000 
#
# Total GULP energy -297560.895870 kJ/mol
# GULP energy per Si atom -12398.370661 kJ/mol
# Density = 2.242437 g / cm^3
# Si number density = 22.475522 Si / 1000 Ang^3
#
#
#
# Elastic Constant Matrix: (Units=GPa)
#
#
# Indices 1 2 3 4 5 6 
#
# 1 135.4772 94.6907 17.2018 0.0000 0.0000 0.0000
# 2 94.6907 252.6523 23.7852 0.0000 0.0000 0.0000
# 3 17.2018 23.7852 70.1912 0.0000 0.0000 0.0000
# 4 0.0000 0.0000 0.0000 12.0259 0.0000 0.0000
# 5 0.0000 0.0000 0.0000 0.0000 41.8338 0.0000
# 6 0.0000 0.0000 0.0000 0.0000 0.0000 32.8217
#
#
#
# Elastic Compliance Matrix: (Units=1/GPa)
#
#
# Indices 1 2 3 4 5 6 
#
# 1 0.010103 -0.003671 -0.001232 0.000000 0.000000 0.000000
# 2 -0.003671 0.005422 -0.000938 0.000000 0.000000 0.000000
# 3 -0.001232 -0.000938 0.014867 0.000000 0.000000 0.000000
# 4 0.000000 0.000000 0.000000 0.083154 0.000000 0.000000
# 5 0.000000 0.000000 0.000000 0.000000 0.023904 0.000000
# 6 0.000000 0.000000 0.000000 0.000000 0.000000 0.030468
#
#
# Mechanical properties :
#
#
# Convention : Reuss Voigt Hill
#
# Bulk Modulus (GPa) = 53.44521 81.07513 67.26017
# Shear Modulus (GPa) = 26.90553 38.84582 32.87568
#
# Velocity S-wave (km/s) = 3.46367 4.16187 3.82872
# Velocity P-wave (km/s) = 6.31086 7.69713 7.03821
#
# Compressibility (1/GPa) = 0.01871075
#
# Stress axis : x y z
#
# Youngs Moduli (GPa) = 98.97771 184.43464 67.26514
#
# Poissons Ratio (x) = 0.67698 0.08288
# Poissons Ratio (y) = 0.36331 0.06308
# Poissons Ratio (z) = 0.12196 0.17296
#
# Static dielectric constant tensor:
#      x y z
#    x 4.108480 0.000000 0.000000 
#    y 0.000000 4.452810 0.000000 
#    z 0.000000 0.000000 3.747980 
# 
# 
# High freq. dielectric constant tensor:
#      x y z
#    x 1.889770 0.000000 0.000000 
#    y 0.000000 1.899520 0.000000 
#    z 0.000000 0.000000 1.874550 
# 
# From -- ./inp_files/9969.got.cif
#   From: 2010.03.12/outbox.cif.g09.slc.cpg/sg41_5_cif.got.tgz:9969.got - 2010.04.14 01:55:53.
