data_PCOD8185111
_publ_section_title
;
Structure prediction by ZEFSAII (Michael W. Deem and Ramdas Pophale) SiO2 
 PCOD8185111
Probable space group: A B A 2
;
_chemical_formula_sum "Si O2"
_cell_formula_units_Z 60
_cell_length_a 30.484654
_cell_length_b 5.287881
_cell_length_c 16.470032
_cell_angle_alpha 90.000000
_cell_angle_beta 90.000000
_cell_angle_gamma 90.000000
_cell_volume 2654.956356
_symmetry_space_group_name_H-M "A B A 2"
_symmetry_group_IT_number 41
_symmetry_cell_setting 'orthorhombic'
loop_
_space_group_symop_operation_xyz
x,y,z
-x,-y,z
1/2-x,y,1/2+z
1/2+x,-y,1/2+z
x,1/2+y,1/2+z
-x,1/2-y,1/2+z
1/2-x,1/2+y,z
1/2+x,1/2-y,z
loop_
_atom_site_type_symbol
_atom_site_label
_atom_site_fract_x
_atom_site_fract_y
_atom_site_fract_z
Si Si1 0.867423 0.130223 0.714530
Si Si2 0.500000 0.500000 0.438694
Si Si3 0.236825 0.376205 0.969929
Si Si4 0.623015 0.126430 0.613626
Si Si5 0.642821 0.458699 0.476413
Si Si6 0.920535 0.215765 0.863137
Si Si7 0.772985 0.124824 0.790588
Si Si8 0.569555 0.840171 0.500453
O O1 0.858706 0.370851 0.655611
O O2 0.911174 0.179472 0.768068
O O3 0.879657 0.862988 0.673750
O O4 0.823995 0.095455 0.768775
O O5 0.535523 0.375200 0.379147
O O6 0.521968 0.706271 0.499350
O O7 0.251966 0.623316 0.020672
O O8 0.185466 0.384255 0.951368
O O9 0.266834 0.364621 0.888316
O O10 0.653489 0.224393 0.538071
O O11 0.575512 0.056703 0.570247
O O12 0.622263 0.365508 0.392951
O O13 0.607730 0.639187 0.521264
O O14 0.923971 0.950203 0.909877
O O15 0.747289 0.882726 0.753508
#
# Coordination Sequence:
#
# PCOD8185111 Si02
#       8
#     8   4   8   8   8   8   8   8
#     4  12  25  43  72 102 147 188 235 286 357 435
#     4  10  22  44  74 110 140 168 236 302 354 408
#     4  10  22  35  61  97 133 165 232 293 332 382
#     4  11  25  45  70 100 140 191 236 276 352 435
#     4  10  22  43  71  99 132 184 239 283 337 416
#     4  10  23  39  76 102 137 176 230 290 349 414
#     4  10  21  38  61  96 136 178 232 286 344 400
#     4  10  22  44  76 102 135 184 236 285 347 425
#
# _framework density 22.599243000000001
#
# number of rings (size 3 to 8) (size 9 to 14) (size 15 to 20)
#    0.000    1.600    1.333    2.800   11.200    0.000 
#    0.000    4.000   11.733    0.000    0.000    0.000 
#    0.000    0.000    0.000    0.000    0.000    0.000 
#
# Total GULP energy -371657.192558 kJ/mol
# GULP energy per Si atom -12388.573085 kJ/mol
# Density = 2.254781 g / cm^3
# Si number density = 22.599243 Si / 1000 Ang^3
#
#
#
# Elastic Constant Matrix: (Units=GPa)
#
#
# Indices 1 2 3 4 5 6 
#
# 1 96.6726 29.9552 19.3965 0.0000 0.0000 0.0000
# 2 29.9552 154.9468 21.7090 0.0000 0.0000 0.0000
# 3 19.3965 21.7090 70.1648 0.0000 0.0000 0.0000
# 4 0.0000 0.0000 0.0000 30.1034 0.0000 0.0000
# 5 0.0000 0.0000 0.0000 0.0000 15.7401 0.0000
# 6 0.0000 0.0000 0.0000 0.0000 0.0000 33.5999
#
#
#
# Elastic Compliance Matrix: (Units=1/GPa)
#
#
# Indices 1 2 3 4 5 6 
#
# 1 0.011436 -0.001848 -0.002590 0.000000 0.000000 0.000000
# 2 -0.001848 0.007045 -0.001669 0.000000 0.000000 0.000000
# 3 -0.002590 -0.001669 0.015484 0.000000 0.000000 0.000000
# 4 0.000000 0.000000 0.000000 0.033219 0.000000 0.000000
# 5 0.000000 0.000000 0.000000 0.000000 0.063532 0.000000
# 6 0.000000 0.000000 0.000000 0.000000 0.000000 0.029762
#
#
# Mechanical properties :
#
#
# Convention : Reuss Voigt Hill
#
# Bulk Modulus (GPa) = 45.97169 51.54506 48.75838
# Shear Modulus (GPa) = 27.78661 32.60358 30.19509
#
# Velocity S-wave (km/s) = 3.51028 3.80239 3.65925
# Velocity P-wave (km/s) = 6.06760 6.49118 6.28296
#
# Compressibility (1/GPa) = 0.02175252
#
# Stress axis : x y z
#
# Youngs Moduli (GPa) = 87.43961 141.94610 64.58113
#
# Poissons Ratio (x) = 0.26233 0.16725
# Poissons Ratio (y) = 0.16160 0.10777
# Poissons Ratio (z) = 0.22644 0.23688
#
# Static dielectric constant tensor:
#      x y z
#    x 3.877600 0.000000 0.000000 
#    y 0.000000 5.018850 0.000000 
#    z 0.000000 0.000000 3.763530 
# 
# 
# High freq. dielectric constant tensor:
#      x y z
#    x 1.876150 0.000000 0.000000 
#    y 0.000000 1.925680 0.000000 
#    z 0.000000 0.000000 1.854290 
# 
# From -- ./inp_files/10821.got.cif
#   From: 2010.03.12/outbox.cif.g09.slc.cpg/sg41_6_cif.got.tgz:10821.got - 2010.04.14 01:55:53.
