data_PCOD8185971
_publ_section_title
;
Structure prediction by ZEFSAII (Michael W. Deem and Ramdas Pophale) SiO2 
 PCOD8185971
Probable space group: F M M 2
;
_chemical_formula_sum "Si O2"
_cell_formula_units_Z 96
_cell_length_a 30.715669
_cell_length_b 9.098954
_cell_length_c 19.555486
_cell_angle_alpha 90.000000
_cell_angle_beta 90.000000
_cell_angle_gamma 90.000000
_cell_volume 5465.376209
_symmetry_space_group_name_H-M "F M M 2"
_symmetry_group_IT_number 42
_symmetry_cell_setting 'orthorhombic'
loop_
_space_group_symop_operation_xyz
x,y,z
-x,-y,z
-x,y,z
x,-y,z
x,1/2+y,1/2+z
-x,1/2-y,1/2+z
-x,1/2+y,1/2+z
x,1/2-y,1/2+z
1/2+x,y,1/2+z
1/2-x,-y,1/2+z
1/2-x,y,1/2+z
1/2+x,-y,1/2+z
1/2+x,1/2+y,z
1/2-x,1/2-y,z
1/2-x,1/2+y,z
1/2+x,1/2-y,z
loop_
_atom_site_type_symbol
_atom_site_label
_atom_site_fract_x
_atom_site_fract_y
_atom_site_fract_z
Si Si1 0.047825 0.674148 0.893950
Si Si2 0.949259 0.830407 0.239504
Si Si3 0.622345 0.172316 0.992785
Si Si4 0.879268 0.672116 0.151029
Si Si5 0.708206 0.834635 0.491898
Si Si6 0.292380 0.666180 0.154718
O O1 0.045344 0.500000 0.899141
O O2 0.061426 0.717961 0.817108
O O3 0.000000 0.739638 0.911269
O O4 0.082324 0.735986 0.948445
O O5 0.921695 0.727723 0.189960
O O6 0.000000 0.805378 0.223428
O O7 0.936521 0.000000 0.227295
O O8 0.613109 0.209041 0.071566
O O9 0.665236 0.253172 0.965435
O O10 0.629362 0.000000 0.981174
O O11 0.872936 0.500000 0.163033
O O12 0.836124 0.752309 0.179542
O O13 0.750000 0.750000 0.462022
O O14 0.709565 0.833111 0.573358
O O15 0.708541 0.000000 0.463432
O O16 0.292601 0.500000 0.183126
O O17 0.250000 0.750000 0.184298
#
# Coordination Sequence:
#
# PCOD8185971 Si02
#       6
#    16  16  16  16  16  16
#     4   8  15  30  51  70  88 118 160 197 229 272
#     4   9  18  33  51  68  89 122 161 196 233 280
#     4   9  17  29  47  71  96 121 153 193 233 272
#     4  10  19  29  45  72 101 125 152 190 236 281
#     4   9  16  26  42  65  94 125 155 187 226 273
#     4   9  16  27  44  66  94 126 158 191 228 273
#
# _framework density 17.565121000000001
#
# number of rings (size 3 to 8) (size 9 to 14) (size 15 to 20)
#    0.000    3.000    0.000    2.500    0.000    5.667 
#    0.000    2.500    0.000    2.500    0.000    4.667 
#    0.000    0.000    0.000    0.000    0.000    0.000 
#
# Total GULP energy -297558.129238 kJ/mol
# GULP energy per Si atom -12398.255385 kJ/mol
# Density = 1.752514 g / cm^3
# Si number density = 17.565121 Si / 1000 Ang^3
#
#
#
# Elastic Constant Matrix: (Units=GPa)
#
#
# Indices 1 2 3 4 5 6 
#
# 1 150.2360 65.8364 61.0185 0.0000 0.0000 0.0000
# 2 65.8364 91.2864 35.1885 0.0000 0.0000 0.0000
# 3 61.0185 35.1885 53.3180 0.0000 0.0000 0.0000
# 4 0.0000 0.0000 0.0000 13.2457 0.0000 0.0000
# 5 0.0000 0.0000 0.0000 0.0000 4.9768 0.0000
# 6 0.0000 0.0000 0.0000 0.0000 0.0000 34.6015
#
#
#
# Elastic Compliance Matrix: (Units=1/GPa)
#
#
# Indices 1 2 3 4 5 6 
#
# 1 0.014124 -0.005305 -0.012662 0.000000 0.000000 0.000000
# 2 -0.005305 0.016685 -0.004940 0.000000 0.000000 0.000000
# 3 -0.012662 -0.004940 0.036507 0.000000 0.000000 0.000000
# 4 0.000000 0.000000 0.000000 0.075496 0.000000 0.000000
# 5 0.000000 0.000000 0.000000 0.000000 0.200931 0.000000
# 6 0.000000 0.000000 0.000000 0.000000 0.000000 0.028900
#
#
# Mechanical properties :
#
#
# Convention : Reuss Voigt Hill
#
# Bulk Modulus (GPa) = 46.51132 68.76969 57.64050
# Shear Modulus (GPa) = 11.74740 19.41794 15.58267
#
# Velocity S-wave (km/s) = 2.58891 3.32849 2.98172
# Velocity P-wave (km/s) = 5.95596 7.34902 6.68885
#
# Compressibility (1/GPa) = 0.02150014
#
# Stress axis : x y z
#
# Youngs Moduli (GPa) = 70.80183 59.93398 27.39196
#
# Poissons Ratio (x) = 0.31796 0.34685
# Poissons Ratio (y) = 0.37562 0.13532
# Poissons Ratio (z) = 0.89653 0.29609
#
# Static dielectric constant tensor:
#      x y z
#    x 3.587430 0.000000 0.000000 
#    y 0.000000 3.190060 0.000000 
#    z 0.000000 0.000000 2.940050 
# 
# 
# High freq. dielectric constant tensor:
#      x y z
#    x 1.693110 0.000000 0.000000 
#    y 0.000000 1.670130 0.000000 
#    z 0.000000 0.000000 1.634980 
# 
# From -- ./inp_files/23701.got.cif
#   From: 2010.03.12/outbox.cif.g09.slc.cpg/sg42_12_cif.got.tgz:23701.got - 2010.04.14 02:04:31.
