data_PCOD8185530
_publ_section_title
;
Structure prediction by ZEFSAII (Michael W. Deem and Ramdas Pophale) SiO2 
 PCOD8185530
Probable space group: A B A 2
;
_chemical_formula_sum "Si O2"
_cell_formula_units_Z 40
_cell_length_a 8.178489
_cell_length_b 10.774909
_cell_length_c 17.398177
_cell_angle_alpha 90.000000
_cell_angle_beta 90.000000
_cell_angle_gamma 90.000000
_cell_volume 1533.170413
_symmetry_space_group_name_H-M "A B A 2"
_symmetry_group_IT_number 41
_symmetry_cell_setting 'orthorhombic'
loop_
_space_group_symop_operation_xyz
x,y,z
-x,-y,z
1/2-x,y,1/2+z
1/2+x,-y,1/2+z
x,1/2+y,1/2+z
-x,1/2-y,1/2+z
1/2-x,1/2+y,z
1/2+x,1/2-y,z
loop_
_atom_site_type_symbol
_atom_site_label
_atom_site_fract_x
_atom_site_fract_y
_atom_site_fract_z
Si Si1 0.133954 0.229166 0.880680
Si Si2 0.813155 0.003209 0.431928
Si Si3 0.809338 0.292684 0.622252
Si Si4 0.081876 0.854382 0.020034
Si Si5 0.026837 0.136177 0.725475
O O1 0.213449 0.366713 0.886197
O O2 0.050303 0.227552 0.797268
O O3 0.272789 0.119326 0.882487
O O4 0.000375 0.209599 0.946677
O O5 0.672471 0.013193 0.499479
O O6 0.000000 0.000000 0.463133
O O7 0.726552 0.240468 0.544065
O O8 0.684506 0.375118 0.670232
O O9 0.965250 0.372845 0.594000
O O10 0.871751 0.181030 0.676347
O O11 0.000000 0.000000 0.759544
#
# Coordination Sequence:
#
# PCOD8185530 Si02
#       5
#     8   8   8   8   8
#     4  12  28  51  81 116 150 205 263 322 381 460
#     4  12  28  46  83 114 153 195 265 324 385 453
#     4  10  26  48  74 111 157 197 259 311 393 460
#     4  11  23  49  76 112 149 205 254 321 376 458
#     4  11  27  48  77 108 156 205 253 319 388 467
#
# _framework density 26.089729999999999
#
# number of rings (size 3 to 8) (size 9 to 14) (size 15 to 20)
#    0.000    0.800    2.000    3.000    8.400    4.000 
#    0.000    3.000    0.000    0.000    0.000    0.000 
#    0.000    0.000    0.000    0.000    0.000    0.000 
#
# Total GULP energy -247995.475004 kJ/mol
# GULP energy per Si atom -12399.773750 kJ/mol
# Density = 2.603035 g / cm^3
# Si number density = 26.089730 Si / 1000 Ang^3
#
#
#
# Elastic Constant Matrix: (Units=GPa)
#
#
# Indices 1 2 3 4 5 6 
#
# 1 102.0699 25.6544 30.7381 0.0000 0.0000 0.0000
# 2 25.6544 152.1818 24.6463 0.0000 0.0000 0.0000
# 3 30.7381 24.6463 105.6943 0.0000 0.0000 0.0000
# 4 0.0000 0.0000 0.0000 31.8992 0.0000 0.0000
# 5 0.0000 0.0000 0.0000 0.0000 26.0902 0.0000
# 6 0.0000 0.0000 0.0000 0.0000 0.0000 38.9897
#
#
#
# Elastic Compliance Matrix: (Units=1/GPa)
#
#
# Indices 1 2 3 4 5 6 
#
# 1 0.011014 -0.001390 -0.002879 0.000000 0.000000 0.000000
# 2 -0.001390 0.007005 -0.001229 0.000000 0.000000 0.000000
# 3 -0.002879 -0.001229 0.010585 0.000000 0.000000 0.000000
# 4 0.000000 0.000000 0.000000 0.031349 0.000000 0.000000
# 5 0.000000 0.000000 0.000000 0.000000 0.038329 0.000000
# 6 0.000000 0.000000 0.000000 0.000000 0.000000 0.025648
#
#
# Mechanical properties :
#
#
# Convention : Reuss Voigt Hill
#
# Bulk Modulus (GPa) = 56.79613 58.00261 57.39937
# Shear Modulus (GPa) = 35.51299 37.98964 36.75131
#
# Velocity S-wave (km/s) = 3.69343 3.82005 3.75727
# Velocity P-wave (km/s) = 6.32498 6.46044 6.39307
#
# Compressibility (1/GPa) = 0.01760683
#
# Stress axis : x y z
#
# Youngs Moduli (GPa) = 90.79674 142.76500 94.47309
#
# Poissons Ratio (x) = 0.19850 0.27197
# Poissons Ratio (y) = 0.12625 0.11611
# Poissons Ratio (z) = 0.26138 0.17546
#
# Static dielectric constant tensor:
#      x y z
#    x 5.129330 0.000000 0.000000 
#    y 0.000000 4.629890 0.000000 
#    z 0.000000 0.000000 4.521400 
# 
# 
# High freq. dielectric constant tensor:
#      x y z
#    x 2.073750 0.000000 0.000000 
#    y 0.000000 2.043370 0.000000 
#    z 0.000000 0.000000 2.031500 
# 
# From -- ./inp_files/9559.got.cif
#   From: 2010.03.12/outbox.cif.g09.slc.cpg/sg41_5_cif.got.tgz:9559.got - 2010.04.14 01:55:53.
