data_PCOD8185622
_publ_section_title
;
Structure prediction by ZEFSAII (Michael W. Deem and Ramdas Pophale) SiO2 
 PCOD8185622
Probable space group: A B A 2
;
_chemical_formula_sum "Si O2"
_cell_formula_units_Z 60
_cell_length_a 26.285109
_cell_length_b 12.116471
_cell_length_c 8.143020
_cell_angle_alpha 90.000000
_cell_angle_beta 90.000000
_cell_angle_gamma 90.000000
_cell_volume 2593.411492
_symmetry_space_group_name_H-M "A B A 2"
_symmetry_group_IT_number 41
_symmetry_cell_setting 'orthorhombic'
loop_
_space_group_symop_operation_xyz
x,y,z
-x,-y,z
1/2-x,y,1/2+z
1/2+x,-y,1/2+z
x,1/2+y,1/2+z
-x,1/2-y,1/2+z
1/2-x,1/2+y,z
1/2+x,1/2-y,z
loop_
_atom_site_type_symbol
_atom_site_label
_atom_site_fract_x
_atom_site_fract_y
_atom_site_fract_z
Si Si1 0.151055 0.303198 0.239230
Si Si2 0.423075 0.840876 0.531281
Si Si3 0.664589 0.851864 0.473221
Si Si4 0.225650 0.726067 0.003151
Si Si5 0.328012 0.008094 0.031660
Si Si6 0.174498 0.430091 0.668272
Si Si7 0.913989 0.383335 0.185797
Si Si8 0.000000 0.500000 0.392808
O O1 0.104282 0.336682 0.354253
O O2 0.194386 0.235743 0.334754
O O3 0.178393 0.410502 0.162983
O O4 0.130124 0.216690 0.103707
O O5 0.384417 0.893052 0.663048
O O6 0.439219 0.722411 0.600664
O O7 0.474430 0.910779 0.512953
O O8 0.715231 0.776926 0.454700
O O9 0.632665 0.854730 0.307247
O O10 0.680417 0.972966 0.534474
O O11 0.208539 0.609759 0.086378
O O12 0.212287 0.830524 0.118678
O O13 0.387556 0.045698 0.040216
O O14 0.312494 0.968859 0.850591
O O15 0.957816 0.447518 0.277426
#
# Coordination Sequence:
#
# PCOD8185622 Si02
#       8
#     8   8   8   8   8   8   8   4
#     4  11  24  45  74 105 148 197 244 306 372 444
#     4  11  24  51  76 105 146 188 249 310 377 452
#     4  12  26  46  78 105 157 203 250 312 377 449
#     4  11  27  46  70 112 149 200 252 299 373 449
#     4  12  24  48  77 104 156 194 248 309 370 450
#     4  11  23  51  74 105 152 199 245 308 373 450
#     4  12  25  50  78 110 151 196 252 317 382 449
#     4  12  26  50  80 108 150 198 248 324 390 440
#
# _framework density 23.135548
#
# number of rings (size 3 to 8) (size 9 to 14) (size 15 to 20)
#    0.000    0.533    6.667    1.600    3.733    1.067 
#    7.200    0.000    0.000    0.000    0.000    0.000 
#    0.000    0.000    0.000    0.000    0.000    0.000 
#
# Total GULP energy -372022.934491 kJ/mol
# GULP energy per Si atom -12400.764483 kJ/mol
# Density = 2.308289 g / cm^3
# Si number density = 23.135548 Si / 1000 Ang^3
#
#
#
# Elastic Constant Matrix: (Units=GPa)
#
#
# Indices 1 2 3 4 5 6 
#
# 1 116.1875 28.9321 19.8208 0.0000 0.0000 0.0000
# 2 28.9321 139.8782 39.8546 0.0000 0.0000 0.0000
# 3 19.8208 39.8546 92.3531 0.0000 0.0000 0.0000
# 4 0.0000 0.0000 0.0000 48.3165 0.0000 0.0000
# 5 0.0000 0.0000 0.0000 0.0000 12.4026 0.0000
# 6 0.0000 0.0000 0.0000 0.0000 0.0000 33.9815
#
#
#
# Elastic Compliance Matrix: (Units=1/GPa)
#
#
# Indices 1 2 3 4 5 6 
#
# 1 0.009212 -0.001530 -0.001317 0.000000 0.000000 0.000000
# 2 -0.001530 0.008406 -0.003299 0.000000 0.000000 0.000000
# 3 -0.001317 -0.003299 0.012534 0.000000 0.000000 0.000000
# 4 0.000000 0.000000 0.000000 0.020697 0.000000 0.000000
# 5 0.000000 0.000000 0.000000 0.000000 0.080628 0.000000
# 6 0.000000 0.000000 0.000000 0.000000 0.000000 0.029428
#
#
# Mechanical properties :
#
#
# Convention : Reuss Voigt Hill
#
# Bulk Modulus (GPa) = 55.99038 58.40378 57.19708
# Shear Modulus (GPa) = 27.90951 36.26087 32.08519
#
# Velocity S-wave (km/s) = 3.47702 3.96324 3.72806
# Velocity P-wave (km/s) = 6.35398 6.80015 6.58085
#
# Compressibility (1/GPa) = 0.01786021
#
# Stress axis : x y z
#
# Youngs Moduli (GPa) = 108.54846 118.96902 79.78127
#
# Poissons Ratio (x) = 0.18206 0.10505
# Poissons Ratio (y) = 0.16611 0.26319
# Poissons Ratio (z) = 0.14294 0.39247
#
# Static dielectric constant tensor:
#      x y z
#    x 4.032910 0.000000 0.000000 
#    y 0.000000 4.601070 0.000000 
#    z 0.000000 0.000000 4.197830 
# 
# 
# High freq. dielectric constant tensor:
#      x y z
#    x 1.885360 0.000000 0.000000 
#    y 0.000000 1.942680 0.000000 
#    z 0.000000 0.000000 1.919030 
# 
# From -- ./inp_files/3826.got.cif
#   From: 2010.03.12/outbox.cif.g09.slc.cpg/sg41_2_cif.got.tgz:3826.got - 2010.04.14 01:55:53.
