data_PCOD8185944
_publ_section_title
;
Structure prediction by ZEFSAII (Michael W. Deem and Ramdas Pophale) SiO2 
 PCOD8185944
Probable space group: F M M 2
;
_chemical_formula_sum "Si O2"
_cell_formula_units_Z 128
_cell_length_a 16.780257
_cell_length_b 17.288469
_cell_length_c 22.724627
_cell_angle_alpha 90.000000
_cell_angle_beta 90.000000
_cell_angle_gamma 90.000000
_cell_volume 6592.526847
_symmetry_space_group_name_H-M "F M M 2"
_symmetry_group_IT_number 42
_symmetry_cell_setting 'orthorhombic'
loop_
_space_group_symop_operation_xyz
x,y,z
-x,-y,z
-x,y,z
x,-y,z
x,1/2+y,1/2+z
-x,1/2-y,1/2+z
-x,1/2+y,1/2+z
x,1/2-y,1/2+z
1/2+x,y,1/2+z
1/2-x,-y,1/2+z
1/2-x,y,1/2+z
1/2+x,-y,1/2+z
1/2+x,1/2+y,z
1/2-x,1/2-y,z
1/2-x,1/2+y,z
1/2+x,1/2-y,z
loop_
_atom_site_type_symbol
_atom_site_label
_atom_site_fract_x
_atom_site_fract_y
_atom_site_fract_z
Si Si1 0.910848 0.588601 0.399610
Si Si2 0.264477 0.912741 0.726331
Si Si3 0.797182 0.090447 0.465447
Si Si4 0.092153 0.641671 0.653784
Si Si5 0.357763 0.648525 0.020607
Si Si6 0.906652 0.319006 0.034518
Si Si7 0.260738 0.659948 0.847770
Si Si8 0.672322 0.704071 0.648977
O O1 0.883967 0.500000 0.391291
O O2 0.907843 0.607694 0.469010
O O3 0.853761 0.641796 0.359902
O O4 0.000000 0.602310 0.376523
O O5 0.349685 0.910638 0.693322
O O6 0.275053 0.887871 0.793594
O O7 0.197883 0.855678 0.699202
O O8 0.231921 0.000000 0.722805
O O9 0.733709 0.121778 0.513490
O O10 0.884609 0.111860 0.489923
O O11 0.788878 0.134469 0.404261
O O12 0.787327 0.000000 0.455570
O O13 0.109517 0.624821 0.584819
O O14 0.109941 0.730964 0.671479
O O15 0.000000 0.622093 0.667539
O O16 0.365420 0.740376 0.012224
O O17 0.871068 0.343248 0.097665
O O18 0.000000 0.306835 0.038459
O O19 0.250000 0.750000 0.834702
O O20 0.750000 0.750000 0.624393
#
# Coordination Sequence:
#
# PCOD8185944 Si02
#       8
#    16  16  16  16  16  16  16  16
#     4  10  20  35  58  89 119 140 170 229 293 334
#     4  11  23  39  58  81 110 144 185 230 277 331
#     4  11  22  36  56  82 113 148 184 225 275 330
#     4  10  20  35  57  84 114 147 184 228 272 319
#     4  10  18  34  58  85 113 144 185 227 273 328
#     4  11  21  34  55  83 117 152 186 225 264 316
#     4  11  22  40  62  80 105 146 192 230 268 326
#     4   9  18  35  58  81 108 145 188 230 273 323
#
# _framework density 19.415922999999999
#
# number of rings (size 3 to 8) (size 9 to 14) (size 15 to 20)
#    0.000    1.625    0.000    9.750    0.000    3.000 
#    0.000    3.750    0.000    4.125    0.000    0.000 
#    0.000    0.000    0.000    0.000    0.000    0.000 
#
# Total GULP energy -396749.313387 kJ/mol
# GULP energy per Si atom -12398.416043 kJ/mol
# Density = 1.937173 g / cm^3
# Si number density = 19.415923 Si / 1000 Ang^3
#
#
#
# Elastic Constant Matrix: (Units=GPa)
#
#
# Indices 1 2 3 4 5 6 
#
# 1 56.9835 32.6032 32.1315 0.0000 0.0000 0.0000
# 2 32.6032 87.5168 36.8646 0.0000 0.0000 0.0000
# 3 32.1315 36.8646 81.4333 0.0000 0.0000 0.0000
# 4 0.0000 0.0000 0.0000 16.7923 0.0000 0.0000
# 5 0.0000 0.0000 0.0000 0.0000 13.2793 0.0000
# 6 0.0000 0.0000 0.0000 0.0000 0.0000 24.0613
#
#
#
# Elastic Compliance Matrix: (Units=1/GPa)
#
#
# Indices 1 2 3 4 5 6 
#
# 1 0.025188 -0.006422 -0.007032 0.000000 0.000000 0.000000
# 2 -0.006422 0.015756 -0.004599 0.000000 0.000000 0.000000
# 3 -0.007032 -0.004599 0.017136 0.000000 0.000000 0.000000
# 4 0.000000 0.000000 0.000000 0.059551 0.000000 0.000000
# 5 0.000000 0.000000 0.000000 0.000000 0.075305 0.000000
# 6 0.000000 0.000000 0.000000 0.000000 0.000000 0.041560
#
#
# Mechanical properties :
#
#
# Convention : Reuss Voigt Hill
#
# Bulk Modulus (GPa) = 45.50358 47.68137 46.59248
# Shear Modulus (GPa) = 17.99041 19.11554 18.55297
#
# Velocity S-wave (km/s) = 3.04728 3.14112 3.09456
# Velocity P-wave (km/s) = 5.98902 6.14546 6.06774
#
# Compressibility (1/GPa) = 0.02197629
#
# Stress axis : x y z
#
# Youngs Moduli (GPa) = 39.70151 63.46872 58.35565
#
# Poissons Ratio (x) = 0.40757 0.41033
# Poissons Ratio (y) = 0.25495 0.26837
# Poissons Ratio (z) = 0.27916 0.29188
#
# Static dielectric constant tensor:
#      x y z
#    x 3.523590 0.000000 0.000000 
#    y 0.000000 3.518380 0.000000 
#    z 0.000000 0.000000 3.468050 
# 
# 
# High freq. dielectric constant tensor:
#      x y z
#    x 1.747580 0.000000 0.000000 
#    y 0.000000 1.754210 0.000000 
#    z 0.000000 0.000000 1.748080 
# 
# From -- ./inp_files/30019.got.cif
#   From: 2010.03.12/outbox.cif.g09.slc.cpg/sg42_16_cif.got.tgz:30019.got - 2010.04.14 02:04:31.
