data_PCOD8185566
_publ_section_title
;
Structure prediction by ZEFSAII (Michael W. Deem and Ramdas Pophale) SiO2 
 PCOD8185566
Probable space group: A B A 2
;
_chemical_formula_sum "Si O2"
_cell_formula_units_Z 64
_cell_length_a 17.597229
_cell_length_b 13.047780
_cell_length_c 13.606815
_cell_angle_alpha 90.000000
_cell_angle_beta 90.000000
_cell_angle_gamma 90.000000
_cell_volume 3124.189664
_symmetry_space_group_name_H-M "A B A 2"
_symmetry_group_IT_number 41
_symmetry_cell_setting 'orthorhombic'
loop_
_space_group_symop_operation_xyz
x,y,z
-x,-y,z
1/2-x,y,1/2+z
1/2+x,-y,1/2+z
x,1/2+y,1/2+z
-x,1/2-y,1/2+z
1/2-x,1/2+y,z
1/2+x,1/2-y,z
loop_
_atom_site_type_symbol
_atom_site_label
_atom_site_fract_x
_atom_site_fract_y
_atom_site_fract_z
Si Si1 0.914645 0.287586 0.500000
Si Si2 0.986536 0.271957 0.175046
Si Si3 0.192346 0.559247 0.588417
Si Si4 0.686024 0.138922 0.472605
Si Si5 0.674706 0.178187 0.840862
Si Si6 0.326819 0.195393 0.144779
Si Si7 0.576549 0.549970 0.225660
Si Si8 0.971762 0.109932 0.866260
O O1 0.836643 0.345224 0.525213
O O2 0.893346 0.214430 0.410697
O O3 0.947717 0.224273 0.592865
O O4 0.977156 0.365855 0.460809
O O5 0.914653 0.345265 0.146786
O O6 0.948294 0.158643 0.178634
O O7 0.022570 0.307179 0.278390
O O8 0.217976 0.462553 0.524816
O O9 0.268542 0.599417 0.642323
O O10 0.117648 0.527416 0.650825
O O11 0.745717 0.171479 0.392105
O O12 0.679080 0.229516 0.551200
O O13 0.612139 0.110862 0.410002
O O14 0.690334 0.249046 0.747104
O O15 0.641484 0.068008 0.807251
O O16 0.500000 0.500000 0.269004
O O17 0.000000 0.000000 0.825678
#
# Coordination Sequence:
#
# PCOD8185566 Si02
#       8
#     8   8   8   8   8   8   8   8
#     4  12  22  43  70 100 132 180 231 284 332 411
#     4  11  24  45  69 100 139 173 229 293 333 400
#     4  12  24  41  73  98 133 183 231 273 340 418
#     4  12  25  44  68 102 137 181 224 279 346 410
#     4  11  26  45  65  98 144 172 226 289 344 397
#     4  11  24  46  67  98 138 177 225 284 337 399
#     4  11  22  43  71  97 130 182 228 274 332 409
#     4  12  25  43  74 102 132 182 233 278 341 416
#
# _framework density 20.485310999999999
#
# number of rings (size 3 to 8) (size 9 to 14) (size 15 to 20)
#    0.000    0.500   10.000    0.000    1.750    2.000 
#    6.750    0.000    0.000    0.000    0.000    0.000 
#    0.000    0.000    0.000    0.000    0.000    0.000 
#
# Total GULP energy -396610.351121 kJ/mol
# GULP energy per Si atom -12394.073473 kJ/mol
# Density = 2.043869 g / cm^3
# Si number density = 20.485311 Si / 1000 Ang^3
#
#
#
# Elastic Constant Matrix: (Units=GPa)
#
#
# Indices 1 2 3 4 5 6 
#
# 1 102.8313 35.8425 37.2415 0.0000 0.0000 0.0000
# 2 35.8425 66.5763 31.9966 0.0000 0.0000 0.0000
# 3 37.2415 31.9966 105.6959 0.0000 0.0000 0.0000
# 4 0.0000 0.0000 0.0000 22.6564 0.0000 0.0000
# 5 0.0000 0.0000 0.0000 0.0000 48.8736 0.0000
# 6 0.0000 0.0000 0.0000 0.0000 0.0000 35.6809
#
#
#
# Elastic Compliance Matrix: (Units=1/GPa)
#
#
# Indices 1 2 3 4 5 6 
#
# 1 0.012642 -0.005460 -0.002802 0.000000 0.000000 0.000000
# 2 -0.005460 0.019936 -0.004111 0.000000 0.000000 0.000000
# 3 -0.002802 -0.004111 0.011693 0.000000 0.000000 0.000000
# 4 0.000000 0.000000 0.000000 0.044138 0.000000 0.000000
# 5 0.000000 0.000000 0.000000 0.000000 0.020461 0.000000
# 6 0.000000 0.000000 0.000000 0.000000 0.000000 0.028026
#
#
# Mechanical properties :
#
#
# Convention : Reuss Voigt Hill
#
# Bulk Modulus (GPa) = 51.21529 53.91830 52.56680
# Shear Modulus (GPa) = 29.73547 32.77705 31.25626
#
# Velocity S-wave (km/s) = 3.81406 4.00437 3.91037
# Velocity P-wave (km/s) = 6.66718 6.91069 6.79003
#
# Compressibility (1/GPa) = 0.01952542
#
# Stress axis : x y z
#
# Youngs Moduli (GPa) = 79.09915 50.16160 85.52243
#
# Poissons Ratio (x) = 0.27387 0.23961
# Poissons Ratio (y) = 0.43186 0.35160
# Poissons Ratio (z) = 0.22161 0.20623
#
# Static dielectric constant tensor:
#      x y z
#    x 3.859720 0.000000 0.000000 
#    y 0.000000 3.689370 0.000000 
#    z 0.000000 0.000000 3.762070 
# 
# 
# High freq. dielectric constant tensor:
#      x y z
#    x 1.818720 0.000000 0.000000 
#    y 0.000000 1.782180 0.000000 
#    z 0.000000 0.000000 1.805390 
# 
# From -- ./inp_files/8814.got.cif
#   From: 2010.03.12/outbox.cif.g09.slc.cpg/sg41_5_cif.got.tgz:8814.got - 2010.04.14 01:55:53.
