data_PCOD8185002
_publ_section_title
;
Structure prediction by ZEFSAII (Michael W. Deem and Ramdas Pophale) SiO2 
 PCOD8185002
Probable space group: A B A 2
;
_chemical_formula_sum "Si O2"
_cell_formula_units_Z 64
_cell_length_a 24.939791
_cell_length_b 13.521525
_cell_length_c 9.775526
_cell_angle_alpha 90.000000
_cell_angle_beta 90.000000
_cell_angle_gamma 90.000000
_cell_volume 3296.542053
_symmetry_space_group_name_H-M "A B A 2"
_symmetry_group_IT_number 41
_symmetry_cell_setting 'orthorhombic'
loop_
_space_group_symop_operation_xyz
x,y,z
-x,-y,z
1/2-x,y,1/2+z
1/2+x,-y,1/2+z
x,1/2+y,1/2+z
-x,1/2-y,1/2+z
1/2-x,1/2+y,z
1/2+x,1/2-y,z
loop_
_atom_site_type_symbol
_atom_site_label
_atom_site_fract_x
_atom_site_fract_y
_atom_site_fract_z
Si Si1 0.999995 0.160400 0.204900
Si Si2 0.449862 0.250042 0.454938
Si Si3 0.140629 0.903516 0.449267
Si Si4 0.746833 0.683064 0.335640
Si Si5 0.140623 0.596568 0.460527
Si Si6 0.588867 0.000013 0.704857
Si Si7 0.694052 0.499946 0.704895
Si Si8 0.746822 0.316847 0.074142
O O1 0.989717 0.232797 0.330127
O O2 0.947514 0.095184 0.175258
O O3 0.052449 0.095101 0.234453
O O4 0.010301 0.232893 0.079795
O O5 0.413240 0.344711 0.482555
O O6 0.413257 0.155353 0.427284
O O7 0.186028 0.834107 0.383777
O O8 0.126541 0.987893 0.338150
O O9 0.157931 0.944140 0.595838
O O10 0.772007 0.576512 0.298535
O O11 0.775611 0.749982 0.454869
O O12 0.749995 0.749924 0.204859
O O13 0.126545 0.512138 0.571581
O O14 0.157942 0.556015 0.313931
O O15 0.186008 0.665989 0.526065
O O16 0.728017 0.423402 0.611284
#
# Coordination Sequence:
#
# PCOD8185002 Si02
#       8
#     8   8   8   8   8   8   8   8
#     4   9  20  38  60  87 110 150 194 249 312 377
#     4  10  20  40  62  84 120 148 200 248 310 368
#     4  11  22  40  60  88 122 160 201 256 295 367
#     4  12  24  41  61  88 126 169 209 251 303 357
#     4  11  22  40  60  88 122 160 201 256 295 367
#     4   9  21  38  61  82 114 156 197 244 319 361
#     4  12  25  40  59  93 128 163 215 248 309 360
#     4  12  24  41  61  88 126 169 209 251 303 357
#
# _framework density 19.414283000000001
#
# number of rings (size 3 to 8) (size 9 to 14) (size 15 to 20)
#    0.000    1.250    3.750    1.500    3.500    2.000 
#    0.000    0.000    0.000    0.000    0.000    0.000 
#    0.000    0.000    0.000    0.000    0.000    0.000 
#
# Total GULP energy -396675.003646 kJ/mol
# GULP energy per Si atom -12396.093864 kJ/mol
# Density = 1.937010 g / cm^3
# Si number density = 19.414283 Si / 1000 Ang^3
#
#
#
# Elastic Constant Matrix: (Units=GPa)
#
#
# Indices 1 2 3 4 5 6 
#
# 1 74.7493 31.4202 65.6099 0.0000 0.0000 0.0000
# 2 31.4202 94.5349 72.5460 0.0000 0.0000 0.0000
# 3 65.6099 72.5460 178.9003 0.0000 0.0000 0.0000
# 4 0.0000 0.0000 0.0000 56.7365 0.0000 0.0000
# 5 0.0000 0.0000 0.0000 0.0000 31.8936 0.0000
# 6 0.0000 0.0000 0.0000 0.0000 0.0000 3.6729
#
#
#
# Elastic Compliance Matrix: (Units=1/GPa)
#
#
# Indices 1 2 3 4 5 6 
#
# 1 0.019868 -0.001469 -0.006691 0.000000 0.000000 0.000000
# 2 -0.001469 0.015466 -0.005733 0.000000 0.000000 0.000000
# 3 -0.006691 -0.005733 0.010368 0.000000 0.000000 0.000000
# 4 0.000000 0.000000 0.000000 0.017625 0.000000 0.000000
# 5 0.000000 0.000000 0.000000 0.000000 0.031354 0.000000
# 6 0.000000 0.000000 0.000000 0.000000 0.000000 0.272266
#
#
# Mechanical properties :
#
#
# Convention : Reuss Voigt Hill
#
# Bulk Modulus (GPa) = 55.81291 76.37074 66.09182
# Shear Modulus (GPa) = 12.47801 30.36782 21.42292
#
# Velocity S-wave (km/s) = 2.53795 3.95929 3.32544
# Velocity P-wave (km/s) = 6.11547 7.76686 6.99010
#
# Compressibility (1/GPa) = 0.01791700
#
# Stress axis : x y z
#
# Youngs Moduli (GPa) = 50.33146 64.65934 96.44894
#
# Poissons Ratio (x) = 0.09499 0.64532
# Poissons Ratio (y) = 0.07394 0.55292
# Poissons Ratio (z) = 0.33676 0.37068
#
# Static dielectric constant tensor:
#      x y z
#    x 3.585700 0.000000 0.000000 
#    y 0.000000 2.837370 0.000000 
#    z 0.000000 0.000000 3.834190 
# 
# 
# High freq. dielectric constant tensor:
#      x y z
#    x 1.746370 0.000000 0.000000 
#    y 0.000000 1.765510 0.000000 
#    z 0.000000 0.000000 1.770630 
# 
# From -- ./inp_files/3700.got.cif
#   From: 2010.03.12/outbox.cif.g09.slc.cpg/sg41_2_cif.got.tgz:3700.got - 2010.04.14 01:55:53.
