data_PCOD8185401
_publ_section_title
;
Structure prediction by ZEFSAII (Michael W. Deem and Ramdas Pophale) SiO2 
 PCOD8185401
Probable space group: A B A 2
;
_chemical_formula_sum "Si O2"
_cell_formula_units_Z 32
_cell_length_a 18.163539
_cell_length_b 13.268804
_cell_length_c 4.910495
_cell_angle_alpha 90.000000
_cell_angle_beta 90.000000
_cell_angle_gamma 90.000000
_cell_volume 1183.470734
_symmetry_space_group_name_H-M "A B A 2"
_symmetry_group_IT_number 41
_symmetry_cell_setting 'orthorhombic'
loop_
_space_group_symop_operation_xyz
x,y,z
-x,-y,z
1/2-x,y,1/2+z
1/2+x,-y,1/2+z
x,1/2+y,1/2+z
-x,1/2-y,1/2+z
1/2-x,1/2+y,z
1/2+x,1/2-y,z
loop_
_atom_site_type_symbol
_atom_site_label
_atom_site_fract_x
_atom_site_fract_y
_atom_site_fract_z
Si Si1 0.102838 0.575089 0.393080
Si Si2 0.058749 0.867782 0.052344
Si Si3 0.202677 0.984487 0.477428
Si Si4 0.872321 0.215103 0.548386
O O1 0.105427 0.473465 0.580343
O O2 0.128598 0.541874 0.087404
O O3 0.152408 0.669198 0.496590
O O4 0.018947 0.613187 0.408916
O O5 0.102794 0.791350 0.859377
O O6 0.058443 0.816516 0.349288
O O7 0.229763 0.017009 0.178703
O O8 0.193601 0.862867 0.489173
#
# Coordination Sequence:
#
# PCOD8185401 Si02
#       4
#     8   8   8   8
#     4  10  23  41  68  93 127 170 206 263 333 376
#     4  10  23  40  64 101 129 153 209 270 323 395
#     4  11  25  43  61  91 130 171 224 264 298 376
#     4  11  23  41  65  93 128 166 209 265 326 380
#
# _framework density 27.039113
#
# number of rings (size 3 to 8) (size 9 to 14) (size 15 to 20)
#    0.000    1.500    0.000    4.500    0.000   18.000 
#    0.000    0.000    0.000    0.000    0.000    0.000 
#    0.000    0.000    0.000    0.000    0.000    0.000 
#
# Total GULP energy -198263.878957 kJ/mol
# GULP energy per Si atom -12391.492435 kJ/mol
# Density = 2.697757 g / cm^3
# Si number density = 27.039113 Si / 1000 Ang^3
#
#
#
# Elastic Constant Matrix: (Units=GPa)
#
#
# Indices 1 2 3 4 5 6 
#
# 1 80.9097 9.8162 3.0851 0.0000 0.0000 0.0000
# 2 9.8162 185.9720 31.4629 0.0000 0.0000 0.0000
# 3 3.0851 31.4629 73.7895 0.0000 0.0000 0.0000
# 4 0.0000 0.0000 0.0000 31.2510 0.0000 0.0000
# 5 0.0000 0.0000 0.0000 0.0000 33.7699 0.0000
# 6 0.0000 0.0000 0.0000 0.0000 0.0000 36.3563
#
#
#
# Elastic Compliance Matrix: (Units=1/GPa)
#
#
# Indices 1 2 3 4 5 6 
#
# 1 0.012444 -0.000613 -0.000259 0.000000 0.000000 0.000000
# 2 -0.000613 0.005825 -0.002458 0.000000 0.000000 0.000000
# 3 -0.000259 -0.002458 0.014611 0.000000 0.000000 0.000000
# 4 0.000000 0.000000 0.000000 0.031999 0.000000 0.000000
# 5 0.000000 0.000000 0.000000 0.000000 0.029612 0.000000
# 6 0.000000 0.000000 0.000000 0.000000 0.000000 0.027506
#
#
# Mechanical properties :
#
#
# Convention : Reuss Voigt Hill
#
# Bulk Modulus (GPa) = 38.13906 47.71108 42.92507
# Shear Modulus (GPa) = 36.39087 40.02924 38.21005
#
# Velocity S-wave (km/s) = 3.67258 3.85180 3.76325
# Velocity P-wave (km/s) = 5.66741 6.12089 5.89851
#
# Compressibility (1/GPa) = 0.02621984
#
# Stress axis : x y z
#
# Youngs Moduli (GPa) = 80.36197 171.66205 68.44136
#
# Poissons Ratio (x) = 0.10523 0.01772
# Poissons Ratio (y) = 0.04926 0.16825
# Poissons Ratio (z) = 0.02080 0.42199
#
# Static dielectric constant tensor:
#      x y z
#    x 4.711590 0.000000 0.000000 
#    y 0.000000 5.375200 0.000000 
#    z 0.000000 0.000000 4.694310 
# 
# 
# High freq. dielectric constant tensor:
#      x y z
#    x 2.075280 0.000000 0.000000 
#    y 0.000000 2.099360 0.000000 
#    z 0.000000 0.000000 2.085090 
# 
# From -- ./inp_files/613.got.cif
#   From: 2010.03.12/outbox.cif.g09.slc.cpg/sg41_1_cif.got.tgz:613.got - 2010.04.14 01:55:53.
