data_PCOD8185402
_publ_section_title
;
Structure prediction by ZEFSAII (Michael W. Deem and Ramdas Pophale) SiO2 
 PCOD8185402
Probable space group: A B A 2
;
_chemical_formula_sum "Si O2"
_cell_formula_units_Z 48
_cell_length_a 5.122106
_cell_length_b 27.796061
_cell_length_c 14.078620
_cell_angle_alpha 90.000000
_cell_angle_beta 90.000000
_cell_angle_gamma 90.000000
_cell_volume 2004.434665
_symmetry_space_group_name_H-M "A B A 2"
_symmetry_group_IT_number 41
_symmetry_cell_setting 'orthorhombic'
loop_
_space_group_symop_operation_xyz
x,y,z
-x,-y,z
1/2-x,y,1/2+z
1/2+x,-y,1/2+z
x,1/2+y,1/2+z
-x,1/2-y,1/2+z
1/2-x,1/2+y,z
1/2+x,1/2-y,z
loop_
_atom_site_type_symbol
_atom_site_label
_atom_site_fract_x
_atom_site_fract_y
_atom_site_fract_z
Si Si1 0.642812 0.229117 0.027010
Si Si2 0.012903 0.055881 0.363908
Si Si3 0.238339 0.633039 0.730904
Si Si4 0.642698 0.770898 0.315948
Si Si5 0.487101 0.944118 0.478938
Si Si6 0.761758 0.633040 0.611966
O O1 0.371035 0.240927 0.080192
O O2 0.692295 0.171781 0.029583
O O3 0.587278 0.250029 0.921498
O O4 0.718424 0.069331 0.394973
O O5 0.112550 0.084389 0.272478
O O6 0.218421 0.069331 0.447874
O O7 0.000000 0.000000 0.337231
O O8 0.307786 0.671768 0.813308
O O9 0.500063 0.620930 0.671443
O O10 0.000066 0.656195 0.671426
O O11 0.370909 0.759073 0.262792
O O12 0.387476 0.915610 0.570370
O O13 0.500000 0.000000 0.505612
#
# Coordination Sequence:
#
# PCOD8185402 Si02
#       6
#     8   8   8   8   8   8
#     4  10  23  40  64  94 130 189 229 275 332 414
#     4  10  23  44  72  99 131 180 232 277 334 423
#     4  12  26  42  68 105 140 176 226 294 357 410
#     4  10  23  40  64  94 130 189 229 275 332 414
#     4  10  23  44  72  99 131 180 232 277 334 423
#     4  12  26  42  68 105 140 176 226 294 357 410
#
# _framework density 23.946898999999998
#
# number of rings (size 3 to 8) (size 9 to 14) (size 15 to 20)
#    0.000    1.333    0.000    4.000    9.333    4.667 
#    0.000    1.667    0.000    0.000    0.000    0.000 
#    0.000    0.000    0.000    0.000    0.000    0.000 
#
# Total GULP energy -297377.080595 kJ/mol
# GULP energy per Si atom -12390.711691 kJ/mol
# Density = 2.389240 g / cm^3
# Si number density = 23.946899 Si / 1000 Ang^3
#
#
#
# Elastic Constant Matrix: (Units=GPa)
#
#
# Indices 1 2 3 4 5 6 
#
# 1 186.8163 45.0692 25.6937 0.0000 0.0000 0.0000
# 2 45.0692 128.2131 49.7247 0.0000 0.0000 0.0000
# 3 25.6937 49.7247 67.5332 0.0000 0.0000 0.0000
# 4 0.0000 0.0000 0.0000 21.9765 0.0000 0.0000
# 5 0.0000 0.0000 0.0000 0.000029843.8535 0.0000
# 6 0.0000 0.0000 0.0000 0.0000 0.0000 35.8281
#
#
#
# Elastic Compliance Matrix: (Units=1/GPa)
#
#
# Indices 1 2 3 4 5 6 
#
# 1 0.005897 -0.001684 -0.001004 0.000000 0.000000 0.000000
# 2 -0.001684 0.011398 -0.007752 0.000000 0.000000 0.000000
# 3 -0.001004 -0.007752 0.020897 0.000000 0.000000 0.000000
# 4 0.000000 0.000000 0.000000 0.045503 0.000000 0.000000
# 5 0.000000 0.000000 0.000000 0.000000 0.000034 0.000000
# 6 0.000000 0.000000 0.000000 0.000000 0.000000 0.027911
#
#
# Mechanical properties :
#
#
# Convention : Reuss Voigt Hill
#
# Bulk Modulus (GPa) = 57.75849 69.28198 63.52023
# Shear Modulus (GPa) = 36.15626 5997.80327 3016.97977
#
# Velocity S-wave (km/s) = 3.88990 50.10053 35.53305
# Velocity P-wave (km/s) = 6.65934 58.10117 41.35271
#
# Compressibility (1/GPa) = 0.01731347
#
# Stress axis : x y z
#
# Youngs Moduli (GPa) = 169.57505 87.73796 47.85384
#
# Poissons Ratio (x) = 0.14771 0.04805
# Poissons Ratio (y) = 0.28549 0.37094
# Poissons Ratio (z) = 0.17026 0.68010
#
# Static dielectric constant tensor:
#      x y z
#    x 5.461910 0.000000 0.000000 
#    y 0.000000 4.101860 0.000000 
#    z 0.000000 0.000000 4.310580 
# 
# 
# High freq. dielectric constant tensor:
#      x y z
#    x 1.996360 0.000000 0.000000 
#    y 0.000000 1.945010 0.000000 
#    z 0.000000 0.000000 1.921740 
# 
# From -- ./inp_files/6881.got.cif
#   From: 2010.03.12/outbox.cif.g09.slc.cpg/sg41_4_cif.got.tgz:6881.got - 2010.04.14 01:55:53.
