data_PCOD8185398
_publ_section_title
;
Structure prediction by ZEFSAII (Michael W. Deem and Ramdas Pophale) SiO2 
 PCOD8185398
Probable space group: A B A 2
;
_chemical_formula_sum "Si O2"
_cell_formula_units_Z 64
_cell_length_a 22.436382
_cell_length_b 8.192368
_cell_length_c 16.202391
_cell_angle_alpha 90.000000
_cell_angle_beta 90.000000
_cell_angle_gamma 90.000000
_cell_volume 2978.114469
_symmetry_space_group_name_H-M "A B A 2"
_symmetry_group_IT_number 41
_symmetry_cell_setting 'orthorhombic'
loop_
_space_group_symop_operation_xyz
x,y,z
-x,-y,z
1/2-x,y,1/2+z
1/2+x,-y,1/2+z
x,1/2+y,1/2+z
-x,1/2-y,1/2+z
1/2-x,1/2+y,z
1/2+x,1/2-y,z
loop_
_atom_site_type_symbol
_atom_site_label
_atom_site_fract_x
_atom_site_fract_y
_atom_site_fract_z
Si Si1 0.055260 0.623670 0.233660
Si Si2 0.164818 0.278766 0.130241
Si Si3 0.250167 0.020043 0.559106
Si Si4 0.381356 0.334476 0.806642
Si Si5 0.824661 0.743579 0.466345
Si Si6 0.943266 0.320715 0.532790
Si Si7 0.929717 0.199989 0.075395
Si Si8 0.001549 0.810493 0.371033
O O1 0.103548 0.522303 0.286876
O O2 0.091418 0.710874 0.159180
O O3 0.034372 0.781493 0.284704
O O4 0.000000 0.500000 0.211909
O O5 0.212909 0.139503 0.116500
O O6 0.200169 0.447684 0.120330
O O7 0.135710 0.250002 0.219951
O O8 0.113730 0.284239 0.059586
O O9 0.217758 0.100148 0.479117
O O10 0.297777 0.894906 0.524457
O O11 0.326306 0.314846 0.870977
O O12 0.434567 0.248999 0.856367
O O13 0.891404 0.777818 0.501357
O O14 0.928655 0.504238 0.563354
O O15 0.960985 0.301624 0.436193
O O16 0.001196 0.245968 0.576901
O O17 0.000000 0.000000 0.396619
#
# Coordination Sequence:
#
# PCOD8185398 Si02
#       8
#     8   8   8   8   8   8   8   8
#     4  10  23  40  62  98 141 177 226 280 352 428
#     4  11  24  45  71  98 139 181 241 292 353 424
#     4  10  25  44  69  95 131 187 240 288 341 429
#     4  11  24  43  67  99 140 178 231 300 352 413
#     4  11  22  44  66  95 132 177 229 292 349 412
#     4  11  23  39  69 101 137 182 228 281 363 429
#     4  11  22  39  70  97 136 182 224 280 366 420
#     4  11  25  38  63 105 146 179 227 284 359 440
#
# _framework density 21.490106999999998
#
# number of rings (size 3 to 8) (size 9 to 14) (size 15 to 20)
#    0.000    1.250    2.500    3.000    8.750    2.500 
#    0.000    0.000    0.000    0.000    0.000    0.000 
#    0.000    0.000    0.000    0.000    0.000    0.000 
#
# Total GULP energy -396426.440676 kJ/mol
# GULP energy per Si atom -12388.326271 kJ/mol
# Density = 2.144119 g / cm^3
# Si number density = 21.490107 Si / 1000 Ang^3
#
#
#
# Elastic Constant Matrix: (Units=GPa)
#
#
# Indices 1 2 3 4 5 6 
#
# 1 108.4292 29.6793 42.4306 0.0000 0.0000 0.0000
# 2 29.6793 92.6910 41.6153 0.0000 0.0000 0.0000
# 3 42.4306 41.6153 139.0478 0.0000 0.0000 0.0000
# 4 0.0000 0.0000 0.0000 32.4130 0.0000 0.0000
# 5 0.0000 0.0000 0.0000 0.0000 32.1036 0.0000
# 6 0.0000 0.0000 0.0000 0.0000 0.0000 18.8830
#
#
#
# Elastic Compliance Matrix: (Units=1/GPa)
#
#
# Indices 1 2 3 4 5 6 
#
# 1 0.010883 -0.002303 -0.002632 0.000000 0.000000 0.000000
# 2 -0.002303 0.012951 -0.003173 0.000000 0.000000 0.000000
# 3 -0.002632 -0.003173 0.008945 0.000000 0.000000 0.000000
# 4 0.000000 0.000000 0.000000 0.030852 0.000000 0.000000
# 5 0.000000 0.000000 0.000000 0.000000 0.031149 0.000000
# 6 0.000000 0.000000 0.000000 0.000000 0.000000 0.052958
#
#
# Mechanical properties :
#
#
# Convention : Reuss Voigt Hill
#
# Bulk Modulus (GPa) = 60.37861 63.06872 61.72367
# Shear Modulus (GPa) = 29.50321 31.77610 30.63966
#
# Velocity S-wave (km/s) = 3.70925 3.84948 3.78002
# Velocity P-wave (km/s) = 6.81922 7.01210 6.91633
#
# Compressibility (1/GPa) = 0.01656216
#
# Stress axis : x y z
#
# Youngs Moduli (GPa) = 91.88786 77.21622 111.80051
#
# Poissons Ratio (x) = 0.17784 0.29422
# Poissons Ratio (y) = 0.21163 0.35476
# Poissons Ratio (z) = 0.24181 0.24502
#
# Static dielectric constant tensor:
#      x y z
#    x 4.110160 0.000000 0.000000 
#    y 0.000000 3.828560 0.000000 
#    z 0.000000 0.000000 3.931400 
# 
# 
# High freq. dielectric constant tensor:
#      x y z
#    x 1.845390 0.000000 0.000000 
#    y 0.000000 1.838780 0.000000 
#    z 0.000000 0.000000 1.840570 
# 
# From -- ./inp_files/9137.got.cif
#   From: 2010.03.12/outbox.cif.g09.slc.cpg/sg41_5_cif.got.tgz:9137.got - 2010.04.14 01:55:53.
