data_PCOD8185910
_publ_section_title
;
Structure prediction by ZEFSAII (Michael W. Deem and Ramdas Pophale) SiO2 
 PCOD8185910
Probable space group: F M M 2
;
_chemical_formula_sum "Si O2"
_cell_formula_units_Z 112
_cell_length_a 28.563314
_cell_length_b 9.123352
_cell_length_c 25.658250
_cell_angle_alpha 90.000000
_cell_angle_beta 90.000000
_cell_angle_gamma 90.000000
_cell_volume 6686.364650
_symmetry_space_group_name_H-M "F M M 2"
_symmetry_group_IT_number 42
_symmetry_cell_setting 'orthorhombic'
loop_
_space_group_symop_operation_xyz
x,y,z
-x,-y,z
-x,y,z
x,-y,z
x,1/2+y,1/2+z
-x,1/2-y,1/2+z
-x,1/2+y,1/2+z
x,1/2-y,1/2+z
1/2+x,y,1/2+z
1/2-x,-y,1/2+z
1/2-x,y,1/2+z
1/2+x,-y,1/2+z
1/2+x,1/2+y,z
1/2-x,1/2-y,z
1/2-x,1/2+y,z
1/2+x,1/2-y,z
loop_
_atom_site_type_symbol
_atom_site_label
_atom_site_fract_x
_atom_site_fract_y
_atom_site_fract_z
Si Si1 0.103249 0.327390 0.750000
Si Si2 0.448407 0.826534 0.458702
Si Si3 0.944768 0.330467 0.153882
Si Si4 0.704479 0.170984 0.596916
Si Si5 0.395447 0.326542 0.059508
Si Si6 0.555048 0.168945 0.342416
Si Si7 0.795372 0.670049 0.716060
O O1 0.094936 0.500000 0.742778
O O2 0.076715 0.244877 0.704293
O O3 0.083991 0.274695 0.805148
O O4 0.158417 0.289231 0.748563
O O5 0.500000 0.760339 0.470588
O O6 0.412100 0.772496 0.502516
O O7 0.431726 0.779640 0.401024
O O8 0.452408 0.000000 0.459587
O O9 0.929993 0.500000 0.153447
O O10 0.926521 0.254068 0.102009
O O11 0.000000 0.310890 0.156510
O O12 0.750000 0.250000 0.573022
O O13 0.658849 0.218192 0.564362
O O14 0.696109 0.220668 0.656500
O O15 0.713679 0.000000 0.592802
O O16 0.402078 0.500000 0.067867
O O17 0.500000 0.189118 0.332307
O O18 0.569249 0.000000 0.332493
O O19 0.784317 0.500000 0.718625
O O20 0.750000 0.750000 0.740191
#
# Coordination Sequence:
#
# PCOD8185910 Si02
#       7
#    16  16  16  16  16  16  16
#     4  11  21  34  51  73  99 128 165 205 246 293
#     4   8  15  29  51  75  97 127 167 206 241 283
#     4  11  23  34  45  69 104 136 162 194 242 296
#     4   9  17  30  47  70  98 126 160 201 241 288
#     4  10  18  32  53  75  98 128 167 205 242 288
#     4   9  18  33  51  73 100 130 169 209 242 285
#     4   9  18  32  48  70  97 124 159 201 242 290
#
# _framework density 16.750506999999999
#
# number of rings (size 3 to 8) (size 9 to 14) (size 15 to 20)
#    0.000    2.429    1.429    2.571    0.000    5.429 
#    0.000    0.714    0.000    1.714    0.000    4.000 
#    0.000    0.000    0.000    0.000    0.000    0.000 
#
# Total GULP energy -347169.556522 kJ/mol
# GULP energy per Si atom -12398.912733 kJ/mol
# Density = 1.671238 g / cm^3
# Si number density = 16.750507 Si / 1000 Ang^3
#
#
#
# Elastic Constant Matrix: (Units=GPa)
#
#
# Indices 1 2 3 4 5 6 
#
# 1 114.6916 51.2291 65.2686 0.0000 0.0000 0.0000
# 2 51.2291 57.1279 38.6472 0.0001 0.0000 0.0000
# 3 65.2686 38.6472 113.2836 0.0000 0.0000 0.0000
# 4 0.0000 0.0001 0.0000 19.5263 0.0000 0.0000
# 5 0.0000 0.0000 0.0000 0.0000 9.6969 0.0000
# 6 0.0000 0.0000 0.0000 0.0000 0.0000 29.1696
#
#
#
# Elastic Compliance Matrix: (Units=1/GPa)
#
#
# Indices 1 2 3 4 5 6 
#
# 1 0.017242 -0.011364 -0.006057 0.000000 0.000000 0.000000
# 2 -0.011364 0.030246 -0.003771 0.000000 0.000000 0.000000
# 3 -0.006057 -0.003771 0.013604 0.000000 0.000000 0.000000
# 4 0.000000 0.000000 0.000000 0.051213 0.000000 0.000000
# 5 0.000000 0.000000 0.000000 0.000000 0.103126 0.000000
# 6 0.000000 0.000000 0.000000 0.000000 0.000000 0.034282
#
#
# Mechanical properties :
#
#
# Convention : Reuss Voigt Hill
#
# Bulk Modulus (GPa) = 53.45479 66.15478 59.80478
# Shear Modulus (GPa) = 16.75974 20.34243 18.55109
#
# Velocity S-wave (km/s) = 3.16658 3.48866 3.33151
# Velocity P-wave (km/s) = 6.73433 7.47045 7.11192
#
# Compressibility (1/GPa) = 0.01870740
#
# Stress axis : x y z
#
# Youngs Moduli (GPa) = 57.99817 33.06173 73.50869
#
# Poissons Ratio (x) = 0.37571 0.44525
# Poissons Ratio (y) = 0.65909 0.27723
# Poissons Ratio (z) = 0.35130 0.12469
#
# Static dielectric constant tensor:
#      x y z
#    x 3.315280 0.000000 0.000000 
#    y 0.000000 3.079970 0.000000 
#    z 0.000000 0.000000 3.263800 
# 
# 
# High freq. dielectric constant tensor:
#      x y z
#    x 1.648420 0.000000 0.000000 
#    y 0.000000 1.634610 0.000000 
#    z 0.000000 0.000000 1.630740 
# 
# From -- ./inp_files/30511.got.cif
#   From: 2010.03.12/outbox.cif.g09.slc.cpg/sg42_16_cif.got.tgz:30511.got - 2010.04.14 02:04:31.
