data_PCOD8185781
_publ_section_title
;
Structure prediction by ZEFSAII (Michael W. Deem and Ramdas Pophale) SiO2 
 PCOD8185781
Probable space group: F M M 2
;
_chemical_formula_sum "Si O2"
_cell_formula_units_Z 80
_cell_length_a 15.112234
_cell_length_b 8.619408
_cell_length_c 29.980709
_cell_angle_alpha 90.000000
_cell_angle_beta 90.000000
_cell_angle_gamma 90.000000
_cell_volume 3905.242502
_symmetry_space_group_name_H-M "F M M 2"
_symmetry_group_IT_number 42
_symmetry_cell_setting 'orthorhombic'
loop_
_space_group_symop_operation_xyz
x,y,z
-x,-y,z
-x,y,z
x,-y,z
x,1/2+y,1/2+z
-x,1/2-y,1/2+z
-x,1/2+y,1/2+z
x,1/2-y,1/2+z
1/2+x,y,1/2+z
1/2-x,-y,1/2+z
1/2-x,y,1/2+z
1/2+x,-y,1/2+z
1/2+x,1/2+y,z
1/2-x,1/2-y,z
1/2-x,1/2+y,z
1/2+x,1/2-y,z
loop_
_atom_site_type_symbol
_atom_site_label
_atom_site_fract_x
_atom_site_fract_y
_atom_site_fract_z
Si Si1 0.653213 0.681016 0.086220
Si Si2 0.848321 0.183374 0.673748
Si Si3 0.651589 0.815849 0.765016
Si Si4 0.000000 0.315682 0.324585
Si Si5 0.846349 0.318749 0.488204
Si Si6 0.000000 0.815596 0.926665
O O1 0.656928 0.500000 0.097335
O O2 0.750000 0.750000 0.082604
O O3 0.602049 0.764728 0.127760
O O4 0.611070 0.714013 0.037554
O O5 0.750000 0.250000 0.670232
O O6 0.890971 0.257705 0.718099
O O7 0.849578 0.000000 0.678925
O O8 0.750000 0.750000 0.772289
O O9 0.588744 0.754563 0.803839
O O10 0.655447 0.000000 0.765672
O O11 0.000000 0.500000 0.319042
O O12 0.000000 0.261674 0.375799
O O13 0.834835 0.500000 0.481616
O O14 0.750000 0.250000 0.480812
O O15 0.913059 0.248519 0.451503
O O16 0.000000 0.000000 0.930889
#
# Coordination Sequence:
#
# PCOD8185781 Si02
#       6
#    16  16  16   8  16   8
#     4   9  15  25  45  74 108 144 183 223 267 322
#     4  10  17  28  49  78 112 148 186 226 274 329
#     4  11  22  39  61  86 116 151 192 235 285 342
#     4  11  23  41  62  85 114 147 188 241 296 345
#     4   9  18  34  56  81 110 146 185 225 272 328
#     4   9  20  39  60  81 108 143 182 229 284 337
#
# _framework density 20.485282999999999
#
# number of rings (size 3 to 8) (size 9 to 14) (size 15 to 20)
#    0.000    2.200    0.000    6.900    0.000    1.600 
#    0.000    5.500    0.000    2.400    0.000    0.000 
#    0.000    0.000    0.000    0.000    0.000    0.000 
#
# Total GULP energy -247832.954811 kJ/mol
# GULP energy per Si atom -12391.647741 kJ/mol
# Density = 2.043866 g / cm^3
# Si number density = 20.485283 Si / 1000 Ang^3
#
#
#
# Elastic Constant Matrix: (Units=GPa)
#
#
# Indices 1 2 3 4 5 6 
#
# 1 94.1817 35.6682 77.0366 0.0000 0.0000 0.0000
# 2 35.6682 132.9755 72.3316 0.0000 0.0000 0.0000
# 3 77.0366 72.3316 206.7652 0.0000 0.0000 0.0000
# 4 0.0000 0.0000 0.0000 22.8514 0.0000 0.0000
# 5 0.0000 0.0000 0.0000 0.0000 -156.1338 0.0000
# 6 0.0000 0.0000 0.0000 0.0000 0.0000 20.8019
#
#
#
# Elastic Compliance Matrix: (Units=1/GPa)
#
#
# Indices 1 2 3 4 5 6 
#
# 1 0.015438 -0.001250 -0.005315 0.000000 0.000000 0.000000
# 2 -0.001250 0.009389 -0.002819 0.000000 0.000000 0.000000
# 3 -0.005315 -0.002819 0.007803 0.000000 0.000000 0.000000
# 4 0.000000 0.000000 0.000000 0.043761 0.000000 0.000000
# 5 0.000000 0.000000 0.000000 0.000000 -0.006405 0.000000
# 6 0.000000 0.000000 0.000000 0.000000 0.000000 0.048072
#
#
# Mechanical properties :
#
#
# Convention : Reuss Voigt Hill
#
# Bulk Modulus (GPa) = 72.13578 89.33280 80.73429
# Shear Modulus (GPa) = 35.34911 -5.90369 14.72271
#
# Velocity S-wave (km/s) = 4.15852 -1.69946 2.68376
# Velocity P-wave (km/s) = 7.63856 6.31285 7.00713
#
# Compressibility (1/GPa) = 0.01386275
#
# Stress axis : x y z
#
# Youngs Moduli (GPa) = 64.77337 106.51109 128.16254
#
# Poissons Ratio (x) = 0.13315 0.68115
# Poissons Ratio (y) = 0.08098 0.36124
# Poissons Ratio (z) = 0.34425 0.30021
#
# Static dielectric constant tensor:
#      x y z
#    x 3.496150 0.000000 0.000000 
#    y 0.000000 3.658090 0.000000 
#    z 0.000000 0.000000 4.765570 
# 
# 
# High freq. dielectric constant tensor:
#      x y z
#    x 1.771730 0.000000 0.000000 
#    y 0.000000 1.799060 0.000000 
#    z 0.000000 0.000000 1.819420 
# 
# From -- ./inp_files/32773.got.cif
#   From: 2010.03.12/outbox.cif.g09.slc.cpg/sg42_17_cif.got.tgz:32773.got - 2010.04.14 02:04:31.
