data_PCOD8185024
_publ_section_title
;
Structure prediction by ZEFSAII (Michael W. Deem and Ramdas Pophale) SiO2 
 PCOD8185024
Probable space group: A B A 2
;
_chemical_formula_sum "Si O2"
_cell_formula_units_Z 56
_cell_length_a 13.507363
_cell_length_b 8.310204
_cell_length_c 22.312991
_cell_angle_alpha 90.000000
_cell_angle_beta 90.000000
_cell_angle_gamma 90.000000
_cell_volume 2504.609633
_symmetry_space_group_name_H-M "A B A 2"
_symmetry_group_IT_number 41
_symmetry_cell_setting 'orthorhombic'
loop_
_space_group_symop_operation_xyz
x,y,z
-x,-y,z
1/2-x,y,1/2+z
1/2+x,-y,1/2+z
x,1/2+y,1/2+z
-x,1/2-y,1/2+z
1/2-x,1/2+y,z
1/2+x,1/2-y,z
loop_
_atom_site_type_symbol
_atom_site_label
_atom_site_fract_x
_atom_site_fract_y
_atom_site_fract_z
Si Si1 0.337862 0.717070 0.465940
Si Si2 0.298548 0.005426 0.540923
Si Si3 0.833884 0.769233 0.331114
Si Si4 0.500000 0.500000 0.297968
Si Si5 0.000000 0.000000 0.510550
Si Si6 0.843402 0.731500 0.749793
Si Si7 0.377809 0.303782 0.595827
Si Si8 0.347230 0.922866 0.219431
O O1 0.238905 0.630879 0.489994
O O2 0.323293 0.789549 0.399357
O O3 0.420334 0.578464 0.466508
O O4 0.364304 0.869384 0.508189
O O5 0.361059 0.113036 0.587201
O O6 0.212841 0.920811 0.578789
O O7 0.721247 0.801814 0.307050
O O8 0.883939 0.640622 0.285070
O O9 0.906379 0.925304 0.334116
O O10 0.552638 0.643024 0.261161
O O11 0.032926 0.854267 0.553115
O O12 0.870737 0.888957 0.711283
O O13 0.771523 0.610814 0.713073
O O14 0.403177 0.329814 0.665861
#
# Coordination Sequence:
#
# PCOD8185024 Si02
#       8
#     8   8   8   4   4   8   8   8
#     4  10  21  40  63  92 130 168 228 286 341 421
#     4   9  21  37  64  87 116 181 221 261 352 399
#     4  10  23  41  64 101 137 179 228 297 357 421
#     4  12  23  42  66  96 146 186 239 284 356 448
#     4  10  23  40  60  94 124 174 227 288 330 406
#     4  10  22  41  64 101 137 183 236 282 365 422
#     4  10  20  41  63  89 128 168 223 281 339 410
#     4  10  21  41  64  94 137 177 220 295 355 418
#
# _framework density 22.358774
#
# number of rings (size 3 to 8) (size 9 to 14) (size 15 to 20)
#    0.857    1.143    1.429    1.286    4.000    2.286 
#    2.571    2.857    0.000    0.000    0.000    0.000 
#    0.000    0.000    0.000    0.000    0.000    0.000 
#
# Total GULP energy -346873.584189 kJ/mol
# GULP energy per Si atom -12388.342292 kJ/mol
# Density = 2.230788 g / cm^3
# Si number density = 22.358774 Si / 1000 Ang^3
#
#
#
# Elastic Constant Matrix: (Units=GPa)
#
#
# Indices 1 2 3 4 5 6 
#
# 1 59.6017 21.8760 10.1128 0.0000 0.0000 0.0000
# 2 21.8760 133.6995 33.7611 0.0000 0.0000 0.0000
# 3 10.1128 33.7611 113.3953 0.0000 0.0000 0.0000
# 4 0.0000 0.0000 0.0000 31.1283 0.0000 0.0000
# 5 0.0000 0.0000 0.0000 0.0000 5.1759 0.0000
# 6 0.0000 0.0000 0.0000 0.0000 0.0000 41.6101
#
#
#
# Elastic Compliance Matrix: (Units=1/GPa)
#
#
# Indices 1 2 3 4 5 6 
#
# 1 0.017914 -0.002733 -0.000784 0.000000 0.000000 0.000000
# 2 -0.002733 0.008504 -0.002288 0.000000 0.000000 0.000000
# 3 -0.000784 -0.002288 0.009570 0.000000 0.000000 0.000000
# 4 0.000000 0.000000 0.000000 0.032125 0.000000 0.000000
# 5 0.000000 0.000000 0.000000 0.000000 0.193204 0.000000
# 6 0.000000 0.000000 0.000000 0.000000 0.000000 0.024033
#
#
# Mechanical properties :
#
#
# Convention : Reuss Voigt Hill
#
# Bulk Modulus (GPa) = 41.02071 48.68847 44.85459
# Shear Modulus (GPa) = 16.38875 31.64597 24.01736
#
# Velocity S-wave (km/s) = 2.71032 3.76622 3.28102
# Velocity P-wave (km/s) = 5.30856 6.38247 5.87012
#
# Compressibility (1/GPa) = 0.02437793
#
# Stress axis : x y z
#
# Youngs Moduli (GPa) = 55.82153 117.58496 104.49431
#
# Poissons Ratio (x) = 0.32138 0.08191
# Poissons Ratio (y) = 0.15257 0.23911
# Poissons Ratio (z) = 0.04376 0.26907
#
# Static dielectric constant tensor:
#      x y z
#    x 3.782630 0.000000 0.000000 
#    y 0.000000 4.001200 0.000000 
#    z 0.000000 0.000000 3.760220 
# 
# 
# High freq. dielectric constant tensor:
#      x y z
#    x 1.854600 0.000000 0.000000 
#    y 0.000000 1.885850 0.000000 
#    z 0.000000 0.000000 1.864350 
# 
# From -- ./inp_files/11574.got.cif
#   From: 2010.03.12/outbox.cif.g09.slc.cpg/sg41_6_cif.got.tgz:11574.got - 2010.04.14 01:55:53.
