data_PCOD8185470
_publ_section_title
;
Structure prediction by ZEFSAII (Michael W. Deem and Ramdas Pophale) SiO2 
 PCOD8185470
Probable space group: A B A 2
;
_chemical_formula_sum "Si O2"
_cell_formula_units_Z 52
_cell_length_a 24.835677
_cell_length_b 11.936310
_cell_length_c 8.257234
_cell_angle_alpha 90.000000
_cell_angle_beta 90.000000
_cell_angle_gamma 90.000000
_cell_volume 2447.826796
_symmetry_space_group_name_H-M "A B A 2"
_symmetry_group_IT_number 41
_symmetry_cell_setting 'orthorhombic'
loop_
_space_group_symop_operation_xyz
x,y,z
-x,-y,z
1/2-x,y,1/2+z
1/2+x,-y,1/2+z
x,1/2+y,1/2+z
-x,1/2-y,1/2+z
1/2-x,1/2+y,z
1/2+x,1/2-y,z
loop_
_atom_site_type_symbol
_atom_site_label
_atom_site_fract_x
_atom_site_fract_y
_atom_site_fract_z
Si Si1 0.727115 0.434441 0.037550
Si Si2 0.814144 0.308525 0.837853
Si Si3 0.979379 0.789955 0.083125
Si Si4 0.805410 0.063636 0.740464
Si Si5 0.063974 0.152872 0.423593
Si Si6 0.500000 0.500000 0.872374
Si Si7 0.921249 0.071074 0.600680
O O1 0.689223 0.370275 0.164499
O O2 0.753962 0.539722 0.128080
O O3 0.776268 0.358326 0.976048
O O4 0.690666 0.473393 0.886690
O O5 0.794828 0.182692 0.818602
O O6 0.875283 0.309091 0.896789
O O7 0.972957 0.901285 0.976502
O O8 0.038092 0.730746 0.064537
O O9 0.972950 0.828470 0.267325
O O10 0.934419 0.695904 0.034426
O O11 0.858161 0.058703 0.630470
O O12 0.060463 0.022423 0.472073
O O13 0.547107 0.556066 0.768392
#
# Coordination Sequence:
#
# PCOD8185470 Si02
#       7
#     8   8   8   8   8   4   8
#     4  10  24  41  68  97 135 179 225 279 334 405
#     4  11  22  44  65 100 137 175 225 281 332 408
#     4  12  25  45  67  99 131 184 222 286 336 416
#     4  11  22  42  66  96 131 175 221 275 338 395
#     4  12  24  45  68  97 140 180 230 277 352 408
#     4  12  26  42  68  96 132 174 226 272 340 406
#     4  12  24  44  66  95 139 174 223 284 333 412
#
# _framework density 21.243331999999999
#
# number of rings (size 3 to 8) (size 9 to 14) (size 15 to 20)
#    0.000    0.615    6.154    0.923    4.308    0.000 
#    0.000    0.000    0.000    0.000    0.000    0.000 
#    0.000    0.000    0.000    0.000    0.000    0.000 
#
# Total GULP energy -322479.249625 kJ/mol
# GULP energy per Si atom -12403.048063 kJ/mol
# Density = 2.119498 g / cm^3
# Si number density = 21.243332 Si / 1000 Ang^3
#
#
#
# Elastic Constant Matrix: (Units=GPa)
#
#
# Indices 1 2 3 4 5 6 
#
# 1 107.0344 32.1070 37.7513 0.0000 0.0000 0.0000
# 2 32.1070 124.1910 42.7056 0.0000 0.0000 0.0000
# 3 37.7513 42.7056 82.6509 0.0000 0.0000 0.0000
# 4 0.0000 0.0000 0.0000 35.2336 0.0000 0.0000
# 5 0.0000 0.0000 0.0000 0.0000 22.4376 0.0000
# 6 0.0000 0.0000 0.0000 0.0000 0.0000 16.7532
#
#
#
# Elastic Compliance Matrix: (Units=1/GPa)
#
#
# Indices 1 2 3 4 5 6 
#
# 1 0.011333 -0.001398 -0.004454 0.000000 0.000000 0.000000
# 2 -0.001398 0.009964 -0.004510 0.000000 0.000000 0.000000
# 3 -0.004454 -0.004510 0.016464 0.000000 0.000000 0.000000
# 4 0.000000 0.000000 0.000000 0.028382 0.000000 0.000000
# 5 0.000000 0.000000 0.000000 0.000000 0.044568 0.000000
# 6 0.000000 0.000000 0.000000 0.000000 0.000000 0.059690
#
#
# Mechanical properties :
#
#
# Convention : Reuss Voigt Hill
#
# Bulk Modulus (GPa) = 58.69620 59.88934 59.29277
# Shear Modulus (GPa) = 25.40584 28.30569 26.85577
#
# Velocity S-wave (km/s) = 3.46199 3.65423 3.55941
# Velocity P-wave (km/s) = 6.60840 6.78659 6.69809
#
# Compressibility (1/GPa) = 0.01703688
#
# Stress axis : x y z
#
# Youngs Moduli (GPa) = 88.23645 100.35671 60.73961
#
# Poissons Ratio (x) = 0.14034 0.27053
# Poissons Ratio (y) = 0.12339 0.27393
# Poissons Ratio (z) = 0.39300 0.45260
#
# Static dielectric constant tensor:
#      x y z
#    x 3.728800 0.000000 0.000000 
#    y 0.000000 4.097100 0.000000 
#    z 0.000000 0.000000 3.939260 
# 
# 
# High freq. dielectric constant tensor:
#      x y z
#    x 1.826810 0.000000 0.000000 
#    y 0.000000 1.849680 0.000000 
#    z 0.000000 0.000000 1.835420 
# 
# From -- ./inp_files/3783.got.cif
#   From: 2010.03.12/outbox.cif.g09.slc.cpg/sg41_2_cif.got.tgz:3783.got - 2010.04.14 01:55:53.
