data_PCOD8185899
_publ_section_title
;
Structure prediction by ZEFSAII (Michael W. Deem and Ramdas Pophale) SiO2 
 PCOD8185899
Probable space group: F M M 2
;
_chemical_formula_sum "Si O2"
_cell_formula_units_Z 52
_cell_length_a 7.848231
_cell_length_b 15.401393
_cell_length_c 21.925490
_cell_angle_alpha 90.000000
_cell_angle_beta 90.000000
_cell_angle_gamma 90.000000
_cell_volume 2650.214881
_symmetry_space_group_name_H-M "F M M 2"
_symmetry_group_IT_number 42
_symmetry_cell_setting 'orthorhombic'
loop_
_space_group_symop_operation_xyz
x,y,z
-x,-y,z
-x,y,z
x,-y,z
x,1/2+y,1/2+z
-x,1/2-y,1/2+z
-x,1/2+y,1/2+z
x,1/2-y,1/2+z
1/2+x,y,1/2+z
1/2-x,-y,1/2+z
1/2-x,y,1/2+z
1/2+x,-y,1/2+z
1/2+x,1/2+y,z
1/2-x,1/2-y,z
1/2-x,1/2+y,z
1/2+x,1/2-y,z
loop_
_atom_site_type_symbol
_atom_site_label
_atom_site_fract_x
_atom_site_fract_y
_atom_site_fract_z
Si Si1 0.000000 0.903490 0.161150
Si Si2 0.500000 0.000000 0.777637
Si Si3 0.800027 0.500000 0.372253
Si Si4 0.197641 0.657117 0.459884
Si Si5 0.813661 0.397462 0.088491
O O1 0.000000 0.912803 0.234902
O O2 0.171915 0.858197 0.135142
O O3 0.000000 0.000000 0.132134
O O4 0.676154 0.000000 0.814310
O O5 0.752028 0.415346 0.410933
O O6 0.000000 0.500000 0.352260
O O7 0.250000 0.750000 0.431498
O O8 0.299270 0.645339 0.522324
O O9 0.000000 0.650220 0.475502
O O10 0.795771 0.500000 0.080523
O O11 0.000000 0.373260 0.115123
#
# Coordination Sequence:
#
# PCOD8185899 Si02
#       5
#     8   4   8  16  16
#     4   8  18  34  53  85 110 149 195 243 281 346
#     4  10  22  36  62  82 112 164 208 242 288 346
#     4  10  24  39  57  87 121 156 204 245 288 354
#     4  11  22  36  58  92 127 153 190 243 304 361
#     4  10  18  31  57  88 116 149 184 237 295 349
#
# _framework density 19.621051000000001
#
# number of rings (size 3 to 8) (size 9 to 14) (size 15 to 20)
#    0.462    1.538    3.077    0.923    4.308    1.231 
#    0.000    0.000    0.000    1.846    0.000    0.000 
#    0.000    0.000    0.000    0.000    0.000    0.000 
#
# Total GULP energy -161122.169744 kJ/mol
# GULP energy per Si atom -12394.013057 kJ/mol
# Density = 1.957639 g / cm^3
# Si number density = 19.621051 Si / 1000 Ang^3
#
#
#
# Elastic Constant Matrix: (Units=GPa)
#
#
# Indices 1 2 3 4 5 6 
#
# 1 141.4857 39.7400 74.4731 0.0000 0.0000 0.0000
# 2 39.7400 79.5819 36.3044 0.0000 0.0000 0.0000
# 3 74.4731 36.3044 127.9560 0.0000 0.0000 0.0000
# 4 0.0000 0.0000 0.0000 0.4669 0.0000 0.0000
# 5 0.0000 0.0000 0.0000 0.0000 33.3408 0.0000
# 6 0.0000 0.0000 0.0000 0.0000 0.0000 20.9660
#
#
#
# Elastic Compliance Matrix: (Units=1/GPa)
#
#
# Indices 1 2 3 4 5 6 
#
# 1 0.010736 -0.002884 -0.005431 0.000000 0.000000 0.000000
# 2 -0.002884 0.015209 -0.002637 0.000000 0.000000 0.000000
# 3 -0.005431 -0.002637 0.011724 0.000000 0.000000 0.000000
# 4 0.000000 0.000000 0.000000 2.141683 0.000000 0.000000
# 5 0.000000 0.000000 0.000000 0.000000 0.029993 0.000000
# 6 0.000000 0.000000 0.000000 0.000000 0.000000 0.047696
#
#
# Mechanical properties :
#
#
# Convention : Reuss Voigt Hill
#
# Bulk Modulus (GPa) = 63.42445 72.22872 67.82658
# Shear Modulus (GPa) = 2.18895 24.18848 13.18872
#
# Velocity S-wave (km/s) = 1.05737 3.51491 2.59544
# Velocity P-wave (km/s) = 5.82113 7.30510 6.60493
#
# Compressibility (1/GPa) = 0.01576679
#
# Stress axis : x y z
#
# Youngs Moduli (GPa) = 93.14188 65.75249 85.29576
#
# Poissons Ratio (x) = 0.18963 0.46320
# Poissons Ratio (y) = 0.26862 0.22489
# Poissons Ratio (z) = 0.50581 0.17336
#
# Static dielectric constant tensor:
#      x y z
#    x 3.878270 0.000000 0.000000 
#    y 0.000000 3.440270 0.000000 
#    z 0.000000 0.000000 3.222300 
# 
# 
# High freq. dielectric constant tensor:
#      x y z
#    x 1.789240 0.000000 0.000000 
#    y 0.000000 1.741630 0.000000 
#    z 0.000000 0.000000 1.729200 
# 
# From -- ./inp_files/17707.got.cif
#   From: 2010.03.12/outbox.cif.g09.slc.cpg/sg42_9_cif.got.tgz:17707.got - 2010.04.14 02:04:31.
