data_PCOD8185859
_publ_section_title
;
Structure prediction by ZEFSAII (Michael W. Deem and Ramdas Pophale) SiO2 
 PCOD8185859
Probable space group: F M M 2
;
_chemical_formula_sum "Si O2"
_cell_formula_units_Z 128
_cell_length_a 19.048927
_cell_length_b 17.821892
_cell_length_c 22.785408
_cell_angle_alpha 90.000000
_cell_angle_beta 90.000000
_cell_angle_gamma 90.000000
_cell_volume 7735.370762
_symmetry_space_group_name_H-M "F M M 2"
_symmetry_group_IT_number 42
_symmetry_cell_setting 'orthorhombic'
loop_
_space_group_symop_operation_xyz
x,y,z
-x,-y,z
-x,y,z
x,-y,z
x,1/2+y,1/2+z
-x,1/2-y,1/2+z
-x,1/2+y,1/2+z
x,1/2-y,1/2+z
1/2+x,y,1/2+z
1/2-x,-y,1/2+z
1/2-x,y,1/2+z
1/2+x,-y,1/2+z
1/2+x,1/2+y,z
1/2-x,1/2-y,z
1/2-x,1/2+y,z
1/2+x,1/2-y,z
loop_
_atom_site_type_symbol
_atom_site_label
_atom_site_fract_x
_atom_site_fract_y
_atom_site_fract_z
Si Si1 0.784899 0.913447 0.194410
Si Si2 0.182339 0.086102 0.499585
Si Si3 0.175684 0.210090 0.279794
Si Si4 0.172016 0.780940 0.409563
Si Si5 0.178517 0.701069 0.175987
Si Si6 0.077441 0.304476 0.492559
Si Si7 0.826069 0.586657 0.563333
Si Si8 0.922520 0.835695 0.574239
O O1 0.821336 0.871825 0.249335
O O2 0.704861 0.883788 0.187434
O O3 0.826016 0.898282 0.133253
O O4 0.781957 0.000000 0.210450
O O5 0.170607 0.140388 0.444247
O O6 0.252044 0.110933 0.534748
O O7 0.118009 0.094007 0.545446
O O8 0.186162 0.000000 0.477829
O O9 0.250000 0.250000 0.288930
O O10 0.141249 0.203046 0.344022
O O11 0.137329 0.265203 0.232907
O O12 0.250000 0.750000 0.408615
O O13 0.124322 0.714331 0.435817
O O14 0.250000 0.750000 0.162189
O O15 0.122491 0.702948 0.124914
O O16 0.112056 0.366879 0.533706
O O17 0.069106 0.226973 0.525701
O O18 0.000000 0.333395 0.473582
O O19 0.840770 0.500000 0.550174
O O20 0.000000 0.861500 0.596171
#
# Coordination Sequence:
#
# PCOD8185859 Si02
#       8
#    16  16  16  16  16  16  16  16
#     4   9  16  27  47  74  98 124 162 203 244 294
#     4  10  20  31  48  73 100 133 170 202 243 299
#     4   8  17  29  46  71  94 125 166 207 250 283
#     4  10  18  33  52  69  97 133 168 208 247 287
#     4   9  16  29  48  67  96 131 162 204 255 287
#     4  10  20  32  48  73  98 128 166 205 250 297
#     4  10  18  30  50  75 100 131 166 200 251 306
#     4  10  20  30  47  74 100 131 168 203 247 297
#
# _framework density 16.547364000000002
#
# number of rings (size 3 to 8) (size 9 to 14) (size 15 to 20)
#    0.000    2.750    2.500    1.500    0.000    1.000 
#    0.000    0.625    0.000    0.750    0.000    0.000 
#    0.000    2.000    0.000    0.000    0.000    0.000 
#
# Total GULP energy -396455.809315 kJ/mol
# GULP energy per Si atom -12389.244041 kJ/mol
# Density = 1.650970 g / cm^3
# Si number density = 16.547364 Si / 1000 Ang^3
#
#
#
# Elastic Constant Matrix: (Units=GPa)
#
#
# Indices 1 2 3 4 5 6 
#
# 1 87.8372 25.9451 36.0155 0.0000 0.0000 0.0000
# 2 25.9451 85.8920 42.6145 0.0000 0.0000 0.0000
# 3 36.0155 42.6145 114.2953 0.0000 0.0000 0.0000
# 4 0.0000 0.0000 0.0000 23.0732 0.0000 0.0000
# 5 0.0000 0.0000 0.0000 0.0000 6.5634 0.0000
# 6 0.0000 0.0000 0.0000 0.0000 0.0000 13.6948
#
#
#
# Elastic Compliance Matrix: (Units=1/GPa)
#
#
# Indices 1 2 3 4 5 6 
#
# 1 0.013468 -0.002408 -0.003346 0.000000 0.000000 0.000000
# 2 -0.002408 0.014716 -0.004728 0.000000 0.000000 0.000000
# 3 -0.003346 -0.004728 0.011566 0.000000 0.000000 0.000000
# 4 0.000000 0.000000 0.000000 0.043340 0.000000 0.000000
# 5 0.000000 0.000000 0.000000 0.000000 0.152360 0.000000
# 6 0.000000 0.000000 0.000000 0.000000 0.000000 0.073020
#
#
# Mechanical properties :
#
#
# Convention : Reuss Voigt Hill
#
# Bulk Modulus (GPa) = 53.23115 55.24165 54.23640
# Shear Modulus (GPa) = 14.89439 20.89623 17.89531
#
# Velocity S-wave (km/s) = 3.00343 3.55746 3.29212
# Velocity P-wave (km/s) = 6.65329 7.09440 6.87738
#
# Compressibility (1/GPa) = 0.01878599
#
# Stress axis : x y z
#
# Youngs Moduli (GPa) = 74.25036 67.95501 86.45746
#
# Poissons Ratio (x) = 0.16364 0.28929
# Poissons Ratio (y) = 0.17880 0.40876
# Poissons Ratio (z) = 0.24844 0.32128
#
# Static dielectric constant tensor:
#      x y z
#    x 3.111410 0.000000 0.000000 
#    y 0.000000 3.080450 0.000000 
#    z 0.000000 0.000000 3.405410 
# 
# 
# High freq. dielectric constant tensor:
#      x y z
#    x 1.606080 0.000000 0.000000 
#    y 0.000000 1.635860 0.000000 
#    z 0.000000 0.000000 1.635130 
# 
# From -- ./inp_files/29997.got.cif
#   From: 2010.03.12/outbox.cif.g09.slc.cpg/sg42_15_cif.got.tgz:29997.got - 2010.04.14 02:04:31.
