data_PCOD8185857
_publ_section_title
;
Structure prediction by ZEFSAII (Michael W. Deem and Ramdas Pophale) SiO2 
 PCOD8185857
Probable space group: F M M 2
;
_chemical_formula_sum "Si O2"
_cell_formula_units_Z 96
_cell_length_a 13.270780
_cell_length_b 19.048535
_cell_length_c 23.045134
_cell_angle_alpha 90.000000
_cell_angle_beta 90.000000
_cell_angle_gamma 90.000000
_cell_volume 5825.554473
_symmetry_space_group_name_H-M "F M M 2"
_symmetry_group_IT_number 42
_symmetry_cell_setting 'orthorhombic'
loop_
_space_group_symop_operation_xyz
x,y,z
-x,-y,z
-x,y,z
x,-y,z
x,1/2+y,1/2+z
-x,1/2-y,1/2+z
-x,1/2+y,1/2+z
x,1/2-y,1/2+z
1/2+x,y,1/2+z
1/2-x,-y,1/2+z
1/2-x,y,1/2+z
1/2+x,-y,1/2+z
1/2+x,1/2+y,z
1/2-x,1/2-y,z
1/2-x,1/2+y,z
1/2+x,1/2-y,z
loop_
_atom_site_type_symbol
_atom_site_label
_atom_site_fract_x
_atom_site_fract_y
_atom_site_fract_z
Si Si1 0.781745 0.824758 0.677920
Si Si2 0.618736 0.079363 0.953212
Si Si3 0.383944 0.079753 0.734424
Si Si4 0.619092 0.421243 0.583304
Si Si5 0.384067 0.796801 0.298282
Si Si6 0.690565 0.352463 0.341656
O O1 0.750000 0.750000 0.651387
O O2 0.683417 0.867862 0.696823
O O3 0.837291 0.866418 0.628018
O O4 0.857091 0.809597 0.731141
O O5 0.500000 0.086088 0.947406
O O6 0.668643 0.134061 0.908923
O O7 0.653058 0.000000 0.938779
O O8 0.653915 0.099271 0.018197
O O9 0.500000 0.101492 0.725784
O O10 0.353087 0.084593 0.802346
O O11 0.365761 0.000000 0.714056
O O12 0.500000 0.418905 0.587060
O O13 0.656716 0.500000 0.598321
O O14 0.500000 0.816866 0.309603
O O15 0.363295 0.716998 0.316682
O O16 0.311908 0.846904 0.336466
#
# Coordination Sequence:
#
# PCOD8185857 Si02
#       6
#    16  16  16  16  16  16
#     4  11  20  33  49  75 102 139 166 205 253 302
#     4   9  17  31  53  76  96 124 167 217 258 291
#     4  10  19  30  48  74 101 129 166 211 255 300
#     4   9  19  35  54  75  99 132 173 216 256 295
#     4  10  19  32  48  71 104 135 165 199 250 307
#     4  10  18  30  49  75  98 130 163 205 257 297
#
# _framework density 16.479118
#
# number of rings (size 3 to 8) (size 9 to 14) (size 15 to 20)
#    0.000    2.167    3.333    4.000    0.000    2.000 
#    3.000    0.000    0.000   11.000    0.000    2.333 
#    0.000    0.000    0.000    0.000    0.000    0.000 
#
# Total GULP energy -297518.785195 kJ/mol
# GULP energy per Si atom -12396.616050 kJ/mol
# Density = 1.644161 g / cm^3
# Si number density = 16.479118 Si / 1000 Ang^3
#
#
#
# Elastic Constant Matrix: (Units=GPa)
#
#
# Indices 1 2 3 4 5 6 
#
# 1 94.6884 46.2275 39.7081 0.0000 0.0000 0.0000
# 2 46.2275 97.5986 65.9623 0.0000 0.0000 0.0000
# 3 39.7081 65.9623 125.5138 0.0000 0.0000 0.0000
# 4 0.0000 0.0000 0.0000 32.1996 0.0000 0.0000
# 5 0.0000 0.0000 0.0000 0.0000 22.1378 0.0000
# 6 0.0000 0.0000 0.0000 0.0000 0.0000 22.3718
#
#
#
# Elastic Compliance Matrix: (Units=1/GPa)
#
#
# Indices 1 2 3 4 5 6 
#
# 1 0.013907 -0.005604 -0.001455 0.000000 0.000000 0.000000
# 2 -0.005604 0.018148 -0.007765 0.000000 0.000000 0.000000
# 3 -0.001455 -0.007765 0.012508 0.000000 0.000000 0.000000
# 4 0.000000 0.000000 0.000000 0.031056 0.000000 0.000000
# 5 0.000000 0.000000 0.000000 0.000000 0.045172 0.000000
# 6 0.000000 0.000000 0.000000 0.000000 0.000000 0.044699
#
#
# Mechanical properties :
#
#
# Convention : Reuss Voigt Hill
#
# Bulk Modulus (GPa) = 67.03871 69.06626 68.05249
# Shear Modulus (GPa) = 24.98647 26.40203 25.69425
#
# Velocity S-wave (km/s) = 3.89813 4.00703 3.95296
# Velocity P-wave (km/s) = 7.81216 7.96309 7.88799
#
# Compressibility (1/GPa) = 0.01491676
#
# Stress axis : x y z
#
# Youngs Moduli (GPa) = 71.90738 55.10238 79.94869
#
# Poissons Ratio (x) = 0.30879 0.11629
# Poissons Ratio (y) = 0.40296 0.62077
# Poissons Ratio (z) = 0.10459 0.42785
#
# Static dielectric constant tensor:
#      x y z
#    x 3.063390 0.000000 0.000000 
#    y 0.000000 3.231010 0.000000 
#    z 0.000000 0.000000 3.150640 
# 
# 
# High freq. dielectric constant tensor:
#      x y z
#    x 1.626370 0.000000 0.000000 
#    y 0.000000 1.635030 0.000000 
#    z 0.000000 0.000000 1.623960 
# 
# From -- ./inp_files/28829.got.cif
#   From: 2010.03.12/outbox.cif.g09.slc.cpg/sg42_15_cif.got.tgz:28829.got - 2010.04.14 02:04:31.
