data_PCOD8185981
_publ_section_title
;
Structure prediction by ZEFSAII (Michael W. Deem and Ramdas Pophale) SiO2 
 PCOD8185981
Probable space group: F M M 2
;
_chemical_formula_sum "Si O2"
_cell_formula_units_Z 104
_cell_length_a 23.379243
_cell_length_b 14.550055
_cell_length_c 17.645207
_cell_angle_alpha 90.000000
_cell_angle_beta 90.000000
_cell_angle_gamma 90.000000
_cell_volume 6002.357211
_symmetry_space_group_name_H-M "F M M 2"
_symmetry_group_IT_number 42
_symmetry_cell_setting 'orthorhombic'
loop_
_space_group_symop_operation_xyz
x,y,z
-x,-y,z
-x,y,z
x,-y,z
x,1/2+y,1/2+z
-x,1/2-y,1/2+z
-x,1/2+y,1/2+z
x,1/2-y,1/2+z
1/2+x,y,1/2+z
1/2-x,-y,1/2+z
1/2-x,y,1/2+z
1/2+x,-y,1/2+z
1/2+x,1/2+y,z
1/2-x,1/2-y,z
1/2-x,1/2+y,z
1/2+x,1/2-y,z
loop_
_atom_site_type_symbol
_atom_site_label
_atom_site_fract_x
_atom_site_fract_y
_atom_site_fract_z
Si Si1 0.066872 0.392406 0.859170
Si Si2 0.864450 0.108090 0.502695
Si Si3 0.750000 0.250000 0.855346
Si Si4 0.275247 0.849686 0.625681
Si Si5 0.262538 0.102811 0.464865
Si Si6 0.653769 0.103371 0.169543
Si Si7 0.648732 0.711982 0.251255
O O1 0.081837 0.500000 0.848256
O O2 0.094132 0.334328 0.790426
O O3 0.000000 0.374036 0.856442
O O4 0.089212 0.356159 0.941364
O O5 0.802186 0.139530 0.475723
O O6 0.874528 0.139504 0.589859
O O7 0.865659 0.000000 0.505189
O O8 0.713788 0.325834 0.903225
O O9 0.703467 0.199230 0.804625
O O10 0.250000 0.750000 0.610853
O O11 0.295010 0.892824 0.545450
O O12 0.222810 0.906869 0.662216
O O13 0.332588 0.845314 0.676481
O O14 0.266454 0.000000 0.432041
O O15 0.636511 0.180073 0.232109
O O16 0.631527 0.000000 0.191468
#
# Coordination Sequence:
#
# PCOD8185981 Si02
#       7
#    16  16   8  16  16  16  16
#     4  10  21  37  56  77 102 135 179 227 267 302
#     4   8  15  30  52  72  94 129 171 219 259 295
#     4  12  20  30  46  74 108 136 168 206 264 318
#     4   9  16  30  46  72 103 138 169 204 255 312
#     4  10  19  30  47  70 102 139 170 207 252 309
#     4   9  17  30  49  75 105 136 170 205 256 322
#     4  11  21  32  50  77 110 142 166 213 266 317
#
# _framework density 17.326525
#
# number of rings (size 3 to 8) (size 9 to 14) (size 15 to 20)
#    0.000    2.308    4.615    1.385    0.000    1.846 
#    0.000    0.769    0.000    1.385    0.000    0.000 
#    0.000    0.000    0.000    0.000    0.000    0.000 
#
# Total GULP energy -322151.816627 kJ/mol
# GULP energy per Si atom -12390.454486 kJ/mol
# Density = 1.728709 g / cm^3
# Si number density = 17.326525 Si / 1000 Ang^3
#
#
#
# Elastic Constant Matrix: (Units=GPa)
#
#
# Indices 1 2 3 4 5 6 
#
# 1 58.5241 19.8583 37.4152 0.0000 0.0000 0.0000
# 2 19.8583 78.9827 44.0223 0.0000 0.0000 0.0000
# 3 37.4152 44.0223 92.4463 0.0000 0.0000 0.0000
# 4 0.0000 0.0000 0.0000 23.0039 0.0000 0.0000
# 5 0.0000 0.0000 0.0000 0.0000 20.4089 0.0000
# 6 0.0000 0.0000 0.0000 0.0000 0.0000 17.1385
#
#
#
# Elastic Compliance Matrix: (Units=1/GPa)
#
#
# Indices 1 2 3 4 5 6 
#
# 1 0.023090 -0.000812 -0.008958 0.000000 0.000000 0.000000
# 2 -0.000812 0.017264 -0.007892 0.000000 0.000000 0.000000
# 3 -0.008958 -0.007892 0.018201 0.000000 0.000000 0.000000
# 4 0.000000 0.000000 0.000000 0.043471 0.000000 0.000000
# 5 0.000000 0.000000 0.000000 0.000000 0.048998 0.000000
# 6 0.000000 0.000000 0.000000 0.000000 0.000000 0.058348
#
#
# Mechanical properties :
#
#
# Convention : Reuss Voigt Hill
#
# Bulk Modulus (GPa) = 43.04929 48.06051 45.55490
# Shear Modulus (GPa) = 19.80665 20.68741 20.24703
#
# Velocity S-wave (km/s) = 3.38470 3.45914 3.42212
# Velocity P-wave (km/s) = 6.33836 6.61457 6.47794
#
# Compressibility (1/GPa) = 0.02322919
#
# Stress axis : x y z
#
# Youngs Moduli (GPa) = 43.30940 57.92354 54.94241
#
# Poissons Ratio (x) = 0.04706 0.49218
# Poissons Ratio (y) = 0.03519 0.43362
# Poissons Ratio (z) = 0.38797 0.45715
#
# Static dielectric constant tensor:
#      x y z
#    x 2.991810 0.000000 0.000000 
#    y 0.000000 3.304070 0.000000 
#    z 0.000000 0.000000 3.544880 
# 
# 
# High freq. dielectric constant tensor:
#      x y z
#    x 1.600500 0.000000 0.000000 
#    y 0.000000 1.666980 0.000000 
#    z 0.000000 0.000000 1.679090 
# 
# From -- ./inp_files/22243.got.cif
#   From: 2010.03.12/outbox.cif.g09.slc.cpg/sg42_12_cif.got.tgz:22243.got - 2010.04.14 02:04:31.
