data_PCOD8185203
_publ_section_title
;
Structure prediction by ZEFSAII (Michael W. Deem and Ramdas Pophale) SiO2 
 PCOD8185203
Probable space group: A B A 2
;
_chemical_formula_sum "Si O2"
_cell_formula_units_Z 60
_cell_length_a 27.860566
_cell_length_b 18.584618
_cell_length_c 5.153169
_cell_angle_alpha 90.000000
_cell_angle_beta 90.000000
_cell_angle_gamma 90.000000
_cell_volume 2668.197417
_symmetry_space_group_name_H-M "A B A 2"
_symmetry_group_IT_number 41
_symmetry_cell_setting 'orthorhombic'
loop_
_space_group_symop_operation_xyz
x,y,z
-x,-y,z
1/2-x,y,1/2+z
1/2+x,-y,1/2+z
x,1/2+y,1/2+z
-x,1/2-y,1/2+z
1/2-x,1/2+y,z
1/2+x,1/2-y,z
loop_
_atom_site_type_symbol
_atom_site_label
_atom_site_fract_x
_atom_site_fract_y
_atom_site_fract_z
Si Si1 0.385376 0.180519 0.710270
Si Si2 0.000000 0.500000 0.773104
Si Si3 0.896825 0.483405 0.644074
Si Si4 0.057347 0.228378 0.711813
Si Si5 0.226404 0.377926 0.204486
Si Si6 0.122796 0.931182 0.657131
Si Si7 0.030362 0.357648 0.035915
Si Si8 0.774455 0.287427 0.716956
O O1 0.382437 0.095037 0.741628
O O2 0.408306 0.196330 0.432076
O O3 0.331584 0.208906 0.724932
O O4 0.417065 0.218760 0.933465
O O5 0.953758 0.490147 0.593174
O O6 0.996713 0.570169 0.952869
O O7 0.873258 0.505497 0.370966
O O8 0.880624 0.537338 0.869163
O O9 0.046581 0.311614 0.781869
O O10 0.006007 0.187634 0.716008
O O11 0.246545 0.416244 0.463550
O O12 0.169546 0.382651 0.177797
O O13 0.241886 0.295169 0.215138
O O14 0.077445 0.878300 0.704961
O O15 0.750870 0.325332 0.464620
#
# Coordination Sequence:
#
# PCOD8185203 Si02
#       8
#     8   4   8   8   8   8   8   8
#     4  12  25  45  68  97 140 181 229 292 348 410
#     4  10  24  44  66  96 140 188 226 278 336 416
#     4  11  25  42  66  97 134 183 234 267 343 421
#     4  12  26  43  68 102 139 182 238 286 345 408
#     4  10  21  41  67  94 124 166 220 279 345 402
#     4  11  25  43  66  97 135 174 226 281 340 415
#     4  11  26  44  69 103 141 185 233 286 347 417
#     4  10  22  41  67  97 127 169 223 282 349 418
#
# _framework density 22.487093999999999
#
# number of rings (size 3 to 8) (size 9 to 14) (size 15 to 20)
#    0.000    1.067    1.333    4.000    3.733    8.000 
#    0.000    4.000    0.000    0.000    0.000    0.000 
#    0.000    0.000    0.000    0.000    0.000    0.000 
#
# Total GULP energy -372041.088908 kJ/mol
# GULP energy per Si atom -12401.369630 kJ/mol
# Density = 2.243591 g / cm^3
# Si number density = 22.487094 Si / 1000 Ang^3
#
#
#
# Elastic Constant Matrix: (Units=GPa)
#
#
# Indices 1 2 3 4 5 6 
#
# 1 130.5035 13.1989 50.7185 0.0000 0.0000 0.0000
# 2 13.1989 88.1796 23.4375 0.0000 0.0000 0.0000
# 3 50.7185 23.4375 132.5152 0.0000 0.0000 0.0000
# 4 0.0000 0.0000 0.0000 24.7438 0.0000 0.0000
# 5 0.0000 0.0000 0.0000 0.0000 41.6053 0.0000
# 6 0.0000 0.0000 0.0000 0.0000 0.0000 30.4200
#
#
#
# Elastic Compliance Matrix: (Units=1/GPa)
#
#
# Indices 1 2 3 4 5 6 
#
# 1 0.009019 -0.000454 -0.003372 0.000000 0.000000 0.000000
# 2 -0.000454 0.011923 -0.001935 0.000000 0.000000 0.000000
# 3 -0.003372 -0.001935 0.009179 0.000000 0.000000 0.000000
# 4 0.000000 0.000000 0.000000 0.040414 0.000000 0.000000
# 5 0.000000 0.000000 0.000000 0.000000 0.024035 0.000000
# 6 0.000000 0.000000 0.000000 0.000000 0.000000 0.032873
#
#
# Mechanical properties :
#
#
# Convention : Reuss Voigt Hill
#
# Bulk Modulus (GPa) = 53.76436 58.43423 56.09929
# Shear Modulus (GPa) = 34.44378 36.94337 35.69358
#
# Velocity S-wave (km/s) = 3.91796 4.05763 3.98841
# Velocity P-wave (km/s) = 6.66544 6.92781 6.79789
#
# Compressibility (1/GPa) = 0.01859968
#
# Stress axis : x y z
#
# Youngs Moduli (GPa) = 110.87884 83.87335 108.94457
#
# Poissons Ratio (x) = 0.03806 0.36732
# Poissons Ratio (y) = 0.05032 0.21081
# Poissons Ratio (z) = 0.37384 0.16230
#
# Static dielectric constant tensor:
#      x y z
#    x 4.061610 0.000000 0.000000 
#    y 0.000000 3.963990 0.000000 
#    z 0.000000 0.000000 4.218390 
# 
# 
# High freq. dielectric constant tensor:
#      x y z
#    x 1.892320 0.000000 0.000000 
#    y 0.000000 1.872520 0.000000 
#    z 0.000000 0.000000 1.896060 
# 
# From -- ./inp_files/1189.got.cif
#   From: 2010.03.12/outbox.cif.g09.slc.cpg/sg41_1_cif.got.tgz:1189.got - 2010.04.14 01:55:53.
