data_PCOD8185497
_publ_section_title
;
Structure prediction by ZEFSAII (Michael W. Deem and Ramdas Pophale) SiO2 
 PCOD8185497
Probable space group: A B A 2
;
_chemical_formula_sum "Si O2"
_cell_formula_units_Z 60
_cell_length_a 22.847421
_cell_length_b 9.593087
_cell_length_c 12.231585
_cell_angle_alpha 90.000000
_cell_angle_beta 90.000000
_cell_angle_gamma 90.000000
_cell_volume 2680.885743
_symmetry_space_group_name_H-M "A B A 2"
_symmetry_group_IT_number 41
_symmetry_cell_setting 'orthorhombic'
loop_
_space_group_symop_operation_xyz
x,y,z
-x,-y,z
1/2-x,y,1/2+z
1/2+x,-y,1/2+z
x,1/2+y,1/2+z
-x,1/2-y,1/2+z
1/2-x,1/2+y,z
1/2+x,1/2-y,z
loop_
_atom_site_type_symbol
_atom_site_label
_atom_site_fract_x
_atom_site_fract_y
_atom_site_fract_z
Si Si1 0.870009 0.154725 0.156400
Si Si2 0.744209 0.029664 0.191778
Si Si3 0.691165 0.287199 0.294152
Si Si4 0.000000 0.500000 0.205838
Si Si5 0.475227 0.791222 0.794313
Si Si6 0.069365 0.880160 0.510158
Si Si7 0.162429 0.595564 0.016307
Si Si8 0.083113 0.629042 0.651193
O O1 0.802432 0.119652 0.174333
O O2 0.907043 0.179025 0.267086
O O3 0.875484 0.297454 0.089031
O O4 0.902909 0.023117 0.100283
O O5 0.702129 0.125139 0.266558
O O6 0.756448 0.883374 0.249714
O O7 0.712590 0.990497 0.079032
O O8 0.691174 0.308398 0.423768
O O9 0.629411 0.333285 0.245082
O O10 0.983996 0.374870 0.287819
O O11 0.949253 0.547518 0.123590
O O12 0.519531 0.866341 0.709929
O O13 0.481446 0.853461 0.918225
O O14 0.091239 0.727907 0.546493
O O15 0.120471 0.978443 0.462694
#
# Coordination Sequence:
#
# PCOD8185497 Si02
#       8
#     8   8   8   4   8   8   8   8
#     4  11  24  46  69 104 143 184 242 302 349 432
#     4  11  24  47  65 101 143 180 242 300 350 436
#     4  11  25  43  71 101 139 189 238 299 365 420
#     4  10  24  44  68 108 140 182 236 294 338 438
#     4  11  24  46  76 104 148 190 239 292 367 435
#     4  11  23  45  74 101 145 191 233 293 362 418
#     4  12  25  45  73 102 141 194 240 299 368 423
#     4  10  24  46  70 107 146 182 242 297 349 442
#
# _framework density 22.380662999999998
#
# number of rings (size 3 to 8) (size 9 to 14) (size 15 to 20)
#    0.000    1.067    4.000    2.000    5.600    0.000 
#   16.800    0.000    0.000    0.000    0.000    0.000 
#    0.000    0.000    0.000    0.000    0.000    0.000 
#
# Total GULP energy -371844.950704 kJ/mol
# GULP energy per Si atom -12394.831690 kJ/mol
# Density = 2.232972 g / cm^3
# Si number density = 22.380663 Si / 1000 Ang^3
#
#
#
# Elastic Constant Matrix: (Units=GPa)
#
#
# Indices 1 2 3 4 5 6 
#
# 1 94.0333 45.8813 30.8259 0.0000 0.0000 0.0000
# 2 45.8813 122.9157 31.8834 0.0000 0.0000 0.0000
# 3 30.8259 31.8834 87.4935 0.0000 0.0000 0.0000
# 4 0.0000 0.0000 0.0000 35.0680 0.0000 0.0000
# 5 0.0000 0.0000 0.0000 0.0000 28.2887 0.0000
# 6 0.0000 0.0000 0.0000 0.0000 0.0000 39.6792
#
#
#
# Elastic Compliance Matrix: (Units=1/GPa)
#
#
# Indices 1 2 3 4 5 6 
#
# 1 0.013815 -0.004301 -0.003300 0.000000 0.000000 0.000000
# 2 -0.004301 0.010324 -0.002247 0.000000 0.000000 0.000000
# 3 -0.003300 -0.002247 0.013411 0.000000 0.000000 0.000000
# 4 0.000000 0.000000 0.000000 0.028516 0.000000 0.000000
# 5 0.000000 0.000000 0.000000 0.000000 0.035350 0.000000
# 6 0.000000 0.000000 0.000000 0.000000 0.000000 0.025202
#
#
# Mechanical properties :
#
#
# Convention : Reuss Voigt Hill
#
# Bulk Modulus (GPa) = 56.00899 57.95817 56.98358
# Shear Modulus (GPa) = 32.83772 33.66399 33.25086
#
# Velocity S-wave (km/s) = 3.83461 3.88255 3.85865
# Velocity P-wave (km/s) = 6.68473 6.78614 6.73562
#
# Compressibility (1/GPa) = 0.01785428
#
# Stress axis : x y z
#
# Youngs Moduli (GPa) = 72.38628 96.86346 74.56642
#
# Poissons Ratio (x) = 0.41658 0.24607
# Poissons Ratio (y) = 0.31131 0.16754
# Poissons Ratio (z) = 0.23888 0.21764
#
# Static dielectric constant tensor:
#      x y z
#    x 3.948930 0.000000 0.000000 
#    y 0.000000 4.486000 0.000000 
#    z 0.000000 0.000000 3.720220 
# 
# 
# High freq. dielectric constant tensor:
#      x y z
#    x 1.878450 0.000000 0.000000 
#    y 0.000000 1.910360 0.000000 
#    z 0.000000 0.000000 1.856490 
# 
# From -- ./inp_files/6575.got.cif
#   From: 2010.03.12/outbox.cif.g09.slc.cpg/sg41_4_cif.got.tgz:6575.got - 2010.04.14 01:55:53.
