data_PCOD8185702
_publ_section_title
;
Structure prediction by ZEFSAII (Michael W. Deem and Ramdas Pophale) SiO2 
 PCOD8185702
Probable space group: A B A 2
;
_chemical_formula_sum "Si O2"
_cell_formula_units_Z 64
_cell_length_a 15.958183
_cell_length_b 9.272432
_cell_length_c 19.823429
_cell_angle_alpha 90.000000
_cell_angle_beta 90.000000
_cell_angle_gamma 90.000000
_cell_volume 2933.295917
_symmetry_space_group_name_H-M "A B A 2"
_symmetry_group_IT_number 41
_symmetry_cell_setting 'orthorhombic'
loop_
_space_group_symop_operation_xyz
x,y,z
-x,-y,z
1/2-x,y,1/2+z
1/2+x,-y,1/2+z
x,1/2+y,1/2+z
-x,1/2-y,1/2+z
1/2-x,1/2+y,z
1/2+x,1/2-y,z
loop_
_atom_site_type_symbol
_atom_site_label
_atom_site_fract_x
_atom_site_fract_y
_atom_site_fract_z
Si Si1 0.152095 0.243371 0.908570
Si Si2 0.547561 0.854480 0.280846
Si Si3 0.568184 0.397600 0.281938
Si Si4 0.567548 0.878841 0.033881
Si Si5 0.829365 0.336709 0.157726
Si Si6 0.657748 0.499107 0.153062
Si Si7 0.323558 0.580154 0.405915
Si Si8 0.448847 0.629954 0.031114
O O1 0.092101 0.209801 0.846399
O O2 0.181953 0.407738 0.906878
O O3 0.229874 0.136499 0.910214
O O4 0.103114 0.220307 0.977630
O O5 0.474254 0.748404 0.255656
O O6 0.615890 0.874400 0.222876
O O7 0.500000 0.000000 0.299790
O O8 0.500000 0.500000 0.319164
O O9 0.600025 0.489372 0.218626
O O10 0.640315 0.361630 0.335361
O O11 0.630368 0.920203 0.094104
O O12 0.519719 0.736460 0.060312
O O13 0.500000 0.000000 0.018868
O O14 0.620766 0.853767 0.966006
O O15 0.738721 0.403900 0.168873
O O16 0.819384 0.166522 0.142339
O O17 0.610124 0.432633 0.089311
O O18 0.500000 0.500000 0.995908
#
# Coordination Sequence:
#
# PCOD8185702 Si02
#       8
#     8   8   8   8   8   8   8   8
#     4  12  27  46  69 102 141 179 226 281 340 408
#     4  12  27  46  72 104 135 178 230 282 339 401
#     4  12  23  48  74  94 137 180 228 281 333 405
#     4  12  25  45  71  99 135 179 231 280 336 401
#     4  12  27  46  69 102 141 179 226 281 340 408
#     4  12  27  45  70 102 138 183 224 279 346 401
#     4  12  27  45  70 102 138 183 224 279 346 401
#     4  12  25  45  71  99 135 179 231 280 336 401
#
# _framework density 21.818460999999999
#
# number of rings (size 3 to 8) (size 9 to 14) (size 15 to 20)
#    0.000    0.000    5.000    4.500    7.000    2.000 
#    0.000    0.000    0.000    0.000    0.000    0.000 
#    0.000    0.000    0.000    0.000    0.000    0.000 
#
# Total GULP energy -396980.842194 kJ/mol
# GULP energy per Si atom -12405.651319 kJ/mol
# Density = 2.176880 g / cm^3
# Si number density = 21.818461 Si / 1000 Ang^3
#
#
#
# Elastic Constant Matrix: (Units=GPa)
#
#
# Indices 1 2 3 4 5 6 
#
# 1 100.9457 53.3357 29.0757 0.0000 0.0000 0.0000
# 2 53.3357 99.4601 8.9136 0.0000 0.0000 0.0000
# 3 29.0757 8.9136 113.8482 0.0000 0.0000 0.0000
# 4 0.0000 0.0000 0.0000 39.2278 0.0000 0.0000
# 5 0.0000 0.0000 0.0000 0.0000 31.3793 0.0000
# 6 0.0000 0.0000 0.0000 0.0000 0.0000 40.4313
#
#
#
# Elastic Compliance Matrix: (Units=1/GPa)
#
#
# Indices 1 2 3 4 5 6 
#
# 1 0.014898 -0.007702 -0.003202 0.000000 0.000000 0.000000
# 2 -0.007702 0.014107 0.000863 0.000000 0.000000 0.000000
# 3 -0.003202 0.000863 0.009534 0.000000 0.000000 0.000000
# 4 0.000000 0.000000 0.000000 0.025492 0.000000 0.000000
# 5 0.000000 0.000000 0.000000 0.000000 0.031868 0.000000
# 6 0.000000 0.000000 0.000000 0.000000 0.000000 0.024733
#
#
# Mechanical properties :
#
#
# Convention : Reuss Voigt Hill
#
# Bulk Modulus (GPa) = 54.18198 55.21156 54.69677
# Shear Modulus (GPa) = 34.04424 37.06960 35.55692
#
# Velocity S-wave (km/s) = 3.95440 4.12637 4.04130
# Velocity P-wave (km/s) = 6.76289 6.93271 6.84833
#
# Compressibility (1/GPa) = 0.01845632
#
# Stress axis : x y z
#
# Youngs Moduli (GPa) = 67.12280 70.88530 104.89000
#
# Poissons Ratio (x) = 0.54597 0.33584
# Poissons Ratio (y) = 0.51699 -0.09047
# Poissons Ratio (z) = 0.21491 -0.06114
#
# Static dielectric constant tensor:
#      x y z
#    x 4.101890 0.000000 0.000000 
#    y 0.000000 3.645480 0.000000 
#    z 0.000000 0.000000 3.949010 
# 
# 
# High freq. dielectric constant tensor:
#      x y z
#    x 1.875570 0.000000 0.000000 
#    y 0.000000 1.869630 0.000000 
#    z 0.000000 0.000000 1.863700 
# 
# From -- ./inp_files/12240.got.cif
#   From: 2010.03.12/outbox.cif.g09.slc.cpg/sg41_7_cif.got.tgz:12240.got - 2010.04.14 01:55:53.
