data_PCOD8185312
_publ_section_title
;
Structure prediction by ZEFSAII (Michael W. Deem and Ramdas Pophale) SiO2 
 PCOD8185312
Probable space group: A B A 2
;
_chemical_formula_sum "Si O2"
_cell_formula_units_Z 64
_cell_length_a 22.210899
_cell_length_b 8.681083
_cell_length_c 15.782346
_cell_angle_alpha 90.000000
_cell_angle_beta 90.000000
_cell_angle_gamma 90.000000
_cell_volume 3043.067642
_symmetry_space_group_name_H-M "A B A 2"
_symmetry_group_IT_number 41
_symmetry_cell_setting 'orthorhombic'
loop_
_space_group_symop_operation_xyz
x,y,z
-x,-y,z
1/2-x,y,1/2+z
1/2+x,-y,1/2+z
x,1/2+y,1/2+z
-x,1/2-y,1/2+z
1/2-x,1/2+y,z
1/2+x,1/2-y,z
loop_
_atom_site_type_symbol
_atom_site_label
_atom_site_fract_x
_atom_site_fract_y
_atom_site_fract_z
Si Si1 0.066313 0.479659 0.960020
Si Si2 0.066313 0.979659 0.175610
Si Si3 0.196711 0.934968 0.636924
Si Si4 0.616001 0.800145 0.545813
Si Si5 0.116001 0.699855 0.089817
Si Si6 0.696711 0.065032 0.498706
Si Si7 0.763741 0.178411 0.817815
Si Si8 0.659845 0.480585 0.317815
O O1 0.118204 0.542336 0.899020
O O2 0.000000 0.500000 0.919716
O O3 0.077837 0.299266 0.978468
O O4 0.069890 0.582802 0.044591
O O5 0.077837 0.799266 0.157163
O O6 0.069890 0.082802 0.091040
O O7 0.118204 0.042336 0.236611
O O8 0.000000 0.000000 0.215915
O O9 0.145601 0.812861 0.614141
O O10 0.250000 0.925541 0.567815
O O11 0.215713 0.907610 0.732782
O O12 0.169288 0.106714 0.636058
O O13 0.669288 0.893286 0.499572
O O14 0.145601 0.812861 0.021489
O O15 0.715712 0.092390 0.402847
O O16 0.786198 0.354120 0.817815
O O17 0.691141 0.150238 0.817816
#
# Coordination Sequence:
#
# PCOD8185312 Si02
#       8
#     8   8   8   8   8   8   8   8
#     4  11  23  44  67  92 130 171 223 272 321 391
#     4  11  23  44  67  92 130 171 223 272 321 391
#     4  11  23  39  64  94 136 171 211 269 329 401
#     4  10  22  40  64  97 124 168 224 257 334 389
#     4  10  22  40  64  97 124 168 224 257 334 389
#     4  11  23  39  64  94 136 171 211 269 329 401
#     4  12  26  42  65  94 140 166 217 273 335 401
#     4  12  27  42  63  98 126 175 216 268 339 389
#
# _framework density 21.031409
#
# number of rings (size 3 to 8) (size 9 to 14) (size 15 to 20)
#    0.000    1.000    2.500    4.875    7.000    0.000 
#    0.000    0.000    0.000    1.500    0.000    0.000 
#    0.000    0.000    0.000    0.000    0.000    0.000 
#
# Total GULP energy -396714.357049 kJ/mol
# GULP energy per Si atom -12397.323658 kJ/mol
# Density = 2.098354 g / cm^3
# Si number density = 21.031409 Si / 1000 Ang^3
#
#
#
# Elastic Constant Matrix: (Units=GPa)
#
#
# Indices 1 2 3 4 5 6 
#
# 1 122.1622 39.0664 23.1924 0.0000 0.0000 0.0000
# 2 39.0664 109.5060 25.7436 0.0000 0.0000 0.0000
# 3 23.1924 25.7436 96.3496 0.0000 0.0000 0.0000
# 4 0.0000 0.0000 0.0000 1.4469 0.0000 0.0000
# 5 0.0000 0.0000 0.0000 0.0000 41.4079 0.0000
# 6 0.0000 0.0000 0.0000 0.0000 0.0000 30.1099
#
#
#
# Elastic Compliance Matrix: (Units=1/GPa)
#
#
# Indices 1 2 3 4 5 6 
#
# 1 0.009429 -0.003020 -0.001463 0.000000 0.000000 0.000000
# 2 -0.003020 0.010711 -0.002135 0.000000 0.000000 0.000000
# 3 -0.001463 -0.002135 0.011301 0.000000 0.000000 0.000000
# 4 0.000000 0.000000 0.000000 0.691149 0.000000 0.000000
# 5 0.000000 0.000000 0.000000 0.000000 0.024150 0.000000
# 6 0.000000 0.000000 0.000000 0.000000 0.000000 0.033212
#
#
# Mechanical properties :
#
#
# Convention : Reuss Voigt Hill
#
# Bulk Modulus (GPa) = 54.92594 56.00251 55.46423
# Shear Modulus (GPa) = 6.25581 30.59396 18.42488
#
# Velocity S-wave (km/s) = 1.72655 3.81816 2.96305
# Velocity P-wave (km/s) = 5.49067 6.79144 6.17540
#
# Compressibility (1/GPa) = 0.01820633
#
# Stress axis : x y z
#
# Youngs Moduli (GPa) = 106.05207 93.35992 88.48442
#
# Poissons Ratio (x) = 0.28195 0.12944
# Poissons Ratio (y) = 0.32028 0.18891
# Poissons Ratio (z) = 0.15513 0.19932
#
# Static dielectric constant tensor:
#      x y z
#    x 3.765390 0.000000 0.000000 
#    y 0.000000 3.935830 0.000000 
#    z 0.000000 0.000000 3.755600 
# 
# 
# High freq. dielectric constant tensor:
#      x y z
#    x 1.819330 0.000000 0.000000 
#    y 0.000000 1.834450 0.000000 
#    z 0.000000 0.000000 1.819650 
# 
# From -- ./inp_files/9156.got.cif
#   From: 2010.03.12/outbox.cif.g09.slc.cpg/sg41_5_cif.got.tgz:9156.got - 2010.04.14 01:55:53.
