data_PCOD8185505
_publ_section_title
;
Structure prediction by ZEFSAII (Michael W. Deem and Ramdas Pophale) SiO2 
 PCOD8185505
Probable space group: A B A 2
;
_chemical_formula_sum "Si O2"
_cell_formula_units_Z 64
_cell_length_a 28.746529
_cell_length_b 8.788687
_cell_length_c 11.536029
_cell_angle_alpha 90.000000
_cell_angle_beta 90.000000
_cell_angle_gamma 90.000000
_cell_volume 2914.511345
_symmetry_space_group_name_H-M "A B A 2"
_symmetry_group_IT_number 41
_symmetry_cell_setting 'orthorhombic'
loop_
_space_group_symop_operation_xyz
x,y,z
-x,-y,z
1/2-x,y,1/2+z
1/2+x,-y,1/2+z
x,1/2+y,1/2+z
-x,1/2-y,1/2+z
1/2-x,1/2+y,z
1/2+x,1/2-y,z
loop_
_atom_site_type_symbol
_atom_site_label
_atom_site_fract_x
_atom_site_fract_y
_atom_site_fract_z
Si Si1 0.811791 0.673523 0.664740
Si Si2 0.449180 0.948663 0.943600
Si Si3 0.577820 0.251783 0.322503
Si Si4 0.107705 0.731081 0.587083
Si Si5 0.910670 0.106018 0.054849
Si Si6 0.483649 0.326916 0.229229
Si Si7 0.694221 0.212043 0.933506
Si Si8 0.743387 0.938861 0.050558
O O1 0.861220 0.663604 0.601271
O O2 0.820074 0.679398 0.802209
O O3 0.786135 0.829503 0.633157
O O4 0.781291 0.527059 0.628832
O O5 0.451795 0.816401 0.844906
O O6 0.500000 0.000000 0.986748
O O7 0.420161 0.090484 0.892998
O O8 0.422934 0.875680 0.051188
O O9 0.618630 0.245846 0.224929
O O10 0.586267 0.120588 0.416151
O O11 0.529595 0.223725 0.248870
O O12 0.079962 0.571156 0.580896
O O13 0.152618 0.718170 0.508395
O O14 0.952215 0.206680 0.115361
O O15 0.500000 0.500000 0.227603
O O16 0.734291 0.338756 0.946725
O O17 0.708448 0.053481 0.989817
#
# Coordination Sequence:
#
# PCOD8185505 Si02
#       8
#     8   8   8   8   8   8   8   8
#     4  11  24  45  69 103 137 179 228 281 346 415
#     4   9  21  43  64  88 133 173 218 272 341 395
#     4  10  25  43  65  97 134 181 220 287 340 402
#     4  12  24  43  66  99 133 175 227 279 339 402
#     4  12  24  43  71  99 136 178 237 282 339 417
#     4   9  19  41  67  87 129 177 218 274 343 387
#     4  11  24  43  73  98 136 181 221 282 346 404
#     4  10  24  46  67 104 137 178 225 278 350 419
#
# _framework density 21.959083
#
# number of rings (size 3 to 8) (size 9 to 14) (size 15 to 20)
#    0.000    1.750    3.750    1.500    5.250    1.000 
#   11.250    0.625    0.000    0.000    0.000    0.000 
#    0.000    0.000    0.000    0.000    0.000    0.000 
#
# Total GULP energy -396652.611198 kJ/mol
# GULP energy per Si atom -12395.394100 kJ/mol
# Density = 2.190910 g / cm^3
# Si number density = 21.959083 Si / 1000 Ang^3
#
#
#
# Elastic Constant Matrix: (Units=GPa)
#
#
# Indices 1 2 3 4 5 6 
#
# 1 85.7509 24.4511 48.2093 0.0000 0.0000 0.0000
# 2 24.4511 79.9233 41.9418 0.0000 0.0000 0.0000
# 3 48.2093 41.9418 156.4374 0.0000 0.0000 0.0000
# 4 0.0000 0.0000 0.0000 25.1990 0.0000 0.0000
# 5 0.0000 0.0000 0.0000 0.0000 27.1698 0.0000
# 6 0.0000 0.0000 0.0000 0.0000 0.0000 25.2038
#
#
#
# Elastic Compliance Matrix: (Units=1/GPa)
#
#
# Indices 1 2 3 4 5 6 
#
# 1 0.014501 -0.002434 -0.003816 0.000000 0.000000 0.000000
# 2 -0.002434 0.014969 -0.003263 0.000000 0.000000 0.000000
# 3 -0.003816 -0.003263 0.008443 0.000000 0.000000 0.000000
# 4 0.000000 0.000000 0.000000 0.039684 0.000000 0.000000
# 5 0.000000 0.000000 0.000000 0.000000 0.036806 0.000000
# 6 0.000000 0.000000 0.000000 0.000000 0.000000 0.039677
#
#
# Mechanical properties :
#
#
# Convention : Reuss Voigt Hill
#
# Bulk Modulus (GPa) = 52.94668 61.25732 57.10200
# Shear Modulus (GPa) = 27.87037 29.34848 28.60942
#
# Velocity S-wave (km/s) = 3.56644 3.65979 3.61342
# Velocity P-wave (km/s) = 6.41274 6.76871 6.59313
#
# Compressibility (1/GPa) = 0.01888693
#
# Stress axis : x y z
#
# Youngs Moduli (GPa) = 68.95997 66.80458 118.43669
#
# Poissons Ratio (x) = 0.16258 0.45200
# Poissons Ratio (y) = 0.16782 0.38650
# Poissons Ratio (z) = 0.26318 0.21800
#
# Static dielectric constant tensor:
#      x y z
#    x 3.966220 0.000000 0.000000 
#    y 0.000000 3.782650 0.000000 
#    z 0.000000 0.000000 4.205400 
# 
# 
# High freq. dielectric constant tensor:
#      x y z
#    x 1.857230 0.000000 0.000000 
#    y 0.000000 1.850770 0.000000 
#    z 0.000000 0.000000 1.873070 
# 
# From -- ./inp_files/6661.got.cif
#   From: 2010.03.12/outbox.cif.g09.slc.cpg/sg41_4_cif.got.tgz:6661.got - 2010.04.14 01:55:53.
