data_PCOD8185487
_publ_section_title
;
Structure prediction by ZEFSAII (Michael W. Deem and Ramdas Pophale) SiO2 
 PCOD8185487
Probable space group: A B A 2
;
_chemical_formula_sum "Si O2"
_cell_formula_units_Z 48
_cell_length_a 13.460927
_cell_length_b 9.694340
_cell_length_c 13.382685
_cell_angle_alpha 90.000000
_cell_angle_beta 90.000000
_cell_angle_gamma 90.000000
_cell_volume 1746.370843
_symmetry_space_group_name_H-M "A B A 2"
_symmetry_group_IT_number 41
_symmetry_cell_setting 'orthorhombic'
loop_
_space_group_symop_operation_xyz
x,y,z
-x,-y,z
1/2-x,y,1/2+z
1/2+x,-y,1/2+z
x,1/2+y,1/2+z
-x,1/2-y,1/2+z
1/2-x,1/2+y,z
1/2+x,1/2-y,z
loop_
_atom_site_type_symbol
_atom_site_label
_atom_site_fract_x
_atom_site_fract_y
_atom_site_fract_z
Si Si1 0.329377 0.020010 0.095000
Si Si2 0.715280 0.599669 0.269406
Si Si3 0.952660 0.208733 0.497803
Si Si4 0.308870 0.578265 0.922576
Si Si5 0.108614 0.805458 0.867685
Si Si6 0.037354 0.744978 0.196768
O O1 0.267785 0.912280 0.161888
O O2 0.408854 0.938928 0.026550
O O3 0.615476 0.872924 0.166633
O O4 0.252793 0.099328 0.023852
O O5 0.731313 0.455490 0.330411
O O6 0.775452 0.721912 0.333011
O O7 0.599110 0.632553 0.251701
O O8 0.879231 0.285344 0.418913
O O9 0.976688 0.296251 0.598910
O O10 0.060252 0.190997 0.441399
O O11 0.387614 0.451606 0.926607
O O12 0.042463 0.823474 0.769237
#
# Coordination Sequence:
#
# PCOD8185487 Si02
#       6
#     8   8   8   8   8   8
#     4  12  24  43  73 112 147 195 249 313 393 460
#     4  10  24  46  72 106 144 204 245 315 384 453
#     4  12  23  42  75 106 154 195 251 317 385 463
#     4  10  24  43  69 107 146 198 252 312 381 464
#     4  10  24  45  73 103 147 197 253 307 384 451
#     4  12  25  46  78 109 149 197 259 316 389 466
#
# _framework density 27.485569999999999
#
# number of rings (size 3 to 8) (size 9 to 14) (size 15 to 20)
#    1.000    0.000    1.667    5.000    2.333    0.000 
#    3.000    0.000    0.000    0.000    0.000    0.000 
#    0.000    0.000    0.000    0.000    0.000    0.000 
#
# Total GULP energy -297329.114550 kJ/mol
# GULP energy per Si atom -12388.713106 kJ/mol
# Density = 2.742301 g / cm^3
# Si number density = 27.485570 Si / 1000 Ang^3
#
#
#
# Elastic Constant Matrix: (Units=GPa)
#
#
# Indices 1 2 3 4 5 6 
#
# 1 125.9682 11.1685 36.4452 0.0000 0.0000 0.0000
# 2 11.1685 46.1702 -1.4144 0.0000 0.0000 0.0000
# 3 36.4452 -1.4144 81.3007 0.0000 0.0000 0.0000
# 4 0.0000 0.0000 0.0000 39.5996 0.0000 0.0000
# 5 0.0000 0.0000 0.0000 0.0000 80.3073 0.0000
# 6 0.0000 0.0000 0.0000 0.0000 0.0000 36.8962
#
#
#
# Elastic Compliance Matrix: (Units=1/GPa)
#
#
# Indices 1 2 3 4 5 6 
#
# 1 0.009380 -0.002399 -0.004246 0.000000 0.000000 0.000000
# 2 -0.002399 0.022284 0.001463 0.000000 0.000000 0.000000
# 3 -0.004246 0.001463 0.014229 0.000000 0.000000 0.000000
# 4 0.000000 0.000000 0.000000 0.025253 0.000000 0.000000
# 5 0.000000 0.000000 0.000000 0.000000 0.012452 0.000000
# 6 0.000000 0.000000 0.000000 0.000000 0.000000 0.027103
#
#
# Mechanical properties :
#
#
# Convention : Reuss Voigt Hill
#
# Bulk Modulus (GPa) = 28.14665 38.42640 33.28653
# Shear Modulus (GPa) = 37.61983 45.17660 41.39822
#
# Velocity S-wave (km/s) = 3.70362 4.05859 3.88516
# Velocity P-wave (km/s) = 5.34339 5.99782 5.68004
#
# Compressibility (1/GPa) = 0.03552820
#
# Stress axis : x y z
#
# Youngs Moduli (GPa) = 106.61191 44.87496 70.27858
#
# Poissons Ratio (x) = 0.10766 0.29844
# Poissons Ratio (y) = 0.25577 -0.10283
# Poissons Ratio (z) = 0.45273 -0.06566
#
# Static dielectric constant tensor:
#      x y z
#    x 5.161670 0.000000 0.000000 
#    y 0.000000 4.302830 0.000000 
#    z 0.000000 0.000000 5.305820 
# 
# 
# High freq. dielectric constant tensor:
#      x y z
#    x 2.128290 0.000000 0.000000 
#    y 0.000000 2.076580 0.000000 
#    z 0.000000 0.000000 2.125990 
# 
# From -- ./inp_files/7882.got.cif
#   From: 2010.03.12/outbox.cif.g09.slc.cpg/sg41_4_cif.got.tgz:7882.got - 2010.04.14 01:55:53.
