data_PCOD8185511
_publ_section_title
;
Structure prediction by ZEFSAII (Michael W. Deem and Ramdas Pophale) SiO2 
 PCOD8185511
Probable space group: A B A 2
;
_chemical_formula_sum "Si O2"
_cell_formula_units_Z 60
_cell_length_a 24.661834
_cell_length_b 11.415984
_cell_length_c 8.900926
_cell_angle_alpha 90.000000
_cell_angle_beta 90.000000
_cell_angle_gamma 90.000000
_cell_volume 2505.958716
_symmetry_space_group_name_H-M "A B A 2"
_symmetry_group_IT_number 41
_symmetry_cell_setting 'orthorhombic'
loop_
_space_group_symop_operation_xyz
x,y,z
-x,-y,z
1/2-x,y,1/2+z
1/2+x,-y,1/2+z
x,1/2+y,1/2+z
-x,1/2-y,1/2+z
1/2-x,1/2+y,z
1/2+x,1/2-y,z
loop_
_atom_site_type_symbol
_atom_site_label
_atom_site_fract_x
_atom_site_fract_y
_atom_site_fract_z
Si Si1 0.105926 0.077864 0.733100
Si Si2 0.742097 0.254222 0.903897
Si Si3 0.000000 0.500000 0.688493
Si Si4 0.173608 0.281046 0.639687
Si Si5 0.929032 0.167880 0.662650
Si Si6 0.674298 0.826858 0.668797
Si Si7 0.608898 0.016208 0.551698
Si Si8 0.520109 0.740010 0.351993
O O1 0.156670 0.142148 0.648564
O O2 0.065042 0.183406 0.767918
O O3 0.077910 0.973078 0.636323
O O4 0.127172 0.014434 0.883463
O O5 0.701692 0.178810 0.797132
O O6 0.781167 0.330518 0.798289
O O7 0.782248 0.183148 0.013122
O O8 0.703464 0.331476 0.007464
O O9 0.952266 0.472917 0.571912
O O10 0.983119 0.608601 0.790703
O O11 0.118907 0.349270 0.595917
O O12 0.868344 0.219236 0.676891
O O13 0.964107 0.227487 0.528159
O O14 0.961987 0.195462 0.818844
O O15 0.642645 0.947807 0.679023
#
# Coordination Sequence:
#
# PCOD8185511 Si02
#       8
#     8   8   4   8   8   8   8   8
#     4  12  26  48  75 109 152 201 249 312 381 461
#     4  10  24  47  74 107 149 188 263 318 367 461
#     4  12  26  44  78 110 152 202 248 308 390 456
#     4  11  24  49  73 109 147 194 253 311 386 443
#     4  12  28  47  77 108 156 201 256 313 387 456
#     4  11  23  49  71 110 148 197 253 314 385 450
#     4  12  25  47  78 105 159 202 240 324 380 459
#     4  12  26  49  73 111 152 201 259 312 377 466
#
# _framework density 23.942934000000001
#
# number of rings (size 3 to 8) (size 9 to 14) (size 15 to 20)
#    0.000    0.533    5.333    1.200    5.600    3.200 
#    9.600    0.000    0.000    0.000    0.000    0.000 
#    0.000    0.000    0.000    0.000    0.000    0.000 
#
# Total GULP energy -371711.580546 kJ/mol
# GULP energy per Si atom -12390.386018 kJ/mol
# Density = 2.388844 g / cm^3
# Si number density = 23.942934 Si / 1000 Ang^3
#
#
#
# Elastic Constant Matrix: (Units=GPa)
#
#
# Indices 1 2 3 4 5 6 
#
# 1 136.7040 40.4660 57.4854 0.0000 0.0000 0.0000
# 2 40.4660 124.8929 34.2635 0.0000 0.0000 0.0000
# 3 57.4854 34.2635 111.1795 0.0000 0.0000 0.0000
# 4 0.0000 0.0000 0.0000 28.5879 0.0000 0.0000
# 5 0.0000 0.0000 0.0000 0.0000 23.8085 0.0000
# 6 0.0000 0.0000 0.0000 0.0000 0.0000 19.5460
#
#
#
# Elastic Compliance Matrix: (Units=1/GPa)
#
#
# Indices 1 2 3 4 5 6 
#
# 1 0.009760 -0.001942 -0.004448 0.000000 0.000000 0.000000
# 2 -0.001942 0.009133 -0.001810 0.000000 0.000000 0.000000
# 3 -0.004448 -0.001810 0.011852 0.000000 0.000000 0.000000
# 4 0.000000 0.000000 0.000000 0.034980 0.000000 0.000000
# 5 0.000000 0.000000 0.000000 0.000000 0.042002 0.000000
# 6 0.000000 0.000000 0.000000 0.000000 0.000000 0.051161
#
#
# Mechanical properties :
#
#
# Convention : Reuss Voigt Hill
#
# Bulk Modulus (GPa) = 69.71421 70.80067 70.25744
# Shear Modulus (GPa) = 27.76681 30.42592 29.09637
#
# Velocity S-wave (km/s) = 3.40914 3.56865 3.48981
# Velocity P-wave (km/s) = 6.68404 6.82753 6.75616
#
# Compressibility (1/GPa) = 0.01434428
#
# Stress axis : x y z
#
# Youngs Moduli (GPa) = 102.45435 109.49558 84.37189
#
# Poissons Ratio (x) = 0.21265 0.37530
# Poissons Ratio (y) = 0.19898 0.15275
# Poissons Ratio (z) = 0.45573 0.19823
#
# Static dielectric constant tensor:
#      x y z
#    x 4.646960 0.000000 0.000000 
#    y 0.000000 4.207850 0.000000 
#    z 0.000000 0.000000 4.429790 
# 
# 
# High freq. dielectric constant tensor:
#      x y z
#    x 1.966560 0.000000 0.000000 
#    y 0.000000 1.935020 0.000000 
#    z 0.000000 0.000000 1.948760 
# 
# From -- ./inp_files/3800.got.cif
#   From: 2010.03.12/outbox.cif.g09.slc.cpg/sg41_2_cif.got.tgz:3800.got - 2010.04.14 01:55:53.
