data_PCOD8185501
_publ_section_title
;
Structure prediction by ZEFSAII (Michael W. Deem and Ramdas Pophale) SiO2 
 PCOD8185501
Probable space group: A B A 2
;
_chemical_formula_sum "Si O2"
_cell_formula_units_Z 40
_cell_length_a 19.176668
_cell_length_b 8.917337
_cell_length_c 9.774769
_cell_angle_alpha 90.000000
_cell_angle_beta 90.000000
_cell_angle_gamma 90.000000
_cell_volume 1671.532526
_symmetry_space_group_name_H-M "A B A 2"
_symmetry_group_IT_number 41
_symmetry_cell_setting 'orthorhombic'
loop_
_space_group_symop_operation_xyz
x,y,z
-x,-y,z
1/2-x,y,1/2+z
1/2+x,-y,1/2+z
x,1/2+y,1/2+z
-x,1/2-y,1/2+z
1/2-x,1/2+y,z
1/2+x,1/2-y,z
loop_
_atom_site_type_symbol
_atom_site_label
_atom_site_fract_x
_atom_site_fract_y
_atom_site_fract_z
Si Si1 0.500000 0.500000 0.418190
Si Si2 0.903716 0.253812 0.943581
Si Si3 0.903716 0.753812 0.855694
Si Si4 0.797344 0.144502 0.149637
Si Si5 0.343894 0.696409 0.149637
Si Si6 0.000000 0.500000 0.381084
O O1 0.555958 0.400482 0.504508
O O2 0.545458 0.613578 0.325657
O O3 0.891850 0.279973 0.782142
O O4 0.954542 0.113579 0.973618
O O5 0.830693 0.224145 0.016903
O O6 0.830693 0.724145 0.782372
O O7 0.944042 0.900482 0.794767
O O8 0.891850 0.779973 0.017133
O O9 0.715576 0.176260 0.149637
O O10 0.808102 0.966639 0.149638
#
# Coordination Sequence:
#
# PCOD8185501 Si02
#       6
#     4   8   8   8   8   4
#     4  10  24  44  72 106 136 182 222 286 342 414
#     4  11  25  46  74 102 139 179 230 280 348 403
#     4  11  25  46  74 102 139 179 230 280 348 403
#     4  12  28  47  70 102 140 181 233 284 335 408
#     4  12  28  47  70 102 140 181 233 284 335 408
#     4  10  24  44  72 106 136 182 222 286 342 414
#
# _framework density 23.930133999999999
#
# number of rings (size 3 to 8) (size 9 to 14) (size 15 to 20)
#    0.000    0.800    4.000    1.200    5.600   12.800 
#    0.000    0.000    0.000    0.000    0.000    0.000 
#    0.000    0.000    0.000    0.000    0.000    0.000 
#
# Total GULP energy -247888.224989 kJ/mol
# GULP energy per Si atom -12394.411249 kJ/mol
# Density = 2.387567 g / cm^3
# Si number density = 23.930134 Si / 1000 Ang^3
#
#
#
# Elastic Constant Matrix: (Units=GPa)
#
#
# Indices 1 2 3 4 5 6 
#
# 1 115.0265 45.6020 25.5982 0.0000 0.0000 0.0000
# 2 45.6020 162.4677 24.3513 0.0000 0.0000 0.0000
# 3 25.5982 24.3513 127.0191 0.0000 0.0000 0.0000
# 4 0.0000 0.0000 0.0000 15.5505 0.0000 0.0000
# 5 0.0000 0.0000 0.0000 0.0000 -19.0462 0.0000
# 6 0.0000 0.0000 0.0000 0.0000 0.0000 51.4338
#
#
#
# Elastic Compliance Matrix: (Units=1/GPa)
#
#
# Indices 1 2 3 4 5 6 
#
# 1 0.010063 -0.002595 -0.001530 0.000000 0.000000 0.000000
# 2 -0.002595 0.007006 -0.000820 0.000000 0.000000 0.000000
# 3 -0.001530 -0.000820 0.008339 0.000000 0.000000 0.000000
# 4 0.000000 0.000000 0.000000 0.064306 0.000000 0.000000
# 5 0.000000 0.000000 0.000000 0.000000 -0.052504 0.000000
# 6 0.000000 0.000000 0.000000 0.000000 0.000000 0.019442
#
#
# Mechanical properties :
#
#
# Convention : Reuss Voigt Hill
#
# Bulk Modulus (GPa) = 64.44835 66.17959 65.31397
# Shear Modulus (GPa) = 69.71864 30.18508 49.95186
#
# Velocity S-wave (km/s) = 5.40347 3.55545 4.57377
# Velocity P-wave (km/s) = 8.11913 6.67610 7.43272
#
# Compressibility (1/GPa) = 0.01551630
#
# Stress axis : x y z
#
# Youngs Moduli (GPa) = 99.37303 142.72614 119.92537
#
# Poissons Ratio (x) = 0.37040 0.18354
# Poissons Ratio (y) = 0.25789 0.09837
# Poissons Ratio (z) = 0.15209 0.11707
#
# Static dielectric constant tensor:
#      x y z
#    x 4.282010 0.000000 0.000000 
#    y 0.000000 4.679530 0.000000 
#    z 0.000000 0.000000 3.836820 
# 
# 
# High freq. dielectric constant tensor:
#      x y z
#    x 1.964740 0.000000 0.000000 
#    y 0.000000 1.974260 0.000000 
#    z 0.000000 0.000000 1.913500 
# 
# From -- ./inp_files/1720.got.cif
#   From: 2010.03.12/outbox.cif.g09.slc.cpg/sg41_1_cif.got.tgz:1720.got - 2010.04.14 01:55:53.
