data_PCOD8185621
_publ_section_title
;
Structure prediction by ZEFSAII (Michael W. Deem and Ramdas Pophale) SiO2 
 PCOD8185621
Probable space group: A B A 2
;
_chemical_formula_sum "Si O2"
_cell_formula_units_Z 60
_cell_length_a 26.316560
_cell_length_b 8.151294
_cell_length_c 12.130896
_cell_angle_alpha 90.000000
_cell_angle_beta 90.000000
_cell_angle_gamma 90.000000
_cell_volume 2602.247238
_symmetry_space_group_name_H-M "A B A 2"
_symmetry_group_IT_number 41
_symmetry_cell_setting 'orthorhombic'
loop_
_space_group_symop_operation_xyz
x,y,z
-x,-y,z
1/2-x,y,1/2+z
1/2+x,-y,1/2+z
x,1/2+y,1/2+z
-x,1/2-y,1/2+z
1/2-x,1/2+y,z
1/2+x,1/2-y,z
loop_
_atom_site_type_symbol
_atom_site_label
_atom_site_fract_x
_atom_site_fract_y
_atom_site_fract_z
Si Si1 0.152070 0.131769 0.240380
Si Si2 0.825015 0.798259 0.867031
Si Si3 0.327615 0.838538 0.444695
Si Si4 0.000000 0.500000 0.921749
Si Si5 0.835614 0.603332 0.084572
Si Si6 0.225942 0.366934 0.662905
Si Si7 0.413910 0.185125 0.053103
Si Si8 0.078204 0.339872 0.777769
O O1 0.179949 0.209403 0.346421
O O2 0.130442 0.265605 0.153595
O O3 0.195011 0.035707 0.172500
O O4 0.105785 0.016665 0.276252
O O5 0.787366 0.748191 0.767492
O O6 0.883833 0.794057 0.829405
O O7 0.812074 0.979944 0.906727
O O8 0.819493 0.664169 0.963702
O O9 0.291741 0.783580 0.547201
O O10 0.387403 0.827523 0.479630
O O11 0.972794 0.639032 0.848237
O O12 0.959363 0.407667 0.995527
O O13 0.784980 0.584789 0.159363
O O14 0.867687 0.437951 0.081270
O O15 0.437667 0.274595 0.158530
#
# Coordination Sequence:
#
# PCOD8185621 Si02
#       8
#     8   8   8   4   8   8   8   8
#     4  11  24  45  74 103 149 199 244 307 373 439
#     4  11  23  51  74 104 154 197 249 310 369 450
#     4  12  24  48  77 105 154 198 244 308 371 451
#     4  12  26  50  80 108 150 198 248 324 390 440
#     4  12  26  46  78 107 156 202 252 308 381 450
#     4  11  27  46  70 112 151 200 252 300 374 444
#     4  12  25  50  79 110 151 196 251 319 379 455
#     4  11  24  51  75 105 146 188 251 312 379 445
#
# _framework density 23.056995000000001
#
# number of rings (size 3 to 8) (size 9 to 14) (size 15 to 20)
#    0.000    0.533    6.667    1.600    3.733    1.067 
#    7.200    0.000    0.000    0.000    0.000    0.000 
#    0.000    0.000    0.000    0.000    0.000    0.000 
#
# Total GULP energy -372018.037359 kJ/mol
# GULP energy per Si atom -12400.601245 kJ/mol
# Density = 2.300452 g / cm^3
# Si number density = 23.056995 Si / 1000 Ang^3
#
#
#
# Elastic Constant Matrix: (Units=GPa)
#
#
# Indices 1 2 3 4 5 6 
#
# 1 126.9704 26.1261 37.5785 0.0000 0.0000 0.0000
# 2 26.1261 95.7154 44.6294 0.0000 0.0000 0.0000
# 3 37.5785 44.6294 146.1767 0.0000 0.0000 0.0000
# 4 0.0000 0.0000 0.0000 48.1388 0.0000 0.0000
# 5 0.0000 0.0000 0.0000 0.0000 25.6796 0.0000
# 6 0.0000 0.0000 0.0000 0.0000 0.0000 19.0637
#
#
#
# Elastic Compliance Matrix: (Units=1/GPa)
#
#
# Indices 1 2 3 4 5 6 
#
# 1 0.008719 -0.001556 -0.001766 0.000000 0.000000 0.000000
# 2 -0.001556 0.012460 -0.003404 0.000000 0.000000 0.000000
# 3 -0.001766 -0.003404 0.008334 0.000000 0.000000 0.000000
# 4 0.000000 0.000000 0.000000 0.020773 0.000000 0.000000
# 5 0.000000 0.000000 0.000000 0.000000 0.038941 0.000000
# 6 0.000000 0.000000 0.000000 0.000000 0.000000 0.052456
#
#
# Mechanical properties :
#
#
# Convention : Reuss Voigt Hill
#
# Bulk Modulus (GPa) = 62.26740 65.05894 63.66317
# Shear Modulus (GPa) = 31.15467 35.94498 33.54982
#
# Velocity S-wave (km/s) = 3.67986 3.95265 3.81869
# Velocity P-wave (km/s) = 6.71711 7.00779 6.86399
#
# Compressibility (1/GPa) = 0.01605977
#
# Stress axis : x y z
#
# Youngs Moduli (GPa) = 114.69434 80.25922 119.98510
#
# Poissons Ratio (x) = 0.12491 0.21192
# Poissons Ratio (y) = 0.17850 0.40843
# Poissons Ratio (z) = 0.20258 0.27320
#
# Static dielectric constant tensor:
#      x y z
#    x 4.107110 0.000000 0.000000 
#    y 0.000000 4.197080 0.000000 
#    z 0.000000 0.000000 4.570820 
# 
# 
# High freq. dielectric constant tensor:
#      x y z
#    x 1.883030 0.000000 0.000000 
#    y 0.000000 1.915170 0.000000 
#    z 0.000000 0.000000 1.939140 
# 
# From -- ./inp_files/6583.got.cif
#   From: 2010.03.12/outbox.cif.g09.slc.cpg/sg41_4_cif.got.tgz:6583.got - 2010.04.14 01:55:53.
