data_PCOD8185391
_publ_section_title
;
Structure prediction by ZEFSAII (Michael W. Deem and Ramdas Pophale) SiO2 
 PCOD8185391
Probable space group: A B A 2
;
_chemical_formula_sum "Si O2"
_cell_formula_units_Z 60
_cell_length_a 24.142145
_cell_length_b 22.276764
_cell_length_c 5.108042
_cell_angle_alpha 90.000000
_cell_angle_beta 90.000000
_cell_angle_gamma 90.000000
_cell_volume 2747.150279
_symmetry_space_group_name_H-M "A B A 2"
_symmetry_group_IT_number 41
_symmetry_cell_setting 'orthorhombic'
loop_
_space_group_symop_operation_xyz
x,y,z
-x,-y,z
1/2-x,y,1/2+z
1/2+x,-y,1/2+z
x,1/2+y,1/2+z
-x,1/2-y,1/2+z
1/2-x,1/2+y,z
1/2+x,1/2-y,z
loop_
_atom_site_type_symbol
_atom_site_label
_atom_site_fract_x
_atom_site_fract_y
_atom_site_fract_z
Si Si1 0.117842 0.816268 0.004410
Si Si2 0.394160 0.520768 0.564415
Si Si3 0.020746 0.597012 0.802092
Si Si4 0.000000 0.500000 0.418365
Si Si5 0.409953 0.390718 0.510052
Si Si6 0.712457 0.402709 0.616388
Si Si7 0.971404 0.768682 0.288246
Si Si8 0.284646 0.731527 0.549740
O O1 0.092620 0.849815 0.252093
O O2 0.120322 0.860949 0.757784
O O3 0.082035 0.758703 0.925122
O O4 0.175651 0.788141 0.095951
O O5 0.421035 0.563649 0.346595
O O6 0.442572 0.512735 0.774502
O O7 0.379055 0.454305 0.458453
O O8 0.338616 0.552383 0.667287
O O9 0.986629 0.559266 0.588616
O O10 0.037482 0.662763 0.703424
O O11 0.977140 0.598932 0.050469
O O12 0.756513 0.415163 0.844624
O O13 0.689004 0.334180 0.610706
O O14 0.018219 0.766384 0.516173
O O15 0.233469 0.737467 0.748270
#
# Coordination Sequence:
#
# PCOD8185391 Si02
#       8
#     8   8   8   4   8   8   8   8
#     4  12  24  44  65  98 136 184 216 289 348 410
#     4  12  26  44  71 105 141 196 240 292 349 434
#     4  12  24  41  65 100 139 192 225 283 347 415
#     4  12  24  42  70 100 148 186 246 278 356 430
#     4  12  24  42  66  97 145 179 225 276 348 416
#     4  10  25  48  75 103 138 180 240 311 354 405
#     4  12  25  40  63  95 138 172 222 277 335 416
#     4  10  22  46  73  99 130 175 239 295 351 412
#
# _framework density 21.840817000000001
#
# number of rings (size 3 to 8) (size 9 to 14) (size 15 to 20)
#    0.000    0.533    5.333    2.400    3.733    0.000 
#    4.800    4.000    0.000    0.000    0.000    0.000 
#    0.000    0.000    0.000    0.000    0.000    0.000 
#
# Total GULP energy -371860.251664 kJ/mol
# GULP energy per Si atom -12395.341722 kJ/mol
# Density = 2.179111 g / cm^3
# Si number density = 21.840817 Si / 1000 Ang^3
#
#
#
# Elastic Constant Matrix: (Units=GPa)
#
#
# Indices 1 2 3 4 5 6 
#
# 1 93.2511 55.3226 21.4931 0.0000 0.0000 0.0000
# 2 55.3226 152.3038 41.2827 0.0000 0.0000 0.0000
# 3 21.4931 41.2827 103.3836 0.0000 0.0000 0.0000
# 4 0.0000 0.0000 0.0000 21.5584 0.0000 0.0000
# 5 0.0000 0.0000 0.0000 0.0000 20.2906 0.0000
# 6 0.0000 0.0000 0.0000 0.0000 0.0000 40.3408
#
#
#
# Elastic Compliance Matrix: (Units=1/GPa)
#
#
# Indices 1 2 3 4 5 6 
#
# 1 0.013756 -0.004734 -0.000969 0.000000 0.000000 0.000000
# 2 -0.004734 0.008992 -0.002606 0.000000 0.000000 0.000000
# 3 -0.000969 -0.002606 0.010915 0.000000 0.000000 0.000000
# 4 0.000000 0.000000 0.000000 0.046386 0.000000 0.000000
# 5 0.000000 0.000000 0.000000 0.000000 0.049284 0.000000
# 6 0.000000 0.000000 0.000000 0.000000 0.000000 0.024789
#
#
# Mechanical properties :
#
#
# Convention : Reuss Voigt Hill
#
# Bulk Modulus (GPa) = 58.67483 65.01501 61.84492
# Shear Modulus (GPa) = 28.34126 31.82729 30.08428
#
# Velocity S-wave (km/s) = 3.60617 3.82152 3.71541
# Velocity P-wave (km/s) = 6.65300 7.02170 6.83983
#
# Compressibility (1/GPa) = 0.01704308
#
# Stress axis : x y z
#
# Youngs Moduli (GPa) = 72.69783 111.21243 91.61665
#
# Poissons Ratio (x) = 0.52645 0.08882
# Poissons Ratio (y) = 0.34414 0.23879
# Poissons Ratio (z) = 0.07048 0.28987
#
# Static dielectric constant tensor:
#      x y z
#    x 3.596060 0.000000 0.000000 
#    y 0.000000 4.419470 0.000000 
#    z 0.000000 0.000000 3.942250 
# 
# 
# High freq. dielectric constant tensor:
#      x y z
#    x 1.828410 0.000000 0.000000 
#    y 0.000000 1.882100 0.000000 
#    z 0.000000 0.000000 1.862690 
# 
# From -- ./inp_files/1011.got.cif
#   From: 2010.03.12/outbox.cif.g09.slc.cpg/sg41_1_cif.got.tgz:1011.got - 2010.04.14 01:55:53.
