data_PCOD8185817
_publ_section_title
;
Structure prediction by ZEFSAII (Michael W. Deem and Ramdas Pophale) SiO2 
 PCOD8185817
Probable space group: F M M 2
;
_chemical_formula_sum "Si O2"
_cell_formula_units_Z 96
_cell_length_a 17.635446
_cell_length_b 13.586431
_cell_length_c 23.718281
_cell_angle_alpha 90.000000
_cell_angle_beta 90.000000
_cell_angle_gamma 90.000000
_cell_volume 5682.965833
_symmetry_space_group_name_H-M "F M M 2"
_symmetry_group_IT_number 42
_symmetry_cell_setting 'orthorhombic'
loop_
_space_group_symop_operation_xyz
x,y,z
-x,-y,z
-x,y,z
x,-y,z
x,1/2+y,1/2+z
-x,1/2-y,1/2+z
-x,1/2+y,1/2+z
x,1/2-y,1/2+z
1/2+x,y,1/2+z
1/2-x,-y,1/2+z
1/2-x,y,1/2+z
1/2+x,-y,1/2+z
1/2+x,1/2+y,z
1/2-x,1/2-y,z
1/2-x,1/2+y,z
1/2+x,1/2-y,z
loop_
_atom_site_type_symbol
_atom_site_label
_atom_site_fract_x
_atom_site_fract_y
_atom_site_fract_z
Si Si1 0.589543 0.889664 0.193090
Si Si2 0.859759 0.386674 0.512776
Si Si3 0.686409 0.386534 0.487575
Si Si4 0.586005 0.741839 0.920010
Si Si5 0.910004 0.390792 0.319530
Si Si6 0.164648 0.229282 0.596973
O O1 0.500000 0.886926 0.189231
O O2 0.616684 0.863117 0.256394
O O3 0.621126 0.806905 0.151783
O O4 0.618333 0.000000 0.177285
O O5 0.876388 0.500000 0.524042
O O6 0.776292 0.365686 0.486488
O O7 0.918155 0.343129 0.467631
O O8 0.869873 0.331172 0.572605
O O9 0.667297 0.500000 0.478914
O O10 0.643141 0.328799 0.437765
O O11 0.655912 0.352940 0.548421
O O12 0.500000 0.782281 0.911956
O O13 0.619004 0.692430 0.862835
O O14 0.878457 0.500000 0.335655
O O15 0.000000 0.394827 0.322450
O O16 0.250000 0.250000 0.615680
#
# Coordination Sequence:
#
# PCOD8185817 Si02
#       6
#    16  16  16  16  16  16
#     4   9  17  30  49  70  90 115 150 191 230 265
#     4   9  18  32  47  63  89 124 152 176 216 271
#     4   9  18  32  47  64  91 123 149 176 219 273
#     4  10  18  28  46  70  92 114 146 188 226 262
#     4   8  15  28  45  66  92 120 148 182 227 271
#     4   9  17  29  45  67  92 119 147 180 224 270
#
# _framework density 16.892588
#
# number of rings (size 3 to 8) (size 9 to 14) (size 15 to 20)
#    0.000    3.000    0.000    3.500    0.000    4.667 
#    0.000    1.667    0.000    1.000    0.000    2.333 
#    0.000    0.000    0.000    0.000    0.000    0.000 
#
# Total GULP energy -297462.834487 kJ/mol
# GULP energy per Si atom -12394.284770 kJ/mol
# Density = 1.685414 g / cm^3
# Si number density = 16.892588 Si / 1000 Ang^3
#
#
#
# Elastic Constant Matrix: (Units=GPa)
#
#
# Indices 1 2 3 4 5 6 
#
# 1 29.6496 24.2298 22.4669 0.0000 0.0000 0.0000
# 2 24.2298 112.4841 54.6713 0.0000 0.0000 0.0000
# 3 22.4669 54.6713 96.2238 0.0000 0.0000 0.0000
# 4 0.0000 0.0000 0.0000 31.7825 0.0000 0.0000
# 5 0.0000 0.0000 0.0000 0.0000 16.7111 0.0000
# 6 0.0000 0.0000 0.0000 0.0000 0.0000 25.1175
#
#
#
# Elastic Compliance Matrix: (Units=1/GPa)
#
#
# Indices 1 2 3 4 5 6 
#
# 1 0.043880 -0.006179 -0.006735 0.000000 0.000000 0.000000
# 2 -0.006179 0.013152 -0.006030 0.000000 0.000000 0.000000
# 3 -0.006735 -0.006030 0.015391 0.000000 0.000000 0.000000
# 4 0.000000 0.000000 0.000000 0.031464 0.000000 0.000000
# 5 0.000000 0.000000 0.000000 0.000000 0.059841 0.000000
# 6 0.000000 0.000000 0.000000 0.000000 0.000000 0.039813
#
#
# Mechanical properties :
#
#
# Convention : Reuss Voigt Hill
#
# Bulk Modulus (GPa) = 28.95533 49.01038 38.98286
# Shear Modulus (GPa) = 19.76768 23.85484 21.81126
#
# Velocity S-wave (km/s) = 3.42453 3.76193 3.59719
# Velocity P-wave (km/s) = 5.72840 6.92427 6.35453
#
# Compressibility (1/GPa) = 0.03453595
#
# Stress axis : x y z
#
# Youngs Moduli (GPa) = 22.78954 76.03545 64.97366
#
# Poissons Ratio (x) = 0.46980 0.43758
# Poissons Ratio (y) = 0.14081 0.39178
# Poissons Ratio (z) = 0.15348 0.45848
#
# Static dielectric constant tensor:
#      x y z
#    x 2.935290 0.000000 0.000000 
#    y 0.000000 3.264650 0.000000 
#    z 0.000000 0.000000 3.182150 
# 
# 
# High freq. dielectric constant tensor:
#      x y z
#    x 1.626990 0.000000 0.000000 
#    y 0.000000 1.649270 0.000000 
#    z 0.000000 0.000000 1.641240 
# 
# From -- ./inp_files/25352.got.cif
#   From: 2010.03.12/outbox.cif.g09.slc.cpg/sg42_13_cif.got.tgz:25352.got - 2010.04.14 02:04:31.
