data_PCOD8185889
_publ_section_title
;
Structure prediction by ZEFSAII (Michael W. Deem and Ramdas Pophale) SiO2 
 PCOD8185889
Probable space group: F M M 2
;
_chemical_formula_sum "Si O2"
_cell_formula_units_Z 128
_cell_length_a 19.268194
_cell_length_b 18.484466
_cell_length_c 21.191778
_cell_angle_alpha 90.000000
_cell_angle_beta 90.000000
_cell_angle_gamma 90.000000
_cell_volume 7547.711903
_symmetry_space_group_name_H-M "F M M 2"
_symmetry_group_IT_number 42
_symmetry_cell_setting 'orthorhombic'
loop_
_space_group_symop_operation_xyz
x,y,z
-x,-y,z
-x,y,z
x,-y,z
x,1/2+y,1/2+z
-x,1/2-y,1/2+z
-x,1/2+y,1/2+z
x,1/2-y,1/2+z
1/2+x,y,1/2+z
1/2-x,-y,1/2+z
1/2-x,y,1/2+z
1/2+x,-y,1/2+z
1/2+x,1/2+y,z
1/2-x,1/2-y,z
1/2-x,1/2+y,z
1/2+x,1/2-y,z
loop_
_atom_site_type_symbol
_atom_site_label
_atom_site_fract_x
_atom_site_fract_y
_atom_site_fract_z
Si Si1 0.576629 0.417075 0.997630
Si Si2 0.701968 0.914636 0.679034
Si Si3 0.298032 0.414636 0.559444
Si Si4 0.423371 0.582925 0.740849
Si Si5 0.578728 0.832587 0.626225
Si Si6 0.921272 0.667413 0.112254
Si Si7 0.783891 0.085359 0.800598
Si Si8 0.283891 0.585359 0.937881
O O1 0.500000 0.406416 0.967395
O O2 0.587991 0.500000 0.019263
O O3 0.635028 0.394288 0.947471
O O4 0.585661 0.368841 0.058678
O O5 0.750000 0.895004 0.619239
O O6 0.628823 0.873468 0.675017
O O7 0.737893 0.884427 0.742961
O O8 0.688198 0.000000 0.682022
O O9 0.311801 0.500000 0.556456
O O10 0.371177 0.373468 0.563462
O O11 0.262107 0.384427 0.495518
O O12 0.500000 0.593583 0.771083
O O13 0.412009 0.500000 0.719215
O O14 0.414340 0.631159 0.679801
O O15 0.364972 0.605712 0.791007
O O16 0.500000 0.837963 0.652281
O O17 0.602410 0.750000 0.619239
O O18 0.000000 0.662037 0.086197
O O19 0.761101 0.117199 0.869239
O O20 0.775130 0.000000 0.801563
O O21 0.275130 0.500000 0.936916
#
# Coordination Sequence:
#
# PCOD8185889 Si02
#       8
#    16  16  16  16  16  16  16  16
#     4   9  16  28  47  70  97 128 161 197 242 293
#     4  10  18  31  51  74  98 127 160 195 239 287
#     4  10  18  31  51  74  98 127 160 195 239 287
#     4   9  16  28  47  70  97 128 161 197 242 293
#     4  10  20  32  48  72  99 126 161 203 244 284
#     4  10  20  32  48  72  99 126 161 203 244 284
#     4   9  17  29  46  71 101 128 157 198 243 286
#     4   9  17  29  46  71 101 128 157 198 243 286
#
# _framework density 16.958781999999999
#
# number of rings (size 3 to 8) (size 9 to 14) (size 15 to 20)
#    0.000    2.500    2.500    0.750    0.000    2.500 
#    0.000    2.500    0.000    3.750    0.000    7.000 
#    0.000    0.000    0.000    0.000    0.000    0.000 
#
# Total GULP energy -396635.346346 kJ/mol
# GULP energy per Si atom -12394.854573 kJ/mol
# Density = 1.692018 g / cm^3
# Si number density = 16.958782 Si / 1000 Ang^3
#
#
#
# Elastic Constant Matrix: (Units=GPa)
#
#
# Indices 1 2 3 4 5 6 
#
# 1 113.9161 36.2358 63.4195 0.0000 0.0000 0.0000
# 2 36.2358 51.8411 26.7234 0.0000 0.0000 0.0000
# 3 63.4195 26.7234 125.6020 0.0000 0.0000 0.0000
# 4 0.0000 0.0000 0.0000 4.5721 0.0000 0.0000
# 5 0.0000 0.0000 0.0000 0.0000 20.6768 0.0000
# 6 0.0000 0.0000 0.0000 0.0000 0.0000 16.4188
#
#
#
# Elastic Compliance Matrix: (Units=1/GPa)
#
#
# Indices 1 2 3 4 5 6 
#
# 1 0.014147 -0.006971 -0.005660 0.000000 0.000000 0.000000
# 2 -0.006971 0.025101 -0.001821 0.000000 0.000000 0.000000
# 3 -0.005660 -0.001821 0.011207 0.000000 0.000000 0.000000
# 4 0.000000 0.000000 0.000000 0.218717 0.000000 0.000000
# 5 0.000000 0.000000 0.000000 0.000000 0.048363 0.000000
# 6 0.000000 0.000000 0.000000 0.000000 0.000000 0.060906
#
#
# Mechanical properties :
#
#
# Convention : Reuss Voigt Hill
#
# Bulk Modulus (GPa) = 46.40054 60.45741 53.42897
# Shear Modulus (GPa) = 12.06193 19.33223 15.69708
#
# Velocity S-wave (km/s) = 2.66982 3.37998 3.04567
# Velocity P-wave (km/s) = 6.07652 7.13858 6.62886
#
# Compressibility (1/GPa) = 0.02155147
#
# Stress axis : x y z
#
# Youngs Moduli (GPa) = 70.68794 39.83955 89.23081
#
# Poissons Ratio (x) = 0.27771 0.50504
# Poissons Ratio (y) = 0.49274 0.16248
# Poissons Ratio (z) = 0.40009 0.07254
#
# Static dielectric constant tensor:
#      x y z
#    x 3.437770 0.000000 0.000000 
#    y 0.000000 3.011510 0.000000 
#    z 0.000000 0.000000 3.272840 
# 
# 
# High freq. dielectric constant tensor:
#      x y z
#    x 1.661320 0.000000 0.000000 
#    y 0.000000 1.624360 0.000000 
#    z 0.000000 0.000000 1.634910 
# 
# From -- ./inp_files/21931.got.cif
#   From: 2010.03.12/outbox.cif.g09.slc.cpg/sg42_11_cif.got.tgz:21931.got - 2010.04.14 02:04:31.
