data_PCOD8185594
_publ_section_title
;
Structure prediction by ZEFSAII (Michael W. Deem and Ramdas Pophale) SiO2 
 PCOD8185594
Probable space group: A B A 2
;
_chemical_formula_sum "Si O2"
_cell_formula_units_Z 64
_cell_length_a 8.426185
_cell_length_b 29.855914
_cell_length_c 11.512435
_cell_angle_alpha 90.000000
_cell_angle_beta 90.000000
_cell_angle_gamma 90.000000
_cell_volume 2896.200020
_symmetry_space_group_name_H-M "A B A 2"
_symmetry_group_IT_number 41
_symmetry_cell_setting 'orthorhombic'
loop_
_space_group_symop_operation_xyz
x,y,z
-x,-y,z
1/2-x,y,1/2+z
1/2+x,-y,1/2+z
x,1/2+y,1/2+z
-x,1/2-y,1/2+z
1/2-x,1/2+y,z
1/2+x,1/2-y,z
loop_
_atom_site_type_symbol
_atom_site_label
_atom_site_fract_x
_atom_site_fract_y
_atom_site_fract_z
Si Si1 0.444520 0.547259 0.368320
Si Si2 0.431371 0.048421 0.357418
Si Si3 0.951551 0.302726 0.387336
Si Si4 0.180620 0.793008 0.438237
Si Si5 0.606797 0.133546 0.762726
Si Si6 0.089874 0.617784 0.541755
Si Si7 0.414804 0.579754 0.607792
Si Si8 0.075916 0.336437 0.161177
O O1 0.500000 0.500000 0.315064
O O2 0.258184 0.553063 0.349098
O O3 0.552674 0.585665 0.311907
O O4 0.473320 0.546692 0.506869
O O5 0.500190 0.082863 0.454228
O O6 0.485665 0.061184 0.228030
O O7 0.500000 0.000000 0.390839
O O8 0.132596 0.300265 0.428216
O O9 0.950283 0.314727 0.250604
O O10 0.857874 0.257025 0.401135
O O11 0.856045 0.340772 0.459914
O O12 0.077449 0.826627 0.356146
O O13 0.141549 0.798658 0.574520
O O14 0.518145 0.140153 0.640301
O O15 0.792277 0.136106 0.733586
O O16 0.225791 0.588309 0.603649
O O17 0.486983 0.628221 0.580416
#
# Coordination Sequence:
#
# PCOD8185594 Si02
#       8
#     8   8   8   8   8   8   8   8
#     4  11  25  43  66 100 134 178 224 283 343 403
#     4  11  25  43  68 102 135 176 229 280 340 416
#     4  11  26  43  67 102 134 177 225 279 345 403
#     4  11  26  43  68 102 136 176 227 283 336 412
#     4  11  24  46  67  96 139 176 230 278 343 407
#     4  11  24  45  68  96 138 176 225 281 343 404
#     4  11  23  44  69  97 132 176 226 273 342 401
#     4  11  24  43  72  97 133 182 223 278 343 399
#
# _framework density 22.097920999999999
#
# number of rings (size 3 to 8) (size 9 to 14) (size 15 to 20)
#    0.000    1.000    5.000    0.375    5.250    2.500 
#    0.000    0.000    0.000    0.000    0.000    0.000 
#    0.000    0.000    0.000    0.000    0.000    0.000 
#
# Total GULP energy -396647.023806 kJ/mol
# GULP energy per Si atom -12395.219494 kJ/mol
# Density = 2.204763 g / cm^3
# Si number density = 22.097921 Si / 1000 Ang^3
#
#
#
# Elastic Constant Matrix: (Units=GPa)
#
#
# Indices 1 2 3 4 5 6 
#
# 1 29.0483 12.3912 11.2636 0.0000 0.0000 0.0000
# 2 12.3912 145.2450 35.7612 0.0000 0.0000 0.0000
# 3 11.2636 35.7612 105.5944 0.0000 0.0000 0.0000
# 4 0.0000 0.0000 0.0000 30.5548 0.0000 0.0000
# 5 0.0000 0.0000 0.0000 0.0000 25.5464 0.0000
# 6 0.0000 0.0000 0.0000 0.0000 0.0000 33.8823
#
#
#
# Elastic Compliance Matrix: (Units=1/GPa)
#
#
# Indices 1 2 3 4 5 6 
#
# 1 0.036638 -0.002360 -0.003109 0.000000 0.000000 0.000000
# 2 -0.002360 0.007663 -0.002344 0.000000 0.000000 0.000000
# 3 -0.003109 -0.002344 0.010595 0.000000 0.000000 0.000000
# 4 0.000000 0.000000 0.000000 0.032728 0.000000 0.000000
# 5 0.000000 0.000000 0.000000 0.000000 0.039144 0.000000
# 6 0.000000 0.000000 0.000000 0.000000 0.000000 0.029514
#
#
# Mechanical properties :
#
#
# Convention : Reuss Voigt Hill
#
# Bulk Modulus (GPa) = 25.46382 44.30218 34.88300
# Shear Modulus (GPa) = 27.02724 32.69480 29.86102
#
# Velocity S-wave (km/s) = 3.50103 3.85065 3.68000
# Velocity P-wave (km/s) = 5.28121 6.31361 5.82035
#
# Compressibility (1/GPa) = 0.03927141
#
# Stress axis : x y z
#
# Youngs Moduli (GPa) = 27.29428 130.49240 94.37984
#
# Poissons Ratio (x) = 0.30799 0.29341
# Poissons Ratio (y) = 0.06442 0.22118
# Poissons Ratio (z) = 0.08485 0.30581
#
# Static dielectric constant tensor:
#      x y z
#    x 3.730330 0.000000 0.000000 
#    y 0.000000 3.940590 0.000000 
#    z 0.000000 0.000000 4.230950 
# 
# 
# High freq. dielectric constant tensor:
#      x y z
#    x 1.851440 0.000000 0.000000 
#    y 0.000000 1.870660 0.000000 
#    z 0.000000 0.000000 1.889000 
# 
# From -- ./inp_files/4622.got.cif
#   From: 2010.03.12/outbox.cif.g09.slc.cpg/sg41_3_cif.got.tgz:4622.got - 2010.04.14 01:55:53.
