data_PCOD8185991
_publ_section_title
;
Structure prediction by ZEFSAII (Michael W. Deem and Ramdas Pophale) SiO2 
 PCOD8185991
Probable space group: F M M 2
;
_chemical_formula_sum "Si O2"
_cell_formula_units_Z 80
_cell_length_a 9.013396
_cell_length_b 28.681848
_cell_length_c 19.764301
_cell_angle_alpha 90.000000
_cell_angle_beta 90.000000
_cell_angle_gamma 90.000000
_cell_volume 5109.483974
_symmetry_space_group_name_H-M "F M M 2"
_symmetry_group_IT_number 42
_symmetry_cell_setting 'orthorhombic'
loop_
_space_group_symop_operation_xyz
x,y,z
-x,-y,z
-x,y,z
x,-y,z
x,1/2+y,1/2+z
-x,1/2-y,1/2+z
-x,1/2+y,1/2+z
x,1/2-y,1/2+z
1/2+x,y,1/2+z
1/2-x,-y,1/2+z
1/2-x,y,1/2+z
1/2+x,-y,1/2+z
1/2+x,1/2+y,z
1/2-x,1/2-y,z
1/2-x,1/2+y,z
1/2+x,1/2-y,z
loop_
_atom_site_type_symbol
_atom_site_label
_atom_site_fract_x
_atom_site_fract_y
_atom_site_fract_z
Si Si1 0.832263 0.129095 0.953830
Si Si2 0.167547 0.625935 0.305044
Si Si3 0.825964 0.297819 0.047110
Si Si4 0.326413 0.202657 0.202796
Si Si5 0.325128 0.553551 0.381424
O O1 0.832821 0.152113 0.878438
O O2 0.754657 0.078020 0.946266
O O3 0.000000 0.123550 0.981466
O O4 0.737278 0.159698 0.004633
O O5 0.235285 0.660191 0.248394
O O6 0.268373 0.579207 0.312301
O O7 0.000000 0.611041 0.285258
O O8 0.750000 0.250000 0.023254
O O9 0.787981 0.308257 0.125140
O O10 0.000000 0.293088 0.034387
O O11 0.500000 0.208918 0.214889
O O12 0.250000 0.250000 0.227198
O O13 0.500000 0.559453 0.388403
O O14 0.276483 0.500000 0.378687
#
# Coordination Sequence:
#
# PCOD8185991 Si02
#       5
#    16  16  16  16  16
#     4   9  18  31  48  70  95 121 154 192 231 276
#     4   8  17  31  47  69  94 121 155 190 229 275
#     4  10  19  31  48  67  95 128 159 191 227 272
#     4   9  18  32  47  67  94 127 159 188 224 270
#     4   9  17  30  49  72  94 117 150 191 237 282
#
# _framework density 15.657158000000001
#
# number of rings (size 3 to 8) (size 9 to 14) (size 15 to 20)
#    1.200    1.800    0.000    1.200    0.000    4.000 
#    0.000    2.000    0.000    1.200    0.000    2.800 
#    0.000    0.000    0.000    0.000    0.000    0.000 
#
# Total GULP energy -247809.047758 kJ/mol
# GULP energy per Si atom -12390.452388 kJ/mol
# Density = 1.562152 g / cm^3
# Si number density = 15.657158 Si / 1000 Ang^3
#
#
#
# Elastic Constant Matrix: (Units=GPa)
#
#
# Indices 1 2 3 4 5 6 
#
# 1 79.5467 59.5063 32.1412 0.0000 0.0000 0.0000
# 2 59.5063 141.3959 57.8977 0.0000 0.0000 0.0000
# 3 32.1412 57.8977 55.2883 0.0000 0.0000 0.0000
# 4 0.0000 0.0000 0.0000 6.5518 0.0000 0.0000
# 5 0.0000 0.0000 0.0000 0.0000 15.7734 0.0000
# 6 0.0000 0.0000 0.0000 0.0000 0.0000 29.9752
#
#
#
# Elastic Compliance Matrix: (Units=1/GPa)
#
#
# Indices 1 2 3 4 5 6 
#
# 1 0.019015 -0.006086 -0.004681 0.000000 0.000000 0.000000
# 2 -0.006086 0.014329 -0.011468 0.000000 0.000000 0.000000
# 3 -0.004681 -0.011468 0.032817 0.000000 0.000000 0.000000
# 4 0.000000 0.000000 0.000000 0.152630 0.000000 0.000000
# 5 0.000000 0.000000 0.000000 0.000000 0.063398 0.000000
# 6 0.000000 0.000000 0.000000 0.000000 0.000000 0.033361
#
#
# Mechanical properties :
#
#
# Convention : Reuss Voigt Hill
#
# Bulk Modulus (GPa) = 46.09922 63.92459 55.01190
# Shear Modulus (GPa) = 13.61467 18.90579 16.26023
#
# Velocity S-wave (km/s) = 2.95201 3.47866 3.22610
# Velocity P-wave (km/s) = 6.41295 7.55322 7.00632
#
# Compressibility (1/GPa) = 0.02169234
#
# Stress axis : x y z
#
# Youngs Moduli (GPa) = 52.58936 69.78803 30.47173
#
# Poissons Ratio (x) = 0.42470 0.14265
# Poissons Ratio (y) = 0.32004 0.34944
# Poissons Ratio (z) = 0.24620 0.80030
#
# Static dielectric constant tensor:
#      x y z
#    x 3.014590 0.000000 0.000000 
#    y 0.000000 2.877840 0.000000 
#    z 0.000000 0.000000 2.850340 
# 
# 
# High freq. dielectric constant tensor:
#      x y z
#    x 1.612580 0.000000 0.000000 
#    y 0.000000 1.585580 0.000000 
#    z 0.000000 0.000000 1.578580 
# 
# From -- ./inp_files/18305.got.cif
#   From: 2010.03.12/outbox.cif.g09.slc.cpg/sg42_10_cif.got.tgz:18305.got - 2010.04.14 02:04:31.
