data_PCOD8185866
_publ_section_title
;
Structure prediction by ZEFSAII (Michael W. Deem and Ramdas Pophale) SiO2 
 PCOD8185866
Probable space group: F M M 2
;
_chemical_formula_sum "Si O2"
_cell_formula_units_Z 128
_cell_length_a 18.427655
_cell_length_b 19.227402
_cell_length_c 20.243117
_cell_angle_alpha 90.000000
_cell_angle_beta 90.000000
_cell_angle_gamma 90.000000
_cell_volume 7172.458838
_symmetry_space_group_name_H-M "F M M 2"
_symmetry_group_IT_number 42
_symmetry_cell_setting 'orthorhombic'
loop_
_space_group_symop_operation_xyz
x,y,z
-x,-y,z
-x,y,z
x,-y,z
x,1/2+y,1/2+z
-x,1/2-y,1/2+z
-x,1/2+y,1/2+z
x,1/2-y,1/2+z
1/2+x,y,1/2+z
1/2-x,-y,1/2+z
1/2-x,y,1/2+z
1/2+x,-y,1/2+z
1/2+x,1/2+y,z
1/2-x,1/2-y,z
1/2-x,1/2+y,z
1/2+x,1/2-y,z
loop_
_atom_site_type_symbol
_atom_site_label
_atom_site_fract_x
_atom_site_fract_y
_atom_site_fract_z
Si Si1 0.292329 0.575587 0.095010
Si Si2 0.189413 0.421824 0.212030
Si Si3 0.415195 0.200558 0.833150
Si Si4 0.668349 0.274407 0.459106
Si Si5 0.694601 0.921457 0.818557
Si Si6 0.710244 0.076064 0.965116
Si Si7 0.915911 0.299475 0.210891
Si Si8 0.332860 0.723493 0.098212
O O1 0.329306 0.500000 0.110831
O O2 0.217535 0.581245 0.136539
O O3 0.341692 0.641229 0.114848
O O4 0.276384 0.580181 0.016737
O O5 0.166657 0.500000 0.231646
O O6 0.252659 0.394643 0.260922
O O7 0.119817 0.374194 0.221967
O O8 0.500000 0.185916 0.842568
O O9 0.383804 0.240412 0.897331
O O10 0.376124 0.127000 0.821162
O O11 0.398672 0.250271 0.772108
O O12 0.750000 0.250000 0.440572
O O13 0.660655 0.356595 0.477989
O O14 0.640674 0.233191 0.523037
O O15 0.737364 0.918441 0.888907
O O16 0.668408 0.000000 0.803011
O O17 0.670679 0.000000 0.974490
O O18 0.885542 0.264731 0.145239
O O19 0.000000 0.312812 0.201011
O O20 0.250000 0.750000 0.106486
#
# Coordination Sequence:
#
# PCOD8185866 Si02
#       8
#    16  16  16  16  16  16  16  16
#     4  10  18  30  51  80 108 132 170 222 266 307
#     4  10  20  34  54  79 104 138 180 221 265 317
#     4  10  23  36  51  78 110 144 179 217 270 324
#     4  10  19  32  53  80 103 136 181 219 266 317
#     4   9  19  33  54  80 104 138 181 219 263 315
#     4   9  16  28  46  75 107 128 160 215 262 309
#     4  11  24  37  52  78 109 144 179 218 273 328
#     4  11  19  34  56  82 105 138 179 223 266 313
#
# _framework density 17.846042000000001
#
# number of rings (size 3 to 8) (size 9 to 14) (size 15 to 20)
#    0.000    2.000    3.750    0.750    3.500    1.000 
#    0.000    0.000    0.000    1.125    0.000    5.250 
#    0.000    0.000    0.000    0.250    0.000    0.000 
#
# Total GULP energy -396568.088058 kJ/mol
# GULP energy per Si atom -12392.752752 kJ/mol
# Density = 1.780542 g / cm^3
# Si number density = 17.846042 Si / 1000 Ang^3
#
#
#
# Elastic Constant Matrix: (Units=GPa)
#
#
# Indices 1 2 3 4 5 6 
#
# 1 78.9218 50.0369 54.0339 0.0000 0.0000 0.0000
# 2 50.0369 118.7429 34.3987 0.0000 0.0000 0.0000
# 3 54.0339 34.3987 102.7777 0.0000 0.0000 0.0000
# 4 0.0000 0.0000 0.0000 24.2176 0.0000 0.0000
# 5 0.0000 0.0000 0.0000 0.0000 20.0374 0.0000
# 6 0.0000 0.0000 0.0000 0.0000 0.0000 22.3831
#
#
#
# Elastic Compliance Matrix: (Units=1/GPa)
#
#
# Indices 1 2 3 4 5 6 
#
# 1 0.024394 -0.007269 -0.010392 0.000000 0.000000 0.000000
# 2 -0.007269 0.011492 -0.000025 0.000000 0.000000 0.000000
# 3 -0.010392 -0.000025 0.015201 0.000000 0.000000 0.000000
# 4 0.000000 0.000000 0.000000 0.041292 0.000000 0.000000
# 5 0.000000 0.000000 0.000000 0.000000 0.049907 0.000000
# 6 0.000000 0.000000 0.000000 0.000000 0.000000 0.044677
#
#
# Mechanical properties :
#
#
# Convention : Reuss Voigt Hill
#
# Bulk Modulus (GPa) = 63.62885 64.15347 63.89116
# Shear Modulus (GPa) = 21.97094 24.12580 23.04837
#
# Velocity S-wave (km/s) = 3.51256 3.68079 3.59766
# Velocity P-wave (km/s) = 7.22375 7.35463 7.28948
#
# Compressibility (1/GPa) = 0.01571614
#
# Stress axis : x y z
#
# Youngs Moduli (GPa) = 40.99314 87.01883 65.78312
#
# Poissons Ratio (x) = 0.63254 0.68362
# Poissons Ratio (y) = 0.29798 0.00162
# Poissons Ratio (z) = 0.42600 0.00214
#
# Static dielectric constant tensor:
#      x y z
#    x 2.850370 0.000000 0.000000 
#    y 0.000000 3.680350 0.000000 
#    z 0.000000 0.000000 3.596000 
# 
# 
# High freq. dielectric constant tensor:
#      x y z
#    x 1.625560 0.000000 0.000000 
#    y 0.000000 1.712670 0.000000 
#    z 0.000000 0.000000 1.712790 
# 
# From -- ./inp_files/26217.got.cif
#   From: 2010.03.12/outbox.cif.g09.slc.cpg/sg42_14_cif.got.tgz:26217.got - 2010.04.14 02:04:31.
