data_PCOD8185607
_publ_section_title
;
Structure prediction by ZEFSAII (Michael W. Deem and Ramdas Pophale) SiO2 
 PCOD8185607
Probable space group: A B A 2
;
_chemical_formula_sum "Si O2"
_cell_formula_units_Z 48
_cell_length_a 17.157825
_cell_length_b 11.202253
_cell_length_c 10.999675
_cell_angle_alpha 90.000000
_cell_angle_beta 90.000000
_cell_angle_gamma 90.000000
_cell_volume 2114.206795
_symmetry_space_group_name_H-M "A B A 2"
_symmetry_group_IT_number 41
_symmetry_cell_setting 'orthorhombic'
loop_
_space_group_symop_operation_xyz
x,y,z
-x,-y,z
1/2-x,y,1/2+z
1/2+x,-y,1/2+z
x,1/2+y,1/2+z
-x,1/2-y,1/2+z
1/2-x,1/2+y,z
1/2+x,1/2-y,z
loop_
_atom_site_type_symbol
_atom_site_label
_atom_site_fract_x
_atom_site_fract_y
_atom_site_fract_z
Si Si1 0.665123 0.393846 0.296750
Si Si2 0.841126 0.443820 0.331764
Si Si3 0.399461 0.335012 0.702015
Si Si4 0.910950 0.523037 0.577492
Si Si5 0.422799 0.945283 0.963564
Si Si6 0.434247 0.274548 0.246240
O O1 0.751811 0.444919 0.289470
O O2 0.660487 0.250064 0.277561
O O3 0.610333 0.436543 0.187391
O O4 0.632946 0.443660 0.425543
O O5 0.891070 0.531893 0.250333
O O6 0.851711 0.488246 0.470182
O O7 0.870167 0.310589 0.305751
O O8 0.382166 0.351303 0.557164
O O9 0.487273 0.294735 0.720442
O O10 0.902476 0.661201 0.622300
O O11 0.000000 0.500000 0.535660
O O12 0.451224 0.877758 0.843129
O O13 0.500000 0.000000 0.027034
#
# Coordination Sequence:
#
# PCOD8185607 Si02
#       6
#     8   8   8   8   8   8
#     4  11  26  47  67 104 148 191 239 311 377 436
#     4  12  29  41  71 110 147 182 249 308 381 441
#     4  12  25  45  72 103 141 188 248 302 363 456
#     4  11  23  50  75  98 143 199 245 296 371 453
#     4  11  23  45  74 101 139 190 244 300 367 445
#     4  11  23  45  73 105 139 191 249 301 362 452
#
# _framework density 22.703551000000001
#
# number of rings (size 3 to 8) (size 9 to 14) (size 15 to 20)
#    0.000    0.667    3.333    4.500    9.333    1.333 
#    0.000    0.000    0.000    0.000    0.000    0.000 
#    0.000    0.000    0.000    0.000    0.000    0.000 
#
# Total GULP energy -297516.651939 kJ/mol
# GULP energy per Si atom -12396.527164 kJ/mol
# Density = 2.265188 g / cm^3
# Si number density = 22.703551 Si / 1000 Ang^3
#
#
#
# Elastic Constant Matrix: (Units=GPa)
#
#
# Indices 1 2 3 4 5 6 
#
# 1 69.3940 43.2921 32.0286 0.0000 0.0000 0.0000
# 2 43.2921 112.0482 42.2974 0.0000 0.0000 0.0000
# 3 32.0286 42.2974 106.9685 0.0000 0.0000 0.0000
# 4 0.0000 0.0000 0.0000 45.6561 0.0000 0.0000
# 5 0.0000 0.0000 0.0000 0.0000 20.1637 0.0000
# 6 0.0000 0.0000 0.0000 0.0000 0.0000 16.7565
#
#
#
# Elastic Compliance Matrix: (Units=1/GPa)
#
#
# Indices 1 2 3 4 5 6 
#
# 1 0.020015 -0.006431 -0.003450 0.000000 0.000000 0.000000
# 2 -0.006431 0.012557 -0.003040 0.000000 0.000000 0.000000
# 3 -0.003450 -0.003040 0.011584 0.000000 0.000000 0.000000
# 4 0.000000 0.000000 0.000000 0.021903 0.000000 0.000000
# 5 0.000000 0.000000 0.000000 0.000000 0.049594 0.000000
# 6 0.000000 0.000000 0.000000 0.000000 0.000000 0.059678
#
#
# Mechanical properties :
#
#
# Convention : Reuss Voigt Hill
#
# Bulk Modulus (GPa) = 54.60257 58.18299 56.39278
# Shear Modulus (GPa) = 24.12245 27.90144 26.01194
#
# Velocity S-wave (km/s) = 3.26313 3.50944 3.38852
# Velocity P-wave (km/s) = 6.18868 6.48879 6.34051
#
# Compressibility (1/GPa) = 0.01831416
#
# Stress axis : x y z
#
# Youngs Moduli (GPa) = 49.96339 79.63780 86.32967
#
# Poissons Ratio (x) = 0.51213 0.29784
# Poissons Ratio (y) = 0.32130 0.26242
# Poissons Ratio (z) = 0.17237 0.24208
#
# Static dielectric constant tensor:
#      x y z
#    x 3.810800 0.000000 0.000000 
#    y 0.000000 4.486400 0.000000 
#    z 0.000000 0.000000 4.268740 
# 
# 
# High freq. dielectric constant tensor:
#      x y z
#    x 1.879960 0.000000 0.000000 
#    y 0.000000 1.911160 0.000000 
#    z 0.000000 0.000000 1.896490 
# 
# From -- ./inp_files/5935.got.cif
#   From: 2010.03.12/outbox.cif.g09.slc.cpg/sg41_3_cif.got.tgz:5935.got - 2010.04.14 01:55:53.
