data_PCOD8185472
_publ_section_title
;
Structure prediction by ZEFSAII (Michael W. Deem and Ramdas Pophale) SiO2 
 PCOD8185472
Probable space group: A B A 2
;
_chemical_formula_sum "Si O2"
_cell_formula_units_Z 60
_cell_length_a 12.120905
_cell_length_b 26.348213
_cell_length_c 8.857609
_cell_angle_alpha 90.000000
_cell_angle_beta 90.000000
_cell_angle_gamma 90.000000
_cell_volume 2828.803094
_symmetry_space_group_name_H-M "A B A 2"
_symmetry_group_IT_number 41
_symmetry_cell_setting 'orthorhombic'
loop_
_space_group_symop_operation_xyz
x,y,z
-x,-y,z
1/2-x,y,1/2+z
1/2+x,-y,1/2+z
x,1/2+y,1/2+z
-x,1/2-y,1/2+z
1/2-x,1/2+y,z
1/2+x,1/2-y,z
loop_
_atom_site_type_symbol
_atom_site_label
_atom_site_fract_x
_atom_site_fract_y
_atom_site_fract_z
Si Si1 0.754302 0.746381 0.700950
Si Si2 0.376794 0.439544 0.542647
Si Si3 0.622756 0.190224 0.450891
Si Si4 0.122148 0.197393 0.948026
Si Si5 0.621936 0.442970 0.591650
Si Si6 0.672376 0.582367 0.853757
Si Si7 0.500000 0.500000 0.952648
Si Si8 0.843783 0.917270 0.942391
O O1 0.700413 0.707957 0.816921
O O2 0.841901 0.712343 0.611857
O O3 0.811724 0.791915 0.793823
O O4 0.666766 0.770673 0.588231
O O5 0.505291 0.424433 0.518078
O O6 0.369295 0.497212 0.593649
O O7 0.298689 0.431272 0.397774
O O8 0.325309 0.404519 0.675837
O O9 0.503037 0.213230 0.418923
O O10 0.625856 0.128940 0.452234
O O11 0.122326 0.138538 0.992298
O O12 0.715568 0.421532 0.482056
O O13 0.634700 0.423947 0.763583
O O14 0.586393 0.535135 0.860920
O O15 0.581255 0.459231 0.036614
#
# Coordination Sequence:
#
# PCOD8185472 Si02
#       8
#     8   8   8   8   8   8   4   8
#     4  10  24  42  62  92 120 152 210 262 302 364
#     4  11  21  39  57  85 125 168 206 250 292 355
#     4  11  22  41  65  90 121 160 200 255 314 361
#     4  11  22  41  65  90 121 160 200 255 314 361
#     4  11  21  39  57  85 125 168 206 250 292 355
#     4  12  22  40  65  90 126 168 203 246 311 367
#     4  12  20  40  62  94 128 168 196 252 296 374
#     4  12  22  40  65  90 126 168 203 246 311 367
#
# _framework density 21.210386
#
# number of rings (size 3 to 8) (size 9 to 14) (size 15 to 20)
#    0.000    0.800    5.333    2.400    0.000    0.000 
#    2.400    6.667    0.000    0.000    0.000    0.000 
#    0.000    0.000    0.000    0.000    0.000    0.000 
#
# Total GULP energy -371782.750188 kJ/mol
# GULP energy per Si atom -12392.758340 kJ/mol
# Density = 2.116211 g / cm^3
# Si number density = 21.210386 Si / 1000 Ang^3
#
#
#
# Elastic Constant Matrix: (Units=GPa)
#
#
# Indices 1 2 3 4 5 6 
#
# 1 158.6401 23.8326 44.6291 0.0000 0.0000 0.0000
# 2 23.8326 95.9115 16.0990 0.0000 0.0000 0.0000
# 3 44.6291 16.0990 63.4127 0.0000 0.0000 0.0000
# 4 0.0000 0.0000 0.0000 17.7662 0.0000 0.0000
# 5 0.0000 0.0000 0.0000 0.0000 17.9044 0.0000
# 6 0.0000 0.0000 0.0000 0.0000 0.0000 21.5959
#
#
#
# Elastic Compliance Matrix: (Units=1/GPa)
#
#
# Indices 1 2 3 4 5 6 
#
# 1 0.007966 -0.001085 -0.005331 0.000000 0.000000 0.000000
# 2 -0.001085 0.011038 -0.002039 0.000000 0.000000 0.000000
# 3 -0.005331 -0.002039 0.020039 0.000000 0.000000 0.000000
# 4 0.000000 0.000000 0.000000 0.056287 0.000000 0.000000
# 5 0.000000 0.000000 0.000000 0.000000 0.055852 0.000000
# 6 0.000000 0.000000 0.000000 0.000000 0.000000 0.046305
#
#
# Mechanical properties :
#
#
# Convention : Reuss Voigt Hill
#
# Bulk Modulus (GPa) = 45.17910 54.12065 49.64987
# Shear Modulus (GPa) = 22.54533 27.01354 24.77943
#
# Velocity S-wave (km/s) = 3.26381 3.57262 3.42170
# Velocity P-wave (km/s) = 5.96238 6.52608 6.25059
#
# Compressibility (1/GPa) = 0.02213413
#
# Stress axis : x y z
#
# Youngs Moduli (GPa) = 125.52837 90.59582 49.90160
#
# Poissons Ratio (x) = 0.09826 0.26604
# Poissons Ratio (y) = 0.13615 0.10175
# Poissons Ratio (z) = 0.66922 0.18472
#
# Static dielectric constant tensor:
#      x y z
#    x 4.388160 0.000000 0.000000 
#    y 0.000000 3.813120 0.000000 
#    z 0.000000 0.000000 3.589590 
# 
# 
# High freq. dielectric constant tensor:
#      x y z
#    x 1.850860 0.000000 0.000000 
#    y 0.000000 1.833170 0.000000 
#    z 0.000000 0.000000 1.807980 
# 
# From -- ./inp_files/2158.got.cif
#   From: 2010.03.12/outbox.cif.g09.slc.cpg/sg41_2_cif.got.tgz:2158.got - 2010.04.14 01:55:53.
