data_PCOD8185671
_publ_section_title
;
Structure prediction by ZEFSAII (Michael W. Deem and Ramdas Pophale) SiO2 
 PCOD8185671
Probable space group: A B A 2
;
_chemical_formula_sum "Si O2"
_cell_formula_units_Z 44
_cell_length_a 9.177631
_cell_length_b 17.926886
_cell_length_c 11.676210
_cell_angle_alpha 90.000000
_cell_angle_beta 90.000000
_cell_angle_gamma 90.000000
_cell_volume 1921.044151
_symmetry_space_group_name_H-M "A B A 2"
_symmetry_group_IT_number 41
_symmetry_cell_setting 'orthorhombic'
loop_
_space_group_symop_operation_xyz
x,y,z
-x,-y,z
1/2-x,y,1/2+z
1/2+x,-y,1/2+z
x,1/2+y,1/2+z
-x,1/2-y,1/2+z
1/2-x,1/2+y,z
1/2+x,1/2-y,z
loop_
_atom_site_type_symbol
_atom_site_label
_atom_site_fract_x
_atom_site_fract_y
_atom_site_fract_z
Si Si1 0.863517 0.835429 0.660630
Si Si2 0.500000 0.000000 0.551250
Si Si3 0.380412 0.259813 0.773086
Si Si4 0.032947 0.625348 0.922049
Si Si5 0.793034 0.966941 0.251330
Si Si6 0.787497 0.597340 0.398236
O O1 0.745473 0.773626 0.693838
O O2 0.859901 0.856408 0.527186
O O3 0.840039 0.908986 0.738735
O O4 0.021275 0.803140 0.683500
O O5 0.381151 0.039132 0.632278
O O6 0.585199 0.061600 0.476148
O O7 0.472181 0.195954 0.836942
O O8 0.326074 0.318027 0.868052
O O9 0.103111 0.555641 0.856167
O O10 0.869817 0.602132 0.961724
O O11 0.730596 0.048608 0.281301
#
# Coordination Sequence:
#
# PCOD8185671 Si02
#       6
#     8   4   8   8   8   8
#     4  11  26  44  74 103 143 195 240 301 379 436
#     4  12  26  44  78 104 148 198 246 308 386 434
#     4  11  26  46  70 108 144 188 247 303 361 455
#     4  11  25  46  72 103 148 189 241 306 369 445
#     4  11  25  48  68 107 147 183 253 309 357 446
#     4  12  25  47  74 105 146 196 242 306 370 441
#
# _framework density 22.904211
#
# number of rings (size 3 to 8) (size 9 to 14) (size 15 to 20)
#    0.000    0.727    3.636    2.182    5.091    4.364 
#    0.000    0.000    0.000    0.000    0.000    0.000 
#    0.000    0.000    0.000    0.000    0.000    0.000 
#
# Total GULP energy -272827.451500 kJ/mol
# GULP energy per Si atom -12401.247795 kJ/mol
# Density = 2.285208 g / cm^3
# Si number density = 22.904211 Si / 1000 Ang^3
#
#
#
# Elastic Constant Matrix: (Units=GPa)
#
#
# Indices 1 2 3 4 5 6 
#
# 1 92.5445 31.1045 45.6842 0.0000 0.0000 0.0000
# 2 31.1045 103.5373 27.0550 0.0000 0.0000 0.0000
# 3 45.6842 27.0550 106.2610 0.0000 0.0000 0.0000
# 4 0.0000 0.0000 0.0000 38.1933 0.0000 0.0000
# 5 0.0000 0.0000 0.0000 0.0000 42.0185 0.0000
# 6 0.0000 0.0000 0.0000 0.0000 0.0000 38.5611
#
#
#
# Elastic Compliance Matrix: (Units=1/GPa)
#
#
# Indices 1 2 3 4 5 6 
#
# 1 0.014497 -0.002921 -0.005489 0.000000 0.000000 0.000000
# 2 -0.002921 0.010935 -0.001528 0.000000 0.000000 0.000000
# 3 -0.005489 -0.001528 0.012160 0.000000 0.000000 0.000000
# 4 0.000000 0.000000 0.000000 0.026183 0.000000 0.000000
# 5 0.000000 0.000000 0.000000 0.000000 0.023799 0.000000
# 6 0.000000 0.000000 0.000000 0.000000 0.000000 0.025933
#
#
# Mechanical properties :
#
#
# Convention : Reuss Voigt Hill
#
# Bulk Modulus (GPa) = 56.44784 56.67003 56.55894
# Shear Modulus (GPa) = 35.89684 36.98784 36.44234
#
# Velocity S-wave (km/s) = 3.96316 4.02293 3.99316
# Velocity P-wave (km/s) = 6.75580 6.80989 6.78290
#
# Compressibility (1/GPa) = 0.01771547
#
# Stress axis : x y z
#
# Youngs Moduli (GPa) = 68.98025 91.44756 82.23845
#
# Poissons Ratio (x) = 0.26711 0.45140
# Poissons Ratio (y) = 0.20148 0.12570
# Poissons Ratio (z) = 0.37863 0.13977
#
# Static dielectric constant tensor:
#      x y z
#    x 4.149340 0.000000 0.000000 
#    y 0.000000 4.213460 0.000000 
#    z 0.000000 0.000000 3.956160 
# 
# 
# High freq. dielectric constant tensor:
#      x y z
#    x 1.913250 0.000000 0.000000 
#    y 0.000000 1.919300 0.000000 
#    z 0.000000 0.000000 1.892260 
# 
# From -- ./inp_files/7281.got.cif
#   From: 2010.03.12/outbox.cif.g09.slc.cpg/sg41_4_cif.got.tgz:7281.got - 2010.04.14 01:55:53.
