data_PCOD8185948
_publ_section_title
;
Structure prediction by ZEFSAII (Michael W. Deem and Ramdas Pophale) SiO2 
 PCOD8185948
Probable space group: F M M 2
;
_chemical_formula_sum "Si O2"
_cell_formula_units_Z 64
_cell_length_a 17.999576
_cell_length_b 21.411303
_cell_length_c 7.230523
_cell_angle_alpha 90.000000
_cell_angle_beta 90.000000
_cell_angle_gamma 90.000000
_cell_volume 2786.602897
_symmetry_space_group_name_H-M "F M M 2"
_symmetry_group_IT_number 42
_symmetry_cell_setting 'orthorhombic'
loop_
_space_group_symop_operation_xyz
x,y,z
-x,-y,z
-x,y,z
x,-y,z
x,1/2+y,1/2+z
-x,1/2-y,1/2+z
-x,1/2+y,1/2+z
x,1/2-y,1/2+z
1/2+x,y,1/2+z
1/2-x,-y,1/2+z
1/2-x,y,1/2+z
1/2+x,-y,1/2+z
1/2+x,1/2+y,z
1/2-x,1/2-y,z
1/2-x,1/2+y,z
1/2+x,1/2-y,z
loop_
_atom_site_type_symbol
_atom_site_label
_atom_site_fract_x
_atom_site_fract_y
_atom_site_fract_z
Si Si1 0.800141 0.811858 0.359340
Si Si2 0.337600 0.869339 0.222893
Si Si3 0.304705 0.500000 0.723315
Si Si4 0.641051 0.000000 0.636380
Si Si5 0.415869 0.634155 0.094925
O O1 0.750000 0.750000 0.343001
O O2 0.740941 0.867666 0.333722
O O3 0.840037 0.817757 0.559671
O O4 0.862445 0.816423 0.200027
O O5 0.402345 0.859322 0.373413
O O6 0.338696 0.937978 0.126436
O O7 0.216294 0.500000 0.753960
O O8 0.336851 0.500000 0.926024
O O9 0.594705 0.063589 0.672545
O O10 0.500000 0.654505 0.134098
#
# Coordination Sequence:
#
# PCOD8185948 Si02
#       5
#    16  16   8   8  16
#     4  12  24  41  71  97 128 183 242 283 326 410
#     4  11  22  40  69 100 131 177 232 285 343 407
#     4  10  18  34  63 103 129 166 230 291 325 407
#     4  10  19  36  67 103 142 178 224 285 356 419
#     4  11  25  43  67 106 148 181 223 292 366 418
#
# _framework density 22.967034000000002
#
# number of rings (size 3 to 8) (size 9 to 14) (size 15 to 20)
#    0.000    1.000    5.000    2.625    0.000    2.000 
#    0.000    1.250    0.000    3.000    0.000    0.000 
#    0.000    0.000    0.000    0.000    0.000    0.000 
#
# Total GULP energy -198280.978704 kJ/mol
# GULP energy per Si atom -12392.561169 kJ/mol
# Density = 2.291476 g / cm^3
# Si number density = 22.967034 Si / 1000 Ang^3
#
#
#
# Elastic Constant Matrix: (Units=GPa)
#
#
# Indices 1 2 3 4 5 6 
#
# 1 125.9186 48.9760 32.4187 -0.0001 -0.0002 0.0002
# 2 48.9760 135.2205 51.3105 0.0004 -0.0006 -0.0002
# 3 32.4187 51.3105 92.4048 0.0013 -0.0015 0.0008
# 4 -0.0001 0.0004 0.0013 29.6541 -0.0010 0.0000
# 5 -0.0002 -0.0006 -0.0015 -0.0010 18.8630 0.0000
# 6 0.0002 -0.0002 0.0008 0.0000 0.0000 23.6352
#
#
#
# Elastic Compliance Matrix: (Units=1/GPa)
#
#
# Indices 1 2 3 4 5 6 
#
# 1 0.009474 -0.002749 -0.001797 0.000000 0.000000 0.000000
# 2 -0.002749 0.010167 -0.004681 0.000000 0.000000 0.000000
# 3 -0.001797 -0.004681 0.014052 -0.000001 0.000001 -0.000001
# 4 0.000000 0.000000 -0.000001 0.033722 0.000002 0.000000
# 5 0.000000 0.000000 0.000001 0.000002 0.053014 0.000000
# 6 0.000000 0.000000 -0.000001 0.000000 0.000000 0.042310
#
#
# Mechanical properties :
#
#
# Convention : Reuss Voigt Hill
#
# Bulk Modulus (GPa) = 65.62675 68.77273 67.19974
# Shear Modulus (GPa) = 26.84232 29.15305 27.99769
#
# Velocity S-wave (km/s) = 3.42238 3.56665 3.49526
# Velocity P-wave (km/s) = 6.65231 6.85350 6.75366
#
# Compressibility (1/GPa) = 0.01523769
#
# Stress axis : x y z
#
# Youngs Moduli (GPa) = 105.55569 98.35279 71.16544
#
# Poissons Ratio (x) = 0.27041 0.12788
# Poissons Ratio (y) = 0.29022 0.33314
# Poissons Ratio (z) = 0.18968 0.46041
#
# Static dielectric constant tensor:
#      x y z
#    x 3.879960 0.000000 0.000000 
#    y 0.000000 4.815730 0.000000 
#    z 0.000000 0.000000 4.015800 
# 
# 
# High freq. dielectric constant tensor:
#      x y z
#    x 1.863130 0.000000 0.000000 
#    y 0.000000 1.919370 0.000000 
#    z 0.000000 0.000000 1.905490 
# 
# From -- ./inp_files/3242.got.cif
#   From: 2010.03.12/outbox.cif.g09.slc.cpg/sg42_2_cif.got.tgz:3242.got - 2010.04.14 02:04:31.
