data_PCOD8185883
_publ_section_title
;
Structure prediction by ZEFSAII (Michael W. Deem and Ramdas Pophale) SiO2 
 PCOD8185883
Probable space group: F M M 2
;
_chemical_formula_sum "Si O2"
_cell_formula_units_Z 80
_cell_length_a 22.876672
_cell_length_b 20.179002
_cell_length_c 9.455493
_cell_angle_alpha 90.000000
_cell_angle_beta 90.000000
_cell_angle_gamma 90.000000
_cell_volume 4364.924200
_symmetry_space_group_name_H-M "F M M 2"
_symmetry_group_IT_number 42
_symmetry_cell_setting 'orthorhombic'
loop_
_space_group_symop_operation_xyz
x,y,z
-x,-y,z
-x,y,z
x,-y,z
x,1/2+y,1/2+z
-x,1/2-y,1/2+z
-x,1/2+y,1/2+z
x,1/2-y,1/2+z
1/2+x,y,1/2+z
1/2-x,-y,1/2+z
1/2-x,y,1/2+z
1/2+x,-y,1/2+z
1/2+x,1/2+y,z
1/2-x,1/2-y,z
1/2-x,1/2+y,z
1/2+x,1/2-y,z
loop_
_atom_site_type_symbol
_atom_site_label
_atom_site_fract_x
_atom_site_fract_y
_atom_site_fract_z
Si Si1 0.565806 0.693043 0.529190
Si Si2 0.823467 0.357376 0.336361
Si Si3 0.129490 0.276991 0.759877
Si Si4 0.234781 0.326718 0.609815
Si Si5 0.565745 0.576046 0.736118
O O1 0.500000 0.717886 0.526836
O O2 0.586415 0.685926 0.367358
O O3 0.599162 0.748346 0.619993
O O4 0.573037 0.620546 0.596919
O O5 0.843357 0.281794 0.353051
O O6 0.780520 0.369459 0.469681
O O7 0.788360 0.364396 0.187685
O O8 0.881194 0.404417 0.342507
O O9 0.179201 0.328663 0.714285
O O10 0.250000 0.250000 0.573993
O O11 0.500000 0.588033 0.801981
O O12 0.572862 0.500000 0.691680
#
# Coordination Sequence:
#
# PCOD8185883 Si02
#       5
#    16  16  16  16  16
#     4  10  19  31  52  82 112 144 184 229 273 322
#     4  10  20  32  54  80 107 142 181 216 266 322
#     4  10  18  31  49  80 116 143 174 220 276 330
#     4  10  19  31  51  80 116 146 171 211 271 339
#     4   9  20  39  59  76 103 147 192 228 270 326
#
# _framework density 18.327925
#
# number of rings (size 3 to 8) (size 9 to 14) (size 15 to 20)
#    0.000    2.200    2.000    2.400    5.600    0.800 
#    0.000    1.000    0.000    1.200    0.000    2.800 
#    0.000    0.000    0.000    0.000    0.000    0.000 
#
# Total GULP energy -247856.523079 kJ/mol
# GULP energy per Si atom -12392.826154 kJ/mol
# Density = 1.828621 g / cm^3
# Si number density = 18.327925 Si / 1000 Ang^3
#
#
#
# Elastic Constant Matrix: (Units=GPa)
#
#
# Indices 1 2 3 4 5 6 
#
# 1 131.0325 32.6277 50.9832 0.0001 0.0000 0.0000
# 2 32.6277 46.2009 24.0354 -0.0013 0.0008 0.0004
# 3 50.9832 24.0354 90.9369 -0.0031 0.0018 0.0008
# 4 0.0001 -0.0013 -0.0031 5.0557 0.0012 0.0006
# 5 0.0000 0.0008 0.0018 0.0012 41.9875 -0.0003
# 6 0.0000 0.0004 0.0008 0.0006 -0.0003 22.2657
#
#
#
# Elastic Compliance Matrix: (Units=1/GPa)
#
#
# Indices 1 2 3 4 5 6 
#
# 1 0.010725 -0.005155 -0.004650 -0.000004 0.000000 0.000000
# 2 -0.005155 0.027573 -0.004398 0.000005 0.000000 0.000000
# 3 -0.004650 -0.004398 0.014766 0.000008 -0.000001 0.000000
# 4 -0.000004 0.000005 0.000008 0.197798 -0.000006 -0.000005
# 5 0.000000 0.000000 -0.000001 -0.000006 0.023817 0.000000
# 6 0.000000 0.000000 0.000000 -0.000005 0.000000 0.044912
#
#
# Mechanical properties :
#
#
# Convention : Reuss Voigt Hill
#
# Bulk Modulus (GPa) = 40.55460 53.71809 47.13634
# Shear Modulus (GPa) = 14.03645 24.56337 19.29991
#
# Velocity S-wave (km/s) = 2.77040 3.66487 3.24857
# Velocity P-wave (km/s) = 5.69287 6.87615 6.31230
#
# Compressibility (1/GPa) = 0.02465812
#
# Stress axis : x y z
#
# Youngs Moduli (GPa) = 93.24383 36.26769 67.72238
#
# Poissons Ratio (x) = 0.18694 0.31493
# Poissons Ratio (y) = 0.48063 0.29783
# Poissons Ratio (z) = 0.43361 0.15950
#
# Static dielectric constant tensor:
#      x y z
#    x 3.831190 0.000000 0.000000 
#    y 0.000000 2.909280 0.000000 
#    z 0.000000 0.000000 3.203550 
# 
# 
# High freq. dielectric constant tensor:
#      x y z
#    x 1.738950 0.000000 0.000000 
#    y 0.000000 1.647280 0.000000 
#    z 0.000000 0.000000 1.700490 
# 
# From -- ./inp_files/3468.got.cif
#   From: 2010.03.12/outbox.cif.g09.slc.cpg/sg42_2_cif.got.tgz:3468.got - 2010.04.14 02:04:31.
