data_PCOD8185489
_publ_section_title
;
Structure prediction by ZEFSAII (Michael W. Deem and Ramdas Pophale) SiO2 
 PCOD8185489
Probable space group: A B A 2
;
_chemical_formula_sum "Si O2"
_cell_formula_units_Z 60
_cell_length_a 28.053490
_cell_length_b 10.188361
_cell_length_c 8.967177
_cell_angle_alpha 90.000000
_cell_angle_beta 90.000000
_cell_angle_gamma 90.000000
_cell_volume 2562.990311
_symmetry_space_group_name_H-M "A B A 2"
_symmetry_group_IT_number 41
_symmetry_cell_setting 'orthorhombic'
loop_
_space_group_symop_operation_xyz
x,y,z
-x,-y,z
1/2-x,y,1/2+z
1/2+x,-y,1/2+z
x,1/2+y,1/2+z
-x,1/2-y,1/2+z
1/2-x,1/2+y,z
1/2+x,1/2-y,z
loop_
_atom_site_type_symbol
_atom_site_label
_atom_site_fract_x
_atom_site_fract_y
_atom_site_fract_z
Si Si1 0.953390 0.647414 0.014610
Si Si2 0.155258 0.859048 0.571033
Si Si3 0.471856 0.310041 0.838081
Si Si4 0.187880 0.114782 0.718648
Si Si5 0.500000 0.500000 0.058824
Si Si6 0.429449 0.564584 0.294511
Si Si7 0.837753 0.597898 0.743099
Si Si8 0.285155 0.111048 0.561975
O O1 0.898501 0.691366 0.043133
O O2 0.980707 0.634746 0.171972
O O3 0.952357 0.505199 0.937362
O O4 0.978945 0.743969 0.897253
O O5 0.178475 0.909513 0.415514
O O6 0.184959 0.733765 0.630606
O O7 0.157072 0.983779 0.683227
O O8 0.424204 0.216240 0.846428
O O9 0.461723 0.425976 0.954483
O O10 0.156129 0.247711 0.701067
O O11 0.230124 0.131846 0.599904
O O12 0.208313 0.101410 0.885022
O O13 0.468679 0.593367 0.164433
O O14 0.386295 0.484946 0.224933
O O15 0.799558 0.526781 0.638469
#
# Coordination Sequence:
#
# PCOD8185489 Si02
#       8
#     8   8   8   8   4   8   8   8
#     4  11  23  44  70  95 141 183 238 293 360 418
#     4  10  24  44  67 105 142 183 236 298 348 429
#     4  12  24  42  65  97 130 182 234 292 354 422
#     4  11  24  43  68 107 139 184 233 286 357 426
#     4  12  26  38  66  94 128 176 236 286 352 416
#     4  11  23  45  64  95 138 180 231 293 349 424
#     4  10  24  43  70  99 141 186 230 291 353 420
#     4  11  23  42  71 101 143 183 231 288 350 428
#
# _framework density 23.410153999999999
#
# number of rings (size 3 to 8) (size 9 to 14) (size 15 to 20)
#    0.000    1.067    2.667    2.400    1.867    7.467 
#    4.800    0.000    0.000    0.000    0.000    0.000 
#    0.000    0.000    0.000    0.000    0.000    0.000 
#
# Total GULP energy -371786.571690 kJ/mol
# GULP energy per Si atom -12392.885723 kJ/mol
# Density = 2.335687 g / cm^3
# Si number density = 23.410154 Si / 1000 Ang^3
#
#
#
# Elastic Constant Matrix: (Units=GPa)
#
#
# Indices 1 2 3 4 5 6 
#
# 1 76.5438 14.1510 24.4305 0.0000 0.0000 0.0000
# 2 14.1510 107.8017 32.2142 0.0000 0.0000 0.0000
# 3 24.4305 32.2142 120.2752 0.0000 0.0000 0.0000
# 4 0.0000 0.0000 0.0000 36.6325 0.0000 0.0000
# 5 0.0000 0.0000 0.0000 0.0000 30.5366 0.0000
# 6 0.0000 0.0000 0.0000 0.0000 0.0000 40.2140
#
#
#
# Elastic Compliance Matrix: (Units=1/GPa)
#
#
# Indices 1 2 3 4 5 6 
#
# 1 0.014085 -0.001080 -0.002572 0.000000 0.000000 0.000000
# 2 -0.001080 0.010166 -0.002503 0.000000 0.000000 0.000000
# 3 -0.002572 -0.002503 0.009507 0.000000 0.000000 0.000000
# 4 0.000000 0.000000 0.000000 0.027298 0.000000 0.000000
# 5 0.000000 0.000000 0.000000 0.000000 0.032748 0.000000
# 6 0.000000 0.000000 0.000000 0.000000 0.000000 0.024867
#
#
# Mechanical properties :
#
#
# Convention : Reuss Voigt Hill
#
# Bulk Modulus (GPa) = 46.62576 49.57911 48.10243
# Shear Modulus (GPa) = 36.19754 37.06497 36.63125
#
# Velocity S-wave (km/s) = 3.93648 3.98337 3.96000
# Velocity P-wave (km/s) = 6.37349 6.51005 6.44213
#
# Compressibility (1/GPa) = 0.02144737
#
# Stress axis : x y z
#
# Youngs Moduli (GPa) = 70.99785 98.36498 105.18434
#
# Poissons Ratio (x) = 0.10628 0.27049
# Poissons Ratio (y) = 0.07671 0.26332
# Poissons Ratio (z) = 0.18258 0.24625
#
# Static dielectric constant tensor:
#      x y z
#    x 3.947560 0.000000 0.000000 
#    y 0.000000 4.424510 0.000000 
#    z 0.000000 0.000000 4.459040 
# 
# 
# High freq. dielectric constant tensor:
#      x y z
#    x 1.899410 0.000000 0.000000 
#    y 0.000000 1.943060 0.000000 
#    z 0.000000 0.000000 1.936570 
# 
# From -- ./inp_files/3825.got.cif
#   From: 2010.03.12/outbox.cif.g09.slc.cpg/sg41_2_cif.got.tgz:3825.got - 2010.04.14 01:55:53.
