data_PCOD8185270
_publ_section_title
;
Structure prediction by ZEFSAII (Michael W. Deem and Ramdas Pophale) SiO2 
 PCOD8185270
Probable space group: A B A 2
;
_chemical_formula_sum "Si O2"
_cell_formula_units_Z 64
_cell_length_a 9.339465
_cell_length_b 18.219258
_cell_length_c 18.883761
_cell_angle_alpha 90.000000
_cell_angle_beta 90.000000
_cell_angle_gamma 90.000000
_cell_volume 3213.225316
_symmetry_space_group_name_H-M "A B A 2"
_symmetry_group_IT_number 41
_symmetry_cell_setting 'orthorhombic'
loop_
_space_group_symop_operation_xyz
x,y,z
-x,-y,z
1/2-x,y,1/2+z
1/2+x,-y,1/2+z
x,1/2+y,1/2+z
-x,1/2-y,1/2+z
1/2-x,1/2+y,z
1/2+x,1/2-y,z
loop_
_atom_site_type_symbol
_atom_site_label
_atom_site_fract_x
_atom_site_fract_y
_atom_site_fract_z
Si Si1 0.887902 0.900328 0.063710
Si Si2 0.350783 0.539391 0.914575
Si Si3 0.878116 0.061638 0.471598
Si Si4 0.308903 0.441901 0.099990
Si Si5 0.753839 0.828176 0.831388
Si Si6 0.341658 0.205084 0.682947
Si Si7 0.337121 0.337239 0.216221
Si Si8 0.573249 0.188899 0.865736
O O1 0.814264 0.832739 0.106002
O O2 0.060155 0.897882 0.063097
O O3 0.836162 0.972113 0.105550
O O4 0.840468 0.905800 0.982348
O O5 0.500000 0.500000 0.900097
O O6 0.249797 0.470263 0.925338
O O7 0.298931 0.589066 0.849877
O O8 0.831961 0.075513 0.553173
O O9 0.914297 0.140354 0.436887
O O10 0.000000 0.000000 0.469213
O O11 0.303665 0.415673 0.181239
O O12 0.756957 0.829099 0.745765
O O13 0.595142 0.804802 0.853507
O O14 0.863036 0.771425 0.870022
O O15 0.291808 0.289208 0.682734
O O16 0.510333 0.198759 0.697175
O O17 0.338007 0.348678 0.300896
#
# Coordination Sequence:
#
# PCOD8185270 Si02
#       8
#     8   8   8   8   8   8   8   8
#     4   9  17  35  59  80 105 150 189 229 283 348
#     4  11  21  38  60  87 120 157 196 244 299 360
#     4  11  21  38  58  87 122 151 195 252 297 349
#     4   9  18  35  57  81 109 146 188 232 287 343
#     4  10  22  38  59  86 117 155 200 244 299 351
#     4   9  19  37  59  79 113 146 190 239 280 343
#     4   9  19  38  57  81 110 148 190 235 286 341
#     4  10  22  38  59  85 116 156 196 248 295 356
#
# _framework density 19.917683
#
# number of rings (size 3 to 8) (size 9 to 14) (size 15 to 20)
#    0.000    2.250    3.750    0.000    1.750    2.000 
#    6.750    2.500    0.000    0.750    0.000    0.000 
#    0.000    0.000    0.000    0.000    0.000    0.000 
#
# Total GULP energy -396458.171574 kJ/mol
# GULP energy per Si atom -12389.317862 kJ/mol
# Density = 1.987235 g / cm^3
# Si number density = 19.917683 Si / 1000 Ang^3
#
#
#
# Elastic Constant Matrix: (Units=GPa)
#
#
# Indices 1 2 3 4 5 6 
#
# 1 79.3836 19.3831 7.7268 0.0000 0.0000 0.0000
# 2 19.3831 29.4730 9.8835 0.0000 0.0000 0.0000
# 3 7.7268 9.8835 44.0735 0.0000 0.0000 0.0000
# 4 0.0000 0.0000 0.0000 36.0839 0.0000 0.0000
# 5 0.0000 0.0000 0.0000 0.0000 2.8411 0.0000
# 6 0.0000 0.0000 0.0000 0.0000 0.0000 30.1863
#
#
#
# Elastic Compliance Matrix: (Units=1/GPa)
#
#
# Indices 1 2 3 4 5 6 
#
# 1 0.015015 -0.009723 -0.000452 0.000000 0.000000 0.000000
# 2 -0.009723 0.042985 -0.007935 0.000000 0.000000 0.000000
# 3 -0.000452 -0.007935 0.024548 0.000000 0.000000 0.000000
# 4 0.000000 0.000000 0.000000 0.027713 0.000000 0.000000
# 5 0.000000 0.000000 0.000000 0.000000 0.351982 0.000000
# 6 0.000000 0.000000 0.000000 0.000000 0.000000 0.033128
#
#
# Mechanical properties :
#
#
# Convention : Reuss Voigt Hill
#
# Bulk Modulus (GPa) = 21.58519 25.21298 23.39908
# Shear Modulus (GPa) = 9.14022 21.55138 15.34580
#
# Velocity S-wave (km/s) = 2.14452 3.29298 2.77873
# Velocity P-wave (km/s) = 4.12222 5.21002 4.69771
#
# Compressibility (1/GPa) = 0.04632806
#
# Stress axis : x y z
#
# Youngs Moduli (GPa) = 66.59928 23.26413 40.73659
#
# Poissons Ratio (x) = 0.22620 0.01841
# Poissons Ratio (y) = 0.64756 0.32323
# Poissons Ratio (z) = 0.03010 0.18459
#
# Static dielectric constant tensor:
#      x y z
#    x 3.848540 0.000000 0.000000 
#    y 0.000000 3.483680 0.000000 
#    z 0.000000 0.000000 3.686660 
# 
# 
# High freq. dielectric constant tensor:
#      x y z
#    x 1.775310 0.000000 0.000000 
#    y 0.000000 1.763120 0.000000 
#    z 0.000000 0.000000 1.768710 
# 
# From -- ./inp_files/11293.got.cif
#   From: 2010.03.12/outbox.cif.g09.slc.cpg/sg41_6_cif.got.tgz:11293.got - 2010.04.14 01:55:53.
