data_PCOD8185014
_publ_section_title
;
Structure prediction by ZEFSAII (Michael W. Deem and Ramdas Pophale) SiO2 
 PCOD8185014
Probable space group: A B A 2
;
_chemical_formula_sum "Si O2"
_cell_formula_units_Z 60
_cell_length_a 19.893907
_cell_length_b 5.124428
_cell_length_c 27.850446
_cell_angle_alpha 90.000000
_cell_angle_beta 90.000000
_cell_angle_gamma 90.000000
_cell_volume 2839.210767
_symmetry_space_group_name_H-M "A B A 2"
_symmetry_group_IT_number 41
_symmetry_cell_setting 'orthorhombic'
loop_
_space_group_symop_operation_xyz
x,y,z
-x,-y,z
1/2-x,y,1/2+z
1/2+x,-y,1/2+z
x,1/2+y,1/2+z
-x,1/2-y,1/2+z
1/2-x,1/2+y,z
1/2+x,1/2-y,z
loop_
_atom_site_type_symbol
_atom_site_label
_atom_site_fract_x
_atom_site_fract_y
_atom_site_fract_z
Si Si1 0.209019 0.114272 0.667650
Si Si2 0.903861 0.638029 0.896420
Si Si3 0.704230 0.408503 0.557972
Si Si4 0.138030 0.094479 0.762326
Si Si5 0.575489 0.884577 0.991734
Si Si6 0.500000 0.500000 0.937859
Si Si7 0.710767 0.960077 0.354896
Si Si8 0.074052 0.095226 0.298669
O O1 0.230425 0.412234 0.676335
O O2 0.182573 0.081784 0.613647
O O3 0.152167 0.043238 0.706408
O O4 0.856921 0.881746 0.882293
O O5 0.903089 0.421028 0.854510
O O6 0.978638 0.761794 0.903113
O O7 0.885137 0.526804 0.948306
O O8 0.747432 0.665499 0.544622
O O9 0.630371 0.389982 0.533880
O O10 0.080991 0.889888 0.779654
O O11 0.202047 0.044957 0.797029
O O12 0.118415 0.395720 0.767816
O O13 0.500000 0.000000 0.004995
O O14 0.561139 0.590621 0.972862
O O15 0.767803 0.750506 0.370474
O O16 0.000000 0.000000 0.291176
#
# Coordination Sequence:
#
# PCOD8185014 Si02
#       8
#     8   8   8   8   8   4   8   8
#     4  10  20  40  67  91 118 160 205 254 313 386
#     4  10  24  37  61  83 123 168 214 250 306 378
#     4  10  24  43  70  99 128 162 214 270 332 388
#     4  11  22  37  61  85 122 163 204 253 311 369
#     4  10  23  42  64  95 126 173 216 269 323 394
#     4  10  22  40  64  84 120 174 226 252 310 392
#     4  11  23  36  54  87 123 156 199 253 309 359
#     4  11  23  37  58  87 121 164 209 258 300 363
#
# _framework density 21.132632999999998
#
# number of rings (size 3 to 8) (size 9 to 14) (size 15 to 20)
#    0.000    1.600    0.000    4.800   13.067    1.067 
#    0.000    1.333    1.467    0.000    0.000    0.000 
#    0.000    0.000    0.000    0.000    0.000    0.000 
#
# Total GULP energy -371745.024794 kJ/mol
# GULP energy per Si atom -12391.500826 kJ/mol
# Density = 2.108453 g / cm^3
# Si number density = 21.132633 Si / 1000 Ang^3
#
#
#
# Elastic Constant Matrix: (Units=GPa)
#
#
# Indices 1 2 3 4 5 6 
#
# 1 91.1682 16.3122 58.9489 0.0000 0.0000 0.0000
# 2 16.3122 89.6646 29.0306 0.0000 0.0000 0.0000
# 3 58.9489 29.0306 127.9363 0.0000 0.0000 0.0000
# 4 0.0000 0.0000 0.0000 24.5990 0.0000 0.0000
# 5 0.0000 0.0000 0.0000 0.0000 28.6425 0.0000
# 6 0.0000 0.0000 0.0000 0.0000 0.0000 35.3072
#
#
#
# Elastic Compliance Matrix: (Units=1/GPa)
#
#
# Indices 1 2 3 4 5 6 
#
# 1 0.015649 -0.000553 -0.007085 0.000000 0.000000 0.000000
# 2 -0.000553 0.012057 -0.002481 0.000000 0.000000 0.000000
# 3 -0.007085 -0.002481 0.011644 0.000000 0.000000 0.000000
# 4 0.000000 0.000000 0.000000 0.040652 0.000000 0.000000
# 5 0.000000 0.000000 0.000000 0.000000 0.034913 0.000000
# 6 0.000000 0.000000 0.000000 0.000000 0.000000 0.028323
#
#
# Mechanical properties :
#
#
# Convention : Reuss Voigt Hill
#
# Bulk Modulus (GPa) = 52.32510 57.48359 54.90435
# Shear Modulus (GPa) = 29.43850 31.34157 30.39004
#
# Velocity S-wave (km/s) = 3.73639 3.85527 3.79629
# Velocity P-wave (km/s) = 6.59001 6.86133 6.72704
#
# Compressibility (1/GPa) = 0.01911129
#
# Stress axis : x y z
#
# Youngs Moduli (GPa) = 63.90269 82.94246 85.88191
#
# Poissons Ratio (x) = 0.04587 0.60847
# Poissons Ratio (y) = 0.03534 0.21307
# Poissons Ratio (z) = 0.45275 0.20578
#
# Static dielectric constant tensor:
#      x y z
#    x 3.745310 0.000000 0.000000 
#    y 0.000000 4.161600 0.000000 
#    z 0.000000 0.000000 3.735790 
# 
# 
# High freq. dielectric constant tensor:
#      x y z
#    x 1.816240 0.000000 0.000000 
#    y 0.000000 1.851010 0.000000 
#    z 0.000000 0.000000 1.807850 
# 
# From -- ./inp_files/12321.got.cif
#   From: 2010.03.12/outbox.cif.g09.slc.cpg/sg41_7_cif.got.tgz:12321.got - 2010.04.14 01:55:53.
