data_PCOD8185633
_publ_section_title
;
Structure prediction by ZEFSAII (Michael W. Deem and Ramdas Pophale) SiO2 
 PCOD8185633
Probable space group: A B A 2
;
_chemical_formula_sum "Si O2"
_cell_formula_units_Z 60
_cell_length_a 17.449086
_cell_length_b 16.152342
_cell_length_c 9.175671
_cell_angle_alpha 90.000000
_cell_angle_beta 90.000000
_cell_angle_gamma 90.000000
_cell_volume 2586.104190
_symmetry_space_group_name_H-M "A B A 2"
_symmetry_group_IT_number 41
_symmetry_cell_setting 'orthorhombic'
loop_
_space_group_symop_operation_xyz
x,y,z
-x,-y,z
1/2-x,y,1/2+z
1/2+x,-y,1/2+z
x,1/2+y,1/2+z
-x,1/2-y,1/2+z
1/2-x,1/2+y,z
1/2+x,1/2-y,z
loop_
_atom_site_type_symbol
_atom_site_label
_atom_site_fract_x
_atom_site_fract_y
_atom_site_fract_z
Si Si1 0.949110 0.670060 0.674650
Si Si2 0.804217 0.277389 0.655114
Si Si3 0.500000 0.000000 0.588314
Si Si4 0.711704 0.127618 0.723460
Si Si5 0.349234 0.115500 0.117495
Si Si6 0.073909 0.725959 0.897553
Si Si7 0.753196 0.516161 0.988230
Si Si8 0.126842 0.604955 0.431453
O O1 0.965796 0.572290 0.689123
O O2 0.863789 0.684741 0.736878
O O3 0.949239 0.696572 0.502573
O O4 0.006988 0.718713 0.778899
O O5 0.777599 0.182002 0.642304
O O6 0.730164 0.335643 0.646349
O O7 0.844974 0.272487 0.812880
O O8 0.863871 0.312031 0.532421
O O9 0.565350 0.958332 0.492271
O O10 0.698575 0.049776 0.617235
O O11 0.731472 0.092704 0.881525
O O12 0.397420 0.123919 0.266726
O O13 0.330218 0.022429 0.061206
O O14 0.412058 0.149723 0.005160
O O15 0.708526 0.441395 0.911238
#
# Coordination Sequence:
#
# PCOD8185633 Si02
#       8
#     8   8   4   8   8   8   8   8
#     4  12  29  49  76 106 157 201 250 307 391 460
#     4  11  24  45  81 105 145 193 253 316 379 448
#     4  12  26  48  76 100 152 198 242 306 386 450
#     4  12  25  44  71 111 145 190 251 318 374 447
#     4  11  25  45  73 108 141 196 251 313 375 454
#     4  12  28  50  73 110 149 200 255 304 386 468
#     4  11  24  43  71 107 146 182 250 315 373 439
#     4  11  24  46  73 105 144 197 243 310 384 454
#
# _framework density 23.20092
#
# number of rings (size 3 to 8) (size 9 to 14) (size 15 to 20)
#    0.000    0.533    5.333    2.400    7.467    1.067 
#    2.400    0.000    0.000    0.000    0.000    0.000 
#    0.000    0.000    0.000    0.000    0.000    0.000 
#
# Total GULP energy -371704.958866 kJ/mol
# GULP energy per Si atom -12390.165296 kJ/mol
# Density = 2.314811 g / cm^3
# Si number density = 23.200920 Si / 1000 Ang^3
#
#
#
# Elastic Constant Matrix: (Units=GPa)
#
#
# Indices 1 2 3 4 5 6 
#
# 1 70.3510 29.2216 37.0479 0.0000 0.0000 0.0000
# 2 29.2216 105.4545 43.2809 0.0000 0.0000 0.0000
# 3 37.0479 43.2809 128.3803 0.0000 0.0000 0.0000
# 4 0.0000 0.0000 0.0000 35.5135 0.0000 0.0000
# 5 0.0000 0.0000 0.0000 0.0000 38.0400 0.0000
# 6 0.0000 0.0000 0.0000 0.0000 0.0000 38.1344
#
#
#
# Elastic Compliance Matrix: (Units=1/GPa)
#
#
# Indices 1 2 3 4 5 6 
#
# 1 0.017674 -0.003255 -0.004003 0.000000 0.000000 0.000000
# 2 -0.003255 0.011605 -0.002973 0.000000 0.000000 0.000000
# 3 -0.004003 -0.002973 0.009947 0.000000 0.000000 0.000000
# 4 0.000000 0.000000 0.000000 0.028158 0.000000 0.000000
# 5 0.000000 0.000000 0.000000 0.000000 0.026288 0.000000
# 6 0.000000 0.000000 0.000000 0.000000 0.000000 0.026223
#
#
# Mechanical properties :
#
#
# Convention : Reuss Voigt Hill
#
# Bulk Modulus (GPa) = 53.29273 58.14296 55.71784
# Shear Modulus (GPa) = 34.10349 35.31326 34.70838
#
# Velocity S-wave (km/s) = 3.83811 3.90559 3.87200
# Velocity P-wave (km/s) = 6.53157 6.74190 6.63757
#
# Compressibility (1/GPa) = 0.01876429
#
# Stress axis : x y z
#
# Youngs Moduli (GPa) = 56.57879 86.17075 100.53325
#
# Poissons Ratio (x) = 0.28045 0.40246
# Poissons Ratio (y) = 0.18414 0.29890
# Poissons Ratio (z) = 0.22650 0.25620
#
# Static dielectric constant tensor:
#      x y z
#    x 4.137730 0.000000 0.000000 
#    y 0.000000 4.204030 0.000000 
#    z 0.000000 0.000000 4.325740 
# 
# 
# High freq. dielectric constant tensor:
#      x y z
#    x 1.907660 0.000000 0.000000 
#    y 0.000000 1.918490 0.000000 
#    z 0.000000 0.000000 1.924760 
# 
# From -- ./inp_files/3175.got.cif
#   From: 2010.03.12/outbox.cif.g09.slc.cpg/sg41_2_cif.got.tgz:3175.got - 2010.04.14 01:55:53.
