data_PCOD8185799
_publ_section_title
;
Structure prediction by ZEFSAII (Michael W. Deem and Ramdas Pophale) SiO2 
 PCOD8185799
Probable space group: F M M 2
;
_chemical_formula_sum "Si O2"
_cell_formula_units_Z 128
_cell_length_a 20.668178
_cell_length_b 19.061021
_cell_length_c 19.124457
_cell_angle_alpha 90.000000
_cell_angle_beta 90.000000
_cell_angle_gamma 90.000000
_cell_volume 7534.205576
_symmetry_space_group_name_H-M "F M M 2"
_symmetry_group_IT_number 42
_symmetry_cell_setting 'orthorhombic'
loop_
_space_group_symop_operation_xyz
x,y,z
-x,-y,z
-x,y,z
x,-y,z
x,1/2+y,1/2+z
-x,1/2-y,1/2+z
-x,1/2+y,1/2+z
x,1/2-y,1/2+z
1/2+x,y,1/2+z
1/2-x,-y,1/2+z
1/2-x,y,1/2+z
1/2+x,-y,1/2+z
1/2+x,1/2+y,z
1/2-x,1/2-y,z
1/2-x,1/2+y,z
1/2+x,1/2-y,z
loop_
_atom_site_type_symbol
_atom_site_label
_atom_site_fract_x
_atom_site_fract_y
_atom_site_fract_z
Si Si1 0.184516 0.077786 0.981010
Si Si2 0.574931 0.821808 0.704928
Si Si3 0.284786 0.677559 0.556063
Si Si4 0.926962 0.077252 0.083534
Si Si5 0.815645 0.793763 0.705093
Si Si6 0.664117 0.688054 0.410156
Si Si7 0.925265 0.081404 0.336571
Si Si8 0.190998 0.831062 0.856173
O O1 0.170500 0.102565 0.902023
O O2 0.213350 0.000000 0.977808
O O3 0.234507 0.119849 0.029652
O O4 0.114371 0.081534 0.014202
O O5 0.500000 0.796795 0.704722
O O6 0.595549 0.861576 0.634906
O O7 0.621429 0.755414 0.711320
O O8 0.586632 0.880147 0.763666
O O9 0.250000 0.750000 0.570371
O O10 0.316837 0.660629 0.632552
O O11 0.337007 0.689330 0.494779
O O12 0.000000 0.090198 0.060059
O O13 0.919495 0.000000 0.119212
O O14 0.750000 0.750000 0.712986
O O15 0.817568 0.844907 0.773138
O O16 0.615999 0.624738 0.392691
O O17 0.734203 0.677348 0.376708
O O18 0.645580 0.764874 0.380194
O O19 0.000000 0.084697 0.359123
O O20 0.902317 0.000000 0.332551
#
# Coordination Sequence:
#
# PCOD8185799 Si02
#       8
#    16  16  16  16  16  16  16  16
#     4  10  20  34  52  76 103 134 174 222 272 319
#     4  10  19  31  48  76 110 140 175 215 261 319
#     4  10  19  32  54  75 102 135 170 217 268 318
#     4   9  17  30  47  69 101 136 167 206 260 315
#     4  11  19  32  53  75  99 139 177 211 261 314
#     4  10  17  33  50  74 101 137 174 213 265 309
#     4  10  20  33  51  77 110 145 179 217 265 323
#     4  10  18  33  52  74 103 133 172 221 262 310
#
# _framework density 16.989183000000001
#
# number of rings (size 3 to 8) (size 9 to 14) (size 15 to 20)
#    0.000    2.000    5.000    1.875    0.000    3.500 
#    0.000    2.500    0.000    0.000    0.000    0.000 
#    0.000    3.000    0.000    0.000    0.000    0.000 
#
# Total GULP energy -396450.756135 kJ/mol
# GULP energy per Si atom -12389.086129 kJ/mol
# Density = 1.695052 g / cm^3
# Si number density = 16.989183 Si / 1000 Ang^3
#
#
#
# Elastic Constant Matrix: (Units=GPa)
#
#
# Indices 1 2 3 4 5 6 
#
# 1 50.8380 29.7083 34.4296 0.0000 0.0000 0.0000
# 2 29.7083 83.1489 48.1224 0.0000 0.0000 0.0000
# 3 34.4296 48.1224 156.0874 0.0000 0.0000 0.0000
# 4 0.0000 0.0000 0.0000 29.9980 0.0000 0.0000
# 5 0.0000 0.0000 0.0000 0.0000 3.2778 0.0000
# 6 0.0000 0.0000 0.0000 0.0000 0.0000 27.9956
#
#
#
# Elastic Compliance Matrix: (Units=1/GPa)
#
#
# Indices 1 2 3 4 5 6 
#
# 1 0.026380 -0.007373 -0.003546 0.000000 0.000000 0.000000
# 2 -0.007373 0.016699 -0.003522 0.000000 0.000000 0.000000
# 3 -0.003546 -0.003522 0.008275 0.000000 0.000000 0.000000
# 4 0.000000 0.000000 0.000000 0.033336 0.000000 0.000000
# 5 0.000000 0.000000 0.000000 0.000000 0.305083 0.000000
# 6 0.000000 0.000000 0.000000 0.000000 0.000000 0.035720
#
#
# Mechanical properties :
#
#
# Convention : Reuss Voigt Hill
#
# Bulk Modulus (GPa) = 44.49957 57.17724 50.83841
# Shear Modulus (GPa) = 10.82565 24.10855 17.46710
#
# Velocity S-wave (km/s) = 2.52704 3.77112 3.20993
# Velocity P-wave (km/s) = 5.89613 7.25878 6.61265
#
# Compressibility (1/GPa) = 0.02247212
#
# Stress axis : x y z
#
# Youngs Moduli (GPa) = 37.90687 59.88210 120.85090
#
# Poissons Ratio (x) = 0.44153 0.42850
# Poissons Ratio (y) = 0.27950 0.42565
# Poissons Ratio (z) = 0.13441 0.21091
#
# Static dielectric constant tensor:
#      x y z
#    x 3.068620 0.000000 0.000000 
#    y 0.000000 3.233080 0.000000 
#    z 0.000000 0.000000 3.535340 
# 
# 
# High freq. dielectric constant tensor:
#      x y z
#    x 1.634660 0.000000 0.000000 
#    y 0.000000 1.637150 0.000000 
#    z 0.000000 0.000000 1.663840 
# 
# From -- ./inp_files/26622.got.cif
#   From: 2010.03.12/outbox.cif.g09.slc.cpg/sg42_14_cif.got.tgz:26622.got - 2010.04.14 02:04:31.
