data_PCOD8185019
_publ_section_title
;
Structure prediction by ZEFSAII (Michael W. Deem and Ramdas Pophale) SiO2 
 PCOD8185019
Probable space group: A B A 2
;
_chemical_formula_sum "Si O2"
_cell_formula_units_Z 36
_cell_length_a 9.596230
_cell_length_b 14.179237
_cell_length_c 11.109147
_cell_angle_alpha 90.000000
_cell_angle_beta 90.000000
_cell_angle_gamma 90.000000
_cell_volume 1511.590743
_symmetry_space_group_name_H-M "A B A 2"
_symmetry_group_IT_number 41
_symmetry_cell_setting 'orthorhombic'
loop_
_space_group_symop_operation_xyz
x,y,z
-x,-y,z
1/2-x,y,1/2+z
1/2+x,-y,1/2+z
x,1/2+y,1/2+z
-x,1/2-y,1/2+z
1/2-x,1/2+y,z
1/2+x,1/2-y,z
loop_
_atom_site_type_symbol
_atom_site_label
_atom_site_fract_x
_atom_site_fract_y
_atom_site_fract_z
Si Si1 0.500000 0.500000 0.950320
Si Si2 0.192234 0.692074 0.972677
Si Si3 0.395664 0.635009 0.147878
Si Si4 0.789046 0.496358 0.849636
Si Si5 0.577867 0.195138 0.856869
O O1 0.626783 0.523994 0.860187
O O2 0.474766 0.592403 0.032277
O O3 0.179385 0.580473 0.951298
O O4 0.287739 0.737872 0.865649
O O5 0.033826 0.730113 0.960114
O O6 0.269095 0.704416 0.101416
O O7 0.329482 0.546760 0.220146
O O8 0.500881 0.699134 0.226916
O O9 0.882109 0.586789 0.878264
#
# Coordination Sequence:
#
# PCOD8185019 Si02
#       5
#     4   8   8   8   8
#     4  10  20  40  72 100 132 184 234 280 352 410
#     4  10  24  39  67 101 134 181 235 277 354 416
#     4  10  20  44  67  97 141 184 225 296 346 405
#     4  10  22  43  67  95 138 179 234 284 343 418
#     4  11  23  45  68  97 144 182 229 297 340 422
#
# _framework density 23.815968000000002
#
# number of rings (size 3 to 8) (size 9 to 14) (size 15 to 20)
#    0.000    1.778    2.222    2.000    6.222    3.556 
#    8.000    0.000    0.000    0.000    0.000    0.000 
#    0.000    0.000    0.000    0.000    0.000    0.000 
#
# Total GULP energy -223054.312485 kJ/mol
# GULP energy per Si atom -12391.906249 kJ/mol
# Density = 2.376176 g / cm^3
# Si number density = 23.815968 Si / 1000 Ang^3
#
#
#
# Elastic Constant Matrix: (Units=GPa)
#
#
# Indices 1 2 3 4 5 6 
#
# 1 135.1827 7.7998 28.9874 0.0000 0.0000 0.0000
# 2 7.7998 47.6711 18.0952 0.0000 0.0000 0.0000
# 3 28.9874 18.0952 62.7724 0.0000 0.0000 0.0000
# 4 0.0000 0.0000 0.0000 20.2095 0.0000 0.0000
# 5 0.0000 0.0000 0.0000 0.0000 28.1554 0.0000
# 6 0.0000 0.0000 0.0000 0.0000 0.0000 34.2315
#
#
#
# Elastic Compliance Matrix: (Units=1/GPa)
#
#
# Indices 1 2 3 4 5 6 
#
# 1 0.008211 0.000108 -0.003823 0.000000 0.000000 0.000000
# 2 0.000108 0.023556 -0.006840 0.000000 0.000000 0.000000
# 3 -0.003823 -0.006840 0.019668 0.000000 0.000000 0.000000
# 4 0.000000 0.000000 0.000000 0.049482 0.000000 0.000000
# 5 0.000000 0.000000 0.000000 0.000000 0.035517 0.000000
# 6 0.000000 0.000000 0.000000 0.000000 0.000000 0.029213
#
#
# Mechanical properties :
#
#
# Convention : Reuss Voigt Hill
#
# Bulk Modulus (GPa) = 32.97715 39.48789 36.23252
# Shear Modulus (GPa) = 25.39822 29.23555 27.31688
#
# Velocity S-wave (km/s) = 3.26918 3.50746 3.39041
# Velocity P-wave (km/s) = 5.30346 5.74625 5.52929
#
# Compressibility (1/GPa) = 0.03032403
#
# Stress axis : x y z
#
# Youngs Moduli (GPa) = 121.78945 42.45237 50.84506
#
# Poissons Ratio (x) = -0.00457 0.19437
# Poissons Ratio (y) = -0.01310 0.34778
# Poissons Ratio (z) = 0.46556 0.29038
#
# Static dielectric constant tensor:
#      x y z
#    x 5.024990 0.000000 0.000000 
#    y 0.000000 4.029940 0.000000 
#    z 0.000000 0.000000 4.156960 
# 
# 
# High freq. dielectric constant tensor:
#      x y z
#    x 1.966740 0.000000 0.000000 
#    y 0.000000 1.932040 0.000000 
#    z 0.000000 0.000000 1.919950 
# 
# From -- ./inp_files/4823.got.cif
#   From: 2010.03.12/outbox.cif.g09.slc.cpg/sg41_3_cif.got.tgz:4823.got - 2010.04.14 01:55:53.
