data_PCOD8185407
_publ_section_title
;
Structure prediction by ZEFSAII (Michael W. Deem and Ramdas Pophale) SiO2 
 PCOD8185407
Probable space group: A B A 2
;
_chemical_formula_sum "Si O2"
_cell_formula_units_Z 64
_cell_length_a 12.150422
_cell_length_b 15.854487
_cell_length_c 14.116219
_cell_angle_alpha 90.000000
_cell_angle_beta 90.000000
_cell_angle_gamma 90.000000
_cell_volume 2719.330185
_symmetry_space_group_name_H-M "A B A 2"
_symmetry_group_IT_number 41
_symmetry_cell_setting 'orthorhombic'
loop_
_space_group_symop_operation_xyz
x,y,z
-x,-y,z
1/2-x,y,1/2+z
1/2+x,-y,1/2+z
x,1/2+y,1/2+z
-x,1/2-y,1/2+z
1/2-x,1/2+y,z
1/2+x,1/2-y,z
loop_
_atom_site_type_symbol
_atom_site_label
_atom_site_fract_x
_atom_site_fract_y
_atom_site_fract_z
Si Si1 0.569210 0.648326 0.888030
Si Si2 0.164030 0.833711 0.173643
Si Si3 0.880799 0.537626 0.928702
Si Si4 0.465853 0.590352 0.073620
Si Si5 0.712963 0.026895 0.267204
Si Si6 0.111269 0.272633 0.870716
Si Si7 0.791350 0.432001 0.091077
Si Si8 0.279352 0.233589 0.007677
O O1 0.613221 0.583415 0.808121
O O2 0.500143 0.724682 0.842190
O O3 0.498072 0.594984 0.962857
O O4 0.666952 0.696341 0.939973
O O5 0.215190 0.925882 0.187094
O O6 0.174618 0.785266 0.272924
O O7 0.244345 0.782123 0.105106
O O8 0.038323 0.840953 0.133346
O O9 0.794852 0.500049 0.851494
O O10 0.900660 0.637273 0.921961
O O11 0.000000 0.500000 0.910886
O O12 0.827189 0.513701 0.030098
O O13 0.500000 0.500000 0.113958
O O14 0.335636 0.599214 0.088573
O O15 0.671399 0.947316 0.201793
O O16 0.169883 0.210821 0.947832
O O17 0.848753 0.350743 0.038254
#
# Coordination Sequence:
#
# PCOD8185407 Si02
#       8
#     8   8   8   8   8   8   8   8
#     4  11  23  47  70 101 145 193 241 305 367 456
#     4  10  23  40  68 101 139 185 244 304 364 445
#     4  11  25  47  71 102 148 190 243 310 383 451
#     4  11  22  40  70 100 136 184 242 295 374 443
#     4  11  24  43  72 104 138 187 245 311 361 436
#     4  11  23  44  71 101 139 197 244 300 376 452
#     4  12  25  44  72 106 144 191 242 313 376 452
#     4  11  23  45  66 103 143 185 247 297 379 446
#
# _framework density 23.535208999999998
#
# number of rings (size 3 to 8) (size 9 to 14) (size 15 to 20)
#    0.000    1.000    5.000    2.250    3.500    2.000 
#    9.000    0.000    0.000    0.000    0.000    0.000 
#    0.000    0.000    0.000    0.000    0.000    0.000 
#
# Total GULP energy -396442.980589 kJ/mol
# GULP energy per Si atom -12388.843143 kJ/mol
# Density = 2.348164 g / cm^3
# Si number density = 23.535209 Si / 1000 Ang^3
#
#
#
# Elastic Constant Matrix: (Units=GPa)
#
#
# Indices 1 2 3 4 5 6 
#
# 1 67.7774 24.4873 29.1067 0.0000 0.0000 0.0000
# 2 24.4873 80.2501 51.2192 0.0000 0.0000 0.0000
# 3 29.1067 51.2192 134.1407 0.0000 0.0000 0.0000
# 4 0.0000 0.0000 0.0000 32.9265 0.0000 0.0000
# 5 0.0000 0.0000 0.0000 0.0000 26.4007 0.0000
# 6 0.0000 0.0000 0.0000 0.0000 0.0000 37.2655
#
#
#
# Elastic Compliance Matrix: (Units=1/GPa)
#
#
# Indices 1 2 3 4 5 6 
#
# 1 0.017090 -0.003766 -0.002270 0.000000 0.000000 0.000000
# 2 -0.003766 0.017306 -0.005791 0.000000 0.000000 0.000000
# 3 -0.002270 -0.005791 0.010159 0.000000 0.000000 0.000000
# 4 0.000000 0.000000 0.000000 0.030371 0.000000 0.000000
# 5 0.000000 0.000000 0.000000 0.000000 0.037878 0.000000
# 6 0.000000 0.000000 0.000000 0.000000 0.000000 0.026835
#
#
# Mechanical properties :
#
#
# Convention : Reuss Voigt Hill
#
# Bulk Modulus (GPa) = 47.84566 54.64385 51.24475
# Shear Modulus (GPa) = 29.36716 31.14219 30.25468
#
# Velocity S-wave (km/s) = 3.53625 3.64155 3.58929
# Velocity P-wave (km/s) = 6.08662 6.39918 6.24486
#
# Compressibility (1/GPa) = 0.02090054
#
# Stress axis : x y z
#
# Youngs Moduli (GPa) = 58.51489 57.78309 98.43814
#
# Poissons Ratio (x) = 0.21759 0.22349
# Poissons Ratio (y) = 0.22035 0.57005
# Poissons Ratio (z) = 0.13285 0.33462
#
# Static dielectric constant tensor:
#      x y z
#    x 4.172750 0.000000 0.000000 
#    y 0.000000 4.511880 0.000000 
#    z 0.000000 0.000000 4.335730 
# 
# 
# High freq. dielectric constant tensor:
#      x y z
#    x 1.913280 0.000000 0.000000 
#    y 0.000000 1.934600 0.000000 
#    z 0.000000 0.000000 1.939400 
# 
# From -- ./inp_files/8125.got.cif
#   From: 2010.03.12/outbox.cif.g09.slc.cpg/sg41_5_cif.got.tgz:8125.got - 2010.04.14 01:55:53.
