data_PCOD8185721
_publ_section_title
;
Structure prediction by ZEFSAII (Michael W. Deem and Ramdas Pophale) SiO2 
 PCOD8185721
Probable space group: A B A 2
;
_chemical_formula_sum "Si O2"
_cell_formula_units_Z 28
_cell_length_a 23.316118
_cell_length_b 8.690565
_cell_length_c 4.696624
_cell_angle_alpha 90.000000
_cell_angle_beta 90.000000
_cell_angle_gamma 90.000000
_cell_volume 951.678044
_symmetry_space_group_name_H-M "A B A 2"
_symmetry_group_IT_number 41
_symmetry_cell_setting 'orthorhombic'
loop_
_space_group_symop_operation_xyz
x,y,z
-x,-y,z
1/2-x,y,1/2+z
1/2+x,-y,1/2+z
x,1/2+y,1/2+z
-x,1/2-y,1/2+z
1/2-x,1/2+y,z
1/2+x,1/2-y,z
loop_
_atom_site_type_symbol
_atom_site_label
_atom_site_fract_x
_atom_site_fract_y
_atom_site_fract_z
Si Si1 0.150588 0.252523 0.882020
Si Si2 0.000000 0.000000 0.191328
Si Si3 0.713343 0.447323 0.313859
Si Si4 0.574681 0.229487 0.372479
O O1 0.202891 0.370583 0.833448
O O2 0.127543 0.203570 0.570615
O O3 0.164077 0.119857 0.115641
O O4 0.096251 0.323653 0.057574
O O5 0.026304 0.138409 0.378233
O O6 0.949576 0.070505 0.997036
O O7 0.725611 0.401858 0.645995
#
# Coordination Sequence:
#
# PCOD8185721 Si02
#       4
#     8   4   8   8
#     4  12  27  47  76 110 150 198 252 313 377 452
#     4  12  30  52  80 114 156 204 256 318 382 456
#     4  12  25  46  74 109 150 197 250 310 377 450
#     4  12  29  51  78 114 154 202 256 315 383 454
#
# _framework density 29.421717000000001
#
# number of rings (size 3 to 8) (size 9 to 14) (size 15 to 20)
#    0.000    0.000    0.000    8.571    0.000   19.429 
#    0.000    0.000    0.000    0.000    0.000    0.000 
#    0.000    0.000    0.000    0.000    0.000    0.000 
#
# Total GULP energy -173541.207266 kJ/mol
# GULP energy per Si atom -12395.800519 kJ/mol
# Density = 2.935475 g / cm^3
# Si number density = 29.421717 Si / 1000 Ang^3
#
#
#
# Elastic Constant Matrix: (Units=GPa)
#
#
# Indices 1 2 3 4 5 6 
#
# 1 25.5976 -5.3362 0.8094 0.0000 0.0000 0.0000
# 2 -5.3362 108.7614 29.8549 0.0000 0.0000 0.0000
# 3 0.8094 29.8549 198.8906 0.0000 0.0000 0.0000
# 4 0.0000 0.0000 0.0000 20.4188 0.0000 0.0000
# 5 0.0000 0.0000 0.0000 0.0000 52.2113 0.0000
# 6 0.0000 0.0000 0.0000 0.0000 0.0000 25.8823
#
#
#
# Elastic Compliance Matrix: (Units=1/GPa)
#
#
# Indices 1 2 3 4 5 6 
#
# 1 0.039512 0.002068 -0.000471 0.000000 0.000000 0.000000
# 2 0.002068 0.009698 -0.001464 0.000000 0.000000 0.000000
# 3 -0.000471 -0.001464 0.005250 0.000000 0.000000 0.000000
# 4 0.000000 0.000000 0.000000 0.048975 0.000000 0.000000
# 5 0.000000 0.000000 0.000000 0.000000 0.019153 0.000000
# 6 0.000000 0.000000 0.000000 0.000000 0.000000 0.038636
#
#
# Mechanical properties :
#
#
# Convention : Reuss Voigt Hill
#
# Bulk Modulus (GPa) = 18.27328 42.65621 30.46474
# Shear Modulus (GPa) = 27.90183 40.23059 34.06621
#
# Velocity S-wave (km/s) = 3.08286 3.70182 3.40642
# Velocity P-wave (km/s) = 4.34699 5.72721 5.08415
#
# Compressibility (1/GPa) = 0.05472470
#
# Stress axis : x y z
#
# Youngs Moduli (GPa) = 25.30871 103.11620 190.49136
#
# Poissons Ratio (x) = -0.21324 0.08976
# Poissons Ratio (y) = -0.05234 0.27890
# Poissons Ratio (z) = 0.01193 0.15097
#
# Static dielectric constant tensor:
#      x y z
#    x 5.776700 0.000000 0.000000 
#    y 0.000000 5.348320 0.000000 
#    z 0.000000 0.000000 5.642930 
# 
# 
# High freq. dielectric constant tensor:
#      x y z
#    x 2.222730 0.000000 0.000000 
#    y 0.000000 2.180490 0.000000 
#    z 0.000000 0.000000 2.232200 
# 
# From -- ./inp_files/1066.got.cif
#   From: 2010.03.12/outbox.cif.g09.slc.cpg/sg41_1_cif.got.tgz:1066.got - 2010.04.14 01:55:53.
