data_PCOD8185617
_publ_section_title
;
Structure prediction by ZEFSAII (Michael W. Deem and Ramdas Pophale) SiO2 
 PCOD8185617
Probable space group: A B A 2
;
_chemical_formula_sum "Si O2"
_cell_formula_units_Z 32
_cell_length_a 14.635973
_cell_length_b 11.103951
_cell_length_c 9.151886
_cell_angle_alpha 90.000000
_cell_angle_beta 90.000000
_cell_angle_gamma 90.000000
_cell_volume 1487.338220
_symmetry_space_group_name_H-M "A B A 2"
_symmetry_group_IT_number 41
_symmetry_cell_setting 'orthorhombic'
loop_
_space_group_symop_operation_xyz
x,y,z
-x,-y,z
1/2-x,y,1/2+z
1/2+x,-y,1/2+z
x,1/2+y,1/2+z
-x,1/2-y,1/2+z
1/2-x,1/2+y,z
1/2+x,1/2-y,z
loop_
_atom_site_type_symbol
_atom_site_label
_atom_site_fract_x
_atom_site_fract_y
_atom_site_fract_z
Si Si1 0.972378 0.130131 0.723780
Si Si2 0.095220 0.467659 0.920075
Si Si3 0.661459 0.728564 0.220172
Si Si4 0.674552 0.777866 0.907223
O O1 0.926895 0.111211 0.564586
O O2 0.901420 0.201184 0.823152
O O3 0.063330 0.209109 0.715507
O O4 0.000000 0.000000 0.791517
O O5 0.157075 0.398511 0.803769
O O6 0.142749 0.591976 0.964348
O O7 0.000000 0.500000 0.840415
O O8 0.737022 0.804155 0.308539
O O9 0.697797 0.704926 0.055868
#
# Coordination Sequence:
#
# PCOD8185617 Si02
#       4
#     8   8   8   8
#     4  11  23  48  72  99 142 186 232 292 354 418
#     4  11  23  48  73  97 143 183 233 294 350 417
#     4  12  25  44  72 102 139 186 233 291 354 418
#     4  12  27  45  69 106 142 184 239 291 353 424
#
# _framework density 21.514944
#
# number of rings (size 3 to 8) (size 9 to 14) (size 15 to 20)
#    0.000    0.500    7.500    1.500    3.500    3.000 
#    4.500    0.000    0.000    0.000    0.000    0.000 
#    0.000    0.000    0.000    0.000    0.000    0.000 
#
# Total GULP energy -198358.884977 kJ/mol
# GULP energy per Si atom -12397.430311 kJ/mol
# Density = 2.146597 g / cm^3
# Si number density = 21.514944 Si / 1000 Ang^3
#
#
#
# Elastic Constant Matrix: (Units=GPa)
#
#
# Indices 1 2 3 4 5 6 
#
# 1 101.9283 23.6346 74.0746 0.0000 0.0000 0.0000
# 2 23.6346 96.1031 53.7561 0.0000 0.0000 0.0000
# 3 74.0746 53.7561 167.0053 0.0000 0.0000 0.0000
# 4 0.0000 0.0000 0.0000 19.7966 0.0000 0.0000
# 5 0.0000 0.0000 0.0000 0.0000 37.5003 0.0000
# 6 0.0000 0.0000 0.0000 0.0000 0.0000 31.6029
#
#
#
# Elastic Compliance Matrix: (Units=1/GPa)
#
#
# Indices 1 2 3 4 5 6 
#
# 1 0.014478 0.000038 -0.006434 0.000000 0.000000 0.000000
# 2 0.000038 0.012690 -0.004102 0.000000 0.000000 0.000000
# 3 -0.006434 -0.004102 0.010162 0.000000 0.000000 0.000000
# 4 0.000000 0.000000 0.000000 0.050514 0.000000 0.000000
# 5 0.000000 0.000000 0.000000 0.000000 0.026666 0.000000
# 6 0.000000 0.000000 0.000000 0.000000 0.000000 0.031643
#
#
# Mechanical properties :
#
#
# Convention : Reuss Voigt Hill
#
# Bulk Modulus (GPa) = 61.21731 74.21858 67.71795
# Shear Modulus (GPa) = 28.96997 32.01805 30.49401
#
# Velocity S-wave (km/s) = 3.67346 3.86188 3.76884
# Velocity P-wave (km/s) = 6.81964 7.37947 7.10507
#
# Compressibility (1/GPa) = 0.01633525
#
# Stress axis : x y z
#
# Youngs Moduli (GPa) = 69.07225 78.79933 98.40739
#
# Poissons Ratio (x) = -0.00302 0.63314
# Poissons Ratio (y) = -0.00265 0.40365
# Poissons Ratio (z) = 0.44440 0.32322
#
# Static dielectric constant tensor:
#      x y z
#    x 4.154670 0.000000 0.000000 
#    y 0.000000 3.912670 0.000000 
#    z 0.000000 0.000000 3.994350 
# 
# 
# High freq. dielectric constant tensor:
#      x y z
#    x 1.859410 0.000000 0.000000 
#    y 0.000000 1.842130 0.000000 
#    z 0.000000 0.000000 1.846020 
# 
# From -- ./inp_files/2287.got.cif
#   From: 2010.03.12/outbox.cif.g09.slc.cpg/sg41_2_cif.got.tgz:2287.got - 2010.04.14 01:55:53.
