data_PCOD8185936
_publ_section_title
;
Structure prediction by ZEFSAII (Michael W. Deem and Ramdas Pophale) SiO2 
 PCOD8185936
Probable space group: F M M 2
;
_chemical_formula_sum "Si O2"
_cell_formula_units_Z 96
_cell_length_a 9.050558
_cell_length_b 23.690447
_cell_length_c 25.372032
_cell_angle_alpha 90.000000
_cell_angle_beta 90.000000
_cell_angle_gamma 90.000000
_cell_volume 5440.062153
_symmetry_space_group_name_H-M "F M M 2"
_symmetry_group_IT_number 42
_symmetry_cell_setting 'orthorhombic'
loop_
_space_group_symop_operation_xyz
x,y,z
-x,-y,z
-x,y,z
x,-y,z
x,1/2+y,1/2+z
-x,1/2-y,1/2+z
-x,1/2+y,1/2+z
x,1/2-y,1/2+z
1/2+x,y,1/2+z
1/2-x,-y,1/2+z
1/2-x,y,1/2+z
1/2+x,-y,1/2+z
1/2+x,1/2+y,z
1/2-x,1/2-y,z
1/2-x,1/2+y,z
1/2+x,1/2-y,z
loop_
_atom_site_type_symbol
_atom_site_label
_atom_site_fract_x
_atom_site_fract_y
_atom_site_fract_z
Si Si1 0.325084 0.189918 0.201390
Si Si2 0.174496 0.307916 0.395826
Si Si3 0.828432 0.306864 0.514184
Si Si4 0.331568 0.500000 0.150966
Si Si5 0.170280 0.621149 0.612257
Si Si6 0.824976 0.618442 0.300572
Si Si7 0.324156 0.000000 0.261349
O O1 0.500000 0.197631 0.200620
O O2 0.250000 0.250000 0.196992
O O3 0.277919 0.152053 0.152363
O O4 0.268228 0.159588 0.254429
O O5 0.250000 0.250000 0.377734
O O6 0.223391 0.324093 0.455244
O O7 0.229694 0.357635 0.356870
O O8 0.000000 0.299489 0.390837
O O9 0.750000 0.250000 0.533962
O O10 0.790351 0.358205 0.553267
O O11 0.000000 0.292661 0.513981
O O12 0.500000 0.500000 0.171384
O O13 0.299620 0.445671 0.114639
O O14 0.226626 0.500000 0.201202
O O15 0.000000 0.635523 0.626159
O O16 0.761691 0.555330 0.291477
O O17 0.000000 0.615721 0.298534
O O18 0.500000 0.000000 0.260488
#
# Coordination Sequence:
#
# PCOD8185936 Si02
#       7
#    16  16  16   8  16  16   8
#     4  11  21  32  48  73 101 130 161 203 251 299
#     4   9  17  32  51  73  98 128 162 200 246 294
#     4   9  18  32  51  72  98 129 163 201 245 295
#     4  10  20  34  51  71  99 133 168 205 248 292
#     4  10  20  34  50  72 100 131 166 206 247 295
#     4   9  18  31  50  73  98 126 162 203 243 290
#     4  10  18  34  53  71  97 131 168 203 242 294
#
# _framework density 17.646857000000001
#
# number of rings (size 3 to 8) (size 9 to 14) (size 15 to 20)
#    0.000    2.333    1.667    1.500    0.000    2.000 
#    0.000    2.500    0.000    5.000    0.000    0.000 
#    0.000    6.667    0.000    0.000    0.000    0.000 
#
# Total GULP energy -297580.846266 kJ/mol
# GULP energy per Si atom -12399.201928 kJ/mol
# Density = 1.760669 g / cm^3
# Si number density = 17.646857 Si / 1000 Ang^3
#
#
#
# Elastic Constant Matrix: (Units=GPa)
#
#
# Indices 1 2 3 4 5 6 
#
# 1 34.0075 32.6435 25.7214 0.0000 0.0000 0.0000
# 2 32.6435 157.0900 78.3221 0.0000 0.0000 0.0000
# 3 25.7214 78.3221 120.4742 0.0000 0.0000 0.0000
# 4 0.0000 0.0000 0.0000 30.9161 0.0000 0.0000
# 5 0.0000 0.0000 0.0000 0.0000 20.3560 0.0000
# 6 0.0000 0.0000 0.0000 0.0000 0.0000 13.7071
#
#
#
# Elastic Compliance Matrix: (Units=1/GPa)
#
#
# Indices 1 2 3 4 5 6 
#
# 1 0.038273 -0.005739 -0.004440 0.000000 0.000000 0.000000
# 2 -0.005739 0.010279 -0.005457 0.000000 0.000000 0.000000
# 3 -0.004440 -0.005457 0.012796 0.000000 0.000000 0.000000
# 4 0.000000 0.000000 0.000000 0.032346 0.000000 0.000000
# 5 0.000000 0.000000 0.000000 0.000000 0.049126 0.000000
# 6 0.000000 0.000000 0.000000 0.000000 0.000000 0.072955
#
#
# Mechanical properties :
#
#
# Convention : Reuss Voigt Hill
#
# Bulk Modulus (GPa) = 33.25035 64.99397 49.12216
# Shear Modulus (GPa) = 19.44971 24.65480 22.05226
#
# Velocity S-wave (km/s) = 3.32349 3.74186 3.53886
# Velocity P-wave (km/s) = 5.79745 7.45513 6.67793
#
# Compressibility (1/GPa) = 0.03007487
#
# Stress axis : x y z
#
# Youngs Moduli (GPa) = 26.12826 97.28185 78.14679
#
# Poissons Ratio (x) = 0.55834 0.34697
# Poissons Ratio (y) = 0.14996 0.42648
# Poissons Ratio (z) = 0.11601 0.53091
#
# Static dielectric constant tensor:
#      x y z
#    x 3.123160 0.000000 0.000000 
#    y 0.000000 3.581180 0.000000 
#    z 0.000000 0.000000 3.463680 
# 
# 
# High freq. dielectric constant tensor:
#      x y z
#    x 1.664380 0.000000 0.000000 
#    y 0.000000 1.685020 0.000000 
#    z 0.000000 0.000000 1.682990 
# 
# From -- ./inp_files/28111.got.cif
#   From: 2010.03.12/outbox.cif.g09.slc.cpg/sg42_15_cif.got.tgz:28111.got - 2010.04.14 02:04:31.
