data_PCOD8185739
_publ_section_title
;
Structure prediction by ZEFSAII (Michael W. Deem and Ramdas Pophale) SiO2 
 PCOD8185739
Probable space group: A B A 2
;
_chemical_formula_sum "Si O2"
_cell_formula_units_Z 64
_cell_length_a 9.218185
_cell_length_b 13.448465
_cell_length_c 28.183686
_cell_angle_alpha 90.000000
_cell_angle_beta 90.000000
_cell_angle_gamma 90.000000
_cell_volume 3493.943907
_symmetry_space_group_name_H-M "A B A 2"
_symmetry_group_IT_number 41
_symmetry_cell_setting 'orthorhombic'
loop_
_space_group_symop_operation_xyz
x,y,z
-x,-y,z
1/2-x,y,1/2+z
1/2+x,-y,1/2+z
x,1/2+y,1/2+z
-x,1/2-y,1/2+z
1/2-x,1/2+y,z
1/2+x,1/2-y,z
loop_
_atom_site_type_symbol
_atom_site_label
_atom_site_fract_x
_atom_site_fract_y
_atom_site_fract_z
Si Si1 0.231043 0.620886 0.821930
Si Si2 0.407665 0.311626 0.322736
Si Si3 0.907665 0.688374 0.074680
Si Si4 0.834976 0.534220 0.895729
Si Si5 0.268959 0.120888 0.075486
Si Si6 0.665026 0.034220 0.001688
Si Si7 0.341536 0.966686 0.152727
Si Si8 0.341534 0.466683 0.244690
O O1 0.365027 0.696414 0.819812
O O2 0.255391 0.549159 0.867251
O O3 0.232573 0.555372 0.774324
O O4 0.081015 0.681448 0.826529
O O5 0.330008 0.360293 0.368739
O O6 0.351314 0.367700 0.276075
O O7 0.865025 0.803585 0.077606
O O8 0.830001 0.639709 0.028678
O O9 0.851322 0.632295 0.121341
O O10 0.081014 0.681452 0.070884
O O11 0.000000 0.500000 0.896729
O O12 0.770756 0.546147 0.948709
O O13 0.244604 0.049158 0.030166
O O14 0.267439 0.055378 0.123094
O O15 0.500000 0.000000 0.000695
O O16 0.249995 0.940069 0.198707
O O17 0.500000 0.000000 0.169374
O O18 0.500000 0.500000 0.228048
#
# Coordination Sequence:
#
# PCOD8185739 Si02
#       8
#     8   8   8   8   8   8   8   8
#     4   9  18  32  49  70  95 122 154 191 230 273
#     4   9  18  32  49  70  95 122 154 191 230 273
#     4   9  18  32  49  70  95 122 154 191 230 273
#     4   8  15  30  50  69  93 126 157 185 225 277
#     4   9  18  32  49  70  95 122 154 191 230 273
#     4   8  15  30  50  69  93 126 157 185 225 277
#     4   9  19  34  49  67  93 124 156 190 230 276
#     4   9  19  34  49  67  93 124 156 190 230 276
#
# _framework density 18.317409000000001
#
# number of rings (size 3 to 8) (size 9 to 14) (size 15 to 20)
#    0.000    3.250    0.000    3.000    0.000    4.000 
#    0.000    8.750    0.000    1.500    0.000    0.000 
#    0.000    0.000    0.000    0.000    0.000    0.000 
#
# Total GULP energy -396731.820676 kJ/mol
# GULP energy per Si atom -12397.869396 kJ/mol
# Density = 1.827572 g / cm^3
# Si number density = 18.317409 Si / 1000 Ang^3
#
#
#
# Elastic Constant Matrix: (Units=GPa)
#
#
# Indices 1 2 3 4 5 6 
#
# 1 14.2653 -7.2482 15.1240 0.0000 0.0000 0.0000
# 2 -7.2482 30.1109 -5.5010 0.0000 0.0000 0.0000
# 3 15.1240 -5.5010 109.9414 0.0000 0.0000 0.0000
# 4 0.0000 0.0000 0.0000 11.4393 0.0000 0.0000
# 5 0.0000 0.0000 0.0000 0.0000 19.5441 0.0000
# 6 0.0000 0.0000 0.0000 0.0000 0.0000 35.8642
#
#
#
# Elastic Compliance Matrix: (Units=1/GPa)
#
#
# Indices 1 2 3 4 5 6 
#
# 1 0.092830 0.020198 -0.011760 0.000000 0.000000 0.000000
# 2 0.020198 0.037911 -0.000882 0.000000 0.000000 0.000000
# 3 -0.011760 -0.000882 0.010669 0.000000 0.000000 0.000000
# 4 0.000000 0.000000 0.000000 0.087418 0.000000 0.000000
# 5 0.000000 0.000000 0.000000 0.000000 0.051166 0.000000
# 6 0.000000 0.000000 0.000000 0.000000 0.000000 0.027883
#
#
# Mechanical properties :
#
#
# Convention : Reuss Voigt Hill
#
# Bulk Modulus (GPa) = 6.38881 17.67413 12.03147
# Shear Modulus (GPa) = 14.49529 23.49904 18.99716
#
# Velocity S-wave (km/s) = 2.81613 3.58562 3.22391
# Velocity P-wave (km/s) = 3.75093 5.17803 4.52114
#
# Compressibility (1/GPa) = 0.15652374
#
# Stress axis : x y z
#
# Youngs Moduli (GPa) = 10.77237 26.37728 93.72655
#
# Poissons Ratio (x) = -0.53276 1.10218
# Poissons Ratio (y) = -0.21758 0.08262
# Poissons Ratio (z) = 0.12668 0.02325
#
# Static dielectric constant tensor:
#      x y z
#    x 2.992290 0.000000 0.000000 
#    y 0.000000 3.202390 0.000000 
#    z 0.000000 0.000000 3.592150 
# 
# 
# High freq. dielectric constant tensor:
#      x y z
#    x 1.679540 0.000000 0.000000 
#    y 0.000000 1.704550 0.000000 
#    z 0.000000 0.000000 1.713510 
# 
# From -- ./inp_files/2851.got.cif
#   From: 2010.03.12/outbox.cif.g09.slc.cpg/sg41_2_cif.got.tgz:2851.got - 2010.04.14 01:55:53.
