data_PCOD8185980
_publ_section_title
;
Structure prediction by ZEFSAII (Michael W. Deem and Ramdas Pophale) SiO2 
 PCOD8185980
Probable space group: F M M 2
;
_chemical_formula_sum "Si O2"
_cell_formula_units_Z 88
_cell_length_a 23.263622
_cell_length_b 15.213528
_cell_length_c 15.793691
_cell_angle_alpha 90.000000
_cell_angle_beta 90.000000
_cell_angle_gamma 90.000000
_cell_volume 5589.730990
_symmetry_space_group_name_H-M "F M M 2"
_symmetry_group_IT_number 42
_symmetry_cell_setting 'orthorhombic'
loop_
_space_group_symop_operation_xyz
x,y,z
-x,-y,z
-x,y,z
x,-y,z
x,1/2+y,1/2+z
-x,1/2-y,1/2+z
-x,1/2+y,1/2+z
x,1/2-y,1/2+z
1/2+x,y,1/2+z
1/2-x,-y,1/2+z
1/2-x,y,1/2+z
1/2+x,-y,1/2+z
1/2+x,1/2+y,z
1/2-x,1/2-y,z
1/2-x,1/2+y,z
1/2+x,1/2-y,z
loop_
_atom_site_type_symbol
_atom_site_label
_atom_site_fract_x
_atom_site_fract_y
_atom_site_fract_z
Si Si1 0.814180 0.243784 0.272220
Si Si2 0.000000 0.604367 0.405732
Si Si3 0.750000 0.750000 0.432867
Si Si4 0.620332 0.897931 0.666417
Si Si5 0.381053 0.598536 0.829584
Si Si6 0.309306 0.095285 0.500348
Si Si7 0.000000 0.396145 0.596772
O O1 0.750000 0.250000 0.229268
O O2 0.805089 0.228106 0.373209
O O3 0.849890 0.161964 0.237125
O O4 0.849902 0.335339 0.262872
O O5 0.944398 0.635107 0.352379
O O6 0.000000 0.500000 0.414138
O O7 0.000000 0.644935 0.501423
O O8 0.740742 0.833105 0.493561
O O9 0.650159 0.880149 0.577463
O O10 0.554844 0.867114 0.652284
O O11 0.624830 0.000000 0.694569
O O12 0.383489 0.500000 0.789291
O O13 0.346376 0.593367 0.916107
O O14 0.280433 0.000000 0.515059
O O15 0.000000 0.500000 0.584781
#
# Coordination Sequence:
#
# PCOD8185980 Si02
#       7
#    16   8   8  16  16  16   8
#     4   9  20  31  41  68  93 122 145 175 223 265
#     4   9  14  25  48  72  89 107 143 189 227 259
#     4   8  18  30  44  62  92 116 148 188 208 258
#     4  10  19  30  46  67  92 119 146 181 224 264
#     4   9  16  29  48  68  89 113 145 185 224 260
#     4   9  16  28  47  65  84 116 149 182 221 254
#     4   9  16  27  44  68  91 113 145 185 223 259
#
# _framework density 15.743155
#
# number of rings (size 3 to 8) (size 9 to 14) (size 15 to 20)
#    0.545    2.364    1.818    0.000    1.273    2.182 
#    0.000    0.000    0.000    0.000    0.000    0.000 
#    0.000    1.455    0.000    0.000    0.000    0.000 
#
# Total GULP energy -272561.381518 kJ/mol
# GULP energy per Si atom -12389.153705 kJ/mol
# Density = 1.570732 g / cm^3
# Si number density = 15.743155 Si / 1000 Ang^3
#
#
#
# Elastic Constant Matrix: (Units=GPa)
#
#
# Indices 1 2 3 4 5 6 
#
# 1 105.4187 62.4207 25.6586 0.0000 0.0000 0.0000
# 2 62.4207 98.1224 36.1429 0.0000 0.0000 0.0000
# 3 25.6586 36.1429 34.8241 0.0000 0.0000 0.0000
# 4 0.0000 0.0000 0.0000 7.6528 0.0000 0.0000
# 5 0.0000 0.0000 0.0000 0.0000 5.0404 0.0000
# 6 0.0000 0.0000 0.0000 0.0000 0.0000 20.7296
#
#
#
# Elastic Compliance Matrix: (Units=1/GPa)
#
#
# Indices 1 2 3 4 5 6 
#
# 1 0.015295 -0.009032 -0.001896 0.000000 0.000000 0.000000
# 2 -0.009032 0.021832 -0.016004 0.000000 0.000000 0.000000
# 3 -0.001896 -0.016004 0.046723 0.000000 0.000000 0.000000
# 4 0.000000 0.000000 0.000000 0.130672 0.000000 0.000000
# 5 0.000000 0.000000 0.000000 0.000000 0.198397 0.000000
# 6 0.000000 0.000000 0.000000 0.000000 0.000000 0.048240
#
#
# Mechanical properties :
#
#
# Convention : Reuss Voigt Hill
#
# Bulk Modulus (GPa) = 33.34822 54.08998 43.71910
# Shear Modulus (GPa) = 9.52348 14.29408 11.90878
#
# Velocity S-wave (km/s) = 2.46220 3.01650 2.75333
# Velocity P-wave (km/s) = 5.41405 6.82383 6.15941
#
# Compressibility (1/GPa) = 0.02998660
#
# Stress axis : x y z
#
# Youngs Moduli (GPa) = 65.37919 45.80427 21.40286
#
# Poissons Ratio (x) = 0.41370 0.04058
# Poissons Ratio (y) = 0.59050 0.34253
# Poissons Ratio (z) = 0.12395 0.73305
#
# Static dielectric constant tensor:
#      x y z
#    x 3.170670 0.000000 0.000000 
#    y 0.000000 3.081150 0.000000 
#    z 0.000000 0.000000 2.697570 
# 
# 
# High freq. dielectric constant tensor:
#      x y z
#    x 1.602730 0.000000 0.000000 
#    y 0.000000 1.589570 0.000000 
#    z 0.000000 0.000000 1.572310 
# 
# From -- ./inp_files/14334.got.cif
#   From: 2010.03.12/outbox.cif.g09.slc.cpg/sg42_8_cif.got.tgz:14334.got - 2010.04.14 02:04:31.
