data_PCOD8185191
_publ_section_title
;
Structure prediction by ZEFSAII (Michael W. Deem and Ramdas Pophale) SiO2 
 PCOD8185191
Probable space group: A B A 2
;
_chemical_formula_sum "Si O2"
_cell_formula_units_Z 32
_cell_length_a 13.924365
_cell_length_b 8.039340
_cell_length_c 12.443720
_cell_angle_alpha 90.000000
_cell_angle_beta 90.000000
_cell_angle_gamma 90.000000
_cell_volume 1392.983671
_symmetry_space_group_name_H-M "A B A 2"
_symmetry_group_IT_number 41
_symmetry_cell_setting 'orthorhombic'
loop_
_space_group_symop_operation_xyz
x,y,z
-x,-y,z
1/2-x,y,1/2+z
1/2+x,-y,1/2+z
x,1/2+y,1/2+z
-x,1/2-y,1/2+z
1/2-x,1/2+y,z
1/2+x,1/2-y,z
loop_
_atom_site_type_symbol
_atom_site_label
_atom_site_fract_x
_atom_site_fract_y
_atom_site_fract_z
Si Si1 0.293531 0.518746 0.952690
Si Si2 0.103503 0.060700 0.737529
Si Si3 0.445433 0.830552 0.574171
Si Si4 0.633190 0.663938 0.542643
O O1 0.322693 0.583119 0.835373
O O2 0.361212 0.364095 0.988627
O O3 0.182258 0.460075 0.955235
O O4 0.308132 0.663444 0.040790
O O5 0.096215 0.239778 0.679578
O O6 0.144950 0.918326 0.659351
O O7 0.000000 0.000000 0.782013
O O8 0.520991 0.701328 0.517660
O O9 0.500000 0.000000 0.608521
#
# Coordination Sequence:
#
# PCOD8185191 Si02
#       4
#     8   8   8   8
#     4  11  22  40  63  92 129 169 216 266 321 381
#     4  10  21  41  65  89 124 168 210 260 322 380
#     4   9  20  41  64  91 129 167 212 267 318 380
#     4  10  22  38  61  92 125 164 211 263 312 375
#
# _framework density 22.972273000000001
#
# number of rings (size 3 to 8) (size 9 to 14) (size 15 to 20)
#    0.000    2.000    0.000    3.750    0.000    4.000 
#    0.000   18.750    0.000    0.000    0.000    0.000 
#    0.000    0.000    0.000    0.000    0.000    0.000 
#
# Total GULP energy -198315.205846 kJ/mol
# GULP energy per Si atom -12394.700365 kJ/mol
# Density = 2.291999 g / cm^3
# Si number density = 22.972273 Si / 1000 Ang^3
#
#
#
# Elastic Constant Matrix: (Units=GPa)
#
#
# Indices 1 2 3 4 5 6 
#
# 1 92.1229 37.5596 62.4017 0.0000 0.0000 0.0000
# 2 37.5596 103.2811 51.1235 0.0000 0.0000 0.0000
# 3 62.4017 51.1235 107.2696 0.0000 0.0000 0.0000
# 4 0.0000 0.0000 0.0000 32.5020 0.0000 0.0000
# 5 0.0000 0.0000 0.0000 0.0000 31.1630 0.0000
# 6 0.0000 0.0000 0.0000 0.0000 0.0000 36.3849
#
#
#
# Elastic Compliance Matrix: (Units=1/GPa)
#
#
# Indices 1 2 3 4 5 6 
#
# 1 0.018166 -0.001800 -0.009710 0.000000 0.000000 0.000000
# 2 -0.001800 0.012850 -0.005077 0.000000 0.000000 0.000000
# 3 -0.009710 -0.005077 0.017390 0.000000 0.000000 0.000000
# 4 0.000000 0.000000 0.000000 0.030767 0.000000 0.000000
# 5 0.000000 0.000000 0.000000 0.000000 0.032089 0.000000
# 6 0.000000 0.000000 0.000000 0.000000 0.000000 0.027484
#
#
# Mechanical properties :
#
#
# Convention : Reuss Voigt Hill
#
# Bulk Modulus (GPa) = 65.64811 67.20481 66.42646
# Shear Modulus (GPa) = 28.24877 30.11591 29.18234
#
# Velocity S-wave (km/s) = 3.51050 3.62466 3.56803
# Velocity P-wave (km/s) = 6.71346 6.84367 6.77888
#
# Compressibility (1/GPa) = 0.01523273
#
# Stress axis : x y z
#
# Youngs Moduli (GPa) = 55.04731 77.82076 57.50273
#
# Poissons Ratio (x) = 0.14008 0.55834
# Poissons Ratio (y) = 0.09909 0.29194
# Poissons Ratio (z) = 0.53450 0.39510
#
# Static dielectric constant tensor:
#      x y z
#    x 4.398080 0.000000 0.000000 
#    y 0.000000 4.454670 0.000000 
#    z 0.000000 0.000000 3.630120 
# 
# 
# High freq. dielectric constant tensor:
#      x y z
#    x 1.914540 0.000000 0.000000 
#    y 0.000000 1.923820 0.000000 
#    z 0.000000 0.000000 1.862510 
# 
# From -- ./inp_files/5251.got.cif
#   From: 2010.03.12/outbox.cif.g09.slc.cpg/sg41_3_cif.got.tgz:5251.got - 2010.04.14 01:55:53.
