data_PCOD8185380
_publ_section_title
;
Structure prediction by ZEFSAII (Michael W. Deem and Ramdas Pophale) SiO2 
 PCOD8185380
Probable space group: A B A 2
;
_chemical_formula_sum "Si O2"
_cell_formula_units_Z 52
_cell_length_a 16.428330
_cell_length_b 17.738756
_cell_length_c 8.408683
_cell_angle_alpha 90.000000
_cell_angle_beta 90.000000
_cell_angle_gamma 90.000000
_cell_volume 2450.442737
_symmetry_space_group_name_H-M "A B A 2"
_symmetry_group_IT_number 41
_symmetry_cell_setting 'orthorhombic'
loop_
_space_group_symop_operation_xyz
x,y,z
-x,-y,z
1/2-x,y,1/2+z
1/2+x,-y,1/2+z
x,1/2+y,1/2+z
-x,1/2-y,1/2+z
1/2-x,1/2+y,z
1/2+x,1/2-y,z
loop_
_atom_site_type_symbol
_atom_site_label
_atom_site_fract_x
_atom_site_fract_y
_atom_site_fract_z
Si Si1 0.680919 0.795079 0.816520
Si Si2 0.347737 0.041485 0.773648
Si Si3 0.654246 0.769167 0.154912
Si Si4 0.543661 0.395312 0.760512
Si Si5 0.500000 0.500000 0.485294
Si Si6 0.889186 0.652261 0.418101
Si Si7 0.678510 0.998892 0.418108
O O1 0.643912 0.868930 0.731821
O O2 0.771136 0.767273 0.775089
O O3 0.622461 0.721826 0.792808
O O4 0.685228 0.817116 0.003063
O O5 0.341039 0.001820 0.604862
O O6 0.266949 0.032736 0.879512
O O7 0.421452 0.004392 0.871396
O O8 0.578971 0.812356 0.232790
O O9 0.625302 0.685483 0.097236
O O10 0.500210 0.426317 0.599710
O O11 0.478156 0.384703 0.901076
O O12 0.612214 0.453566 0.815934
O O13 0.824223 0.587355 0.374747
#
# Coordination Sequence:
#
# PCOD8185380 Si02
#       7
#     8   8   8   8   4   8   8
#     4  10  22  45  66  96 137 177 240 263 354 415
#     4  12  26  44  73 105 137 191 233 288 358 431
#     4  10  23  44  68  98 133 189 224 286 347 421
#     4  12  23  47  70 100 147 185 236 296 359 422
#     4  12  24  44  72 104 142 176 246 290 352 424
#     4  10  26  42  67 105 134 178 230 295 348 402
#     4  12  26  44  75 101 142 183 238 288 358 419
#
# _framework density 21.220655000000001
#
# number of rings (size 3 to 8) (size 9 to 14) (size 15 to 20)
#    0.923    0.000    4.615    1.846    4.308    1.231 
#    2.769    0.000    0.000    0.000    0.000    0.000 
#    0.000    0.000    0.000    0.000    0.000    0.000 
#
# Total GULP energy -322211.097771 kJ/mol
# GULP energy per Si atom -12392.734530 kJ/mol
# Density = 2.117236 g / cm^3
# Si number density = 21.220655 Si / 1000 Ang^3
#
#
#
# Elastic Constant Matrix: (Units=GPa)
#
#
# Indices 1 2 3 4 5 6 
#
# 1 123.8677 49.3523 40.1612 0.0000 0.0000 0.0000
# 2 49.3523 126.8364 10.4457 0.0000 0.0000 0.0000
# 3 40.1612 10.4457 77.9934 0.0000 0.0000 0.0000
# 4 0.0000 0.0000 0.0000 31.5213 0.0000 0.0000
# 5 0.0000 0.0000 0.0000 0.0000 44.0134 0.0000
# 6 0.0000 0.0000 0.0000 0.0000 0.0000 27.3173
#
#
#
# Elastic Compliance Matrix: (Units=1/GPa)
#
#
# Indices 1 2 3 4 5 6 
#
# 1 0.011393 -0.003994 -0.005332 0.000000 0.000000 0.000000
# 2 -0.003994 0.009372 0.000801 0.000000 0.000000 0.000000
# 3 -0.005332 0.000801 0.015460 0.000000 0.000000 0.000000
# 4 0.000000 0.000000 0.000000 0.031725 0.000000 0.000000
# 5 0.000000 0.000000 0.000000 0.000000 0.022720 0.000000
# 6 0.000000 0.000000 0.000000 0.000000 0.000000 0.036607
#
#
# Mechanical properties :
#
#
# Convention : Reuss Voigt Hill
#
# Bulk Modulus (GPa) = 52.14737 58.73512 55.44125
# Shear Modulus (GPa) = 33.17458 35.81961 34.49710
#
# Velocity S-wave (km/s) = 3.95817 4.11294 4.03629
# Velocity P-wave (km/s) = 6.74661 7.09178 6.92135
#
# Compressibility (1/GPa) = 0.01917642
#
# Stress axis : x y z
#
# Youngs Moduli (GPa) = 87.77205 106.69807 64.68405
#
# Poissons Ratio (x) = 0.42615 0.34488
# Poissons Ratio (y) = 0.35056 -0.05184
# Poissons Ratio (z) = 0.46798 -0.08551
#
# Static dielectric constant tensor:
#      x y z
#    x 3.700640 0.000000 0.000000 
#    y 0.000000 3.868300 0.000000 
#    z 0.000000 0.000000 3.694970 
# 
# 
# High freq. dielectric constant tensor:
#      x y z
#    x 1.828480 0.000000 0.000000 
#    y 0.000000 1.841900 0.000000 
#    z 0.000000 0.000000 1.819810 
# 
# From -- ./inp_files/2628.got.cif
#   From: 2010.03.12/outbox.cif.g09.slc.cpg/sg41_2_cif.got.tgz:2628.got - 2010.04.14 01:55:53.
