data_PCOD8185925
_publ_section_title
;
Structure prediction by ZEFSAII (Michael W. Deem and Ramdas Pophale) SiO2 
 PCOD8185925
Probable space group: F M M 2
;
_chemical_formula_sum "Si O2"
_cell_formula_units_Z 120
_cell_length_a 27.074181
_cell_length_b 14.499200
_cell_length_c 17.760328
_cell_angle_alpha 90.000000
_cell_angle_beta 90.000000
_cell_angle_gamma 90.000000
_cell_volume 6971.887179
_symmetry_space_group_name_H-M "F M M 2"
_symmetry_group_IT_number 42
_symmetry_cell_setting 'orthorhombic'
loop_
_space_group_symop_operation_xyz
x,y,z
-x,-y,z
-x,y,z
x,-y,z
x,1/2+y,1/2+z
-x,1/2-y,1/2+z
-x,1/2+y,1/2+z
x,1/2-y,1/2+z
1/2+x,y,1/2+z
1/2-x,-y,1/2+z
1/2-x,y,1/2+z
1/2+x,-y,1/2+z
1/2+x,1/2+y,z
1/2-x,1/2-y,z
1/2-x,1/2+y,z
1/2+x,1/2-y,z
loop_
_atom_site_type_symbol
_atom_site_label
_atom_site_fract_x
_atom_site_fract_y
_atom_site_fract_z
Si Si1 0.056606 0.295021 0.043260
Si Si2 0.250000 0.250000 0.382951
Si Si3 0.880819 0.394561 0.742841
Si Si4 0.695756 0.761103 0.238449
Si Si5 0.442430 0.399487 0.095660
Si Si6 0.906906 0.396763 0.904526
Si Si7 0.801500 0.397839 0.976205
Si Si8 0.855384 0.890579 0.625441
O O1 0.071492 0.186129 0.041646
O O2 0.091061 0.351131 0.101438
O O3 0.000000 0.308235 0.069833
O O4 0.062013 0.329284 0.957719
O O5 0.296137 0.221368 0.328531
O O6 0.239449 0.165765 0.438557
O O7 0.862813 0.500000 0.751847
O O8 0.832378 0.334813 0.726822
O O9 0.918473 0.380532 0.675808
O O10 0.910154 0.363157 0.818164
O O11 0.750000 0.750000 0.199816
O O12 0.664307 0.844459 0.202256
O O13 0.500000 0.402469 0.110599
O O14 0.424937 0.500000 0.062781
O O15 0.928516 0.500000 0.914560
O O16 0.849676 0.395701 0.925103
O O17 0.778700 0.500000 0.979329
O O18 0.816050 0.365596 0.060279
O O19 0.860648 0.000000 0.636978
#
# Coordination Sequence:
#
# PCOD8185925 Si02
#       8
#    16   8  16  16  16  16  16  16
#     4  10  19  32  53  80 106 134 171 212 259 318
#     4  10  20  30  56  74  96 132 178 220 248 312
#     4  10  18  33  54  76 104 134 169 218 266 306
#     4  10  21  33  49  79 102 139 175 209 255 307
#     4   9  18  32  52  77 103 134 169 209 260 313
#     4   9  17  30  50  73 100 130 164 210 261 304
#     4   9  18  33  50  70  96 132 167 210 261 297
#     4  10  21  36  53  74 107 139 170 214 263 308
#
# _framework density 17.211983
#
# number of rings (size 3 to 8) (size 9 to 14) (size 15 to 20)
#    0.400    2.000    2.667    1.200    0.933    2.667 
#    0.000    1.333    0.000    4.000    0.000    0.000 
#    0.000    0.000    0.000    0.000    0.000    0.000 
#
# Total GULP energy -371788.212505 kJ/mol
# GULP energy per Si atom -12392.940417 kJ/mol
# Density = 1.717281 g / cm^3
# Si number density = 17.211983 Si / 1000 Ang^3
#
#
#
# Elastic Constant Matrix: (Units=GPa)
#
#
# Indices 1 2 3 4 5 6 
#
# 1 40.0525 48.3951 23.3872 0.0000 0.0000 0.0000
# 2 48.3951 130.7119 60.5826 0.0000 0.0000 0.0000
# 3 23.3872 60.5826 73.5364 0.0000 0.0000 0.0000
# 4 0.0000 0.0000 0.0000 24.2071 0.0000 0.0000
# 5 0.0000 0.0000 0.0000 0.0000 20.9994 0.0000
# 6 0.0000 0.0000 0.0000 0.0000 0.0000 23.8516
#
#
#
# Elastic Compliance Matrix: (Units=1/GPa)
#
#
# Indices 1 2 3 4 5 6 
#
# 1 0.045219 -0.016301 -0.000952 0.000000 0.000000 0.000000
# 2 -0.016301 0.018252 -0.009853 0.000000 0.000000 0.000000
# 3 -0.000952 -0.009853 0.022019 0.000000 0.000000 0.000000
# 4 0.000000 0.000000 0.000000 0.041310 0.000000 0.000000
# 5 0.000000 0.000000 0.000000 0.000000 0.047620 0.000000
# 6 0.000000 0.000000 0.000000 0.000000 0.000000 0.041926
#
#
# Mechanical properties :
#
#
# Convention : Reuss Voigt Hill
#
# Bulk Modulus (GPa) = 31.97037 56.55897 44.26467
# Shear Modulus (GPa) = 17.79460 21.27403 19.53431
#
# Velocity S-wave (km/s) = 3.21884 3.51949 3.37252
# Velocity P-wave (km/s) = 5.69468 7.03188 6.39831
#
# Compressibility (1/GPa) = 0.03127896
#
# Stress axis : x y z
#
# Youngs Moduli (GPa) = 22.11445 54.78764 45.41605
#
# Poissons Ratio (x) = 0.89309 0.04323
# Poissons Ratio (y) = 0.36049 0.44748
# Poissons Ratio (z) = 0.02105 0.53981
#
# Static dielectric constant tensor:
#      x y z
#    x 3.032870 0.000000 0.000000 
#    y 0.000000 3.431450 0.000000 
#    z 0.000000 0.000000 3.175900 
# 
# 
# High freq. dielectric constant tensor:
#      x y z
#    x 1.648390 0.000000 0.000000 
#    y 0.000000 1.668590 0.000000 
#    z 0.000000 0.000000 1.652560 
# 
# From -- ./inp_files/27424.got.cif
#   From: 2010.03.12/outbox.cif.g09.slc.cpg/sg42_14_cif.got.tgz:27424.got - 2010.04.14 02:04:31.
