data_PCOD8185726
_publ_section_title
;
Structure prediction by ZEFSAII (Michael W. Deem and Ramdas Pophale) SiO2 
 PCOD8185726
Probable space group: A B A 2
;
_chemical_formula_sum "Si O2"
_cell_formula_units_Z 40
_cell_length_a 14.337011
_cell_length_b 9.807485
_cell_length_c 10.620961
_cell_angle_alpha 90.000000
_cell_angle_beta 90.000000
_cell_angle_gamma 90.000000
_cell_volume 1493.413542
_symmetry_space_group_name_H-M "A B A 2"
_symmetry_group_IT_number 41
_symmetry_cell_setting 'orthorhombic'
loop_
_space_group_symop_operation_xyz
x,y,z
-x,-y,z
1/2-x,y,1/2+z
1/2+x,-y,1/2+z
x,1/2+y,1/2+z
-x,1/2-y,1/2+z
1/2-x,1/2+y,z
1/2+x,1/2-y,z
loop_
_atom_site_type_symbol
_atom_site_label
_atom_site_fract_x
_atom_site_fract_y
_atom_site_fract_z
Si Si1 0.476468 0.786823 0.730330
Si Si2 0.777506 0.573601 0.756326
Si Si3 0.500000 0.500000 0.034408
Si Si4 0.624121 0.196253 0.400263
Si Si5 0.310470 0.553819 0.517889
Si Si6 0.000000 0.500000 0.111257
O O1 0.374621 0.847933 0.751427
O O2 0.530269 0.872486 0.622185
O O3 0.538512 0.794865 0.857138
O O4 0.472034 0.627373 0.698581
O O5 0.691750 0.678014 0.779769
O O6 0.760977 0.486541 0.629155
O O7 0.770129 0.479992 0.880782
O O8 0.587195 0.550028 0.949953
O O9 0.827637 0.780429 0.516185
O O10 0.407420 0.470086 0.530655
#
# Coordination Sequence:
#
# PCOD8185726 Si02
#       6
#     8   8   4   8   8   4
#     4  12  27  53  86 126 173 231 291 362 445 521
#     4  12  30  51  83 132 175 231 295 363 438 525
#     4  12  27  51  80 118 164 228 282 352 440 524
#     4  12  28  50  89 122 176 227 291 364 435 525
#     4  12  28  53  82 127 173 230 290 368 434 520
#     4  12  25  55  88 124 178 228 298 368 446 526
#
# _framework density 26.784275999999998
#
# number of rings (size 3 to 8) (size 9 to 14) (size 15 to 20)
#    0.000    0.000    4.000    4.200    2.800    1.600 
#    0.000    0.000    0.000    0.000    0.000    0.000 
#    0.000    0.000    0.000    0.000    0.000    0.000 
#
# Total GULP energy -247945.881888 kJ/mol
# GULP energy per Si atom -12397.294094 kJ/mol
# Density = 2.672331 g / cm^3
# Si number density = 26.784276 Si / 1000 Ang^3
#
#
#
# Elastic Constant Matrix: (Units=GPa)
#
#
# Indices 1 2 3 4 5 6 
#
# 1 159.3269 69.5778 73.7474 0.0000 0.0000 0.0000
# 2 69.5778 156.4732 64.4586 0.0000 0.0000 0.0000
# 3 73.7474 64.4586 157.8508 0.0000 0.0000 0.0000
# 4 0.0000 0.0000 0.0000 44.7827 0.0000 0.0000
# 5 0.0000 0.0000 0.0000 0.0000 37.7719 0.0000
# 6 0.0000 0.0000 0.0000 0.0000 0.0000 46.5577
#
#
#
# Elastic Compliance Matrix: (Units=1/GPa)
#
#
# Indices 1 2 3 4 5 6 
#
# 1 0.008857 -0.002685 -0.003041 0.000000 0.000000 0.000000
# 2 -0.002685 0.008498 -0.002215 0.000000 0.000000 0.000000
# 3 -0.003041 -0.002215 0.008661 0.000000 0.000000 0.000000
# 4 0.000000 0.000000 0.000000 0.022330 0.000000 0.000000
# 5 0.000000 0.000000 0.000000 0.000000 0.026475 0.000000
# 6 0.000000 0.000000 0.000000 0.000000 0.000000 0.021479
#
#
# Mechanical properties :
#
#
# Convention : Reuss Voigt Hill
#
# Bulk Modulus (GPa) = 98.70836 98.80205 98.75521
# Shear Modulus (GPa) = 43.26766 43.54694 43.40730
#
# Velocity S-wave (km/s) = 4.02358 4.03654 4.03007
# Velocity P-wave (km/s) = 7.64975 7.66114 7.65545
#
# Compressibility (1/GPa) = 0.01013085
#
# Stress axis : x y z
#
# Youngs Moduli (GPa) = 112.90684 117.68012 115.46517
#
# Poissons Ratio (x) = 0.31603 0.35116
# Poissons Ratio (y) = 0.30321 0.25580
# Poissons Ratio (z) = 0.34338 0.26070
#
# Static dielectric constant tensor:
#      x y z
#    x 5.324670 0.000000 0.000000 
#    y 0.000000 4.865270 0.000000 
#    z 0.000000 0.000000 5.067780 
# 
# 
# High freq. dielectric constant tensor:
#      x y z
#    x 2.084990 0.000000 0.000000 
#    y 0.000000 2.070590 0.000000 
#    z 0.000000 0.000000 2.086520 
# 
# From -- ./inp_files/5419.got.cif
#   From: 2010.03.12/outbox.cif.g09.slc.cpg/sg41_3_cif.got.tgz:5419.got - 2010.04.14 01:55:53.
