data_PCOD8185331
_publ_section_title
;
Structure prediction by ZEFSAII (Michael W. Deem and Ramdas Pophale) SiO2 
 PCOD8185331
Probable space group: A B A 2
;
_chemical_formula_sum "Si O2"
_cell_formula_units_Z 56
_cell_length_a 5.175713
_cell_length_b 33.783817
_cell_length_c 15.074815
_cell_angle_alpha 90.000000
_cell_angle_beta 90.000000
_cell_angle_gamma 90.000000
_cell_volume 2635.911915
_symmetry_space_group_name_H-M "A B A 2"
_symmetry_group_IT_number 41
_symmetry_cell_setting 'orthorhombic'
loop_
_space_group_symop_operation_xyz
x,y,z
-x,-y,z
1/2-x,y,1/2+z
1/2+x,-y,1/2+z
x,1/2+y,1/2+z
-x,1/2-y,1/2+z
1/2-x,1/2+y,z
1/2+x,1/2-y,z
loop_
_atom_site_type_symbol
_atom_site_label
_atom_site_fract_x
_atom_site_fract_y
_atom_site_fract_z
Si Si1 0.454136 0.592991 0.803310
Si Si2 0.255486 0.474875 0.251911
Si Si3 0.352652 0.329285 0.518878
Si Si4 0.183463 0.775215 0.356622
Si Si5 0.849461 0.379102 0.487383
Si Si6 0.564590 0.416390 0.159877
Si Si7 0.260938 0.340779 0.214497
O O1 0.687275 0.561333 0.820360
O O2 0.278482 0.570509 0.730949
O O3 0.533317 0.635449 0.763289
O O4 0.299936 0.600218 0.893465
O O5 0.500000 0.500000 0.289143
O O6 0.345725 0.450763 0.162706
O O7 0.000000 0.500000 0.230929
O O8 0.328701 0.290506 0.458008
O O9 0.637656 0.345752 0.502135
O O10 0.331440 0.318923 0.623725
O O11 0.137314 0.360895 0.488981
O O12 0.467923 0.757956 0.340860
O O13 0.128360 0.809274 0.284272
O O14 0.821969 0.413537 0.561024
O O15 0.477323 0.372246 0.187069
#
# Coordination Sequence:
#
# PCOD8185331 Si02
#       7
#     8   8   8   8   8   8   8
#     4  11  21  41  70  96 126 171 223 268 322 382
#     4  11  23  41  65  92 137 181 207 262 328 389
#     4  11  23  42  64  93 131 164 218 278 327 379
#     4  12  27  42  63  94 134 175 214 266 338 395
#     4  11  23  38  69  99 124 160 223 281 315 378
#     4  10  22  41  69 100 124 171 225 265 327 384
#     4  10  23  41  68  95 126 175 222 274 319 391
#
# _framework density 21.245018000000002
#
# number of rings (size 3 to 8) (size 9 to 14) (size 15 to 20)
#    0.000    1.143    4.286    1.714    4.000    1.143 
#    0.000    1.429    0.000    0.000    0.000    0.000 
#    0.000    0.000    0.000    0.000    0.000    0.000 
#
# Total GULP energy -347056.203060 kJ/mol
# GULP energy per Si atom -12394.864395 kJ/mol
# Density = 2.119666 g / cm^3
# Si number density = 21.245018 Si / 1000 Ang^3
#
#
#
# Elastic Constant Matrix: (Units=GPa)
#
#
# Indices 1 2 3 4 5 6 
#
# 1 89.3825 20.6443 25.4043 0.0000 0.0000 0.0000
# 2 20.6443 76.6096 29.3072 0.0000 0.0000 0.0000
# 3 25.4043 29.3072 132.8789 0.0000 0.0000 0.0000
# 4 0.0000 0.0000 0.0000 13.3577 0.0000 0.0000
# 5 0.0000 0.0000 0.0000 0.0000 26.7516 0.0000
# 6 0.0000 0.0000 0.0000 0.0000 0.0000 45.5756
#
#
#
# Elastic Compliance Matrix: (Units=1/GPa)
#
#
# Indices 1 2 3 4 5 6 
#
# 1 0.012300 -0.002637 -0.001770 0.000000 0.000000 0.000000
# 2 -0.002637 0.014822 -0.002765 0.000000 0.000000 0.000000
# 3 -0.001770 -0.002765 0.008474 0.000000 0.000000 0.000000
# 4 0.000000 0.000000 0.000000 0.074863 0.000000 0.000000
# 5 0.000000 0.000000 0.000000 0.000000 0.037381 0.000000
# 6 0.000000 0.000000 0.000000 0.000000 0.000000 0.021942
#
#
# Mechanical properties :
#
#
# Convention : Reuss Voigt Hill
#
# Bulk Modulus (GPa) = 47.05600 49.95363 48.50482
# Shear Modulus (GPa) = 26.14941 32.03800 29.09371
#
# Velocity S-wave (km/s) = 3.51215 3.88754 3.70460
# Velocity P-wave (km/s) = 6.21645 6.61172 6.41713
#
# Compressibility (1/GPa) = 0.02125127
#
# Stress axis : x y z
#
# Youngs Moduli (GPa) = 81.30037 67.46913 118.01090
#
# Poissons Ratio (x) = 0.17795 0.20886
# Poissons Ratio (y) = 0.21443 0.32627
# Poissons Ratio (z) = 0.14389 0.18653
#
# Static dielectric constant tensor:
#      x y z
#    x 3.932580 0.000000 0.000000 
#    y 0.000000 3.802620 0.000000 
#    z 0.000000 0.000000 3.965700 
# 
# 
# High freq. dielectric constant tensor:
#      x y z
#    x 1.844100 0.000000 0.000000 
#    y 0.000000 1.825410 0.000000 
#    z 0.000000 0.000000 1.820980 
# 
# From -- ./inp_files/6957.got.cif
#   From: 2010.03.12/outbox.cif.g09.slc.cpg/sg41_4_cif.got.tgz:6957.got - 2010.04.14 01:55:53.
