data_PCOD8185712
_publ_section_title
;
Structure prediction by ZEFSAII (Michael W. Deem and Ramdas Pophale) SiO2 
 PCOD8185712
Probable space group: A B A 2
;
_chemical_formula_sum "Si O2"
_cell_formula_units_Z 44
_cell_length_a 23.515988
_cell_length_b 11.609985
_cell_length_c 7.282321
_cell_angle_alpha 90.000000
_cell_angle_beta 90.000000
_cell_angle_gamma 90.000000
_cell_volume 1988.221231
_symmetry_space_group_name_H-M "A B A 2"
_symmetry_group_IT_number 41
_symmetry_cell_setting 'orthorhombic'
loop_
_space_group_symop_operation_xyz
x,y,z
-x,-y,z
1/2-x,y,1/2+z
1/2+x,-y,1/2+z
x,1/2+y,1/2+z
-x,1/2-y,1/2+z
1/2-x,1/2+y,z
1/2+x,1/2-y,z
loop_
_atom_site_type_symbol
_atom_site_label
_atom_site_fract_x
_atom_site_fract_y
_atom_site_fract_z
Si Si1 0.177034 0.486451 0.655840
Si Si2 0.304466 0.955094 0.247747
Si Si3 0.863382 0.766518 0.195001
Si Si4 0.605703 0.871255 0.081231
Si Si5 0.500000 0.000000 0.942900
Si Si6 0.585972 0.168843 0.852968
O O1 0.238775 0.488476 0.748377
O O2 0.174994 0.432010 0.455685
O O3 0.159121 0.616042 0.611231
O O4 0.135579 0.421934 0.798186
O O5 0.312507 0.826257 0.171784
O O6 0.339297 0.053189 0.137170
O O7 0.884661 0.794548 0.399835
O O8 0.912249 0.710557 0.065834
O O9 0.589569 0.783347 0.237835
O O10 0.552790 0.957832 0.065076
O O11 0.474621 0.895525 0.819605
#
# Coordination Sequence:
#
# PCOD8185712 Si02
#       6
#     8   8   8   8   4   8
#     4  12  26  45  75 111 149 192 242 301 370 442
#     4  12  26  45  75 111 149 192 242 301 370 442
#     4  12  24  48  74 102 154 190 242 302 364 432
#     4  12  27  48  72 108 145 194 247 300 370 430
#     4  12  28  48  74 110 144 190 256 302 352 436
#     4  12  27  48  72 108 145 194 247 300 370 430
#
# _framework density 22.130334999999999
#
# number of rings (size 3 to 8) (size 9 to 14) (size 15 to 20)
#    0.000    0.000    7.273    2.182    5.091    2.909 
#    0.000    1.818    0.000    0.000    0.000    0.000 
#    0.000    0.000    0.000    0.000    0.000    0.000 
#
# Total GULP energy -272685.982777 kJ/mol
# GULP energy per Si atom -12394.817399 kJ/mol
# Density = 2.207997 g / cm^3
# Si number density = 22.130335 Si / 1000 Ang^3
#
#
#
# Elastic Constant Matrix: (Units=GPa)
#
#
# Indices 1 2 3 4 5 6 
#
# 1 114.9033 25.2315 16.6472 0.0000 0.0000 0.0000
# 2 25.2315 122.2788 16.4763 0.0000 0.0000 0.0000
# 3 16.6472 16.4763 104.3268 0.0000 0.0000 0.0000
# 4 0.0000 0.0000 0.0000 33.2862 0.0000 0.0000
# 5 0.0000 0.0000 0.0000 0.0000 22.8908 0.0000
# 6 0.0000 0.0000 0.0000 0.0000 0.0000 25.4155
#
#
#
# Elastic Compliance Matrix: (Units=1/GPa)
#
#
# Indices 1 2 3 4 5 6 
#
# 1 0.009261 -0.001749 -0.001202 0.000000 0.000000 0.000000
# 2 -0.001749 0.008686 -0.001093 0.000000 0.000000 0.000000
# 3 -0.001202 -0.001093 0.009950 0.000000 0.000000 0.000000
# 4 0.000000 0.000000 0.000000 0.030042 0.000000 0.000000
# 5 0.000000 0.000000 0.000000 0.000000 0.043686 0.000000
# 6 0.000000 0.000000 0.000000 0.000000 0.000000 0.039346
#
#
# Mechanical properties :
#
#
# Convention : Reuss Voigt Hill
#
# Bulk Modulus (GPa) = 50.47905 50.91323 50.69614
# Shear Modulus (GPa) = 32.12105 35.19542 33.65823
#
# Velocity S-wave (km/s) = 3.81392 3.99227 3.90411
# Velocity P-wave (km/s) = 6.50031 6.65635 6.57879
#
# Compressibility (1/GPa) = 0.01981020
#
# Stress axis : x y z
#
# Youngs Moduli (GPa) = 107.97823 115.12538 100.50688
#
# Poissons Ratio (x) = 0.20136 0.12076
# Poissons Ratio (y) = 0.18886 0.10983
# Poissons Ratio (z) = 0.12974 0.12580
#
# Static dielectric constant tensor:
#      x y z
#    x 3.844780 0.000000 0.000000 
#    y 0.000000 4.321640 0.000000 
#    z 0.000000 0.000000 4.079360 
# 
# 
# High freq. dielectric constant tensor:
#      x y z
#    x 1.857290 0.000000 0.000000 
#    y 0.000000 1.899780 0.000000 
#    z 0.000000 0.000000 1.878110 
# 
# From -- ./inp_files/3575.got.cif
#   From: 2010.03.12/outbox.cif.g09.slc.cpg/sg41_2_cif.got.tgz:3575.got - 2010.04.14 01:55:53.
