data_PCOD8185404
_publ_section_title
;
Structure prediction by ZEFSAII (Michael W. Deem and Ramdas Pophale) SiO2 
 PCOD8185404
Probable space group: A B A 2
;
_chemical_formula_sum "Si O2"
_cell_formula_units_Z 64
_cell_length_a 31.938916
_cell_length_b 10.860446
_cell_length_c 8.571646
_cell_angle_alpha 90.000000
_cell_angle_beta 90.000000
_cell_angle_gamma 90.000000
_cell_volume 2973.254327
_symmetry_space_group_name_H-M "A B A 2"
_symmetry_group_IT_number 41
_symmetry_cell_setting 'orthorhombic'
loop_
_space_group_symop_operation_xyz
x,y,z
-x,-y,z
1/2-x,y,1/2+z
1/2+x,-y,1/2+z
x,1/2+y,1/2+z
-x,1/2-y,1/2+z
1/2-x,1/2+y,z
1/2+x,1/2-y,z
loop_
_atom_site_type_symbol
_atom_site_label
_atom_site_fract_x
_atom_site_fract_y
_atom_site_fract_z
Si Si1 0.722253 0.301341 0.120970
Si Si2 0.660671 0.657369 0.825084
Si Si3 0.615492 0.951324 0.172871
Si Si4 0.191860 0.721226 0.270234
Si Si5 0.484859 0.634421 0.356332
Si Si6 0.024284 0.621170 0.221634
Si Si7 0.608172 0.889760 0.832593
Si Si8 0.670991 0.029585 0.647725
O O1 0.700354 0.189386 0.215294
O O2 0.772012 0.291690 0.139241
O O3 0.707641 0.433096 0.187354
O O4 0.710573 0.301317 0.939852
O O5 0.624736 0.588763 0.728388
O O6 0.638279 0.779181 0.885837
O O7 0.675016 0.574501 0.970258
O O8 0.654976 0.870531 0.226029
O O9 0.573729 0.896993 0.251869
O O10 0.607572 0.970680 0.989079
O O11 0.174706 0.859346 0.268447
O O12 0.500000 0.500000 0.293956
O O13 0.486542 0.635890 0.541543
O O14 0.512591 0.749844 0.302496
O O15 0.438184 0.654975 0.289011
O O16 0.000000 0.500000 0.288779
O O17 0.626462 0.963317 0.683318
#
# Coordination Sequence:
#
# PCOD8185404 Si02
#       8
#     8   8   8   8   8   8   8   8
#     4  11  27  43  64  94 128 169 217 264 329 380
#     4  11  22  44  63  95 128 169 218 270 319 394
#     4  11  23  41  68  94 134 171 220 271 334 391
#     4  12  25  43  67  94 127 172 212 270 323 388
#     4  10  23  40  65  96 134 171 219 273 335 399
#     4  10  23  44  65  99 133 175 219 279 337 405
#     4  10  23  41  65  95 130 173 214 272 331 393
#     4  11  24  42  67  94 128 167 220 267 320 392
#
# _framework density 21.525236
#
# number of rings (size 3 to 8) (size 9 to 14) (size 15 to 20)
#    0.000    1.250    2.500    2.250    5.250    2.500 
#    2.250    0.000    0.000    0.000    0.000    0.000 
#    0.000    0.000    0.000    0.000    0.000    0.000 
#
# Total GULP energy -396789.870419 kJ/mol
# GULP energy per Si atom -12399.683451 kJ/mol
# Density = 2.147624 g / cm^3
# Si number density = 21.525236 Si / 1000 Ang^3
#
#
#
# Elastic Constant Matrix: (Units=GPa)
#
#
# Indices 1 2 3 4 5 6 
#
# 1 138.2392 28.4736 30.6305 0.0000 0.0000 0.0000
# 2 28.4736 101.0577 23.9851 0.0000 0.0000 0.0000
# 3 30.6305 23.9851 70.3762 0.0000 0.0000 0.0000
# 4 0.0000 0.0000 0.0000 35.7705 0.0000 0.0000
# 5 0.0000 0.0000 0.0000 0.0000 31.7373 0.0000
# 6 0.0000 0.0000 0.0000 0.0000 0.0000 32.7159
#
#
#
# Elastic Compliance Matrix: (Units=1/GPa)
#
#
# Indices 1 2 3 4 5 6 
#
# 1 0.008237 -0.001599 -0.003040 0.000000 0.000000 0.000000
# 2 -0.001599 0.011077 -0.003079 0.000000 0.000000 0.000000
# 3 -0.003040 -0.003079 0.016582 0.000000 0.000000 0.000000
# 4 0.000000 0.000000 0.000000 0.027956 0.000000 0.000000
# 5 0.000000 0.000000 0.000000 0.000000 0.031509 0.000000
# 6 0.000000 0.000000 0.000000 0.000000 0.000000 0.030566
#
#
# Mechanical properties :
#
#
# Convention : Reuss Voigt Hill
#
# Bulk Modulus (GPa) = 48.87849 52.87239 50.87544
# Shear Modulus (GPa) = 33.74222 35.15034 34.44628
#
# Velocity S-wave (km/s) = 3.96354 4.04540 4.00468
# Velocity P-wave (km/s) = 6.61083 6.81445 6.71341
#
# Compressibility (1/GPa) = 0.02045890
#
# Stress axis : x y z
#
# Youngs Moduli (GPa) = 121.40604 90.27942 60.30703
#
# Poissons Ratio (x) = 0.14438 0.18333
# Poissons Ratio (y) = 0.19416 0.18569
# Poissons Ratio (z) = 0.36907 0.27797
#
# Static dielectric constant tensor:
#      x y z
#    x 3.986210 0.000000 0.000000 
#    y 0.000000 4.117610 0.000000 
#    z 0.000000 0.000000 3.706170 
# 
# 
# High freq. dielectric constant tensor:
#      x y z
#    x 1.850270 0.000000 0.000000 
#    y 0.000000 1.857720 0.000000 
#    z 0.000000 0.000000 1.838390 
# 
# From -- ./inp_files/3978.got.cif
#   From: 2010.03.12/outbox.cif.g09.slc.cpg/sg41_2_cif.got.tgz:3978.got - 2010.04.14 01:55:53.
