data_PCOD8185477
_publ_section_title
;
Structure prediction by ZEFSAII (Michael W. Deem and Ramdas Pophale) SiO2 
 PCOD8185477
Probable space group: A B A 2
;
_chemical_formula_sum "Si O2"
_cell_formula_units_Z 36
_cell_length_a 22.622324
_cell_length_b 13.650223
_cell_length_c 5.105368
_cell_angle_alpha 90.000000
_cell_angle_beta 90.000000
_cell_angle_gamma 90.000000
_cell_volume 1576.536451
_symmetry_space_group_name_H-M "A B A 2"
_symmetry_group_IT_number 41
_symmetry_cell_setting 'orthorhombic'
loop_
_space_group_symop_operation_xyz
x,y,z
-x,-y,z
1/2-x,y,1/2+z
1/2+x,-y,1/2+z
x,1/2+y,1/2+z
-x,1/2-y,1/2+z
1/2-x,1/2+y,z
1/2+x,1/2-y,z
loop_
_atom_site_type_symbol
_atom_site_label
_atom_site_fract_x
_atom_site_fract_y
_atom_site_fract_z
Si Si1 0.787819 0.667394 0.159180
Si Si2 0.518375 0.804705 0.701795
Si Si3 0.352036 0.634024 0.133204
Si Si4 0.869897 0.490277 0.138925
Si Si5 0.000000 0.500000 0.974728
O O1 0.759793 0.641903 0.438238
O O2 0.803115 0.781790 0.136953
O O3 0.846449 0.601222 0.126010
O O4 0.481627 0.767181 0.452751
O O5 0.585189 0.813425 0.609315
O O6 0.489976 0.907619 0.785795
O O7 0.346756 0.568140 0.388978
O O8 0.342048 0.563900 0.886871
O O9 0.941643 0.488966 0.154206
#
# Coordination Sequence:
#
# PCOD8185477 Si02
#       5
#     8   8   8   8   4
#     4  12  27  45  69  96 128 174 224 276 329 389
#     4  11  23  39  64  96 132 171 210 259 318 388
#     4  11  25  43  65  95 130 170 215 267 324 383
#     4  11  25  44  68 100 134 172 218 271 331 394
#     4  10  24  42  68 100 136 172 214 268 332 398
#
# _framework density 22.834868
#
# number of rings (size 3 to 8) (size 9 to 14) (size 15 to 20)
#    0.000    0.889    0.000    6.667    0.000   18.667 
#    0.000    0.000    0.000    0.000    0.000    0.000 
#    0.000    0.000    0.000    0.000    0.000    0.000 
#
# Total GULP energy -223327.351121 kJ/mol
# GULP energy per Si atom -12407.075062 kJ/mol
# Density = 2.278289 g / cm^3
# Si number density = 22.834868 Si / 1000 Ang^3
#
#
#
# Elastic Constant Matrix: (Units=GPa)
#
#
# Indices 1 2 3 4 5 6 
#
# 1 74.1198 38.9652 20.8071 0.0000 0.0000 0.0000
# 2 38.9652 96.8396 35.1610 0.0000 0.0000 0.0000
# 3 20.8071 35.1610 138.2964 0.0000 0.0000 0.0000
# 4 0.0000 0.0000 0.0000 35.1599 0.0000 0.0000
# 5 0.0000 0.0000 0.0000 0.0000 182.7470 0.0000
# 6 0.0000 0.0000 0.0000 0.0000 0.0000 45.4744
#
#
#
# Elastic Compliance Matrix: (Units=1/GPa)
#
#
# Indices 1 2 3 4 5 6 
#
# 1 0.017215 -0.006595 -0.000913 0.000000 0.000000 0.000000
# 2 -0.006595 0.013903 -0.002543 0.000000 0.000000 0.000000
# 3 -0.000913 -0.002543 0.008015 0.000000 0.000000 0.000000
# 4 0.000000 0.000000 0.000000 0.028441 0.000000 0.000000
# 5 0.000000 0.000000 0.000000 0.000000 0.005472 0.000000
# 6 0.000000 0.000000 0.000000 0.000000 0.000000 0.021990
#
#
# Mechanical properties :
#
#
# Convention : Reuss Voigt Hill
#
# Bulk Modulus (GPa) = 52.54589 55.45803 54.00196
# Shear Modulus (GPa) = 41.15810 66.96444 54.06127
#
# Velocity S-wave (km/s) = 4.25010 5.42118 4.87096
# Velocity P-wave (km/s) = 6.86627 7.97025 7.43877
#
# Compressibility (1/GPa) = 0.01903098
#
# Stress axis : x y z
#
# Youngs Moduli (GPa) = 58.08817 71.92577 124.77117
#
# Poissons Ratio (x) = 0.47437 0.11395
# Poissons Ratio (y) = 0.38311 0.31723
# Poissons Ratio (z) = 0.05305 0.18287
#
# Static dielectric constant tensor:
#      x y z
#    x 3.913090 0.000000 0.000000 
#    y 0.000000 4.298180 0.000000 
#    z 0.000000 0.000000 4.091150 
# 
# 
# High freq. dielectric constant tensor:
#      x y z
#    x 1.892820 0.000000 0.000000 
#    y 0.000000 1.919010 0.000000 
#    z 0.000000 0.000000 1.912030 
# 
# From -- ./inp_files/642.got.cif
#   From: 2010.03.12/outbox.cif.g09.slc.cpg/sg41_1_cif.got.tgz:642.got - 2010.04.14 01:55:53.
