data_PCOD8185955
_publ_section_title
;
Structure prediction by ZEFSAII (Michael W. Deem and Ramdas Pophale) SiO2 
 PCOD8185955
Probable space group: F M M 2
;
_chemical_formula_sum "Si O2"
_cell_formula_units_Z 80
_cell_length_a 23.008782
_cell_length_b 9.041782
_cell_length_c 20.390368
_cell_angle_alpha 90.000000
_cell_angle_beta 90.000000
_cell_angle_gamma 90.000000
_cell_volume 4242.020130
_symmetry_space_group_name_H-M "F M M 2"
_symmetry_group_IT_number 42
_symmetry_cell_setting 'orthorhombic'
loop_
_space_group_symop_operation_xyz
x,y,z
-x,-y,z
-x,y,z
x,-y,z
x,1/2+y,1/2+z
-x,1/2-y,1/2+z
-x,1/2+y,1/2+z
x,1/2-y,1/2+z
1/2+x,y,1/2+z
1/2-x,-y,1/2+z
1/2-x,y,1/2+z
1/2+x,-y,1/2+z
1/2+x,1/2+y,z
1/2-x,1/2-y,z
1/2-x,1/2+y,z
1/2+x,1/2-y,z
loop_
_atom_site_type_symbol
_atom_site_label
_atom_site_fract_x
_atom_site_fract_y
_atom_site_fract_z
Si Si1 0.878095 0.824572 0.195020
Si Si2 0.875981 0.330392 0.956659
Si Si3 0.500000 0.166457 0.004299
Si Si4 0.310375 0.826062 0.568457
Si Si5 0.500000 0.323915 0.142419
Si Si6 0.312600 0.674429 0.323196
O O1 0.836334 0.768889 0.136953
O O2 0.943300 0.764087 0.181525
O O3 0.850905 0.763720 0.262526
O O4 0.880637 0.000000 0.196587
O O5 0.859028 0.500000 0.973277
O O6 0.849196 0.283353 0.887288
O O7 0.853257 0.218956 0.010977
O O8 0.945288 0.307964 0.956326
O O9 0.500000 0.271717 0.067293
O O10 0.500000 0.000000 0.032485
O O11 0.250000 0.750000 0.554553
O O12 0.301668 0.000000 0.568168
O O13 0.500000 0.500000 0.139354
O O14 0.302581 0.500000 0.316800
O O15 0.250000 0.750000 0.325008
#
# Coordination Sequence:
#
# PCOD8185955 Si02
#       6
#    16  16   8  16   8  16
#     4   9  19  34  56  82 107 140 182 226 272 323
#     4  10  21  36  56  81 111 146 183 225 277 329
#     4  10  20  35  55  83 115 143 178 228 280 326
#     4  11  21  34  54  80 109 142 186 231 275 325
#     4  10  18  35  59  83 109 141 182 228 274 328
#     4  10  21  38  56  79 111 146 184 226 274 327
#
# _framework density 18.85894
#
# number of rings (size 3 to 8) (size 9 to 14) (size 15 to 20)
#    0.000    2.000    2.000    1.800    0.000    3.200 
#    0.000    6.000    0.000    0.000    0.000    2.800 
#    0.000    0.000    0.000    0.000    0.000    0.000 
#
# Total GULP energy -247996.914032 kJ/mol
# GULP energy per Si atom -12399.845702 kJ/mol
# Density = 1.881602 g / cm^3
# Si number density = 18.858940 Si / 1000 Ang^3
#
#
#
# Elastic Constant Matrix: (Units=GPa)
#
#
# Indices 1 2 3 4 5 6 
#
# 1 139.1895 27.2195 54.7425 0.0000 0.0000 0.0000
# 2 27.2195 37.9390 27.8699 0.0000 0.0000 0.0000
# 3 54.7425 27.8699 139.2918 0.0000 0.0000 0.0000
# 4 0.0000 0.0000 0.0000 22.8972 0.0000 0.0000
# 5 0.0000 0.0000 0.0000 0.0000 40.2801 0.0000
# 6 0.0000 0.0000 0.0000 0.0000 0.0000 20.3652
#
#
#
# Elastic Compliance Matrix: (Units=1/GPa)
#
#
# Indices 1 2 3 4 5 6 
#
# 1 0.009132 -0.004590 -0.002671 0.000000 0.000000 0.000000
# 2 -0.004590 0.033207 -0.004840 0.000000 0.000000 0.000000
# 3 -0.002671 -0.004840 0.009197 0.000000 0.000000 0.000000
# 4 0.000000 0.000000 0.000000 0.043673 0.000000 0.000000
# 5 0.000000 0.000000 0.000000 0.000000 0.024826 0.000000
# 6 0.000000 0.000000 0.000000 0.000000 0.000000 0.049103
#
#
# Mechanical properties :
#
#
# Convention : Reuss Voigt Hill
#
# Bulk Modulus (GPa) = 36.58385 59.56491 48.07438
# Shear Modulus (GPa) = 24.69706 30.48106 27.58906
#
# Velocity S-wave (km/s) = 3.62272 4.02464 3.82896
# Velocity P-wave (km/s) = 6.07780 7.29726 6.71527
#
# Compressibility (1/GPa) = 0.02733447
#
# Stress axis : x y z
#
# Youngs Moduli (GPa) = 109.49937 30.11413 108.72874
#
# Poissons Ratio (x) = 0.13823 0.29038
# Poissons Ratio (y) = 0.50263 0.52626
# Poissons Ratio (z) = 0.29244 0.14576
#
# Static dielectric constant tensor:
#      x y z
#    x 3.830780 0.000000 0.000000 
#    y 0.000000 3.246000 0.000000 
#    z 0.000000 0.000000 3.587950 
# 
# 
# High freq. dielectric constant tensor:
#      x y z
#    x 1.752450 0.000000 0.000000 
#    y 0.000000 1.707360 0.000000 
#    z 0.000000 0.000000 1.734430 
# 
# From -- ./inp_files/21503.got.cif
#   From: 2010.03.12/outbox.cif.g09.slc.cpg/sg42_11_cif.got.tgz:21503.got - 2010.04.14 02:04:31.
