data_PCOD8185877
_publ_section_title
;
Structure prediction by ZEFSAII (Michael W. Deem and Ramdas Pophale) SiO2 
 PCOD8185877
Probable space group: F M M 2
;
_chemical_formula_sum "Si O2"
_cell_formula_units_Z 96
_cell_length_a 19.859367
_cell_length_b 18.935343
_cell_length_c 13.660379
_cell_angle_alpha 90.000000
_cell_angle_beta 90.000000
_cell_angle_gamma 90.000000
_cell_volume 5136.902549
_symmetry_space_group_name_H-M "F M M 2"
_symmetry_group_IT_number 42
_symmetry_cell_setting 'orthorhombic'
loop_
_space_group_symop_operation_xyz
x,y,z
-x,-y,z
-x,y,z
x,-y,z
x,1/2+y,1/2+z
-x,1/2-y,1/2+z
-x,1/2+y,1/2+z
x,1/2-y,1/2+z
1/2+x,y,1/2+z
1/2-x,-y,1/2+z
1/2-x,y,1/2+z
1/2+x,-y,1/2+z
1/2+x,1/2+y,z
1/2-x,1/2-y,z
1/2-x,1/2+y,z
1/2+x,1/2-y,z
loop_
_atom_site_type_symbol
_atom_site_label
_atom_site_fract_x
_atom_site_fract_y
_atom_site_fract_z
Si Si1 0.714815 0.676645 0.986530
Si Si2 0.192637 0.580877 0.870121
Si Si3 0.925135 0.143328 0.481155
Si Si4 0.576380 0.713561 0.682122
Si Si5 0.699366 0.690906 0.202015
Si Si6 0.925455 0.297173 0.403080
O O1 0.750000 0.750000 0.950322
O O2 0.744951 0.610124 0.931073
O O3 0.634657 0.671759 0.967649
O O4 0.732050 0.665596 0.100353
O O5 0.205418 0.500000 0.843100
O O6 0.125429 0.586709 0.935686
O O7 0.188459 0.624073 0.770011
O O8 0.905233 0.159463 0.594494
O O9 0.920653 0.212663 0.412940
O O10 0.000000 0.111052 0.477467
O O11 0.500000 0.741076 0.665897
O O12 0.626324 0.778944 0.675378
O O13 0.584095 0.678973 0.789831
O O14 0.750000 0.750000 0.249262
O O15 0.000000 0.322241 0.439824
#
# Coordination Sequence:
#
# PCOD8185877 Si02
#       6
#    16  16  16  16  16  16
#     4  11  20  37  59  82 111 146 190 239 283 325
#     4  12  25  38  54  80 117 157 187 223 285 353
#     4  10  19  34  55  84 116 144 181 228 279 335
#     4  10  18  30  55  88 113 138 179 231 277 329
#     4  11  21  35  58  82 108 144 189 242 282 321
#     4  10  18  31  57  89 114 137 179 237 287 324
#
# _framework density 18.688305
#
# number of rings (size 3 to 8) (size 9 to 14) (size 15 to 20)
#    0.000    1.333    5.000    2.500    0.000    1.000 
#    0.000    0.000    0.000    0.500    0.000    4.667 
#    0.000    0.000    0.000    0.000    0.000    0.000 
#
# Total GULP energy -297497.568428 kJ/mol
# GULP energy per Si atom -12395.732018 kJ/mol
# Density = 1.864577 g / cm^3
# Si number density = 18.688305 Si / 1000 Ang^3
#
#
#
# Elastic Constant Matrix: (Units=GPa)
#
#
# Indices 1 2 3 4 5 6 
#
# 1 123.3285 43.6739 29.2988 0.0000 0.0000 0.0000
# 2 43.6739 85.7772 34.2465 0.0000 0.0000 0.0000
# 3 29.2988 34.2465 103.0603 0.0000 0.0000 0.0000
# 4 0.0000 0.0000 0.0000 14.0586 0.0000 0.0000
# 5 0.0000 0.0000 0.0000 0.0000 28.8509 0.0000
# 6 0.0000 0.0000 0.0000 0.0000 0.0000 17.2628
#
#
#
# Elastic Compliance Matrix: (Units=1/GPa)
#
#
# Indices 1 2 3 4 5 6 
#
# 1 0.010048 -0.004584 -0.001333 0.000000 0.000000 0.000000
# 2 -0.004584 0.015532 -0.003858 0.000000 0.000000 0.000000
# 3 -0.001333 -0.003858 0.011364 0.000000 0.000000 0.000000
# 4 0.000000 0.000000 0.000000 0.071131 0.000000 0.000000
# 5 0.000000 0.000000 0.000000 0.000000 0.034661 0.000000
# 6 0.000000 0.000000 0.000000 0.000000 0.000000 0.057928
#
#
# Mechanical properties :
#
#
# Convention : Reuss Voigt Hill
#
# Bulk Modulus (GPa) = 57.49100 58.51159 58.00130
# Shear Modulus (GPa) = 22.12255 25.69759 23.91007
#
# Velocity S-wave (km/s) = 3.44432 3.71221 3.58077
# Velocity P-wave (km/s) = 6.82991 7.05345 6.94258
#
# Compressibility (1/GPa) = 0.01739403
#
# Stress axis : x y z
#
# Youngs Moduli (GPa) = 99.51759 64.38165 87.99552
#
# Poissons Ratio (x) = 0.29512 0.11734
# Poissons Ratio (y) = 0.45617 0.33950
# Poissons Ratio (z) = 0.13270 0.24840
#
# Static dielectric constant tensor:
#      x y z
#    x 3.800610 0.000000 0.000000 
#    y 0.000000 2.805080 0.000000 
#    z 0.000000 0.000000 3.713200 
# 
# 
# High freq. dielectric constant tensor:
#      x y z
#    x 1.749740 0.000000 0.000000 
#    y 0.000000 1.648010 0.000000 
#    z 0.000000 0.000000 1.746760 
# 
# From -- ./inp_files/13985.got.cif
#   From: 2010.03.12/outbox.cif.g09.slc.cpg/sg42_7_cif.got.tgz:13985.got - 2010.04.14 02:04:31.
