data_PCOD8185757
_publ_section_title
;
Structure prediction by ZEFSAII (Michael W. Deem and Ramdas Pophale) SiO2 
 PCOD8185757
Probable space group: F M M 2
;
_chemical_formula_sum "Si O2"
_cell_formula_units_Z 72
_cell_length_a 24.666890
_cell_length_b 14.739736
_cell_length_c 8.872637
_cell_angle_alpha 90.000000
_cell_angle_beta 90.000000
_cell_angle_gamma 90.000000
_cell_volume 3225.943940
_symmetry_space_group_name_H-M "F M M 2"
_symmetry_group_IT_number 42
_symmetry_cell_setting 'orthorhombic'
loop_
_space_group_symop_operation_xyz
x,y,z
-x,-y,z
-x,y,z
x,-y,z
x,1/2+y,1/2+z
-x,1/2-y,1/2+z
-x,1/2+y,1/2+z
x,1/2-y,1/2+z
1/2+x,y,1/2+z
1/2-x,-y,1/2+z
1/2-x,y,1/2+z
1/2+x,-y,1/2+z
1/2+x,1/2+y,z
1/2-x,1/2-y,z
1/2-x,1/2+y,z
1/2+x,1/2-y,z
loop_
_atom_site_type_symbol
_atom_site_label
_atom_site_fract_x
_atom_site_fract_y
_atom_site_fract_z
Si Si1 0.000000 0.000000 0.284540
Si Si2 0.328394 0.500000 0.496166
Si Si3 0.381526 0.682984 0.576496
Si Si4 0.769413 0.500000 0.305845
Si Si5 0.346361 0.651929 0.910505
Si Si6 0.415210 0.500000 0.028946
Si Si7 0.000000 0.849274 0.528351
Si Si8 0.000000 0.000000 0.773444
O O1 0.000000 0.908423 0.378395
O O2 0.052860 0.000000 0.182739
O O3 0.368251 0.585269 0.504895
O O4 0.295038 0.500000 0.338433
O O5 0.283005 0.500000 0.628696
O O6 0.375843 0.678211 0.755527
O O7 0.338876 0.754987 0.504787
O O8 0.444186 0.709616 0.534083
O O9 0.792239 0.594072 0.376822
O O10 0.381091 0.591432 0.024367
O O11 0.447293 0.500000 0.873646
O O12 0.000000 0.910503 0.675382
#
# Coordination Sequence:
#
# PCOD8185757 Si02
#       8
#     4   8  16   8  16   8   8   4
#     4  10  24  32  60  90 120 166 226 256 300 370
#     4  10  22  45  67  94 122 168 207 268 320 382
#     4  11  24  41  66  93 133 167 217 254 317 374
#     4   9  22  44  69  91 123 165 210 261 335 367
#     4  10  23  42  63  93 126 168 211 264 313 378
#     4  10  20  40  58  83 125 165 212 257 310 357
#     4  11  22  38  60  94 129 175 211 252 311 372
#     4  10  16  36  64  76 114 178 206 248 300 364
#
# _framework density 22.319050000000001
#
# number of rings (size 3 to 8) (size 9 to 14) (size 15 to 20)
#    0.000    1.778    2.222    2.000    3.111    5.333 
#    4.000    4.444    0.000    0.000    0.000    0.000 
#    0.000    0.000    0.000    0.000    0.000    0.000 
#
# Total GULP energy -223129.923504 kJ/mol
# GULP energy per Si atom -12396.106861 kJ/mol
# Density = 2.226825 g / cm^3
# Si number density = 22.319050 Si / 1000 Ang^3
#
#
#
# Elastic Constant Matrix: (Units=GPa)
#
#
# Indices 1 2 3 4 5 6 
#
# 1 68.1146 4.2315 13.8104 0.0000 0.0000 0.0000
# 2 4.2315 119.3615 18.6949 0.0000 0.0000 0.0000
# 3 13.8104 18.6949 79.8385 0.0000 0.0000 0.0000
# 4 0.0000 0.0000 0.0000 78.7698 0.0000 0.0000
# 5 0.0000 0.0000 0.0000 0.0000 44.2253 0.0000
# 6 0.0000 0.0000 0.0000 0.0000 0.0000 18.0378
#
#
#
# Elastic Compliance Matrix: (Units=1/GPa)
#
#
# Indices 1 2 3 4 5 6 
#
# 1 0.015217 -0.000132 -0.002601 0.000000 0.000000 0.000000
# 2 -0.000132 0.008698 -0.002014 0.000000 0.000000 0.000000
# 3 -0.002601 -0.002014 0.013447 0.000000 0.000000 0.000000
# 4 0.000000 0.000000 0.000000 0.012695 0.000000 0.000000
# 5 0.000000 0.000000 0.000000 0.000000 0.022612 0.000000
# 6 0.000000 0.000000 0.000000 0.000000 0.000000 0.055439
#
#
# Mechanical properties :
#
#
# Convention : Reuss Voigt Hill
#
# Bulk Modulus (GPa) = 35.88441 37.86533 36.87487
# Shear Modulus (GPa) = 34.03888 43.57844 38.80866
#
# Velocity S-wave (km/s) = 3.90950 4.42353 4.17443
# Velocity P-wave (km/s) = 6.04084 6.56448 6.30810
#
# Compressibility (1/GPa) = 0.02786726
#
# Stress axis : x y z
#
# Youngs Moduli (GPa) = 65.71702 114.96876 74.36702
#
# Poissons Ratio (x) = 0.01518 0.19345
# Poissons Ratio (y) = 0.00868 0.14977
# Poissons Ratio (z) = 0.17095 0.23153
#
# Static dielectric constant tensor:
#      x y z
#    x 3.875320 0.000000 0.000000 
#    y 0.000000 4.004400 0.000000 
#    z 0.000000 0.000000 3.943670 
# 
# 
# High freq. dielectric constant tensor:
#      x y z
#    x 1.864870 0.000000 0.000000 
#    y 0.000000 1.875030 0.000000 
#    z 0.000000 0.000000 1.885800 
# 
# From -- ./inp_files/2901.got.cif
#   From: 2010.03.12/outbox.cif.g09.slc.cpg/sg42_2_cif.got.tgz:2901.got - 2010.04.14 02:04:31.
