data_PCOD8185908
_publ_section_title
;
Structure prediction by ZEFSAII (Michael W. Deem and Ramdas Pophale) SiO2 
 PCOD8185908
Probable space group: F M M 2
;
_chemical_formula_sum "Si O2"
_cell_formula_units_Z 96
_cell_length_a 10.206022
_cell_length_b 18.334781
_cell_length_c 28.309738
_cell_angle_alpha 90.000000
_cell_angle_beta 90.000000
_cell_angle_gamma 90.000000
_cell_volume 5297.464769
_symmetry_space_group_name_H-M "F M M 2"
_symmetry_group_IT_number 42
_symmetry_cell_setting 'orthorhombic'
loop_
_space_group_symop_operation_xyz
x,y,z
-x,-y,z
-x,y,z
x,-y,z
x,1/2+y,1/2+z
-x,1/2-y,1/2+z
-x,1/2+y,1/2+z
x,1/2-y,1/2+z
1/2+x,y,1/2+z
1/2-x,-y,1/2+z
1/2-x,y,1/2+z
1/2+x,-y,1/2+z
1/2+x,1/2+y,z
1/2-x,1/2-y,z
1/2-x,1/2+y,z
1/2+x,1/2-y,z
loop_
_atom_site_type_symbol
_atom_site_label
_atom_site_fract_x
_atom_site_fract_y
_atom_site_fract_z
Si Si1 0.000000 0.656800 0.489460
Si Si2 0.154787 0.181611 0.637976
Si Si3 0.347152 0.082100 0.226589
Si Si4 0.263463 0.085776 0.326136
Si Si5 0.262696 0.836135 0.037792
Si Si6 0.000000 0.586651 0.388239
Si Si7 0.500000 0.914518 0.878265
Si Si8 0.500000 0.670295 0.474737
O O1 0.124074 0.631913 0.520881
O O2 0.000000 0.742066 0.475901
O O3 0.000000 0.612578 0.441579
O O4 0.250000 0.250000 0.644399
O O5 0.187226 0.129045 0.681088
O O6 0.193783 0.138035 0.590071
O O7 0.000000 0.204180 0.636142
O O8 0.500000 0.082633 0.238005
O O9 0.276224 0.116650 0.272775
O O10 0.298015 0.000000 0.216464
O O11 0.372811 0.118525 0.361318
O O12 0.123004 0.106210 0.346346
O O13 0.286699 0.000000 0.322684
O O14 0.250000 0.750000 0.039699
O O15 0.371948 0.861165 0.000509
O O16 0.000000 0.500000 0.388881
O O17 0.500000 0.861089 0.922471
O O18 0.500000 0.000000 0.893467
#
# Coordination Sequence:
#
# PCOD8185908 Si02
#       8
#     8  16  16  16  16   8   8   8
#     4  10  20  32  51  74  98 130 169 210 245 290
#     4  10  20  35  56  80 103 134 173 213 257 307
#     4   9  17  34  58  79 100 133 176 215 251 304
#     4   9  17  32  53  74  98 134 171 200 245 306
#     4   9  18  32  52  73  97 133 169 200 244 304
#     4  10  18  32  53  74  96 132 175 206 241 298
#     4  10  20  32  49  74 104 132 163 208 253 296
#     4  10  18  34  49  70 100 132 167 202 245 296
#
# _framework density 18.121876
#
# number of rings (size 3 to 8) (size 9 to 14) (size 15 to 20)
#    0.000    2.500    1.667    1.000    3.500    0.000 
#    1.500    3.333    0.000    0.000    0.000    0.000 
#    0.000    0.000    0.000    0.000    0.000    0.000 
#
# Total GULP energy -297512.709593 kJ/mol
# GULP energy per Si atom -12396.362900 kJ/mol
# Density = 1.808063 g / cm^3
# Si number density = 18.121876 Si / 1000 Ang^3
#
#
#
# Elastic Constant Matrix: (Units=GPa)
#
#
# Indices 1 2 3 4 5 6 
#
# 1 151.3723 29.3842 83.9315 0.0000 0.0000 0.0000
# 2 29.3842 33.0090 41.2658 0.0000 0.0000 0.0000
# 3 83.9315 41.2658 181.9142 0.0000 0.0000 0.0000
# 4 0.0000 0.0000 0.0000 30.1222 0.0000 0.0000
# 5 0.0000 0.0000 0.0000 0.0000 32.6929 0.0000
# 6 0.0000 0.0000 0.0000 0.0000 0.0000 11.2319
#
#
#
# Elastic Compliance Matrix: (Units=1/GPa)
#
#
# Indices 1 2 3 4 5 6 
#
# 1 0.009249 -0.004046 -0.003349 0.000000 0.000000 0.000000
# 2 -0.004046 0.044056 -0.008127 0.000000 0.000000 0.000000
# 3 -0.003349 -0.008127 0.008886 0.000000 0.000000 0.000000
# 4 0.000000 0.000000 0.000000 0.033198 0.000000 0.000000
# 5 0.000000 0.000000 0.000000 0.000000 0.030588 0.000000
# 6 0.000000 0.000000 0.000000 0.000000 0.000000 0.089032
#
#
# Mechanical properties :
#
#
# Convention : Reuss Voigt Hill
#
# Bulk Modulus (GPa) = 32.10660 75.05091 53.57876
# Shear Modulus (GPa) = 19.49802 28.92366 24.21084
#
# Velocity S-wave (km/s) = 3.28371 3.99941 3.65910
# Velocity P-wave (km/s) = 5.66855 7.92663 6.89072
#
# Compressibility (1/GPa) = 0.03114624
#
# Stress axis : x y z
#
# Youngs Moduli (GPa) = 108.12258 22.69822 112.53631
#
# Poissons Ratio (x) = 0.09183 0.37693
# Poissons Ratio (y) = 0.43745 0.91460
# Poissons Ratio (z) = 0.36215 0.18447
#
# Static dielectric constant tensor:
#      x y z
#    x 3.679830 0.000000 0.000000 
#    y 0.000000 2.907840 0.000000 
#    z 0.000000 0.000000 3.606740 
# 
# 
# High freq. dielectric constant tensor:
#      x y z
#    x 1.712630 0.000000 0.000000 
#    y 0.000000 1.652080 0.000000 
#    z 0.000000 0.000000 1.721060 
# 
# From -- ./inp_files/24492.got.cif
#   From: 2010.03.12/outbox.cif.g09.slc.cpg/sg42_13_cif.got.tgz:24492.got - 2010.04.14 02:04:31.
