data_PCOD8185818
_publ_section_title
;
Structure prediction by ZEFSAII (Michael W. Deem and Ramdas Pophale) SiO2 
 PCOD8185818
Probable space group: F M M 2
;
_chemical_formula_sum "Si O2"
_cell_formula_units_Z 96
_cell_length_a 8.750178
_cell_length_b 19.425884
_cell_length_c 31.350137
_cell_angle_alpha 90.000000
_cell_angle_beta 90.000000
_cell_angle_gamma 90.000000
_cell_volume 5328.894494
_symmetry_space_group_name_H-M "F M M 2"
_symmetry_group_IT_number 42
_symmetry_cell_setting 'orthorhombic'
loop_
_space_group_symop_operation_xyz
x,y,z
-x,-y,z
-x,y,z
x,-y,z
x,1/2+y,1/2+z
-x,1/2-y,1/2+z
-x,1/2+y,1/2+z
x,1/2-y,1/2+z
1/2+x,y,1/2+z
1/2-x,-y,1/2+z
1/2-x,y,1/2+z
1/2+x,-y,1/2+z
1/2+x,1/2+y,z
1/2-x,1/2-y,z
1/2-x,1/2+y,z
1/2+x,1/2-y,z
loop_
_atom_site_type_symbol
_atom_site_label
_atom_site_fract_x
_atom_site_fract_y
_atom_site_fract_z
Si Si1 0.679097 0.174944 0.591110
Si Si2 0.181407 0.174300 0.675468
Si Si3 0.176618 0.419591 0.345205
Si Si4 0.820897 0.174700 0.414544
Si Si5 0.821228 0.675050 0.498760
Si Si6 0.181147 0.575967 0.249329
O O1 0.500000 0.180687 0.600628
O O2 0.750000 0.250000 0.588180
O O3 0.761120 0.137910 0.631273
O O4 0.708197 0.137813 0.544926
O O5 0.250000 0.250000 0.680140
O O6 0.246011 0.129509 0.714773
O O7 0.000000 0.178144 0.675506
O O8 0.204315 0.500000 0.354159
O O9 0.282255 0.374768 0.375579
O O10 0.227107 0.400824 0.296973
O O11 0.000000 0.400489 0.353003
O O12 0.750000 0.250000 0.407187
O O13 0.757298 0.138220 0.458133
O O14 0.000000 0.183368 0.418397
O O15 0.750000 0.750000 0.501098
O O16 0.000000 0.680827 0.489723
O O17 0.248613 0.500000 0.239627
O O18 0.000000 0.572260 0.246300
#
# Coordination Sequence:
#
# PCOD8185818 Si02
#       6
#    16  16  16  16  16  16
#     4   9  16  26  42  65  94 125 157 192 231 279
#     4  10  18  28  46  71  98 124 154 194 236 278
#     4   9  18  35  56  73  94 127 164 200 243 295
#     4  11  21  32  49  74 103 129 160 202 244 288
#     4   9  16  27  44  66  93 125 160 195 235 283
#     4   8  16  32  52  71  91 122 162 196 230 280
#
# _framework density 18.014994000000002
#
# number of rings (size 3 to 8) (size 9 to 14) (size 15 to 20)
#    0.000    2.667    0.000    6.000    0.000    3.000 
#    0.000    3.333    0.000    5.000    0.000    4.667 
#    0.000    0.000    0.000    0.000    0.000    0.000 
#
# Total GULP energy -297349.248057 kJ/mol
# GULP energy per Si atom -12389.552002 kJ/mol
# Density = 1.797399 g / cm^3
# Si number density = 18.014994 Si / 1000 Ang^3
#
#
#
# Elastic Constant Matrix: (Units=GPa)
#
#
# Indices 1 2 3 4 5 6 
#
# 1 98.9527 28.6534 58.2519 0.0000 0.0000 0.0000
# 2 28.6534 48.7470 61.8911 0.0000 0.0000 0.0000
# 3 58.2519 61.8911 184.8783 0.0000 0.0000 0.0000
# 4 0.0000 0.0000 0.0000 2.4712 0.0000 0.0000
# 5 0.0000 0.0000 0.0000 0.0000 21.5955 0.0000
# 6 0.0000 0.0000 0.0000 0.0000 0.0000 15.3736
#
#
#
# Elastic Compliance Matrix: (Units=1/GPa)
#
#
# Indices 1 2 3 4 5 6 
#
# 1 0.012885 -0.004208 -0.002651 0.000000 0.000000 0.000000
# 2 -0.004208 0.037053 -0.011078 0.000000 0.000000 0.000000
# 3 -0.002651 -0.011078 0.009953 0.000000 0.000000 0.000000
# 4 0.000000 0.000000 0.000000 0.404656 0.000000 0.000000
# 5 0.000000 0.000000 0.000000 0.000000 0.046306 0.000000
# 6 0.000000 0.000000 0.000000 0.000000 0.000000 0.065047
#
#
# Mechanical properties :
#
#
# Convention : Reuss Voigt Hill
#
# Bulk Modulus (GPa) = 41.63824 70.01897 55.82860
# Shear Modulus (GPa) = 8.06739 20.14016 14.10377
#
# Velocity S-wave (km/s) = 2.11846 3.34723 2.80105
# Velocity P-wave (km/s) = 5.39881 7.34098 6.44349
#
# Compressibility (1/GPa) = 0.02401639
#
# Stress axis : x y z
#
# Youngs Moduli (GPa) = 77.60971 26.98853 100.47249
#
# Poissons Ratio (x) = 0.11356 0.26638
# Poissons Ratio (y) = 0.32655 1.11306
# Poissons Ratio (z) = 0.20576 0.29899
#
# Static dielectric constant tensor:
#      x y z
#    x 3.276530 0.000000 0.000000 
#    y 0.000000 3.003540 0.000000 
#    z 0.000000 0.000000 4.342390 
# 
# 
# High freq. dielectric constant tensor:
#      x y z
#    x 1.693780 0.000000 0.000000 
#    y 0.000000 1.641380 0.000000 
#    z 0.000000 0.000000 1.726780 
# 
# From -- ./inp_files/31611.got.cif
#   From: 2010.03.12/outbox.cif.g09.slc.cpg/sg42_16_cif.got.tgz:31611.got - 2010.04.14 02:04:31.
