data_PCOD8185527
_publ_section_title
;
Structure prediction by ZEFSAII (Michael W. Deem and Ramdas Pophale) SiO2 
 PCOD8185527
Probable space group: A B A 2
;
_chemical_formula_sum "Si O2"
_cell_formula_units_Z 52
_cell_length_a 15.173549
_cell_length_b 17.447727
_cell_length_c 8.465201
_cell_angle_alpha 90.000000
_cell_angle_beta 90.000000
_cell_angle_gamma 90.000000
_cell_volume 2241.110670
_symmetry_space_group_name_H-M "A B A 2"
_symmetry_group_IT_number 41
_symmetry_cell_setting 'orthorhombic'
loop_
_space_group_symop_operation_xyz
x,y,z
-x,-y,z
1/2-x,y,1/2+z
1/2+x,-y,1/2+z
x,1/2+y,1/2+z
-x,1/2-y,1/2+z
1/2-x,1/2+y,z
1/2+x,1/2-y,z
loop_
_atom_site_type_symbol
_atom_site_label
_atom_site_fract_x
_atom_site_fract_y
_atom_site_fract_z
Si Si1 0.000000 0.000000 0.580461
Si Si2 0.182245 0.759635 0.083239
Si Si3 0.267654 0.908167 0.183739
Si Si4 0.322689 0.166990 0.772421
Si Si5 0.044127 0.356001 0.250392
Si Si6 0.323682 0.504055 0.418356
Si Si7 0.511022 0.290456 0.085696
O O1 0.984127 0.926292 0.691660
O O2 0.075411 0.994722 0.453477
O O3 0.241157 0.835481 0.077987
O O4 0.237121 0.692639 0.171214
O O5 0.087754 0.782460 0.162858
O O6 0.161315 0.732364 0.904766
O O7 0.358312 0.889960 0.277852
O O8 0.193708 0.931188 0.307091
O O9 0.272804 0.986074 0.080671
O O10 0.415361 0.157247 0.675892
O O11 0.296624 0.086615 0.851199
O O12 0.049827 0.295351 0.105324
O O13 0.999284 0.320617 0.407123
#
# Coordination Sequence:
#
# PCOD8185527 Si02
#       7
#     4   8   8   8   8   8   8
#     4  10  26  46  76 104 150 190 246 304 374 430
#     4  12  25  46  75 105 143 193 247 296 369 432
#     4  11  24  49  76 104 147 193 242 298 369 441
#     4  12  27  46  71 112 143 194 243 306 362 434
#     4  11  25  50  74 107 147 197 240 308 367 438
#     4  11  25  47  70 108 146 189 242 300 365 431
#     4  12  25  46  74 108 146 188 251 295 373 434
#
# _framework density 23.202781999999999
#
# number of rings (size 3 to 8) (size 9 to 14) (size 15 to 20)
#    0.000    0.615    3.077    3.692    4.308    2.462 
#    8.308    0.000    0.000    0.000    0.000    0.000 
#    0.000    0.000    0.000    0.000    0.000    0.000 
#
# Total GULP energy -322147.682860 kJ/mol
# GULP energy per Si atom -12390.295495 kJ/mol
# Density = 2.314997 g / cm^3
# Si number density = 23.202782 Si / 1000 Ang^3
#
#
#
# Elastic Constant Matrix: (Units=GPa)
#
#
# Indices 1 2 3 4 5 6 
#
# 1 138.2970 43.5262 80.4717 0.0000 0.0000 0.0000
# 2 43.5262 123.4989 61.3415 0.0000 0.0000 0.0000
# 3 80.4717 61.3415 118.4615 0.0000 0.0000 0.0000
# 4 0.0000 0.0000 0.0000 40.7816 0.0000 0.0000
# 5 0.0000 0.0000 0.0000 0.0000 36.0661 0.0000
# 6 0.0000 0.0000 0.0000 0.0000 0.0000 27.6610
#
#
#
# Elastic Compliance Matrix: (Units=1/GPa)
#
#
# Indices 1 2 3 4 5 6 
#
# 1 0.011963 -0.000242 -0.008001 0.000000 0.000000 0.000000
# 2 -0.000242 0.010906 -0.005483 0.000000 0.000000 0.000000
# 3 -0.008001 -0.005483 0.016716 0.000000 0.000000 0.000000
# 4 0.000000 0.000000 0.000000 0.024521 0.000000 0.000000
# 5 0.000000 0.000000 0.000000 0.000000 0.027727 0.000000
# 6 0.000000 0.000000 0.000000 0.000000 0.000000 0.036152
#
#
# Mechanical properties :
#
#
# Convention : Reuss Voigt Hill
#
# Bulk Modulus (GPa) = 82.42282 83.43739 82.93010
# Shear Modulus (GPa) = 31.35197 33.89624 32.62411
#
# Velocity S-wave (km/s) = 3.67988 3.82628 3.75379
# Velocity P-wave (km/s) = 7.32498 7.45377 7.38965
#
# Compressibility (1/GPa) = 0.01213256
#
# Stress axis : x y z
#
# Youngs Moduli (GPa) = 83.59442 91.69392 59.82399
#
# Poissons Ratio (x) = 0.02220 0.47864
# Poissons Ratio (y) = 0.02024 0.32800
# Poissons Ratio (z) = 0.66883 0.50274
#
# Static dielectric constant tensor:
#      x y z
#    x 4.370270 0.000000 0.000000 
#    y 0.000000 4.346490 0.000000 
#    z 0.000000 0.000000 4.095020 
# 
# 
# High freq. dielectric constant tensor:
#      x y z
#    x 1.926990 0.000000 0.000000 
#    y 0.000000 1.925470 0.000000 
#    z 0.000000 0.000000 1.910050 
# 
# From -- ./inp_files/2621.got.cif
#   From: 2010.03.12/outbox.cif.g09.slc.cpg/sg41_2_cif.got.tgz:2621.got - 2010.04.14 01:55:53.
