data_PCOD8185520
_publ_section_title
;
Structure prediction by ZEFSAII (Michael W. Deem and Ramdas Pophale) SiO2 
 PCOD8185520
Probable space group: A B A 2
;
_chemical_formula_sum "Si O2"
_cell_formula_units_Z 40
_cell_length_a 9.824161
_cell_length_b 10.530379
_cell_length_c 16.158875
_cell_angle_alpha 90.000000
_cell_angle_beta 90.000000
_cell_angle_gamma 90.000000
_cell_volume 1671.670178
_symmetry_space_group_name_H-M "A B A 2"
_symmetry_group_IT_number 41
_symmetry_cell_setting 'orthorhombic'
loop_
_space_group_symop_operation_xyz
x,y,z
-x,-y,z
1/2-x,y,1/2+z
1/2+x,-y,1/2+z
x,1/2+y,1/2+z
-x,1/2-y,1/2+z
1/2-x,1/2+y,z
1/2+x,1/2-y,z
loop_
_atom_site_type_symbol
_atom_site_label
_atom_site_fract_x
_atom_site_fract_y
_atom_site_fract_z
Si Si1 0.500000 0.000000 0.611480
Si Si2 0.298589 0.158321 0.330769
Si Si3 0.798589 0.841679 0.022403
Si Si4 0.508470 0.859286 0.769437
Si Si5 0.500000 0.500000 0.741692
Si Si6 0.508469 0.859286 0.083735
O O1 0.632768 0.972994 0.555498
O O2 0.476441 0.874433 0.669932
O O3 0.265113 0.141376 0.426586
O O4 0.403704 0.272096 0.317503
O O5 0.367232 0.027006 0.297675
O O6 0.161796 0.191137 0.281391
O O7 0.661794 0.808862 0.071781
O O8 0.903702 0.727903 0.035670
O O9 0.500000 0.000000 0.809881
O O10 0.476441 0.374433 0.683241
O O11 0.500000 0.000000 0.043291
#
# Coordination Sequence:
#
# PCOD8185520 Si02
#       6
#     4   8   8   8   4   8
#     4  10  25  46  73 100 146 190 236 288 351 432
#     4  12  25  45  74 109 142 186 240 303 357 418
#     4  12  25  45  74 109 142 186 240 303 357 418
#     4  10  27  47  75  99 149 188 244 284 362 429
#     4  10  25  46  73 100 146 190 236 288 351 432
#     4  10  27  47  75  99 149 188 244 284 362 429
#
# _framework density 23.928163999999999
#
# number of rings (size 3 to 8) (size 9 to 14) (size 15 to 20)
#    1.200    0.000    0.000    4.200    5.600    3.200 
#    0.000    0.000    0.000    0.000    0.000    0.000 
#    0.000    0.000    0.000    0.000    0.000    0.000 
#
# Total GULP energy -248005.152563 kJ/mol
# GULP energy per Si atom -12400.257628 kJ/mol
# Density = 2.387370 g / cm^3
# Si number density = 23.928164 Si / 1000 Ang^3
#
#
#
# Elastic Constant Matrix: (Units=GPa)
#
#
# Indices 1 2 3 4 5 6 
#
# 1 187.5324 61.7133 40.7692 0.0000 0.0000 0.0000
# 2 61.7133 66.4086 24.5433 0.0000 0.0000 0.0000
# 3 40.7692 24.5433 126.7872 0.0000 0.0000 0.0000
# 4 0.0000 0.0000 0.0000 30.5013 0.0000 0.0000
# 5 0.0000 0.0000 0.0000 0.0000 29.7641 0.0000
# 6 0.0000 0.0000 0.0000 0.0000 0.0000 44.9120
#
#
#
# Elastic Compliance Matrix: (Units=1/GPa)
#
#
# Indices 1 2 3 4 5 6 
#
# 1 0.007847 -0.006849 -0.001197 0.000000 0.000000 0.000000
# 2 -0.006849 0.022198 -0.002094 0.000000 0.000000 0.000000
# 3 -0.001197 -0.002094 0.008678 0.000000 0.000000 0.000000
# 4 0.000000 0.000000 0.000000 0.032786 0.000000 0.000000
# 5 0.000000 0.000000 0.000000 0.000000 0.033598 0.000000
# 6 0.000000 0.000000 0.000000 0.000000 0.000000 0.022266
#
#
# Mechanical properties :
#
#
# Convention : Reuss Voigt Hill
#
# Bulk Modulus (GPa) = 54.23128 70.53107 62.38117
# Shear Modulus (GPa) = 32.50985 37.94897 35.22941
#
# Velocity S-wave (km/s) = 3.68998 3.98672 3.84122
# Velocity P-wave (km/s) = 6.39281 7.12265 6.76757
#
# Compressibility (1/GPa) = 0.01843954
#
# Stress axis : x y z
#
# Youngs Moduli (GPa) = 127.44197 45.05011 115.23840
#
# Poissons Ratio (x) = 0.30857 0.13797
# Poissons Ratio (y) = 0.87291 0.24136
# Poissons Ratio (z) = 0.15258 0.09436
#
# Static dielectric constant tensor:
#      x y z
#    x 4.654980 0.000000 0.000000 
#    y 0.000000 4.380720 0.000000 
#    z 0.000000 0.000000 4.149230 
# 
# 
# High freq. dielectric constant tensor:
#      x y z
#    x 1.948490 0.000000 0.000000 
#    y 0.000000 1.958240 0.000000 
#    z 0.000000 0.000000 1.944980 
# 
# From -- ./inp_files/9576.got.cif
#   From: 2010.03.12/outbox.cif.g09.slc.cpg/sg41_5_cif.got.tgz:9576.got - 2010.04.14 01:55:53.
