data_PCOD8185148
_publ_section_title
;
Structure prediction by ZEFSAII (Michael W. Deem and Ramdas Pophale) SiO2 
 PCOD8185148
Probable space group: A B A 2
;
_chemical_formula_sum "Si O2"
_cell_formula_units_Z 60
_cell_length_a 14.732863
_cell_length_b 9.685563
_cell_length_c 20.786904
_cell_angle_alpha 90.000000
_cell_angle_beta 90.000000
_cell_angle_gamma 90.000000
_cell_volume 2966.209566
_symmetry_space_group_name_H-M "A B A 2"
_symmetry_group_IT_number 41
_symmetry_cell_setting 'orthorhombic'
loop_
_space_group_symop_operation_xyz
x,y,z
-x,-y,z
1/2-x,y,1/2+z
1/2+x,-y,1/2+z
x,1/2+y,1/2+z
-x,1/2-y,1/2+z
1/2-x,1/2+y,z
1/2+x,1/2-y,z
loop_
_atom_site_type_symbol
_atom_site_label
_atom_site_fract_x
_atom_site_fract_y
_atom_site_fract_z
Si Si1 0.396100 0.675956 0.166880
Si Si2 0.895419 0.008828 0.689231
Si Si3 0.688592 0.706431 0.880471
Si Si4 0.500000 0.000000 0.570100
Si Si5 0.582935 0.410962 0.306728
Si Si6 0.684797 0.109720 0.521766
Si Si7 0.723027 0.379912 0.593238
Si Si8 0.219150 0.060088 0.811357
O O1 0.369814 0.835509 0.172105
O O2 0.469725 0.631204 0.113539
O O3 0.440290 0.639692 0.235276
O O4 0.302295 0.600268 0.147105
O O5 0.872363 0.924785 0.624547
O O6 0.838501 0.937331 0.746406
O O7 0.000000 0.000000 0.707435
O O8 0.596832 0.787081 0.858654
O O9 0.773667 0.788617 0.846332
O O10 0.674125 0.550291 0.858078
O O11 0.702041 0.694271 0.956361
O O12 0.580985 0.057061 0.525510
O O13 0.500000 0.500000 0.334064
O O14 0.677682 0.494318 0.299071
O O15 0.711333 0.220662 0.575640
O O16 0.751595 0.978196 0.532062
#
# Coordination Sequence:
#
# PCOD8185148 Si02
#       8
#     8   8   8   4   8   8   8   8
#     4  11  20  40  61  97 127 165 217 269 335 395
#     4  12  23  38  63 100 132 165 216 284 332 386
#     4  10  22  43  63  92 128 169 223 257 328 391
#     4  10  24  40  66  98 130 170 224 280 340 388
#     4  10  21  39  67  91 127 168 215 268 332 393
#     4  11  23  43  67  92 134 179 221 270 323 397
#     4  11  22  40  67  92 130 177 218 266 331 398
#     4  10  22  41  64  94 127 165 217 270 328 391
#
# _framework density 20.227836
#
# number of rings (size 3 to 8) (size 9 to 14) (size 15 to 20)
#    0.800    0.533    4.667    1.600    0.000    1.067 
#    1.200    4.667    0.000    0.000    0.000    0.000 
#    0.000    0.000    0.000    0.000    0.000    0.000 
#
# Total GULP energy -371684.134895 kJ/mol
# GULP energy per Si atom -12389.471163 kJ/mol
# Density = 2.018180 g / cm^3
# Si number density = 20.227836 Si / 1000 Ang^3
#
#
#
# Elastic Constant Matrix: (Units=GPa)
#
#
# Indices 1 2 3 4 5 6 
#
# 1 99.3382 15.1279 32.8582 0.0000 0.0000 0.0000
# 2 15.1279 90.8106 32.8907 0.0000 0.0000 0.0000
# 3 32.8582 32.8907 92.2847 0.0000 0.0000 0.0000
# 4 0.0000 0.0000 0.0000 30.0041 0.0000 0.0000
# 5 0.0000 0.0000 0.0000 0.0000 18.8357 0.0000
# 6 0.0000 0.0000 0.0000 0.0000 0.0000 34.3040
#
#
#
# Elastic Compliance Matrix: (Units=1/GPa)
#
#
# Indices 1 2 3 4 5 6 
#
# 1 0.011430 -0.000494 -0.003894 0.000000 0.000000 0.000000
# 2 -0.000494 0.012665 -0.004338 0.000000 0.000000 0.000000
# 3 -0.003894 -0.004338 0.013769 0.000000 0.000000 0.000000
# 4 0.000000 0.000000 0.000000 0.033329 0.000000 0.000000
# 5 0.000000 0.000000 0.000000 0.000000 0.053091 0.000000
# 6 0.000000 0.000000 0.000000 0.000000 0.000000 0.029151
#
#
# Mechanical properties :
#
#
# Convention : Reuss Voigt Hill
#
# Bulk Modulus (GPa) = 48.98969 49.35412 49.17190
# Shear Modulus (GPa) = 28.13895 30.06587 29.10241
#
# Velocity S-wave (km/s) = 3.73379 3.85952 3.79718
# Velocity P-wave (km/s) = 6.54674 6.65682 6.60201
#
# Compressibility (1/GPa) = 0.02041246
#
# Stress axis : x y z
#
# Youngs Moduli (GPa) = 87.49128 78.95497 72.62952
#
# Poissons Ratio (x) = 0.03899 0.28279
# Poissons Ratio (y) = 0.04321 0.31508
# Poissons Ratio (z) = 0.34065 0.34252
#
# Static dielectric constant tensor:
#      x y z
#    x 3.525310 0.000000 0.000000 
#    y 0.000000 3.913740 0.000000 
#    z 0.000000 0.000000 3.494480 
# 
# 
# High freq. dielectric constant tensor:
#      x y z
#    x 1.776220 0.000000 0.000000 
#    y 0.000000 1.794450 0.000000 
#    z 0.000000 0.000000 1.779430 
# 
# From -- ./inp_files/12216.got.cif
#   From: 2010.03.12/outbox.cif.g09.slc.cpg/sg41_7_cif.got.tgz:12216.got - 2010.04.14 01:55:53.
