data_PCOD8185985
_publ_section_title
;
Structure prediction by ZEFSAII (Michael W. Deem and Ramdas Pophale) SiO2 
 PCOD8185985
Probable space group: F M M 2
;
_chemical_formula_sum "Si O2"
_cell_formula_units_Z 72
_cell_length_a 7.569252
_cell_length_b 25.412688
_cell_length_c 21.850433
_cell_angle_alpha 90.000000
_cell_angle_beta 90.000000
_cell_angle_gamma 90.000000
_cell_volume 4203.040902
_symmetry_space_group_name_H-M "F M M 2"
_symmetry_group_IT_number 42
_symmetry_cell_setting 'orthorhombic'
loop_
_space_group_symop_operation_xyz
x,y,z
-x,-y,z
-x,y,z
x,-y,z
x,1/2+y,1/2+z
-x,1/2-y,1/2+z
-x,1/2+y,1/2+z
x,1/2-y,1/2+z
1/2+x,y,1/2+z
1/2-x,-y,1/2+z
1/2-x,y,1/2+z
1/2+x,-y,1/2+z
1/2+x,1/2+y,z
1/2-x,1/2-y,z
1/2-x,1/2+y,z
1/2+x,1/2-y,z
loop_
_atom_site_type_symbol
_atom_site_label
_atom_site_fract_x
_atom_site_fract_y
_atom_site_fract_z
Si Si1 0.000000 0.055119 0.218010
Si Si2 0.296677 0.191109 0.245619
Si Si3 0.500000 0.141205 0.817929
Si Si4 0.202903 0.939898 0.026057
Si Si5 0.199685 0.898225 0.650155
Si Si6 0.000000 0.060534 0.428235
O O1 0.000000 0.099113 0.266287
O O2 0.826908 0.056982 0.175954
O O3 0.000000 0.000000 0.253194
O O4 0.500000 0.185263 0.266126
O O5 0.250000 0.250000 0.225920
O O6 0.257398 0.157016 0.184217
O O7 0.177374 0.175353 0.305018
O O8 0.500000 0.108939 0.880566
O O9 0.263052 0.897350 0.077333
O O10 0.000000 0.929776 0.007306
O O11 0.230499 0.000000 0.049611
O O12 0.322939 0.930578 0.966912
O O13 0.000000 0.915161 0.663440
O O14 0.000000 0.000000 0.401486
#
# Coordination Sequence:
#
# PCOD8185985 Si02
#       6
#     8  16   8  16  16   8
#     4  10  19  30  48  75 110 140 165 210 263 312
#     4  10  20  35  57  83 102 133 173 220 273 316
#     4  10  21  36  53  77 105 136 180 217 261 309
#     4  10  19  31  50  77 107 144 180 210 248 305
#     4  10  19  30  49  80 110 133 171 213 260 313
#     4  10  21  36  53  74 107 148 182 211 250 305
#
# _framework density 17.130454
#
# number of rings (size 3 to 8) (size 9 to 14) (size 15 to 20)
#    0.000    2.000    3.333    1.000    0.000    2.222 
#    0.000    0.000    0.000    5.333    0.000    0.000 
#    0.000    0.000    0.000    0.000    0.000    0.000 
#
# Total GULP energy -223014.818850 kJ/mol
# GULP energy per Si atom -12389.712158 kJ/mol
# Density = 1.709146 g / cm^3
# Si number density = 17.130454 Si / 1000 Ang^3
#
#
#
# Elastic Constant Matrix: (Units=GPa)
#
#
# Indices 1 2 3 4 5 6 
#
# 1 149.6471 46.6832 46.9058 0.0000 0.0000 0.0000
# 2 46.6832 82.2543 38.4526 0.0000 0.0000 0.0000
# 3 46.9058 38.4526 84.3231 0.0000 0.0000 0.0000
# 4 0.0000 0.0000 0.0000 26.4486 0.0000 0.0000
# 5 0.0000 0.0000 0.0000 0.0000 22.4940 0.0000
# 6 0.0000 0.0000 0.0000 0.0000 0.0000 13.2347
#
#
#
# Elastic Compliance Matrix: (Units=1/GPa)
#
#
# Indices 1 2 3 4 5 6 
#
# 1 0.008797 -0.003438 -0.003326 0.000000 0.000000 0.000000
# 2 -0.003438 0.016795 -0.005746 0.000000 0.000000 0.000000
# 3 -0.003326 -0.005746 0.016330 0.000000 0.000000 0.000000
# 4 0.000000 0.000000 0.000000 0.037809 0.000000 0.000000
# 5 0.000000 0.000000 0.000000 0.000000 0.044456 0.000000
# 6 0.000000 0.000000 0.000000 0.000000 0.000000 0.075559
#
#
# Mechanical properties :
#
#
# Convention : Reuss Voigt Hill
#
# Bulk Modulus (GPa) = 59.16634 64.47862 61.82248
# Shear Modulus (GPa) = 21.70131 24.71431 23.20781
#
# Velocity S-wave (km/s) = 3.56311 3.80243 3.68471
# Velocity P-wave (km/s) = 7.17923 7.54979 7.36684
#
# Compressibility (1/GPa) = 0.01690150
#
# Stress axis : x y z
#
# Youngs Moduli (GPa) = 113.66998 59.54146 61.23866
#
# Poissons Ratio (x) = 0.20471 0.20367
# Poissons Ratio (y) = 0.39082 0.35189
# Poissons Ratio (z) = 0.37804 0.34214
#
# Static dielectric constant tensor:
#      x y z
#    x 3.332230 0.000000 0.000000 
#    y 0.000000 3.025340 0.000000 
#    z 0.000000 0.000000 3.137910 
# 
# 
# High freq. dielectric constant tensor:
#      x y z
#    x 1.686870 0.000000 0.000000 
#    y 0.000000 1.646800 0.000000 
#    z 0.000000 0.000000 1.632870 
# 
# From -- ./inp_files/23371.got.cif
#   From: 2010.03.12/outbox.cif.g09.slc.cpg/sg42_12_cif.got.tgz:23371.got - 2010.04.14 02:04:31.
