data_PCOD8185005
_publ_section_title
;
Structure prediction by ZEFSAII (Michael W. Deem and Ramdas Pophale) SiO2 
 PCOD8185005
Probable space group: A B A 2
;
_chemical_formula_sum "Si O2"
_cell_formula_units_Z 64
_cell_length_a 13.597187
_cell_length_b 15.040267
_cell_length_c 14.083293
_cell_angle_alpha 90.000000
_cell_angle_beta 90.000000
_cell_angle_gamma 90.000000
_cell_volume 2880.108383
_symmetry_space_group_name_H-M "A B A 2"
_symmetry_group_IT_number 41
_symmetry_cell_setting 'orthorhombic'
loop_
_space_group_symop_operation_xyz
x,y,z
-x,-y,z
1/2-x,y,1/2+z
1/2+x,-y,1/2+z
x,1/2+y,1/2+z
-x,1/2-y,1/2+z
1/2-x,1/2+y,z
1/2+x,1/2-y,z
loop_
_atom_site_type_symbol
_atom_site_label
_atom_site_fract_x
_atom_site_fract_y
_atom_site_fract_z
Si Si1 0.587380 0.646768 0.879570
Si Si2 0.204013 0.799163 0.164898
Si Si3 0.897250 0.549747 0.870167
Si Si4 0.586876 0.558752 0.067165
Si Si5 0.709059 0.041879 0.248982
Si Si6 0.101947 0.242170 0.834642
Si Si7 0.795130 0.475134 0.044538
Si Si8 0.267155 0.214387 0.970747
O O1 0.624962 0.555536 0.828212
O O2 0.500905 0.693046 0.821246
O O3 0.669433 0.722267 0.901753
O O4 0.543154 0.612025 0.978168
O O5 0.116523 0.870305 0.146584
O O6 0.289041 0.855056 0.215294
O O7 0.160384 0.725020 0.235693
O O8 0.252081 0.761897 0.070441
O O9 0.812137 0.511109 0.798694
O O10 0.913104 0.653807 0.853787
O O11 0.000000 0.500000 0.851779
O O12 0.861460 0.540554 0.980053
O O13 0.500000 0.500000 0.111867
O O14 0.680926 0.500601 0.035530
O O15 0.678876 0.980559 0.158227
O O16 0.163522 0.197062 0.919587
O O17 0.817860 0.378813 0.998528
#
# Coordination Sequence:
#
# PCOD8185005 Si02
#       8
#     8   8   8   8   8   8   8   8
#     4  11  21  43  66  89 135 177 219 286 340 397
#     4   9  21  40  63  90 133 168 219 275 328 400
#     4  11  22  44  69  96 135 178 227 278 340 415
#     4  10  20  40  63  92 128 172 219 274 329 398
#     4  10  21  43  64  92 133 176 214 280 340 391
#     4  11  22  41  67  98 128 178 230 273 340 412
#     4  11  23  40  67  95 134 175 218 279 344 399
#     4  11  22  43  63  97 133 173 226 277 342 413
#
# _framework density 22.221387
#
# number of rings (size 3 to 8) (size 9 to 14) (size 15 to 20)
#    0.000    1.500    3.750    3.000    0.000    5.500 
#   18.000    0.000    0.000    0.000    0.000    0.000 
#    0.000    0.000    0.000    0.000    0.000    0.000 
#
# Total GULP energy -396552.705176 kJ/mol
# GULP energy per Si atom -12392.272037 kJ/mol
# Density = 2.217081 g / cm^3
# Si number density = 22.221387 Si / 1000 Ang^3
#
#
#
# Elastic Constant Matrix: (Units=GPa)
#
#
# Indices 1 2 3 4 5 6 
#
# 1 80.9912 12.2695 34.3230 0.0000 0.0000 0.0000
# 2 12.2695 58.3731 23.8212 0.0000 0.0000 0.0000
# 3 34.3230 23.8212 114.1883 0.0000 0.0000 0.0000
# 4 0.0000 0.0000 0.0000 28.5163 0.0000 0.0000
# 5 0.0000 0.0000 0.0000 0.0000 21.0523 0.0000
# 6 0.0000 0.0000 0.0000 0.0000 0.0000 37.5141
#
#
#
# Elastic Compliance Matrix: (Units=1/GPa)
#
#
# Indices 1 2 3 4 5 6 
#
# 1 0.014248 -0.001363 -0.003998 0.000000 0.000000 0.000000
# 2 -0.001363 0.018856 -0.003524 0.000000 0.000000 0.000000
# 3 -0.003998 -0.003524 0.010694 0.000000 0.000000 0.000000
# 4 0.000000 0.000000 0.000000 0.035068 0.000000 0.000000
# 5 0.000000 0.000000 0.000000 0.000000 0.047501 0.000000
# 6 0.000000 0.000000 0.000000 0.000000 0.000000 0.026657
#
#
# Mechanical properties :
#
#
# Convention : Reuss Voigt Hill
#
# Bulk Modulus (GPa) = 38.42087 43.82001 41.12044
# Shear Modulus (GPa) = 27.85988 29.62580 28.74284
#
# Velocity S-wave (km/s) = 3.54466 3.65528 3.60040
# Velocity P-wave (km/s) = 5.83784 6.13003 5.98572
#
# Compressibility (1/GPa) = 0.02602752
#
# Stress axis : x y z
#
# Youngs Moduli (GPa) = 70.18549 53.03435 93.50679
#
# Poissons Ratio (x) = 0.07229 0.37387
# Poissons Ratio (y) = 0.09567 0.32950
# Poissons Ratio (z) = 0.28062 0.18688
#
# Static dielectric constant tensor:
#      x y z
#    x 3.735880 0.000000 0.000000 
#    y 0.000000 3.960690 0.000000 
#    z 0.000000 0.000000 4.328800 
# 
# 
# High freq. dielectric constant tensor:
#      x y z
#    x 1.850230 0.000000 0.000000 
#    y 0.000000 1.862280 0.000000 
#    z 0.000000 0.000000 1.895190 
# 
# From -- ./inp_files/8124.got.cif
#   From: 2010.03.12/outbox.cif.g09.slc.cpg/sg41_5_cif.got.tgz:8124.got - 2010.04.14 01:55:53.
