data_PCOD8185033
_publ_section_title
;
Structure prediction by ZEFSAII (Michael W. Deem and Ramdas Pophale) SiO2 
 PCOD8185033
Probable space group: A B A 2
;
_chemical_formula_sum "Si O2"
_cell_formula_units_Z 64
_cell_length_a 11.558041
_cell_length_b 17.424554
_cell_length_c 15.011827
_cell_angle_alpha 90.000000
_cell_angle_beta 90.000000
_cell_angle_gamma 90.000000
_cell_volume 3023.287526
_symmetry_space_group_name_H-M "A B A 2"
_symmetry_group_IT_number 41
_symmetry_cell_setting 'orthorhombic'
loop_
_space_group_symop_operation_xyz
x,y,z
-x,-y,z
1/2-x,y,1/2+z
1/2+x,-y,1/2+z
x,1/2+y,1/2+z
-x,1/2-y,1/2+z
1/2-x,1/2+y,z
1/2+x,1/2-y,z
loop_
_atom_site_type_symbol
_atom_site_label
_atom_site_fract_x
_atom_site_fract_y
_atom_site_fract_z
Si Si1 0.250802 0.443043 0.321620
Si Si2 0.193685 0.130849 0.017595
Si Si3 0.995650 0.086950 0.286810
Si Si4 0.772921 0.545052 0.529930
Si Si5 0.576331 0.074202 0.171534
Si Si6 0.735157 0.378869 0.319341
Si Si7 0.533329 0.649615 0.107665
Si Si8 0.871468 0.310471 0.155561
O O1 0.362802 0.388973 0.303375
O O2 0.236148 0.439286 0.426045
O O3 0.148262 0.407380 0.261778
O O4 0.259778 0.531734 0.289446
O O5 0.300088 0.172274 0.065964
O O6 0.072706 0.171704 0.042736
O O7 0.191581 0.042321 0.047530
O O8 0.202420 0.139399 0.911499
O O9 0.021833 0.094455 0.182254
O O10 0.096766 0.137889 0.333606
O O11 0.000000 0.000000 0.322203
O O12 0.656106 0.563221 0.584324
O O13 0.872042 0.602462 0.556046
O O14 0.491471 0.144311 0.154260
O O15 0.500000 0.000000 0.189557
O O16 0.793730 0.327939 0.242569
O O17 0.593192 0.722028 0.154417
#
# Coordination Sequence:
#
# PCOD8185033 Si02
#       8
#     8   8   8   8   8   8   8   8
#     4  10  22  39  71 108 129 169 238 288 338 402
#     4  11  24  46  70  99 132 179 233 284 341 412
#     4  10  20  41  70  96 129 172 225 279 336 406
#     4  11  24  42  72 102 131 176 234 289 340 407
#     4  12  23  41  69  97 136 183 222 281 341 407
#     4  10  22  43  71  98 133 177 226 286 345 402
#     4  12  26  43  68  97 138 180 224 285 344 412
#     4  12  27  45  63  98 143 180 226 277 350 417
#
# _framework density 21.16901
#
# number of rings (size 3 to 8) (size 9 to 14) (size 15 to 20)
#    0.000    1.000    5.000    1.125    5.250    0.500 
#    4.500    0.000    0.000    0.000    0.000    0.000 
#    0.000    0.000    0.000    0.000    0.000    0.000 
#
# Total GULP energy -396672.713435 kJ/mol
# GULP energy per Si atom -12396.022295 kJ/mol
# Density = 2.112083 g / cm^3
# Si number density = 21.169010 Si / 1000 Ang^3
#
#
#
# Elastic Constant Matrix: (Units=GPa)
#
#
# Indices 1 2 3 4 5 6 
#
# 1 226.8336 -64.7692 193.1759 0.0000 0.0000 0.0000
# 2 -64.7692 150.2339 -138.8327 0.0000 0.0000 0.0000
# 3 193.1759 -138.8327 371.4604 0.0000 0.0000 0.0000
# 4 0.0000 0.0000 0.0000 30.2591 0.0000 0.0000
# 5 0.0000 0.0000 0.0000 0.0000 29.7344 0.0000
# 6 0.0000 0.0000 0.0000 0.0000 0.0000 21.7805
#
#
#
# Elastic Compliance Matrix: (Units=1/GPa)
#
#
# Indices 1 2 3 4 5 6 
#
# 1 0.007948 -0.000600 -0.004358 0.000000 0.000000 0.000000
# 2 -0.000600 0.010214 0.004130 0.000000 0.000000 0.000000
# 3 -0.004358 0.004130 0.006502 0.000000 0.000000 0.000000
# 4 0.000000 0.000000 0.000000 0.033048 0.000000 0.000000
# 5 0.000000 0.000000 0.000000 0.000000 0.033631 0.000000
# 6 0.000000 0.000000 0.000000 0.000000 0.000000 0.045913
#
#
# Mechanical properties :
#
#
# Convention : Reuss Voigt Hill
#
# Bulk Modulus (GPa) = 43.46667 80.85289 62.15978
# Shear Modulus (GPa) = 34.11065 66.95172 50.53118
#
# Velocity S-wave (km/s) = 4.01852 5.62991 4.89103
# Velocity P-wave (km/s) = 6.48915 8.97430 7.83094
#
# Compressibility (1/GPa) = 0.02300613
#
# Stress axis : x y z
#
# Youngs Moduli (GPa) = 125.81227 97.90864 153.80297
#
# Poissons Ratio (x) = 0.05879 0.67026
# Poissons Ratio (y) = 0.07555 -0.63514
# Poissons Ratio (z) = 0.54828 -0.40432
#
# Static dielectric constant tensor:
#      x y z
#    x 4.251110 0.000000 0.000000 
#    y 0.000000 3.719240 0.000000 
#    z 0.000000 0.000000 1.535710 
# 
# 
# High freq. dielectric constant tensor:
#      x y z
#    x 1.853540 0.000000 0.000000 
#    y 0.000000 1.801450 0.000000 
#    z 0.000000 0.000000 1.835970 
# 
# From -- ./inp_files/8115.got.cif
#   From: 2010.03.12/outbox.cif.g09.slc.cpg/sg41_5_cif.got.tgz:8115.got - 2010.04.14 01:55:53.
