data_PCOD8185660
_publ_section_title
;
Structure prediction by ZEFSAII (Michael W. Deem and Ramdas Pophale) SiO2 
 PCOD8185660
Probable space group: A B A 2
;
_chemical_formula_sum "Si O2"
_cell_formula_units_Z 48
_cell_length_a 13.524970
_cell_length_b 16.903701
_cell_length_c 8.926302
_cell_angle_alpha 90.000000
_cell_angle_beta 90.000000
_cell_angle_gamma 90.000000
_cell_volume 2040.749452
_symmetry_space_group_name_H-M "A B A 2"
_symmetry_group_IT_number 41
_symmetry_cell_setting 'orthorhombic'
loop_
_space_group_symop_operation_xyz
x,y,z
-x,-y,z
1/2-x,y,1/2+z
1/2+x,-y,1/2+z
x,1/2+y,1/2+z
-x,1/2-y,1/2+z
1/2-x,1/2+y,z
1/2+x,1/2-y,z
loop_
_atom_site_type_symbol
_atom_site_label
_atom_site_fract_x
_atom_site_fract_y
_atom_site_fract_z
Si Si1 0.470570 0.172839 0.948450
Si Si2 0.130485 0.091913 0.681849
Si Si3 0.477601 0.153789 0.451728
Si Si4 0.354287 0.933717 0.634701
Si Si5 0.649030 0.568104 0.494298
Si Si6 0.853007 0.394412 0.684494
O O1 0.487234 0.261453 0.888813
O O2 0.567404 0.134578 0.025595
O O3 0.430968 0.116716 0.817103
O O4 0.388483 0.169438 0.079175
O O5 0.050565 0.094323 0.816587
O O6 0.241097 0.104827 0.745728
O O7 0.118359 0.013283 0.579708
O O8 0.559786 0.119290 0.564886
O O9 0.379503 0.169366 0.554642
O O10 0.343319 0.937206 0.814772
O O11 0.252800 0.902462 0.561240
O O12 0.375223 0.024477 0.593192
#
# Coordination Sequence:
#
# PCOD8185660 Si02
#       6
#     8   8   8   8   8   8
#     4  12  25  48  71 111 153 192 236 308 377 440
#     4  11  26  44  76 110 141 199 251 302 363 446
#     4  12  27  46  74 112 149 191 244 301 383 438
#     4  11  26  47  75 107 144 195 248 308 361 438
#     4  11  26  47  75 106 147 192 250 306 364 435
#     4  11  24  48  73 102 148 193 249 301 366 437
#
# _framework density 23.520769999999999
#
# number of rings (size 3 to 8) (size 9 to 14) (size 15 to 20)
#    0.000    0.667    3.333    3.000    9.333    4.000 
#    0.000    0.000    0.000    0.000    0.000    0.000 
#    0.000    0.000    0.000    0.000    0.000    0.000 
#
# Total GULP energy -297332.192048 kJ/mol
# GULP energy per Si atom -12388.841335 kJ/mol
# Density = 2.346724 g / cm^3
# Si number density = 23.520770 Si / 1000 Ang^3
#
#
#
# Elastic Constant Matrix: (Units=GPa)
#
#
# Indices 1 2 3 4 5 6 
#
# 1 134.2605 75.8098 67.2382 0.0000 0.0000 0.0000
# 2 75.8098 103.8874 43.3332 0.0000 0.0000 0.0000
# 3 67.2382 43.3332 135.1283 0.0000 0.0000 0.0000
# 4 0.0000 0.0000 0.0000 29.8637 0.0000 0.0000
# 5 0.0000 0.0000 0.0000 0.0000 52.1950 0.0000
# 6 0.0000 0.0000 0.0000 0.0000 0.0000 24.1018
#
#
#
# Elastic Compliance Matrix: (Units=1/GPa)
#
#
# Indices 1 2 3 4 5 6 
#
# 1 0.014684 -0.008852 -0.004468 0.000000 0.000000 0.000000
# 2 -0.008852 0.016448 -0.000870 0.000000 0.000000 0.000000
# 3 -0.004468 -0.000870 0.009903 0.000000 0.000000 0.000000
# 4 0.000000 0.000000 0.000000 0.033485 0.000000 0.000000
# 5 0.000000 0.000000 0.000000 0.000000 0.019159 0.000000
# 6 0.000000 0.000000 0.000000 0.000000 0.000000 0.041491
#
#
# Mechanical properties :
#
#
# Convention : Reuss Voigt Hill
#
# Bulk Modulus (GPa) = 79.01947 82.89317 80.95632
# Shear Modulus (GPa) = 29.80323 33.69177 31.74750
#
# Velocity S-wave (km/s) = 3.56350 3.78885 3.67790
# Velocity P-wave (km/s) = 7.11336 7.37967 7.24774
#
# Compressibility (1/GPa) = 0.01265511
#
# Stress axis : x y z
#
# Youngs Moduli (GPa) = 68.10246 60.79768 100.98347
#
# Poissons Ratio (x) = 0.53815 0.45119
# Poissons Ratio (y) = 0.60281 0.08787
# Poissons Ratio (z) = 0.30428 0.05290
#
# Static dielectric constant tensor:
#      x y z
#    x 4.467970 0.000000 0.000000 
#    y 0.000000 3.972460 0.000000 
#    z 0.000000 0.000000 4.355150 
# 
# 
# High freq. dielectric constant tensor:
#      x y z
#    x 1.943820 0.000000 0.000000 
#    y 0.000000 1.902520 0.000000 
#    z 0.000000 0.000000 1.950050 
# 
# From -- ./inp_files/2531.got.cif
#   From: 2010.03.12/outbox.cif.g09.slc.cpg/sg41_2_cif.got.tgz:2531.got - 2010.04.14 01:55:53.
