data_PCOD8185508
_publ_section_title
;
Structure prediction by ZEFSAII (Michael W. Deem and Ramdas Pophale) SiO2 
 PCOD8185508
Probable space group: A B A 2
;
_chemical_formula_sum "Si O2"
_cell_formula_units_Z 40
_cell_length_a 17.350367
_cell_length_b 8.173796
_cell_length_c 12.044837
_cell_angle_alpha 90.000000
_cell_angle_beta 90.000000
_cell_angle_gamma 90.000000
_cell_volume 1708.179034
_symmetry_space_group_name_H-M "A B A 2"
_symmetry_group_IT_number 41
_symmetry_cell_setting 'orthorhombic'
loop_
_space_group_symop_operation_xyz
x,y,z
-x,-y,z
1/2-x,y,1/2+z
1/2+x,-y,1/2+z
x,1/2+y,1/2+z
-x,1/2-y,1/2+z
1/2-x,1/2+y,z
1/2+x,1/2-y,z
loop_
_atom_site_type_symbol
_atom_site_label
_atom_site_fract_x
_atom_site_fract_y
_atom_site_fract_z
Si Si1 0.310939 0.262455 0.565580
Si Si2 0.649184 0.105366 0.619902
Si Si3 0.617035 0.714973 0.346787
Si Si4 0.086455 0.955007 0.731532
Si Si5 0.965694 0.179861 0.940033
O O1 0.225681 0.284789 0.612276
O O2 0.313850 0.309699 0.434879
O O3 0.367919 0.384332 0.628369
O O4 0.338575 0.074902 0.571992
O O5 0.622905 0.081623 0.748167
O O6 0.584465 0.209576 0.551048
O O7 0.537593 0.697402 0.418937
O O8 0.627638 0.885348 0.281358
O O9 0.086558 0.816854 0.828856
O O10 0.000000 0.000000 0.692757
O O11 0.000000 0.000000 0.950975
#
# Coordination Sequence:
#
# PCOD8185508 Si02
#       5
#     8   8   8   8   8
#     4  12  26  46  71 106 150 189 240 300 367 432
#     4  12  26  45  75 105 147 191 240 297 368 435
#     4  10  24  46  72 104 137 192 237 298 361 419
#     4   9  21  46  72  99 144 183 237 303 348 418
#     4   9  20  44  74  94 140 181 234 297 346 414
#
# _framework density 23.41675
#
# number of rings (size 3 to 8) (size 9 to 14) (size 15 to 20)
#    0.000    2.000    4.000    1.200    8.400    1.600 
#    3.600    1.000    0.000    0.000    0.000    0.000 
#    0.000    0.000    0.000    0.000    0.000    0.000 
#
# Total GULP energy -247882.873317 kJ/mol
# GULP energy per Si atom -12394.143666 kJ/mol
# Density = 2.336345 g / cm^3
# Si number density = 23.416750 Si / 1000 Ang^3
#
#
#
# Elastic Constant Matrix: (Units=GPa)
#
#
# Indices 1 2 3 4 5 6 
#
# 1 120.1326 18.7156 74.4933 0.0000 0.0000 0.0000
# 2 18.7156 39.4455 26.0100 0.0000 0.0000 0.0000
# 3 74.4933 26.0100 172.9682 0.0000 0.0000 0.0000
# 4 0.0000 0.0000 0.0000 27.1315 0.0000 0.0000
# 5 0.0000 0.0000 0.0000 0.0000 38.9040 0.0000
# 6 0.0000 0.0000 0.0000 0.0000 0.0000 18.7938
#
#
#
# Elastic Compliance Matrix: (Units=1/GPa)
#
#
# Indices 1 2 3 4 5 6 
#
# 1 0.011566 -0.002446 -0.004613 0.000000 0.000000 0.000000
# 2 -0.002446 0.028659 -0.003256 0.000000 0.000000 0.000000
# 3 -0.004613 -0.003256 0.008258 0.000000 0.000000 0.000000
# 4 0.000000 0.000000 0.000000 0.036858 0.000000 0.000000
# 5 0.000000 0.000000 0.000000 0.000000 0.025704 0.000000
# 6 0.000000 0.000000 0.000000 0.000000 0.000000 0.053209
#
#
# Mechanical properties :
#
#
# Convention : Reuss Voigt Hill
#
# Bulk Modulus (GPa) = 35.90382 63.44267 49.67324
# Shear Modulus (GPa) = 25.75085 31.18769 28.46927
#
# Velocity S-wave (km/s) = 3.31973 3.65342 3.49056
# Velocity P-wave (km/s) = 5.48270 6.70435 6.12406
#
# Compressibility (1/GPa) = 0.02785219
#
# Stress axis : x y z
#
# Youngs Moduli (GPa) = 86.46134 34.89311 121.09543
#
# Poissons Ratio (x) = 0.08533 0.55866
# Poissons Ratio (y) = 0.21145 0.39433
# Poissons Ratio (z) = 0.39888 0.11362
#
# Static dielectric constant tensor:
#      x y z
#    x 4.228210 0.000000 0.000000 
#    y 0.000000 3.815810 0.000000 
#    z 0.000000 0.000000 4.701880 
# 
# 
# High freq. dielectric constant tensor:
#      x y z
#    x 1.917560 0.000000 0.000000 
#    y 0.000000 1.896230 0.000000 
#    z 0.000000 0.000000 1.944800 
# 
# From -- ./inp_files/5825.got.cif
#   From: 2010.03.12/outbox.cif.g09.slc.cpg/sg41_3_cif.got.tgz:5825.got - 2010.04.14 01:55:53.
