data_PCOD8185323
_publ_section_title
;
Structure prediction by ZEFSAII (Michael W. Deem and Ramdas Pophale) SiO2 
 PCOD8185323
Probable space group: A B A 2
;
_chemical_formula_sum "Si O2"
_cell_formula_units_Z 48
_cell_length_a 9.123612
_cell_length_b 25.831917
_cell_length_c 8.728264
_cell_angle_alpha 90.000000
_cell_angle_beta 90.000000
_cell_angle_gamma 90.000000
_cell_volume 2057.080645
_symmetry_space_group_name_H-M "A B A 2"
_symmetry_group_IT_number 41
_symmetry_cell_setting 'orthorhombic'
loop_
_space_group_symop_operation_xyz
x,y,z
-x,-y,z
1/2-x,y,1/2+z
1/2+x,-y,1/2+z
x,1/2+y,1/2+z
-x,1/2-y,1/2+z
1/2-x,1/2+y,z
1/2+x,1/2-y,z
loop_
_atom_site_type_symbol
_atom_site_label
_atom_site_fract_x
_atom_site_fract_y
_atom_site_fract_z
Si Si1 0.631686 0.289117 0.015760
Si Si2 0.611163 0.066742 0.011503
Si Si3 0.644040 0.726161 0.220599
Si Si4 0.895443 0.398995 0.417555
Si Si5 0.191657 0.543375 0.108691
Si Si6 0.298410 0.877355 0.293240
O O1 0.493027 0.296408 0.127460
O O2 0.762857 0.262684 0.108540
O O3 0.582794 0.257638 0.865530
O O4 0.687870 0.344914 0.952571
O O5 0.436742 0.060773 0.989549
O O6 0.647527 0.115241 0.120296
O O7 0.684779 0.018727 0.103851
O O8 0.677163 0.080250 0.845453
O O9 0.739980 0.680784 0.296813
O O10 0.843309 0.430850 0.270159
O O11 0.851693 0.437477 0.555813
O O12 0.067236 0.385658 0.412057
#
# Coordination Sequence:
#
# PCOD8185323 Si02
#       6
#     8   8   8   8   8   8
#     4  12  25  43  67  96 133 176 225 284 343 410
#     4  10  22  41  63  91 127 168 210 268 328 397
#     4  12  26  45  67  98 134 177 229 283 345 412
#     4  11  23  41  64  93 127 169 215 269 330 399
#     4  10  23  40  62  93 128 164 214 267 328 397
#     4  11  23  42  65  91 127 169 215 267 332 396
#
# _framework density 23.334039000000001
#
# number of rings (size 3 to 8) (size 9 to 14) (size 15 to 20)
#    0.000    1.000    0.000    7.000    0.000   10.000 
#    0.000    0.000    0.000    0.000    0.000    0.000 
#    0.000    0.000    0.000    0.000    0.000    0.000 
#
# Total GULP energy -297506.135365 kJ/mol
# GULP energy per Si atom -12396.088974 kJ/mol
# Density = 2.328093 g / cm^3
# Si number density = 23.334039 Si / 1000 Ang^3
#
#
#
# Elastic Constant Matrix: (Units=GPa)
#
#
# Indices 1 2 3 4 5 6 
#
# 1 54.2894 16.7282 12.3165 0.0000 0.0000 0.0000
# 2 16.7282 106.0894 16.3172 0.0000 0.0000 0.0000
# 3 12.3165 16.3172 65.2241 0.0000 0.0000 0.0000
# 4 0.0000 0.0000 0.0000 50.6974 0.0000 0.0000
# 5 0.0000 0.0000 0.0000 0.0000 36.7689 0.0000
# 6 0.0000 0.0000 0.0000 0.0000 0.0000 33.6412
#
#
#
# Elastic Compliance Matrix: (Units=1/GPa)
#
#
# Indices 1 2 3 4 5 6 
#
# 1 0.019945 -0.002668 -0.003099 0.000000 0.000000 0.000000
# 2 -0.002668 0.010160 -0.002038 0.000000 0.000000 0.000000
# 3 -0.003099 -0.002038 0.016427 0.000000 0.000000 0.000000
# 4 0.000000 0.000000 0.000000 0.019725 0.000000 0.000000
# 5 0.000000 0.000000 0.000000 0.000000 0.027197 0.000000
# 6 0.000000 0.000000 0.000000 0.000000 0.000000 0.029725
#
#
# Mechanical properties :
#
#
# Convention : Reuss Voigt Hill
#
# Bulk Modulus (GPa) = 32.33949 35.14741 33.74345
# Shear Modulus (GPa) = 33.53532 36.23756 34.88644
#
# Velocity S-wave (km/s) = 3.79513 3.94508 3.87083
# Velocity P-wave (km/s) = 5.75270 5.98723 5.87113
#
# Compressibility (1/GPa) = 0.03092195
#
# Stress axis : x y z
#
# Youngs Moduli (GPa) = 50.13783 98.42327 60.87634
#
# Poissons Ratio (x) = 0.26263 0.18864
# Poissons Ratio (y) = 0.13378 0.12406
# Poissons Ratio (z) = 0.15536 0.20058
#
# Static dielectric constant tensor:
#      x y z
#    x 4.241930 0.000000 0.000000 
#    y 0.000000 4.241740 0.000000 
#    z 0.000000 0.000000 4.063910 
# 
# 
# High freq. dielectric constant tensor:
#      x y z
#    x 1.917320 0.000000 0.000000 
#    y 0.000000 1.933950 0.000000 
#    z 0.000000 0.000000 1.924060 
# 
# From -- ./inp_files/1779.got.cif
#   From: 2010.03.12/outbox.cif.g09.slc.cpg/sg41_1_cif.got.tgz:1779.got - 2010.04.14 01:55:53.
