data_PCOD8185881
_publ_section_title
;
Structure prediction by ZEFSAII (Michael W. Deem and Ramdas Pophale) SiO2 
 PCOD8185881
Probable space group: F M M 2
;
_chemical_formula_sum "Si O2"
_cell_formula_units_Z 80
_cell_length_a 22.575732
_cell_length_b 21.204740
_cell_length_c 8.858241
_cell_angle_alpha 90.000000
_cell_angle_beta 90.000000
_cell_angle_gamma 90.000000
_cell_volume 4240.550937
_symmetry_space_group_name_H-M "F M M 2"
_symmetry_group_IT_number 42
_symmetry_cell_setting 'orthorhombic'
loop_
_space_group_symop_operation_xyz
x,y,z
-x,-y,z
-x,y,z
x,-y,z
x,1/2+y,1/2+z
-x,1/2-y,1/2+z
-x,1/2+y,1/2+z
x,1/2-y,1/2+z
1/2+x,y,1/2+z
1/2-x,-y,1/2+z
1/2-x,y,1/2+z
1/2+x,-y,1/2+z
1/2+x,1/2+y,z
1/2-x,1/2-y,z
1/2-x,1/2+y,z
1/2+x,1/2-y,z
loop_
_atom_site_type_symbol
_atom_site_label
_atom_site_fract_x
_atom_site_fract_y
_atom_site_fract_z
Si Si1 0.826116 0.424617 0.163140
Si Si2 0.500000 0.838214 0.765967
Si Si3 0.099563 0.928447 0.164391
Si Si4 0.500000 0.776173 0.455927
Si Si5 0.434094 0.614520 0.842551
Si Si6 0.286134 0.426280 0.339665
O O1 0.832172 0.500000 0.161946
O O2 0.889699 0.394173 0.203023
O O3 0.777450 0.400333 0.284348
O O4 0.806798 0.397519 0.999681
O O5 0.556989 0.882373 0.757153
O O6 0.500000 0.784919 0.635795
O O7 0.500000 0.798406 0.921430
O O8 0.166485 0.910752 0.209021
O O9 0.085061 0.000000 0.213941
O O10 0.092183 0.923108 0.985219
O O11 0.558458 0.811440 0.387295
O O12 0.500000 0.587017 0.803814
O O13 0.278970 0.500000 0.363668
#
# Coordination Sequence:
#
# PCOD8185881 Si02
#       6
#    16   8  16   8  16  16
#     4  10  18  31  49  72 105 141 175 213 260 311
#     4  10  19  34  54  72 105 138 176 216 254 310
#     4  10  18  32  53  80 106 133 173 215 266 312
#     4   8  20  34  48  74  98 140 176 208 258 308
#     4   9  19  33  50  73 104 141 173 214 254 307
#     4   9  19  31  47  74 104 137 172 210 261 318
#
# _framework density 18.865473000000001
#
# number of rings (size 3 to 8) (size 9 to 14) (size 15 to 20)
#    0.600    2.000    1.000    2.100    0.000    6.000 
#    1.800    0.000    0.000    1.200    0.000    8.400 
#    0.000    0.000    0.000    0.000    0.000    0.000 
#
# Total GULP energy -247864.980978 kJ/mol
# GULP energy per Si atom -12393.249049 kJ/mol
# Density = 1.882253 g / cm^3
# Si number density = 18.865473 Si / 1000 Ang^3
#
#
#
# Elastic Constant Matrix: (Units=GPa)
#
#
# Indices 1 2 3 4 5 6 
#
# 1 130.2904 14.9238 57.0821 -0.0003 0.0000 0.0003
# 2 14.9238 55.4055 7.9488 0.0006 -0.0003 -0.0006
# 3 57.0821 7.9488 83.1353 0.0007 -0.0004 -0.0008
# 4 -0.0003 0.0006 0.0007 25.3535 -0.0002 -0.0008
# 5 0.0000 -0.0003 -0.0004 -0.0002 34.0126 0.0002
# 6 0.0003 -0.0006 -0.0008 -0.0008 0.0002 4.0413
#
#
#
# Elastic Compliance Matrix: (Units=1/GPa)
#
#
# Indices 1 2 3 4 5 6 
#
# 1 0.011179 -0.001936 -0.007490 0.000000 0.000000 -0.000003
# 2 -0.001936 0.018635 -0.000452 0.000000 0.000000 0.000003
# 3 -0.007490 -0.000452 0.017215 -0.000001 0.000000 0.000004
# 4 0.000000 0.000000 -0.000001 0.039442 0.000000 0.000008
# 5 0.000000 0.000000 0.000000 0.000000 0.029401 -0.000001
# 6 -0.000003 0.000003 0.000004 0.000008 -0.000001 0.247443
#
#
# Mechanical properties :
#
#
# Convention : Reuss Voigt Hill
#
# Bulk Modulus (GPa) = 36.66923 47.63782 42.15353
# Shear Modulus (GPa) = 12.74980 25.27326 19.01153
#
# Velocity S-wave (km/s) = 2.60249 3.66410 3.17794
# Velocity P-wave (km/s) = 5.33948 6.57320 5.98820
#
# Compressibility (1/GPa) = 0.02727082
#
# Stress axis : x y z
#
# Youngs Moduli (GPa) = 89.45715 53.66192 58.08975
#
# Poissons Ratio (x) = 0.10391 0.43511
# Poissons Ratio (y) = 0.17323 0.02627
# Poissons Ratio (z) = 0.67005 0.02427
#
# Static dielectric constant tensor:
#      x y z
#    x 3.511370 0.000000 0.000000 
#    y 0.000000 2.973860 0.000000 
#    z 0.000000 0.000000 3.468610 
# 
# 
# High freq. dielectric constant tensor:
#      x y z
#    x 1.736500 0.000000 0.000000 
#    y 0.000000 1.680880 0.000000 
#    z 0.000000 0.000000 1.732770 
# 
# From -- ./inp_files/4131.got.cif
#   From: 2010.03.12/outbox.cif.g09.slc.cpg/sg42_3_cif.got.tgz:4131.got - 2010.04.14 02:04:31.
