data_PCOD8185424
_publ_section_title
;
Structure prediction by ZEFSAII (Michael W. Deem and Ramdas Pophale) SiO2 
 PCOD8185424
Probable space group: A B A 2
;
_chemical_formula_sum "Si O2"
_cell_formula_units_Z 60
_cell_length_a 8.832771
_cell_length_b 12.979353
_cell_length_c 23.829129
_cell_angle_alpha 90.000000
_cell_angle_beta 90.000000
_cell_angle_gamma 90.000000
_cell_volume 2731.858391
_symmetry_space_group_name_H-M "A B A 2"
_symmetry_group_IT_number 41
_symmetry_cell_setting 'orthorhombic'
loop_
_space_group_symop_operation_xyz
x,y,z
-x,-y,z
1/2-x,y,1/2+z
1/2+x,-y,1/2+z
x,1/2+y,1/2+z
-x,1/2-y,1/2+z
1/2-x,1/2+y,z
1/2+x,1/2-y,z
loop_
_atom_site_type_symbol
_atom_site_label
_atom_site_fract_x
_atom_site_fract_y
_atom_site_fract_z
Si Si1 0.228408 0.367938 0.301270
Si Si2 0.423617 0.151772 0.820823
Si Si3 0.000000 0.500000 0.371985
Si Si4 0.274383 0.898796 0.012740
Si Si5 0.345949 0.551975 0.610701
Si Si6 0.260520 0.079206 0.930354
Si Si7 0.909322 0.791191 0.522456
Si Si8 0.834851 0.984874 0.216742
O O1 0.131081 0.265300 0.305195
O O2 0.395298 0.349229 0.325773
O O3 0.250153 0.409676 0.237082
O O4 0.135554 0.452474 0.336008
O O5 0.370924 0.105097 0.879323
O O6 0.352911 0.081880 0.772582
O O7 0.915615 0.414024 0.410556
O O8 0.417566 0.821625 0.011071
O O9 0.120469 0.831489 0.019105
O O10 0.270631 0.975750 0.065359
O O11 0.284885 0.963329 0.954991
O O12 0.500000 0.500000 0.630138
O O13 0.366641 0.664855 0.583857
O O14 0.254192 0.571027 0.667408
O O15 0.292405 0.161643 0.977945
O O16 0.000000 0.000000 0.190329
#
# Coordination Sequence:
#
# PCOD8185424 Si02
#       8
#     8   8   4   8   8   8   8   8
#     4  11  26  44  67 101 134 179 222 271 338 405
#     4  11  25  44  68  98 137 176 222 274 334 408
#     4  12  26  40  64  98 130 180 216 266 336 392
#     4  10  24  43  65  94 128 175 220 274 333 390
#     4   9  21  43  65  91 127 174 216 271 332 387
#     4  11  25  41  64  94 134 171 217 270 328 400
#     4  10  24  41  64  91 128 172 217 268 330 392
#     4  10  23  42  68  96 132 171 216 277 331 389
#
# _framework density 21.963073000000001
#
# number of rings (size 3 to 8) (size 9 to 14) (size 15 to 20)
#    0.000    1.600    1.333    2.000    8.400    2.133 
#    2.400    5.333    0.000    0.000    0.000    0.000 
#    0.000    0.000    0.000    0.000    0.000    0.000 
#
# Total GULP energy -371820.946243 kJ/mol
# GULP energy per Si atom -12394.031541 kJ/mol
# Density = 2.191308 g / cm^3
# Si number density = 21.963073 Si / 1000 Ang^3
#
#
#
# Elastic Constant Matrix: (Units=GPa)
#
#
# Indices 1 2 3 4 5 6 
#
# 1 102.6178 22.3950 46.9097 0.0000 0.0000 0.0000
# 2 22.3950 87.2401 14.9639 0.0000 0.0000 0.0000
# 3 46.9097 14.9639 100.1753 0.0000 0.0000 0.0000
# 4 0.0000 0.0000 0.0000 3.7436 0.0000 0.0000
# 5 0.0000 0.0000 0.0000 0.0000 12.6803 0.0000
# 6 0.0000 0.0000 0.0000 0.0000 0.0000 41.0545
#
#
#
# Elastic Compliance Matrix: (Units=1/GPa)
#
#
# Indices 1 2 3 4 5 6 
#
# 1 0.012843 -0.002325 -0.005667 0.000000 0.000000 0.000000
# 2 -0.002325 0.012185 -0.000732 0.000000 0.000000 0.000000
# 3 -0.005667 -0.000732 0.012745 0.000000 0.000000 0.000000
# 4 0.000000 0.000000 0.000000 0.267123 0.000000 0.000000
# 5 0.000000 0.000000 0.000000 0.000000 0.078862 0.000000
# 6 0.000000 0.000000 0.000000 0.000000 0.000000 0.024358
#
#
# Mechanical properties :
#
#
# Convention : Reuss Voigt Hill
#
# Bulk Modulus (GPa) = 49.19568 50.95226 50.07397
# Shear Modulus (GPa) = 11.56503 25.21333 18.38918
#
# Velocity S-wave (km/s) = 2.29719 3.39187 2.89671
# Velocity P-wave (km/s) = 5.42992 6.21202 5.83409
#
# Compressibility (1/GPa) = 0.02032699
#
# Stress axis : x y z
#
# Youngs Moduli (GPa) = 77.86568 82.06896 78.46020
#
# Poissons Ratio (x) = 0.19079 0.44460
# Poissons Ratio (y) = 0.18102 0.05739
# Poissons Ratio (z) = 0.44124 0.06003
#
# Static dielectric constant tensor:
#      x y z
#    x 4.220860 0.000000 0.000000 
#    y 0.000000 4.102510 0.000000 
#    z 0.000000 0.000000 3.887840 
# 
# 
# High freq. dielectric constant tensor:
#      x y z
#    x 1.874640 0.000000 0.000000 
#    y 0.000000 1.857630 0.000000 
#    z 0.000000 0.000000 1.862140 
# 
# From -- ./inp_files/12005.got.cif
#   From: 2010.03.12/outbox.cif.g09.slc.cpg/sg41_7_cif.got.tgz:12005.got - 2010.04.14 01:55:53.
