data_PCOD8185926
_publ_section_title
;
Structure prediction by ZEFSAII (Michael W. Deem and Ramdas Pophale) SiO2 
 PCOD8185926
Probable space group: F M M 2
;
_chemical_formula_sum "Si O2"
_cell_formula_units_Z 112
_cell_length_a 19.360729
_cell_length_b 22.936320
_cell_length_c 13.099151
_cell_angle_alpha 90.000000
_cell_angle_beta 90.000000
_cell_angle_gamma 90.000000
_cell_volume 5816.859762
_symmetry_space_group_name_H-M "F M M 2"
_symmetry_group_IT_number 42
_symmetry_cell_setting 'orthorhombic'
loop_
_space_group_symop_operation_xyz
x,y,z
-x,-y,z
-x,y,z
x,-y,z
x,1/2+y,1/2+z
-x,1/2-y,1/2+z
-x,1/2+y,1/2+z
x,1/2-y,1/2+z
1/2+x,y,1/2+z
1/2-x,-y,1/2+z
1/2-x,y,1/2+z
1/2+x,-y,1/2+z
1/2+x,1/2+y,z
1/2-x,1/2-y,z
1/2-x,1/2+y,z
1/2+x,1/2-y,z
loop_
_atom_site_type_symbol
_atom_site_label
_atom_site_fract_x
_atom_site_fract_y
_atom_site_fract_z
Si Si1 0.155331 0.567770 0.925390
Si Si2 0.423099 0.825036 0.623398
Si Si3 0.421638 0.173893 0.859968
Si Si4 0.290039 0.566382 0.643317
Si Si5 0.825633 0.732217 0.463183
Si Si6 0.699154 0.614456 0.856000
Si Si7 0.143159 0.433659 0.552172
O O1 0.147313 0.500000 0.892866
O O2 0.090712 0.605651 0.886276
O O3 0.221986 0.595439 0.871397
O O4 0.158561 0.573483 0.047890
O O5 0.500000 0.804886 0.591901
O O6 0.410004 0.813936 0.741507
O O7 0.366179 0.789745 0.561670
O O8 0.417113 0.893808 0.597794
O O9 0.500000 0.189639 0.891773
O O10 0.366754 0.213133 0.919203
O O11 0.287040 0.500000 0.680886
O O12 0.318898 0.604697 0.736972
O O13 0.214201 0.586185 0.606792
O O14 0.750000 0.750000 0.502130
O O15 0.816088 0.682204 0.378075
O O16 0.651241 0.575337 0.930121
O O17 0.123800 0.500000 0.575011
#
# Coordination Sequence:
#
# PCOD8185926 Si02
#       7
#    16  16  16  16  16  16  16
#     4  10  20  35  56  87 120 152 191 235 292 351
#     4  10  23  40  58  82 116 156 193 238 293 354
#     4  11  24  42  60  84 119 156 195 241 296 352
#     4   9  17  30  54  86 120 154 187 235 292 347
#     4  11  23  40  60  87 113 152 200 248 294 341
#     4  10  18  33  55  84 118 149 192 238 294 339
#     4   9  18  31  52  83 117 151 188 236 285 341
#
# _framework density 19.254376000000001
#
# number of rings (size 3 to 8) (size 9 to 14) (size 15 to 20)
#    0.000    2.000    1.429    3.429    0.000    4.000 
#    0.000    1.429    0.000    3.429    0.000    4.000 
#    0.000    0.000    0.000    0.000    0.000    0.000 
#
# Total GULP energy -347188.342059 kJ/mol
# GULP energy per Si atom -12399.583645 kJ/mol
# Density = 1.921055 g / cm^3
# Si number density = 19.254376 Si / 1000 Ang^3
#
#
#
# Elastic Constant Matrix: (Units=GPa)
#
#
# Indices 1 2 3 4 5 6 
#
# 1 109.0412 51.4692 48.0374 0.0000 0.0000 0.0000
# 2 51.4692 107.6995 30.0099 0.0000 0.0000 0.0000
# 3 48.0374 30.0099 73.0336 0.0000 0.0000 0.0000
# 4 0.0000 0.0000 0.0000 23.9863 0.0000 0.0000
# 5 0.0000 0.0000 0.0000 0.0000 22.4076 0.0000
# 6 0.0000 0.0000 0.0000 0.0000 0.0000 19.8813
#
#
#
# Elastic Compliance Matrix: (Units=1/GPa)
#
#
# Indices 1 2 3 4 5 6 
#
# 1 0.014950 -0.004974 -0.007790 0.000000 0.000000 0.000000
# 2 -0.004974 0.012141 -0.001717 0.000000 0.000000 0.000000
# 3 -0.007790 -0.001717 0.019521 0.000000 0.000000 0.000000
# 4 0.000000 0.000000 0.000000 0.041691 0.000000 0.000000
# 5 0.000000 0.000000 0.000000 0.000000 0.044628 0.000000
# 6 0.000000 0.000000 0.000000 0.000000 0.000000 0.050298
#
#
# Mechanical properties :
#
#
# Convention : Reuss Voigt Hill
#
# Bulk Modulus (GPa) = 56.65403 60.97858 58.81631
# Shear Modulus (GPa) = 22.92798 23.93890 23.43344
#
# Velocity S-wave (km/s) = 3.45453 3.52987 3.49240
# Velocity P-wave (km/s) = 6.73792 6.95356 6.84659
#
# Compressibility (1/GPa) = 0.01765099
#
# Stress axis : x y z
#
# Youngs Moduli (GPa) = 66.88782 82.36785 51.22594
#
# Poissons Ratio (x) = 0.40971 0.39903
# Poissons Ratio (y) = 0.33271 0.08795
# Poissons Ratio (z) = 0.52103 0.14142
#
# Static dielectric constant tensor:
#      x y z
#    x 3.335270 0.000000 0.000000 
#    y 0.000000 3.606050 0.000000 
#    z 0.000000 0.000000 3.497760 
# 
# 
# High freq. dielectric constant tensor:
#      x y z
#    x 1.722920 0.000000 0.000000 
#    y 0.000000 1.754660 0.000000 
#    z 0.000000 0.000000 1.752200 
# 
# From -- ./inp_files/9665.got.cif
#   From: 2010.03.12/outbox.cif.g09.slc.cpg/sg42_5_cif.got.tgz:9665.got - 2010.04.14 02:04:31.
