data_PCOD8185761
_publ_section_title
;
Structure prediction by ZEFSAII (Michael W. Deem and Ramdas Pophale) SiO2 
 PCOD8185761
Probable space group: F M M 2
;
_chemical_formula_sum "Si O2"
_cell_formula_units_Z 96
_cell_length_a 8.872002
_cell_length_b 31.173631
_cell_length_c 19.799477
_cell_angle_alpha 90.000000
_cell_angle_beta 90.000000
_cell_angle_gamma 90.000000
_cell_volume 5475.991181
_symmetry_space_group_name_H-M "F M M 2"
_symmetry_group_IT_number 42
_symmetry_cell_setting 'orthorhombic'
loop_
_space_group_symop_operation_xyz
x,y,z
-x,-y,z
-x,y,z
x,-y,z
x,1/2+y,1/2+z
-x,1/2-y,1/2+z
-x,1/2+y,1/2+z
x,1/2-y,1/2+z
1/2+x,y,1/2+z
1/2-x,-y,1/2+z
1/2-x,y,1/2+z
1/2+x,-y,1/2+z
1/2+x,1/2+y,z
1/2-x,1/2-y,z
1/2-x,1/2+y,z
1/2+x,1/2-y,z
loop_
_atom_site_type_symbol
_atom_site_label
_atom_site_fract_x
_atom_site_fract_y
_atom_site_fract_z
Si Si1 0.321547 0.792290 0.841980
Si Si2 0.172499 0.615093 0.494160
Si Si3 0.321450 0.378643 0.838842
Si Si4 0.324263 0.790249 0.487787
Si Si5 0.178004 0.047715 0.590299
Si Si6 0.179118 0.952371 0.740959
O O1 0.500000 0.790911 0.834914
O O2 0.250000 0.750000 0.805985
O O3 0.257320 0.835924 0.809021
O O4 0.270076 0.792350 0.919306
O O5 0.225351 0.612979 0.416363
O O6 0.194975 0.663543 0.523893
O O7 0.268814 0.582375 0.536976
O O8 0.000000 0.600915 0.499923
O O9 0.500000 0.372387 0.832863
O O10 0.258382 0.418159 0.794658
O O11 0.500000 0.781656 0.472279
O O12 0.250000 0.750000 0.529676
O O13 0.236923 0.059308 0.665578
O O14 0.000000 0.048018 0.590456
O O15 0.236027 0.000000 0.570242
O O16 0.000000 0.951746 0.742309
O O17 0.236765 0.000000 0.761087
#
# Coordination Sequence:
#
# PCOD8185761 Si02
#       6
#    16  16  16  16  16  16
#     4  10  17  26  42  65  94 124 153 185 225 272
#     4   9  18  29  44  70  98 121 148 186 230 272
#     4   9  17  30  48  70  94 119 153 194 230 267
#     4   9  16  27  43  65  92 121 154 188 224 269
#     4   9  18  32  49  68  90 120 157 191 226 273
#     4   8  15  30  51  70  88 117 157 194 227 269
#
# _framework density 17.531072000000002
#
# number of rings (size 3 to 8) (size 9 to 14) (size 15 to 20)
#    0.000    3.000    0.000    5.000    0.000    4.333 
#    0.000    2.500    0.000    2.500    0.000    2.333 
#    0.000    0.000    0.000    0.000    0.000    0.000 
#
# Total GULP energy -297362.178040 kJ/mol
# GULP energy per Si atom -12390.090752 kJ/mol
# Density = 1.749117 g / cm^3
# Si number density = 17.531072 Si / 1000 Ang^3
#
#
#
# Elastic Constant Matrix: (Units=GPa)
#
#
# Indices 1 2 3 4 5 6 
#
# 1 61.8398 49.5803 23.9540 0.0000 0.0000 0.0000
# 2 49.5803 175.7674 69.4978 0.0000 0.0000 0.0000
# 3 23.9540 69.4978 61.0860 0.0000 0.0000 0.0000
# 4 0.0000 0.0000 0.0000 1.9470 0.0000 0.0000
# 5 0.0000 0.0000 0.0000 0.0000 13.5521 0.0000
# 6 0.0000 0.0000 0.0000 0.0000 0.0000 29.7637
#
#
#
# Elastic Compliance Matrix: (Units=1/GPa)
#
#
# Indices 1 2 3 4 5 6 
#
# 1 0.021146 -0.004882 -0.002737 0.000000 0.000000 0.000000
# 2 -0.004882 0.011469 -0.011133 0.000000 0.000000 0.000000
# 3 -0.002737 -0.011133 0.030110 0.000000 0.000000 0.000000
# 4 0.000000 0.000000 0.000000 0.513600 0.000000 0.000000
# 5 0.000000 0.000000 0.000000 0.000000 0.073789 0.000000
# 6 0.000000 0.000000 0.000000 0.000000 0.000000 0.033598
#
#
# Mechanical properties :
#
#
# Convention : Reuss Voigt Hill
#
# Bulk Modulus (GPa) = 39.65341 64.97305 52.31323
# Shear Modulus (GPa) = 6.85285 19.42996 13.14140
#
# Velocity S-wave (km/s) = 1.97926 3.33275 2.74086
# Velocity P-wave (km/s) = 5.28122 7.20775 6.31835
#
# Compressibility (1/GPa) = 0.02521851
#
# Stress axis : x y z
#
# Youngs Moduli (GPa) = 47.29109 87.19394 33.21135
#
# Poissons Ratio (x) = 0.42572 0.09090
# Poissons Ratio (y) = 0.23090 0.36975
# Poissons Ratio (z) = 0.12944 0.97076
#
# Static dielectric constant tensor:
#      x y z
#    x 3.072860 0.000000 0.000000 
#    y 0.000000 4.094290 0.000000 
#    z 0.000000 0.000000 2.967640 
# 
# 
# High freq. dielectric constant tensor:
#      x y z
#    x 1.661740 0.000000 0.000000 
#    y 0.000000 1.702910 0.000000 
#    z 0.000000 0.000000 1.625600 
# 
# From -- ./inp_files/28172.got.cif
#   From: 2010.03.12/outbox.cif.g09.slc.cpg/sg42_15_cif.got.tgz:28172.got - 2010.04.14 02:04:31.
