data_PCOD8185517
_publ_section_title
;
Structure prediction by ZEFSAII (Michael W. Deem and Ramdas Pophale) SiO2 
 PCOD8185517
Probable space group: A B A 2
;
_chemical_formula_sum "Si O2"
_cell_formula_units_Z 48
_cell_length_a 22.888859
_cell_length_b 8.602496
_cell_length_c 11.453363
_cell_angle_alpha 90.000000
_cell_angle_beta 90.000000
_cell_angle_gamma 90.000000
_cell_volume 2255.182270
_symmetry_space_group_name_H-M "A B A 2"
_symmetry_group_IT_number 41
_symmetry_cell_setting 'orthorhombic'
loop_
_space_group_symop_operation_xyz
x,y,z
-x,-y,z
1/2-x,y,1/2+z
1/2+x,-y,1/2+z
x,1/2+y,1/2+z
-x,1/2-y,1/2+z
1/2-x,1/2+y,z
1/2+x,1/2-y,z
loop_
_atom_site_type_symbol
_atom_site_label
_atom_site_fract_x
_atom_site_fract_y
_atom_site_fract_z
Si Si1 0.176335 0.249571 0.257230
Si Si2 0.865847 0.091447 0.980557
Si Si3 0.613547 0.265734 0.853122
Si Si4 0.049896 0.211821 0.628942
Si Si5 0.581916 0.630358 0.586016
Si Si6 0.206163 0.908912 0.207637
O O1 0.156749 0.285758 0.387569
O O2 0.121945 0.265901 0.169941
O O3 0.226139 0.364254 0.209196
O O4 0.198664 0.074689 0.267652
O O5 0.881155 0.933730 0.912779
O O6 0.923493 0.155191 0.045768
O O7 0.814138 0.072174 0.073998
O O8 0.558060 0.250125 0.766117
O O9 0.671087 0.223584 0.778518
O O10 0.603405 0.140379 0.953505
O O11 0.982566 0.199955 0.598076
O O12 0.084901 0.050536 0.615359
#
# Coordination Sequence:
#
# PCOD8185517 Si02
#       6
#     8   8   8   8   8   8
#     4  12  25  44  71  98 136 181 226 285 344 406
#     4  11  24  45  72  97 136 182 225 283 341 406
#     4  11  23  47  67 100 138 175 230 281 340 411
#     4  10  25  44  68 101 136 183 228 281 344 412
#     4  11  24  43  69 100 138 179 227 285 343 403
#     4  11  27  44  67 103 133 181 231 280 348 411
#
# _framework density 21.284309
#
# number of rings (size 3 to 8) (size 9 to 14) (size 15 to 20)
#    0.000    1.000    3.333    2.000    7.000    2.000 
#    0.000    0.000    0.000    0.000    0.000    0.000 
#    0.000    0.000    0.000    0.000    0.000    0.000 
#
# Total GULP energy -297710.786894 kJ/mol
# GULP energy per Si atom -12404.616121 kJ/mol
# Density = 2.123587 g / cm^3
# Si number density = 21.284309 Si / 1000 Ang^3
#
#
#
# Elastic Constant Matrix: (Units=GPa)
#
#
# Indices 1 2 3 4 5 6 
#
# 1 87.7363 25.5504 37.4245 0.0000 0.0000 0.0000
# 2 25.5504 106.3371 27.1061 0.0000 0.0000 0.0000
# 3 37.4245 27.1061 139.8528 0.0000 0.0000 0.0000
# 4 0.0000 0.0000 0.0000 43.1559 0.0000 0.0000
# 5 0.0000 0.0000 0.0000 0.0000 15.5900 0.0000
# 6 0.0000 0.0000 0.0000 0.0000 0.0000 28.0477
#
#
#
# Elastic Compliance Matrix: (Units=1/GPa)
#
#
# Indices 1 2 3 4 5 6 
#
# 1 0.013439 -0.002433 -0.003125 0.000000 0.000000 0.000000
# 2 -0.002433 0.010333 -0.001352 0.000000 0.000000 0.000000
# 3 -0.003125 -0.001352 0.008249 0.000000 0.000000 0.000000
# 4 0.000000 0.000000 0.000000 0.023172 0.000000 0.000000
# 5 0.000000 0.000000 0.000000 0.000000 0.064144 0.000000
# 6 0.000000 0.000000 0.000000 0.000000 0.000000 0.035654
#
#
# Mechanical properties :
#
#
# Convention : Reuss Voigt Hill
#
# Bulk Modulus (GPa) = 54.93771 57.12092 56.02932
# Shear Modulus (GPa) = 28.59170 33.61505 31.10338
#
# Velocity S-wave (km/s) = 3.66911 3.97840 3.82688
# Velocity P-wave (km/s) = 6.61946 6.92812 6.77555
#
# Compressibility (1/GPa) = 0.01820243
#
# Stress axis : x y z
#
# Youngs Moduli (GPa) = 74.40969 96.77607 121.23302
#
# Poissons Ratio (x) = 0.23542 0.37883
# Poissons Ratio (y) = 0.18101 0.16388
# Poissons Ratio (z) = 0.23252 0.13082
#
# Static dielectric constant tensor:
#      x y z
#    x 3.768210 0.000000 0.000000 
#    y 0.000000 3.867410 0.000000 
#    z 0.000000 0.000000 4.049590 
# 
# 
# High freq. dielectric constant tensor:
#      x y z
#    x 1.832190 0.000000 0.000000 
#    y 0.000000 1.844340 0.000000 
#    z 0.000000 0.000000 1.853300 
# 
# From -- ./inp_files/6382.got.cif
#   From: 2010.03.12/outbox.cif.g09.slc.cpg/sg41_4_cif.got.tgz:6382.got - 2010.04.14 01:55:53.
