data_PCOD8185127
_publ_section_title
;
Structure prediction by ZEFSAII (Michael W. Deem and Ramdas Pophale) SiO2 
 PCOD8185127
Probable space group: A B A 2
;
_chemical_formula_sum "Si O2"
_cell_formula_units_Z 48
_cell_length_a 15.262272
_cell_length_b 12.683813
_cell_length_c 12.645234
_cell_angle_alpha 90.000000
_cell_angle_beta 90.000000
_cell_angle_gamma 90.000000
_cell_volume 2447.912500
_symmetry_space_group_name_H-M "A B A 2"
_symmetry_group_IT_number 41
_symmetry_cell_setting 'orthorhombic'
loop_
_space_group_symop_operation_xyz
x,y,z
-x,-y,z
1/2-x,y,1/2+z
1/2+x,-y,1/2+z
x,1/2+y,1/2+z
-x,1/2-y,1/2+z
1/2-x,1/2+y,z
1/2+x,1/2-y,z
loop_
_atom_site_type_symbol
_atom_site_label
_atom_site_fract_x
_atom_site_fract_y
_atom_site_fract_z
Si Si1 0.674349 0.737360 0.946100
Si Si2 0.500000 0.000000 0.679254
Si Si3 0.501418 0.328286 0.353560
Si Si4 0.655333 0.831037 0.351069
Si Si5 0.000000 0.000000 0.524332
Si Si6 0.170298 0.091532 0.619585
Si Si7 0.160011 0.994547 0.023715
O O1 0.594438 0.774628 0.873641
O O2 0.763336 0.759150 0.883603
O O3 0.671995 0.797233 0.058349
O O4 0.668956 0.613582 0.961260
O O5 0.487591 0.104323 0.748009
O O6 0.585347 0.015649 0.609889
O O7 0.429609 0.239693 0.333757
O O8 0.472129 0.401448 0.451347
O O9 0.680033 0.890172 0.243534
O O10 0.633683 0.915694 0.440902
O O11 0.919044 0.971444 0.598631
O O12 0.248982 0.018055 0.581266
#
# Coordination Sequence:
#
# PCOD8185127 Si02
#       7
#     8   4   8   8   4   8   8
#     4  10  22  40  60  84 117 153 194 241 287 344
#     4  11  22  39  62  86 118 157 194 237 292 346
#     4  10  21  39  61  84 115 155 195 237 288 345
#     4  11  23  38  59  88 118 151 193 241 293 345
#     4   9  20  39  60  82 112 153 196 237 284 344
#     4  10  22  39  59  85 116 153 193 238 294 345
#     4  11  23  39  60  88 119 152 196 243 288 345
#
# _framework density 19.608544999999999
#
# number of rings (size 3 to 8) (size 9 to 14) (size 15 to 20)
#    0.000    1.667    0.000    4.000    0.000    8.667 
#    0.000    0.000    0.000    0.000    0.000    0.000 
#    0.000    0.000    0.000    0.000    0.000    0.000 
#
# Total GULP energy -297758.050305 kJ/mol
# GULP energy per Si atom -12406.585429 kJ/mol
# Density = 1.956392 g / cm^3
# Si number density = 19.608545 Si / 1000 Ang^3
#
#
#
# Elastic Constant Matrix: (Units=GPa)
#
#
# Indices 1 2 3 4 5 6 
#
# 1 103.7355 43.0023 35.2821 0.0000 0.0000 0.0000
# 2 43.0023 117.4585 33.6106 0.0000 0.0000 0.0000
# 3 35.2821 33.6106 101.9541 0.0000 0.0000 0.0000
# 4 0.0000 0.0000 0.0000 25.3127 0.0000 0.0000
# 5 0.0000 0.0000 0.0000 0.0000 55.9173 0.0000
# 6 0.0000 0.0000 0.0000 0.0000 0.0000 35.9538
#
#
#
# Elastic Compliance Matrix: (Units=1/GPa)
#
#
# Indices 1 2 3 4 5 6 
#
# 1 0.012154 -0.003584 -0.003025 0.000000 0.000000 0.000000
# 2 -0.003584 0.010457 -0.002207 0.000000 0.000000 0.000000
# 3 -0.003025 -0.002207 0.011583 0.000000 0.000000 0.000000
# 4 0.000000 0.000000 0.000000 0.039506 0.000000 0.000000
# 5 0.000000 0.000000 0.000000 0.000000 0.017884 0.000000
# 6 0.000000 0.000000 0.000000 0.000000 0.000000 0.027813
#
#
# Mechanical properties :
#
#
# Convention : Reuss Voigt Hill
#
# Bulk Modulus (GPa) = 60.37688 60.77089 60.57388
# Shear Modulus (GPa) = 35.07540 37.52030 36.29785
#
# Velocity S-wave (km/s) = 4.23399 4.37906 4.30714
# Velocity P-wave (km/s) = 7.40001 7.52513 7.46283
#
# Compressibility (1/GPa) = 0.01656263
#
# Stress axis : x y z
#
# Youngs Moduli (GPa) = 82.27445 95.62565 86.33656
#
# Poissons Ratio (x) = 0.34276 0.26113
# Poissons Ratio (y) = 0.29490 0.19055
# Poissons Ratio (z) = 0.24884 0.21105
#
# Static dielectric constant tensor:
#      x y z
#    x 3.593860 0.000000 0.000000 
#    y 0.000000 3.713770 0.000000 
#    z 0.000000 0.000000 3.592480 
# 
# 
# High freq. dielectric constant tensor:
#      x y z
#    x 1.780370 0.000000 0.000000 
#    y 0.000000 1.772950 0.000000 
#    z 0.000000 0.000000 1.769060 
# 
# From -- ./inp_files/5554.got.cif
#   From: 2010.03.12/outbox.cif.g09.slc.cpg/sg41_3_cif.got.tgz:5554.got - 2010.04.14 01:55:53.
