data_PCOD8185418
_publ_section_title
;
Structure prediction by ZEFSAII (Michael W. Deem and Ramdas Pophale) SiO2 
 PCOD8185418
Probable space group: A B A 2
;
_chemical_formula_sum "Si O2"
_cell_formula_units_Z 64
_cell_length_a 11.220258
_cell_length_b 28.398903
_cell_length_c 9.065922
_cell_angle_alpha 90.000000
_cell_angle_beta 90.000000
_cell_angle_gamma 90.000000
_cell_volume 2888.792752
_symmetry_space_group_name_H-M "A B A 2"
_symmetry_group_IT_number 41
_symmetry_cell_setting 'orthorhombic'
loop_
_space_group_symop_operation_xyz
x,y,z
-x,-y,z
1/2-x,y,1/2+z
1/2+x,-y,1/2+z
x,1/2+y,1/2+z
-x,1/2-y,1/2+z
1/2-x,1/2+y,z
1/2+x,1/2-y,z
loop_
_atom_site_type_symbol
_atom_site_label
_atom_site_fract_x
_atom_site_fract_y
_atom_site_fract_z
Si Si1 0.371701 0.441070 0.896610
Si Si2 0.350976 0.258089 0.278335
Si Si3 0.857793 0.450105 0.406858
Si Si4 0.470713 0.668266 0.277775
Si Si5 0.675692 0.693345 0.590849
Si Si6 0.420286 0.169699 0.106639
Si Si7 0.775803 0.897450 0.172977
Si Si8 0.684480 0.109075 0.685064
O O1 0.510612 0.433530 0.854829
O O2 0.337228 0.495325 0.875047
O O3 0.287683 0.410024 0.792170
O O4 0.357811 0.430552 0.070882
O O5 0.464882 0.285858 0.205270
O O6 0.346877 0.273412 0.449217
O O7 0.221834 0.271944 0.217002
O O8 0.363717 0.204022 0.231310
O O9 0.837193 0.438246 0.577752
O O10 0.752826 0.420718 0.329103
O O11 0.415838 0.684900 0.434673
O O12 0.364622 0.647431 0.179464
O O13 0.575953 0.628119 0.289419
O O14 0.558630 0.666278 0.648133
O O15 0.772158 0.651503 0.576894
O O16 0.351176 0.120437 0.111556
#
# Coordination Sequence:
#
# PCOD8185418 Si02
#       8
#     8   8   8   8   8   8   8   8
#     4  11  23  42  69 103 131 178 220 290 337 416
#     4  10  24  40  64  92 132 167 223 286 323 407
#     4  11  25  42  65 100 140 169 233 272 347 414
#     4  10  23  44  64  97 129 176 223 271 341 403
#     4  10  23  42  62  96 126 169 224 276 334 402
#     4  11  24  40  66  93 133 172 225 274 333 408
#     4  12  23  44  67  93 136 183 214 285 338 416
#     4  11  21  44  74  94 136 174 225 278 349 407
#
# _framework density 22.154582999999999
#
# number of rings (size 3 to 8) (size 9 to 14) (size 15 to 20)
#    0.000    1.250    2.500    3.750    3.500    1.000 
#    2.250    0.000    0.000    0.000    0.000    0.000 
#    0.000    0.000    0.000    0.000    0.000    0.000 
#
# Total GULP energy -396444.886676 kJ/mol
# GULP energy per Si atom -12388.902709 kJ/mol
# Density = 2.210416 g / cm^3
# Si number density = 22.154583 Si / 1000 Ang^3
#
#
#
# Elastic Constant Matrix: (Units=GPa)
#
#
# Indices 1 2 3 4 5 6 
#
# 1 87.3480 20.3679 24.5420 0.0000 0.0000 0.0000
# 2 20.3679 60.0922 23.8873 0.0000 0.0000 0.0000
# 3 24.5420 23.8873 79.2701 0.0000 0.0000 0.0000
# 4 0.0000 0.0000 0.0000 36.7934 0.0000 0.0000
# 5 0.0000 0.0000 0.0000 0.0000 34.1912 0.0000
# 6 0.0000 0.0000 0.0000 0.0000 0.0000 35.0731
#
#
#
# Elastic Compliance Matrix: (Units=1/GPa)
#
#
# Indices 1 2 3 4 5 6 
#
# 1 0.013060 -0.003203 -0.003078 0.000000 0.000000 0.000000
# 2 -0.003203 0.019691 -0.004942 0.000000 0.000000 0.000000
# 3 -0.003078 -0.004942 0.015057 0.000000 0.000000 0.000000
# 4 0.000000 0.000000 0.000000 0.027179 0.000000 0.000000
# 5 0.000000 0.000000 0.000000 0.000000 0.029247 0.000000
# 6 0.000000 0.000000 0.000000 0.000000 0.000000 0.028512
#
#
# Mechanical properties :
#
#
# Convention : Reuss Voigt Hill
#
# Bulk Modulus (GPa) = 39.42892 40.47828 39.95360
# Shear Modulus (GPa) = 30.55344 31.73908 31.14626
#
# Velocity S-wave (km/s) = 3.71766 3.78910 3.75355
# Velocity P-wave (km/s) = 6.02194 6.11993 6.07113
#
# Compressibility (1/GPa) = 0.02536210
#
# Stress axis : x y z
#
# Youngs Moduli (GPa) = 76.56831 50.78389 66.41261
#
# Poissons Ratio (x) = 0.16266 0.20443
# Poissons Ratio (y) = 0.24525 0.32822
# Poissons Ratio (z) = 0.23570 0.25098
#
# Static dielectric constant tensor:
#      x y z
#    x 4.261420 0.000000 0.000000 
#    y 0.000000 3.851910 0.000000 
#    z 0.000000 0.000000 3.679550 
# 
# 
# High freq. dielectric constant tensor:
#      x y z
#    x 1.890450 0.000000 0.000000 
#    y 0.000000 1.863420 0.000000 
#    z 0.000000 0.000000 1.856510 
# 
# From -- ./inp_files/2216.got.cif
#   From: 2010.03.12/outbox.cif.g09.slc.cpg/sg41_2_cif.got.tgz:2216.got - 2010.04.14 01:55:53.
