data_PCOD8185360
_publ_section_title
;
Structure prediction by ZEFSAII (Michael W. Deem and Ramdas Pophale) SiO2 
 PCOD8185360
Probable space group: A B A 2
;
_chemical_formula_sum "Si O2"
_cell_formula_units_Z 60
_cell_length_a 11.088377
_cell_length_b 8.968184
_cell_length_c 26.035312
_cell_angle_alpha 90.000000
_cell_angle_beta 90.000000
_cell_angle_gamma 90.000000
_cell_volume 2589.019252
_symmetry_space_group_name_H-M "A B A 2"
_symmetry_group_IT_number 41
_symmetry_cell_setting 'orthorhombic'
loop_
_space_group_symop_operation_xyz
x,y,z
-x,-y,z
1/2-x,y,1/2+z
1/2+x,-y,1/2+z
x,1/2+y,1/2+z
-x,1/2-y,1/2+z
1/2-x,1/2+y,z
1/2+x,1/2-y,z
loop_
_atom_site_type_symbol
_atom_site_label
_atom_site_fract_x
_atom_site_fract_y
_atom_site_fract_z
Si Si1 0.584849 0.320438 0.728470
Si Si2 0.713737 0.018923 0.717341
Si Si3 0.500000 0.500000 0.640211
Si Si4 0.171926 0.355183 0.062962
Si Si5 0.361368 0.669792 0.409863
Si Si6 0.433527 0.643081 0.302291
Si Si7 0.373848 0.843357 0.946716
Si Si8 0.636838 0.466824 0.106114
O O1 0.650713 0.481556 0.737313
O O2 0.511361 0.348803 0.675487
O O3 0.514216 0.278454 0.780258
O O4 0.686608 0.193753 0.719652
O O5 0.626994 0.920773 0.751750
O O6 0.706438 0.957922 0.659875
O O7 0.388234 0.470204 0.603000
O O8 0.312638 0.401005 0.069003
O O9 0.151277 0.184693 0.075336
O O10 0.121126 0.384504 0.006491
O O11 0.352542 0.708526 0.348589
O O12 0.242680 0.738713 0.436573
O O13 0.350931 0.493276 0.415603
O O14 0.493771 0.726152 0.431133
O O15 0.500000 0.500000 0.327708
O O16 0.500000 0.500000 0.119237
#
# Coordination Sequence:
#
# PCOD8185360 Si02
#       8
#     8   8   4   8   8   8   8   8
#     4  11  25  41  67 103 142 188 235 294 352 449
#     4  11  23  42  66  98 146 180 236 288 357 434
#     4  12  24  44  70 104 148 188 248 284 366 440
#     4  12  27  44  73  99 147 194 241 304 368 437
#     4  11  25  49  77 105 145 188 246 312 366 434
#     4  10  22  43  70  96 139 188 226 290 368 422
#     4  11  26  49  75 107 143 190 252 311 372 430
#     4  12  26  43  69 105 146 192 244 295 369 445
#
# _framework density 23.174800000000001
#
# number of rings (size 3 to 8) (size 9 to 14) (size 15 to 20)
#    0.000    0.800    2.667    5.200    7.467    0.533 
#    0.000    0.000    0.000    0.000    0.000    0.000 
#    0.000    0.000    0.000    0.000    0.000    0.000 
#
# Total GULP energy -371756.969553 kJ/mol
# GULP energy per Si atom -12391.898985 kJ/mol
# Density = 2.312205 g / cm^3
# Si number density = 23.174800 Si / 1000 Ang^3
#
#
#
# Elastic Constant Matrix: (Units=GPa)
#
#
# Indices 1 2 3 4 5 6 
#
# 1 91.4846 35.7779 25.5004 0.0000 0.0000 0.0000
# 2 35.7779 79.3943 47.1441 0.0000 0.0000 0.0000
# 3 25.5004 47.1441 131.8598 0.0000 0.0000 0.0000
# 4 0.0000 0.0000 0.0000 3.1852 0.0000 0.0000
# 5 0.0000 0.0000 0.0000 0.0000 34.2248 0.0000
# 6 0.0000 0.0000 0.0000 0.0000 0.0000 45.8002
#
#
#
# Elastic Compliance Matrix: (Units=1/GPa)
#
#
# Indices 1 2 3 4 5 6 
#
# 1 0.013300 -0.005670 -0.000545 0.000000 0.000000 0.000000
# 2 -0.005670 0.018407 -0.005485 0.000000 0.000000 0.000000
# 3 -0.000545 -0.005485 0.009650 0.000000 0.000000 0.000000
# 4 0.000000 0.000000 0.000000 0.313951 0.000000 0.000000
# 5 0.000000 0.000000 0.000000 0.000000 0.029219 0.000000
# 6 0.000000 0.000000 0.000000 0.000000 0.000000 0.021834
#
#
# Mechanical properties :
#
#
# Convention : Reuss Voigt Hill
#
# Bulk Modulus (GPa) = 55.68418 57.73150 56.70784
# Shear Modulus (GPa) = 11.47456 29.59645 20.53551
#
# Velocity S-wave (km/s) = 2.22757 3.57753 2.98000
# Velocity P-wave (km/s) = 5.54041 6.48308 6.03019
#
# Compressibility (1/GPa) = 0.01795842
#
# Stress axis : x y z
#
# Youngs Moduli (GPa) = 75.18748 54.32661 103.62550
#
# Poissons Ratio (x) = 0.30803 0.05647
# Poissons Ratio (y) = 0.42631 0.56835
# Poissons Ratio (z) = 0.04097 0.29796
#
# Static dielectric constant tensor:
#      x y z
#    x 4.846180 0.000000 0.000000 
#    y 0.000000 6.129640 0.000000 
#    z 0.000000 0.000000 4.191660 
# 
# 
# High freq. dielectric constant tensor:
#      x y z
#    x 1.926310 0.000000 0.000000 
#    y 0.000000 1.907210 0.000000 
#    z 0.000000 0.000000 1.921850 
# 
# From -- ./inp_files/12508.got.cif
#   From: 2010.03.12/outbox.cif.g09.slc.cpg/sg41_7_cif.got.tgz:12508.got - 2010.04.14 01:55:53.
