data_PCOD8185078
_publ_section_title
;
Structure prediction by ZEFSAII (Michael W. Deem and Ramdas Pophale) SiO2 
 PCOD8185078
Probable space group: A B A 2
;
_chemical_formula_sum "Si O2"
_cell_formula_units_Z 48
_cell_length_a 10.695274
_cell_length_b 9.921684
_cell_length_c 21.016738
_cell_angle_alpha 90.000000
_cell_angle_beta 90.000000
_cell_angle_gamma 90.000000
_cell_volume 2230.193862
_symmetry_space_group_name_H-M "A B A 2"
_symmetry_group_IT_number 41
_symmetry_cell_setting 'orthorhombic'
loop_
_space_group_symop_operation_xyz
x,y,z
-x,-y,z
1/2-x,y,1/2+z
1/2+x,-y,1/2+z
x,1/2+y,1/2+z
-x,1/2-y,1/2+z
1/2-x,1/2+y,z
1/2+x,1/2-y,z
loop_
_atom_site_type_symbol
_atom_site_label
_atom_site_fract_x
_atom_site_fract_y
_atom_site_fract_z
Si Si1 0.420364 0.615078 0.190460
Si Si2 0.878531 0.655168 0.864615
Si Si3 0.640034 0.674001 0.510727
Si Si4 0.538090 0.358948 0.626254
Si Si5 0.283373 0.065331 0.568710
Si Si6 0.659839 0.356721 0.320952
O O1 0.500000 0.500000 0.226734
O O2 0.502044 0.745854 0.176004
O O3 0.384244 0.542717 0.123965
O O4 0.318220 0.654645 0.244079
O O5 0.825185 0.511733 0.841792
O O6 0.770778 0.766979 0.851508
O O7 0.016672 0.693692 0.837067
O O8 0.899676 0.639791 0.939954
O O9 0.524231 0.651535 0.556887
O O10 0.678078 0.831060 0.513403
O O11 0.750593 0.575563 0.535806
O O12 0.500000 0.500000 0.658674
O O13 0.683271 0.355648 0.611939
#
# Coordination Sequence:
#
# PCOD8185078 Si02
#       6
#     8   8   8   8   8   8
#     4  11  22  42  61  91 131 164 222 273 331 392
#     4  11  25  46  69  98 136 182 228 278 334 404
#     4  10  21  37  63  92 127 162 215 266 331 393
#     4   9  21  36  61  96 119 163 206 268 334 390
#     4  10  21  36  64  93 122 166 203 276 329 389
#     4  11  27  45  69  97 133 188 226 281 332 399
#
# _framework density 21.522794000000001
#
# number of rings (size 3 to 8) (size 9 to 14) (size 15 to 20)
#    0.000    1.667    1.667    2.000   11.667    4.667 
#    0.000    0.000    0.000    0.000    0.000    0.000 
#    0.000    0.000    0.000    0.000    0.000    0.000 
#
# Total GULP energy -297356.556264 kJ/mol
# GULP energy per Si atom -12389.856511 kJ/mol
# Density = 2.147381 g / cm^3
# Si number density = 21.522794 Si / 1000 Ang^3
#
#
#
# Elastic Constant Matrix: (Units=GPa)
#
#
# Indices 1 2 3 4 5 6 
#
# 1 80.8512 35.5827 1.6540 0.0000 0.0000 0.0000
# 2 35.5827 97.0148 40.1055 0.0000 0.0000 0.0000
# 3 1.6540 40.1055 103.6775 0.0000 0.0000 0.0000
# 4 0.0000 0.0000 0.0000 20.2051 0.0000 0.0000
# 5 0.0000 0.0000 0.0000 0.0000 16.5551 0.0000
# 6 0.0000 0.0000 0.0000 0.0000 0.0000 35.7709
#
#
#
# Elastic Compliance Matrix: (Units=1/GPa)
#
#
# Indices 1 2 3 4 5 6 
#
# 1 0.015188 -0.006512 0.002277 0.000000 0.000000 0.000000
# 2 -0.006512 0.015062 -0.005722 0.000000 0.000000 0.000000
# 3 0.002277 -0.005722 0.011823 0.000000 0.000000 0.000000
# 4 0.000000 0.000000 0.000000 0.049493 0.000000 0.000000
# 5 0.000000 0.000000 0.000000 0.000000 0.060404 0.000000
# 6 0.000000 0.000000 0.000000 0.000000 0.000000 0.027956
#
#
# Mechanical properties :
#
#
# Convention : Reuss Voigt Hill
#
# Bulk Modulus (GPa) = 45.13254 48.46979 46.80116
# Shear Modulus (GPa) = 24.12838 28.11962 26.12400
#
# Velocity S-wave (km/s) = 3.35186 3.61848 3.48772
# Velocity P-wave (km/s) = 5.99959 6.32669 6.16531
#
# Compressibility (1/GPa) = 0.02215696
#
# Stress axis : x y z
#
# Youngs Moduli (GPa) = 65.84333 66.39403 84.58405
#
# Poissons Ratio (x) = 0.43233 -0.19256
# Poissons Ratio (y) = 0.42874 0.48402
# Poissons Ratio (z) = -0.14990 0.37993
#
# Static dielectric constant tensor:
#      x y z
#    x 3.795020 0.000000 0.000000 
#    y 0.000000 4.200950 0.000000 
#    z 0.000000 0.000000 3.791110 
# 
# 
# High freq. dielectric constant tensor:
#      x y z
#    x 1.837770 0.000000 0.000000 
#    y 0.000000 1.854200 0.000000 
#    z 0.000000 0.000000 1.850360 
# 
# From -- ./inp_files/12098.got.cif
#   From: 2010.03.12/outbox.cif.g09.slc.cpg/sg41_7_cif.got.tgz:12098.got - 2010.04.14 01:55:53.
