data_PCOD8185069
_publ_section_title
;
Structure prediction by ZEFSAII (Michael W. Deem and Ramdas Pophale) SiO2 
 PCOD8185069
Probable space group: A B A 2
;
_chemical_formula_sum "Si O2"
_cell_formula_units_Z 56
_cell_length_a 16.179862
_cell_length_b 4.970916
_cell_length_c 33.491670
_cell_angle_alpha 90.000000
_cell_angle_beta 90.000000
_cell_angle_gamma 90.000000
_cell_volume 2693.692648
_symmetry_space_group_name_H-M "A B A 2"
_symmetry_group_IT_number 41
_symmetry_cell_setting 'orthorhombic'
loop_
_space_group_symop_operation_xyz
x,y,z
-x,-y,z
1/2-x,y,1/2+z
1/2+x,-y,1/2+z
x,1/2+y,1/2+z
-x,1/2-y,1/2+z
1/2-x,1/2+y,z
1/2+x,1/2-y,z
loop_
_atom_site_type_symbol
_atom_site_label
_atom_site_fract_x
_atom_site_fract_y
_atom_site_fract_z
Si Si1 0.555733 0.245404 0.332990
Si Si2 0.055755 0.759399 0.047012
Si Si3 0.197521 0.140758 0.485583
Si Si4 0.798721 0.969278 0.686566
Si Si5 0.054712 0.754494 0.135329
Si Si6 0.805737 0.301379 0.895271
Si Si7 0.301650 0.978378 0.280587
O O1 0.500000 0.500000 0.318405
O O2 0.614012 0.350170 0.368412
O O3 0.500000 0.000000 0.349074
O O4 0.610088 0.118796 0.297017
O O5 0.131254 0.722372 0.017794
O O6 0.090775 0.833345 0.091541
O O7 0.000000 0.500000 0.047181
O O8 0.000000 0.000000 0.030413
O O9 0.277102 0.331629 0.491852
O O10 0.162875 0.179379 0.440838
O O11 0.722568 0.773052 0.673231
O O12 0.878234 0.837227 0.667131
O O13 0.812630 0.986298 0.733540
O O14 0.000000 0.500000 0.126701
O O15 0.000000 0.000000 0.153113
O O16 0.733081 0.511900 0.885666
O O17 0.269399 0.268832 0.295337
#
# Coordination Sequence:
#
# PCOD8185069 Si02
#       7
#     8   8   8   8   8   8   8
#     4  12  24  37  58  89 115 143 190 239 281 334
#     4  10  21  36  55  80 115 154 187 228 288 344
#     4  10  21  36  57  84 111 147 196 239 278 331
#     4  10  21  37  59  84 107 141 189 232 273 331
#     4  10  21  37  56  82 116 152 186 228 289 346
#     4  10  21  39  59  80 113 155 190 228 287 345
#     4  10  21  40  60  79 111 150 182 222 284 343
#
# _framework density 20.789304999999999
#
# number of rings (size 3 to 8) (size 9 to 14) (size 15 to 20)
#    0.000    1.714    0.000    4.286    0.000    2.857 
#    0.000    1.429    0.000    0.000    0.000    0.000 
#    0.000    0.000    0.000    0.000    0.000    0.000 
#
# Total GULP energy -347111.849706 kJ/mol
# GULP energy per Si atom -12396.851775 kJ/mol
# Density = 2.074199 g / cm^3
# Si number density = 20.789305 Si / 1000 Ang^3
#
#
#
# Elastic Constant Matrix: (Units=GPa)
#
#
# Indices 1 2 3 4 5 6 
#
# 1 95.5999 28.5834 58.4366 0.0000 0.0000 0.0000
# 2 28.5834 104.9068 38.7496 0.0000 0.0000 0.0000
# 3 58.4366 38.7496 77.3410 0.0000 0.0000 0.0000
# 4 0.0000 0.0000 0.0000 27.6898 0.0000 0.0000
# 5 0.0000 0.0000 0.0000 0.0000 -4.3314 0.0000
# 6 0.0000 0.0000 0.0000 0.0000 0.0000 40.1760
#
#
#
# Elastic Compliance Matrix: (Units=1/GPa)
#
#
# Indices 1 2 3 4 5 6 
#
# 1 0.019440 0.000158 -0.014767 0.000000 0.000000 0.000000
# 2 0.000158 0.011698 -0.005980 0.000000 0.000000 0.000000
# 3 -0.014767 -0.005980 0.027084 0.000000 0.000000 0.000000
# 4 0.000000 0.000000 0.000000 0.036114 0.000000 0.000000
# 5 0.000000 0.000000 0.000000 0.000000 -0.230870 0.000000
# 6 0.000000 0.000000 0.000000 0.000000 0.000000 0.024890
#
#
# Mechanical properties :
#
#
# Convention : Reuss Voigt Hill
#
# Bulk Modulus (GPa) = 58.67746 58.82078 58.74912
# Shear Modulus (GPa) = -77.18071 22.84541 -27.16765
#
# Velocity S-wave (km/s) = -6.09966 3.31857 -3.61890
# Velocity P-wave (km/s) = 4.61753 6.56041 3.29525
#
# Compressibility (1/GPa) = 0.01704232
#
# Stress axis : x y z
#
# Youngs Moduli (GPa) = 51.44125 85.48293 36.92249
#
# Poissons Ratio (x) = -0.01350 0.54524
# Poissons Ratio (y) = -0.00813 0.22081
# Poissons Ratio (z) = 0.75964 0.51123
#
# Static dielectric constant tensor:
#      x y z
#    x 3.542450 0.000000 0.000000 
#    y 0.000000 4.188850 0.000000 
#    z 0.000000 0.000000 3.831600 
# 
# 
# High freq. dielectric constant tensor:
#      x y z
#    x 1.797130 0.000000 0.000000 
#    y 0.000000 1.840430 0.000000 
#    z 0.000000 0.000000 1.812950 
# 
# From -- ./inp_files/12735.got.cif
#   From: 2010.03.12/outbox.cif.g09.slc.cpg/sg41_7_cif.got.tgz:12735.got - 2010.04.14 01:55:53.
