data_PCOD8185683
_publ_section_title
;
Structure prediction by ZEFSAII (Michael W. Deem and Ramdas Pophale) SiO2 
 PCOD8185683
Probable space group: A B A 2
;
_chemical_formula_sum "Si O2"
_cell_formula_units_Z 40
_cell_length_a 9.104004
_cell_length_b 9.655009
_cell_length_c 20.482530
_cell_angle_alpha 90.000000
_cell_angle_beta 90.000000
_cell_angle_gamma 90.000000
_cell_volume 1800.398832
_symmetry_space_group_name_H-M "A B A 2"
_symmetry_group_IT_number 41
_symmetry_cell_setting 'orthorhombic'
loop_
_space_group_symop_operation_xyz
x,y,z
-x,-y,z
1/2-x,y,1/2+z
1/2+x,-y,1/2+z
x,1/2+y,1/2+z
-x,1/2-y,1/2+z
1/2-x,1/2+y,z
1/2+x,1/2-y,z
loop_
_atom_site_type_symbol
_atom_site_label
_atom_site_fract_x
_atom_site_fract_y
_atom_site_fract_z
Si Si1 0.075226 0.810032 0.246640
Si Si2 0.785514 0.419903 0.794248
Si Si3 0.207095 0.765793 0.517990
Si Si4 0.322339 0.007285 0.437060
Si Si5 0.462709 0.840863 0.599112
O O1 0.154889 0.665596 0.260371
O O2 0.937179 0.831173 0.295652
O O3 0.006242 0.807206 0.174326
O O4 0.188883 0.938173 0.253887
O O5 0.736671 0.454375 0.866536
O O6 0.239308 0.614481 0.489745
O O7 0.295304 0.808093 0.582854
O O8 0.043900 0.761847 0.547999
O O9 0.241009 0.865983 0.457234
O O10 0.500000 0.000000 0.437197
O O11 0.500000 0.000000 0.582930
#
# Coordination Sequence:
#
# PCOD8185683 Si02
#       5
#     8   8   8   8   8
#     4  11  26  48  72 108 143 189 245 299 360 433
#     4  11  26  46  75 104 147 190 240 299 364 424
#     4  12  24  47  74 101 144 191 230 304 364 421
#     4  12  27  48  71 106 148 184 244 302 358 438
#     4  12  24  48  71 104 150 183 244 301 355 439
#
# _framework density 22.217298
#
# number of rings (size 3 to 8) (size 9 to 14) (size 15 to 20)
#    0.000    0.400    6.000    2.400    5.600    4.000 
#    0.000    2.000    0.000    0.000    0.000    0.000 
#    0.000    0.000    0.000    0.000    0.000    0.000 
#
# Total GULP energy -247925.527436 kJ/mol
# GULP energy per Si atom -12396.276372 kJ/mol
# Density = 2.216673 g / cm^3
# Si number density = 22.217298 Si / 1000 Ang^3
#
#
#
# Elastic Constant Matrix: (Units=GPa)
#
#
# Indices 1 2 3 4 5 6 
#
# 1 90.0900 59.2831 61.0834 0.0000 0.0000 0.0000
# 2 59.2831 84.7673 53.0922 0.0000 0.0000 0.0000
# 3 61.0834 53.0922 135.6678 0.0000 0.0000 0.0000
# 4 0.0000 0.0000 0.0000 35.8132 0.0000 0.0000
# 5 0.0000 0.0000 0.0000 0.0000 14.8190 0.0000
# 6 0.0000 0.0000 0.0000 0.0000 0.0000 39.5748
#
#
#
# Elastic Compliance Matrix: (Units=1/GPa)
#
#
# Indices 1 2 3 4 5 6 
#
# 1 0.023241 -0.012849 -0.005436 0.000000 0.000000 0.000000
# 2 -0.012849 0.022732 -0.003110 0.000000 0.000000 0.000000
# 3 -0.005436 -0.003110 0.011036 0.000000 0.000000 0.000000
# 4 0.000000 0.000000 0.000000 0.027923 0.000000 0.000000
# 5 0.000000 0.000000 0.000000 0.000000 0.067481 0.000000
# 6 0.000000 0.000000 0.000000 0.000000 0.000000 0.025269
#
#
# Mechanical properties :
#
#
# Convention : Reuss Voigt Hill
#
# Bulk Modulus (GPa) = 70.33729 73.04917 71.69323
# Shear Modulus (GPa) = 22.20149 27.17915 24.69032
#
# Velocity S-wave (km/s) = 3.16458 3.50141 3.33725
# Velocity P-wave (km/s) = 6.71419 7.02120 6.86941
#
# Compressibility (1/GPa) = 0.01421721
#
# Stress axis : x y z
#
# Youngs Moduli (GPa) = 43.02752 43.99181 90.61654
#
# Poissons Ratio (x) = 0.56527 0.49256
# Poissons Ratio (y) = 0.55288 0.28185
# Poissons Ratio (z) = 0.23388 0.13683
#
# Static dielectric constant tensor:
#      x y z
#    x 4.399850 0.000000 0.000000 
#    y 0.000000 4.140430 0.000000 
#    z 0.000000 0.000000 4.018660 
# 
# 
# High freq. dielectric constant tensor:
#      x y z
#    x 1.876650 0.000000 0.000000 
#    y 0.000000 1.877890 0.000000 
#    z 0.000000 0.000000 1.886890 
# 
# From -- ./inp_files/11113.got.cif
#   From: 2010.03.12/outbox.cif.g09.slc.cpg/sg41_6_cif.got.tgz:11113.got - 2010.04.14 01:55:53.
