data_PCOD8185875
_publ_section_title
;
Structure prediction by ZEFSAII (Michael W. Deem and Ramdas Pophale) SiO2 
 PCOD8185875
Probable space group: F M M 2
;
_chemical_formula_sum "Si O2"
_cell_formula_units_Z 96
_cell_length_a 18.740103
_cell_length_b 19.030938
_cell_length_c 14.954870
_cell_angle_alpha 90.000000
_cell_angle_beta 90.000000
_cell_angle_gamma 90.000000
_cell_volume 5333.530833
_symmetry_space_group_name_H-M "F M M 2"
_symmetry_group_IT_number 42
_symmetry_cell_setting 'orthorhombic'
loop_
_space_group_symop_operation_xyz
x,y,z
-x,-y,z
-x,y,z
x,-y,z
x,1/2+y,1/2+z
-x,1/2-y,1/2+z
-x,1/2+y,1/2+z
x,1/2-y,1/2+z
1/2+x,y,1/2+z
1/2-x,-y,1/2+z
1/2-x,y,1/2+z
1/2+x,-y,1/2+z
1/2+x,1/2+y,z
1/2-x,1/2-y,z
1/2-x,1/2+y,z
1/2+x,1/2-y,z
loop_
_atom_site_type_symbol
_atom_site_label
_atom_site_fract_x
_atom_site_fract_y
_atom_site_fract_z
Si Si1 0.415944 0.208586 0.426300
Si Si2 0.717027 0.578308 0.305536
Si Si3 0.779307 0.077376 0.613832
Si Si4 0.827090 0.421888 0.461983
Si Si5 0.671601 0.724332 0.577705
Si Si6 0.830497 0.275273 0.772908
O O1 0.500000 0.214188 0.424723
O O2 0.393390 0.129048 0.447089
O O3 0.385814 0.259170 0.502679
O O4 0.386170 0.231176 0.330295
O O5 0.681238 0.500000 0.310993
O O6 0.767768 0.582238 0.219438
O O7 0.763227 0.593480 0.393241
O O8 0.660107 0.641698 0.296898
O O9 0.704337 0.088279 0.561781
O O10 0.832745 0.139888 0.588225
O O11 0.811084 0.000000 0.588729
O O12 0.857369 0.500000 0.448175
O O13 0.750000 0.750000 0.545837
O O14 0.651071 0.763395 0.669318
O O15 0.750000 0.250000 0.793723
#
# Coordination Sequence:
#
# PCOD8185875 Si02
#       6
#    16  16  16  16  16  16
#     4  12  24  35  52  77 110 147 177 212 259 315
#     4  10  18  30  53  83 106 128 167 220 271 308
#     4  10  18  30  53  83 106 128 167 220 271 308
#     4  10  19  32  50  75 106 138 171 213 263 312
#     4  11  19  35  58  80 104 137 175 225 263 302
#     4  11  19  35  58  80 104 137 175 225 263 302
#
# _framework density 17.999333
#
# number of rings (size 3 to 8) (size 9 to 14) (size 15 to 20)
#    0.000    1.333    6.667    1.500    0.000    1.000 
#    0.000    0.000    0.000    2.000    0.000    0.000 
#    0.000    0.000    0.000    0.000    0.000    0.000 
#
# Total GULP energy -297557.091402 kJ/mol
# GULP energy per Si atom -12398.212142 kJ/mol
# Density = 1.795837 g / cm^3
# Si number density = 17.999333 Si / 1000 Ang^3
#
#
#
# Elastic Constant Matrix: (Units=GPa)
#
#
# Indices 1 2 3 4 5 6 
#
# 1 57.7865 14.2073 24.8702 0.0000 0.0000 0.0000
# 2 14.2073 114.7408 4.1278 0.0000 0.0000 0.0000
# 3 24.8702 4.1278 66.2508 0.0000 0.0000 0.0000
# 4 0.0000 0.0000 0.0000 28.7908 0.0000 0.0000
# 5 0.0000 0.0000 0.0000 0.0000 12.4911 0.0000
# 6 0.0000 0.0000 0.0000 0.0000 0.0000 16.2159
#
#
#
# Elastic Compliance Matrix: (Units=1/GPa)
#
#
# Indices 1 2 3 4 5 6 
#
# 1 0.021254 -0.002350 -0.007832 0.000000 0.000000 0.000000
# 2 -0.002350 0.008995 0.000322 0.000000 0.000000 0.000000
# 3 -0.007832 0.000322 0.018014 0.000000 0.000000 0.000000
# 4 0.000000 0.000000 0.000000 0.034733 0.000000 0.000000
# 5 0.000000 0.000000 0.000000 0.000000 0.080057 0.000000
# 6 0.000000 0.000000 0.000000 0.000000 0.000000 0.061668
#
#
# Mechanical properties :
#
#
# Convention : Reuss Voigt Hill
#
# Bulk Modulus (GPa) = 35.03606 36.13208 35.58407
# Shear Modulus (GPa) = 19.68851 24.53774 22.11313
#
# Velocity S-wave (km/s) = 3.31092 3.69624 3.50887
# Velocity P-wave (km/s) = 5.84155 6.19144 6.01904
#
# Compressibility (1/GPa) = 0.02854202
#
# Stress axis : x y z
#
# Youngs Moduli (GPa) = 47.05086 111.17671 55.51168
#
# Poissons Ratio (x) = 0.26125 0.43477
# Poissons Ratio (y) = 0.11056 -0.01786
# Poissons Ratio (z) = 0.36851 -0.03577
#
# Static dielectric constant tensor:
#      x y z
#    x 2.681500 0.000000 0.000000 
#    y 0.000000 3.992740 0.000000 
#    z 0.000000 0.000000 3.533440 
# 
# 
# High freq. dielectric constant tensor:
#      x y z
#    x 1.612420 0.000000 0.000000 
#    y 0.000000 1.727960 0.000000 
#    z 0.000000 0.000000 1.720420 
# 
# From -- ./inp_files/14003.got.cif
#   From: 2010.03.12/outbox.cif.g09.slc.cpg/sg42_8_cif.got.tgz:14003.got - 2010.04.14 02:04:31.
