data_PCOD8185737
_publ_section_title
;
Structure prediction by ZEFSAII (Michael W. Deem and Ramdas Pophale) SiO2 
 PCOD8185737
Probable space group: A B A 2
;
_chemical_formula_sum "Si O2"
_cell_formula_units_Z 24
_cell_length_a 21.476363
_cell_length_b 4.834848
_cell_length_c 8.493765
_cell_angle_alpha 90.000000
_cell_angle_beta 90.000000
_cell_angle_gamma 90.000000
_cell_volume 881.949670
_symmetry_space_group_name_H-M "A B A 2"
_symmetry_group_IT_number 41
_symmetry_cell_setting 'orthorhombic'
loop_
_space_group_symop_operation_xyz
x,y,z
-x,-y,z
1/2-x,y,1/2+z
1/2+x,-y,1/2+z
x,1/2+y,1/2+z
-x,1/2-y,1/2+z
1/2-x,1/2+y,z
1/2+x,1/2-y,z
loop_
_atom_site_type_symbol
_atom_site_label
_atom_site_fract_x
_atom_site_fract_y
_atom_site_fract_z
Si Si1 0.127608 0.487994 0.947640
Si Si2 0.292405 0.135357 0.666954
Si Si3 0.457490 0.261238 0.188618
O O1 0.173324 0.665886 0.835246
O O2 0.068676 0.369963 0.854098
O O3 0.161811 0.226523 0.027332
O O4 0.101699 0.698790 0.078555
O O5 0.229261 0.316818 0.654248
O O6 0.500000 0.500000 0.110985
O O7 0.500000 0.000000 0.223955
#
# Coordination Sequence:
#
# PCOD8185737 Si02
#       3
#     8   8   8
#     4  12  29  52  80 114 156 204 257 318 384 458
#     4  12  28  50  78 114 154 202 256 316 382 456
#     4  12  30  52  80 116 156 204 258 318 384 458
#
# _framework density 27.212436
#
# number of rings (size 3 to 8) (size 9 to 14) (size 15 to 20)
#    0.000    0.000    0.000    7.000    0.000   29.333 
#    0.000    0.000    0.000    0.000    0.000    0.000 
#    0.000    0.000    0.000    0.000    0.000    0.000 
#
# Total GULP energy -148921.468473 kJ/mol
# GULP energy per Si atom -12410.122373 kJ/mol
# Density = 2.715050 g / cm^3
# Si number density = 27.212436 Si / 1000 Ang^3
#
#
#
# Elastic Constant Matrix: (Units=GPa)
#
#
# Indices 1 2 3 4 5 6 
#
# 1 103.6223 21.9863 12.3368 0.0000 0.0000 0.0000
# 2 21.9863 113.9007 12.8069 0.0000 0.0000 0.0000
# 3 12.3368 12.8069 103.6915 0.0000 0.0000 0.0000
# 4 0.0000 0.0000 0.0000 37.3202 0.0000 0.0000
# 5 0.0000 0.0000 0.0000 0.0000 40.3513 0.0000
# 6 0.0000 0.0000 0.0000 0.0000 0.0000 16.0246
#
#
#
# Elastic Compliance Matrix: (Units=1/GPa)
#
#
# Indices 1 2 3 4 5 6 
#
# 1 0.010160 -0.001851 -0.000980 0.000000 0.000000 0.000000
# 2 -0.001851 0.009240 -0.000921 0.000000 0.000000 0.000000
# 3 -0.000980 -0.000921 0.009874 0.000000 0.000000 0.000000
# 4 0.000000 0.000000 0.000000 0.026795 0.000000 0.000000
# 5 0.000000 0.000000 0.000000 0.000000 0.024782 0.000000
# 6 0.000000 0.000000 0.000000 0.000000 0.000000 0.062404
#
#
# Mechanical properties :
#
#
# Convention : Reuss Voigt Hill
#
# Bulk Modulus (GPa) = 45.93415 46.16382 46.04899
# Shear Modulus (GPa) = 31.64209 37.01151 34.32680
#
# Velocity S-wave (km/s) = 3.41366 3.69195 3.55553
# Velocity P-wave (km/s) = 5.69683 5.93085 5.81502
#
# Compressibility (1/GPa) = 0.02177029
#
# Stress axis : x y z
#
# Youngs Moduli (GPa) = 98.42661 108.22005 101.27233
#
# Poissons Ratio (x) = 0.20031 0.09926
# Poissons Ratio (y) = 0.18218 0.09328
# Poissons Ratio (z) = 0.09647 0.09968
#
# Static dielectric constant tensor:
#      x y z
#    x 5.082390 0.000000 0.000000 
#    y 0.000000 4.716500 0.000000 
#    z 0.000000 0.000000 4.903090 
# 
# 
# High freq. dielectric constant tensor:
#      x y z
#    x 2.122590 0.000000 0.000000 
#    y 0.000000 2.101830 0.000000 
#    z 0.000000 0.000000 2.099350 
# 
# From -- ./inp_files/846.got.cif
#   From: 2010.03.12/outbox.cif.g09.slc.cpg/sg41_1_cif.got.tgz:846.got - 2010.04.14 01:55:53.
