data_PCOD8185675
_publ_section_title
;
Structure prediction by ZEFSAII (Michael W. Deem and Ramdas Pophale) SiO2 
 PCOD8185675
Probable space group: A B A 2
;
_chemical_formula_sum "Si O2"
_cell_formula_units_Z 56
_cell_length_a 11.325742
_cell_length_b 15.425796
_cell_length_c 13.432267
_cell_angle_alpha 90.000000
_cell_angle_beta 90.000000
_cell_angle_gamma 90.000000
_cell_volume 2346.732370
_symmetry_space_group_name_H-M "A B A 2"
_symmetry_group_IT_number 41
_symmetry_cell_setting 'orthorhombic'
loop_
_space_group_symop_operation_xyz
x,y,z
-x,-y,z
1/2-x,y,1/2+z
1/2+x,-y,1/2+z
x,1/2+y,1/2+z
-x,1/2-y,1/2+z
1/2-x,1/2+y,z
1/2+x,1/2-y,z
loop_
_atom_site_type_symbol
_atom_site_label
_atom_site_fract_x
_atom_site_fract_y
_atom_site_fract_z
Si Si1 0.442366 0.812425 0.858010
Si Si2 0.629504 0.031281 0.315456
Si Si3 0.107160 0.631281 0.028777
Si Si4 0.129504 0.968720 0.242101
Si Si5 0.215950 0.468389 0.528779
Si Si6 0.793165 0.725350 0.028779
Si Si7 0.942368 0.687574 0.199545
O O1 0.357811 0.875717 0.795294
O O2 0.499996 0.749998 0.778777
O O3 0.531782 0.868762 0.927048
O O4 0.365280 0.749671 0.929359
O O5 0.750000 0.979963 0.278779
O O6 0.629769 0.030952 0.434429
O O7 0.642188 0.124283 0.262262
O O8 0.500000 0.000000 0.280377
O O9 0.192713 0.548456 0.028776
O O10 0.172033 0.724030 0.028779
O O11 0.031779 0.631235 0.130504
O O12 0.129770 0.969051 0.123128
O O13 0.000000 0.000000 0.277180
O O14 0.287595 0.379190 0.528780
O O15 0.865281 0.750330 0.128198
#
# Coordination Sequence:
#
# PCOD8185675 Si02
#       7
#     8   8   8   8   8   8   8
#     4  11  26  45  75 104 154 205 256 319 396 461
#     4  12  26  47  76 111 152 199 255 316 385 464
#     4  11  27  47  73 112 151 205 266 316 393 475
#     4  12  26  47  76 111 152 199 255 316 385 464
#     4  12  25  47  75 110 154 197 255 326 389 451
#     4  11  25  49  72 104 157 194 259 329 383 464
#     4  11  26  45  75 104 154 205 256 319 396 461
#
# _framework density 23.862967999999999
#
# number of rings (size 3 to 8) (size 9 to 14) (size 15 to 20)
#    0.000    0.571    2.857    3.857    4.000    2.286 
#    0.000    0.000    0.000    0.000    0.000    0.000 
#    0.000    0.000    0.000    0.000    0.000    0.000 
#
# Total GULP energy -346951.155780 kJ/mol
# GULP energy per Si atom -12391.112706 kJ/mol
# Density = 2.380866 g / cm^3
# Si number density = 23.862968 Si / 1000 Ang^3
#
#
#
# Elastic Constant Matrix: (Units=GPa)
#
#
# Indices 1 2 3 4 5 6 
#
# 1 158.9904 33.2466 54.0877 0.0000 0.0000 0.0000
# 2 33.2466 77.9494 35.1776 0.0000 0.0000 0.0000
# 3 54.0877 35.1776 176.1639 0.0000 0.0000 0.0000
# 4 0.0000 0.0000 0.0000 22.9084 0.0000 0.0000
# 5 0.0000 0.0000 0.0000 0.0000 41.0071 0.0000
# 6 0.0000 0.0000 0.0000 0.0000 0.0000 36.9688
#
#
#
# Elastic Compliance Matrix: (Units=1/GPa)
#
#
# Indices 1 2 3 4 5 6 
#
# 1 0.007392 -0.002339 -0.001802 0.000000 0.000000 0.000000
# 2 -0.002339 0.014840 -0.002245 0.000000 0.000000 0.000000
# 3 -0.001802 -0.002245 0.006678 0.000000 0.000000 0.000000
# 4 0.000000 0.000000 0.000000 0.043652 0.000000 0.000000
# 5 0.000000 0.000000 0.000000 0.000000 0.024386 0.000000
# 6 0.000000 0.000000 0.000000 0.000000 0.000000 0.027050
#
#
# Mechanical properties :
#
#
# Convention : Reuss Voigt Hill
#
# Bulk Modulus (GPa) = 61.97201 73.12528 67.54864
# Shear Modulus (GPa) = 35.17398 39.54966 37.36182
#
# Velocity S-wave (km/s) = 3.84343 4.07549 3.96116
# Velocity P-wave (km/s) = 6.76183 7.27025 7.02064
#
# Compressibility (1/GPa) = 0.01613632
#
# Stress axis : x y z
#
# Youngs Moduli (GPa) = 135.28019 67.38637 149.74006
#
# Poissons Ratio (x) = 0.15764 0.26990
# Poissons Ratio (y) = 0.31648 0.33617
# Poissons Ratio (z) = 0.24383 0.15129
#
# Static dielectric constant tensor:
#      x y z
#    x 4.434250 0.000000 0.000000 
#    y 0.000000 4.295820 0.000000 
#    z 0.000000 0.000000 4.818110 
# 
# 
# High freq. dielectric constant tensor:
#      x y z
#    x 1.963240 0.000000 0.000000 
#    y 0.000000 1.912630 0.000000 
#    z 0.000000 0.000000 1.978620 
# 
# From -- ./inp_files/7949.got.cif
#   From: 2010.03.12/outbox.cif.g09.slc.cpg/sg41_4_cif.got.tgz:7949.got - 2010.04.14 01:55:53.
