data_PCOD8185798
_publ_section_title
;
Structure prediction by ZEFSAII (Michael W. Deem and Ramdas Pophale) SiO2 
 PCOD8185798
Probable space group: F M M 2
;
_chemical_formula_sum "Si O2"
_cell_formula_units_Z 128
_cell_length_a 17.243582
_cell_length_b 18.129490
_cell_length_c 22.239712
_cell_angle_alpha 90.000000
_cell_angle_beta 90.000000
_cell_angle_gamma 90.000000
_cell_volume 6952.519773
_symmetry_space_group_name_H-M "F M M 2"
_symmetry_group_IT_number 42
_symmetry_cell_setting 'orthorhombic'
loop_
_space_group_symop_operation_xyz
x,y,z
-x,-y,z
-x,y,z
x,-y,z
x,1/2+y,1/2+z
-x,1/2-y,1/2+z
-x,1/2+y,1/2+z
x,1/2-y,1/2+z
1/2+x,y,1/2+z
1/2-x,-y,1/2+z
1/2-x,y,1/2+z
1/2+x,-y,1/2+z
1/2+x,1/2+y,z
1/2-x,1/2-y,z
1/2-x,1/2+y,z
1/2+x,1/2-y,z
loop_
_atom_site_type_symbol
_atom_site_label
_atom_site_fract_x
_atom_site_fract_y
_atom_site_fract_z
Si Si1 0.912501 0.918887 0.550780
Si Si2 0.590304 0.334540 0.431419
Si Si3 0.744317 0.585223 0.252065
Si Si4 0.314758 0.343669 0.642139
Si Si5 0.264133 0.413922 0.388912
Si Si6 0.915042 0.584343 0.694413
Si Si7 0.675856 0.798838 0.468048
Si Si8 0.852102 0.313723 0.600866
O O1 0.894715 0.858177 0.500383
O O2 0.863446 0.907661 0.610826
O O3 0.000000 0.912802 0.572345
O O4 0.894411 0.000000 0.523849
O O5 0.500000 0.344885 0.412286
O O6 0.646842 0.385380 0.391479
O O7 0.617127 0.249047 0.426216
O O8 0.758657 0.500000 0.235226
O O9 0.801202 0.636788 0.212345
O O10 0.764628 0.600327 0.321174
O O11 0.653942 0.606558 0.240100
O O12 0.233718 0.344868 0.608015
O O13 0.358878 0.266258 0.632860
O O14 0.261931 0.500000 0.405677
O O15 0.204641 0.371569 0.432976
O O16 0.905308 0.500000 0.674247
O O17 0.912373 0.633072 0.633984
O O18 0.000000 0.596864 0.724821
O O19 0.750000 0.750000 0.485482
O O20 0.629873 0.816310 0.529658
#
# Coordination Sequence:
#
# PCOD8185798 Si02
#       8
#    16  16  16  16  16  16  16  16
#     4  10  19  30  50  80 108 136 168 209 272 334
#     4  10  20  34  52  78 113 145 173 216 275 328
#     4   9  19  35  55  76 100 139 178 216 262 301
#     4  10  17  32  50  75 108 133 169 218 258 311
#     4  10  21  36  56  81 106 141 188 227 264 310
#     4   9  19  34  50  74 107 137 170 213 262 319
#     4  10  18  35  53  77 108 142 176 224 268 315
#     4  10  18  30  51  76 103 134 175 209 264 313
#
# _framework density 18.410592000000001
#
# number of rings (size 3 to 8) (size 9 to 14) (size 15 to 20)
#    0.000    2.250    2.500    1.500    0.000    3.250 
#   13.500    1.250    0.000    1.125    0.000    1.750 
#    0.000    0.000    0.000    0.000    0.000    0.000 
#
# Total GULP energy -396664.535817 kJ/mol
# GULP energy per Si atom -12395.766744 kJ/mol
# Density = 1.836869 g / cm^3
# Si number density = 18.410592 Si / 1000 Ang^3
#
#
#
# Elastic Constant Matrix: (Units=GPa)
#
#
# Indices 1 2 3 4 5 6 
#
# 1 41.9440 34.3496 15.6302 0.0000 0.0000 0.0000
# 2 34.3496 95.9171 43.6064 0.0000 0.0000 0.0000
# 3 15.6302 43.6064 86.4606 0.0000 0.0000 0.0000
# 4 0.0000 0.0000 0.0000 28.5024 0.0000 0.0000
# 5 0.0000 0.0000 0.0000 0.0000 18.7571 0.0000
# 6 0.0000 0.0000 0.0000 0.0000 0.0000 23.0816
#
#
#
# Elastic Compliance Matrix: (Units=1/GPa)
#
#
# Indices 1 2 3 4 5 6 
#
# 1 0.033735 -0.012078 -0.000007 0.000000 0.000000 0.000000
# 2 -0.012078 0.017851 -0.006820 0.000000 0.000000 0.000000
# 3 -0.000007 -0.006820 0.015007 0.000000 0.000000 0.000000
# 4 0.000000 0.000000 0.000000 0.035085 0.000000 0.000000
# 5 0.000000 0.000000 0.000000 0.000000 0.053313 0.000000
# 6 0.000000 0.000000 0.000000 0.000000 0.000000 0.043325
#
#
# Mechanical properties :
#
#
# Convention : Reuss Voigt Hill
#
# Bulk Modulus (GPa) = 34.74213 45.72157 40.23185
# Shear Modulus (GPa) = 20.34835 22.78393 21.56614
#
# Velocity S-wave (km/s) = 3.32814 3.52169 3.42628
# Velocity P-wave (km/s) = 5.80348 6.43620 6.12801
#
# Compressibility (1/GPa) = 0.02878350
#
# Stress axis : x y z
#
# Youngs Moduli (GPa) = 29.64283 56.01776 66.63607
#
# Poissons Ratio (x) = 0.67657 0.00047
# Poissons Ratio (y) = 0.35802 0.45446
# Poissons Ratio (z) = 0.00021 0.38204
#
# Static dielectric constant tensor:
#      x y z
#    x 3.282530 0.000000 0.000000 
#    y 0.000000 3.511800 0.000000 
#    z 0.000000 0.000000 3.230690 
# 
# 
# High freq. dielectric constant tensor:
#      x y z
#    x 1.696090 0.000000 0.000000 
#    y 0.000000 1.717510 0.000000 
#    z 0.000000 0.000000 1.694270 
# 
# From -- ./inp_files/26230.got.cif
#   From: 2010.03.12/outbox.cif.g09.slc.cpg/sg42_14_cif.got.tgz:26230.got - 2010.04.14 02:04:31.
