data_PCOD8185558
_publ_section_title
;
Structure prediction by ZEFSAII (Michael W. Deem and Ramdas Pophale) SiO2 
 PCOD8185558
Probable space group: A B A 2
;
_chemical_formula_sum "Si O2"
_cell_formula_units_Z 60
_cell_length_a 11.060982
_cell_length_b 9.410345
_cell_length_c 25.253712
_cell_angle_alpha 90.000000
_cell_angle_beta 90.000000
_cell_angle_gamma 90.000000
_cell_volume 2628.599704
_symmetry_space_group_name_H-M "A B A 2"
_symmetry_group_IT_number 41
_symmetry_cell_setting 'orthorhombic'
loop_
_space_group_symop_operation_xyz
x,y,z
-x,-y,z
1/2-x,y,1/2+z
1/2+x,-y,1/2+z
x,1/2+y,1/2+z
-x,1/2-y,1/2+z
1/2-x,1/2+y,z
1/2+x,1/2-y,z
loop_
_atom_site_type_symbol
_atom_site_label
_atom_site_fract_x
_atom_site_fract_y
_atom_site_fract_z
Si Si1 0.363896 0.499503 0.675030
Si Si2 0.542801 0.837487 0.914656
Si Si3 0.364765 0.963587 0.054389
Si Si4 0.711553 0.872913 0.820947
Si Si5 0.764351 0.297657 0.997369
Si Si6 0.116721 0.091070 0.906851
Si Si7 0.818685 0.212386 0.224260
Si Si8 0.500000 0.500000 0.254998
O O1 0.500000 0.500000 0.697211
O O2 0.359483 0.430779 0.616607
O O3 0.316673 0.661739 0.680706
O O4 0.283530 0.402130 0.712085
O O5 0.632529 0.797573 0.866346
O O6 0.419291 0.756706 0.901327
O O7 0.500000 0.000000 0.920885
O O8 0.608024 0.768587 0.966932
O O9 0.311421 0.838848 0.016831
O O10 0.500000 0.000000 0.035116
O O11 0.288381 0.108290 0.049326
O O12 0.812215 0.961958 0.854247
O O13 0.785676 0.768401 0.782673
O O14 0.619995 0.971808 0.788899
O O15 0.697711 0.411117 0.959241
O O16 0.000000 0.000000 0.916898
O O17 0.953187 0.137037 0.221539
#
# Coordination Sequence:
#
# PCOD8185558 Si02
#       8
#     8   8   8   8   8   8   8   4
#     4  11  26  46  73 102 137 179 238 301 361 432
#     4  11  23  41  65  98 140 185 230 277 339 412
#     4  11  24  45  70  99 134 177 228 292 355 419
#     4  11  25  41  69  96 143 186 234 279 347 413
#     4  11  22  41  69  96 136 183 225 281 351 416
#     4  11  25  39  63 102 138 177 233 281 334 409
#     4  12  25  47  71 104 139 186 236 295 359 428
#     4  12  24  46  68 100 144 190 230 292 356 416
#
# _framework density 22.825842000000002
#
# number of rings (size 3 to 8) (size 9 to 14) (size 15 to 20)
#    0.000    0.800    2.000    5.200    1.867    2.667 
#    0.000    0.000    0.000    0.000    0.000    0.000 
#    0.000    0.000    0.000    0.000    0.000    0.000 
#
# Total GULP energy -371704.254446 kJ/mol
# GULP energy per Si atom -12390.141815 kJ/mol
# Density = 2.277389 g / cm^3
# Si number density = 22.825842 Si / 1000 Ang^3
#
#
#
# Elastic Constant Matrix: (Units=GPa)
#
#
# Indices 1 2 3 4 5 6 
#
# 1 121.8829 49.6702 37.7193 0.0000 0.0000 0.0000
# 2 49.6702 111.8240 32.7653 0.0000 0.0000 0.0000
# 3 37.7193 32.7653 97.4883 0.0000 0.0000 0.0000
# 4 0.0000 0.0000 0.0000 23.1160 0.0000 0.0000
# 5 0.0000 0.0000 0.0000 0.0000 22.9572 0.0000
# 6 0.0000 0.0000 0.0000 0.0000 0.0000 53.9968
#
#
#
# Elastic Compliance Matrix: (Units=1/GPa)
#
#
# Indices 1 2 3 4 5 6 
#
# 1 0.010671 -0.003916 -0.002813 0.000000 0.000000 0.000000
# 2 -0.003916 0.011356 -0.002302 0.000000 0.000000 0.000000
# 3 -0.002813 -0.002302 0.012119 0.000000 0.000000 0.000000
# 4 0.000000 0.000000 0.000000 0.043260 0.000000 0.000000
# 5 0.000000 0.000000 0.000000 0.000000 0.043559 0.000000
# 6 0.000000 0.000000 0.000000 0.000000 0.000000 0.018520
#
#
# Mechanical properties :
#
#
# Convention : Reuss Voigt Hill
#
# Bulk Modulus (GPa) = 62.16397 63.50051 62.83224
# Shear Modulus (GPa) = 30.69219 34.08334 32.38777
#
# Velocity S-wave (km/s) = 3.67089 3.86838 3.77093
# Velocity P-wave (km/s) = 6.72759 6.91610 6.82249
#
# Compressibility (1/GPa) = 0.01608649
#
# Stress axis : x y z
#
# Youngs Moduli (GPa) = 93.71429 88.05670 82.51169
#
# Poissons Ratio (x) = 0.34480 0.23207
# Poissons Ratio (y) = 0.36695 0.18992
# Poissons Ratio (z) = 0.26358 0.20269
#
# Static dielectric constant tensor:
#      x y z
#    x 4.463940 0.000000 0.000000 
#    y 0.000000 4.077940 0.000000 
#    z 0.000000 0.000000 4.010060 
# 
# 
# High freq. dielectric constant tensor:
#      x y z
#    x 1.917310 0.000000 0.000000 
#    y 0.000000 1.896620 0.000000 
#    z 0.000000 0.000000 1.896770 
# 
# From -- ./inp_files/12539.got.cif
#   From: 2010.03.12/outbox.cif.g09.slc.cpg/sg41_7_cif.got.tgz:12539.got - 2010.04.14 01:55:53.
