data_PCOD8185413
_publ_section_title
;
Structure prediction by ZEFSAII (Michael W. Deem and Ramdas Pophale) SiO2 
 PCOD8185413
Probable space group: A B A 2
;
_chemical_formula_sum "Si O2"
_cell_formula_units_Z 48
_cell_length_a 23.377034
_cell_length_b 12.642930
_cell_length_c 7.728448
_cell_angle_alpha 90.000000
_cell_angle_beta 90.000000
_cell_angle_gamma 90.000000
_cell_volume 2284.175300
_symmetry_space_group_name_H-M "A B A 2"
_symmetry_group_IT_number 41
_symmetry_cell_setting 'orthorhombic'
loop_
_space_group_symop_operation_xyz
x,y,z
-x,-y,z
1/2-x,y,1/2+z
1/2+x,-y,1/2+z
x,1/2+y,1/2+z
-x,1/2-y,1/2+z
1/2-x,1/2+y,z
1/2+x,1/2-y,z
loop_
_atom_site_type_symbol
_atom_site_label
_atom_site_fract_x
_atom_site_fract_y
_atom_site_fract_z
Si Si1 0.564285 0.279081 0.349430
Si Si2 0.190514 0.242789 0.244926
Si Si3 0.019805 0.115974 0.998273
Si Si4 0.940466 0.440866 0.154411
Si Si5 0.229768 0.108446 0.949916
Si Si6 0.819339 0.522381 0.150307
O O1 0.631590 0.257069 0.348651
O O2 0.534582 0.170654 0.405987
O O3 0.550786 0.361245 0.498625
O O4 0.542615 0.318702 0.162330
O O5 0.243505 0.215822 0.370176
O O6 0.201141 0.357133 0.162054
O O7 0.189647 0.147621 0.105335
O O8 0.068270 0.112403 0.845539
O O9 0.000000 0.000000 0.062865
O O10 0.887038 0.517084 0.108159
O O11 0.000000 0.500000 0.172186
O O12 0.189350 0.042159 0.826075
O O13 0.282328 0.032467 0.001497
#
# Coordination Sequence:
#
# PCOD8185413 Si02
#       6
#     8   8   8   8   8   8
#     4  12  23  42  66  94 129 170 219 263 324 393
#     4  11  22  40  65  91 124 168 206 266 325 378
#     4  11  24  42  63  92 129 168 214 264 319 387
#     4  11  23  43  67  96 133 174 215 271 330 388
#     4  10  23  41  64  95 126 162 219 263 325 386
#     4  11  22  42  65  94 129 166 213 269 322 384
#
# _framework density 21.014147999999999
#
# number of rings (size 3 to 8) (size 9 to 14) (size 15 to 20)
#    0.000    1.000    3.333    4.500    0.000    0.000 
#    0.000    0.000    0.000    0.000    0.000    0.000 
#    0.000    0.000    0.000    0.000    0.000    0.000 
#
# Total GULP energy -297570.497943 kJ/mol
# GULP energy per Si atom -12398.770748 kJ/mol
# Density = 2.096632 g / cm^3
# Si number density = 21.014148 Si / 1000 Ang^3
#
#
#
# Elastic Constant Matrix: (Units=GPa)
#
#
# Indices 1 2 3 4 5 6 
#
# 1 83.3783 28.9805 9.6205 0.0000 0.0000 0.0000
# 2 28.9805 100.9000 32.5571 0.0000 0.0000 0.0000
# 3 9.6205 32.5571 79.0410 0.0000 0.0000 0.0000
# 4 0.0000 0.0000 0.0000 25.8987 0.0000 0.0000
# 5 0.0000 0.0000 0.0000 0.0000 15.0444 0.0000
# 6 0.0000 0.0000 0.0000 0.0000 0.0000 19.7737
#
#
#
# Elastic Compliance Matrix: (Units=1/GPa)
#
#
# Indices 1 2 3 4 5 6 
#
# 1 0.013324 -0.003810 -0.000052 0.000000 0.000000 0.000000
# 2 -0.003810 0.012519 -0.004693 0.000000 0.000000 0.000000
# 3 -0.000052 -0.004693 0.014591 0.000000 0.000000 0.000000
# 4 0.000000 0.000000 0.000000 0.038612 0.000000 0.000000
# 5 0.000000 0.000000 0.000000 0.000000 0.066470 0.000000
# 6 0.000000 0.000000 0.000000 0.000000 0.000000 0.050572
#
#
# Mechanical properties :
#
#
# Convention : Reuss Voigt Hill
#
# Bulk Modulus (GPa) = 42.87508 45.07062 43.97285
# Shear Modulus (GPa) = 22.62713 24.95411 23.79062
#
# Velocity S-wave (km/s) = 3.28496 3.44974 3.36835
# Velocity P-wave (km/s) = 5.90213 6.11244 6.00821
#
# Compressibility (1/GPa) = 0.02332357
#
# Stress axis : x y z
#
# Youngs Moduli (GPa) = 75.05347 79.87612 68.53493
#
# Poissons Ratio (x) = 0.30433 0.00359
# Poissons Ratio (y) = 0.28595 0.32164
# Poissons Ratio (z) = 0.00393 0.37486
#
# Static dielectric constant tensor:
#      x y z
#    x 3.708880 0.000000 0.000000 
#    y 0.000000 3.901340 0.000000 
#    z 0.000000 0.000000 4.171670 
# 
# 
# High freq. dielectric constant tensor:
#      x y z
#    x 1.824390 0.000000 0.000000 
#    y 0.000000 1.826710 0.000000 
#    z 0.000000 0.000000 1.832380 
# 
# From -- ./inp_files/3597.got.cif
#   From: 2010.03.12/outbox.cif.g09.slc.cpg/sg41_2_cif.got.tgz:3597.got - 2010.04.14 01:55:53.
