data_PCOD8185091
_publ_section_title
;
Structure prediction by ZEFSAII (Michael W. Deem and Ramdas Pophale) SiO2 
 PCOD8185091
Probable space group: A B A 2
;
_chemical_formula_sum "Si O2"
_cell_formula_units_Z 64
_cell_length_a 20.626837
_cell_length_b 12.593143
_cell_length_c 12.825783
_cell_angle_alpha 90.000000
_cell_angle_beta 90.000000
_cell_angle_gamma 90.000000
_cell_volume 3331.583169
_symmetry_space_group_name_H-M "A B A 2"
_symmetry_group_IT_number 41
_symmetry_cell_setting 'orthorhombic'
loop_
_space_group_symop_operation_xyz
x,y,z
-x,-y,z
1/2-x,y,1/2+z
1/2+x,-y,1/2+z
x,1/2+y,1/2+z
-x,1/2-y,1/2+z
1/2-x,1/2+y,z
1/2+x,1/2-y,z
loop_
_atom_site_type_symbol
_atom_site_label
_atom_site_fract_x
_atom_site_fract_y
_atom_site_fract_z
Si Si1 0.678134 0.748367 0.147050
Si Si2 0.442557 0.581460 0.989706
Si Si3 0.440269 0.666752 0.213482
Si Si4 0.430506 0.984331 0.880112
Si Si5 0.199268 0.664186 0.743196
Si Si6 0.065893 0.249843 0.806556
Si Si7 0.687093 0.012195 0.571795
Si Si8 0.692495 0.919733 0.969293
O O1 0.744711 0.754683 0.211644
O O2 0.617293 0.781787 0.217996
O O3 0.671339 0.630783 0.104548
O O4 0.681968 0.827242 0.051108
O O5 0.500000 0.500000 0.962414
O O6 0.434033 0.663297 0.896269
O O7 0.460633 0.644354 0.094907
O O8 0.373844 0.524071 0.003094
O O9 0.433996 0.554635 0.274679
O O10 0.370007 0.723397 0.225576
O O11 0.493467 0.745516 0.260228
O O12 0.375276 0.019237 0.959747
O O13 0.500000 0.000000 0.937459
O O14 0.414507 0.864064 0.851183
O O15 0.197506 0.557336 0.674849
O O16 0.213199 0.633332 0.861439
O O17 0.751961 0.003008 0.502415
#
# Coordination Sequence:
#
# PCOD8185091 Si02
#       8
#     8   8   8   8   8   8   8   8
#     4  11  22  37  58  85 115 149 188 231 282 337
#     4  11  22  38  58  82 112 148 190 232 278 334
#     4   9  19  38  60  81 109 146 190 230 273 339
#     4   9  19  37  59  84 114 151 189 226 273 336
#     4   9  20  38  55  81 114 144 189 236 275 330
#     4  11  22  37  59  85 114 150 187 230 283 336
#     4  10  22  38  58  81 113 153 187 226 278 339
#     4  10  21  37  59  87 113 143 189 239 279 323
#
# _framework density 19.210086
#
# number of rings (size 3 to 8) (size 9 to 14) (size 15 to 20)
#    0.000    2.000    0.000    4.875    0.000   11.000 
#    0.000    4.375    0.000    0.000    0.000    0.000 
#    0.000    0.000    0.000    0.000    0.000    0.000 
#
# Total GULP energy -396814.967557 kJ/mol
# GULP energy per Si atom -12400.467736 kJ/mol
# Density = 1.916636 g / cm^3
# Si number density = 19.210086 Si / 1000 Ang^3
#
#
#
# Elastic Constant Matrix: (Units=GPa)
#
#
# Indices 1 2 3 4 5 6 
#
# 1 153.6595 39.8504 71.4016 0.0000 0.0000 0.0000
# 2 39.8504 65.3850 56.8764 0.0000 0.0000 0.0000
# 3 71.4016 56.8764 123.1284 0.0000 0.0000 0.0000
# 4 0.0000 0.0000 0.0000 19.7649 0.0000 0.0000
# 5 0.0000 0.0000 0.0000 0.0000 35.1954 0.0000
# 6 0.0000 0.0000 0.0000 0.0000 0.0000 31.9291
#
#
#
# Elastic Compliance Matrix: (Units=1/GPa)
#
#
# Indices 1 2 3 4 5 6 
#
# 1 0.009005 -0.001581 -0.004492 0.000000 0.000000 0.000000
# 2 -0.001581 0.025845 -0.011022 0.000000 0.000000 0.000000
# 3 -0.004492 -0.011022 0.015817 0.000000 0.000000 0.000000
# 4 0.000000 0.000000 0.000000 0.050595 0.000000 0.000000
# 5 0.000000 0.000000 0.000000 0.000000 0.028413 0.000000
# 6 0.000000 0.000000 0.000000 0.000000 0.000000 0.031319
#
#
# Mechanical properties :
#
#
# Convention : Reuss Voigt Hill
#
# Bulk Modulus (GPa) = 60.68427 75.38108 68.03267
# Shear Modulus (GPa) = 24.91573 28.98084 26.94829
#
# Velocity S-wave (km/s) = 3.60531 3.88832 3.74949
# Velocity P-wave (km/s) = 6.99924 7.71260 7.36457
#
# Compressibility (1/GPa) = 0.01647874
#
# Stress axis : x y z
#
# Youngs Moduli (GPa) = 111.04802 38.69204 63.22135
#
# Poissons Ratio (x) = 0.06118 0.28396
# Poissons Ratio (y) = 0.17560 0.69680
# Poissons Ratio (z) = 0.49878 0.42645
#
# Static dielectric constant tensor:
#      x y z
#    x 4.074200 0.000000 0.000000 
#    y 0.000000 3.253100 0.000000 
#    z 0.000000 0.000000 3.498160 
# 
# 
# High freq. dielectric constant tensor:
#      x y z
#    x 1.773930 0.000000 0.000000 
#    y 0.000000 1.726420 0.000000 
#    z 0.000000 0.000000 1.746980 
# 
# From -- ./inp_files/6482.got.cif
#   From: 2010.03.12/outbox.cif.g09.slc.cpg/sg41_4_cif.got.tgz:6482.got - 2010.04.14 01:55:53.
