data_PCOD8185689
_publ_section_title
;
Structure prediction by ZEFSAII (Michael W. Deem and Ramdas Pophale) SiO2 
 PCOD8185689
Probable space group: A B A 2
;
_chemical_formula_sum "Si O2"
_cell_formula_units_Z 48
_cell_length_a 21.603062
_cell_length_b 10.163388
_cell_length_c 9.271594
_cell_angle_alpha 90.000000
_cell_angle_beta 90.000000
_cell_angle_gamma 90.000000
_cell_volume 2035.673970
_symmetry_space_group_name_H-M "A B A 2"
_symmetry_group_IT_number 41
_symmetry_cell_setting 'orthorhombic'
loop_
_space_group_symop_operation_xyz
x,y,z
-x,-y,z
1/2-x,y,1/2+z
1/2+x,-y,1/2+z
x,1/2+y,1/2+z
-x,1/2-y,1/2+z
1/2-x,1/2+y,z
1/2+x,1/2-y,z
loop_
_atom_site_type_symbol
_atom_site_label
_atom_site_fract_x
_atom_site_fract_y
_atom_site_fract_z
Si Si1 0.300023 0.989890 0.969260
Si Si2 0.955859 0.763851 0.470850
Si Si3 0.500000 0.000000 0.816202
Si Si4 0.000000 0.500000 0.381100
Si Si5 0.388727 0.596392 0.706572
Si Si6 0.690565 0.810707 0.467616
Si Si7 0.379997 0.114556 0.741073
O O1 0.280392 0.836084 0.967422
O O2 0.324117 0.031227 0.811131
O O3 0.241781 0.080927 0.006325
O O4 0.353784 0.009112 0.087275
O O5 0.927839 0.787945 0.629253
O O6 0.006038 0.874906 0.424551
O O7 0.992935 0.628027 0.480706
O O8 0.900068 0.768390 0.351956
O O9 0.438404 0.015197 0.717870
O O10 0.062270 0.504219 0.286932
O O11 0.339217 0.661497 0.812925
O O12 0.638252 0.822340 0.589821
#
# Coordination Sequence:
#
# PCOD8185689 Si02
#       7
#     8   8   4   4   8   8   8
#     4  11  27  49  73 102 150 191 247 309 365 426
#     4   9  22  45  71 106 147 191 230 294 366 433
#     4   8  19  45  78 100 149 191 220 296 371 427
#     4  12  25  41  74 116 143 185 248 292 373 451
#     4  11  27  45  75 107 149 191 243 306 365 440
#     4  12  27  47  75 107 141 196 252 305 362 437
#     4   9  22  44  77 100 146 194 237 295 371 428
#
# _framework density 23.579415000000001
#
# number of rings (size 3 to 8) (size 9 to 14) (size 15 to 20)
#    1.000    0.667    0.000    2.500    2.333   11.333 
#    0.000    1.667    0.000    1.000    0.000    0.000 
#    0.000    0.000    0.000    0.000    0.000    0.000 
#
# Total GULP energy -297557.206705 kJ/mol
# GULP energy per Si atom -12398.216946 kJ/mol
# Density = 2.352575 g / cm^3
# Si number density = 23.579415 Si / 1000 Ang^3
#
#
#
# Elastic Constant Matrix: (Units=GPa)
#
#
# Indices 1 2 3 4 5 6 
#
# 1 85.2349 49.3142 8.0160 0.0000 0.0000 0.0000
# 2 49.3142 176.7802 27.9670 0.0000 0.0000 0.0000
# 3 8.0160 27.9670 73.4058 0.0000 0.0000 0.0000
# 4 0.0000 0.0000 0.0000 11.3968 0.0000 0.0000
# 5 0.0000 0.0000 0.0000 0.0000 32.4578 0.0000
# 6 0.0000 0.0000 0.0000 0.0000 0.0000 33.8593
#
#
#
# Elastic Compliance Matrix: (Units=1/GPa)
#
#
# Indices 1 2 3 4 5 6 
#
# 1 0.013990 -0.003896 -0.000043 0.000000 0.000000 0.000000
# 2 -0.003896 0.007104 -0.002281 0.000000 0.000000 0.000000
# 3 -0.000043 -0.002281 0.014497 0.000000 0.000000 0.000000
# 4 0.000000 0.000000 0.000000 0.087744 0.000000 0.000000
# 5 0.000000 0.000000 0.000000 0.000000 0.030809 0.000000
# 6 0.000000 0.000000 0.000000 0.000000 0.000000 0.029534
#
#
# Mechanical properties :
#
#
# Convention : Reuss Voigt Hill
#
# Bulk Modulus (GPa) = 43.19587 56.22393 49.70990
# Shear Modulus (GPa) = 24.52945 32.21770 28.37358
#
# Velocity S-wave (km/s) = 3.22885 3.70043 3.47265
# Velocity P-wave (km/s) = 5.67977 6.49260 6.09973
#
# Compressibility (1/GPa) = 0.02315036
#
# Stress axis : x y z
#
# Youngs Moduli (GPa) = 71.47764 140.75727 68.98073
#
# Poissons Ratio (x) = 0.54837 0.00300
# Poissons Ratio (y) = 0.27847 0.15737
# Poissons Ratio (z) = 0.00311 0.32111
#
# Static dielectric constant tensor:
#      x y z
#    x 4.159660 0.000000 0.000000 
#    y 0.000000 3.979370 0.000000 
#    z 0.000000 0.000000 4.106490 
# 
# 
# High freq. dielectric constant tensor:
#      x y z
#    x 1.928610 0.000000 0.000000 
#    y 0.000000 1.925280 0.000000 
#    z 0.000000 0.000000 1.938100 
# 
# From -- ./inp_files/6419.got.cif
#   From: 2010.03.12/outbox.cif.g09.slc.cpg/sg41_4_cif.got.tgz:6419.got - 2010.04.14 01:55:53.
