data_PCOD8185922
_publ_section_title
;
Structure prediction by ZEFSAII (Michael W. Deem and Ramdas Pophale) SiO2 
 PCOD8185922
Probable space group: F M M 2
;
_chemical_formula_sum "Si O2"
_cell_formula_units_Z 120
_cell_length_a 25.515840
_cell_length_b 22.352250
_cell_length_c 11.497326
_cell_angle_alpha 90.000000
_cell_angle_beta 90.000000
_cell_angle_gamma 90.000000
_cell_volume 6557.343919
_symmetry_space_group_name_H-M "F M M 2"
_symmetry_group_IT_number 42
_symmetry_cell_setting 'orthorhombic'
loop_
_space_group_symop_operation_xyz
x,y,z
-x,-y,z
-x,y,z
x,-y,z
x,1/2+y,1/2+z
-x,1/2-y,1/2+z
-x,1/2+y,1/2+z
x,1/2-y,1/2+z
1/2+x,y,1/2+z
1/2-x,-y,1/2+z
1/2-x,y,1/2+z
1/2+x,-y,1/2+z
1/2+x,1/2+y,z
1/2-x,1/2-y,z
1/2-x,1/2+y,z
1/2+x,1/2-y,z
loop_
_atom_site_type_symbol
_atom_site_label
_atom_site_fract_x
_atom_site_fract_y
_atom_site_fract_z
Si Si1 0.657335 0.273388 0.045590
Si Si2 0.440344 0.217174 0.699116
Si Si3 0.350959 0.433490 0.726994
Si Si4 0.442118 0.648170 0.671241
Si Si5 0.222229 0.643078 0.382991
Si Si6 0.605883 0.334991 0.425874
Si Si7 0.750000 0.250000 0.221401
Si Si8 0.316777 0.932380 0.962764
O O1 0.603040 0.298246 0.100974
O O2 0.697271 0.249667 0.144276
O O3 0.683252 0.326968 0.975022
O O4 0.646275 0.218334 0.958453
O O5 0.500000 0.203076 0.655330
O O6 0.435024 0.287108 0.730284
O O7 0.429419 0.180157 0.815351
O O8 0.361841 0.500000 0.773262
O O9 0.404410 0.396856 0.737437
O O10 0.307505 0.403523 0.804266
O O11 0.330547 0.434566 0.596937
O O12 0.500000 0.622828 0.689992
O O13 0.432282 0.653272 0.533722
O O14 0.250941 0.691867 0.302888
O O15 0.262957 0.603413 0.454077
O O16 0.638264 0.395156 0.395173
O O17 0.313146 0.000000 0.911485
#
# Coordination Sequence:
#
# PCOD8185922 Si02
#       8
#    16  16  16  16  16  16   8  16
#     4  11  21  33  52  81 109 138 175 220 272 329
#     4  10  20  34  54  80 109 139 173 219 274 328
#     4  10  21  36  52  73 103 136 174 216 254 303
#     4   9  18  32  51  76 103 131 169 216 262 310
#     4  12  21  34  53  76 106 142 175 211 265 324
#     4  10  18  33  53  77 105 136 172 214 267 322
#     4  12  22  34  54  82 112 140 172 220 278 330
#     4  10  21  35  52  76 105 138 178 220 259 309
#
# _framework density 18.300091999999999
#
# number of rings (size 3 to 8) (size 9 to 14) (size 15 to 20)
#    0.000    1.600    0.000    8.400    0.000    0.800 
#    0.000    0.667    0.000    2.000    0.000    0.000 
#    0.000    0.000    0.000    0.000    0.000    0.000 
#
# Total GULP energy -372029.591721 kJ/mol
# GULP energy per Si atom -12400.986391 kJ/mol
# Density = 1.825844 g / cm^3
# Si number density = 18.300092 Si / 1000 Ang^3
#
#
#
# Elastic Constant Matrix: (Units=GPa)
#
#
# Indices 1 2 3 4 5 6 
#
# 1 110.0642 37.2748 14.0538 0.0000 0.0000 0.0000
# 2 37.2748 93.3222 14.9129 -0.0001 0.0000 0.0000
# 3 14.0538 14.9129 28.5034 -0.0001 0.0000 0.0000
# 4 0.0000 -0.0001 -0.0001 19.6851 0.0000 0.0000
# 5 0.0000 0.0000 0.0000 0.0000 23.8653 0.0000
# 6 0.0000 0.0000 0.0000 0.0000 0.0000 11.6766
#
#
#
# Elastic Compliance Matrix: (Units=1/GPa)
#
#
# Indices 1 2 3 4 5 6 
#
# 1 0.010791 -0.003776 -0.003345 0.000000 0.000000 0.000000
# 2 -0.003776 0.013014 -0.004947 0.000000 0.000000 0.000000
# 3 -0.003345 -0.004947 0.039321 0.000000 0.000000 0.000000
# 4 0.000000 0.000000 0.000000 0.050800 0.000000 0.000000
# 5 0.000000 0.000000 0.000000 0.000000 0.041902 0.000000
# 6 0.000000 0.000000 0.000000 0.000000 0.000000 0.085642
#
#
# Mechanical properties :
#
#
# Convention : Reuss Voigt Hill
#
# Bulk Modulus (GPa) = 25.64748 40.48588 33.06668
# Shear Modulus (GPa) = 17.94661 22.08860 20.01761
#
# Velocity S-wave (km/s) = 3.13498 3.47799 3.31093
# Velocity P-wave (km/s) = 5.21052 6.18869 5.72055
#
# Compressibility (1/GPa) = 0.03899019
#
# Stress axis : x y z
#
# Youngs Moduli (GPa) = 92.66567 76.83871 25.43143
#
# Poissons Ratio (x) = 0.29012 0.08508
# Poissons Ratio (y) = 0.34988 0.12582
# Poissons Ratio (z) = 0.31000 0.38015
#
# Static dielectric constant tensor:
#      x y z
#    x 3.529730 0.000000 0.000000 
#    y 0.000000 3.658100 0.000000 
#    z 0.000000 0.000000 3.266470 
# 
# 
# High freq. dielectric constant tensor:
#      x y z
#    x 1.721560 0.000000 0.000000 
#    y 0.000000 1.700990 0.000000 
#    z 0.000000 0.000000 1.695790 
# 
# From -- ./inp_files/9814.got.cif
#   From: 2010.03.12/outbox.cif.g09.slc.cpg/sg42_5_cif.got.tgz:9814.got - 2010.04.14 02:04:31.
