data_PCOD8185437
_publ_section_title
;
Structure prediction by ZEFSAII (Michael W. Deem and Ramdas Pophale) SiO2 
 PCOD8185437
Probable space group: A B A 2
;
_chemical_formula_sum "Si O2"
_cell_formula_units_Z 64
_cell_length_a 15.389173
_cell_length_b 23.678184
_cell_length_c 8.622289
_cell_angle_alpha 90.000000
_cell_angle_beta 90.000000
_cell_angle_gamma 90.000000
_cell_volume 3141.855798
_symmetry_space_group_name_H-M "A B A 2"
_symmetry_group_IT_number 41
_symmetry_cell_setting 'orthorhombic'
loop_
_space_group_symop_operation_xyz
x,y,z
-x,-y,z
1/2-x,y,1/2+z
1/2+x,-y,1/2+z
x,1/2+y,1/2+z
-x,1/2-y,1/2+z
1/2-x,1/2+y,z
1/2+x,1/2-y,z
loop_
_atom_site_type_symbol
_atom_site_label
_atom_site_fract_x
_atom_site_fract_y
_atom_site_fract_z
Si Si1 0.661074 0.136083 0.139760
Si Si2 0.161073 0.863916 0.274331
Si Si3 0.595900 0.250544 0.640189
Si Si4 0.006964 0.565606 0.776851
Si Si5 0.839331 0.865758 0.774853
Si Si6 0.660671 0.865759 0.639240
Si Si7 0.993037 0.434394 0.137243
Si Si8 0.904099 0.750545 0.273902
O O1 0.750000 0.109564 0.207046
O O2 0.582878 0.094826 0.187124
O O3 0.648959 0.197048 0.215375
O O4 0.667896 0.143042 0.957046
O O5 0.148960 0.802951 0.198717
O O6 0.082877 0.905173 0.226967
O O7 0.645493 0.306134 0.693124
O O8 0.499999 0.249998 0.707043
O O9 0.589419 0.249451 0.457046
O O10 0.000000 0.500000 0.738812
O O11 0.083820 0.590823 0.674632
O O12 0.027477 0.576916 0.957047
O O13 0.750002 0.891439 0.707045
O O14 0.916183 0.909177 0.739464
O O15 0.832059 0.856529 0.957047
O O16 0.645497 0.806134 0.720971
O O17 0.000000 0.500000 0.175282
#
# Coordination Sequence:
#
# PCOD8185437 Si02
#       8
#     8   8   8   8   8   8   8   8
#     4  11  23  40  64  93 129 167 209 258 314 376
#     4  11  23  40  64  93 129 167 209 258 314 376
#     4  12  23  39  64  95 130 165 206 255 317 383
#     4  10  23  44  67  92 126 168 214 267 318 371
#     4  12  25  42  66  95 129 169 212 261 317 377
#     4  12  25  42  66  95 129 169 212 261 317 377
#     4  10  23  44  67  92 126 168 214 267 318 371
#     4  12  23  39  64  95 130 165 206 255 317 383
#
# _framework density 20.370125000000002
#
# number of rings (size 3 to 8) (size 9 to 14) (size 15 to 20)
#    0.000    0.750    2.500    6.000    0.000    2.500 
#    0.000    2.500    0.000    0.000    0.000    0.000 
#    0.000    0.000    0.000    0.000    0.000    0.000 
#
# Total GULP energy -397039.476758 kJ/mol
# GULP energy per Si atom -12407.483649 kJ/mol
# Density = 2.032376 g / cm^3
# Si number density = 20.370125 Si / 1000 Ang^3
#
#
#
# Elastic Constant Matrix: (Units=GPa)
#
#
# Indices 1 2 3 4 5 6 
#
# 1 171.3224 53.0595 67.1853 0.0000 0.0000 0.0000
# 2 53.0595 111.2449 28.6804 0.0000 0.0000 0.0000
# 3 67.1853 28.6804 117.7442 0.0000 0.0000 0.0000
# 4 0.0000 0.0000 0.0000 27.0808 0.0000 0.0000
# 5 0.0000 0.0000 0.0000 0.0000 28.1592 0.0000
# 6 0.0000 0.0000 0.0000 0.0000 0.0000 5.5024
#
#
#
# Elastic Compliance Matrix: (Units=1/GPa)
#
#
# Indices 1 2 3 4 5 6 
#
# 1 0.008328 -0.002931 -0.004038 0.000000 0.000000 0.000000
# 2 -0.002931 0.010623 -0.000915 0.000000 0.000000 0.000000
# 3 -0.004038 -0.000915 0.011020 0.000000 0.000000 0.000000
# 4 0.000000 0.000000 0.000000 0.036926 0.000000 0.000000
# 5 0.000000 0.000000 0.000000 0.000000 0.035512 0.000000
# 6 0.000000 0.000000 0.000000 0.000000 0.000000 0.181739
#
#
# Mechanical properties :
#
#
# Convention : Reuss Voigt Hill
#
# Bulk Modulus (GPa) = 70.40924 77.57355 73.99140
# Shear Modulus (GPa) = 16.41212 28.90758 22.65985
#
# Velocity S-wave (km/s) = 2.84156 3.77120 3.33889
# Velocity P-wave (km/s) = 6.73839 7.55826 7.16007
#
# Compressibility (1/GPa) = 0.01420268
#
# Stress axis : x y z
#
# Youngs Moduli (GPa) = 120.07146 94.13395 90.74325
#
# Poissons Ratio (x) = 0.27593 0.36644
# Poissons Ratio (y) = 0.35195 0.08304
# Poissons Ratio (z) = 0.48487 0.08614
#
# Static dielectric constant tensor:
#      x y z
#    x 4.007960 0.000000 0.000000 
#    y 0.000000 3.692690 0.000000 
#    z 0.000000 0.000000 3.763870 
# 
# 
# High freq. dielectric constant tensor:
#      x y z
#    x 1.818030 0.000000 0.000000 
#    y 0.000000 1.790490 0.000000 
#    z 0.000000 0.000000 1.807570 
# 
# From -- ./inp_files/2795.got.cif
#   From: 2010.03.12/outbox.cif.g09.slc.cpg/sg41_2_cif.got.tgz:2795.got - 2010.04.14 01:55:53.
