data_PCOD8185268
_publ_section_title
;
Structure prediction by ZEFSAII (Michael W. Deem and Ramdas Pophale) SiO2 
 PCOD8185268
Probable space group: A B A 2
;
_chemical_formula_sum "Si O2"
_cell_formula_units_Z 56
_cell_length_a 10.901308
_cell_length_b 16.714730
_cell_length_c 14.195434
_cell_angle_alpha 90.000000
_cell_angle_beta 90.000000
_cell_angle_gamma 90.000000
_cell_volume 2586.584380
_symmetry_space_group_name_H-M "A B A 2"
_symmetry_group_IT_number 41
_symmetry_cell_setting 'orthorhombic'
loop_
_space_group_symop_operation_xyz
x,y,z
-x,-y,z
1/2-x,y,1/2+z
1/2+x,-y,1/2+z
x,1/2+y,1/2+z
-x,1/2-y,1/2+z
1/2-x,1/2+y,z
1/2+x,1/2-y,z
loop_
_atom_site_type_symbol
_atom_site_label
_atom_site_fract_x
_atom_site_fract_y
_atom_site_fract_z
Si Si1 0.212273 0.530932 0.200120
Si Si2 0.366202 0.877334 0.700120
Si Si3 0.703002 0.199908 0.047665
Si Si4 0.372952 0.970796 0.391482
Si Si5 0.296998 0.800092 0.352575
Si Si6 0.127048 0.970796 0.508758
Si Si7 0.629358 0.319413 0.200120
O O1 0.326616 0.469642 0.200120
O O2 0.130437 0.516688 0.292125
O O3 0.130437 0.516688 0.108115
O O4 0.253555 0.622994 0.200120
O O5 0.317953 0.832398 0.607413
O O6 0.317953 0.832398 0.792827
O O7 0.511608 0.875416 0.700120
O O8 0.616128 0.124542 0.023442
O O9 0.627683 0.264885 0.106647
O O10 0.750000 0.239288 0.950120
O O11 0.383872 0.875458 0.376798
O O12 0.250000 0.992753 0.450120
O O13 0.500000 0.000000 0.442079
O O14 0.372317 0.735115 0.293593
O O15 0.000000 0.000000 0.458161
#
# Coordination Sequence:
#
# PCOD8185268 Si02
#       7
#     8   8   8   8   8   8   8
#     4  10  22  38  58  87 122 160 202 243 295 358
#     4   9  20  38  57  84 119 156 204 256 296 342
#     4   9  21  39  57  85 121 154 194 254 309 348
#     4  10  22  41  66  91 119 157 202 249 300 359
#     4   9  21  39  57  85 121 154 194 254 309 348
#     4  10  22  41  66  91 119 157 202 249 300 359
#     4  11  22  36  60  87 120 164 205 241 295 364
#
# _framework density 21.650174
#
# number of rings (size 3 to 8) (size 9 to 14) (size 15 to 20)
#    0.000    2.286    0.000    1.714    0.000   13.714 
#    0.000    0.000    0.000    0.000    0.000    0.000 
#    0.000    0.000    0.000    0.000    0.000    0.000 
#
# Total GULP energy -347193.630395 kJ/mol
# GULP energy per Si atom -12399.772514 kJ/mol
# Density = 2.160090 g / cm^3
# Si number density = 21.650174 Si / 1000 Ang^3
#
#
#
# Elastic Constant Matrix: (Units=GPa)
#
#
# Indices 1 2 3 4 5 6 
#
# 1 122.2395 38.4529 28.0371 0.0000 0.0000 0.0000
# 2 38.4529 81.9739 21.4094 0.0000 0.0000 0.0000
# 3 28.0371 21.4094 126.2827 0.0000 0.0000 0.0000
# 4 0.0000 0.0000 0.0000 -13.7888 0.0000 0.0000
# 5 0.0000 0.0000 0.0000 0.0000 17.9163 0.0000
# 6 0.0000 0.0000 0.0000 0.0000 0.0000 28.5458
#
#
#
# Elastic Compliance Matrix: (Units=1/GPa)
#
#
# Indices 1 2 3 4 5 6 
#
# 1 0.009850 -0.004237 -0.001469 0.000000 0.000000 0.000000
# 2 -0.004237 0.014587 -0.001532 0.000000 0.000000 0.000000
# 3 -0.001469 -0.001532 0.008505 0.000000 0.000000 0.000000
# 4 0.000000 0.000000 0.000000 -0.072523 0.000000 0.000000
# 5 0.000000 0.000000 0.000000 0.000000 0.055815 0.000000
# 6 0.000000 0.000000 0.000000 0.000000 0.000000 0.035031
#
#
# Mechanical properties :
#
#
# Convention : Reuss Voigt Hill
#
# Bulk Modulus (GPa) = 54.15441 56.25500 55.20470
# Shear Modulus (GPa) = 69.54411 22.70778 46.12595
#
# Velocity S-wave (km/s) = 5.67375 3.24211 4.62075
# Velocity P-wave (km/s) = 8.24558 6.32891 7.34999
#
# Compressibility (1/GPa) = 0.01846572
#
# Stress axis : x y z
#
# Youngs Moduli (GPa) = 101.51893 68.55531 117.58376
#
# Poissons Ratio (x) = 0.29048 0.17269
# Poissons Ratio (y) = 0.43015 0.18017
# Poissons Ratio (z) = 0.14909 0.10504
#
# Static dielectric constant tensor:
#      x y z
#    x 3.513940 0.000000 0.000000 
#    y 0.000000 3.766090 0.000000 
#    z 0.000000 0.000000 4.172820 
# 
# 
# High freq. dielectric constant tensor:
#      x y z
#    x 1.831200 0.000000 0.000000 
#    y 0.000000 1.842540 0.000000 
#    z 0.000000 0.000000 1.860850 
# 
# From -- ./inp_files/7960.got.cif
#   From: 2010.03.12/outbox.cif.g09.slc.cpg/sg41_4_cif.got.tgz:7960.got - 2010.04.14 01:55:53.
