data_PCOD8185507
_publ_section_title
;
Structure prediction by ZEFSAII (Michael W. Deem and Ramdas Pophale) SiO2 
 PCOD8185507
Probable space group: A B A 2
;
_chemical_formula_sum "Si O2"
_cell_formula_units_Z 32
_cell_length_a 10.883318
_cell_length_b 8.820593
_cell_length_c 11.672629
_cell_angle_alpha 90.000000
_cell_angle_beta 90.000000
_cell_angle_gamma 90.000000
_cell_volume 1120.541085
_symmetry_space_group_name_H-M "A B A 2"
_symmetry_group_IT_number 41
_symmetry_cell_setting 'orthorhombic'
loop_
_space_group_symop_operation_xyz
x,y,z
-x,-y,z
1/2-x,y,1/2+z
1/2+x,-y,1/2+z
x,1/2+y,1/2+z
-x,1/2-y,1/2+z
1/2-x,1/2+y,z
1/2+x,1/2-y,z
loop_
_atom_site_type_symbol
_atom_site_label
_atom_site_fract_x
_atom_site_fract_y
_atom_site_fract_z
Si Si1 0.022239 0.329553 0.955890
Si Si2 0.702019 0.378404 0.079205
Si Si3 0.833275 0.153611 0.223548
Si Si4 0.368536 0.921973 0.386691
O O1 0.075657 0.311935 0.827289
O O2 0.000000 0.500000 0.993669
O O3 0.893609 0.235984 0.955318
O O4 0.111692 0.260823 0.051582
O O5 0.820651 0.305777 0.144100
O O6 0.627476 0.500828 0.156886
O O7 0.726915 0.472786 0.960584
O O8 0.695489 0.118442 0.268396
O O9 0.500000 0.000000 0.367765
#
# Coordination Sequence:
#
# PCOD8185507 Si02
#       4
#     8   8   8   8
#     4  11  26  48  74 109 153 193 243 309 375 448
#     4  11  25  43  73 106 139 186 243 298 361 433
#     4  12  25  47  75 105 144 197 247 301 372 444
#     4  10  24  46  70 106 148 188 244 306 364 439
#
# _framework density 28.557631000000001
#
# number of rings (size 3 to 8) (size 9 to 14) (size 15 to 20)
#    0.000    1.000    0.000    6.000    0.000   16.000 
#    0.000    2.500    0.000    0.000    0.000    0.000 
#    0.000    0.000    0.000    0.000    0.000    0.000 
#
# Total GULP energy -198354.495589 kJ/mol
# GULP energy per Si atom -12397.155974 kJ/mol
# Density = 2.849263 g / cm^3
# Si number density = 28.557631 Si / 1000 Ang^3
#
#
#
# Elastic Constant Matrix: (Units=GPa)
#
#
# Indices 1 2 3 4 5 6 
#
# 1 32.8993 20.8640 10.8819 0.0000 0.0000 0.0000
# 2 20.8640 217.9054 34.6076 0.0000 0.0000 0.0000
# 3 10.8819 34.6076 95.1119 0.0000 0.0000 0.0000
# 4 0.0000 0.0000 0.0000 41.6059 0.0000 0.0000
# 5 0.0000 0.0000 0.0000 0.0000 21.1906 0.0000
# 6 0.0000 0.0000 0.0000 0.0000 0.0000 37.4826
#
#
#
# Elastic Compliance Matrix: (Units=1/GPa)
#
#
# Indices 1 2 3 4 5 6 
#
# 1 0.033044 -0.002721 -0.002791 0.000000 0.000000 0.000000
# 2 -0.002721 0.005095 -0.001542 0.000000 0.000000 0.000000
# 3 -0.002791 -0.001542 0.011394 0.000000 0.000000 0.000000
# 4 0.000000 0.000000 0.000000 0.024035 0.000000 0.000000
# 5 0.000000 0.000000 0.000000 0.000000 0.047191 0.000000
# 6 0.000000 0.000000 0.000000 0.000000 0.000000 0.026679
#
#
# Mechanical properties :
#
#
# Convention : Reuss Voigt Hill
#
# Bulk Modulus (GPa) = 28.22812 53.18040 40.70426
# Shear Modulus (GPa) = 28.84266 38.69337 33.76802
#
# Velocity S-wave (km/s) = 3.18147 3.68492 3.44241
# Velocity P-wave (km/s) = 4.83753 6.06361 5.48494
#
# Compressibility (1/GPa) = 0.03542567
#
# Stress axis : x y z
#
# Youngs Moduli (GPa) = 30.26241 196.28543 87.76195
#
# Poissons Ratio (x) = 0.53403 0.24492
# Poissons Ratio (y) = 0.08234 0.13537
# Poissons Ratio (z) = 0.08445 0.30276
#
# Static dielectric constant tensor:
#      x y z
#    x 4.848030 0.000000 0.000000 
#    y 0.000000 6.274620 0.000000 
#    z 0.000000 0.000000 5.170790 
# 
# 
# High freq. dielectric constant tensor:
#      x y z
#    x 2.134910 0.000000 0.000000 
#    y 0.000000 2.186880 0.000000 
#    z 0.000000 0.000000 2.165640 
# 
# From -- ./inp_files/5255.got.cif
#   From: 2010.03.12/outbox.cif.g09.slc.cpg/sg41_3_cif.got.tgz:5255.got - 2010.04.14 01:55:53.
