data_PCOD8185100
_publ_section_title
;
Structure prediction by ZEFSAII (Michael W. Deem and Ramdas Pophale) SiO2 
 PCOD8185100
Probable space group: A B A 2
;
_chemical_formula_sum "Si O2"
_cell_formula_units_Z 56
_cell_length_a 31.509062
_cell_length_b 15.626581
_cell_length_c 5.250954
_cell_angle_alpha 90.000000
_cell_angle_beta 90.000000
_cell_angle_gamma 90.000000
_cell_volume 2585.459005
_symmetry_space_group_name_H-M "A B A 2"
_symmetry_group_IT_number 41
_symmetry_cell_setting 'orthorhombic'
loop_
_space_group_symop_operation_xyz
x,y,z
-x,-y,z
1/2-x,y,1/2+z
1/2+x,-y,1/2+z
x,1/2+y,1/2+z
-x,1/2-y,1/2+z
1/2-x,1/2+y,z
1/2+x,1/2-y,z
loop_
_atom_site_type_symbol
_atom_site_label
_atom_site_fract_x
_atom_site_fract_y
_atom_site_fract_z
Si Si1 0.000560 0.697090 0.583070
Si Si2 0.587745 0.398948 0.052659
Si Si3 0.769558 0.665075 0.047496
Si Si4 0.362742 0.397626 0.550265
Si Si5 0.586177 0.599842 0.051819
Si Si6 0.638594 0.900119 0.051309
Si Si7 0.233126 0.643887 0.045108
O O1 0.042345 0.643348 0.530326
O O2 0.999008 0.772141 0.374784
O O3 0.960321 0.637821 0.539734
O O4 0.580460 0.499177 0.056289
O O5 0.611317 0.369403 0.309582
O O6 0.614925 0.371339 0.807390
O O7 0.749978 0.619381 0.297466
O O8 0.819974 0.656905 0.047661
O O9 0.755952 0.764016 0.048339
O O10 0.389564 0.368824 0.304423
O O11 0.352402 0.498494 0.545214
O O12 0.388249 0.370703 0.802242
O O13 0.682568 0.848826 0.041818
O O14 0.249605 0.593583 0.296069
#
# Coordination Sequence:
#
# PCOD8185100 Si02
#       7
#     8   8   8   8   8   8   8
#     4  12  25  44  61 102 132 160 206 254 309 374
#     4  10  22  43  67  91 125 169 208 252 311 366
#     4  10  21  38  54  85 122 158 206 245 316 367
#     4  10  21  39  64  91 118 162 216 257 299 364
#     4  10  22  43  67  91 125 169 208 252 311 366
#     4  10  21  39  64  91 118 162 216 257 299 364
#     4  10  21  38  54  85 122 158 206 245 316 367
#
# _framework density 21.659596000000001
#
# number of rings (size 3 to 8) (size 9 to 14) (size 15 to 20)
#    0.000    1.714    0.000    3.857    0.000    1.143 
#   30.857    5.714    0.000    0.000    0.000    0.000 
#    0.000    0.000    0.000    0.000    0.000    0.000 
#
# Total GULP energy -347229.841740 kJ/mol
# GULP energy per Si atom -12401.065776 kJ/mol
# Density = 2.161030 g / cm^3
# Si number density = 21.659596 Si / 1000 Ang^3
#
#
#
# Elastic Constant Matrix: (Units=GPa)
#
#
# Indices 1 2 3 4 5 6 
#
# 1 180.2326 39.6011 65.7841 0.0000 0.0000 0.0000
# 2 39.6011 26.8445 17.7354 0.0000 0.0000 0.0000
# 3 65.7841 17.7354 206.7311 0.0000 0.0000 0.0000
# 4 0.0000 0.0000 0.0000 6.7894 0.0000 0.0000
# 5 0.0000 0.0000 0.0000 0.0000 39.4663 0.0000
# 6 0.0000 0.0000 0.0000 0.0000 0.0000 13.7317
#
#
#
# Elastic Compliance Matrix: (Units=1/GPa)
#
#
# Indices 1 2 3 4 5 6 
#
# 1 0.008790 -0.011787 -0.001786 0.000000 0.000000 0.000000
# 2 -0.011787 0.055296 -0.000993 0.000000 0.000000 0.000000
# 3 -0.001786 -0.000993 0.005491 0.000000 0.000000 0.000000
# 4 0.000000 0.000000 0.000000 0.147289 0.000000 0.000000
# 5 0.000000 0.000000 0.000000 0.000000 0.025338 0.000000
# 6 0.000000 0.000000 0.000000 0.000000 0.000000 0.072824
#
#
# Mechanical properties :
#
#
# Convention : Reuss Voigt Hill
#
# Bulk Modulus (GPa) = 24.72512 73.33881 49.03197
# Shear Modulus (GPa) = 13.98043 31.37665 22.67854
#
# Velocity S-wave (km/s) = 2.54335 3.81021 3.23932
# Velocity P-wave (km/s) = 4.47939 7.30001 6.05620
#
# Compressibility (1/GPa) = 0.04044469
#
# Stress axis : x y z
#
# Youngs Moduli (GPa) = 113.76322 18.08436 182.12684
#
# Poissons Ratio (x) = 0.21317 0.32526
# Poissons Ratio (y) = 1.34097 0.18085
# Poissons Ratio (z) = 0.20317 0.01796
#
# Static dielectric constant tensor:
#      x y z
#    x 3.884890 0.000000 0.000000 
#    y 0.000000 3.540670 0.000000 
#    z 0.000000 0.000000 7.402660 
# 
# 
# High freq. dielectric constant tensor:
#      x y z
#    x 1.863830 0.000000 0.000000 
#    y 0.000000 1.826120 0.000000 
#    z 0.000000 0.000000 1.884210 
# 
# From -- ./inp_files/1360.got.cif
#   From: 2010.03.12/outbox.cif.g09.slc.cpg/sg41_1_cif.got.tgz:1360.got - 2010.04.14 01:55:53.
