data_PCOD8185399
_publ_section_title
;
Structure prediction by ZEFSAII (Michael W. Deem and Ramdas Pophale) SiO2 
 PCOD8185399
Probable space group: A B A 2
;
_chemical_formula_sum "Si O2"
_cell_formula_units_Z 64
_cell_length_a 15.750307
_cell_length_b 12.131475
_cell_length_c 14.298746
_cell_angle_alpha 90.000000
_cell_angle_beta 90.000000
_cell_angle_gamma 90.000000
_cell_volume 2732.125108
_symmetry_space_group_name_H-M "A B A 2"
_symmetry_group_IT_number 41
_symmetry_cell_setting 'orthorhombic'
loop_
_space_group_symop_operation_xyz
x,y,z
-x,-y,z
1/2-x,y,1/2+z
1/2+x,-y,1/2+z
x,1/2+y,1/2+z
-x,1/2-y,1/2+z
1/2-x,1/2+y,z
1/2+x,1/2-y,z
loop_
_atom_site_type_symbol
_atom_site_label
_atom_site_fract_x
_atom_site_fract_y
_atom_site_fract_z
Si Si1 0.400983 0.478900 0.373850
Si Si2 0.715249 0.326668 0.032760
Si Si3 0.037436 0.734721 0.095951
Si Si4 0.463917 0.622491 0.940135
Si Si5 0.865337 0.682992 0.181782
Si Si6 0.362306 0.523458 0.573425
Si Si7 0.381104 0.750084 0.782884
Si Si8 0.705760 0.806031 0.843622
O O1 0.500000 0.500000 0.355382
O O2 0.377945 0.449964 0.481109
O O3 0.367797 0.371760 0.321696
O O4 0.348466 0.582717 0.335395
O O5 0.627613 0.374898 0.991021
O O6 0.704829 0.234021 0.111603
O O7 0.767735 0.427432 0.076962
O O8 0.776052 0.274642 0.951681
O O9 0.061402 0.611738 0.064546
O O10 0.107057 0.768701 0.172396
O O11 0.032284 0.812343 0.004715
O O12 0.951704 0.742363 0.154588
O O13 0.500000 0.500000 0.924688
O O14 0.456004 0.684813 0.839584
O O15 0.871682 0.551701 0.165770
O O16 0.843989 0.707546 0.290172
O O17 0.296310 0.677009 0.793262
#
# Coordination Sequence:
#
# PCOD8185399 Si02
#       8
#     8   8   8   8   8   8   8   8
#     4  11  22  43  69  93 129 179 225 269 329 409
#     4   9  22  42  61  91 129 169 216 263 326 397
#     4  11  24  41  64  96 129 167 217 268 330 395
#     4  10  23  44  67  94 133 172 216 274 332 393
#     4  11  22  40  63  92 128 168 217 271 323 392
#     4  11  22  40  66  93 127 170 215 272 329 385
#     4  11  24  44  64  96 135 171 220 276 331 400
#     4  10  23  40  63  93 127 170 216 267 326 383
#
# _framework density 23.424987999999999
#
# number of rings (size 3 to 8) (size 9 to 14) (size 15 to 20)
#    0.000    1.500    0.000    5.625    0.000    8.500 
#    0.000   12.500    0.000    0.000    0.000    0.000 
#    0.000    0.000    0.000    0.000    0.000    0.000 
#
# Total GULP energy -396704.950561 kJ/mol
# GULP energy per Si atom -12397.029705 kJ/mol
# Density = 2.337167 g / cm^3
# Si number density = 23.424988 Si / 1000 Ang^3
#
#
#
# Elastic Constant Matrix: (Units=GPa)
#
#
# Indices 1 2 3 4 5 6 
#
# 1 87.4997 27.0695 2.9257 0.0000 0.0000 0.0000
# 2 27.0695 107.6416 20.3629 0.0000 0.0000 0.0000
# 3 2.9257 20.3629 50.1933 0.0000 0.0000 0.0000
# 4 0.0000 0.0000 0.0000 33.2277 0.0000 0.0000
# 5 0.0000 0.0000 0.0000 0.0000 35.3163 0.0000
# 6 0.0000 0.0000 0.0000 0.0000 0.0000 35.5968
#
#
#
# Elastic Compliance Matrix: (Units=1/GPa)
#
#
# Indices 1 2 3 4 5 6 
#
# 1 0.012409 -0.003232 0.000588 0.000000 0.000000 0.000000
# 2 -0.003232 0.010904 -0.004235 0.000000 0.000000 0.000000
# 3 0.000588 -0.004235 0.021607 0.000000 0.000000 0.000000
# 4 0.000000 0.000000 0.000000 0.030095 0.000000 0.000000
# 5 0.000000 0.000000 0.000000 0.000000 0.028316 0.000000
# 6 0.000000 0.000000 0.000000 0.000000 0.000000 0.028092
#
#
# Mechanical properties :
#
#
# Convention : Reuss Voigt Hill
#
# Bulk Modulus (GPa) = 32.09113 38.45008 35.27061
# Shear Modulus (GPa) = 32.14020 33.82661 32.98341
#
# Velocity S-wave (km/s) = 3.70813 3.80417 3.75646
# Velocity P-wave (km/s) = 5.66242 5.97875 5.82273
#
# Compressibility (1/GPa) = 0.03116126
#
# Stress axis : x y z
#
# Youngs Moduli (GPa) = 80.58833 91.70954 46.28146
#
# Poissons Ratio (x) = 0.29638 -0.02720
# Poissons Ratio (y) = 0.26044 0.19601
# Poissons Ratio (z) = -0.04737 0.38841
#
# Static dielectric constant tensor:
#      x y z
#    x 4.429630 0.000000 0.000000 
#    y 0.000000 3.942940 0.000000 
#    z 0.000000 0.000000 4.413450 
# 
# 
# High freq. dielectric constant tensor:
#      x y z
#    x 1.940930 0.000000 0.000000 
#    y 0.000000 1.907170 0.000000 
#    z 0.000000 0.000000 1.933160 
# 
# From -- ./inp_files/8826.got.cif
#   From: 2010.03.12/outbox.cif.g09.slc.cpg/sg41_5_cif.got.tgz:8826.got - 2010.04.14 01:55:53.
