data_PCOD8185952
_publ_section_title
;
Structure prediction by ZEFSAII (Michael W. Deem and Ramdas Pophale) SiO2 
 PCOD8185952
Probable space group: F M M 2
;
_chemical_formula_sum "Si O2"
_cell_formula_units_Z 56
_cell_length_a 13.895660
_cell_length_b 5.230986
_cell_length_c 34.307537
_cell_angle_alpha 90.000000
_cell_angle_beta 90.000000
_cell_angle_gamma 90.000000
_cell_volume 2493.746350
_symmetry_space_group_name_H-M "F M M 2"
_symmetry_group_IT_number 42
_symmetry_cell_setting 'orthorhombic'
loop_
_space_group_symop_operation_xyz
x,y,z
-x,-y,z
-x,y,z
x,-y,z
x,1/2+y,1/2+z
-x,1/2-y,1/2+z
-x,1/2+y,1/2+z
x,1/2-y,1/2+z
1/2+x,y,1/2+z
1/2-x,-y,1/2+z
1/2-x,y,1/2+z
1/2+x,-y,1/2+z
1/2+x,1/2+y,z
1/2-x,1/2-y,z
1/2-x,1/2+y,z
1/2+x,1/2-y,z
loop_
_atom_site_type_symbol
_atom_site_label
_atom_site_fract_x
_atom_site_fract_y
_atom_site_fract_z
Si Si1 0.858299 0.500000 0.666538
Si Si2 0.809435 0.000000 0.421080
Si Si3 0.387116 0.000000 0.287813
Si Si4 0.315414 0.000000 0.578234
Si Si5 0.853661 0.500000 0.200112
Si Si6 0.386714 0.000000 0.835489
Si Si7 0.000000 0.500000 0.523521
Si Si8 0.500000 0.500000 0.471366
O O1 0.866477 0.500000 0.620185
O O2 0.910449 0.748074 0.685369
O O3 0.747475 0.500000 0.678384
O O4 0.750000 0.250000 0.433218
O O5 0.828605 0.000000 0.375223
O O6 0.908221 0.000000 0.443877
O O7 0.355362 0.249982 0.311529
O O8 0.500000 0.000000 0.279489
O O9 0.335144 0.000000 0.246228
O O10 0.250000 0.750000 0.572138
O O11 0.402576 0.000000 0.548201
O O12 0.500000 0.000000 0.844330
O O13 0.000000 0.750348 0.497470
#
# Coordination Sequence:
#
# PCOD8185952 Si02
#       8
#     8   8   8   8   8   8   4   4
#     4  10  19  37  58  82 125 185 226 273 359 388
#     4  12  26  47  78 108 139 194 240 276 361 438
#     4  10  21  36  59  90 134 185 234 296 360 391
#     4  12  23  47  74 101 150 186 231 298 349 435
#     4  10  18  35  54  84 122 173 236 271 330 409
#     4  10  21  43  64  92 140 185 229 297 353 405
#     4  12  30  46  78 120 133 188 239 274 382 432
#     4  12  28  54  74 110 157 172 227 312 342 432
#
# _framework density 22.456173
#
# number of rings (size 3 to 8) (size 9 to 14) (size 15 to 20)
#    0.000    1.143    3.571    3.429    0.000    3.429 
#   18.000    0.000    0.000    0.000    0.000    0.000 
#    0.000    0.000    0.000    0.000    0.000    0.000 
#
# Total GULP energy -173600.347989 kJ/mol
# GULP energy per Si atom -12400.024856 kJ/mol
# Density = 2.240506 g / cm^3
# Si number density = 22.456173 Si / 1000 Ang^3
#
#
#
# Elastic Constant Matrix: (Units=GPa)
#
#
# Indices 1 2 3 4 5 6 
#
# 1 97.2427 48.4913 56.3639 0.0000 0.0000 0.0000
# 2 48.4913 262.7577 82.9053 0.0000 0.0000 0.0000
# 3 56.3639 82.9053 157.1098 0.0000 0.0000 0.0000
# 4 0.0000 0.0000 0.0000 897.2263 0.0000 0.0000
# 5 0.0000 0.0000 0.0000 0.0000 -766.3332 0.0000
# 6 0.0000 0.0000 0.0000 0.0000 0.0000 -59.1812
#
#
#
# Elastic Compliance Matrix: (Units=1/GPa)
#
#
# Indices 1 2 3 4 5 6 
#
# 1 0.013260 -0.001135 -0.004158 0.000000 0.000000 0.000000
# 2 -0.001135 0.004663 -0.002053 0.000000 0.000000 0.000000
# 3 -0.004158 -0.002053 0.008940 0.000000 0.000000 0.000000
# 4 0.000000 0.000000 0.000000 0.001115 0.000000 0.000000
# 5 0.000000 0.000000 0.000000 0.000000 -0.001305 0.000000
# 6 0.000000 0.000000 0.000000 0.000000 0.000000 -0.016897
#
#
# Mechanical properties :
#
#
# Convention : Reuss Voigt Hill
#
# Bulk Modulus (GPa) = 82.16959 99.18124 90.67541
# Shear Modulus (GPa) = 175.28337 36.29904 105.79120
#
# Velocity S-wave (km/s) = 8.84450 4.02486 6.87112
# Velocity P-wave (km/s) = 11.87311 8.11553 10.16938
#
# Compressibility (1/GPa) = 0.01216995
#
# Stress axis : x y z
#
# Youngs Moduli (GPa) = 75.41686 214.44561 111.85348
#
# Poissons Ratio (x) = 0.24342 0.46508
# Poissons Ratio (y) = 0.08561 0.22969
# Poissons Ratio (z) = 0.31358 0.44036
#
# Static dielectric constant tensor:
#      x y z
#    x 3.995510 0.000000 0.000000 
#    y 0.000000 -1.302040 0.000000 
#    z 0.000000 0.000000 4.030300 
# 
# 
# High freq. dielectric constant tensor:
#      x y z
#    x 1.887630 0.000000 0.000000 
#    y 0.000000 1.916130 0.000000 
#    z 0.000000 0.000000 1.888560 
# 
# From -- ./inp_files/34259.got.cif
#   From: 2010.03.12/outbox.cif.g09.slc.cpg/sg42_18_cif.got.tgz:34259.got - 2010.04.14 02:04:31.
