data_PCOD8185853
_publ_section_title
;
Structure prediction by ZEFSAII (Michael W. Deem and Ramdas Pophale) SiO2 
 PCOD8185853
Probable space group: F M M 2
;
_chemical_formula_sum "Si O2"
_cell_formula_units_Z 96
_cell_length_a 25.279622
_cell_length_b 8.694509
_cell_length_c 25.590789
_cell_angle_alpha 90.000000
_cell_angle_beta 90.000000
_cell_angle_gamma 90.000000
_cell_volume 5624.699344
_symmetry_space_group_name_H-M "F M M 2"
_symmetry_group_IT_number 42
_symmetry_cell_setting 'orthorhombic'
loop_
_space_group_symop_operation_xyz
x,y,z
-x,-y,z
-x,y,z
x,-y,z
x,1/2+y,1/2+z
-x,1/2-y,1/2+z
-x,1/2+y,1/2+z
x,1/2-y,1/2+z
1/2+x,y,1/2+z
1/2-x,-y,1/2+z
1/2-x,y,1/2+z
1/2+x,-y,1/2+z
1/2+x,1/2+y,z
1/2-x,1/2-y,z
1/2-x,1/2+y,z
1/2+x,1/2-y,z
loop_
_atom_site_type_symbol
_atom_site_label
_atom_site_fract_x
_atom_site_fract_y
_atom_site_fract_z
Si Si1 0.000000 0.332230 0.850531
Si Si2 0.612691 0.183471 0.856947
Si Si3 0.692316 0.681042 0.056784
Si Si4 0.308582 0.182732 0.162206
Si Si5 0.807912 0.182322 0.267399
Si Si6 0.000000 0.330615 0.974235
Si Si7 0.391395 0.180032 0.468722
O O1 0.055590 0.249059 0.836078
O O2 0.000000 0.500000 0.823735
O O3 0.000000 0.347497 0.912588
O O4 0.657315 0.235632 0.816583
O O5 0.626403 0.247859 0.913775
O O6 0.608286 0.000000 0.861487
O O7 0.698011 0.500000 0.065255
O O8 0.750000 0.750000 0.045151
O O9 0.665224 0.754912 0.108796
O O10 0.654617 0.723744 0.008958
O O11 0.250000 0.250000 0.162423
O O12 0.335542 0.248566 0.215020
O O13 0.308847 0.000000 0.163266
O O14 0.750000 0.250000 0.276623
O O15 0.804561 0.000000 0.262283
O O16 0.946893 0.242204 0.991548
O O17 0.000000 0.500000 0.000254
O O18 0.397423 0.000000 0.460956
#
# Coordination Sequence:
#
# PCOD8185853 Si02
#       7
#     8  16  16  16  16   8  16
#     4   7  12  27  47  66  85 112 153 192 222 262
#     4   9  18  31  49  70  94 125 159 193 234 284
#     4  10  20  33  49  71  98 128 160 197 240 287
#     4  10  18  30  49  69  90 121 160 200 237 279
#     4  10  19  31  47  69  96 126 158 194 236 285
#     4   9  17  31  51  70  93 126 163 198 234 282
#     4  10  20  32  49  73 100 127 159 200 241 280
#
# _framework density 17.067578000000001
#
# number of rings (size 3 to 8) (size 9 to 14) (size 15 to 20)
#    0.000    2.500    0.000    6.250    0.000    4.667 
#    0.000    3.333    0.000    1.000    0.000    5.833 
#    0.000    0.000    0.000    0.000    0.000    0.000 
#
# Total GULP energy -297410.801069 kJ/mol
# GULP energy per Si atom -12392.116711 kJ/mol
# Density = 1.702873 g / cm^3
# Si number density = 17.067578 Si / 1000 Ang^3
#
#
#
# Elastic Constant Matrix: (Units=GPa)
#
#
# Indices 1 2 3 4 5 6 
#
# 1 104.9403 43.4628 72.6983 0.0000 0.0000 -0.0002
# 2 43.4628 89.8298 55.9900 0.0000 0.0000 -0.0002
# 3 72.6983 55.9900 129.1492 0.0000 0.0000 0.0000
# 4 0.0000 0.0000 0.0000 27.8135 0.0000 0.0000
# 5 0.0000 0.0000 0.0000 0.0000 1.9203 0.0000
# 6 -0.0002 -0.0002 0.0000 0.0000 0.0000 23.3482
#
#
#
# Elastic Compliance Matrix: (Units=1/GPa)
#
#
# Indices 1 2 3 4 5 6 
#
# 1 0.016170 -0.002947 -0.007825 0.000000 0.000000 0.000000
# 2 -0.002947 0.015791 -0.005187 0.000000 0.000000 0.000000
# 3 -0.007825 -0.005187 0.014396 0.000000 0.000000 0.000000
# 4 0.000000 0.000000 0.000000 0.035954 0.000000 0.000000
# 5 0.000000 0.000000 0.000000 0.000000 0.520750 -0.000001
# 6 0.000000 0.000000 0.000000 0.000000 -0.000001 0.042830
#
#
# Mechanical properties :
#
#
# Convention : Reuss Voigt Hill
#
# Bulk Modulus (GPa) = 69.25032 74.24683 71.74858
# Shear Modulus (GPa) = 7.32470 20.73429 14.02950
#
# Velocity S-wave (km/s) = 2.07386 3.48923 2.87016
# Velocity P-wave (km/s) = 6.81152 7.73493 7.28786
#
# Compressibility (1/GPa) = 0.01444037
#
# Stress axis : x y z
#
# Youngs Moduli (GPa) = 61.84145 63.32736 69.46174
#
# Poissons Ratio (x) = 0.18660 0.54353
# Poissons Ratio (y) = 0.18222 0.36031
# Poissons Ratio (z) = 0.48390 0.32849
#
# Static dielectric constant tensor:
#      x y z
#    x 3.329830 0.000000 0.000000 
#    y 0.000000 3.236900 0.000000 
#    z 0.000000 0.000000 3.555650 
# 
# 
# High freq. dielectric constant tensor:
#      x y z
#    x 1.641890 0.000000 0.000000 
#    y 0.000000 1.665360 0.000000 
#    z 0.000000 0.000000 1.649060 
# 
# From -- ./inp_files/33195.got.cif
#   From: 2010.03.12/outbox.cif.g09.slc.cpg/sg42_17_cif.got.tgz:33195.got - 2010.04.14 02:04:31.
