data_PCOD8185863
_publ_section_title
;
Structure prediction by ZEFSAII (Michael W. Deem and Ramdas Pophale) SiO2 
 PCOD8185863
Probable space group: F M M 2
;
_chemical_formula_sum "Si O2"
_cell_formula_units_Z 72
_cell_length_a 16.950629
_cell_length_b 13.918654
_cell_length_c 17.653737
_cell_angle_alpha 90.000000
_cell_angle_beta 90.000000
_cell_angle_gamma 90.000000
_cell_volume 4165.045114
_symmetry_space_group_name_H-M "F M M 2"
_symmetry_group_IT_number 42
_symmetry_cell_setting 'orthorhombic'
loop_
_space_group_symop_operation_xyz
x,y,z
-x,-y,z
-x,y,z
x,-y,z
x,1/2+y,1/2+z
-x,1/2-y,1/2+z
-x,1/2+y,1/2+z
x,1/2-y,1/2+z
1/2+x,y,1/2+z
1/2-x,-y,1/2+z
1/2-x,y,1/2+z
1/2+x,-y,1/2+z
1/2+x,1/2+y,z
1/2-x,1/2-y,z
1/2-x,1/2+y,z
1/2+x,1/2-y,z
loop_
_atom_site_type_symbol
_atom_site_label
_atom_site_fract_x
_atom_site_fract_y
_atom_site_fract_z
Si Si1 0.792121 0.389629 0.503360
Si Si2 0.250000 0.750000 0.220118
Si Si3 0.500000 0.609852 0.798266
Si Si4 0.649870 0.776131 0.081064
Si Si5 0.827687 0.109947 0.831212
Si Si6 0.500000 0.610199 0.619624
O O1 0.804266 0.500000 0.528702
O O2 0.714994 0.344948 0.542414
O O3 0.863925 0.321850 0.532641
O O4 0.788036 0.381205 0.413094
O O5 0.326109 0.740740 0.165579
O O6 0.233573 0.658902 0.273607
O O7 0.500000 0.500000 0.824642
O O8 0.417325 0.655342 0.829826
O O9 0.500000 0.622741 0.708775
O O10 0.573276 0.839307 0.081380
O O11 0.834390 0.000000 0.804227
O O12 0.500000 0.500000 0.595186
#
# Coordination Sequence:
#
# PCOD8185863 Si02
#       6
#    16   8   8  16  16   8
#     4   9  19  35  52  76 110 141 175 218 266 321
#     4  10  18  30  50  76 104 132 168 222 260 304
#     4   9  18  31  52  79  99 129 175 220 260 299
#     4  10  21  33  53  80 106 138 183 216 269 318
#     4  10  19  33  54  78 105 138 178 219 261 310
#     4  11  20  35  55  79 109 135 180 232 265 311
#
# _framework density 17.286726999999999
#
# number of rings (size 3 to 8) (size 9 to 14) (size 15 to 20)
#    0.000    2.444    2.222    2.000    0.000    4.444 
#    0.000    1.667    0.000    0.000    0.000    0.778 
#    0.000    0.000    0.000    0.000    0.000    0.000 
#
# Total GULP energy -222992.209494 kJ/mol
# GULP energy per Si atom -12388.456083 kJ/mol
# Density = 1.724738 g / cm^3
# Si number density = 17.286727 Si / 1000 Ang^3
#
#
#
# Elastic Constant Matrix: (Units=GPa)
#
#
# Indices 1 2 3 4 5 6 
#
# 1 103.8091 51.2227 38.3415 0.0000 0.0000 0.0000
# 2 51.2227 128.3655 57.4655 0.0000 0.0000 0.0000
# 3 38.3415 57.4655 90.1099 0.0000 0.0000 0.0000
# 4 0.0000 0.0000 0.0000 30.5158 0.0000 0.0000
# 5 0.0000 0.0000 0.0000 0.0000 15.2608 0.0000
# 6 0.0000 0.0000 0.0000 0.0000 0.0000 26.9431
#
#
#
# Elastic Compliance Matrix: (Units=1/GPa)
#
#
# Indices 1 2 3 4 5 6 
#
# 1 0.012550 -0.003663 -0.003004 0.000000 0.000000 0.000000
# 2 -0.003663 0.011972 -0.006076 0.000000 0.000000 0.000000
# 3 -0.003004 -0.006076 0.016251 0.000000 0.000000 0.000000
# 4 0.000000 0.000000 0.000000 0.032770 0.000000 0.000000
# 5 0.000000 0.000000 0.000000 0.000000 0.065527 0.000000
# 6 0.000000 0.000000 0.000000 0.000000 0.000000 0.037115
#
#
# Mechanical properties :
#
#
# Convention : Reuss Voigt Hill
#
# Bulk Modulus (GPa) = 65.41853 68.48267 66.95060
# Shear Modulus (GPa) = 24.18173 26.22760 25.20466
#
# Velocity S-wave (km/s) = 3.74419 3.89936 3.82257
# Velocity P-wave (km/s) = 7.52445 7.74436 7.63520
#
# Compressibility (1/GPa) = 0.01528619
#
# Stress axis : x y z
#
# Youngs Moduli (GPa) = 79.68074 83.52686 61.53568
#
# Poissons Ratio (x) = 0.30598 0.18485
# Poissons Ratio (y) = 0.29189 0.37391
# Poissons Ratio (z) = 0.23935 0.50753
#
# Static dielectric constant tensor:
#      x y z
#    x 3.337170 0.000000 0.000000 
#    y 0.000000 3.402570 0.000000 
#    z 0.000000 0.000000 3.283410 
# 
# 
# High freq. dielectric constant tensor:
#      x y z
#    x 1.652950 0.000000 0.000000 
#    y 0.000000 1.661090 0.000000 
#    z 0.000000 0.000000 1.674250 
# 
# From -- ./inp_files/14894.got.cif
#   From: 2010.03.12/outbox.cif.g09.slc.cpg/sg42_8_cif.got.tgz:14894.got - 2010.04.14 02:04:31.
