data_PCOD8185149
_publ_section_title
;
Structure prediction by ZEFSAII (Michael W. Deem and Ramdas Pophale) SiO2 
 PCOD8185149
Probable space group: A B A 2
;
_chemical_formula_sum "Si O2"
_cell_formula_units_Z 64
_cell_length_a 22.054053
_cell_length_b 8.799231
_cell_length_c 14.573274
_cell_angle_alpha 90.000000
_cell_angle_beta 90.000000
_cell_angle_gamma 90.000000
_cell_volume 2828.070707
_symmetry_space_group_name_H-M "A B A 2"
_symmetry_group_IT_number 41
_symmetry_cell_setting 'orthorhombic'
loop_
_space_group_symop_operation_xyz
x,y,z
-x,-y,z
1/2-x,y,1/2+z
1/2+x,-y,1/2+z
x,1/2+y,1/2+z
-x,1/2-y,1/2+z
1/2-x,1/2+y,z
1/2+x,1/2-y,z
loop_
_atom_site_type_symbol
_atom_site_label
_atom_site_fract_x
_atom_site_fract_y
_atom_site_fract_z
Si Si1 0.816969 0.030789 0.320460
Si Si2 0.830932 0.973888 0.527343
Si Si3 0.871603 0.968766 0.141092
Si Si4 0.689153 0.373789 0.840905
Si Si5 0.926672 0.286977 0.119278
Si Si6 0.781075 0.795705 0.041962
Si Si7 0.468461 0.162068 0.515671
Si Si8 0.943182 0.388084 0.316789
O O1 0.845250 0.001532 0.420445
O O2 0.867698 0.960596 0.252013
O O3 0.748527 0.965989 0.310179
O O4 0.811050 0.208255 0.293063
O O5 0.890254 0.938126 0.588020
O O6 0.790818 0.820666 0.535549
O O7 0.796418 0.121633 0.567033
O O8 0.803907 0.917307 0.115884
O O9 0.915432 0.844959 0.092515
O O10 0.887658 0.135112 0.103520
O O11 0.625571 0.460770 0.814818
O O12 0.687305 0.347767 0.948647
O O13 0.948533 0.287357 0.225078
O O14 0.984835 0.286766 0.052808
O O15 0.446420 0.208395 0.412601
O O16 0.500000 0.000000 0.509237
O O17 0.000000 0.500000 0.314168
#
# Coordination Sequence:
#
# PCOD8185149 Si02
#       8
#     8   8   8   8   8   8   8   8
#     4  10  23  41  69 100 134 172 217 282 337 399
#     4  10  23  42  62 100 133 174 217 279 336 397
#     4  11  21  40  68  96 130 177 216 267 336 397
#     4  10  21  45  66  99 136 172 222 275 338 401
#     4  11  24  43  68  97 134 168 234 279 328 395
#     4  10  21  39  67  94 138 174 217 272 342 401
#     4   9  22  43  66  92 130 181 220 268 332 401
#     4  11  23  45  67  95 133 181 222 277 334 405
#
# _framework density 22.630268000000001
#
# number of rings (size 3 to 8) (size 9 to 14) (size 15 to 20)
#    0.000    1.750    2.500    0.750    1.750    4.000 
#    2.250    0.000    0.000    0.000    0.000    0.000 
#    0.000    0.000    0.000    0.000    0.000    0.000 
#
# Total GULP energy -396431.775854 kJ/mol
# GULP energy per Si atom -12388.492995 kJ/mol
# Density = 2.257876 g / cm^3
# Si number density = 22.630268 Si / 1000 Ang^3
#
#
#
# Elastic Constant Matrix: (Units=GPa)
#
#
# Indices 1 2 3 4 5 6 
#
# 1 114.1768 47.7613 55.5072 0.0000 0.0000 0.0000
# 2 47.7613 78.8613 34.0807 0.0000 0.0000 0.0000
# 3 55.5072 34.0807 130.1282 0.0000 0.0000 0.0000
# 4 0.0000 0.0000 0.0000 23.4367 0.0000 0.0000
# 5 0.0000 0.0000 0.0000 0.0000 36.0192 0.0000
# 6 0.0000 0.0000 0.0000 0.0000 0.0000 38.5883
#
#
#
# Elastic Compliance Matrix: (Units=1/GPa)
#
#
# Indices 1 2 3 4 5 6 
#
# 1 0.013384 -0.006358 -0.004044 0.000000 0.000000 0.000000
# 2 -0.006358 0.017319 -0.001824 0.000000 0.000000 0.000000
# 3 -0.004044 -0.001824 0.009887 0.000000 0.000000 0.000000
# 4 0.000000 0.000000 0.000000 0.042668 0.000000 0.000000
# 5 0.000000 0.000000 0.000000 0.000000 0.027763 0.000000
# 6 0.000000 0.000000 0.000000 0.000000 0.000000 0.025915
#
#
# Mechanical properties :
#
#
# Convention : Reuss Voigt Hill
#
# Bulk Modulus (GPa) = 61.96179 66.42943 64.19561
# Shear Modulus (GPa) = 29.98179 31.99663 30.98921
#
# Velocity S-wave (km/s) = 3.64380 3.76425 3.70451
# Velocity P-wave (km/s) = 6.71882 6.95059 6.83569
#
# Compressibility (1/GPa) = 0.01613898
#
# Stress axis : x y z
#
# Youngs Moduli (GPa) = 74.71624 57.73845 101.13976
#
# Poissons Ratio (x) = 0.36712 0.40899
# Poissons Ratio (y) = 0.47507 0.18446
# Poissons Ratio (z) = 0.30214 0.10530
#
# Static dielectric constant tensor:
#      x y z
#    x 4.230320 0.000000 0.000000 
#    y 0.000000 3.780560 0.000000 
#    z 0.000000 0.000000 4.266770 
# 
# 
# High freq. dielectric constant tensor:
#      x y z
#    x 1.898960 0.000000 0.000000 
#    y 0.000000 1.859710 0.000000 
#    z 0.000000 0.000000 1.901240 
# 
# From -- ./inp_files/9157.got.cif
#   From: 2010.03.12/outbox.cif.g09.slc.cpg/sg41_5_cif.got.tgz:9157.got - 2010.04.14 01:55:53.
