data_PCOD8185564
_publ_section_title
;
Structure prediction by ZEFSAII (Michael W. Deem and Ramdas Pophale) SiO2 
 PCOD8185564
Probable space group: A B A 2
;
_chemical_formula_sum "Si O2"
_cell_formula_units_Z 44
_cell_length_a 9.973796
_cell_length_b 21.362721
_cell_length_c 8.769136
_cell_angle_alpha 90.000000
_cell_angle_beta 90.000000
_cell_angle_gamma 90.000000
_cell_volume 1868.417194
_symmetry_space_group_name_H-M "A B A 2"
_symmetry_group_IT_number 41
_symmetry_cell_setting 'orthorhombic'
loop_
_space_group_symop_operation_xyz
x,y,z
-x,-y,z
1/2-x,y,1/2+z
1/2+x,-y,1/2+z
x,1/2+y,1/2+z
-x,1/2-y,1/2+z
1/2-x,1/2+y,z
1/2+x,1/2-y,z
loop_
_atom_site_type_symbol
_atom_site_label
_atom_site_fract_x
_atom_site_fract_y
_atom_site_fract_z
Si Si1 0.363173 0.933586 0.288680
Si Si2 0.428425 0.772025 0.550238
Si Si3 0.288115 0.012409 0.017004
Si Si4 0.343237 0.294170 0.711513
Si Si5 0.500000 0.500000 0.288277
Si Si6 0.034852 0.091422 0.048475
O O1 0.366595 0.988704 0.165973
O O2 0.271397 0.951235 0.433516
O O3 0.317713 0.868126 0.217167
O O4 0.507453 0.925566 0.371092
O O5 0.534689 0.718188 0.593552
O O6 0.382353 0.765234 0.375324
O O7 0.296647 0.764594 0.654949
O O8 0.510859 0.836048 0.579871
O O9 0.188267 0.067922 0.070070
O O10 0.395250 0.037879 0.893698
O O11 0.559641 0.552643 0.170832
#
# Coordination Sequence:
#
# PCOD8185564 Si02
#       6
#     8   8   8   8   4   8
#     4  11  22  42  73  93 139 185 228 279 356 419
#     4  11  25  48  74 105 142 190 243 298 357 427
#     4  12  23  41  66 102 136 181 230 284 350 426
#     4  11  24  46  74 101 140 187 241 294 357 419
#     4  12  24  38  64  98 138 180 224 284 354 404
#     4  11  24  46  68 100 145 183 233 292 346 436
#
# _framework density 23.549343
#
# number of rings (size 3 to 8) (size 9 to 14) (size 15 to 20)
#    0.000    0.727    3.636    4.364    2.545    1.455 
#   13.091    0.000    0.000    0.000    0.000    0.000 
#    0.000    0.000    0.000    0.000    0.000    0.000 
#
# Total GULP energy -272656.109393 kJ/mol
# GULP energy per Si atom -12393.459518 kJ/mol
# Density = 2.349574 g / cm^3
# Si number density = 23.549343 Si / 1000 Ang^3
#
#
#
# Elastic Constant Matrix: (Units=GPa)
#
#
# Indices 1 2 3 4 5 6 
#
# 1 113.0930 34.7008 41.3068 0.0000 0.0000 0.0000
# 2 34.7008 47.3558 32.7985 0.0000 0.0000 0.0000
# 3 41.3068 32.7985 128.5746 0.0000 0.0000 0.0000
# 4 0.0000 0.0000 0.0000 31.2635 0.0000 0.0000
# 5 0.0000 0.0000 0.0000 0.0000 42.0472 0.0000
# 6 0.0000 0.0000 0.0000 0.0000 0.0000 27.8282
#
#
#
# Elastic Compliance Matrix: (Units=1/GPa)
#
#
# Indices 1 2 3 4 5 6 
#
# 1 0.011786 -0.007304 -0.001923 0.000000 0.000000 0.000000
# 2 -0.007304 0.030175 -0.005351 0.000000 0.000000 0.000000
# 3 -0.001923 -0.005351 0.009760 0.000000 0.000000 0.000000
# 4 0.000000 0.000000 0.000000 0.031986 0.000000 0.000000
# 5 0.000000 0.000000 0.000000 0.000000 0.023783 0.000000
# 6 0.000000 0.000000 0.000000 0.000000 0.000000 0.035935
#
#
# Mechanical properties :
#
#
# Convention : Reuss Voigt Hill
#
# Bulk Modulus (GPa) = 44.31689 56.29286 50.30487
# Shear Modulus (GPa) = 27.76182 32.24226 30.00204
#
# Velocity S-wave (km/s) = 3.43721 3.70420 3.57320
# Velocity P-wave (km/s) = 5.88320 6.50007 6.19931
#
# Compressibility (1/GPa) = 0.02256476
#
# Stress axis : x y z
#
# Youngs Moduli (GPa) = 84.84685 33.13988 102.45501
#
# Poissons Ratio (x) = 0.24207 0.19703
# Poissons Ratio (y) = 0.61976 0.54822
# Poissons Ratio (z) = 0.16317 0.17733
#
# Static dielectric constant tensor:
#      x y z
#    x 4.326680 0.000000 0.000000 
#    y 0.000000 3.889720 0.000000 
#    z 0.000000 0.000000 4.548960 
# 
# 
# High freq. dielectric constant tensor:
#      x y z
#    x 1.935050 0.000000 0.000000 
#    y 0.000000 1.897560 0.000000 
#    z 0.000000 0.000000 1.958470 
# 
# From -- ./inp_files/2075.got.cif
#   From: 2010.03.12/outbox.cif.g09.slc.cpg/sg41_2_cif.got.tgz:2075.got - 2010.04.14 01:55:53.
