data_PCOD8185001
_publ_section_title
;
Structure prediction by ZEFSAII (Michael W. Deem and Ramdas Pophale) SiO2 
 PCOD8185001
Probable space group: A B A 2
;
_chemical_formula_sum "Si O2"
_cell_formula_units_Z 56
_cell_length_a 13.520216
_cell_length_b 22.204228
_cell_length_c 8.861175
_cell_angle_alpha 90.000000
_cell_angle_beta 90.000000
_cell_angle_gamma 90.000000
_cell_volume 2660.177536
_symmetry_space_group_name_H-M "A B A 2"
_symmetry_group_IT_number 41
_symmetry_cell_setting 'orthorhombic'
loop_
_space_group_symop_operation_xyz
x,y,z
-x,-y,z
1/2-x,y,1/2+z
1/2+x,-y,1/2+z
x,1/2+y,1/2+z
-x,1/2-y,1/2+z
1/2-x,1/2+y,z
1/2+x,1/2-y,z
loop_
_atom_site_type_symbol
_atom_site_label
_atom_site_fract_x
_atom_site_fract_y
_atom_site_fract_z
Si Si1 0.037487 0.585734 0.770800
Si Si2 0.051413 0.802561 0.867810
Si Si3 0.500000 0.000000 0.022599
Si Si4 0.683016 0.626681 0.315017
Si Si5 0.384142 0.431180 0.773200
Si Si6 0.741274 0.208230 0.554272
Si Si7 0.500000 0.500000 0.016199
Si Si8 0.410030 0.706544 0.143874
O O1 0.920825 0.596616 0.785912
O O2 0.056567 0.548409 0.619144
O O3 0.099837 0.647349 0.751032
O O4 0.064720 0.546521 0.919264
O O5 0.064954 0.866123 0.786296
O O6 0.024572 0.755099 0.736733
O O7 0.153997 0.777370 0.937003
O O8 0.966690 0.809551 0.990802
O O9 0.419644 0.963658 0.120481
O O10 0.765862 0.576130 0.280019
O O11 0.693197 0.684065 0.206491
O O12 0.690428 0.654425 0.484300
O O13 0.414418 0.470942 0.915874
O O14 0.803218 0.267948 0.595166
#
# Coordination Sequence:
#
# PCOD8185001 Si02
#       8
#     8   8   4   8   8   8   4   8
#     4  11  22  39  65  94 127 172 213 267 325 392
#     4  11  24  39  65 100 127 173 216 272 332 396
#     4  10  24  38  66  94 122 162 222 280 310 394
#     4  11  20  39  67  93 125 165 228 271 309 395
#     4  10  20  41  65  93 120 162 219 284 313 374
#     4  11  21  38  59 100 129 163 218 272 325 391
#     4  10  20  40  60  84 128 162 216 256 330 386
#     4  12  23  39  68  96 135 172 209 274 341 388
#
# _framework density 21.051226
#
# number of rings (size 3 to 8) (size 9 to 14) (size 15 to 20)
#    0.000    1.143    5.714    2.571    2.000    0.000 
#    0.000    0.000   12.571    0.000    0.000    0.000 
#    0.000    0.000    0.000    0.000    0.000    0.000 
#
# Total GULP energy -347181.207557 kJ/mol
# GULP energy per Si atom -12399.328841 kJ/mol
# Density = 2.100331 g / cm^3
# Si number density = 21.051226 Si / 1000 Ang^3
#
#
#
# Elastic Constant Matrix: (Units=GPa)
#
#
# Indices 1 2 3 4 5 6 
#
# 1 56.6228 38.3932 19.3207 0.0000 0.0000 0.0000
# 2 38.3932 137.6146 51.2466 0.0000 0.0000 0.0000
# 3 19.3207 51.2466 107.3270 0.0000 0.0000 0.0000
# 4 0.0000 0.0000 0.0000 27.2439 0.0000 0.0000
# 5 0.0000 0.0000 0.0000 0.0000 17.2076 0.0000
# 6 0.0000 0.0000 0.0000 0.0000 0.0000 31.8154
#
#
#
# Elastic Compliance Matrix: (Units=1/GPa)
#
#
# Indices 1 2 3 4 5 6 
#
# 1 0.021918 -0.005650 -0.001248 0.000000 0.000000 0.000000
# 2 -0.005650 0.010295 -0.003898 0.000000 0.000000 0.000000
# 3 -0.001248 -0.003898 0.011403 0.000000 0.000000 0.000000
# 4 0.000000 0.000000 0.000000 0.036705 0.000000 0.000000
# 5 0.000000 0.000000 0.000000 0.000000 0.058114 0.000000
# 6 0.000000 0.000000 0.000000 0.000000 0.000000 0.031431
#
#
# Mechanical properties :
#
#
# Convention : Reuss Voigt Hill
#
# Bulk Modulus (GPa) = 45.40686 57.72061 51.56373
# Shear Modulus (GPa) = 25.15092 28.09364 26.62228
#
# Velocity S-wave (km/s) = 3.46026 3.65709 3.56004
# Velocity P-wave (km/s) = 6.13034 6.73135 6.43786
#
# Compressibility (1/GPa) = 0.02202311
#
# Stress axis : x y z
#
# Youngs Moduli (GPa) = 45.62553 97.13679 87.69357
#
# Poissons Ratio (x) = 0.54884 0.10941
# Poissons Ratio (y) = 0.25779 0.34187
# Poissons Ratio (z) = 0.05693 0.37868
#
# Static dielectric constant tensor:
#      x y z
#    x 3.649610 0.000000 0.000000 
#    y 0.000000 4.031110 0.000000 
#    z 0.000000 0.000000 4.194310 
# 
# 
# High freq. dielectric constant tensor:
#      x y z
#    x 1.790190 0.000000 0.000000 
#    y 0.000000 1.826020 0.000000 
#    z 0.000000 0.000000 1.850920 
# 
# From -- ./inp_files/2712.got.cif
#   From: 2010.03.12/outbox.cif.g09.slc.cpg/sg41_2_cif.got.tgz:2712.got - 2010.04.14 01:55:53.
