data_PCOD8185754
_publ_section_title
;
Structure prediction by ZEFSAII (Michael W. Deem and Ramdas Pophale) SiO2 
 PCOD8185754
Probable space group: F M M 2
;
_chemical_formula_sum "Si O2"
_cell_formula_units_Z 104
_cell_length_a 9.244673
_cell_length_b 23.321517
_cell_length_c 25.016341
_cell_angle_alpha 90.000000
_cell_angle_beta 90.000000
_cell_angle_gamma 90.000000
_cell_volume 5393.518080
_symmetry_space_group_name_H-M "F M M 2"
_symmetry_group_IT_number 42
_symmetry_cell_setting 'orthorhombic'
loop_
_space_group_symop_operation_xyz
x,y,z
-x,-y,z
-x,y,z
x,-y,z
x,1/2+y,1/2+z
-x,1/2-y,1/2+z
-x,1/2+y,1/2+z
x,1/2-y,1/2+z
1/2+x,y,1/2+z
1/2-x,-y,1/2+z
1/2-x,y,1/2+z
1/2+x,-y,1/2+z
1/2+x,1/2+y,z
1/2-x,1/2-y,z
1/2-x,1/2+y,z
1/2+x,1/2-y,z
loop_
_atom_site_type_symbol
_atom_site_label
_atom_site_fract_x
_atom_site_fract_y
_atom_site_fract_z
Si Si1 0.163640 0.000000 0.926070
Si Si2 0.665290 0.000000 0.185730
Si Si3 0.327064 0.886275 0.941210
Si Si4 0.758139 0.500000 0.807972
Si Si5 0.658399 0.623043 0.325160
Si Si6 0.833207 0.309140 0.038660
Si Si7 0.331473 0.120779 0.142691
Si Si8 0.326589 0.808858 0.727502
O O1 0.246110 0.054120 0.951999
O O2 0.155615 0.000000 0.860781
O O3 0.000000 0.000000 0.947199
O O4 0.730026 0.057069 0.157010
O O5 0.500000 0.000000 0.170061
O O6 0.679102 0.000000 0.250251
O O7 0.500000 0.897555 0.941612
O O8 0.270476 0.864934 0.882885
O O9 0.281302 0.837152 0.982911
O O10 0.856909 0.444228 0.812267
O O11 0.500000 0.650307 0.326901
O O12 0.738862 0.653153 0.276151
O O13 0.750000 0.250000 0.051253
O O14 0.809698 0.360463 0.081330
O O15 0.000000 0.291386 0.036275
O O16 0.500000 0.126313 0.159719
O O17 0.231307 0.165614 0.172899
O O18 0.500000 0.804229 0.724813
O O19 0.250000 0.750000 0.737635
#
# Coordination Sequence:
#
# PCOD8185754 Si02
#       8
#     8   8  16   8  16  16  16  16
#     4  10  20  32  53  88 120 146 181 228 278 330
#     4  10  19  32  54  81 113 145 178 221 270 327
#     4   9  19  37  58  81 109 149 188 225 276 337
#     4  10  16  32  53  79 114 149 180 217 275 331
#     4   9  18  32  54  80 110 143 183 226 273 332
#     4  10  22  39  61  82 107 146 193 234 277 328
#     4  10  21  38  58  84 112 144 183 229 277 331
#     4  11  22  36  53  78 109 147 186 230 278 332
#
# _framework density 19.282405000000001
#
# number of rings (size 3 to 8) (size 9 to 14) (size 15 to 20)
#    0.000    2.154    1.538    1.615    0.000    5.538 
#    0.000    3.462    0.000    0.000    0.000    0.000 
#    0.000    0.000    0.000    0.000    0.000    0.000 
#
# Total GULP energy -322131.677209 kJ/mol
# GULP energy per Si atom -12389.679893 kJ/mol
# Density = 1.923852 g / cm^3
# Si number density = 19.282405 Si / 1000 Ang^3
#
#
#
# Elastic Constant Matrix: (Units=GPa)
#
#
# Indices 1 2 3 4 5 6 
#
# 1 62.7010 27.2287 23.5751 0.0000 0.0000 0.0000
# 2 27.2287 111.0570 54.6636 0.0000 0.0000 0.0000
# 3 23.5751 54.6636 105.1673 0.0000 0.0000 0.0000
# 4 0.0000 0.0000 0.0000 32.5799 0.0000 0.0000
# 5 0.0000 0.0000 0.0000 0.0000 20.0764 0.0000
# 6 0.0000 0.0000 0.0000 0.0000 0.0000 38.6649
#
#
#
# Elastic Compliance Matrix: (Units=1/GPa)
#
#
# Indices 1 2 3 4 5 6 
#
# 1 0.018281 -0.003312 -0.002376 0.000000 0.000000 0.000000
# 2 -0.003312 0.012700 -0.005859 0.000000 0.000000 0.000000
# 3 -0.002376 -0.005859 0.013087 0.000000 0.000000 0.000000
# 4 0.000000 0.000000 0.000000 0.030694 0.000000 0.000000
# 5 0.000000 0.000000 0.000000 0.000000 0.049810 0.000000
# 6 0.000000 0.000000 0.000000 0.000000 0.000000 0.025863
#
#
# Mechanical properties :
#
#
# Convention : Reuss Voigt Hill
#
# Bulk Modulus (GPa) = 47.68107 54.42890 51.05499
# Shear Modulus (GPa) = 27.69777 29.82809 28.76293
#
# Velocity S-wave (km/s) = 3.79413 3.93734 3.86640
# Velocity P-wave (km/s) = 6.63139 6.99705 6.81667
#
# Compressibility (1/GPa) = 0.02097268
#
# Stress axis : x y z
#
# Youngs Moduli (GPa) = 54.70281 78.73840 76.41407
#
# Poissons Ratio (x) = 0.26081 0.18158
# Poissons Ratio (y) = 0.18120 0.44769
# Poissons Ratio (z) = 0.12998 0.46131
#
# Static dielectric constant tensor:
#      x y z
#    x 3.241070 0.000000 0.000000 
#    y 0.000000 3.809930 0.000000 
#    z 0.000000 0.000000 3.673260 
# 
# 
# High freq. dielectric constant tensor:
#      x y z
#    x 1.724750 0.000000 0.000000 
#    y 0.000000 1.753700 0.000000 
#    z 0.000000 0.000000 1.756310 
# 
# From -- ./inp_files/31602.got.cif
#   From: 2010.03.12/outbox.cif.g09.slc.cpg/sg42_16_cif.got.tgz:31602.got - 2010.04.14 02:04:31.
