data_PCOD8185802
_publ_section_title
;
Structure prediction by ZEFSAII (Michael W. Deem and Ramdas Pophale) SiO2 
 PCOD8185802
Probable space group: F M M 2
;
_chemical_formula_sum "Si O2"
_cell_formula_units_Z 72
_cell_length_a 18.643088
_cell_length_b 14.537162
_cell_length_c 15.132540
_cell_angle_alpha 90.000000
_cell_angle_beta 90.000000
_cell_angle_gamma 90.000000
_cell_volume 4101.184528
_symmetry_space_group_name_H-M "F M M 2"
_symmetry_group_IT_number 42
_symmetry_cell_setting 'orthorhombic'
loop_
_space_group_symop_operation_xyz
x,y,z
-x,-y,z
-x,y,z
x,-y,z
x,1/2+y,1/2+z
-x,1/2-y,1/2+z
-x,1/2+y,1/2+z
x,1/2-y,1/2+z
1/2+x,y,1/2+z
1/2-x,-y,1/2+z
1/2-x,y,1/2+z
1/2+x,-y,1/2+z
1/2+x,1/2+y,z
1/2-x,1/2-y,z
1/2-x,1/2+y,z
1/2+x,1/2-y,z
loop_
_atom_site_type_symbol
_atom_site_label
_atom_site_fract_x
_atom_site_fract_y
_atom_site_fract_z
Si Si1 0.853331 0.000000 0.595430
Si Si2 0.581478 0.697333 0.614988
Si Si3 0.274777 0.000000 0.464322
Si Si4 0.917544 0.316710 0.313978
Si Si5 0.325843 0.701630 0.976442
Si Si6 0.164483 0.000000 0.787649
O O1 0.902560 0.090219 0.595336
O O2 0.806202 0.000000 0.686706
O O3 0.802820 0.000000 0.509581
O O4 0.500000 0.715327 0.585416
O O5 0.592121 0.727715 0.717099
O O6 0.634823 0.762706 0.562974
O O7 0.318214 0.091867 0.490837
O O8 0.268281 0.000000 0.356333
O O9 0.870742 0.267170 0.389811
O O10 0.889642 0.418852 0.306688
O O11 0.000000 0.315228 0.343996
O O12 0.250000 0.750000 0.966514
#
# Coordination Sequence:
#
# PCOD8185802 Si02
#       6
#     8  16   8  16  16   8
#     4  10  17  34  55  79 107 136 179 220 262 304
#     4  10  20  35  56  81 107 139 179 221 263 309
#     4  10  20  36  50  78 110 138 176 214 262 318
#     4   9  18  33  53  77 104 137 179 219 259 306
#     4  11  21  35  54  78 110 140 175 218 265 319
#     4   8  17  30  53  77 101 138 175 220 256 298
#
# _framework density 17.555903000000001
#
# number of rings (size 3 to 8) (size 9 to 14) (size 15 to 20)
#    0.000    2.222    2.222    1.333    0.000    3.556 
#    4.000    1.667    0.000    0.000    0.000    3.111 
#    0.000    0.000    0.000    0.000    0.000    0.000 
#
# Total GULP energy -223064.720199 kJ/mol
# GULP energy per Si atom -12392.484456 kJ/mol
# Density = 1.751595 g / cm^3
# Si number density = 17.555903 Si / 1000 Ang^3
#
#
#
# Elastic Constant Matrix: (Units=GPa)
#
#
# Indices 1 2 3 4 5 6 
#
# 1 118.0926 18.8693 72.4707 0.0000 0.0000 0.0000
# 2 18.8693 69.5387 26.4126 0.0000 0.0000 0.0000
# 3 72.4707 26.4126 105.8798 0.0000 0.0000 0.0000
# 4 0.0000 0.0000 0.0000 23.3197 0.0000 0.0000
# 5 0.0000 0.0000 0.0000 0.0000 38.2442 0.0000
# 6 0.0000 0.0000 0.0000 0.0000 0.0000 -41.2188
#
#
#
# Elastic Compliance Matrix: (Units=1/GPa)
#
#
# Indices 1 2 3 4 5 6 
#
# 1 0.014603 -0.000183 -0.009949 0.000000 0.000000 0.000000
# 2 -0.000183 0.015888 -0.003838 0.000000 0.000000 0.000000
# 3 -0.009949 -0.003838 0.017212 0.000000 0.000000 0.000000
# 4 0.000000 0.000000 0.000000 0.042882 0.000000 0.000000
# 5 0.000000 0.000000 0.000000 0.000000 0.026148 0.000000
# 6 0.000000 0.000000 0.000000 0.000000 0.000000 -0.024261
#
#
# Mechanical properties :
#
#
# Convention : Reuss Voigt Hill
#
# Bulk Modulus (GPa) = 50.60320 58.77959 54.69139
# Shear Modulus (GPa) = 39.36986 15.78625 27.57806
#
# Velocity S-wave (km/s) = 4.74069 3.00192 3.96772
# Velocity P-wave (km/s) = 7.67151 6.75051 7.22570
#
# Compressibility (1/GPa) = 0.01976160
#
# Stress axis : x y z
#
# Youngs Moduli (GPa) = 68.47922 62.94074 58.09888
#
# Poissons Ratio (x) = 0.01155 0.57805
# Poissons Ratio (y) = 0.01256 0.22297
# Poissons Ratio (z) = 0.68133 0.24155
#
# Static dielectric constant tensor:
#      x y z
#    x 3.181220 0.000000 0.000000 
#    y 0.000000 3.203760 0.000000 
#    z 0.000000 0.000000 3.695990 
# 
# 
# High freq. dielectric constant tensor:
#      x y z
#    x 1.670920 0.000000 0.000000 
#    y 0.000000 1.666190 0.000000 
#    z 0.000000 0.000000 1.690390 
# 
# From -- ./inp_files/7725.got.cif
#   From: 2010.03.12/outbox.cif.g09.slc.cpg/sg42_4_cif.got.tgz:7725.got - 2010.04.14 02:04:31.
