data_PCOD8185619
_publ_section_title
;
Structure prediction by ZEFSAII (Michael W. Deem and Ramdas Pophale) SiO2 
 PCOD8185619
Probable space group: A B A 2
;
_chemical_formula_sum "Si O2"
_cell_formula_units_Z 64
_cell_length_a 27.330882
_cell_length_b 11.740443
_cell_length_c 8.989934
_cell_angle_alpha 90.000000
_cell_angle_beta 90.000000
_cell_angle_gamma 90.000000
_cell_volume 2884.660016
_symmetry_space_group_name_H-M "A B A 2"
_symmetry_group_IT_number 41
_symmetry_cell_setting 'orthorhombic'
loop_
_space_group_symop_operation_xyz
x,y,z
-x,-y,z
1/2-x,y,1/2+z
1/2+x,-y,1/2+z
x,1/2+y,1/2+z
-x,1/2-y,1/2+z
1/2-x,1/2+y,z
1/2+x,1/2-y,z
loop_
_atom_site_type_symbol
_atom_site_label
_atom_site_fract_x
_atom_site_fract_y
_atom_site_fract_z
Si Si1 0.137812 0.167341 0.695860
Si Si2 0.053626 0.820936 0.094714
Si Si3 0.037382 0.268734 0.260135
Si Si4 0.237515 0.125000 0.533515
Si Si5 0.898493 0.560890 0.082257
Si Si6 0.797805 0.999813 0.252619
Si Si7 0.182255 0.293717 0.946468
Si Si8 0.090160 0.030697 0.256807
O O1 0.105916 0.259294 0.606208
O O2 0.190675 0.165867 0.622136
O O3 0.144608 0.205552 0.867143
O O4 0.112648 0.043995 0.692003
O O5 0.017203 0.756724 0.206595
O O6 0.059273 0.952273 0.143819
O O7 0.034020 0.816043 0.927161
O O8 0.058939 0.365527 0.153960
O O9 0.070921 0.158022 0.247477
O O10 0.221846 0.093463 0.368456
O O11 0.263292 0.014095 0.608441
O O12 0.275538 0.229093 0.534216
O O13 0.848029 0.630686 0.063721
O O14 0.917081 0.516522 0.923299
O O15 0.853305 0.969076 0.209976
O O16 0.794188 0.126548 0.318207
#
# Coordination Sequence:
#
# PCOD8185619 Si02
#       8
#     8   8   8   8   8   8   8   8
#     4  12  24  47  69 103 146 182 234 297 346 413
#     4  12  26  48  74 105 141 185 234 297 361 423
#     4  12  27  47  75 105 136 187 235 293 364 431
#     4  12  24  43  66 105 136 186 235 279 349 415
#     4  11  24  47  74 102 139 190 236 287 362 413
#     4  11  24  42  68 100 138 184 232 285 351 411
#     4  11  25  44  71 101 145 183 236 293 339 430
#     4  11  23  50  70 100 146 181 233 298 354 421
#
# _framework density 22.186323000000002
#
# number of rings (size 3 to 8) (size 9 to 14) (size 15 to 20)
#    0.000    0.500    7.500    1.875    1.750    2.500 
#    6.750    0.000    0.000    0.000    0.000    0.000 
#    0.000    0.000    0.000    0.000    0.000    0.000 
#
# Total GULP energy -397003.245484 kJ/mol
# GULP energy per Si atom -12406.351421 kJ/mol
# Density = 2.213583 g / cm^3
# Si number density = 22.186323 Si / 1000 Ang^3
#
#
#
# Elastic Constant Matrix: (Units=GPa)
#
#
# Indices 1 2 3 4 5 6 
#
# 1 72.4077 5.6905 23.6944 0.0000 0.0000 0.0000
# 2 5.6905 87.6134 13.1754 0.0000 0.0000 0.0000
# 3 23.6944 13.1754 61.7475 0.0000 0.0000 0.0000
# 4 0.0000 0.0000 0.0000 30.9847 0.0000 0.0000
# 5 0.0000 0.0000 0.0000 0.0000 27.5746 0.0000
# 6 0.0000 0.0000 0.0000 0.0000 0.0000 27.4470
#
#
#
# Elastic Compliance Matrix: (Units=1/GPa)
#
#
# Indices 1 2 3 4 5 6 
#
# 1 0.015795 -0.000118 -0.006036 0.000000 0.000000 0.000000
# 2 -0.000118 0.011793 -0.002471 0.000000 0.000000 0.000000
# 3 -0.006036 -0.002471 0.019038 0.000000 0.000000 0.000000
# 4 0.000000 0.000000 0.000000 0.032274 0.000000 0.000000
# 5 0.000000 0.000000 0.000000 0.000000 0.036265 0.000000
# 6 0.000000 0.000000 0.000000 0.000000 0.000000 0.036434
#
#
# Mechanical properties :
#
#
# Convention : Reuss Voigt Hill
#
# Bulk Modulus (GPa) = 34.04090 34.09883 34.06986
# Shear Modulus (GPa) = 27.98896 29.14848 28.56872
#
# Velocity S-wave (km/s) = 3.55567 3.62858 3.59231
# Velocity P-wave (km/s) = 5.67746 5.74091 5.70928
#
# Compressibility (1/GPa) = 0.02937643
#
# Stress axis : x y z
#
# Youngs Moduli (GPa) = 63.31069 84.79574 52.52550
#
# Poissons Ratio (x) = 0.01002 0.31704
# Poissons Ratio (y) = 0.00748 0.12979
# Poissons Ratio (z) = 0.38213 0.20953
#
# Static dielectric constant tensor:
#      x y z
#    x 4.013610 0.000000 0.000000 
#    y 0.000000 4.143250 0.000000 
#    z 0.000000 0.000000 4.057250 
# 
# 
# High freq. dielectric constant tensor:
#      x y z
#    x 1.880950 0.000000 0.000000 
#    y 0.000000 1.883820 0.000000 
#    z 0.000000 0.000000 1.866600 
# 
# From -- ./inp_files/3973.got.cif
#   From: 2010.03.12/outbox.cif.g09.slc.cpg/sg41_2_cif.got.tgz:3973.got - 2010.04.14 01:55:53.
