data_PCOD8185636
_publ_section_title
;
Structure prediction by ZEFSAII (Michael W. Deem and Ramdas Pophale) SiO2 
 PCOD8185636
Probable space group: A B A 2
;
_chemical_formula_sum "Si O2"
_cell_formula_units_Z 48
_cell_length_a 8.586542
_cell_length_b 27.819236
_cell_length_c 9.142853
_cell_angle_alpha 90.000000
_cell_angle_beta 90.000000
_cell_angle_gamma 90.000000
_cell_volume 2183.962789
_symmetry_space_group_name_H-M "A B A 2"
_symmetry_group_IT_number 41
_symmetry_cell_setting 'orthorhombic'
loop_
_space_group_symop_operation_xyz
x,y,z
-x,-y,z
1/2-x,y,1/2+z
1/2+x,-y,1/2+z
x,1/2+y,1/2+z
-x,1/2-y,1/2+z
1/2-x,1/2+y,z
1/2+x,1/2-y,z
loop_
_atom_site_type_symbol
_atom_site_label
_atom_site_fract_x
_atom_site_fract_y
_atom_site_fract_z
Si Si1 0.570066 0.900189 0.368660
Si Si2 0.931690 0.053436 0.601402
Si Si3 0.932161 0.890533 0.349284
Si Si4 0.381180 0.713743 0.287798
Si Si5 0.437468 0.704802 0.942778
Si Si6 0.068605 0.450556 0.616029
O O1 0.530318 0.909442 0.199940
O O2 0.755264 0.902383 0.394476
O O3 0.500550 0.849660 0.427206
O O4 0.478696 0.944236 0.446499
O O5 0.751677 0.051573 0.645866
O O6 0.947256 0.078140 0.443771
O O7 0.000000 0.000000 0.602427
O O8 0.967656 0.833517 0.352078
O O9 0.971133 0.906875 0.185822
O O10 0.201367 0.708978 0.326536
O O11 0.434099 0.759769 0.378635
O O12 0.398330 0.718064 0.111569
O O13 0.000000 0.500000 0.678691
#
# Coordination Sequence:
#
# PCOD8185636 Si02
#       6
#     8   8   8   8   8   8
#     4  11  24  44  69  97 136 179 230 281 348 410
#     4  12  26  42  67 102 135 184 229 286 348 410
#     4  11  24  44  69  97 136 179 230 281 348 410
#     4  11  25  45  72 103 140 184 231 286 352 418
#     4  11  25  45  72 103 140 184 231 286 352 418
#     4  12  24  44  67  96 137 176 229 286 342 416
#
# _framework density 21.978397999999999
#
# number of rings (size 3 to 8) (size 9 to 14) (size 15 to 20)
#    0.000    0.667    1.667    6.000    9.333    2.667 
#    0.000    0.000    0.000    0.000    0.000    0.000 
#    0.000    0.000    0.000    0.000    0.000    0.000 
#
# Total GULP energy -297579.422948 kJ/mol
# GULP energy per Si atom -12399.142623 kJ/mol
# Density = 2.192837 g / cm^3
# Si number density = 21.978398 Si / 1000 Ang^3
#
#
#
# Elastic Constant Matrix: (Units=GPa)
#
#
# Indices 1 2 3 4 5 6 
#
# 1 70.3826 41.5963 11.1111 0.0000 0.0000 0.0000
# 2 41.5963 117.2288 26.4452 0.0000 0.0000 0.0000
# 3 11.1111 26.4452 95.3014 0.0000 0.0000 0.0000
# 4 0.0000 0.0000 0.0000 41.5886 0.0000 0.0000
# 5 0.0000 0.0000 0.0000 0.0000 39.0636 0.0000
# 6 0.0000 0.0000 0.0000 0.0000 0.0000 34.1287
#
#
#
# Elastic Compliance Matrix: (Units=1/GPa)
#
#
# Indices 1 2 3 4 5 6 
#
# 1 0.017989 -0.006305 -0.000348 0.000000 0.000000 0.000000
# 2 -0.006305 0.011310 -0.002403 0.000000 0.000000 0.000000
# 3 -0.000348 -0.002403 0.011200 0.000000 0.000000 0.000000
# 4 0.000000 0.000000 0.000000 0.024045 0.000000 0.000000
# 5 0.000000 0.000000 0.000000 0.000000 0.025599 0.000000
# 6 0.000000 0.000000 0.000000 0.000000 0.000000 0.029301
#
#
# Mechanical properties :
#
#
# Convention : Reuss Voigt Hill
#
# Bulk Modulus (GPa) = 44.66752 49.02423 46.84588
# Shear Modulus (GPa) = 34.47848 36.54020 35.50934
#
# Velocity S-wave (km/s) = 3.96503 4.08186 4.02387
# Velocity P-wave (km/s) = 6.42880 6.67604 6.55359
#
# Compressibility (1/GPa) = 0.02238763
#
# Stress axis : x y z
#
# Youngs Moduli (GPa) = 55.58952 88.42114 89.28207
#
# Poissons Ratio (x) = 0.55746 0.03106
# Poissons Ratio (y) = 0.35047 0.21457
# Poissons Ratio (z) = 0.01934 0.21250
#
# Static dielectric constant tensor:
#      x y z
#    x 3.673740 0.000000 0.000000 
#    y 0.000000 4.218810 0.000000 
#    z 0.000000 0.000000 3.924540 
# 
# 
# High freq. dielectric constant tensor:
#      x y z
#    x 1.854750 0.000000 0.000000 
#    y 0.000000 1.877960 0.000000 
#    z 0.000000 0.000000 1.880990 
# 
# From -- ./inp_files/1785.got.cif
#   From: 2010.03.12/outbox.cif.g09.slc.cpg/sg41_1_cif.got.tgz:1785.got - 2010.04.14 01:55:53.
