data_PCOD8185123
_publ_section_title
;
Structure prediction by ZEFSAII (Michael W. Deem and Ramdas Pophale) SiO2 
 PCOD8185123
Probable space group: A B A 2
;
_chemical_formula_sum "Si O2"
_cell_formula_units_Z 60
_cell_length_a 15.014332
_cell_length_b 8.084511
_cell_length_c 23.881862
_cell_angle_alpha 90.000000
_cell_angle_beta 90.000000
_cell_angle_gamma 90.000000
_cell_volume 2898.864765
_symmetry_space_group_name_H-M "A B A 2"
_symmetry_group_IT_number 41
_symmetry_cell_setting 'orthorhombic'
loop_
_space_group_symop_operation_xyz
x,y,z
-x,-y,z
1/2-x,y,1/2+z
1/2+x,-y,1/2+z
x,1/2+y,1/2+z
-x,1/2-y,1/2+z
1/2-x,1/2+y,z
1/2+x,1/2-y,z
loop_
_atom_site_type_symbol
_atom_site_label
_atom_site_fract_x
_atom_site_fract_y
_atom_site_fract_z
Si Si1 0.363935 0.285291 0.532360
Si Si2 0.000000 0.500000 0.100598
Si Si3 0.171977 0.892228 0.834810
Si Si4 0.215256 0.974652 0.086643
Si Si5 0.155713 0.678850 0.153100
Si Si6 0.084433 0.090097 0.927507
Si Si7 0.996204 0.317303 0.837046
Si Si8 0.340200 0.732215 0.778786
O O1 0.448922 0.376800 0.558382
O O2 0.279410 0.408815 0.536424
O O3 0.373288 0.227015 0.468162
O O4 0.349951 0.116879 0.566387
O O5 0.940858 0.400245 0.145150
O O6 0.270065 0.818285 0.822004
O O7 0.103624 0.741176 0.822568
O O8 0.157472 0.963234 0.899083
O O9 0.154176 0.037217 0.790796
O O10 0.156507 0.823296 0.107266
O O11 0.272922 0.037873 0.138741
O O12 0.182103 0.750577 0.213543
O O13 0.040283 0.184088 0.876639
O O14 0.000000 0.000000 0.958095
O O15 0.062709 0.318834 0.783769
O O16 0.000000 0.500000 0.864002
#
# Coordination Sequence:
#
# PCOD8185123 Si02
#       8
#     8   4   8   8   8   8   8   8
#     4  10  21  40  62  87 122 170 199 266 313 379
#     4  10  24  36  58  92 122 160 222 254 316 376
#     4  10  22  39  59  92 121 158 206 259 306 390
#     4   9  21  40  58  86 129 153 217 253 307 377
#     4  10  21  39  58  90 119 168 201 265 307 376
#     4   9  21  38  61  88 121 161 202 257 323 367
#     4  10  22  40  57  90 123 152 207 259 299 385
#     4  11  21  38  65  84 125 163 203 251 323 363
#
# _framework density 20.697756999999999
#
# number of rings (size 3 to 8) (size 9 to 14) (size 15 to 20)
#    0.000    2.133    0.000    2.800    4.667    2.133 
#    2.400    0.000    0.000    0.000    0.000    0.000 
#    0.000    0.000    0.000    0.000    0.000    0.000 
#
# Total GULP energy -371764.870869 kJ/mol
# GULP energy per Si atom -12392.162362 kJ/mol
# Density = 2.065065 g / cm^3
# Si number density = 20.697757 Si / 1000 Ang^3
#
#
#
# Elastic Constant Matrix: (Units=GPa)
#
#
# Indices 1 2 3 4 5 6 
#
# 1 89.9609 38.9256 35.2923 0.0000 0.0000 0.0000
# 2 38.9256 102.1405 15.0372 0.0000 0.0000 0.0000
# 3 35.2923 15.0372 90.6021 0.0000 0.0000 0.0000
# 4 0.0000 0.0000 0.0000 28.3749 0.0000 0.0000
# 5 0.0000 0.0000 0.0000 0.0000 15.2591 0.0000
# 6 0.0000 0.0000 0.0000 0.0000 0.0000 38.9920
#
#
#
# Elastic Compliance Matrix: (Units=1/GPa)
#
#
# Indices 1 2 3 4 5 6 
#
# 1 0.015328 -0.005087 -0.005127 0.000000 0.000000 0.000000
# 2 -0.005087 0.011724 0.000036 0.000000 0.000000 0.000000
# 3 -0.005127 0.000036 0.013028 0.000000 0.000000 0.000000
# 4 0.000000 0.000000 0.000000 0.035242 0.000000 0.000000
# 5 0.000000 0.000000 0.000000 0.000000 0.065535 0.000000
# 6 0.000000 0.000000 0.000000 0.000000 0.000000 0.025646
#
#
# Mechanical properties :
#
#
# Convention : Reuss Voigt Hill
#
# Bulk Modulus (GPa) = 50.69739 51.24598 50.97168
# Shear Modulus (GPa) = 25.84866 29.42177 27.63522
#
# Velocity S-wave (km/s) = 3.53776 3.77436 3.65797
# Velocity P-wave (km/s) = 6.42145 6.61871 6.52083
#
# Compressibility (1/GPa) = 0.01972488
#
# Stress axis : x y z
#
# Youngs Moduli (GPa) = 65.23949 85.29685 76.75606
#
# Poissons Ratio (x) = 0.43389 0.39349
# Poissons Ratio (y) = 0.33186 -0.00274
# Poissons Ratio (z) = 0.33445 -0.00304
#
# Static dielectric constant tensor:
#      x y z
#    x 4.153580 0.000000 0.000000 
#    y 0.000000 4.100780 0.000000 
#    z 0.000000 0.000000 3.478390 
# 
# 
# High freq. dielectric constant tensor:
#      x y z
#    x 1.810990 0.000000 0.000000 
#    y 0.000000 1.826130 0.000000 
#    z 0.000000 0.000000 1.786280 
# 
# From -- ./inp_files/12206.got.cif
#   From: 2010.03.12/outbox.cif.g09.slc.cpg/sg41_7_cif.got.tgz:12206.got - 2010.04.14 01:55:53.
