data_PCOD8185951
_publ_section_title
;
Structure prediction by ZEFSAII (Michael W. Deem and Ramdas Pophale) SiO2 
 PCOD8185951
Probable space group: F M M 2
;
_chemical_formula_sum "Si O2"
_cell_formula_units_Z 112
_cell_length_a 19.736121
_cell_length_b 17.760705
_cell_length_c 16.956410
_cell_angle_alpha 90.000000
_cell_angle_beta 90.000000
_cell_angle_gamma 90.000000
_cell_volume 5943.686699
_symmetry_space_group_name_H-M "F M M 2"
_symmetry_group_IT_number 42
_symmetry_cell_setting 'orthorhombic'
loop_
_space_group_symop_operation_xyz
x,y,z
-x,-y,z
-x,y,z
x,-y,z
x,1/2+y,1/2+z
-x,1/2-y,1/2+z
-x,1/2+y,1/2+z
x,1/2-y,1/2+z
1/2+x,y,1/2+z
1/2-x,-y,1/2+z
1/2-x,y,1/2+z
1/2+x,-y,1/2+z
1/2+x,1/2+y,z
1/2-x,1/2-y,z
1/2-x,1/2+y,z
1/2+x,1/2-y,z
loop_
_atom_site_type_symbol
_atom_site_label
_atom_site_fract_x
_atom_site_fract_y
_atom_site_fract_z
Si Si1 0.576832 0.184197 0.141760
Si Si2 0.129420 0.585464 0.009667
Si Si3 0.420861 0.414402 0.791172
Si Si4 0.717401 0.913711 0.565360
Si Si5 0.674830 0.670429 0.369182
Si Si6 0.176341 0.661768 0.411337
Si Si7 0.816752 0.200420 0.194367
O O1 0.500000 0.213221 0.152660
O O2 0.598700 0.127628 0.211047
O O3 0.627356 0.254928 0.143656
O O4 0.580425 0.139331 0.059455
O O5 0.102844 0.500000 0.014269
O O6 0.129533 0.610603 0.917656
O O7 0.203889 0.593962 0.045900
O O8 0.500000 0.409824 0.809115
O O9 0.396085 0.500000 0.781906
O O10 0.384059 0.375911 0.863924
O O11 0.673805 0.871020 0.499260
O O12 0.702960 0.875403 0.649107
O O13 0.694069 0.000000 0.569895
O O14 0.752672 0.642495 0.368784
O O15 0.666583 0.748769 0.415918
O O16 0.650709 0.678048 0.278822
O O17 0.750000 0.250000 0.209285
#
# Coordination Sequence:
#
# PCOD8185951 Si02
#       7
#    16  16  16  16  16  16  16
#     4  11  22  38  59  88 118 152 194 239 288 346
#     4  10  21  37  56  85 119 154 191 236 288 343
#     4  10  20  34  56  85 119 154 186 232 293 353
#     4  10  22  35  57  87 117 150 191 242 290 338
#     4  10  20  34  57  84 107 153 195 239 287 337
#     4  10  18  35  54  81 116 147 193 234 291 337
#     4  12  20  38  62  85 117 154 196 241 291 343
#
# _framework density 18.843523000000001
#
# number of rings (size 3 to 8) (size 9 to 14) (size 15 to 20)
#    0.000    1.571    4.286    1.714    2.000    2.000 
#    0.000    3.571    0.000    1.286    0.000    0.000 
#    0.000    0.000    0.000    0.000    0.000    0.000 
#
# Total GULP energy -347302.240131 kJ/mol
# GULP energy per Si atom -12403.651433 kJ/mol
# Density = 1.880063 g / cm^3
# Si number density = 18.843523 Si / 1000 Ang^3
#
#
#
# Elastic Constant Matrix: (Units=GPa)
#
#
# Indices 1 2 3 4 5 6 
#
# 1 42.1599 19.5143 14.2424 0.0000 0.0000 0.0000
# 2 19.5143 92.6442 45.1972 0.0000 0.0000 0.0000
# 3 14.2424 45.1972 106.1442 0.0000 0.0000 0.0000
# 4 0.0000 0.0000 0.0000 31.3497 0.0000 0.0000
# 5 0.0000 0.0000 0.0000 0.0000 20.9796 0.0000
# 6 0.0000 0.0000 0.0000 0.0000 0.0000 22.0757
#
#
#
# Elastic Compliance Matrix: (Units=1/GPa)
#
#
# Indices 1 2 3 4 5 6 
#
# 1 0.026466 -0.004850 -0.001486 0.000000 0.000000 0.000000
# 2 -0.004850 0.014513 -0.005529 0.000000 0.000000 0.000000
# 3 -0.001486 -0.005529 0.011975 0.000000 0.000000 0.000000
# 4 0.000000 0.000000 0.000000 0.031898 0.000000 0.000000
# 5 0.000000 0.000000 0.000000 0.000000 0.047665 0.000000
# 6 0.000000 0.000000 0.000000 0.000000 0.000000 0.045299
#
#
# Mechanical properties :
#
#
# Convention : Reuss Voigt Hill
#
# Bulk Modulus (GPa) = 34.21836 44.31734 39.26785
# Shear Modulus (GPa) = 23.66449 25.68062 24.67255
#
# Velocity S-wave (km/s) = 3.54763 3.69566 3.62240
# Velocity P-wave (km/s) = 5.91435 6.46376 6.19515
#
# Compressibility (1/GPa) = 0.02922407
#
# Stress axis : x y z
#
# Youngs Moduli (GPa) = 37.78431 68.90442 83.50838
#
# Poissons Ratio (x) = 0.33416 0.12411
# Poissons Ratio (y) = 0.18324 0.46172
# Poissons Ratio (z) = 0.05615 0.38097
#
# Static dielectric constant tensor:
#      x y z
#    x 3.181020 0.000000 0.000000 
#    y 0.000000 3.530540 0.000000 
#    z 0.000000 0.000000 3.445240 
# 
# 
# High freq. dielectric constant tensor:
#      x y z
#    x 1.702860 0.000000 0.000000 
#    y 0.000000 1.732110 0.000000 
#    z 0.000000 0.000000 1.736110 
# 
# From -- ./inp_files/21807.got.cif
#   From: 2010.03.12/outbox.cif.g09.slc.cpg/sg42_11_cif.got.tgz:21807.got - 2010.04.14 02:04:31.
