data_PCOD8185800
_publ_section_title
;
Structure prediction by ZEFSAII (Michael W. Deem and Ramdas Pophale) SiO2 
 PCOD8185800
Probable space group: F M M 2
;
_chemical_formula_sum "Si O2"
_cell_formula_units_Z 88
_cell_length_a 22.726831
_cell_length_b 14.393979
_cell_length_c 13.858652
_cell_angle_alpha 90.000000
_cell_angle_beta 90.000000
_cell_angle_gamma 90.000000
_cell_volume 4533.574290
_symmetry_space_group_name_H-M "F M M 2"
_symmetry_group_IT_number 42
_symmetry_cell_setting 'orthorhombic'
loop_
_space_group_symop_operation_xyz
x,y,z
-x,-y,z
-x,y,z
x,-y,z
x,1/2+y,1/2+z
-x,1/2-y,1/2+z
-x,1/2+y,1/2+z
x,1/2-y,1/2+z
1/2+x,y,1/2+z
1/2-x,-y,1/2+z
1/2-x,y,1/2+z
1/2+x,-y,1/2+z
1/2+x,1/2+y,z
1/2-x,1/2-y,z
1/2-x,1/2+y,z
1/2+x,1/2-y,z
loop_
_atom_site_type_symbol
_atom_site_label
_atom_site_fract_x
_atom_site_fract_y
_atom_site_fract_z
Si Si1 0.751246 0.500000 0.989751
Si Si2 0.630879 0.359512 0.712705
Si Si3 0.382860 0.855123 0.717369
Si Si4 0.431144 0.500000 0.070006
Si Si5 0.566328 0.000000 0.852710
Si Si6 0.742195 0.852008 0.643913
Si Si7 0.639532 0.500000 0.873085
Si Si8 0.616372 0.500000 0.549016
O O1 0.711147 0.500000 0.892415
O O2 0.731441 0.410812 0.049127
O O3 0.822645 0.500000 0.985360
O O4 0.604161 0.255622 0.716120
O O5 0.701049 0.374428 0.707307
O O6 0.616581 0.410557 0.813001
O O7 0.606770 0.409636 0.616217
O O8 0.403249 0.904945 0.815506
O O9 0.312749 0.866419 0.714416
O O10 0.414903 0.906606 0.628807
O O11 0.500000 0.500000 0.046408
O O12 0.394420 0.500000 0.972888
O O13 0.500000 0.000000 0.813608
O O14 0.566001 0.000000 0.968490
O O15 0.750000 0.750000 0.601384
#
# Coordination Sequence:
#
# PCOD8185800 Si02
#       8
#     8  16  16   8   8  16   8   8
#     4  10  17  33  57  84 115 159 180 236 300 347
#     4   9  21  37  58  86 124 149 190 238 304 362
#     4  10  19  38  59  84 118 154 189 251 293 344
#     4  11  23  40  62  85 114 158 211 246 286 347
#     4  11  24  40  59  87 115 154 214 250 282 346
#     4   9  17  33  55  86 118 151 188 231 292 364
#     4  11  21  36  58  90 120 150 197 243 296 354
#     4   9  21  39  58  82 120 157 198 235 294 360
#
# _framework density 19.410733
#
# number of rings (size 3 to 8) (size 9 to 14) (size 15 to 20)
#    0.000    2.182    1.818    2.182    2.545    1.455 
#    3.273    7.273    0.000    0.000    0.000    0.000 
#    0.000    0.000    0.000    0.000    0.000    0.000 
#
# Total GULP energy -272604.676251 kJ/mol
# GULP energy per Si atom -12391.121648 kJ/mol
# Density = 1.936655 g / cm^3
# Si number density = 19.410733 Si / 1000 Ang^3
#
#
#
# Elastic Constant Matrix: (Units=GPa)
#
#
# Indices 1 2 3 4 5 6 
#
# 1 57.0213 31.4435 17.9533 0.0000 0.0000 0.0000
# 2 31.4435 163.3645 58.1774 0.0000 0.0000 0.0000
# 3 17.9533 58.1774 113.4002 0.0000 0.0000 0.0000
# 4 0.0000 0.0000 0.0000 11.9759 0.0000 0.0000
# 5 0.0000 0.0000 0.0000 0.0000 19.5590 0.0000
# 6 0.0000 0.0000 0.0000 0.0000 0.0000 9.4086
#
#
#
# Elastic Compliance Matrix: (Units=1/GPa)
#
#
# Indices 1 2 3 4 5 6 
#
# 1 0.019811 -0.003299 -0.001444 0.000000 0.000000 0.000000
# 2 -0.003299 0.008039 -0.003602 0.000000 0.000000 0.000000
# 3 -0.001444 -0.003602 0.010895 0.000000 0.000000 0.000000
# 4 0.000000 0.000000 0.000000 0.083501 0.000000 0.000000
# 5 0.000000 0.000000 0.000000 0.000000 0.051127 0.000000
# 6 0.000000 0.000000 0.000000 0.000000 0.000000 0.106286
#
#
# Mechanical properties :
#
#
# Convention : Reuss Voigt Hill
#
# Bulk Modulus (GPa) = 45.34084 60.99271 53.16677
# Shear Modulus (GPa) = 16.46358 23.26949 19.86654
#
# Velocity S-wave (km/s) = 2.91549 3.46612 3.20266
# Velocity P-wave (km/s) = 5.89430 6.89268 6.41295
#
# Compressibility (1/GPa) = 0.02205517
#
# Stress axis : x y z
#
# Youngs Moduli (GPa) = 50.47682 124.39445 91.78669
#
# Poissons Ratio (x) = 0.41036 0.13254
# Poissons Ratio (y) = 0.16652 0.33061
# Poissons Ratio (z) = 0.07289 0.44806
#
# Static dielectric constant tensor:
#      x y z
#    x 3.454580 0.000000 0.000000 
#    y 0.000000 3.794050 0.000000 
#    z 0.000000 0.000000 3.304570 
# 
# 
# High freq. dielectric constant tensor:
#      x y z
#    x 1.741630 0.000000 0.000000 
#    y 0.000000 1.763220 0.000000 
#    z 0.000000 0.000000 1.744510 
# 
# From -- ./inp_files/16514.got.cif
#   From: 2010.03.12/outbox.cif.g09.slc.cpg/sg42_9_cif.got.tgz:16514.got - 2010.04.14 02:04:31.
