data_PCOD8185171
_publ_section_title
;
Structure prediction by ZEFSAII (Michael W. Deem and Ramdas Pophale) SiO2 
 PCOD8185171
Probable space group: A B A 2
;
_chemical_formula_sum "Si O2"
_cell_formula_units_Z 44
_cell_length_a 13.725408
_cell_length_b 9.736738
_cell_length_c 15.639267
_cell_angle_alpha 90.000000
_cell_angle_beta 90.000000
_cell_angle_gamma 90.000000
_cell_volume 2090.042615
_symmetry_space_group_name_H-M "A B A 2"
_symmetry_group_IT_number 41
_symmetry_cell_setting 'orthorhombic'
loop_
_space_group_symop_operation_xyz
x,y,z
-x,-y,z
1/2-x,y,1/2+z
1/2+x,-y,1/2+z
x,1/2+y,1/2+z
-x,1/2-y,1/2+z
1/2-x,1/2+y,z
1/2+x,1/2-y,z
loop_
_atom_site_type_symbol
_atom_site_label
_atom_site_fract_x
_atom_site_fract_y
_atom_site_fract_z
Si Si1 0.315885 0.790160 0.056560
Si Si2 0.310801 0.897740 0.297480
Si Si3 0.325757 0.500945 0.986096
Si Si4 0.471820 0.281120 0.682134
Si Si5 0.000000 0.500000 0.608554
Si Si6 0.694471 0.320722 0.715888
O O1 0.422153 0.834251 0.093192
O O2 0.253121 0.728223 0.133819
O O3 0.320322 0.667242 0.986673
O O4 0.273136 0.929684 0.018624
O O5 0.341248 0.948030 0.390770
O O6 0.409623 0.828910 0.263045
O O7 0.222370 0.786329 0.292514
O O8 0.273466 0.026316 0.241419
O O9 0.412619 0.449094 0.047282
O O10 0.467532 0.117163 0.673888
O O11 0.580603 0.332929 0.695056
#
# Coordination Sequence:
#
# PCOD8185171 Si02
#       6
#     8   8   8   8   4   8
#     4  10  21  40  66  88 124 168 212 256 309 379
#     4  11  25  38  65  92 129 165 204 268 326 371
#     4  11  22  41  61  94 127 163 210 267 325 365
#     4  10  22  39  66  91 121 170 217 250 312 381
#     4  10  22  40  66  88 126 170 214 264 308 390
#     4  11  22  42  63  92 124 165 217 256 310 395
#
# _framework density 21.052202999999999
#
# number of rings (size 3 to 8) (size 9 to 14) (size 15 to 20)
#    0.000    1.455    1.818    3.818    7.636    0.000 
#    0.000    0.000    0.000    2.182    0.000    0.000 
#    0.000    0.000    0.000    0.000    0.000    0.000 
#
# Total GULP energy -272698.090095 kJ/mol
# GULP energy per Si atom -12395.367732 kJ/mol
# Density = 2.100429 g / cm^3
# Si number density = 21.052203 Si / 1000 Ang^3
#
#
#
# Elastic Constant Matrix: (Units=GPa)
#
#
# Indices 1 2 3 4 5 6 
#
# 1 102.6629 43.2644 10.3822 0.0000 0.0000 0.0000
# 2 43.2644 84.0052 36.0537 0.0000 0.0000 0.0000
# 3 10.3822 36.0537 83.6049 0.0000 0.0000 0.0000
# 4 0.0000 0.0000 0.0000 36.9843 0.0000 0.0000
# 5 0.0000 0.0000 0.0000 0.0000 13.7093 0.0000
# 6 0.0000 0.0000 0.0000 0.0000 0.0000 36.3427
#
#
#
# Elastic Compliance Matrix: (Units=1/GPa)
#
#
# Indices 1 2 3 4 5 6 
#
# 1 0.012595 -0.007136 0.001513 0.000000 0.000000 0.000000
# 2 -0.007136 0.018651 -0.007157 0.000000 0.000000 0.000000
# 3 0.001513 -0.007157 0.014859 0.000000 0.000000 0.000000
# 4 0.000000 0.000000 0.000000 0.027039 0.000000 0.000000
# 5 0.000000 0.000000 0.000000 0.000000 0.072943 0.000000
# 6 0.000000 0.000000 0.000000 0.000000 0.000000 0.027516
#
#
# Mechanical properties :
#
#
# Convention : Reuss Voigt Hill
#
# Bulk Modulus (GPa) = 48.67145 49.96374 49.31760
# Shear Modulus (GPa) = 24.27061 29.44544 26.85802
#
# Velocity S-wave (km/s) = 3.39909 3.74396 3.57568
# Velocity P-wave (km/s) = 6.21085 6.51724 6.36589
#
# Compressibility (1/GPa) = 0.02054592
#
# Stress axis : x y z
#
# Youngs Moduli (GPa) = 79.39724 53.61682 67.29753
#
# Poissons Ratio (x) = 0.38262 -0.10184
# Poissons Ratio (y) = 0.56659 0.48164
# Poissons Ratio (z) = -0.12015 0.38373
#
# Static dielectric constant tensor:
#      x y z
#    x 4.037130 0.000000 0.000000 
#    y 0.000000 4.089340 0.000000 
#    z 0.000000 0.000000 3.719200 
# 
# 
# High freq. dielectric constant tensor:
#      x y z
#    x 1.825830 0.000000 0.000000 
#    y 0.000000 1.837730 0.000000 
#    z 0.000000 0.000000 1.808860 
# 
# From -- ./inp_files/8300.got.cif
#   From: 2010.03.12/outbox.cif.g09.slc.cpg/sg41_5_cif.got.tgz:8300.got - 2010.04.14 01:55:53.
