data_PCOD8185035
_publ_section_title
;
Structure prediction by ZEFSAII (Michael W. Deem and Ramdas Pophale) SiO2 
 PCOD8185035
Probable space group: A B A 2
;
_chemical_formula_sum "Si O2"
_cell_formula_units_Z 48
_cell_length_a 7.238486
_cell_length_b 15.210242
_cell_length_c 17.994149
_cell_angle_alpha 90.000000
_cell_angle_beta 90.000000
_cell_angle_gamma 90.000000
_cell_volume 1981.140038
_symmetry_space_group_name_H-M "A B A 2"
_symmetry_group_IT_number 41
_symmetry_cell_setting 'orthorhombic'
loop_
_space_group_symop_operation_xyz
x,y,z
-x,-y,z
1/2-x,y,1/2+z
1/2+x,-y,1/2+z
x,1/2+y,1/2+z
-x,1/2-y,1/2+z
1/2-x,1/2+y,z
1/2+x,1/2-y,z
loop_
_atom_site_type_symbol
_atom_site_label
_atom_site_fract_x
_atom_site_fract_y
_atom_site_fract_z
Si Si1 0.797803 0.041454 0.215290
Si Si2 0.162623 0.371655 0.869980
Si Si3 0.791231 0.356905 0.198037
Si Si4 0.919809 0.688702 0.628937
Si Si5 0.261473 0.672754 0.863862
Si Si6 0.546920 0.094951 0.479467
O O1 0.761130 0.075392 0.298760
O O2 0.756391 0.123496 0.158862
O O3 0.661500 0.960870 0.190342
O O4 0.000000 0.000000 0.208511
O O5 0.253862 0.275662 0.878969
O O6 0.249902 0.417287 0.942983
O O7 0.940772 0.371507 0.870784
O O8 0.575626 0.338049 0.187577
O O9 0.886993 0.293055 0.137188
O O10 0.846793 0.332707 0.281591
O O11 0.961459 0.669226 0.543281
O O12 0.395954 0.621750 0.918802
O O13 0.500000 0.000000 0.515243
#
# Coordination Sequence:
#
# PCOD8185035 Si02
#       6
#     8   8   8   8   8   8
#     4  10  20  41  74  98 137 191 243 305 370 434
#     4  12  24  44  73 111 147 191 250 313 371 453
#     4  11  22  43  74  95 138 192 240 301 370 439
#     4  11  25  45  67 103 143 189 239 305 374 449
#     4  12  23  45  75 110 145 196 252 313 377 450
#     4  12  29  45  73 110 152 198 250 310 389 457
#
# _framework density 24.228476000000001
#
# number of rings (size 3 to 8) (size 9 to 14) (size 15 to 20)
#    0.000    0.667    6.667    2.500    2.333    0.000 
#    0.000    0.833    3.667    0.000    0.000    0.000 
#    0.000    0.000    0.000    0.000    0.000    0.000 
#
# Total GULP energy -297410.771286 kJ/mol
# GULP energy per Si atom -12392.115470 kJ/mol
# Density = 2.417333 g / cm^3
# Si number density = 24.228476 Si / 1000 Ang^3
#
#
#
# Elastic Constant Matrix: (Units=GPa)
#
#
# Indices 1 2 3 4 5 6 
#
# 1 54.8665 48.7854 41.2579 0.0000 0.0000 0.0000
# 2 48.7854 140.3626 40.8948 0.0000 0.0000 0.0000
# 3 41.2579 40.8948 141.1791 0.0000 0.0000 0.0000
# 4 0.0000 0.0000 0.0000 46.7406 0.0000 0.0000
# 5 0.0000 0.0000 0.0000 0.0000 23.7054 0.0000
# 6 0.0000 0.0000 0.0000 0.0000 0.0000 38.5732
#
#
#
# Elastic Compliance Matrix: (Units=1/GPa)
#
#
# Indices 1 2 3 4 5 6 
#
# 1 0.031006 -0.008887 -0.006487 0.000000 0.000000 0.000000
# 2 -0.008887 0.010328 -0.000395 0.000000 0.000000 0.000000
# 3 -0.006487 -0.000395 0.009093 0.000000 0.000000 0.000000
# 4 0.000000 0.000000 0.000000 0.021395 0.000000 0.000000
# 5 0.000000 0.000000 0.000000 0.000000 0.042184 0.000000
# 6 0.000000 0.000000 0.000000 0.000000 0.000000 0.025925
#
#
# Mechanical properties :
#
#
# Convention : Reuss Voigt Hill
#
# Bulk Modulus (GPa) = 52.93629 66.47604 59.70616
# Shear Modulus (GPa) = 28.12717 35.50185 31.81451
#
# Velocity S-wave (km/s) = 3.41091 3.83207 3.62761
# Velocity P-wave (km/s) = 6.11626 6.86122 6.49943
#
# Compressibility (1/GPa) = 0.01889063
#
# Stress axis : x y z
#
# Youngs Moduli (GPa) = 32.25220 96.82340 109.97163
#
# Poissons Ratio (x) = 0.86043 0.71337
# Poissons Ratio (y) = 0.28661 0.04341
# Poissons Ratio (z) = 0.20922 0.03822
#
# Static dielectric constant tensor:
#      x y z
#    x 4.222390 0.000000 0.000000 
#    y 0.000000 5.457690 0.000000 
#    z 0.000000 0.000000 4.046930 
# 
# 
# High freq. dielectric constant tensor:
#      x y z
#    x 1.948290 0.000000 0.000000 
#    y 0.000000 1.988930 0.000000 
#    z 0.000000 0.000000 1.944610 
# 
# From -- ./inp_files/9671.got.cif
#   From: 2010.03.12/outbox.cif.g09.slc.cpg/sg41_5_cif.got.tgz:9671.got - 2010.04.14 01:55:53.
