data_PCOD8185267
_publ_section_title
;
Structure prediction by ZEFSAII (Michael W. Deem and Ramdas Pophale) SiO2 
 PCOD8185267
Probable space group: A B A 2
;
_chemical_formula_sum "Si O2"
_cell_formula_units_Z 60
_cell_length_a 10.872177
_cell_length_b 8.891421
_cell_length_c 27.729475
_cell_angle_alpha 90.000000
_cell_angle_beta 90.000000
_cell_angle_gamma 90.000000
_cell_volume 2680.583472
_symmetry_space_group_name_H-M "A B A 2"
_symmetry_group_IT_number 41
_symmetry_cell_setting 'orthorhombic'
loop_
_space_group_symop_operation_xyz
x,y,z
-x,-y,z
1/2-x,y,1/2+z
1/2+x,-y,1/2+z
x,1/2+y,1/2+z
-x,1/2-y,1/2+z
1/2-x,1/2+y,z
1/2+x,1/2-y,z
loop_
_atom_site_type_symbol
_atom_site_label
_atom_site_fract_x
_atom_site_fract_y
_atom_site_fract_z
Si Si1 0.339186 0.652834 0.707030
Si Si2 0.119755 0.923176 0.562870
Si Si3 0.000000 0.000000 0.870087
Si Si4 0.781630 0.853765 0.009184
Si Si5 0.306284 0.696896 0.817776
Si Si6 0.139642 0.488733 0.871005
Si Si7 0.832867 0.111434 0.945107
Si Si8 0.388353 0.832087 0.173078
O O1 0.299763 0.696069 0.760583
O O2 0.220685 0.708164 0.675747
O O3 0.347851 0.473069 0.705481
O O4 0.472978 0.722636 0.689711
O O5 0.133199 0.768813 0.534048
O O6 0.105243 0.890663 0.618865
O O7 0.224653 0.045445 0.551994
O O8 0.000000 0.000000 0.541550
O O9 0.093421 0.078807 0.835028
O O10 0.937030 0.126903 0.904201
O O11 0.683110 0.766844 0.974463
O O12 0.866423 0.967921 0.978764
O O13 0.183131 0.646981 0.846802
O O14 0.338726 0.866596 0.829601
O O15 0.205282 0.437994 0.920111
O O16 0.000000 0.500000 0.885946
#
# Coordination Sequence:
#
# PCOD8185267 Si02
#       8
#     8   8   4   8   8   8   8   8
#     4  11  24  44  72 101 140 175 235 276 343 408
#     4  11  23  44  68  94 133 172 219 279 347 397
#     4  10  22  36  66  88 138 168 222 272 328 392
#     4  10  24  41  64  96 125 169 227 277 329 411
#     4  11  25  43  66  99 133 184 226 275 331 400
#     4  11  26  42  68  95 139 181 228 278 335 402
#     4  10  22  41  61  97 129 175 222 273 338 384
#     4  11  24  45  71 103 136 182 218 294 343 413
#
# _framework density 22.383187
#
# number of rings (size 3 to 8) (size 9 to 14) (size 15 to 20)
#    0.000    1.333    1.333    4.000    9.333    2.667 
#    0.000    0.000    0.000    0.000    0.000    0.000 
#    0.000    0.000    0.000    0.000    0.000    0.000 
#
# Total GULP energy -371832.869184 kJ/mol
# GULP energy per Si atom -12394.428973 kJ/mol
# Density = 2.233224 g / cm^3
# Si number density = 22.383187 Si / 1000 Ang^3
#
#
#
# Elastic Constant Matrix: (Units=GPa)
#
#
# Indices 1 2 3 4 5 6 
#
# 1 116.7667 -0.2171 11.0078 0.0000 0.0000 0.0000
# 2 -0.2171 61.7622 3.3887 0.0000 0.0000 0.0000
# 3 11.0078 3.3887 85.2419 0.0000 0.0000 0.0000
# 4 0.0000 0.0000 0.0000 6.7077 0.0000 0.0000
# 5 0.0000 0.0000 0.0000 0.0000 1.6339 0.0000
# 6 0.0000 0.0000 0.0000 0.0000 0.0000 26.7505
#
#
#
# Elastic Compliance Matrix: (Units=1/GPa)
#
#
# Indices 1 2 3 4 5 6 
#
# 1 0.008670 0.000092 -0.001123 0.000000 0.000000 0.000000
# 2 0.000092 0.016228 -0.000657 0.000000 0.000000 0.000000
# 3 -0.001123 -0.000657 0.011902 0.000000 0.000000 0.000000
# 4 0.000000 0.000000 0.000000 0.149082 0.000000 0.000000
# 5 0.000000 0.000000 0.000000 0.000000 0.612029 0.000000
# 6 0.000000 0.000000 0.000000 0.000000 0.000000 0.037382
#
#
# Mechanical properties :
#
#
# Convention : Reuss Voigt Hill
#
# Bulk Modulus (GPa) = 29.91882 32.45885 31.18883
# Shear Modulus (GPa) = 5.88366 23.65785 14.77075
#
# Velocity S-wave (km/s) = 1.62306 3.25460 2.57165
# Velocity P-wave (km/s) = 4.11194 5.35314 4.77306
#
# Compressibility (1/GPa) = 0.03342378
#
# Stress axis : x y z
#
# Youngs Moduli (GPa) = 115.33822 61.62377 84.01597
#
# Poissons Ratio (x) = -0.00568 0.09437
# Poissons Ratio (y) = -0.01062 0.05520
# Poissons Ratio (z) = 0.12956 0.04049
#
# Static dielectric constant tensor:
#      x y z
#    x 4.254870 0.000000 0.000000 
#    y 0.000000 4.189980 0.000000 
#    z 0.000000 0.000000 4.048220 
# 
# 
# High freq. dielectric constant tensor:
#      x y z
#    x 1.879260 0.000000 0.000000 
#    y 0.000000 1.885230 0.000000 
#    z 0.000000 0.000000 1.889910 
# 
# From -- ./inp_files/12706.got.cif
#   From: 2010.03.12/outbox.cif.g09.slc.cpg/sg41_7_cif.got.tgz:12706.got - 2010.04.14 01:55:53.
