data_PCOD8185796
_publ_section_title
;
Structure prediction by ZEFSAII (Michael W. Deem and Ramdas Pophale) SiO2 
 PCOD8185796
Probable space group: F M M 2
;
_chemical_formula_sum "Si O2"
_cell_formula_units_Z 96
_cell_length_a 16.320170
_cell_length_b 14.768026
_cell_length_c 20.159272
_cell_angle_alpha 90.000000
_cell_angle_beta 90.000000
_cell_angle_gamma 90.000000
_cell_volume 4858.721109
_symmetry_space_group_name_H-M "F M M 2"
_symmetry_group_IT_number 42
_symmetry_cell_setting 'orthorhombic'
loop_
_space_group_symop_operation_xyz
x,y,z
-x,-y,z
-x,y,z
x,-y,z
x,1/2+y,1/2+z
-x,1/2-y,1/2+z
-x,1/2+y,1/2+z
x,1/2-y,1/2+z
1/2+x,y,1/2+z
1/2-x,-y,1/2+z
1/2-x,y,1/2+z
1/2+x,-y,1/2+z
1/2+x,1/2+y,z
1/2-x,1/2-y,z
1/2-x,1/2+y,z
1/2+x,1/2-y,z
loop_
_atom_site_type_symbol
_atom_site_label
_atom_site_fract_x
_atom_site_fract_y
_atom_site_fract_z
Si Si1 0.095826 0.170925 0.509900
Si Si2 0.094913 0.312530 0.621894
Si Si3 0.346749 0.500000 0.583606
Si Si4 0.171679 0.500000 0.645713
Si Si5 0.096700 0.000000 0.288843
Si Si6 0.909356 0.500000 0.218364
Si Si7 0.596535 0.182134 0.861779
Si Si8 0.098273 0.195228 0.745496
O O1 0.111106 0.259002 0.554095
O O2 0.148442 0.087768 0.537510
O O3 0.129943 0.193088 0.436408
O O4 0.000000 0.143229 0.508641
O O5 0.135615 0.409878 0.612523
O O6 0.131593 0.255363 0.683844
O O7 0.000000 0.329383 0.635449
O O8 0.267496 0.500000 0.630898
O O9 0.418950 0.500000 0.638163
O O10 0.151745 0.500000 0.723468
O O11 0.121808 0.914367 0.332519
O O12 0.000000 0.000000 0.269674
O O13 0.864918 0.406941 0.241995
O O14 0.000000 0.500000 0.249229
O O15 0.500000 0.191512 0.862987
O O16 0.631097 0.261087 0.813898
O O17 0.000000 0.191823 0.740592
#
# Coordination Sequence:
#
# PCOD8185796 Si02
#       8
#    16  16   8   8   8   8  16  16
#     4  10  20  36  59  87 115 147 190 238 287 342
#     4  10  19  35  58  82 112 147 189 236 283 339
#     4  12  23  34  53  83 118 150 188 238 284 336
#     4  12  24  34  52  82 117 154 191 234 285 339
#     4  10  17  31  56  84 115 143 182 242 287 333
#     4  10  18  33  55  81 112 145 187 236 286 336
#     4   9  17  30  55  89 113 136 181 239 298 338
#     4   9  16  29  54  84 112 142 180 234 286 335
#
# _framework density 19.758285999999998
#
# number of rings (size 3 to 8) (size 9 to 14) (size 15 to 20)
#    0.000    2.000    3.333    2.000    0.000    2.000 
#    0.000    0.833    0.000   10.000    0.000    0.000 
#    0.000    0.000    0.000    0.000    0.000    0.000 
#
# Total GULP energy -297530.314997 kJ/mol
# GULP energy per Si atom -12397.096458 kJ/mol
# Density = 1.971331 g / cm^3
# Si number density = 19.758286 Si / 1000 Ang^3
#
#
#
# Elastic Constant Matrix: (Units=GPa)
#
#
# Indices 1 2 3 4 5 6 
#
# 1 32.6308 25.8958 28.4192 0.0000 0.0000 0.0000
# 2 25.8958 180.4472 80.9172 0.0000 0.0000 0.0000
# 3 28.4192 80.9172 175.2853 0.0000 0.0000 0.0000
# 4 0.0000 0.0000 0.0000 30.4820 0.0000 0.0000
# 5 0.0000 0.0000 0.0000 0.0000 15.1857 0.0000
# 6 0.0000 0.0000 0.0000 0.0000 0.0000 4.6917
#
#
#
# Elastic Compliance Matrix: (Units=1/GPa)
#
#
# Indices 1 2 3 4 5 6 
#
# 1 0.037199 -0.003321 -0.004498 0.000000 0.000000 0.000000
# 2 -0.003321 0.007285 -0.002824 0.000000 0.000000 0.000000
# 3 -0.004498 -0.002824 0.007738 0.000000 0.000000 0.000000
# 4 0.000000 0.000000 0.000000 0.032806 0.000000 0.000000
# 5 0.000000 0.000000 0.000000 0.000000 0.065851 0.000000
# 6 0.000000 0.000000 0.000000 0.000000 0.000000 0.213143
#
#
# Mechanical properties :
#
#
# Convention : Reuss Voigt Hill
#
# Bulk Modulus (GPa) = 32.32622 73.20308 52.76465
# Shear Modulus (GPa) = 12.63833 26.94729 19.79281
#
# Velocity S-wave (km/s) = 2.53187 3.69704 3.16847
# Velocity P-wave (km/s) = 4.99435 7.44002 6.33630
#
# Compressibility (1/GPa) = 0.03093464
#
# Stress axis : x y z
#
# Youngs Moduli (GPa) = 26.88237 137.26804 129.23077
#
# Poissons Ratio (x) = 0.45593 0.58126
# Poissons Ratio (y) = 0.08929 0.36501
# Poissons Ratio (z) = 0.12091 0.38771
#
# Static dielectric constant tensor:
#      x y z
#    x 3.059580 0.000000 0.000000 
#    y 0.000000 3.948160 0.000000 
#    z 0.000000 0.000000 3.793000 
# 
# 
# High freq. dielectric constant tensor:
#      x y z
#    x 1.719440 0.000000 0.000000 
#    y 0.000000 1.784940 0.000000 
#    z 0.000000 0.000000 1.768540 
# 
# From -- ./inp_files/25162.got.cif
#   From: 2010.03.12/outbox.cif.g09.slc.cpg/sg42_13_cif.got.tgz:25162.got - 2010.04.14 02:04:31.
