data_PCOD8185186
_publ_section_title
;
Structure prediction by ZEFSAII (Michael W. Deem and Ramdas Pophale) SiO2 
 PCOD8185186
Probable space group: A B A 2
;
_chemical_formula_sum "Si O2"
_cell_formula_units_Z 40
_cell_length_a 9.512853
_cell_length_b 21.433479
_cell_length_c 9.928544
_cell_angle_alpha 90.000000
_cell_angle_beta 90.000000
_cell_angle_gamma 90.000000
_cell_volume 2024.365934
_symmetry_space_group_name_H-M "A B A 2"
_symmetry_group_IT_number 41
_symmetry_cell_setting 'orthorhombic'
loop_
_space_group_symop_operation_xyz
x,y,z
-x,-y,z
1/2-x,y,1/2+z
1/2+x,-y,1/2+z
x,1/2+y,1/2+z
-x,1/2-y,1/2+z
1/2-x,1/2+y,z
1/2+x,1/2-y,z
loop_
_atom_site_type_symbol
_atom_site_label
_atom_site_fract_x
_atom_site_fract_y
_atom_site_fract_z
Si Si1 0.239047 0.213013 0.448740
Si Si2 0.538499 0.175549 0.469976
Si Si3 0.161723 0.644450 0.688739
Si Si4 0.625499 0.544161 0.881413
Si Si5 0.660686 0.997680 0.677502
O O1 0.405397 0.214185 0.408300
O O2 0.177352 0.282135 0.467540
O O3 0.154624 0.174838 0.335744
O O4 0.223344 0.178800 0.593179
O O5 0.494016 0.151977 0.620555
O O6 0.569494 0.114703 0.381701
O O7 0.211872 0.573260 0.694904
O O8 0.500000 0.500000 0.831529
O O9 0.751185 0.541966 0.775136
O O10 0.682247 0.521306 0.025689
O O11 0.500000 0.000000 0.723222
#
# Coordination Sequence:
#
# PCOD8185186 Si02
#       5
#     8   8   8   8   8
#     4  10  23  37  65  88 128 169 209 262 329 369
#     4  10  23  40  63  91 131 163 215 266 316 389
#     4  10  21  41  63  89 129 160 214 264 320 378
#     4  11  22  43  64  94 130 166 210 271 326 384
#     4  11  21  41  68  90 127 168 210 268 326 383
#
# _framework density 19.759273
#
# number of rings (size 3 to 8) (size 9 to 14) (size 15 to 20)
#    1.200    0.400    4.000    2.400    2.800    4.000 
#    0.000    2.000    0.000    0.000    0.000    0.000 
#    0.000    0.000    0.000    0.000    0.000    0.000 
#
# Total GULP energy -247908.933193 kJ/mol
# GULP energy per Si atom -12395.446660 kJ/mol
# Density = 1.971430 g / cm^3
# Si number density = 19.759273 Si / 1000 Ang^3
#
#
#
# Elastic Constant Matrix: (Units=GPa)
#
#
# Indices 1 2 3 4 5 6 
#
# 1 89.7903 38.7269 30.8473 0.0000 0.0000 0.0000
# 2 38.7269 120.0203 4.7925 0.0000 0.0000 0.0000
# 3 30.8473 4.7925 64.2781 0.0000 0.0000 0.0000
# 4 0.0000 0.0000 0.0000 22.7355 0.0000 0.0000
# 5 0.0000 0.0000 0.0000 0.0000 23.3928 0.0000
# 6 0.0000 0.0000 0.0000 0.0000 0.0000 39.1120
#
#
#
# Elastic Compliance Matrix: (Units=1/GPa)
#
#
# Indices 1 2 3 4 5 6 
#
# 1 0.015650 -0.004764 -0.007155 0.000000 0.000000 0.000000
# 2 -0.004764 0.009807 0.001555 0.000000 0.000000 0.000000
# 3 -0.007155 0.001555 0.018875 0.000000 0.000000 0.000000
# 4 0.000000 0.000000 0.000000 0.043984 0.000000 0.000000
# 5 0.000000 0.000000 0.000000 0.000000 0.042748 0.000000
# 6 0.000000 0.000000 0.000000 0.000000 0.000000 0.025568
#
#
# Mechanical properties :
#
#
# Convention : Reuss Voigt Hill
#
# Bulk Modulus (GPa) = 42.36604 46.98025 44.67315
# Shear Modulus (GPa) = 26.99365 30.36286 28.67826
#
# Velocity S-wave (km/s) = 3.70012 3.92425 3.81383
# Velocity P-wave (km/s) = 6.30414 6.66040 6.48472
#
# Compressibility (1/GPa) = 0.02360381
#
# Stress axis : x y z
#
# Youngs Moduli (GPa) = 63.89778 101.96753 52.97932
#
# Poissons Ratio (x) = 0.48578 0.37908
# Poissons Ratio (y) = 0.30441 -0.08239
# Poissons Ratio (z) = 0.45721 -0.15857
#
# Static dielectric constant tensor:
#      x y z
#    x 3.381270 0.000000 0.000000 
#    y 0.000000 3.543430 0.000000 
#    z 0.000000 0.000000 3.415640 
# 
# 
# High freq. dielectric constant tensor:
#      x y z
#    x 1.752970 0.000000 0.000000 
#    y 0.000000 1.777720 0.000000 
#    z 0.000000 0.000000 1.760830 
# 
# From -- ./inp_files/4426.got.cif
#   From: 2010.03.12/outbox.cif.g09.slc.cpg/sg41_3_cif.got.tgz:4426.got - 2010.04.14 01:55:53.
