data_PCOD8185421
_publ_section_title
;
Structure prediction by ZEFSAII (Michael W. Deem and Ramdas Pophale) SiO2 
 PCOD8185421
Probable space group: A B A 2
;
_chemical_formula_sum "Si O2"
_cell_formula_units_Z 48
_cell_length_a 9.879321
_cell_length_b 17.364958
_cell_length_c 13.696281
_cell_angle_alpha 90.000000
_cell_angle_beta 90.000000
_cell_angle_gamma 90.000000
_cell_volume 2349.651712
_symmetry_space_group_name_H-M "A B A 2"
_symmetry_group_IT_number 41
_symmetry_cell_setting 'orthorhombic'
loop_
_space_group_symop_operation_xyz
x,y,z
-x,-y,z
1/2-x,y,1/2+z
1/2+x,-y,1/2+z
x,1/2+y,1/2+z
-x,1/2-y,1/2+z
1/2-x,1/2+y,z
1/2+x,1/2-y,z
loop_
_atom_site_type_symbol
_atom_site_label
_atom_site_fract_x
_atom_site_fract_y
_atom_site_fract_z
Si Si1 0.340508 0.488694 0.050380
Si Si2 0.327465 0.099324 0.716966
Si Si3 0.176313 0.238572 0.802001
Si Si4 0.919951 0.767957 0.433707
Si Si5 0.409472 0.829775 0.623332
Si Si6 0.618090 0.946706 0.921816
O O1 0.500000 0.500000 0.034243
O O2 0.274291 0.539809 0.136631
O O3 0.321867 0.399433 0.077808
O O4 0.261225 0.516311 0.954559
O O5 0.208174 0.152852 0.760695
O O6 0.446007 0.149137 0.668458
O O7 0.387644 0.048770 0.804844
O O8 0.285533 0.264223 0.882162
O O9 0.181845 0.294436 0.708903
O O10 0.034922 0.243275 0.857616
O O11 0.941761 0.730712 0.538527
O O12 0.906608 0.858918 0.454580
O O13 0.500000 0.000000 0.965927
#
# Coordination Sequence:
#
# PCOD8185421 Si02
#       6
#     8   8   8   8   8   8
#     4  10  24  41  67  93 129 180 219 276 345 412
#     4  10  23  42  66  90 137 172 219 276 346 403
#     4  11  23  44  64 102 129 184 222 292 343 412
#     4  11  27  39  73  99 137 178 237 286 355 419
#     4  11  23  42  69  99 134 179 232 278 354 421
#     4  11  23  44  64  96 134 175 223 282 346 413
#
# _framework density 20.428559
#
# number of rings (size 3 to 8) (size 9 to 14) (size 15 to 20)
#    0.000    1.333    3.333    2.500   14.000    0.000 
#    3.000    0.833    0.000    0.000    0.000    0.000 
#    0.000    0.000    0.000    0.000    0.000    0.000 
#
# Total GULP energy -297535.765162 kJ/mol
# GULP energy per Si atom -12397.323548 kJ/mol
# Density = 2.038206 g / cm^3
# Si number density = 20.428559 Si / 1000 Ang^3
#
#
#
# Elastic Constant Matrix: (Units=GPa)
#
#
# Indices 1 2 3 4 5 6 
#
# 1 52.2640 40.9489 26.8117 0.0000 0.0000 0.0000
# 2 40.9489 115.3365 52.0476 0.0000 0.0000 0.0000
# 3 26.8117 52.0476 126.3816 0.0000 0.0000 0.0000
# 4 0.0000 0.0000 0.0000 34.2623 0.0000 0.0000
# 5 0.0000 0.0000 0.0000 0.0000 35.7077 0.0000
# 6 0.0000 0.0000 0.0000 0.0000 0.0000 31.1228
#
#
#
# Elastic Compliance Matrix: (Units=1/GPa)
#
#
# Indices 1 2 3 4 5 6 
#
# 1 0.026990 -0.008596 -0.002186 0.000000 0.000000 0.000000
# 2 -0.008596 0.013387 -0.003690 0.000000 0.000000 0.000000
# 3 -0.002186 -0.003690 0.009896 0.000000 0.000000 0.000000
# 4 0.000000 0.000000 0.000000 0.029187 0.000000 0.000000
# 5 0.000000 0.000000 0.000000 0.000000 0.028005 0.000000
# 6 0.000000 0.000000 0.000000 0.000000 0.000000 0.032131
#
#
# Mechanical properties :
#
#
# Convention : Reuss Voigt Hill
#
# Bulk Modulus (GPa) = 46.88231 59.28871 53.08551
# Shear Modulus (GPa) = 28.46594 31.83015 30.14804
#
# Velocity S-wave (km/s) = 3.73693 3.95159 3.84575
# Velocity P-wave (km/s) = 6.45126 7.06438 6.76477
#
# Compressibility (1/GPa) = 0.02133001
#
# Stress axis : x y z
#
# Youngs Moduli (GPa) = 37.05075 74.69800 101.05369
#
# Poissons Ratio (x) = 0.64211 0.22088
# Poissons Ratio (y) = 0.31849 0.37285
# Poissons Ratio (z) = 0.08098 0.27561
#
# Static dielectric constant tensor:
#      x y z
#    x 3.564330 0.000000 0.000000 
#    y 0.000000 3.930340 0.000000 
#    z 0.000000 0.000000 3.893100 
# 
# 
# High freq. dielectric constant tensor:
#      x y z
#    x 1.785160 0.000000 0.000000 
#    y 0.000000 1.805040 0.000000 
#    z 0.000000 0.000000 1.813330 
# 
# From -- ./inp_files/7312.got.cif
#   From: 2010.03.12/outbox.cif.g09.slc.cpg/sg41_4_cif.got.tgz:7312.got - 2010.04.14 01:55:53.
