data_PCOD8185190
_publ_section_title
;
Structure prediction by ZEFSAII (Michael W. Deem and Ramdas Pophale) SiO2 
 PCOD8185190
Probable space group: A B A 2
;
_chemical_formula_sum "Si O2"
_cell_formula_units_Z 60
_cell_length_a 16.773260
_cell_length_b 16.613487
_cell_length_c 9.610706
_cell_angle_alpha 90.000000
_cell_angle_beta 90.000000
_cell_angle_gamma 90.000000
_cell_volume 2678.141794
_symmetry_space_group_name_H-M "A B A 2"
_symmetry_group_IT_number 41
_symmetry_cell_setting 'orthorhombic'
loop_
_space_group_symop_operation_xyz
x,y,z
-x,-y,z
1/2-x,y,1/2+z
1/2+x,-y,1/2+z
x,1/2+y,1/2+z
-x,1/2-y,1/2+z
1/2-x,1/2+y,z
1/2+x,1/2-y,z
loop_
_atom_site_type_symbol
_atom_site_label
_atom_site_fract_x
_atom_site_fract_y
_atom_site_fract_z
Si Si1 0.839857 0.831914 0.992040
Si Si2 0.500000 0.000000 0.901523
Si Si3 0.196379 0.011403 0.814005
Si Si4 0.164393 0.208317 0.513101
Si Si5 0.477896 0.629197 0.173014
Si Si6 0.837060 0.470274 0.994684
Si Si7 0.581449 0.630008 0.910125
Si Si8 0.446871 0.212718 0.270742
O O1 0.899498 0.768921 0.915090
O O2 0.827267 0.904374 0.883198
O O3 0.760215 0.784097 0.038030
O O4 0.885879 0.869682 0.123551
O O5 0.514736 0.924528 0.806255
O O6 0.577200 0.013669 0.998447
O O7 0.135994 0.940162 0.851456
O O8 0.203115 0.023333 0.647497
O O9 0.281345 0.985318 0.880542
O O10 0.152537 0.122014 0.438866
O O11 0.130831 0.285665 0.430089
O O12 0.119451 0.193773 0.657412
O O13 0.496704 0.716902 0.225596
O O14 0.542033 0.602216 0.055962
O O15 0.509172 0.640109 0.799888
#
# Coordination Sequence:
#
# PCOD8185190 Si02
#       8
#     8   4   8   8   8   8   8   8
#     4  10  22  42  73  93 137 187 226 288 345 426
#     4  12  26  40  70 100 138 184 226 296 352 412
#     4  11  25  47  68 103 138 183 234 290 348 425
#     4  10  22  43  67 100 129 182 224 281 348 411
#     4  10  23  41  67 101 139 178 236 284 351 424
#     4  11  27  44  71  99 143 178 237 285 349 425
#     4  10  23  43  70  97 139 181 227 293 347 422
#     4  10  21  41  64  97 134 173 230 277 339 418
#
# _framework density 22.403593999999998
#
# number of rings (size 3 to 8) (size 9 to 14) (size 15 to 20)
#    0.000    1.600    1.333    1.600    7.467    3.733 
#    4.800    0.000    0.000    0.000    0.000    0.000 
#    0.000    0.000    0.000    0.000    0.000    0.000 
#
# Total GULP energy -371765.827448 kJ/mol
# GULP energy per Si atom -12392.194248 kJ/mol
# Density = 2.235260 g / cm^3
# Si number density = 22.403594 Si / 1000 Ang^3
#
#
#
# Elastic Constant Matrix: (Units=GPa)
#
#
# Indices 1 2 3 4 5 6 
#
# 1 168.7952 26.9366 53.2074 0.0000 0.0000 0.0000
# 2 26.9366 36.9511 32.2419 0.0000 0.0000 0.0000
# 3 53.2074 32.2419 96.1195 0.0000 0.0000 0.0000
# 4 0.0000 0.0000 0.0000 26.9828 0.0000 0.0000
# 5 0.0000 0.0000 0.0000 0.0000 46.1196 0.0000
# 6 0.0000 0.0000 0.0000 0.0000 0.0000 29.9093
#
#
#
# Elastic Compliance Matrix: (Units=1/GPa)
#
#
# Indices 1 2 3 4 5 6 
#
# 1 0.007343 -0.002554 -0.003208 0.000000 0.000000 0.000000
# 2 -0.002554 0.039149 -0.011719 0.000000 0.000000 0.000000
# 3 -0.003208 -0.011719 0.016110 0.000000 0.000000 0.000000
# 4 0.000000 0.000000 0.000000 0.037061 0.000000 0.000000
# 5 0.000000 0.000000 0.000000 0.000000 0.021683 0.000000
# 6 0.000000 0.000000 0.000000 0.000000 0.000000 0.033434
#
#
# Mechanical properties :
#
#
# Convention : Reuss Voigt Hill
#
# Bulk Modulus (GPa) = 36.17658 58.51529 47.34594
# Shear Modulus (GPa) = 25.13120 33.23432 29.18276
#
# Velocity S-wave (km/s) = 3.35289 3.85572 3.61306
# Velocity P-wave (km/s) = 5.58318 6.78215 6.21166
#
# Compressibility (1/GPa) = 0.02764219
#
# Stress axis : x y z
#
# Youngs Moduli (GPa) = 136.18126 25.54316 62.07139
#
# Poissons Ratio (x) = 0.06523 0.19914
# Poissons Ratio (y) = 0.34776 0.72739
# Poissons Ratio (z) = 0.43690 0.29933
#
# Static dielectric constant tensor:
#      x y z
#    x 4.544290 0.000000 0.000000 
#    y 0.000000 3.698640 0.000000 
#    z 0.000000 0.000000 4.184560 
# 
# 
# High freq. dielectric constant tensor:
#      x y z
#    x 1.905810 0.000000 0.000000 
#    y 0.000000 1.861650 0.000000 
#    z 0.000000 0.000000 1.884530 
# 
# From -- ./inp_files/3166.got.cif
#   From: 2010.03.12/outbox.cif.g09.slc.cpg/sg41_2_cif.got.tgz:3166.got - 2010.04.14 01:55:53.
