data_PCOD8185727
_publ_section_title
;
Structure prediction by ZEFSAII (Michael W. Deem and Ramdas Pophale) SiO2 
 PCOD8185727
Probable space group: A B A 2
;
_chemical_formula_sum "Si O2"
_cell_formula_units_Z 32
_cell_length_a 12.421589
_cell_length_b 12.346435
_cell_length_c 8.056988
_cell_angle_alpha 90.000000
_cell_angle_beta 90.000000
_cell_angle_gamma 90.000000
_cell_volume 1235.638543
_symmetry_space_group_name_H-M "A B A 2"
_symmetry_group_IT_number 41
_symmetry_cell_setting 'orthorhombic'
loop_
_space_group_symop_operation_xyz
x,y,z
-x,-y,z
1/2-x,y,1/2+z
1/2+x,-y,1/2+z
x,1/2+y,1/2+z
-x,1/2-y,1/2+z
1/2-x,1/2+y,z
1/2+x,1/2-y,z
loop_
_atom_site_type_symbol
_atom_site_label
_atom_site_fract_x
_atom_site_fract_y
_atom_site_fract_z
Si Si1 0.614363 0.789058 0.243700
Si Si2 0.876760 0.988546 0.964834
Si Si3 0.017533 0.379819 0.947989
Si Si4 0.781749 0.611827 0.167658
O O1 0.516406 0.708039 0.299078
O O2 0.572172 0.857548 0.087016
O O3 0.720556 0.724319 0.194069
O O4 0.645797 0.869615 0.392979
O O5 0.851889 0.080268 0.827199
O O6 0.801884 0.013947 0.124144
O O7 0.000000 0.000000 0.019274
O O8 0.139375 0.370204 0.013565
O O9 0.000000 0.500000 0.876734
#
# Coordination Sequence:
#
# PCOD8185727 Si02
#       4
#     8   8   8   8
#     4  12  27  45  79 106 149 203 246 310 387 438
#     4  12  26  52  74 111 157 193 259 318 366 463
#     4  12  27  49  73 110 151 194 257 310 369 461
#     4  12  26  48  74 111 150 198 247 314 379 441
#
# _framework density 25.897542000000001
#
# number of rings (size 3 to 8) (size 9 to 14) (size 15 to 20)
#    0.000    0.000    7.500    1.500    3.500    5.000 
#    0.000    0.000    0.000    0.000    0.000    0.000 
#    0.000    0.000    0.000    0.000    0.000    0.000 
#
# Total GULP energy -198523.334929 kJ/mol
# GULP energy per Si atom -12407.708433 kJ/mol
# Density = 2.583860 g / cm^3
# Si number density = 25.897542 Si / 1000 Ang^3
#
#
#
# Elastic Constant Matrix: (Units=GPa)
#
#
# Indices 1 2 3 4 5 6 
#
# 1 111.1816 10.0252 -2.2598 0.0000 0.0000 0.0000
# 2 10.0252 146.7595 -3.4346 0.0000 0.0000 0.0000
# 3 -2.2598 -3.4346 31.7990 0.0000 0.0000 0.0000
# 4 0.0000 0.0000 0.0000 25.7412 0.0000 0.0000
# 5 0.0000 0.0000 0.0000 0.0000 33.2009 0.0000
# 6 0.0000 0.0000 0.0000 0.0000 0.0000 50.5938
#
#
#
# Elastic Compliance Matrix: (Units=1/GPa)
#
#
# Indices 1 2 3 4 5 6 
#
# 1 0.009061 -0.000605 0.000579 0.000000 0.000000 0.000000
# 2 -0.000605 0.006872 0.000699 0.000000 0.000000 0.000000
# 3 0.000579 0.000699 0.031564 0.000000 0.000000 0.000000
# 4 0.000000 0.000000 0.000000 0.038848 0.000000 0.000000
# 5 0.000000 0.000000 0.000000 0.000000 0.030120 0.000000
# 6 0.000000 0.000000 0.000000 0.000000 0.000000 0.019765
#
#
# Mechanical properties :
#
#
# Convention : Reuss Voigt Hill
#
# Bulk Modulus (GPa) = 20.47462 33.15573 26.81518
# Shear Modulus (GPa) = 33.07638 40.93446 37.00542
#
# Velocity S-wave (km/s) = 3.57767 3.98003 3.78420
# Velocity P-wave (km/s) = 4.99895 5.82677 5.42866
#
# Compressibility (1/GPa) = 0.04884096
#
# Stress axis : x y z
#
# Youngs Moduli (GPa) = 110.36747 145.52675 31.68152
#
# Poissons Ratio (x) = 0.08810 -0.01833
# Poissons Ratio (y) = 0.06682 -0.02215
# Poissons Ratio (z) = -0.06385 -0.10175
#
# Static dielectric constant tensor:
#      x y z
#    x 4.652870 0.000000 0.000000 
#    y 0.000000 4.738350 0.000000 
#    z 0.000000 0.000000 4.548700 
# 
# 
# High freq. dielectric constant tensor:
#      x y z
#    x 2.038760 0.000000 0.000000 
#    y 0.000000 2.046240 0.000000 
#    z 0.000000 0.000000 2.030910 
# 
# From -- ./inp_files/1906.got.cif
#   From: 2010.03.12/outbox.cif.g09.slc.cpg/sg41_1_cif.got.tgz:1906.got - 2010.04.14 01:55:53.
