data_PCOD8185848
_publ_section_title
;
Structure prediction by ZEFSAII (Michael W. Deem and Ramdas Pophale) SiO2 
 PCOD8185848
Probable space group: F M M 2
;
_chemical_formula_sum "Si O2"
_cell_formula_units_Z 120
_cell_length_a 30.751160
_cell_length_b 10.178137
_cell_length_c 22.319304
_cell_angle_alpha 90.000000
_cell_angle_beta 90.000000
_cell_angle_gamma 90.000000
_cell_volume 6985.708232
_symmetry_space_group_name_H-M "F M M 2"
_symmetry_group_IT_number 42
_symmetry_cell_setting 'orthorhombic'
loop_
_space_group_symop_operation_xyz
x,y,z
-x,-y,z
-x,y,z
x,-y,z
x,1/2+y,1/2+z
-x,1/2-y,1/2+z
-x,1/2+y,1/2+z
x,1/2-y,1/2+z
1/2+x,y,1/2+z
1/2-x,-y,1/2+z
1/2-x,y,1/2+z
1/2+x,-y,1/2+z
1/2+x,1/2+y,z
1/2-x,1/2-y,z
1/2-x,1/2+y,z
1/2+x,1/2-y,z
loop_
_atom_site_type_symbol
_atom_site_label
_atom_site_fract_x
_atom_site_fract_y
_atom_site_fract_z
Si Si1 0.048896 0.851894 0.616690
Si Si2 0.872655 0.349693 0.036439
Si Si3 0.549497 0.153334 0.723171
Si Si4 0.750000 0.750000 0.978975
Si Si5 0.806411 0.357169 0.578260
Si Si6 0.785206 0.351240 0.713176
Si Si7 0.334393 0.347392 0.414820
Si Si8 0.633634 0.345967 0.290386
O O1 0.078420 0.827352 0.558443
O O2 0.059590 0.743272 0.666066
O O3 0.000000 0.835779 0.593419
O O4 0.056638 0.000000 0.642507
O O5 0.857225 0.500000 0.045906
O O6 0.869319 0.311197 0.966456
O O7 0.840940 0.259148 0.074872
O O8 0.500000 0.177124 0.746472
O O9 0.584535 0.198924 0.773146
O O10 0.556105 0.000000 0.705478
O O11 0.713718 0.806745 0.934858
O O12 0.771416 0.855926 0.024102
O O13 0.829727 0.500000 0.575377
O O14 0.782831 0.342130 0.641675
O O15 0.774129 0.500000 0.734561
O O16 0.750000 0.250000 0.740381
O O17 0.832685 0.308701 0.737601
O O18 0.332533 0.500000 0.402628
O O19 0.350552 0.278707 0.352987
O O20 0.632112 0.500000 0.299672
#
# Coordination Sequence:
#
# PCOD8185848 Si02
#       8
#    16  16  16   8  16  16  16  16
#     4   9  17  30  49  74 102 127 153 192 243 293
#     4   9  18  31  48  70  95 126 161 195 236 287
#     4   9  17  31  53  77  98 124 160 200 243 294
#     4  10  18  30  48  68  88 128 166 202 234 292
#     4  10  19  31  48  70  95 122 156 201 247 286
#     4  10  20  32  47  68  95 126 156 194 240 285
#     4   9  18  31  47  66  92 128 164 199 238 280
#     4   9  18  32  48  68  97 128 160 198 243 285
#
# _framework density 17.177928999999999
#
# number of rings (size 3 to 8) (size 9 to 14) (size 15 to 20)
#    0.000    2.667    0.667    1.200    0.933    2.667 
#    0.000    1.333    0.000    8.000    0.000    0.000 
#    0.000    4.267    0.000    0.000    0.000    0.000 
#
# Total GULP energy -371748.952429 kJ/mol
# GULP energy per Si atom -12391.631748 kJ/mol
# Density = 1.713883 g / cm^3
# Si number density = 17.177929 Si / 1000 Ang^3
#
#
#
# Elastic Constant Matrix: (Units=GPa)
#
#
# Indices 1 2 3 4 5 6 
#
# 1 124.7099 33.9433 62.9579 0.0000 0.0000 0.0000
# 2 33.9433 54.6520 20.4478 0.0000 0.0000 0.0000
# 3 62.9579 20.4478 88.6108 0.0000 0.0000 0.0000
# 4 0.0000 0.0000 0.0000 15.0858 0.0000 0.0000
# 5 0.0000 0.0000 0.0000 0.0000 26.8938 0.0000
# 6 0.0000 0.0000 0.0000 0.0000 0.0000 24.0378
#
#
#
# Elastic Compliance Matrix: (Units=1/GPa)
#
#
# Indices 1 2 3 4 5 6 
#
# 1 0.013807 -0.005368 -0.008571 0.000000 0.000000 0.000000
# 2 -0.005368 0.022114 -0.001289 0.000000 0.000000 0.000000
# 3 -0.008571 -0.001289 0.017672 0.000000 0.000000 0.000000
# 4 0.000000 0.000000 0.000000 0.066288 0.000000 0.000000
# 5 0.000000 0.000000 0.000000 0.000000 0.037183 0.000000
# 6 0.000000 0.000000 0.000000 0.000000 0.000000 0.041601
#
#
# Mechanical properties :
#
#
# Convention : Reuss Voigt Hill
#
# Bulk Modulus (GPa) = 43.22089 55.85231 49.53660
# Shear Modulus (GPa) = 21.11193 23.24505 22.17849
#
# Velocity S-wave (km/s) = 3.50953 3.68257 3.59709
# Velocity P-wave (km/s) = 6.45273 7.11803 6.79353
#
# Compressibility (1/GPa) = 0.02313696
#
# Stress axis : x y z
#
# Youngs Moduli (GPa) = 72.42932 45.22032 56.58588
#
# Poissons Ratio (x) = 0.24276 0.48498
# Poissons Ratio (y) = 0.38882 0.07293
# Poissons Ratio (z) = 0.62078 0.05828
#
# Static dielectric constant tensor:
#      x y z
#    x 3.322220 0.000000 0.000000 
#    y 0.000000 3.184440 0.000000 
#    z 0.000000 0.000000 3.271480 
# 
# 
# High freq. dielectric constant tensor:
#      x y z
#    x 1.662040 0.000000 0.000000 
#    y 0.000000 1.649050 0.000000 
#    z 0.000000 0.000000 1.651970 
# 
# From -- ./inp_files/27415.got.cif
#   From: 2010.03.12/outbox.cif.g09.slc.cpg/sg42_14_cif.got.tgz:27415.got - 2010.04.14 02:04:31.
