data_PCOD8185787
_publ_section_title
;
Structure prediction by ZEFSAII (Michael W. Deem and Ramdas Pophale) SiO2 
 PCOD8185787
Probable space group: F M M 2
;
_chemical_formula_sum "Si O2"
_cell_formula_units_Z 128
_cell_length_a 17.326811
_cell_length_b 20.998426
_cell_length_c 19.811600
_cell_angle_alpha 90.000000
_cell_angle_beta 90.000000
_cell_angle_gamma 90.000000
_cell_volume 7208.168515
_symmetry_space_group_name_H-M "F M M 2"
_symmetry_group_IT_number 42
_symmetry_cell_setting 'orthorhombic'
loop_
_space_group_symop_operation_xyz
x,y,z
-x,-y,z
-x,y,z
x,-y,z
x,1/2+y,1/2+z
-x,1/2-y,1/2+z
-x,1/2+y,1/2+z
x,1/2-y,1/2+z
1/2+x,y,1/2+z
1/2-x,-y,1/2+z
1/2-x,y,1/2+z
1/2+x,-y,1/2+z
1/2+x,1/2+y,z
1/2-x,1/2-y,z
1/2-x,1/2+y,z
1/2+x,1/2-y,z
loop_
_atom_site_type_symbol
_atom_site_label
_atom_site_fract_x
_atom_site_fract_y
_atom_site_fract_z
Si Si1 0.091911 0.808310 0.161960
Si Si2 0.091903 0.569853 0.740364
Si Si3 0.908379 0.875973 0.378497
Si Si4 0.588152 0.768078 0.518204
Si Si5 0.091888 0.311575 0.250233
Si Si6 0.659907 0.260749 0.879390
Si Si7 0.591763 0.929265 0.162652
Si Si8 0.087927 0.381299 0.023934
O O1 0.125159 0.874517 0.192423
O O2 0.120692 0.804124 0.084524
O O3 0.121392 0.748559 0.206040
O O4 0.000000 0.807088 0.162864
O O5 0.120685 0.500000 0.716113
O O6 0.120883 0.579878 0.817463
O O7 0.000000 0.573215 0.739201
O O8 0.884781 0.803983 0.363453
O O9 0.873818 0.899444 0.451036
O O10 0.000000 0.875656 0.383476
O O11 0.500000 0.787443 0.502788
O O12 0.639262 0.787623 0.453702
O O13 0.593942 0.693854 0.534981
O O14 0.132229 0.311083 0.323289
O O15 0.121826 0.376635 0.215225
O O16 0.000000 0.310658 0.258752
O O17 0.750000 0.250000 0.874362
O O18 0.500000 0.922849 0.157896
O O19 0.627714 0.915946 0.087835
O O20 0.616930 0.000000 0.186363
O O21 0.000000 0.404060 0.021567
#
# Coordination Sequence:
#
# PCOD8185787 Si02
#       8
#    16  16  16  16  16  16  16  16
#     4   9  15  26  48  72  95 125 157 190 234 287
#     4   9  16  25  42  73 104 125 153 197 241 283
#     4   9  16  28  47  68  97 131 159 191 242 298
#     4   9  16  29  49  70  92 124 161 195 241 293
#     4  10  17  30  51  72  97 129 158 190 239 290
#     4  11  21  31  46  71  98 124 161 208 242 278
#     4   9  16  25  42  72 103 126 155 198 240 279
#     4   8  13  22  39  64  92 122 154 187 230 284
#
# _framework density 17.757631
#
# number of rings (size 3 to 8) (size 9 to 14) (size 15 to 20)
#    0.000    2.750    2.500    1.875    0.000    0.500 
#    0.000    3.125    0.000    1.500    0.000    3.500 
#    0.000    0.000    0.000    0.000    0.000    0.000 
#
# Total GULP energy -396545.234208 kJ/mol
# GULP energy per Si atom -12392.038569 kJ/mol
# Density = 1.771721 g / cm^3
# Si number density = 17.757631 Si / 1000 Ang^3
#
#
#
# Elastic Constant Matrix: (Units=GPa)
#
#
# Indices 1 2 3 4 5 6 
#
# 1 18.6720 9.8805 30.2445 0.0000 0.0000 0.0000
# 2 9.8805 115.8647 77.1487 0.0000 0.0000 0.0000
# 3 30.2445 77.1487 149.6213 0.0000 0.0000 0.0000
# 4 0.0000 0.0000 0.0000 26.4045 0.0000 0.0000
# 5 0.0000 0.0000 0.0000 0.0000 4.1250 0.0000
# 6 0.0000 0.0000 0.0000 0.0000 0.0000 3.8246
#
#
#
# Elastic Compliance Matrix: (Units=1/GPa)
#
#
# Indices 1 2 3 4 5 6 
#
# 1 0.082446 0.006192 -0.019858 0.000000 0.000000 0.000000
# 2 0.006192 0.013608 -0.008268 0.000000 0.000000 0.000000
# 3 -0.019858 -0.008268 0.014961 0.000000 0.000000 0.000000
# 4 0.000000 0.000000 0.000000 0.037872 0.000000 0.000000
# 5 0.000000 0.000000 0.000000 0.000000 0.242426 0.000000
# 6 0.000000 0.000000 0.000000 0.000000 0.000000 0.261462
#
#
# Mechanical properties :
#
#
# Convention : Reuss Voigt Hill
#
# Bulk Modulus (GPa) = 14.89300 57.63392 36.26346
# Shear Modulus (GPa) = 6.95384 17.99644 12.47514
#
# Velocity S-wave (km/s) = 1.98103 3.18692 2.65339
# Velocity P-wave (km/s) = 3.69292 6.78736 5.46379
#
# Compressibility (1/GPa) = 0.06714562
#
# Stress axis : x y z
#
# Youngs Moduli (GPa) = 12.12920 73.48454 66.83963
#
# Poissons Ratio (x) = -0.45503 1.32733
# Poissons Ratio (y) = -0.07511 0.55266
# Poissons Ratio (z) = 0.24087 0.60761
#
# Static dielectric constant tensor:
#      x y z
#    x 2.677520 0.000000 0.000000 
#    y 0.000000 3.271070 0.000000 
#    z 0.000000 0.000000 3.686160 
# 
# 
# High freq. dielectric constant tensor:
#      x y z
#    x 1.617150 0.000000 0.000000 
#    y 0.000000 1.666610 0.000000 
#    z 0.000000 0.000000 1.704270 
# 
# From -- ./inp_files/26250.got.cif
#   From: 2010.03.12/outbox.cif.g09.slc.cpg/sg42_14_cif.got.tgz:26250.got - 2010.04.14 02:04:31.
