data_PCOD8185066
_publ_section_title
;
Structure prediction by ZEFSAII (Michael W. Deem and Ramdas Pophale) SiO2 
 PCOD8185066
Probable space group: A B A 2
;
_chemical_formula_sum "Si O2"
_cell_formula_units_Z 64
_cell_length_a 5.015592
_cell_length_b 35.105900
_cell_length_c 18.474905
_cell_angle_alpha 90.000000
_cell_angle_beta 90.000000
_cell_angle_gamma 90.000000
_cell_volume 3253.003468
_symmetry_space_group_name_H-M "A B A 2"
_symmetry_group_IT_number 41
_symmetry_cell_setting 'orthorhombic'
loop_
_space_group_symop_operation_xyz
x,y,z
-x,-y,z
1/2-x,y,1/2+z
1/2+x,-y,1/2+z
x,1/2+y,1/2+z
-x,1/2-y,1/2+z
1/2-x,1/2+y,z
1/2+x,1/2-y,z
loop_
_atom_site_type_symbol
_atom_site_label
_atom_site_fract_x
_atom_site_fract_y
_atom_site_fract_z
Si Si1 0.391625 0.603449 0.931540
Si Si2 0.018485 0.456335 0.716567
Si Si3 0.976666 0.456332 0.311651
Si Si4 0.945221 0.153371 0.590216
Si Si5 0.753766 0.227049 0.170971
Si Si6 0.901451 0.153075 0.428323
Si Si7 0.211476 0.772766 0.341718
Si Si8 0.435677 0.603751 0.093914
O O1 0.502358 0.569155 0.883014
O O2 0.605618 0.636890 0.930367
O O3 0.114489 0.621294 0.901770
O O4 0.351038 0.588853 0.014019
O O5 0.306953 0.446144 0.749833
O O6 0.000000 0.500000 0.691035
O O7 0.812650 0.447914 0.780261
O O8 0.939635 0.431703 0.647504
O O9 0.000000 0.500000 0.336623
O O10 0.838188 0.187094 0.639494
O O11 0.985214 0.167967 0.508041
O O12 0.732882 0.119595 0.592244
O O13 0.224812 0.136214 0.619886
O O14 0.544733 0.259514 0.144597
O O15 0.772308 0.222005 0.256273
O O16 0.894159 0.187987 0.373671
O O17 0.504429 0.760066 0.367406
#
# Coordination Sequence:
#
# PCOD8185066 Si02
#       8
#     8   8   8   8   8   8   8   8
#     4  10  21  37  56  81 112 144 182 226 272 326
#     4  10  21  37  57  83 113 144 182 225 268 321
#     4  10  21  37  57  83 113 144 182 225 268 321
#     4  10  21  36  55  80 108 140 181 226 271 323
#     4  10  21  36  53  76 106 139 178 222 268 321
#     4  10  21  36  55  80 108 140 181 226 271 323
#     4  10  21  36  53  76 106 139 178 222 268 321
#     4  10  21  37  56  81 112 144 182 226 272 326
#
# _framework density 19.674123999999999
#
# number of rings (size 3 to 8) (size 9 to 14) (size 15 to 20)
#    0.000    2.000    0.000    3.000    0.000    4.500 
#    0.000    0.000    0.000    9.000    0.000    0.000 
#    0.000    0.000    0.000    0.000    0.000    0.000 
#
# Total GULP energy -396799.287875 kJ/mol
# GULP energy per Si atom -12399.977746 kJ/mol
# Density = 1.962935 g / cm^3
# Si number density = 19.674124 Si / 1000 Ang^3
#
#
#
# Elastic Constant Matrix: (Units=GPa)
#
#
# Indices 1 2 3 4 5 6 
#
# 1 89.6746 21.1958 24.0634 0.0000 0.0000 0.0000
# 2 21.1958 94.7965 63.7309 0.0000 0.0000 0.0000
# 3 24.0634 63.7309 70.8101 0.0000 0.0000 0.0000
# 4 0.0000 0.0000 0.0000 8.5232 0.0000 0.0000
# 5 0.0000 0.0000 0.0000 0.0000 20.8919 0.0000
# 6 0.0000 0.0000 0.0000 0.0000 0.0000 31.3278
#
#
#
# Elastic Compliance Matrix: (Units=1/GPa)
#
#
# Indices 1 2 3 4 5 6 
#
# 1 0.012271 0.000151 -0.004306 0.000000 0.000000 0.000000
# 2 0.000151 0.026713 -0.024094 0.000000 0.000000 0.000000
# 3 -0.004306 -0.024094 0.037271 0.000000 0.000000 0.000000
# 4 0.000000 0.000000 0.000000 0.117327 0.000000 0.000000
# 5 0.000000 0.000000 0.000000 0.000000 0.047865 0.000000
# 6 0.000000 0.000000 0.000000 0.000000 0.000000 0.031920
#
#
# Mechanical properties :
#
#
# Convention : Reuss Voigt Hill
#
# Bulk Modulus (GPa) = 50.61406 52.58461 51.59933
# Shear Modulus (GPa) = 14.86090 21.90132 18.38111
#
# Velocity S-wave (km/s) = 2.75135 3.34009 3.05991
# Velocity P-wave (km/s) = 5.98960 6.45452 6.22640
#
# Compressibility (1/GPa) = 0.01975736
#
# Stress axis : x y z
#
# Youngs Moduli (GPa) = 81.49146 37.43434 26.83036
#
# Poissons Ratio (x) = -0.00567 0.11554
# Poissons Ratio (y) = -0.01234 0.64646
# Poissons Ratio (z) = 0.35094 0.90195
#
# Static dielectric constant tensor:
#      x y z
#    x 3.970460 0.000000 0.000000 
#    y 0.000000 3.392750 0.000000 
#    z 0.000000 0.000000 3.490420 
# 
# 
# High freq. dielectric constant tensor:
#      x y z
#    x 1.790780 0.000000 0.000000 
#    y 0.000000 1.756010 0.000000 
#    z 0.000000 0.000000 1.756450 
# 
# From -- ./inp_files/9499.got.cif
#   From: 2010.03.12/outbox.cif.g09.slc.cpg/sg41_5_cif.got.tgz:9499.got - 2010.04.14 01:55:53.
