data_PCOD8185232
_publ_section_title
;
Structure prediction by ZEFSAII (Michael W. Deem and Ramdas Pophale) SiO2 
 PCOD8185232
Probable space group: A B A 2
;
_chemical_formula_sum "Si O2"
_cell_formula_units_Z 44
_cell_length_a 12.118672
_cell_length_b 14.260009
_cell_length_c 13.646552
_cell_angle_alpha 90.000000
_cell_angle_beta 90.000000
_cell_angle_gamma 90.000000
_cell_volume 2358.293018
_symmetry_space_group_name_H-M "A B A 2"
_symmetry_group_IT_number 41
_symmetry_cell_setting 'orthorhombic'
loop_
_space_group_symop_operation_xyz
x,y,z
-x,-y,z
1/2-x,y,1/2+z
1/2+x,-y,1/2+z
x,1/2+y,1/2+z
-x,1/2-y,1/2+z
1/2-x,1/2+y,z
1/2+x,1/2-y,z
loop_
_atom_site_type_symbol
_atom_site_label
_atom_site_fract_x
_atom_site_fract_y
_atom_site_fract_z
Si Si1 0.826637 0.254863 0.529020
Si Si2 0.273098 0.393707 0.382693
Si Si3 0.006851 0.303658 0.879571
Si Si4 0.000000 0.000000 0.620744
Si Si5 0.321298 0.078258 0.977387
Si Si6 0.901535 0.671100 0.227707
O O1 0.748954 0.177480 0.473987
O O2 0.769776 0.356533 0.528633
O O3 0.843466 0.229125 0.641748
O O4 0.945090 0.256512 0.472115
O O5 0.399543 0.378334 0.346548
O O6 0.256113 0.501622 0.413183
O O7 0.192168 0.373576 0.294228
O O8 0.982639 0.237112 0.788548
O O9 0.896722 0.358061 0.908324
O O10 0.021100 0.909925 0.686206
O O11 0.893073 0.979946 0.555095
#
# Coordination Sequence:
#
# PCOD8185232 Si02
#       6
#     8   8   8   4   8   8
#     4  10  24  40  63  98 127 168 215 274 312 382
#     4  10  23  40  62  99 123 164 219 265 317 385
#     4  10  21  43  61  92 127 172 205 268 322 381
#     4  12  24  40  70  90 132 178 216 250 346 388
#     4  12  20  45  67  86 136 171 207 271 324 378
#     4  12  24  40  66  98 126 174 216 265 328 389
#
# _framework density 18.657563
#
# number of rings (size 3 to 8) (size 9 to 14) (size 15 to 20)
#    1.091    0.000    7.273    0.000    5.091    1.455 
#    0.000    0.000    0.000    0.000    0.000    0.000 
#    0.000    0.000    0.000    0.000    0.000    0.000 
#
# Total GULP energy -272772.033359 kJ/mol
# GULP energy per Si atom -12398.728789 kJ/mol
# Density = 1.861510 g / cm^3
# Si number density = 18.657563 Si / 1000 Ang^3
#
#
#
# Elastic Constant Matrix: (Units=GPa)
#
#
# Indices 1 2 3 4 5 6 
#
# 1 49.7859 36.3962 34.3390 0.0000 0.0000 0.0000
# 2 36.3962 127.0957 52.5628 0.0000 0.0000 0.0000
# 3 34.3390 52.5628 112.7078 0.0000 0.0000 0.0000
# 4 0.0000 0.0000 0.0000 43.6704 0.0000 0.0000
# 5 0.0000 0.0000 0.0000 0.0000 -113.8144 0.0000
# 6 0.0000 0.0000 0.0000 0.0000 0.0000 44.3450
#
#
#
# Elastic Compliance Matrix: (Units=1/GPa)
#
#
# Indices 1 2 3 4 5 6 
#
# 1 0.028349 -0.005633 -0.006010 0.000000 0.000000 0.000000
# 2 -0.005633 0.010867 -0.003352 0.000000 0.000000 0.000000
# 3 -0.006010 -0.003352 0.012267 0.000000 0.000000 0.000000
# 4 0.000000 0.000000 0.000000 0.022899 0.000000 0.000000
# 5 0.000000 0.000000 0.000000 0.000000 -0.008786 0.000000
# 6 0.000000 0.000000 0.000000 0.000000 0.000000 0.022550
#
#
# Mechanical properties :
#
#
# Convention : Reuss Voigt Hill
#
# Bulk Modulus (GPa) = 46.52565 59.57616 53.05091
# Shear Modulus (GPa) = 39.90374 5.92627 22.91500
#
# Velocity S-wave (km/s) = 4.62967 1.78416 3.50835
# Velocity P-wave (km/s) = 7.31910 6.02038 6.70128
#
# Compressibility (1/GPa) = 0.02149352
#
# Stress axis : x y z
#
# Youngs Moduli (GPa) = 35.27416 92.01832 81.51961
#
# Poissons Ratio (x) = 0.51831 0.48997
# Poissons Ratio (y) = 0.19869 0.27326
# Poissons Ratio (z) = 0.21201 0.30845
#
# Static dielectric constant tensor:
#      x y z
#    x 3.382770 0.000000 0.000000 
#    y 0.000000 3.501630 0.000000 
#    z 0.000000 0.000000 3.334010 
# 
# 
# High freq. dielectric constant tensor:
#      x y z
#    x 1.714910 0.000000 0.000000 
#    y 0.000000 1.730930 0.000000 
#    z 0.000000 0.000000 1.719160 
# 
# From -- ./inp_files/7821.got.cif
#   From: 2010.03.12/outbox.cif.g09.slc.cpg/sg41_4_cif.got.tgz:7821.got - 2010.04.14 01:55:53.
