data_PCOD8185930
_publ_section_title
;
Structure prediction by ZEFSAII (Michael W. Deem and Ramdas Pophale) SiO2 
 PCOD8185930
Probable space group: F M M 2
;
_chemical_formula_sum "Si O2"
_cell_formula_units_Z 96
_cell_length_a 8.513063
_cell_length_b 25.482350
_cell_length_c 23.495467
_cell_angle_alpha 90.000000
_cell_angle_beta 90.000000
_cell_angle_gamma 90.000000
_cell_volume 5096.938640
_symmetry_space_group_name_H-M "F M M 2"
_symmetry_group_IT_number 42
_symmetry_cell_setting 'orthorhombic'
loop_
_space_group_symop_operation_xyz
x,y,z
-x,-y,z
-x,y,z
x,-y,z
x,1/2+y,1/2+z
-x,1/2-y,1/2+z
-x,1/2+y,1/2+z
x,1/2-y,1/2+z
1/2+x,y,1/2+z
1/2-x,-y,1/2+z
1/2-x,y,1/2+z
1/2+x,-y,1/2+z
1/2+x,1/2+y,z
1/2-x,1/2-y,z
1/2-x,1/2+y,z
1/2+x,1/2-y,z
loop_
_atom_site_type_symbol
_atom_site_label
_atom_site_fract_x
_atom_site_fract_y
_atom_site_fract_z
Si Si1 0.683704 0.899553 0.850260
Si Si2 0.814545 0.061317 0.964924
Si Si3 0.816193 0.000000 0.787914
Si Si4 0.185862 0.595953 0.587304
Si Si5 0.815501 0.806118 0.780803
Si Si6 0.314062 0.193630 0.658015
Si Si7 0.313571 0.000000 0.664513
O O1 0.500000 0.891071 0.841888
O O2 0.723907 0.907490 0.916150
O O3 0.772786 0.848105 0.828603
O O4 0.738034 0.949110 0.814386
O O5 0.000000 0.069570 0.957575
O O6 0.771913 0.000000 0.962176
O O7 0.749636 0.085468 0.023982
O O8 0.787050 0.000000 0.721299
O O9 0.000000 0.000000 0.802320
O O10 0.246678 0.651529 0.611612
O O11 0.242072 0.550517 0.629494
O O12 0.000000 0.594280 0.584293
O O13 0.750000 0.750000 0.800481
O O14 0.744640 0.823359 0.720200
O O15 0.000000 0.801691 0.773491
O O16 0.500000 0.195390 0.659912
O O17 0.250000 0.250000 0.639162
O O18 0.500000 0.000000 0.677476
#
# Coordination Sequence:
#
# PCOD8185930 Si02
#       7
#    16  16   8  16  16  16   8
#     4  12  24  39  58  84 116 152 194 240 291 347
#     4  10  19  36  60  83 111 150 195 240 289 344
#     4  12  24  37  54  83 117 152 190 238 293 346
#     4   9  18  33  57  84 110 145 189 234 285 342
#     4  11  22  39  62  88 118 153 193 238 291 346
#     4  10  19  34  56  84 117 153 192 232 282 340
#     4  10  18  33  56  83 111 142 180 232 291 346
#
# _framework density 18.834834000000001
#
# number of rings (size 3 to 8) (size 9 to 14) (size 15 to 20)
#    0.000    1.500    1.667    6.250    0.000    1.333 
#    0.000    4.167    0.000    2.000    0.000    0.000 
#    0.000    0.000    0.000    0.000    0.000    0.000 
#
# Total GULP energy -297676.000740 kJ/mol
# GULP energy per Si atom -12403.166698 kJ/mol
# Density = 1.879197 g / cm^3
# Si number density = 18.834834 Si / 1000 Ang^3
#
#
#
# Elastic Constant Matrix: (Units=GPa)
#
#
# Indices 1 2 3 4 5 6 
#
# 1 63.2761 29.8255 13.0293 0.0000 0.0000 0.0000
# 2 29.8255 135.3653 70.7220 0.0000 0.0000 0.0000
# 3 13.0293 70.7220 129.6560 0.0000 0.0000 0.0000
# 4 0.0000 0.0000 0.0000 10.3731 0.0000 0.0000
# 5 0.0000 0.0000 0.0000 0.0000 28.8454 0.0000
# 6 0.0000 0.0000 0.0000 0.0000 0.0000 20.5030
#
#
#
# Elastic Compliance Matrix: (Units=1/GPa)
#
#
# Indices 1 2 3 4 5 6 
#
# 1 0.017657 -0.004145 0.000486 0.000000 0.000000 0.000000
# 2 -0.004145 0.011305 -0.005750 0.000000 0.000000 0.000000
# 3 0.000486 -0.005750 0.010800 0.000000 0.000000 0.000000
# 4 0.000000 0.000000 0.000000 0.096403 0.000000 0.000000
# 5 0.000000 0.000000 0.000000 0.000000 0.034668 0.000000
# 6 0.000000 0.000000 0.000000 0.000000 0.000000 0.048773
#
#
# Mechanical properties :
#
#
# Convention : Reuss Voigt Hill
#
# Bulk Modulus (GPa) = 47.74200 61.71679 54.72940
# Shear Modulus (GPa) = 20.37464 26.25903 23.31683
#
# Velocity S-wave (km/s) = 3.29257 3.73791 3.52229
# Velocity P-wave (km/s) = 6.31327 7.17411 6.75741
#
# Compressibility (1/GPa) = 0.02094592
#
# Stress axis : x y z
#
# Youngs Moduli (GPa) = 56.63427 88.46025 92.59216
#
# Poissons Ratio (x) = 0.36662 -0.04502
# Poissons Ratio (y) = 0.23472 0.53237
# Poissons Ratio (z) = -0.02754 0.50862
#
# Static dielectric constant tensor:
#      x y z
#    x 3.344520 0.000000 0.000000 
#    y 0.000000 3.700420 0.000000 
#    z 0.000000 0.000000 3.618480 
# 
# 
# High freq. dielectric constant tensor:
#      x y z
#    x 1.725120 0.000000 0.000000 
#    y 0.000000 1.737480 0.000000 
#    z 0.000000 0.000000 1.735050 
# 
# From -- ./inp_files/28109.got.cif
#   From: 2010.03.12/outbox.cif.g09.slc.cpg/sg42_15_cif.got.tgz:28109.got - 2010.04.14 02:04:31.
