data_PCOD8185773
_publ_section_title
;
Structure prediction by ZEFSAII (Michael W. Deem and Ramdas Pophale) SiO2 
 PCOD8185773
Probable space group: F M M 2
;
_chemical_formula_sum "Si O2"
_cell_formula_units_Z 80
_cell_length_a 15.130952
_cell_length_b 8.774943
_cell_length_c 29.833366
_cell_angle_alpha 90.000000
_cell_angle_beta 90.000000
_cell_angle_gamma 90.000000
_cell_volume 3961.072704
_symmetry_space_group_name_H-M "F M M 2"
_symmetry_group_IT_number 42
_symmetry_cell_setting 'orthorhombic'
loop_
_space_group_symop_operation_xyz
x,y,z
-x,-y,z
-x,y,z
x,-y,z
x,1/2+y,1/2+z
-x,1/2-y,1/2+z
-x,1/2+y,1/2+z
x,1/2-y,1/2+z
1/2+x,y,1/2+z
1/2-x,-y,1/2+z
1/2-x,y,1/2+z
1/2+x,-y,1/2+z
1/2+x,1/2+y,z
1/2-x,1/2-y,z
1/2-x,1/2+y,z
1/2+x,1/2-y,z
loop_
_atom_site_type_symbol
_atom_site_label
_atom_site_fract_x
_atom_site_fract_y
_atom_site_fract_z
Si Si1 0.000000 0.675999 0.946780
Si Si2 0.845613 0.822471 0.691445
Si Si3 0.154368 0.679338 0.014521
Si Si4 0.652223 0.319110 0.104700
Si Si5 0.845119 0.822522 0.790168
Si Si6 0.000000 0.319742 0.351175
O O1 0.911862 0.716648 0.974224
O O2 0.000000 0.776958 0.902751
O O3 0.000000 0.500000 0.933026
O O4 0.750000 0.750000 0.694927
O O5 0.897564 0.739736 0.650103
O O6 0.887960 0.794155 0.740493
O O7 0.839161 0.000000 0.679853
O O8 0.165374 0.500000 0.022370
O O9 0.250000 0.750000 0.003142
O O10 0.109948 0.753590 0.059058
O O11 0.651787 0.500000 0.103218
O O12 0.750000 0.250000 0.106315
O O13 0.750000 0.750000 0.797359
O O14 0.912966 0.753311 0.826506
O O15 0.830737 0.000000 0.797715
O O16 0.000000 0.500000 0.345740
#
# Coordination Sequence:
#
# PCOD8185773 Si02
#       6
#     8  16  16  16  16   8
#     4  10  24  42  59  80 107 139 178 225 275 326
#     4   9  15  26  46  73 106 142 179 216 258 309
#     4  10  20  37  58  81 109 142 180 220 266 319
#     4  10  17  27  47  77 110 143 179 216 260 312
#     4   9  19  35  56  81 109 143 181 220 264 317
#     4  10  22  40  59  80 107 139 178 225 275 324
#
# _framework density 20.196549000000001
#
# number of rings (size 3 to 8) (size 9 to 14) (size 15 to 20)
#    0.000    2.400    0.000    5.400    0.000    4.000 
#    0.000    5.000    0.000    3.600    0.000    0.000 
#    0.000    0.000    0.000    0.000    0.000    0.000 
#
# Total GULP energy -247826.489581 kJ/mol
# GULP energy per Si atom -12391.324479 kJ/mol
# Density = 2.015058 g / cm^3
# Si number density = 20.196549 Si / 1000 Ang^3
#
#
#
# Elastic Constant Matrix: (Units=GPa)
#
#
# Indices 1 2 3 4 5 6 
#
# 1 89.4968 36.8286 62.0404 0.0000 0.0000 0.0000
# 2 36.8286 115.4752 65.1634 0.0000 0.0000 0.0000
# 3 62.0404 65.1634 166.5166 0.0000 0.0000 0.0000
# 4 0.0000 0.0000 0.0000 35.9595 0.0000 0.0000
# 5 0.0000 0.0000 0.0000 0.0000 -13.2615 0.0000
# 6 0.0000 0.0000 0.0000 0.0000 0.0000 17.8991
#
#
#
# Elastic Compliance Matrix: (Units=1/GPa)
#
#
# Indices 1 2 3 4 5 6 
#
# 1 0.015472 -0.002158 -0.004920 0.000000 0.000000 0.000000
# 2 -0.002158 0.011415 -0.003663 0.000000 0.000000 0.000000
# 3 -0.004920 -0.003663 0.009272 0.000000 0.000000 0.000000
# 4 0.000000 0.000000 0.000000 0.027809 0.000000 0.000000
# 5 0.000000 0.000000 0.000000 0.000000 -0.075406 0.000000
# 6 0.000000 0.000000 0.000000 0.000000 0.000000 0.055869
#
#
# Mechanical properties :
#
#
# Convention : Reuss Voigt Hill
#
# Bulk Modulus (GPa) = 68.13408 77.72815 72.93112
# Shear Modulus (GPa) = 70.61538 21.94983 46.28261
#
# Velocity S-wave (km/s) = 5.91946 3.30026 4.79227
# Velocity P-wave (km/s) = 8.97378 7.28640 8.17375
#
# Compressibility (1/GPa) = 0.01467694
#
# Stress axis : x y z
#
# Youngs Moduli (GPa) = 64.63141 87.60186 107.85155
#
# Poissons Ratio (x) = 0.18906 0.53064
# Poissons Ratio (y) = 0.13949 0.39507
# Poissons Ratio (z) = 0.31799 0.32089
#
# Static dielectric constant tensor:
#      x y z
#    x 3.351270 0.000000 0.000000 
#    y 0.000000 3.624510 0.000000 
#    z 0.000000 0.000000 4.558990 
# 
# 
# High freq. dielectric constant tensor:
#      x y z
#    x 1.758780 0.000000 0.000000 
#    y 0.000000 1.789960 0.000000 
#    z 0.000000 0.000000 1.805020 
# 
# From -- ./inp_files/32775.got.cif
#   From: 2010.03.12/outbox.cif.g09.slc.cpg/sg42_17_cif.got.tgz:32775.got - 2010.04.14 02:04:31.
