data_PCOD8185539
_publ_section_title
;
Structure prediction by ZEFSAII (Michael W. Deem and Ramdas Pophale) SiO2 
 PCOD8185539
Probable space group: A B A 2
;
_chemical_formula_sum "Si O2"
_cell_formula_units_Z 64
_cell_length_a 8.987299
_cell_length_b 24.060333
_cell_length_c 13.826612
_cell_angle_alpha 90.000000
_cell_angle_beta 90.000000
_cell_angle_gamma 90.000000
_cell_volume 2989.830722
_symmetry_space_group_name_H-M "A B A 2"
_symmetry_group_IT_number 41
_symmetry_cell_setting 'orthorhombic'
loop_
_space_group_symop_operation_xyz
x,y,z
-x,-y,z
1/2-x,y,1/2+z
1/2+x,-y,1/2+z
x,1/2+y,1/2+z
-x,1/2-y,1/2+z
1/2-x,1/2+y,z
1/2+x,1/2-y,z
loop_
_atom_site_type_symbol
_atom_site_label
_atom_site_fract_x
_atom_site_fract_y
_atom_site_fract_z
Si Si1 0.236843 0.841741 0.860930
Si Si2 0.900525 0.945505 0.152478
Si Si3 0.110804 0.865911 0.662976
Si Si4 0.307107 0.224531 0.790965
Si Si5 0.426932 0.114153 0.854179
Si Si6 0.591259 0.446768 0.553437
Si Si7 0.048106 0.742141 0.155980
Si Si8 0.593171 0.145090 0.560482
O O1 0.120992 0.860341 0.778102
O O2 0.248314 0.774428 0.860501
O O3 0.399445 0.868956 0.853487
O O4 0.153694 0.864842 0.954089
O O5 0.741459 0.962460 0.109167
O O6 0.893555 0.927076 0.264752
O O7 0.954785 0.894242 0.085573
O O8 0.000000 0.000000 0.142178
O O9 0.279816 0.874490 0.633191
O O10 0.007899 0.916218 0.633461
O O11 0.044395 0.809820 0.613423
O O12 0.313572 0.166497 0.847732
O O13 0.474219 0.233942 0.753370
O O14 0.209086 0.221183 0.692491
O O15 0.381090 0.087419 0.955718
O O16 0.500000 0.500000 0.519380
O O17 0.055781 0.789750 0.074805
#
# Coordination Sequence:
#
# PCOD8185539 Si02
#       8
#     8   8   8   8   8   8   8   8
#     4  11  24  40  73 105 142 193 227 293 347 432
#     4  12  27  50  75  99 140 188 234 308 363 422
#     4  11  23  44  68 102 142 183 237 297 346 425
#     4  11  20  41  65 101 145 184 231 274 358 425
#     4  12  24  48  74 104 143 190 239 293 362 428
#     4  12  29  49  75 107 134 184 249 306 360 436
#     4  11  21  39  66 100 147 187 228 283 350 428
#     4  12  23  43  68 103 143 190 238 285 358 423
#
# _framework density 21.405894
#
# number of rings (size 3 to 8) (size 9 to 14) (size 15 to 20)
#    0.000    0.500    7.500    1.875    1.750    3.000 
#    0.000    1.250    0.000    0.000    0.000    0.000 
#    0.000    0.000    0.000    0.000    0.000    0.000 
#
# Total GULP energy -396787.290208 kJ/mol
# GULP energy per Si atom -12399.602819 kJ/mol
# Density = 2.135717 g / cm^3
# Si number density = 21.405894 Si / 1000 Ang^3
#
#
#
# Elastic Constant Matrix: (Units=GPa)
#
#
# Indices 1 2 3 4 5 6 
#
# 1 74.6910 27.6625 9.9872 0.0000 0.0000 0.0000
# 2 27.6625 101.6071 30.0405 0.0000 0.0000 0.0000
# 3 9.9872 30.0405 80.6117 0.0000 0.0000 0.0000
# 4 0.0000 0.0000 0.0000 26.7879 0.0000 0.0000
# 5 0.0000 0.0000 0.0000 0.0000 43.0343 0.0000
# 6 0.0000 0.0000 0.0000 0.0000 0.0000 40.9388
#
#
#
# Elastic Compliance Matrix: (Units=1/GPa)
#
#
# Indices 1 2 3 4 5 6 
#
# 1 0.014900 -0.003945 -0.000376 0.000000 0.000000 0.000000
# 2 -0.003945 0.012105 -0.004022 0.000000 0.000000 0.000000
# 3 -0.000376 -0.004022 0.013951 0.000000 0.000000 0.000000
# 4 0.000000 0.000000 0.000000 0.037330 0.000000 0.000000
# 5 0.000000 0.000000 0.000000 0.000000 0.023237 0.000000
# 6 0.000000 0.000000 0.000000 0.000000 0.000000 0.024427
#
#
# Mechanical properties :
#
#
# Convention : Reuss Voigt Hill
#
# Bulk Modulus (GPa) = 41.20493 43.58781 42.39637
# Shear Modulus (GPa) = 33.17267 34.76684 33.96976
#
# Velocity S-wave (km/s) = 3.94089 4.03447 3.98796
# Velocity P-wave (km/s) = 6.32445 6.48917 6.40734
#
# Compressibility (1/GPa) = 0.02426894
#
# Stress axis : x y z
#
# Youngs Moduli (GPa) = 67.11430 82.60935 71.68139
#
# Poissons Ratio (x) = 0.32593 0.02693
# Poissons Ratio (y) = 0.26479 0.28832
# Poissons Ratio (z) = 0.02522 0.33228
#
# Static dielectric constant tensor:
#      x y z
#    x 3.691360 0.000000 0.000000 
#    y 0.000000 3.953520 0.000000 
#    z 0.000000 0.000000 3.770820 
# 
# 
# High freq. dielectric constant tensor:
#      x y z
#    x 1.850550 0.000000 0.000000 
#    y 0.000000 1.838010 0.000000 
#    z 0.000000 0.000000 1.832080 
# 
# From -- ./inp_files/7567.got.cif
#   From: 2010.03.12/outbox.cif.g09.slc.cpg/sg41_4_cif.got.tgz:7567.got - 2010.04.14 01:55:53.
