data_PCOD8185073
_publ_section_title
;
Structure prediction by ZEFSAII (Michael W. Deem and Ramdas Pophale) SiO2 
 PCOD8185073
Probable space group: A B A 2
;
_chemical_formula_sum "Si O2"
_cell_formula_units_Z 60
_cell_length_a 11.110046
_cell_length_b 13.992968
_cell_length_c 19.813165
_cell_angle_alpha 90.000000
_cell_angle_beta 90.000000
_cell_angle_gamma 90.000000
_cell_volume 3080.204524
_symmetry_space_group_name_H-M "A B A 2"
_symmetry_group_IT_number 41
_symmetry_cell_setting 'orthorhombic'
loop_
_space_group_symop_operation_xyz
x,y,z
-x,-y,z
1/2-x,y,1/2+z
1/2+x,-y,1/2+z
x,1/2+y,1/2+z
-x,1/2-y,1/2+z
1/2-x,1/2+y,z
1/2+x,1/2-y,z
loop_
_atom_site_type_symbol
_atom_site_label
_atom_site_fract_x
_atom_site_fract_y
_atom_site_fract_z
Si Si1 0.000000 0.500000 0.766280
Si Si2 0.903162 0.839534 0.170286
Si Si3 0.826667 0.437420 0.116099
Si Si4 0.587957 0.643354 0.625069
Si Si5 0.013672 0.394966 0.538137
Si Si6 0.233740 0.826522 0.491754
Si Si7 0.772047 0.886352 0.975098
Si Si8 0.370508 0.974206 0.895223
O O1 0.026485 0.596685 0.724613
O O2 0.113365 0.470300 0.813934
O O3 0.772511 0.885696 0.161558
O O4 0.888765 0.724604 0.183756
O O5 0.982210 0.828957 0.101714
O O6 0.845741 0.544385 0.145033
O O7 0.946560 0.375052 0.118034
O O8 0.780955 0.444316 0.039192
O O9 0.640841 0.679344 0.553540
O O10 0.146974 0.383961 0.510818
O O11 0.000000 0.500000 0.569454
O O12 0.917615 0.382092 0.477255
O O13 0.277671 0.720939 0.472237
O O14 0.173081 0.874009 0.426086
O O15 0.726707 0.942516 0.909498
O O16 0.500000 0.000000 0.929274
#
# Coordination Sequence:
#
# PCOD8185073 Si02
#       8
#     4   8   8   8   8   8   8   8
#     4  10  26  42  66  82 124 184 220 250 304 404
#     4  11  22  39  61  92 123 166 221 254 322 394
#     4  10  21  36  58  99 131 158 197 278 339 379
#     4  11  21  34  61  97 130 163 196 271 341 379
#     4  11  20  33  57  94 125 150 190 284 328 360
#     4  12  21  34  62  99 127 160 208 264 342 386
#     4  11  21  34  59  92 130 156 207 260 330 386
#     4  10  23  42  60  82 122 178 213 255 310 392
#
# _framework density 19.479227000000002
#
# number of rings (size 3 to 8) (size 9 to 14) (size 15 to 20)
#    0.400    0.800    6.000    2.400    1.867    0.000 
#    0.000    2.667    0.000    3.200    0.000    0.000 
#    0.000    0.000    0.000    0.000    0.000    0.000 
#
# Total GULP energy -371843.408968 kJ/mol
# GULP energy per Si atom -12394.780299 kJ/mol
# Density = 1.943489 g / cm^3
# Si number density = 19.479227 Si / 1000 Ang^3
#
#
#
# Elastic Constant Matrix: (Units=GPa)
#
#
# Indices 1 2 3 4 5 6 
#
# 1 107.0698 44.1993 50.4225 0.0000 0.0000 0.0000
# 2 44.1993 149.2599 47.3919 0.0000 0.0000 0.0000
# 3 50.4225 47.3919 76.5512 0.0000 0.0000 0.0000
# 4 0.0000 0.0000 0.0000 22.7268 0.0000 0.0000
# 5 0.0000 0.0000 0.0000 0.0000 29.7963 0.0000
# 6 0.0000 0.0000 0.0000 0.0000 0.0000 29.0454
#
#
#
# Elastic Compliance Matrix: (Units=1/GPa)
#
#
# Indices 1 2 3 4 5 6 
#
# 1 0.013802 -0.001494 -0.008166 0.000000 0.000000 0.000000
# 2 -0.001494 0.008501 -0.004278 0.000000 0.000000 0.000000
# 3 -0.008166 -0.004278 0.021091 0.000000 0.000000 0.000000
# 4 0.000000 0.000000 0.000000 0.044001 0.000000 0.000000
# 5 0.000000 0.000000 0.000000 0.000000 0.033561 0.000000
# 6 0.000000 0.000000 0.000000 0.000000 0.000000 0.034429
#
#
# Mechanical properties :
#
#
# Convention : Reuss Voigt Hill
#
# Bulk Modulus (GPa) = 64.44973 68.54535 66.49754
# Shear Modulus (GPa) = 26.53447 29.03819 27.78633
#
# Velocity S-wave (km/s) = 3.69479 3.86518 3.78095
# Velocity P-wave (km/s) = 7.16660 7.42865 7.29880
#
# Compressibility (1/GPa) = 0.01551597
#
# Stress axis : x y z
#
# Youngs Moduli (GPa) = 72.45199 117.63790 47.41434
#
# Poissons Ratio (x) = 0.17579 0.38719
# Poissons Ratio (y) = 0.10827 0.20286
# Poissons Ratio (z) = 0.59165 0.50330
#
# Static dielectric constant tensor:
#      x y z
#    x 3.673270 0.000000 0.000000 
#    y 0.000000 3.862760 0.000000 
#    z 0.000000 0.000000 3.029290 
# 
# 
# High freq. dielectric constant tensor:
#      x y z
#    x 1.769210 0.000000 0.000000 
#    y 0.000000 1.784630 0.000000 
#    z 0.000000 0.000000 1.692480 
# 
# From -- ./inp_files/11443.got.cif
#   From: 2010.03.12/outbox.cif.g09.slc.cpg/sg41_6_cif.got.tgz:11443.got - 2010.04.14 01:55:53.
