data_PCOD8185052
_publ_section_title
;
Structure prediction by ZEFSAII (Michael W. Deem and Ramdas Pophale) SiO2 
 PCOD8185052
Probable space group: A B A 2
;
_chemical_formula_sum "Si O2"
_cell_formula_units_Z 48
_cell_length_a 14.690444
_cell_length_b 9.615953
_cell_length_c 16.650564
_cell_angle_alpha 90.000000
_cell_angle_beta 90.000000
_cell_angle_gamma 90.000000
_cell_volume 2352.102279
_symmetry_space_group_name_H-M "A B A 2"
_symmetry_group_IT_number 41
_symmetry_cell_setting 'orthorhombic'
loop_
_space_group_symop_operation_xyz
x,y,z
-x,-y,z
1/2-x,y,1/2+z
1/2+x,-y,1/2+z
x,1/2+y,1/2+z
-x,1/2-y,1/2+z
1/2-x,1/2+y,z
1/2+x,1/2-y,z
loop_
_atom_site_type_symbol
_atom_site_label
_atom_site_fract_x
_atom_site_fract_y
_atom_site_fract_z
Si Si1 0.828706 0.894866 0.422320
Si Si2 0.000000 0.500000 0.511669
Si Si3 0.183567 0.859413 0.163914
Si Si4 0.515462 0.261867 0.126063
Si Si5 0.331795 0.156704 0.738363
Si Si6 0.500000 0.000000 0.019042
Si Si7 0.689585 0.603152 0.984557
O O1 0.841053 0.835451 0.333538
O O2 0.792990 0.765839 0.473634
O O3 0.921307 0.951913 0.459436
O O4 0.752806 0.014492 0.425828
O O5 0.952462 0.385027 0.567499
O O6 0.083799 0.433991 0.461754
O O7 0.088593 0.779418 0.152176
O O8 0.247624 0.744943 0.204600
O O9 0.175822 0.993269 0.220141
O O10 0.216282 0.919575 0.077800
O O11 0.577457 0.270599 0.204723
O O12 0.533587 0.120624 0.078189
#
# Coordination Sequence:
#
# PCOD8185052 Si02
#       7
#     8   4   8   8   8   4   8
#     4  12  27  42  67 102 135 171 216 280 337 382
#     4  10  20  43  69  94 126 172 224 262 318 383
#     4  11  23  43  70  94 129 179 220 261 325 400
#     4  11  23  44  69  96 128 178 223 265 317 399
#     4  12  25  44  67  98 137 171 215 276 338 382
#     4  12  26  43  69 100 128 176 236 262 318 401
#     4  11  23  45  67  99 130 178 223 268 325 393
#
# _framework density 20.407277000000001
#
# number of rings (size 3 to 8) (size 9 to 14) (size 15 to 20)
#    0.000    0.667    6.667    3.000    7.000    0.000 
#    3.000    0.000    0.000    0.000    0.000    0.000 
#    0.000    0.000    0.000    0.000    0.000    0.000 
#
# Total GULP energy -297620.221701 kJ/mol
# GULP energy per Si atom -12400.842571 kJ/mol
# Density = 2.036083 g / cm^3
# Si number density = 20.407277 Si / 1000 Ang^3
#
#
#
# Elastic Constant Matrix: (Units=GPa)
#
#
# Indices 1 2 3 4 5 6 
#
# 1 108.1516 41.0997 51.3100 0.0000 0.0000 0.0000
# 2 41.0997 114.1313 27.8444 0.0000 0.0000 0.0000
# 3 51.3100 27.8444 100.2573 0.0000 0.0000 0.0000
# 4 0.0000 0.0000 0.0000 31.3473 0.0000 0.0000
# 5 0.0000 0.0000 0.0000 0.0000 20.8006 0.0000
# 6 0.0000 0.0000 0.0000 0.0000 0.0000 37.8788
#
#
#
# Elastic Compliance Matrix: (Units=1/GPa)
#
#
# Indices 1 2 3 4 5 6 
#
# 1 0.013313 -0.003359 -0.005880 0.000000 0.000000 0.000000
# 2 -0.003359 0.010246 -0.001126 0.000000 0.000000 0.000000
# 3 -0.005880 -0.001126 0.013297 0.000000 0.000000 0.000000
# 4 0.000000 0.000000 0.000000 0.031901 0.000000 0.000000
# 5 0.000000 0.000000 0.000000 0.000000 0.048076 0.000000
# 6 0.000000 0.000000 0.000000 0.000000 0.000000 0.026400
#
#
# Mechanical properties :
#
#
# Convention : Reuss Voigt Hill
#
# Bulk Modulus (GPa) = 62.02111 62.56092 62.29101
# Shear Modulus (GPa) = 29.52670 31.49110 30.50890
#
# Velocity S-wave (km/s) = 3.80790 3.93253 3.87072
# Velocity P-wave (km/s) = 7.05628 7.16537 7.11103
#
# Compressibility (1/GPa) = 0.01612354
#
# Stress axis : x y z
#
# Youngs Moduli (GPa) = 75.11661 97.59518 75.20750
#
# Poissons Ratio (x) = 0.32786 0.44223
# Poissons Ratio (y) = 0.25235 0.08472
# Poissons Ratio (z) = 0.44170 0.10993
#
# Static dielectric constant tensor:
#      x y z
#    x 3.576630 0.000000 0.000000 
#    y 0.000000 3.818580 0.000000 
#    z 0.000000 0.000000 3.574750 
# 
# 
# High freq. dielectric constant tensor:
#      x y z
#    x 1.802520 0.000000 0.000000 
#    y 0.000000 1.816420 0.000000 
#    z 0.000000 0.000000 1.785420 
# 
# From -- ./inp_files/8740.got.cif
#   From: 2010.03.12/outbox.cif.g09.slc.cpg/sg41_5_cif.got.tgz:8740.got - 2010.04.14 01:55:53.
