data_PCOD8185572
_publ_section_title
;
Structure prediction by ZEFSAII (Michael W. Deem and Ramdas Pophale) SiO2 
 PCOD8185572
Probable space group: A B A 2
;
_chemical_formula_sum "Si O2"
_cell_formula_units_Z 48
_cell_length_a 9.218161
_cell_length_b 26.770521
_cell_length_c 8.047829
_cell_angle_alpha 90.000000
_cell_angle_beta 90.000000
_cell_angle_gamma 90.000000
_cell_volume 1986.002781
_symmetry_space_group_name_H-M "A B A 2"
_symmetry_group_IT_number 41
_symmetry_cell_setting 'orthorhombic'
loop_
_space_group_symop_operation_xyz
x,y,z
-x,-y,z
1/2-x,y,1/2+z
1/2+x,-y,1/2+z
x,1/2+y,1/2+z
-x,1/2-y,1/2+z
1/2-x,1/2+y,z
1/2+x,1/2-y,z
loop_
_atom_site_type_symbol
_atom_site_label
_atom_site_fract_x
_atom_site_fract_y
_atom_site_fract_z
Si Si1 0.901902 0.298018 0.599490
Si Si2 0.463864 0.903059 0.033065
Si Si3 0.423171 0.202507 0.988874
Si Si4 0.708796 0.947466 0.837020
Si Si5 0.209800 0.438457 0.733051
Si Si6 0.545082 0.905975 0.532470
O O1 0.735094 0.289569 0.560599
O O2 0.923026 0.305563 0.793546
O O3 0.966802 0.346510 0.504525
O O4 0.984538 0.250319 0.533477
O O5 0.375403 0.923433 0.193401
O O6 0.507880 0.846515 0.073273
O O7 0.605421 0.937802 0.998932
O O8 0.356873 0.902926 0.873439
O O9 0.649059 0.912817 0.691934
O O10 0.697997 0.004924 0.790847
O O11 0.874549 0.931573 0.875467
O O12 0.111556 0.431784 0.564593
#
# Coordination Sequence:
#
# PCOD8185572 Si02
#       6
#     8   8   8   8   8   8
#     4  12  25  49  75 113 146 202 244 315 376 451
#     4  11  24  47  68 107 147 190 242 310 363 446
#     4  12  27  48  78 109 152 194 254 309 381 448
#     4  11  23  45  73 100 145 190 244 295 369 437
#     4  11  25  44  72 105 146 187 246 305 363 444
#     4  11  22  45  72 103 146 188 241 302 363 447
#
# _framework density 24.169153000000001
#
# number of rings (size 3 to 8) (size 9 to 14) (size 15 to 20)
#    0.000    0.667    5.000    4.000    2.333    2.667 
#    3.000    3.333    0.000    0.000    0.000    0.000 
#    0.000    0.000    0.000    0.000    0.000    0.000 
#
# Total GULP energy -297747.422079 kJ/mol
# GULP energy per Si atom -12406.142587 kJ/mol
# Density = 2.411414 g / cm^3
# Si number density = 24.169153 Si / 1000 Ang^3
#
#
#
# Elastic Constant Matrix: (Units=GPa)
#
#
# Indices 1 2 3 4 5 6 
#
# 1 131.6932 90.8307 -0.9878 0.0000 0.0000 0.0000
# 2 90.8307 223.0064 18.7407 0.0000 0.0000 0.0000
# 3 -0.9878 18.7407 12.4423 0.0000 0.0000 0.0000
# 4 0.0000 0.0000 0.0000 46.6646 0.0000 0.0000
# 5 0.0000 0.0000 0.0000 0.0000 43.8351 0.0000
# 6 0.0000 0.0000 0.0000 0.0000 0.0000 31.5557
#
#
#
# Elastic Compliance Matrix: (Units=1/GPa)
#
#
# Indices 1 2 3 4 5 6 
#
# 1 0.011382 -0.005395 0.009029 0.000000 0.000000 0.000000
# 2 -0.005395 0.007691 -0.012012 0.000000 0.000000 0.000000
# 3 0.009029 -0.012012 0.099181 0.000000 0.000000 0.000000
# 4 0.000000 0.000000 0.000000 0.021430 0.000000 0.000000
# 5 0.000000 0.000000 0.000000 0.000000 0.022813 0.000000
# 6 0.000000 0.000000 0.000000 0.000000 0.000000 0.031690
#
#
# Mechanical properties :
#
#
# Convention : Reuss Voigt Hill
#
# Bulk Modulus (GPa) = 9.85247 64.92326 37.38786
# Shear Modulus (GPa) = 20.42700 41.64829 31.03765
#
# Velocity S-wave (km/s) = 2.91033 4.15565 3.58744
# Velocity P-wave (km/s) = 3.92157 7.06726 5.71511
#
# Compressibility (1/GPa) = 0.10149741
#
# Stress axis : x y z
#
# Youngs Moduli (GPa) = 87.85904 130.02412 10.08262
#
# Poissons Ratio (x) = 0.70143 -0.09104
# Poissons Ratio (y) = 0.47397 0.12112
# Poissons Ratio (z) = -0.79328 1.56189
#
# Static dielectric constant tensor:
#      x y z
#    x 4.705760 0.000000 0.000000 
#    y 0.000000 2.827760 0.000000 
#    z 0.000000 0.000000 4.549770 
# 
# 
# High freq. dielectric constant tensor:
#      x y z
#    x 1.975600 0.000000 0.000000 
#    y 0.000000 1.960860 0.000000 
#    z 0.000000 0.000000 1.967370 
# 
# From -- ./inp_files/1797.got.cif
#   From: 2010.03.12/outbox.cif.g09.slc.cpg/sg41_1_cif.got.tgz:1797.got - 2010.04.14 01:55:53.
