data_PCOD8185405
_publ_section_title
;
Structure prediction by ZEFSAII (Michael W. Deem and Ramdas Pophale) SiO2 
 PCOD8185405
Probable space group: A B A 2
;
_chemical_formula_sum "Si O2"
_cell_formula_units_Z 56
_cell_length_a 14.946896
_cell_length_b 8.751309
_cell_length_c 19.429262
_cell_angle_alpha 90.000000
_cell_angle_beta 90.000000
_cell_angle_gamma 90.000000
_cell_volume 2541.442780
_symmetry_space_group_name_H-M "A B A 2"
_symmetry_group_IT_number 41
_symmetry_cell_setting 'orthorhombic'
loop_
_space_group_symop_operation_xyz
x,y,z
-x,-y,z
1/2-x,y,1/2+z
1/2+x,-y,1/2+z
x,1/2+y,1/2+z
-x,1/2-y,1/2+z
1/2-x,1/2+y,z
1/2+x,1/2-y,z
loop_
_atom_site_type_symbol
_atom_site_label
_atom_site_fract_x
_atom_site_fract_y
_atom_site_fract_z
Si Si1 0.841138 0.805343 0.926110
Si Si2 0.465713 0.667202 0.693972
Si Si3 0.874559 0.319040 0.055037
Si Si4 0.754817 0.559871 0.513370
Si Si5 0.801972 0.911446 0.776546
Si Si6 0.029880 0.670601 0.909722
Si Si7 0.371373 0.247932 0.773175
O O1 0.796257 0.648234 0.951979
O O2 0.798558 0.854263 0.854575
O O3 0.946663 0.784833 0.916040
O O4 0.823340 0.937872 0.981370
O O5 0.500000 0.500000 0.711726
O O6 0.451292 0.690010 0.612549
O O7 0.372641 0.692590 0.734202
O O8 0.544017 0.777761 0.721983
O O9 0.816930 0.474772 0.062787
O O10 0.810011 0.173215 0.062255
O O11 0.917097 0.323001 0.980306
O O12 0.701095 0.878952 0.750070
O O13 0.823730 0.088241 0.767127
O O14 0.095740 0.731428 0.851331
O O15 0.000000 0.500000 0.891341
#
# Coordination Sequence:
#
# PCOD8185405 Si02
#       7
#     8   8   8   8   8   8   8
#     4  11  21  41  67 100 134 171 224 277 338 396
#     4  10  24  44  66  95 135 180 225 276 342 401
#     4  11  23  43  67  97 136 174 225 278 340 399
#     4  10  23  40  66 101 129 175 222 279 336 403
#     4  11  23  42  69  97 133 180 219 284 336 402
#     4  12  24  39  70 102 137 177 223 288 335 393
#     4  11  25  44  70 101 136 178 229 279 340 401
#
# _framework density 22.034728000000001
#
# number of rings (size 3 to 8) (size 9 to 14) (size 15 to 20)
#    0.000    1.143    2.857    3.857    2.000    4.000 
#    2.571    0.000    3.143    0.000    0.000    0.000 
#    0.000    0.000    0.000    0.000    0.000    0.000 
#
# Total GULP energy -347302.735160 kJ/mol
# GULP energy per Si atom -12403.669113 kJ/mol
# Density = 2.198458 g / cm^3
# Si number density = 22.034728 Si / 1000 Ang^3
#
#
#
# Elastic Constant Matrix: (Units=GPa)
#
#
# Indices 1 2 3 4 5 6 
#
# 1 146.1234 40.4899 46.1457 0.0000 0.0000 0.0000
# 2 40.4899 86.9973 29.2167 0.0000 0.0000 0.0000
# 3 46.1457 29.2167 96.7671 0.0000 0.0000 0.0000
# 4 0.0000 0.0000 0.0000 19.4376 0.0000 0.0000
# 5 0.0000 0.0000 0.0000 0.0000 37.8427 0.0000
# 6 0.0000 0.0000 0.0000 0.0000 0.0000 35.9110
#
#
#
# Elastic Compliance Matrix: (Units=1/GPa)
#
#
# Indices 1 2 3 4 5 6 
#
# 1 0.008688 -0.002952 -0.003252 0.000000 0.000000 0.000000
# 2 -0.002952 0.013794 -0.002757 0.000000 0.000000 0.000000
# 3 -0.003252 -0.002757 0.012717 0.000000 0.000000 0.000000
# 4 0.000000 0.000000 0.000000 0.051447 0.000000 0.000000
# 5 0.000000 0.000000 0.000000 0.000000 0.026425 0.000000
# 6 0.000000 0.000000 0.000000 0.000000 0.000000 0.027847
#
#
# Mechanical properties :
#
#
# Convention : Reuss Voigt Hill
#
# Bulk Modulus (GPa) = 57.87665 62.39913 60.13789
# Shear Modulus (GPa) = 30.37663 32.90728 31.64195
#
# Velocity S-wave (km/s) = 3.71695 3.86868 3.79358
# Velocity P-wave (km/s) = 6.68910 6.95238 6.82201
#
# Compressibility (1/GPa) = 0.01727813
#
# Stress axis : x y z
#
# Youngs Moduli (GPa) = 115.09592 72.49361 78.63195
#
# Poissons Ratio (x) = 0.21397 0.25572
# Poissons Ratio (y) = 0.33971 0.21682
# Poissons Ratio (z) = 0.37431 0.19989
#
# Static dielectric constant tensor:
#      x y z
#    x 4.365010 0.000000 0.000000 
#    y 0.000000 4.066470 0.000000 
#    z 0.000000 0.000000 3.712700 
# 
# 
# High freq. dielectric constant tensor:
#      x y z
#    x 1.886080 0.000000 0.000000 
#    y 0.000000 1.861280 0.000000 
#    z 0.000000 0.000000 1.853030 
# 
# From -- ./inp_files/11547.got.cif
#   From: 2010.03.12/outbox.cif.g09.slc.cpg/sg41_6_cif.got.tgz:11547.got - 2010.04.14 01:55:53.
