data_PCOD8185445
_publ_section_title
;
Structure prediction by ZEFSAII (Michael W. Deem and Ramdas Pophale) SiO2 
 PCOD8185445
Probable space group: A B A 2
;
_chemical_formula_sum "Si O2"
_cell_formula_units_Z 60
_cell_length_a 26.686212
_cell_length_b 13.512115
_cell_length_c 7.469789
_cell_angle_alpha 90.000000
_cell_angle_beta 90.000000
_cell_angle_gamma 90.000000
_cell_volume 2693.510042
_symmetry_space_group_name_H-M "A B A 2"
_symmetry_group_IT_number 41
_symmetry_cell_setting 'orthorhombic'
loop_
_space_group_symop_operation_xyz
x,y,z
-x,-y,z
1/2-x,y,1/2+z
1/2+x,-y,1/2+z
x,1/2+y,1/2+z
-x,1/2-y,1/2+z
1/2-x,1/2+y,z
1/2+x,1/2-y,z
loop_
_atom_site_type_symbol
_atom_site_label
_atom_site_fract_x
_atom_site_fract_y
_atom_site_fract_z
Si Si1 0.074400 0.361683 0.804250
Si Si2 0.807221 0.973197 0.516335
Si Si3 0.500000 0.000000 0.019795
Si Si4 0.834230 0.191993 0.541436
Si Si5 0.874730 0.467586 0.675568
Si Si6 0.297492 0.105937 0.400894
Si Si7 0.478605 0.703684 0.586278
Si Si8 0.422613 0.729264 0.220258
O O1 0.040686 0.442236 0.904875
O O2 0.098428 0.427004 0.643079
O O3 0.039227 0.272052 0.746173
O O4 0.122119 0.315641 0.898333
O O5 0.852901 0.959257 0.379062
O O6 0.758094 0.937360 0.412286
O O7 0.815467 0.906944 0.694784
O O8 0.803186 0.090583 0.568887
O O9 0.470998 0.086275 0.132024
O O10 0.797854 0.279876 0.470318
O O11 0.866341 0.221836 0.720416
O O12 0.832397 0.459943 0.526317
O O13 0.916798 0.383491 0.657135
O O14 0.447929 0.738035 0.413245
O O15 0.539643 0.719694 0.574103
#
# Coordination Sequence:
#
# PCOD8185445 Si02
#       8
#     8   8   4   8   8   8   8   8
#     4  11  22  42  66  94 130 180 222 284 346 402
#     4  11  24  46  69  99 137 178 225 293 358 419
#     4  12  22  42  68  92 144 178 228 294 344 416
#     4  10  25  43  66 101 133 170 240 283 339 441
#     4  10  23  45  68  99 138 175 234 291 344 429
#     4  11  24  45  68 101 136 177 228 289 357 423
#     4  12  23  40  67  94 136 183 228 281 351 414
#     4  11  22  42  65  99 132 179 232 285 347 418
#
# _framework density 22.275767999999999
#
# number of rings (size 3 to 8) (size 9 to 14) (size 15 to 20)
#    0.000    1.067    5.333    0.000    3.733    1.067 
#    0.000    2.000    0.000    0.000    0.000    0.000 
#    0.000    0.000    0.000    0.000    0.000    0.000 
#
# Total GULP energy -371726.729199 kJ/mol
# GULP energy per Si atom -12390.890973 kJ/mol
# Density = 2.222507 g / cm^3
# Si number density = 22.275768 Si / 1000 Ang^3
#
#
#
# Elastic Constant Matrix: (Units=GPa)
#
#
# Indices 1 2 3 4 5 6 
#
# 1 83.1206 54.2359 12.2315 0.0000 0.0000 0.0000
# 2 54.2359 161.4525 27.4141 0.0000 0.0000 0.0000
# 3 12.2315 27.4141 64.7380 0.0000 0.0000 0.0000
# 4 0.0000 0.0000 0.0000 5.6140 0.0000 0.0000
# 5 0.0000 0.0000 0.0000 0.0000 31.2982 0.0000
# 6 0.0000 0.0000 0.0000 0.0000 0.0000 42.5117
#
#
#
# Elastic Compliance Matrix: (Units=1/GPa)
#
#
# Indices 1 2 3 4 5 6 
#
# 1 0.015444 -0.005056 -0.000777 0.000000 0.000000 0.000000
# 2 -0.005056 0.008329 -0.002572 0.000000 0.000000 0.000000
# 3 -0.000777 -0.002572 0.016683 0.000000 0.000000 0.000000
# 4 0.000000 0.000000 0.000000 0.178127 0.000000 0.000000
# 5 0.000000 0.000000 0.000000 0.000000 0.031951 0.000000
# 6 0.000000 0.000000 0.000000 0.000000 0.000000 0.023523
#
#
# Mechanical properties :
#
#
# Convention : Reuss Voigt Hill
#
# Bulk Modulus (GPa) = 42.28995 55.23043 48.76019
# Shear Modulus (GPa) = 16.73654 30.24676 23.49165
#
# Velocity S-wave (km/s) = 2.74402 3.68888 3.25096
# Velocity P-wave (km/s) = 5.39124 6.55679 6.00237
#
# Compressibility (1/GPa) = 0.02364628
#
# Stress axis : x y z
#
# Youngs Moduli (GPa) = 64.74935 120.06349 59.94243
#
# Poissons Ratio (x) = 0.60706 0.04657
# Poissons Ratio (y) = 0.32738 0.15415
# Poissons Ratio (z) = 0.05030 0.30877
#
# Static dielectric constant tensor:
#      x y z
#    x 4.370850 0.000000 0.000000 
#    y 0.000000 4.644670 0.000000 
#    z 0.000000 0.000000 3.906320 
# 
# 
# High freq. dielectric constant tensor:
#      x y z
#    x 1.883780 0.000000 0.000000 
#    y 0.000000 1.892840 0.000000 
#    z 0.000000 0.000000 1.860430 
# 
# From -- ./inp_files/3849.got.cif
#   From: 2010.03.12/outbox.cif.g09.slc.cpg/sg41_2_cif.got.tgz:3849.got - 2010.04.14 01:55:53.
