data_PCOD8185903
_publ_section_title
;
Structure prediction by ZEFSAII (Michael W. Deem and Ramdas Pophale) SiO2 
 PCOD8185903
Probable space group: F M M 2
;
_chemical_formula_sum "Si O2"
_cell_formula_units_Z 112
_cell_length_a 14.520440
_cell_length_b 29.020772
_cell_length_c 14.518335
_cell_angle_alpha 90.000000
_cell_angle_beta 90.000000
_cell_angle_gamma 90.000000
_cell_volume 6117.944755
_symmetry_space_group_name_H-M "F M M 2"
_symmetry_group_IT_number 42
_symmetry_cell_setting 'orthorhombic'
loop_
_space_group_symop_operation_xyz
x,y,z
-x,-y,z
-x,y,z
x,-y,z
x,1/2+y,1/2+z
-x,1/2-y,1/2+z
-x,1/2+y,1/2+z
x,1/2-y,1/2+z
1/2+x,y,1/2+z
1/2-x,-y,1/2+z
1/2-x,y,1/2+z
1/2+x,-y,1/2+z
1/2+x,1/2+y,z
1/2-x,1/2-y,z
1/2-x,1/2+y,z
1/2+x,1/2-y,z
loop_
_atom_site_type_symbol
_atom_site_label
_atom_site_fract_x
_atom_site_fract_y
_atom_site_fract_z
Si Si1 0.392759 0.297475 0.777040
Si Si2 0.606117 0.294594 0.180397
Si Si3 0.298265 0.946386 0.352733
Si Si4 0.313180 0.592412 0.040597
Si Si5 0.000000 0.949588 0.068814
Si Si6 0.249931 0.628155 0.719255
Si Si7 0.500000 0.049786 0.352475
Si Si8 0.895812 0.818080 0.978902
O O1 0.500000 0.305630 0.755545
O O2 0.355562 0.251540 0.727732
O O3 0.340113 0.341679 0.737918
O O4 0.374286 0.289697 0.886178
O O5 0.500000 0.302839 0.206956
O O6 0.660726 0.338946 0.217320
O O7 0.618768 0.287226 0.070272
O O8 0.278964 0.943974 0.463409
O O9 0.232988 0.911988 0.295467
O O10 0.402134 0.926928 0.327164
O O11 0.284776 0.000000 0.324169
O O12 0.238239 0.602366 0.120229
O O13 0.406709 0.577654 0.095135
O O14 0.328801 0.638484 0.981326
O O15 0.000000 0.957020 0.960787
O O16 0.000000 0.000000 0.117397
O O17 0.500000 0.000000 0.304160
O O18 0.000000 0.837401 0.975482
#
# Coordination Sequence:
#
# PCOD8185903 Si02
#       8
#    16  16  16  16   8  16   8  16
#     4  10  20  36  57  85 112 138 178 224 269 328
#     4   9  20  38  56  81 114 140 177 225 271 324
#     4  10  20  34  53  81 112 142 180 229 275 321
#     4  10  18  32  51  79 109 139 177 226 275 314
#     4   9  16  28  52  80 102 132 178 234 281 314
#     4  11  22  33  56  83 109 143 182 218 276 326
#     4   7  14  28  50  76 102 128 166 228 283 308
#     4   9  16  31  57  78 101 137 173 220 277 309
#
# _framework density 18.306801
#
# number of rings (size 3 to 8) (size 9 to 14) (size 15 to 20)
#    0.000    2.429    2.143    1.714    2.000    1.143 
#    2.571    1.429    0.000    0.000    0.000    0.000 
#    0.000    0.000    0.000    0.000    0.000    0.000 
#
# Total GULP energy -346943.021938 kJ/mol
# GULP energy per Si atom -12390.822212 kJ/mol
# Density = 1.826513 g / cm^3
# Si number density = 18.306801 Si / 1000 Ang^3
#
#
#
# Elastic Constant Matrix: (Units=GPa)
#
#
# Indices 1 2 3 4 5 6 
#
# 1 46.8881 32.4085 40.6729 0.0000 0.0000 0.0000
# 2 32.4085 104.1482 56.3100 0.0000 0.0000 0.0000
# 3 40.6729 56.3100 105.7231 0.0000 0.0000 0.0000
# 4 0.0000 0.0000 0.0000 27.0799 0.0000 0.0000
# 5 0.0000 0.0000 0.0000 0.0000 24.8241 0.0000
# 6 0.0000 0.0000 0.0000 0.0000 0.0000 24.3816
#
#
#
# Elastic Compliance Matrix: (Units=1/GPa)
#
#
# Indices 1 2 3 4 5 6 
#
# 1 0.033688 -0.004881 -0.010360 0.000000 0.000000 0.000000
# 2 -0.004881 0.014192 -0.005681 0.000000 0.000000 0.000000
# 3 -0.010360 -0.005681 0.016470 0.000000 0.000000 0.000000
# 4 0.000000 0.000000 0.000000 0.036928 0.000000 0.000000
# 5 0.000000 0.000000 0.000000 0.000000 0.040283 0.000000
# 6 0.000000 0.000000 0.000000 0.000000 0.000000 0.041015
#
#
# Mechanical properties :
#
#
# Convention : Reuss Voigt Hill
#
# Bulk Modulus (GPa) = 44.43433 57.28245 50.85839
# Shear Modulus (GPa) = 21.55875 23.74833 22.65354
#
# Velocity S-wave (km/s) = 3.43539 3.60563 3.52154
# Velocity P-wave (km/s) = 6.32935 6.97799 6.66157
#
# Compressibility (1/GPa) = 0.02250512
#
# Stress axis : x y z
#
# Youngs Moduli (GPa) = 29.68374 70.46061 60.71540
#
# Poissons Ratio (x) = 0.34395 0.62903
# Poissons Ratio (y) = 0.14490 0.34493
# Poissons Ratio (z) = 0.30753 0.40029
#
# Static dielectric constant tensor:
#      x y z
#    x 3.309840 0.000000 0.000000 
#    y 0.000000 3.416480 0.000000 
#    z 0.000000 0.000000 3.361860 
# 
# 
# High freq. dielectric constant tensor:
#      x y z
#    x 1.680570 0.000000 0.000000 
#    y 0.000000 1.712650 0.000000 
#    z 0.000000 0.000000 1.692840 
# 
# From -- ./inp_files/14443.got.cif
#   From: 2010.03.12/outbox.cif.g09.slc.cpg/sg42_8_cif.got.tgz:14443.got - 2010.04.14 02:04:31.
