data_PCOD8185547
_publ_section_title
;
Structure prediction by ZEFSAII (Michael W. Deem and Ramdas Pophale) SiO2 
 PCOD8185547
Probable space group: A B A 2
;
_chemical_formula_sum "Si O2"
_cell_formula_units_Z 60
_cell_length_a 10.033737
_cell_length_b 16.478359
_cell_length_c 17.607271
_cell_angle_alpha 90.000000
_cell_angle_beta 90.000000
_cell_angle_gamma 90.000000
_cell_volume 2911.177743
_symmetry_space_group_name_H-M "A B A 2"
_symmetry_group_IT_number 41
_symmetry_cell_setting 'orthorhombic'
loop_
_space_group_symop_operation_xyz
x,y,z
-x,-y,z
1/2-x,y,1/2+z
1/2+x,-y,1/2+z
x,1/2+y,1/2+z
-x,1/2-y,1/2+z
1/2-x,1/2+y,z
1/2+x,1/2-y,z
loop_
_atom_site_type_symbol
_atom_site_label
_atom_site_fract_x
_atom_site_fract_y
_atom_site_fract_z
Si Si1 0.429945 0.583020 0.871690
Si Si2 0.837510 0.094887 0.271102
Si Si3 0.857858 0.968762 0.708104
Si Si4 0.006175 0.713390 0.685823
Si Si5 0.000000 0.500000 0.889172
Si Si6 0.279262 0.180298 0.112463
Si Si7 0.174296 0.139230 0.444154
Si Si8 0.369481 0.786291 0.331740
O O1 0.500000 0.500000 0.893913
O O2 0.370843 0.579972 0.786820
O O3 0.315013 0.595794 0.932564
O O4 0.537653 0.654251 0.880371
O O5 0.771844 0.171908 0.313627
O O6 0.961426 0.126062 0.220109
O O7 0.882716 0.032789 0.335817
O O8 0.733453 0.048299 0.217417
O O9 0.796963 0.909782 0.645400
O O10 0.000000 0.000000 0.678812
O O11 0.123951 0.703589 0.623996
O O12 0.060042 0.769522 0.752391
O O13 0.875246 0.754652 0.651500
O O14 0.057079 0.572179 0.941654
O O15 0.320674 0.182769 0.024844
O O16 0.153059 0.204295 0.377818
#
# Coordination Sequence:
#
# PCOD8185547 Si02
#       8
#     8   8   8   8   4   8   8   8
#     4  11  21  44  70  98 134 174 238 284 340 404
#     4  12  22  40  75 103 128 178 242 299 334 403
#     4  11  21  43  69 101 135 177 230 285 350 408
#     4  12  24  45  68 105 134 181 241 285 347 412
#     4  12  24  42  66 102 136 180 238 292 336 414
#     4  12  28  44  67 100 149 182 224 287 360 427
#     4  12  28  43  66 102 143 185 227 283 359 424
#     4  12  22  42  76 102 133 183 238 292 338 408
#
# _framework density 20.610215
#
# number of rings (size 3 to 8) (size 9 to 14) (size 15 to 20)
#    0.000    0.267    8.000    2.400    2.800    0.000 
#    2.400    1.333    0.000    0.000    0.000    0.000 
#    0.000    0.000    0.000    0.000    0.000    0.000 
#
# Total GULP energy -372173.815165 kJ/mol
# GULP energy per Si atom -12405.793839 kJ/mol
# Density = 2.056331 g / cm^3
# Si number density = 20.610215 Si / 1000 Ang^3
#
#
#
# Elastic Constant Matrix: (Units=GPa)
#
#
# Indices 1 2 3 4 5 6 
#
# 1 109.7556 33.3702 21.1710 0.0000 0.0000 0.0000
# 2 33.3702 94.6016 21.0273 0.0000 0.0000 0.0000
# 3 21.1710 21.0273 66.6917 0.0000 0.0000 0.0000
# 4 0.0000 0.0000 0.0000 14.7071 0.0000 0.0000
# 5 0.0000 0.0000 0.0000 0.0000 23.5875 0.0000
# 6 0.0000 0.0000 0.0000 0.0000 0.0000 42.5969
#
#
#
# Elastic Compliance Matrix: (Units=1/GPa)
#
#
# Indices 1 2 3 4 5 6 
#
# 1 0.010534 -0.003196 -0.002336 0.000000 0.000000 0.000000
# 2 -0.003196 0.012337 -0.002875 0.000000 0.000000 0.000000
# 3 -0.002336 -0.002875 0.016642 0.000000 0.000000 0.000000
# 4 0.000000 0.000000 0.000000 0.067994 0.000000 0.000000
# 5 0.000000 0.000000 0.000000 0.000000 0.042395 0.000000
# 6 0.000000 0.000000 0.000000 0.000000 0.000000 0.023476
#
#
# Mechanical properties :
#
#
# Convention : Reuss Voigt Hill
#
# Bulk Modulus (GPa) = 44.05658 46.90953 45.48306
# Shear Modulus (GPa) = 25.28316 29.21033 27.24674
#
# Velocity S-wave (km/s) = 3.50627 3.76875 3.63988
# Velocity P-wave (km/s) = 6.14934 6.46125 6.30722
#
# Compressibility (1/GPa) = 0.02269808
#
# Stress axis : x y z
#
# Youngs Moduli (GPa) = 94.93427 81.05544 60.08733
#
# Poissons Ratio (x) = 0.25909 0.14037
# Poissons Ratio (y) = 0.30345 0.17276
# Poissons Ratio (z) = 0.22177 0.23304
#
# Static dielectric constant tensor:
#      x y z
#    x 4.088320 0.000000 0.000000 
#    y 0.000000 3.837270 0.000000 
#    z 0.000000 0.000000 3.473010 
# 
# 
# High freq. dielectric constant tensor:
#      x y z
#    x 1.825100 0.000000 0.000000 
#    y 0.000000 1.820850 0.000000 
#    z 0.000000 0.000000 1.773690 
# 
# From -- ./inp_files/9773.got.cif
#   From: 2010.03.12/outbox.cif.g09.slc.cpg/sg41_5_cif.got.tgz:9773.got - 2010.04.14 01:55:53.
