data_PCOD8185346
_publ_section_title
;
Structure prediction by ZEFSAII (Michael W. Deem and Ramdas Pophale) SiO2 
 PCOD8185346
Probable space group: A B A 2
;
_chemical_formula_sum "Si O2"
_cell_formula_units_Z 64
_cell_length_a 12.115276
_cell_length_b 17.830926
_cell_length_c 13.383410
_cell_angle_alpha 90.000000
_cell_angle_beta 90.000000
_cell_angle_gamma 90.000000
_cell_volume 2891.172423
_symmetry_space_group_name_H-M "A B A 2"
_symmetry_group_IT_number 41
_symmetry_cell_setting 'orthorhombic'
loop_
_space_group_symop_operation_xyz
x,y,z
-x,-y,z
1/2-x,y,1/2+z
1/2+x,-y,1/2+z
x,1/2+y,1/2+z
-x,1/2-y,1/2+z
1/2-x,1/2+y,z
1/2+x,1/2-y,z
loop_
_atom_site_type_symbol
_atom_site_label
_atom_site_fract_x
_atom_site_fract_y
_atom_site_fract_z
Si Si1 0.668681 0.911094 0.329780
Si Si2 0.750476 0.569755 0.783616
Si Si3 0.855089 0.795904 0.304077
Si Si4 0.122090 0.282328 0.094230
Si Si5 0.989293 0.582646 0.734469
Si Si6 0.975684 0.580789 0.169836
Si Si7 0.314370 0.328602 0.955629
Si Si8 0.956882 0.372175 0.521846
O O1 0.737940 0.837566 0.305232
O O2 0.564430 0.909228 0.256699
O O3 0.623926 0.912537 0.443385
O O4 0.748268 0.982181 0.314237
O O5 0.858295 0.594368 0.720995
O O6 0.645457 0.585920 0.716431
O O7 0.757107 0.620670 0.881723
O O8 0.858740 0.742756 0.207937
O O9 0.862862 0.745537 0.402587
O O10 0.957299 0.854466 0.306377
O O11 0.029207 0.349744 0.092087
O O12 0.239021 0.307223 0.049489
O O13 0.073464 0.215263 0.028786
O O14 0.054598 0.586687 0.628673
O O15 0.000000 0.500000 0.782328
O O16 0.000000 0.500000 0.116970
O O17 0.416732 0.379542 0.989245
#
# Coordination Sequence:
#
# PCOD8185346 Si02
#       8
#     8   8   8   8   8   8   8   8
#     4  11  22  44  68 100 134 182 223 283 345 407
#     4  11  23  43  69  94 135 177 227 276 343 412
#     4  11  24  44  69  97 142 178 224 286 345 409
#     4  11  24  43  64 105 131 181 225 278 345 409
#     4  11  25  44  68 100 134 178 229 283 345 404
#     4  10  22  42  68  95 132 176 222 275 344 403
#     4  12  25  42  67  99 136 178 230 278 340 412
#     4  11  25  40  67  98 135 176 228 281 329 417
#
# _framework density 22.136348000000002
#
# number of rings (size 3 to 8) (size 9 to 14) (size 15 to 20)
#    0.000    1.000    5.000    0.750    5.250    1.000 
#    0.000    1.875    0.000    0.000    0.000    0.000 
#    0.000    0.000    0.000    0.000    0.000    0.000 
#
# Total GULP energy -396808.272753 kJ/mol
# GULP energy per Si atom -12400.258524 kJ/mol
# Density = 2.208596 g / cm^3
# Si number density = 22.136348 Si / 1000 Ang^3
#
#
#
# Elastic Constant Matrix: (Units=GPa)
#
#
# Indices 1 2 3 4 5 6 
#
# 1 101.8217 16.4039 17.8249 0.0000 0.0000 0.0000
# 2 16.4039 107.0596 27.9146 0.0000 0.0000 0.0000
# 3 17.8249 27.9146 53.1377 0.0000 0.0000 0.0000
# 4 0.0000 0.0000 0.0000 21.1990 0.0000 0.0000
# 5 0.0000 0.0000 0.0000 0.0000 34.7800 0.0000
# 6 0.0000 0.0000 0.0000 0.0000 0.0000 38.9083
#
#
#
# Elastic Compliance Matrix: (Units=1/GPa)
#
#
# Indices 1 2 3 4 5 6 
#
# 1 0.010493 -0.000799 -0.003100 0.000000 0.000000 0.000000
# 2 -0.000799 0.010884 -0.005449 0.000000 0.000000 0.000000
# 3 -0.003100 -0.005449 0.022722 0.000000 0.000000 0.000000
# 4 0.000000 0.000000 0.000000 0.047172 0.000000 0.000000
# 5 0.000000 0.000000 0.000000 0.000000 0.028752 0.000000
# 6 0.000000 0.000000 0.000000 0.000000 0.000000 0.025701
#
#
# Mechanical properties :
#
#
# Convention : Reuss Voigt Hill
#
# Bulk Modulus (GPa) = 39.36885 42.92286 41.14585
# Shear Modulus (GPa) = 28.92050 32.30252 30.61151
#
# Velocity S-wave (km/s) = 3.61844 3.82416 3.72272
# Velocity P-wave (km/s) = 5.93976 6.23949 6.09147
#
# Compressibility (1/GPa) = 0.02540079
#
# Stress axis : x y z
#
# Youngs Moduli (GPa) = 95.30599 91.87824 44.01109
#
# Poissons Ratio (x) = 0.07345 0.13642
# Poissons Ratio (y) = 0.07619 0.23984
# Poissons Ratio (z) = 0.29542 0.50068
#
# Static dielectric constant tensor:
#      x y z
#    x 3.930850 0.000000 0.000000 
#    y 0.000000 4.372820 0.000000 
#    z 0.000000 0.000000 3.789460 
# 
# 
# High freq. dielectric constant tensor:
#      x y z
#    x 1.874280 0.000000 0.000000 
#    y 0.000000 1.890640 0.000000 
#    z 0.000000 0.000000 1.852030 
# 
# From -- ./inp_files/8112.got.cif
#   From: 2010.03.12/outbox.cif.g09.slc.cpg/sg41_5_cif.got.tgz:8112.got - 2010.04.14 01:55:53.
