data_PCOD8185244
_publ_section_title
;
Structure prediction by ZEFSAII (Michael W. Deem and Ramdas Pophale) SiO2 
 PCOD8185244
Probable space group: A B A 2
;
_chemical_formula_sum "Si O2"
_cell_formula_units_Z 32
_cell_length_a 14.772527
_cell_length_b 8.515532
_cell_length_c 11.912932
_cell_angle_alpha 90.000000
_cell_angle_beta 90.000000
_cell_angle_gamma 90.000000
_cell_volume 1498.598317
_symmetry_space_group_name_H-M "A B A 2"
_symmetry_group_IT_number 41
_symmetry_cell_setting 'orthorhombic'
loop_
_space_group_symop_operation_xyz
x,y,z
-x,-y,z
1/2-x,y,1/2+z
1/2+x,-y,1/2+z
x,1/2+y,1/2+z
-x,1/2-y,1/2+z
1/2-x,1/2+y,z
1/2+x,1/2-y,z
loop_
_atom_site_type_symbol
_atom_site_label
_atom_site_fract_x
_atom_site_fract_y
_atom_site_fract_z
Si Si1 0.424528 0.628844 0.514870
Si Si2 0.827571 0.719780 0.307103
Si Si3 0.009594 0.679388 0.687049
Si Si4 0.645357 0.878654 0.249795
O O1 0.500000 0.500000 0.480297
O O2 0.361384 0.678364 0.412480
O O3 0.477983 0.783702 0.560079
O O4 0.359209 0.569535 0.617342
O O5 0.724401 0.755397 0.276966
O O6 0.840160 0.532810 0.326406
O O7 0.886672 0.770740 0.200043
O O8 0.948718 0.785079 0.774796
O O9 0.000000 0.500000 0.718449
#
# Coordination Sequence:
#
# PCOD8185244 Si02
#       4
#     8   8   8   8
#     4  10  23  46  69 101 145 189 240 304 361 430
#     4  12  22  43  72  95 142 197 231 302 369 418
#     4  10  21  44  67  98 140 181 237 303 350 426
#     4  10  24  43  64 108 145 178 248 303 342 446
#
# _framework density 21.353286000000001
#
# number of rings (size 3 to 8) (size 9 to 14) (size 15 to 20)
#    1.500    0.000    2.500    3.000    0.000    4.000 
#    4.500    0.000    0.000    0.000    0.000    0.000 
#    0.000    0.000    0.000    0.000    0.000    0.000 
#
# Total GULP energy -198212.454724 kJ/mol
# GULP energy per Si atom -12388.278420 kJ/mol
# Density = 2.130469 g / cm^3
# Si number density = 21.353286 Si / 1000 Ang^3
#
#
#
# Elastic Constant Matrix: (Units=GPa)
#
#
# Indices 1 2 3 4 5 6 
#
# 1 61.3852 21.8987 10.1344 0.0000 0.0000 0.0000
# 2 21.8987 143.2071 5.5959 0.0000 0.0000 0.0000
# 3 10.1344 5.5959 73.0268 0.0000 0.0000 0.0000
# 4 0.0000 0.0000 0.0000 28.1066 0.0000 0.0000
# 5 0.0000 0.0000 0.0000 0.0000 33.6242 0.0000
# 6 0.0000 0.0000 0.0000 0.0000 0.0000 41.5791
#
#
#
# Elastic Compliance Matrix: (Units=1/GPa)
#
#
# Indices 1 2 3 4 5 6 
#
# 1 0.017589 -0.002602 -0.002242 0.000000 0.000000 0.000000
# 2 -0.002602 0.007389 -0.000205 0.000000 0.000000 0.000000
# 3 -0.002242 -0.000205 0.014020 0.000000 0.000000 0.000000
# 4 0.000000 0.000000 0.000000 0.035579 0.000000 0.000000
# 5 0.000000 0.000000 0.000000 0.000000 0.029741 0.000000
# 6 0.000000 0.000000 0.000000 0.000000 0.000000 0.024051
#
#
# Mechanical properties :
#
#
# Convention : Reuss Voigt Hill
#
# Bulk Modulus (GPa) = 34.60120 39.20860 36.90490
# Shear Modulus (GPa) = 33.76123 36.66132 35.21128
#
# Velocity S-wave (km/s) = 3.98059 4.14804 4.06518
# Velocity P-wave (km/s) = 6.11279 6.42988 6.27334
#
# Compressibility (1/GPa) = 0.02890073
#
# Stress axis : x y z
#
# Youngs Moduli (GPa) = 56.85405 135.33993 71.32472
#
# Poissons Ratio (x) = 0.35216 0.15988
# Poissons Ratio (y) = 0.14794 0.01463
# Poissons Ratio (z) = 0.12744 0.02776
#
# Static dielectric constant tensor:
#      x y z
#    x 3.809250 0.000000 0.000000 
#    y 0.000000 3.811410 0.000000 
#    z 0.000000 0.000000 3.486350 
# 
# 
# High freq. dielectric constant tensor:
#      x y z
#    x 1.837610 0.000000 0.000000 
#    y 0.000000 1.845440 0.000000 
#    z 0.000000 0.000000 1.807210 
# 
# From -- ./inp_files/5269.got.cif
#   From: 2010.03.12/outbox.cif.g09.slc.cpg/sg41_3_cif.got.tgz:5269.got - 2010.04.14 01:55:53.
