data_PCOD8185064
_publ_section_title
;
Structure prediction by ZEFSAII (Michael W. Deem and Ramdas Pophale) SiO2 
 PCOD8185064
Probable space group: A B A 2
;
_chemical_formula_sum "Si O2"
_cell_formula_units_Z 56
_cell_length_a 4.916590
_cell_length_b 34.352042
_cell_length_c 15.508776
_cell_angle_alpha 90.000000
_cell_angle_beta 90.000000
_cell_angle_gamma 90.000000
_cell_volume 2619.353267
_symmetry_space_group_name_H-M "A B A 2"
_symmetry_group_IT_number 41
_symmetry_cell_setting 'orthorhombic'
loop_
_space_group_symop_operation_xyz
x,y,z
-x,-y,z
1/2-x,y,1/2+z
1/2+x,-y,1/2+z
x,1/2+y,1/2+z
-x,1/2-y,1/2+z
1/2-x,1/2+y,z
1/2+x,1/2-y,z
loop_
_atom_site_type_symbol
_atom_site_label
_atom_site_fract_x
_atom_site_fract_y
_atom_site_fract_z
Si Si1 0.674779 0.116812 0.277190
Si Si2 0.175206 0.223891 0.110590
Si Si3 0.049992 0.041131 0.066562
Si Si4 0.113499 0.666293 0.964849
Si Si5 0.125278 0.884454 0.966156
Si Si6 0.160997 0.168073 0.270627
Si Si7 0.561816 0.041470 0.177414
O O1 0.752071 0.104394 0.373892
O O2 0.461186 0.151486 0.276780
O O3 0.533710 0.079519 0.235042
O O4 0.949454 0.134999 0.234833
O O5 0.365621 0.261801 0.104143
O O6 0.189959 0.202920 0.202872
O O7 0.260096 0.197413 0.029810
O O8 0.365141 0.046852 0.093148
O O9 0.877481 0.037990 0.154039
O O10 0.000000 0.000000 0.015530
O O11 0.903866 0.076382 0.018927
O O12 0.322889 0.631206 0.956714
O O13 0.067730 0.683173 0.866862
O O14 0.834218 0.648004 0.005389
O O15 0.500000 0.000000 0.224705
#
# Coordination Sequence:
#
# PCOD8185064 Si02
#       7
#     8   8   8   8   8   8   8
#     4  10  21  38  60  87 117 159 205 245 299 353
#     4  12  26  42  64  94 120 156 200 236 308 378
#     4  10  21  35  54  86 122 159 203 251 303 352
#     4  10  23  41  62  91 122 155 201 251 297 357
#     4  10  21  38  60  87 117 159 205 245 299 353
#     4  10  23  41  62  91 122 155 201 251 297 357
#     4  10  21  35  54  86 122 159 203 251 303 352
#
# _framework density 21.379321000000001
#
# number of rings (size 3 to 8) (size 9 to 14) (size 15 to 20)
#    0.000    1.714    0.000    3.429    6.000    1.714 
#    0.000    0.000    0.000   10.286    0.000    0.000 
#    0.000    0.000    0.000    0.000    0.000    0.000 
#
# Total GULP energy -346934.750361 kJ/mol
# GULP energy per Si atom -12390.526799 kJ/mol
# Density = 2.133066 g / cm^3
# Si number density = 21.379321 Si / 1000 Ang^3
#
#
#
# Elastic Constant Matrix: (Units=GPa)
#
#
# Indices 1 2 3 4 5 6 
#
# 1 89.6614 11.7260 12.1649 0.0000 0.0000 0.0000
# 2 11.7260 102.1709 54.3201 0.0000 0.0000 0.0000
# 3 12.1649 54.3201 79.7986 0.0000 0.0000 0.0000
# 4 0.0000 0.0000 0.0000 -9.3581 0.0000 0.0000
# 5 0.0000 0.0000 0.0000 0.0000 23.1481 0.0000
# 6 0.0000 0.0000 0.0000 0.0000 0.0000 42.1840
#
#
#
# Elastic Compliance Matrix: (Units=1/GPa)
#
#
# Indices 1 2 3 4 5 6 
#
# 1 0.011412 -0.000603 -0.001329 0.000000 0.000000 0.000000
# 2 -0.000603 0.015371 -0.010371 0.000000 0.000000 0.000000
# 3 -0.001329 -0.010371 0.019794 0.000000 0.000000 0.000000
# 4 0.000000 0.000000 0.000000 -0.106859 0.000000 0.000000
# 5 0.000000 0.000000 0.000000 0.000000 0.043200 0.000000
# 6 0.000000 0.000000 0.000000 0.000000 0.000000 0.023706
#
#
# Mechanical properties :
#
#
# Convention : Reuss Voigt Hill
#
# Bulk Modulus (GPa) = 45.51642 47.56142 46.53892
# Shear Modulus (GPa) = 129.68986 24.08946 76.88966
#
# Velocity S-wave (km/s) = 7.79699 3.36037 6.00355
# Velocity P-wave (km/s) = 10.11897 6.11154 8.35896
#
# Compressibility (1/GPa) = 0.02197009
#
# Stress axis : x y z
#
# Youngs Moduli (GPa) = 87.62485 65.05926 50.52057
#
# Poissons Ratio (x) = 0.03924 0.06715
# Poissons Ratio (y) = 0.05284 0.52395
# Poissons Ratio (z) = 0.11647 0.67473
#
# Static dielectric constant tensor:
#      x y z
#    x 4.122290 0.000000 0.000000 
#    y 0.000000 3.910070 0.000000 
#    z 0.000000 0.000000 3.793880 
# 
# 
# High freq. dielectric constant tensor:
#      x y z
#    x 1.863030 0.000000 0.000000 
#    y 0.000000 1.837560 0.000000 
#    z 0.000000 0.000000 1.812360 
# 
# From -- ./inp_files/6953.got.cif
#   From: 2010.03.12/outbox.cif.g09.slc.cpg/sg41_4_cif.got.tgz:6953.got - 2010.04.14 01:55:53.
