data_PCOD8185578
_publ_section_title
;
Structure prediction by ZEFSAII (Michael W. Deem and Ramdas Pophale) SiO2 
 PCOD8185578
Probable space group: A B A 2
;
_chemical_formula_sum "Si O2"
_cell_formula_units_Z 64
_cell_length_a 11.987125
_cell_length_b 17.906937
_cell_length_c 14.684259
_cell_angle_alpha 90.000000
_cell_angle_beta 90.000000
_cell_angle_gamma 90.000000
_cell_volume 3152.015727
_symmetry_space_group_name_H-M "A B A 2"
_symmetry_group_IT_number 41
_symmetry_cell_setting 'orthorhombic'
loop_
_space_group_symop_operation_xyz
x,y,z
-x,-y,z
1/2-x,y,1/2+z
1/2+x,-y,1/2+z
x,1/2+y,1/2+z
-x,1/2-y,1/2+z
1/2-x,1/2+y,z
1/2+x,1/2-y,z
loop_
_atom_site_type_symbol
_atom_site_label
_atom_site_fract_x
_atom_site_fract_y
_atom_site_fract_z
Si Si1 0.269264 0.952618 0.671690
Si Si2 0.937718 0.663191 0.741813
Si Si3 0.564977 0.143236 0.097538
Si Si4 0.633088 0.807970 0.608093
Si Si5 0.354785 0.679498 0.712651
Si Si6 0.885323 0.958178 0.020466
Si Si7 0.233998 0.558259 0.341683
Si Si8 0.027351 0.584325 0.910054
O O1 0.371437 0.895487 0.679543
O O2 0.158212 0.909939 0.640804
O O3 0.296646 0.014059 0.595601
O O4 0.255646 0.993511 0.768383
O O5 0.864146 0.737071 0.750618
O O6 0.057731 0.677656 0.696916
O O7 0.954486 0.635274 0.843745
O O8 0.614656 0.224308 0.069921
O O9 0.471161 0.151823 0.173051
O O10 0.507260 0.104836 0.011633
O O11 0.761059 0.820707 0.634872
O O12 0.600853 0.868466 0.530826
O O13 0.328902 0.627117 0.797006
O O14 0.842523 0.978078 0.919874
O O15 0.000000 0.000000 0.037888
O O16 0.341979 0.593783 0.390524
O O17 0.000000 0.500000 0.887150
#
# Coordination Sequence:
#
# PCOD8185578 Si02
#       8
#     8   8   8   8   8   8   8   8
#     4  12  24  46  70 100 140 182 226 290 342 417
#     4  11  23  43  70  99 129 186 231 276 344 418
#     4  11  28  43  69 103 141 180 228 292 349 409
#     4  11  22  48  69  95 137 183 228 281 352 416
#     4  11  24  45  69  97 141 181 228 283 351 416
#     4  12  26  44  71 103 136 183 235 283 346 416
#     4  12  27  43  70 102 138 182 231 288 345 410
#     4  12  24  44  70 103 135 181 238 283 344 416
#
# _framework density 20.304466000000001
#
# number of rings (size 3 to 8) (size 9 to 14) (size 15 to 20)
#    0.000    0.500    6.250    1.500    5.250    0.000 
#    0.000    1.250    0.000    0.000    0.000    0.000 
#    0.000    0.000    0.000    0.000    0.000    0.000 
#
# Total GULP energy -396947.805601 kJ/mol
# GULP energy per Si atom -12404.618925 kJ/mol
# Density = 2.025825 g / cm^3
# Si number density = 20.304466 Si / 1000 Ang^3
#
#
#
# Elastic Constant Matrix: (Units=GPa)
#
#
# Indices 1 2 3 4 5 6 
#
# 1 105.3989 45.3215 35.7222 0.0000 0.0000 0.0000
# 2 45.3215 100.9713 25.5463 0.0000 0.0000 0.0000
# 3 35.7222 25.5463 90.9821 0.0000 0.0000 0.0000
# 4 0.0000 0.0000 0.0000 28.7644 0.0000 0.0000
# 5 0.0000 0.0000 0.0000 0.0000 27.8402 0.0000
# 6 0.0000 0.0000 0.0000 0.0000 0.0000 34.1366
#
#
#
# Elastic Compliance Matrix: (Units=1/GPa)
#
#
# Indices 1 2 3 4 5 6 
#
# 1 0.012805 -0.004818 -0.003675 0.000000 0.000000 0.000000
# 2 -0.004818 0.012474 -0.001611 0.000000 0.000000 0.000000
# 3 -0.003675 -0.001611 0.012886 0.000000 0.000000 0.000000
# 4 0.000000 0.000000 0.000000 0.034765 0.000000 0.000000
# 5 0.000000 0.000000 0.000000 0.000000 0.035919 0.000000
# 6 0.000000 0.000000 0.000000 0.000000 0.000000 0.029294
#
#
# Mechanical properties :
#
#
# Convention : Reuss Voigt Hill
#
# Bulk Modulus (GPa) = 55.68504 56.72581 56.20542
# Shear Modulus (GPa) = 30.42537 30.86574 30.64555
#
# Velocity S-wave (km/s) = 3.87519 3.90313 3.88919
# Velocity P-wave (km/s) = 6.89256 6.95060 6.92164
#
# Compressibility (1/GPa) = 0.01795814
#
# Stress axis : x y z
#
# Youngs Moduli (GPa) = 78.09508 80.16767 77.60176
#
# Poissons Ratio (x) = 0.38623 0.28517
# Poissons Ratio (y) = 0.37625 0.12500
# Poissons Ratio (z) = 0.28698 0.12914
#
# Static dielectric constant tensor:
#      x y z
#    x 3.958990 0.000000 0.000000 
#    y 0.000000 3.583480 0.000000 
#    z 0.000000 0.000000 3.496010 
# 
# 
# High freq. dielectric constant tensor:
#      x y z
#    x 1.805440 0.000000 0.000000 
#    y 0.000000 1.808640 0.000000 
#    z 0.000000 0.000000 1.787180 
# 
# From -- ./inp_files/8088.got.cif
#   From: 2010.03.12/outbox.cif.g09.slc.cpg/sg41_5_cif.got.tgz:8088.got - 2010.04.14 01:55:53.
