data_PCOD8185158
_publ_section_title
;
Structure prediction by ZEFSAII (Michael W. Deem and Ramdas Pophale) SiO2 
 PCOD8185158
Probable space group: A B A 2
;
_chemical_formula_sum "Si O2"
_cell_formula_units_Z 40
_cell_length_a 14.917497
_cell_length_b 4.893183
_cell_length_c 24.142892
_cell_angle_alpha 90.000000
_cell_angle_beta 90.000000
_cell_angle_gamma 90.000000
_cell_volume 1762.287290
_symmetry_space_group_name_H-M "A B A 2"
_symmetry_group_IT_number 41
_symmetry_cell_setting 'orthorhombic'
loop_
_space_group_symop_operation_xyz
x,y,z
-x,-y,z
1/2-x,y,1/2+z
1/2+x,-y,1/2+z
x,1/2+y,1/2+z
-x,1/2-y,1/2+z
1/2-x,1/2+y,z
1/2+x,1/2-y,z
loop_
_atom_site_type_symbol
_atom_site_label
_atom_site_fract_x
_atom_site_fract_y
_atom_site_fract_z
Si Si1 0.692168 0.995014 0.772320
Si Si2 0.940180 0.262371 0.858518
Si Si3 0.690855 0.301681 0.455918
Si Si4 0.808095 0.511760 0.643159
Si Si5 0.060774 0.264386 0.556262
O O1 0.776134 0.798976 0.788749
O O2 0.603824 0.893944 0.803636
O O3 0.668771 0.002979 0.707818
O O4 0.867512 0.193662 0.904761
O O5 0.000000 0.500000 0.885639
O O6 0.000000 0.000000 0.842557
O O7 0.720550 0.615915 0.453021
O O8 0.640041 0.288501 0.513790
O O9 0.775622 0.208569 0.626927
O O10 0.897691 0.609664 0.612542
O O11 0.000000 0.500000 0.529200
O O12 0.000000 0.000000 0.569317
#
# Coordination Sequence:
#
# PCOD8185158 Si02
#       5
#     8   8   8   8   8
#     4  10  21  40  63  87 119 163 211 253 301 370
#     4  12  24  40  62  94 130 162 206 265 324 375
#     4  12  24  42  66  90 124 170 216 256 312 388
#     4  10  21  40  63  87 119 163 211 253 301 370
#     4  12  24  40  62  94 130 162 206 265 324 375
#
# _framework density 22.697775
#
# number of rings (size 3 to 8) (size 9 to 14) (size 15 to 20)
#    0.000    0.800    0.000    8.400    0.000    0.800 
#    0.000    2.000    0.000    0.000    0.000    0.000 
#    0.000    0.000    0.000    0.000    0.000    0.000 
#
# Total GULP energy -248034.811888 kJ/mol
# GULP energy per Si atom -12401.740594 kJ/mol
# Density = 2.264611 g / cm^3
# Si number density = 22.697775 Si / 1000 Ang^3
#
#
#
# Elastic Constant Matrix: (Units=GPa)
#
#
# Indices 1 2 3 4 5 6 
#
# 1 99.9048 32.7690 51.2907 0.0000 0.0000 0.0000
# 2 32.7690 113.1830 33.1977 0.0000 0.0000 0.0000
# 3 51.2907 33.1977 109.5861 0.0000 0.0000 0.0000
# 4 0.0000 0.0000 0.0000 29.1585 0.0000 0.0000
# 5 0.0000 0.0000 0.0000 0.0000 15.5027 0.0000
# 6 0.0000 0.0000 0.0000 0.0000 0.0000 43.0860
#
#
#
# Elastic Compliance Matrix: (Units=1/GPa)
#
#
# Indices 1 2 3 4 5 6 
#
# 1 0.013695 -0.002288 -0.005717 0.000000 0.000000 0.000000
# 2 -0.002288 0.010079 -0.001982 0.000000 0.000000 0.000000
# 3 -0.005717 -0.001982 0.012401 0.000000 0.000000 0.000000
# 4 0.000000 0.000000 0.000000 0.034295 0.000000 0.000000
# 5 0.000000 0.000000 0.000000 0.000000 0.064505 0.000000
# 6 0.000000 0.000000 0.000000 0.000000 0.000000 0.023209
#
#
# Mechanical properties :
#
#
# Convention : Reuss Voigt Hill
#
# Bulk Modulus (GPa) = 61.72423 61.90985 61.81704
# Shear Modulus (GPa) = 27.23908 31.24388 29.24148
#
# Velocity S-wave (km/s) = 3.46797 3.71417 3.59318
# Velocity P-wave (km/s) = 6.57942 6.76227 6.67147
#
# Compressibility (1/GPa) = 0.01620109
#
# Stress axis : x y z
#
# Youngs Moduli (GPa) = 73.01955 99.21423 80.63626
#
# Poissons Ratio (x) = 0.22703 0.46096
# Poissons Ratio (y) = 0.16709 0.15985
# Poissons Ratio (z) = 0.41742 0.19668
#
# Static dielectric constant tensor:
#      x y z
#    x 4.023580 0.000000 0.000000 
#    y 0.000000 4.386090 0.000000 
#    z 0.000000 0.000000 3.956390 
# 
# 
# High freq. dielectric constant tensor:
#      x y z
#    x 1.895720 0.000000 0.000000 
#    y 0.000000 1.916780 0.000000 
#    z 0.000000 0.000000 1.895090 
# 
# From -- ./inp_files/12481.got.cif
#   From: 2010.03.12/outbox.cif.g09.slc.cpg/sg41_7_cif.got.tgz:12481.got - 2010.04.14 01:55:53.
