data_PCOD8185661
_publ_section_title
;
Structure prediction by ZEFSAII (Michael W. Deem and Ramdas Pophale) SiO2 
 PCOD8185661
Probable space group: A B A 2
;
_chemical_formula_sum "Si O2"
_cell_formula_units_Z 56
_cell_length_a 13.868897
_cell_length_b 11.355176
_cell_length_c 15.451956
_cell_angle_alpha 90.000000
_cell_angle_beta 90.000000
_cell_angle_gamma 90.000000
_cell_volume 2433.432229
_symmetry_space_group_name_H-M "A B A 2"
_symmetry_group_IT_number 41
_symmetry_cell_setting 'orthorhombic'
loop_
_space_group_symop_operation_xyz
x,y,z
-x,-y,z
1/2-x,y,1/2+z
1/2+x,-y,1/2+z
x,1/2+y,1/2+z
-x,1/2-y,1/2+z
1/2-x,1/2+y,z
1/2+x,1/2-y,z
loop_
_atom_site_type_symbol
_atom_site_label
_atom_site_fract_x
_atom_site_fract_y
_atom_site_fract_z
Si Si1 0.917209 0.274788 0.239010
Si Si2 0.213042 0.547360 0.323866
Si Si3 0.866878 0.697227 0.290224
Si Si4 0.608489 0.512262 0.208842
Si Si5 0.796482 0.821528 0.458424
Si Si6 0.973500 0.367692 0.066402
Si Si7 0.349605 0.706812 0.106675
O O1 0.840985 0.329445 0.304528
O O2 0.876422 0.152043 0.199278
O O3 0.921282 0.364857 0.158937
O O4 0.021435 0.261443 0.286284
O O5 0.140117 0.443754 0.299267
O O6 0.316085 0.540479 0.276597
O O7 0.242393 0.558210 0.425836
O O8 0.805157 0.742449 0.371822
O O9 0.818685 0.736238 0.198854
O O10 0.500000 0.500000 0.244754
O O11 0.623041 0.432567 0.121394
O O12 0.905079 0.835642 0.487731
O O13 0.736045 0.771194 0.538927
O O14 0.000000 0.500000 0.047368
O O15 0.059949 0.274612 0.066157
#
# Coordination Sequence:
#
# PCOD8185661 Si02
#       7
#     8   8   8   8   8   8   8
#     4  11  24  49  80 106 147 202 259 315 391 465
#     4  12  26  45  74 115 147 197 255 321 386 458
#     4  11  25  50  76 109 152 203 253 321 390 465
#     4  12  23  45  76 106 148 201 255 309 388 464
#     4  12  28  45  72 118 148 202 255 312 392 470
#     4  11  26  47  73 107 149 197 252 317 378 457
#     4  11  26  49  73 113 148 200 261 309 400 460
#
# _framework density 23.012763
#
# number of rings (size 3 to 8) (size 9 to 14) (size 15 to 20)
#    0.000    0.571    4.286    3.857    6.000    2.857 
#    0.000    0.000    0.000    0.000    0.000    0.000 
#    0.000    0.000    0.000    0.000    0.000    0.000 
#
# Total GULP energy -346949.719538 kJ/mol
# GULP energy per Si atom -12391.061412 kJ/mol
# Density = 2.296038 g / cm^3
# Si number density = 23.012763 Si / 1000 Ang^3
#
#
#
# Elastic Constant Matrix: (Units=GPa)
#
#
# Indices 1 2 3 4 5 6 
#
# 1 105.8911 64.7402 80.2987 0.0000 0.0000 0.0000
# 2 64.7402 143.7468 54.8296 0.0000 0.0000 0.0000
# 3 80.2987 54.8296 133.2190 0.0000 0.0000 0.0000
# 4 0.0000 0.0000 0.0000 19.7171 0.0000 0.0000
# 5 0.0000 0.0000 0.0000 0.0000 42.5486 0.0000
# 6 0.0000 0.0000 0.0000 0.0000 0.0000 31.3579
#
#
#
# Elastic Compliance Matrix: (Units=1/GPa)
#
#
# Indices 1 2 3 4 5 6 
#
# 1 0.020324 -0.005315 -0.010063 0.000000 0.000000 0.000000
# 2 -0.005315 0.009642 -0.000765 0.000000 0.000000 0.000000
# 3 -0.010063 -0.000765 0.013887 0.000000 0.000000 0.000000
# 4 0.000000 0.000000 0.000000 0.050717 0.000000 0.000000
# 5 0.000000 0.000000 0.000000 0.000000 0.023503 0.000000
# 6 0.000000 0.000000 0.000000 0.000000 0.000000 0.031890
#
#
# Mechanical properties :
#
#
# Convention : Reuss Voigt Hill
#
# Bulk Modulus (GPa) = 86.45021 86.95486 86.70254
# Shear Modulus (GPa) = 26.86665 30.92395 28.89530
#
# Velocity S-wave (km/s) = 3.42053 3.66973 3.54732
# Velocity P-wave (km/s) = 7.29711 7.47151 7.38482
#
# Compressibility (1/GPa) = 0.01156735
#
# Stress axis : x y z
#
# Youngs Moduli (GPa) = 49.20253 103.71074 72.01154
#
# Poissons Ratio (x) = 0.55124 0.72465
# Poissons Ratio (y) = 0.26152 0.05507
# Poissons Ratio (z) = 0.49512 0.07931
#
# Static dielectric constant tensor:
#      x y z
#    x 4.603440 0.000000 0.000000 
#    y 0.000000 4.432330 0.000000 
#    z 0.000000 0.000000 4.098160 
# 
# 
# High freq. dielectric constant tensor:
#      x y z
#    x 1.928190 0.000000 0.000000 
#    y 0.000000 1.914040 0.000000 
#    z 0.000000 0.000000 1.893330 
# 
# From -- ./inp_files/8396.got.cif
#   From: 2010.03.12/outbox.cif.g09.slc.cpg/sg41_5_cif.got.tgz:8396.got - 2010.04.14 01:55:53.
