data_PCOD8185563
_publ_section_title
;
Structure prediction by ZEFSAII (Michael W. Deem and Ramdas Pophale) SiO2 
 PCOD8185563
Probable space group: A B A 2
;
_chemical_formula_sum "Si O2"
_cell_formula_units_Z 40
_cell_length_a 4.821952
_cell_length_b 23.957903
_cell_length_c 14.530212
_cell_angle_alpha 90.000000
_cell_angle_beta 90.000000
_cell_angle_gamma 90.000000
_cell_volume 1678.586152
_symmetry_space_group_name_H-M "A B A 2"
_symmetry_group_IT_number 41
_symmetry_cell_setting 'orthorhombic'
loop_
_space_group_symop_operation_xyz
x,y,z
-x,-y,z
1/2-x,y,1/2+z
1/2+x,-y,1/2+z
x,1/2+y,1/2+z
-x,1/2-y,1/2+z
1/2-x,1/2+y,z
1/2+x,1/2-y,z
loop_
_atom_site_type_symbol
_atom_site_label
_atom_site_fract_x
_atom_site_fract_y
_atom_site_fract_z
Si Si1 0.855055 0.124758 0.507560
Si Si2 0.857124 0.944917 0.960225
Si Si3 0.915368 0.211739 0.356947
Si Si4 0.857125 0.444917 0.253669
Si Si5 0.144944 0.375242 0.706334
O O1 0.591170 0.102105 0.452888
O O2 0.750001 0.145221 0.606947
O O3 0.092835 0.076877 0.519021
O O4 0.978310 0.175859 0.448771
O O5 0.749980 0.958309 0.856947
O O6 0.000000 0.000000 0.005323
O O7 0.101257 0.266951 0.356947
O O8 0.978310 0.175859 0.265122
O O9 0.592837 0.423122 0.194872
O O10 0.000000 0.500000 0.208571
O O11 0.091172 0.397895 0.261007
#
# Coordination Sequence:
#
# PCOD8185563 Si02
#       5
#     8   8   8   8   8
#     4  12  25  44  70 104 140 181 233 289 347 414
#     4  11  22  42  71 102 141 185 227 275 343 422
#     4  12  26  46  71  96 137 182 238 300 356 402
#     4  11  22  42  71 102 141 185 227 275 343 422
#     4  12  25  44  70 104 140 181 233 289 347 414
#
# _framework density 23.829578999999999
#
# number of rings (size 3 to 8) (size 9 to 14) (size 15 to 20)
#    0.000    0.400    4.000    4.800    0.000    8.000 
#    0.000    0.000    0.000    0.000    0.000    0.000 
#    0.000    0.000    0.000    0.000    0.000    0.000 
#
# Total GULP energy -248065.210344 kJ/mol
# GULP energy per Si atom -12403.260517 kJ/mol
# Density = 2.377534 g / cm^3
# Si number density = 23.829579 Si / 1000 Ang^3
#
#
#
# Elastic Constant Matrix: (Units=GPa)
#
#
# Indices 1 2 3 4 5 6 
#
# 1 128.0486 34.2306 30.9193 0.0000 0.0000 0.0000
# 2 34.2306 103.7552 59.3325 0.0000 0.0000 0.0000
# 3 30.9193 59.3325 132.3167 0.0000 0.0000 0.0000
# 4 0.0000 0.0000 0.0000 22.6560 0.0000 0.0000
# 5 0.0000 0.0000 0.0000 0.0000 32.0527 0.0000
# 6 0.0000 0.0000 0.0000 0.0000 0.0000 55.0567
#
#
#
# Elastic Compliance Matrix: (Units=1/GPa)
#
#
# Indices 1 2 3 4 5 6 
#
# 1 0.008662 -0.002287 -0.000999 0.000000 0.000000 0.000000
# 2 -0.002287 0.013565 -0.005549 0.000000 0.000000 0.000000
# 3 -0.000999 -0.005549 0.010279 0.000000 0.000000 0.000000
# 4 0.000000 0.000000 0.000000 0.044138 0.000000 0.000000
# 5 0.000000 0.000000 0.000000 0.000000 0.031199 0.000000
# 6 0.000000 0.000000 0.000000 0.000000 0.000000 0.018163
#
#
# Mechanical properties :
#
#
# Convention : Reuss Voigt Hill
#
# Bulk Modulus (GPa) = 67.39189 68.12059 67.75624
# Shear Modulus (GPa) = 33.64272 37.92897 35.78584
#
# Velocity S-wave (km/s) = 3.76148 3.99391 3.87943
# Velocity P-wave (km/s) = 6.87074 7.06520 6.96865
#
# Compressibility (1/GPa) = 0.01483858
#
# Stress axis : x y z
#
# Youngs Moduli (GPa) = 115.44730 73.71690 97.28511
#
# Poissons Ratio (x) = 0.16856 0.09716
# Poissons Ratio (y) = 0.26398 0.53979
# Poissons Ratio (z) = 0.11530 0.40902
#
# Static dielectric constant tensor:
#      x y z
#    x 4.305530 0.000000 0.000000 
#    y 0.000000 4.026620 0.000000 
#    z 0.000000 0.000000 3.983130 
# 
# 
# High freq. dielectric constant tensor:
#      x y z
#    x 1.960340 0.000000 0.000000 
#    y 0.000000 1.928540 0.000000 
#    z 0.000000 0.000000 1.935670 
# 
# From -- ./inp_files/6825.got.cif
#   From: 2010.03.12/outbox.cif.g09.slc.cpg/sg41_4_cif.got.tgz:6825.got - 2010.04.14 01:55:53.
