data_PCOD8185076
_publ_section_title
;
Structure prediction by ZEFSAII (Michael W. Deem and Ramdas Pophale) SiO2 
 PCOD8185076
Probable space group: A B A 2
;
_chemical_formula_sum "Si O2"
_cell_formula_units_Z 60
_cell_length_a 25.092639
_cell_length_b 22.837946
_cell_length_c 5.100609
_cell_angle_alpha 90.000000
_cell_angle_beta 90.000000
_cell_angle_gamma 90.000000
_cell_volume 2922.977102
_symmetry_space_group_name_H-M "A B A 2"
_symmetry_group_IT_number 41
_symmetry_cell_setting 'orthorhombic'
loop_
_space_group_symop_operation_xyz
x,y,z
-x,-y,z
1/2-x,y,1/2+z
1/2+x,-y,1/2+z
x,1/2+y,1/2+z
-x,1/2-y,1/2+z
1/2-x,1/2+y,z
1/2+x,1/2-y,z
loop_
_atom_site_type_symbol
_atom_site_label
_atom_site_fract_x
_atom_site_fract_y
_atom_site_fract_z
Si Si1 0.603473 0.013198 0.390480
Si Si2 0.890992 0.827336 0.573398
Si Si3 0.279919 0.644867 0.657621
Si Si4 0.000000 0.500000 0.062042
Si Si5 0.530695 0.732178 0.229036
Si Si6 0.078583 0.603559 0.565104
Si Si7 0.216479 0.007157 0.672994
Si Si8 0.965778 0.599836 0.672925
O O1 0.554200 0.988830 0.220204
O O2 0.658407 0.022379 0.229954
O O3 0.586857 0.074044 0.530771
O O4 0.607114 0.960365 0.605581
O O5 0.828262 0.818250 0.530533
O O6 0.917950 0.764830 0.615133
O O7 0.919218 0.860470 0.335097
O O8 0.889953 0.865125 0.836723
O O9 0.232038 0.661281 0.458469
O O10 0.292647 0.576037 0.650527
O O11 0.011992 0.441810 0.899204
O O12 0.515147 0.761326 0.507210
O O13 0.547070 0.664754 0.278505
O O14 0.016149 0.601597 0.474774
O O15 0.241773 0.986512 0.397562
#
# Coordination Sequence:
#
# PCOD8185076 Si02
#       8
#     8   8   8   4   8   8   8   8
#     4  12  25  39  64  97 136 171 208 270 318 396
#     4  12  23  40  64  88 130 167 199 260 316 367
#     4  10  21  36  60  90 119 157 210 263 313 367
#     4  12  24  40  64  96 136 166 210 268 322 394
#     4  12  26  42  62  90 130 168 209 254 303 385
#     4  12  22  38  63  93 129 168 200 246 324 380
#     4  10  24  39  60  90 126 168 213 262 318 374
#     4  12  25  38  62  95 132 172 210 249 323 385
#
# _framework density 20.527018000000002
#
# number of rings (size 3 to 8) (size 9 to 14) (size 15 to 20)
#    0.000    0.533    6.667    1.600    7.467    0.000 
#    0.000    0.000    0.000    1.600    0.000    0.000 
#    0.000    0.000    0.000    0.000    0.000    0.000 
#
# Total GULP energy -371834.987861 kJ/mol
# GULP energy per Si atom -12394.499595 kJ/mol
# Density = 2.048030 g / cm^3
# Si number density = 20.527018 Si / 1000 Ang^3
#
#
#
# Elastic Constant Matrix: (Units=GPa)
#
#
# Indices 1 2 3 4 5 6 
#
# 1 112.0569 22.6635 19.6714 0.0000 0.0000 0.0000
# 2 22.6635 119.6580 31.8783 0.0000 0.0000 0.0000
# 3 19.6714 31.8783 94.0223 0.0000 0.0000 0.0000
# 4 0.0000 0.0000 0.0000 8.4834 0.0000 0.0000
# 5 0.0000 0.0000 0.0000 0.0000 23.4964 0.0000
# 6 0.0000 0.0000 0.0000 0.0000 0.0000 25.6519
#
#
#
# Elastic Compliance Matrix: (Units=1/GPa)
#
#
# Indices 1 2 3 4 5 6 
#
# 1 0.009470 -0.001392 -0.001510 0.000000 0.000000 0.000000
# 2 -0.001392 0.009391 -0.002893 0.000000 0.000000 0.000000
# 3 -0.001510 -0.002893 0.011932 0.000000 0.000000 0.000000
# 4 0.000000 0.000000 0.000000 0.117877 0.000000 0.000000
# 5 0.000000 0.000000 0.000000 0.000000 0.042560 0.000000
# 6 0.000000 0.000000 0.000000 0.000000 0.000000 0.038983
#
#
# Mechanical properties :
#
#
# Convention : Reuss Voigt Hill
#
# Bulk Modulus (GPa) = 52.06696 52.68485 52.37591
# Shear Modulus (GPa) = 20.14464 28.29462 24.21963
#
# Velocity S-wave (km/s) = 3.13608 3.71672 3.43868
# Velocity P-wave (km/s) = 6.20754 6.64383 6.42939
#
# Compressibility (1/GPa) = 0.01920604
#
# Stress axis : x y z
#
# Youngs Moduli (GPa) = 105.59120 106.47975 83.80476
#
# Poissons Ratio (x) = 0.14817 0.12651
# Poissons Ratio (y) = 0.14694 0.24245
# Poissons Ratio (z) = 0.15940 0.30805
#
# Static dielectric constant tensor:
#      x y z
#    x 3.845160 0.000000 0.000000 
#    y 0.000000 3.623180 0.000000 
#    z 0.000000 0.000000 3.858430 
# 
# 
# High freq. dielectric constant tensor:
#      x y z
#    x 1.798400 0.000000 0.000000 
#    y 0.000000 1.765020 0.000000 
#    z 0.000000 0.000000 1.813550 
# 
# From -- ./inp_files/1013.got.cif
#   From: 2010.03.12/outbox.cif.g09.slc.cpg/sg41_1_cif.got.tgz:1013.got - 2010.04.14 01:55:53.
