data_PCOD8185464
_publ_section_title
;
Structure prediction by ZEFSAII (Michael W. Deem and Ramdas Pophale) SiO2 
 PCOD8185464
Probable space group: A B A 2
;
_chemical_formula_sum "Si O2"
_cell_formula_units_Z 40
_cell_length_a 21.055133
_cell_length_b 10.530078
_cell_length_c 8.882544
_cell_angle_alpha 90.000000
_cell_angle_beta 90.000000
_cell_angle_gamma 90.000000
_cell_volume 1969.368308
_symmetry_space_group_name_H-M "A B A 2"
_symmetry_group_IT_number 41
_symmetry_cell_setting 'orthorhombic'
loop_
_space_group_symop_operation_xyz
x,y,z
-x,-y,z
1/2-x,y,1/2+z
1/2+x,-y,1/2+z
x,1/2+y,1/2+z
-x,1/2-y,1/2+z
1/2-x,1/2+y,z
1/2+x,1/2-y,z
loop_
_atom_site_type_symbol
_atom_site_label
_atom_site_fract_x
_atom_site_fract_y
_atom_site_fract_z
Si Si1 0.247084 0.380877 0.309840
Si Si2 0.535512 0.626751 0.126317
Si Si3 0.336659 0.772721 0.052722
Si Si4 0.469921 0.367228 0.481717
Si Si5 0.334773 0.987989 0.567365
O O1 0.291363 0.288326 0.408250
O O2 0.202172 0.297233 0.204330
O O3 0.289174 0.476262 0.211275
O O4 0.203966 0.466967 0.415598
O O5 0.500000 0.500000 0.069858
O O6 0.527684 0.644386 0.303271
O O7 0.510407 0.751665 0.045796
O O8 0.609163 0.614153 0.081598
O O9 0.397510 0.864704 0.041054
O O10 0.362997 0.629593 0.061476
O O11 0.500000 0.500000 0.536938
#
# Coordination Sequence:
#
# PCOD8185464 Si02
#       5
#     8   8   8   8   8
#     4  10  24  40  63  98 125 167 209 263 322 379
#     4  11  24  44  66  91 127 172 211 265 320 379
#     4  11  22  44  65  95 129 165 214 265 317 384
#     4  11  26  43  65  95 131 168 217 268 320 377
#     4  11  22  42  67  91 128 166 213 262 321 382
#
# _framework density 20.311081999999999
#
# number of rings (size 3 to 8) (size 9 to 14) (size 15 to 20)
#    0.000    1.200    4.000    1.200    2.800    2.400 
#   14.400    0.000    0.000    0.000    0.000    0.000 
#    0.000    0.000    0.000    0.000    0.000    0.000 
#
# Total GULP energy -248094.397341 kJ/mol
# GULP energy per Si atom -12404.719867 kJ/mol
# Density = 2.026485 g / cm^3
# Si number density = 20.311082 Si / 1000 Ang^3
#
#
#
# Elastic Constant Matrix: (Units=GPa)
#
#
# Indices 1 2 3 4 5 6 
#
# 1 147.2732 69.8408 59.8231 0.0000 0.0000 0.0000
# 2 69.8408 147.0401 52.7169 0.0000 0.0000 0.0000
# 3 59.8231 52.7169 115.5854 0.0000 0.0000 0.0000
# 4 0.0000 0.0000 0.0000 21.7756 0.0000 0.0000
# 5 0.0000 0.0000 0.0000 0.0000 -21.2682 0.0000
# 6 0.0000 0.0000 0.0000 0.0000 0.0000 40.5623
#
#
#
# Elastic Compliance Matrix: (Units=1/GPa)
#
#
# Indices 1 2 3 4 5 6 
#
# 1 0.009844 -0.003406 -0.003541 0.000000 0.000000 0.000000
# 2 -0.003406 0.009309 -0.002483 0.000000 0.000000 0.000000
# 3 -0.003541 -0.002483 0.011617 0.000000 0.000000 0.000000
# 4 0.000000 0.000000 0.000000 0.045923 0.000000 0.000000
# 5 0.000000 0.000000 0.000000 0.000000 -0.047019 0.000000
# 6 0.000000 0.000000 0.000000 0.000000 0.000000 0.024653
#
#
# Mechanical properties :
#
#
# Convention : Reuss Voigt Hill
#
# Bulk Modulus (GPa) = 83.96896 86.07336 85.02116
# Shear Modulus (GPa) = 64.80260 23.38179 44.09219
#
# Velocity S-wave (km/s) = 5.65458 3.39659 4.66429
# Velocity P-wave (km/s) = 9.16862 7.60605 8.42364
#
# Compressibility (1/GPa) = 0.01190916
#
# Stress axis : x y z
#
# Youngs Moduli (GPa) = 101.58652 107.42593 86.08146
#
# Poissons Ratio (x) = 0.36588 0.30485
# Poissons Ratio (y) = 0.34600 0.21372
# Poissons Ratio (z) = 0.35976 0.26672
#
# Static dielectric constant tensor:
#      x y z
#    x 3.832520 0.000000 0.000000 
#    y 0.000000 3.568930 0.000000 
#    z 0.000000 0.000000 3.805440 
# 
# 
# High freq. dielectric constant tensor:
#      x y z
#    x 1.809830 0.000000 0.000000 
#    y 0.000000 1.790340 0.000000 
#    z 0.000000 0.000000 1.801690 
# 
# From -- ./inp_files/2898.got.cif
#   From: 2010.03.12/outbox.cif.g09.slc.cpg/sg41_2_cif.got.tgz:2898.got - 2010.04.14 01:55:53.
