data_PCOD8185233
_publ_section_title
;
Structure prediction by ZEFSAII (Michael W. Deem and Ramdas Pophale) SiO2 
 PCOD8185233
Probable space group: A B A 2
;
_chemical_formula_sum "Si O2"
_cell_formula_units_Z 64
_cell_length_a 21.184190
_cell_length_b 9.796890
_cell_length_c 14.290348
_cell_angle_alpha 90.000000
_cell_angle_beta 90.000000
_cell_angle_gamma 90.000000
_cell_volume 2965.807094
_symmetry_space_group_name_H-M "A B A 2"
_symmetry_group_IT_number 41
_symmetry_cell_setting 'orthorhombic'
loop_
_space_group_symop_operation_xyz
x,y,z
-x,-y,z
1/2-x,y,1/2+z
1/2+x,-y,1/2+z
x,1/2+y,1/2+z
-x,1/2-y,1/2+z
1/2-x,1/2+y,z
1/2+x,1/2-y,z
loop_
_atom_site_type_symbol
_atom_site_label
_atom_site_fract_x
_atom_site_fract_y
_atom_site_fract_z
Si Si1 0.102974 0.218809 0.752230
Si Si2 0.499266 0.336579 0.127324
Si Si3 0.326102 0.086265 0.530072
Si Si4 0.814294 0.547237 0.817562
Si Si5 0.723849 0.623130 0.516713
Si Si6 0.623170 0.819039 0.725041
Si Si7 0.317108 0.956643 0.218927
Si Si8 0.455379 0.626288 0.932412
O O1 0.163593 0.312793 0.769814
O O2 0.054380 0.219915 0.840554
O O3 0.067127 0.274981 0.660217
O O4 0.129182 0.068729 0.733603
O O5 0.500000 0.500000 0.127456
O O6 0.551151 0.282434 0.200938
O O7 0.514501 0.289531 0.020245
O O8 0.277806 0.211833 0.507126
O O9 0.346342 0.107176 0.635781
O O10 0.385283 0.078065 0.460991
O O11 0.294345 0.937799 0.518628
O O12 0.811594 0.561898 0.928088
O O13 0.867836 0.431243 0.805586
O O14 0.747664 0.502621 0.770929
O O15 0.688719 0.567702 0.608302
O O16 0.658088 0.684550 0.762287
O O17 0.500000 0.500000 0.905305
#
# Coordination Sequence:
#
# PCOD8185233 Si02
#       8
#     8   8   8   8   8   8   8   8
#     4  12  25  45  69 101 135 174 231 285 333 406
#     4  10  22  45  68  91 129 185 217 273 338 401
#     4  10  21  43  65  95 135 175 221 280 330 406
#     4  12  23  43  67  97 136 178 221 280 337 412
#     4  11  24  41  65  99 140 171 225 277 343 399
#     4  10  22  41  66  90 133 170 226 267 332 397
#     4  11  26  42  65 102 132 177 220 283 341 401
#     4  10  23  44  67  97 132 179 227 274 336 410
#
# _framework density 21.579286
#
# number of rings (size 3 to 8) (size 9 to 14) (size 15 to 20)
#    0.000    1.250    3.750    1.500    5.250    0.000 
#    2.250    0.000    0.000    0.000    0.000    0.000 
#    0.000    0.000    0.000    0.000    0.000    0.000 
#
# Total GULP energy -396746.374827 kJ/mol
# GULP energy per Si atom -12398.324213 kJ/mol
# Density = 2.153017 g / cm^3
# Si number density = 21.579286 Si / 1000 Ang^3
#
#
#
# Elastic Constant Matrix: (Units=GPa)
#
#
# Indices 1 2 3 4 5 6 
#
# 1 83.1094 34.8205 27.8968 0.0000 0.0000 0.0000
# 2 34.8205 86.0396 18.2394 0.0000 0.0000 0.0000
# 3 27.8968 18.2394 75.9833 0.0000 0.0000 0.0000
# 4 0.0000 0.0000 0.0000 23.3577 0.0000 0.0000
# 5 0.0000 0.0000 0.0000 0.0000 26.8050 0.0000
# 6 0.0000 0.0000 0.0000 0.0000 0.0000 34.2109
#
#
#
# Elastic Compliance Matrix: (Units=1/GPa)
#
#
# Indices 1 2 3 4 5 6 
#
# 1 0.015827 -0.005451 -0.004502 0.000000 0.000000 0.000000
# 2 -0.005451 0.014123 -0.001389 0.000000 0.000000 0.000000
# 3 -0.004502 -0.001389 0.015147 0.000000 0.000000 0.000000
# 4 0.000000 0.000000 0.000000 0.042812 0.000000 0.000000
# 5 0.000000 0.000000 0.000000 0.000000 0.037306 0.000000
# 6 0.000000 0.000000 0.000000 0.000000 0.000000 0.029230
#
#
# Mechanical properties :
#
#
# Convention : Reuss Voigt Hill
#
# Bulk Modulus (GPa) = 44.61677 45.22728 44.92203
# Shear Modulus (GPa) = 27.08520 27.81977 27.45248
#
# Velocity S-wave (km/s) = 3.54665 3.59442 3.57062
# Velocity P-wave (km/s) = 6.12309 6.18309 6.15317
#
# Compressibility (1/GPa) = 0.02241310
#
# Stress axis : x y z
#
# Youngs Moduli (GPa) = 63.18139 70.80653 66.01862
#
# Poissons Ratio (x) = 0.38596 0.29725
# Poissons Ratio (y) = 0.34440 0.09169
# Poissons Ratio (z) = 0.28447 0.09834
#
# Static dielectric constant tensor:
#      x y z
#    x 3.973740 0.000000 0.000000 
#    y 0.000000 3.811580 0.000000 
#    z 0.000000 0.000000 4.104180 
# 
# 
# High freq. dielectric constant tensor:
#      x y z
#    x 1.843330 0.000000 0.000000 
#    y 0.000000 1.835850 0.000000 
#    z 0.000000 0.000000 1.854190 
# 
# From -- ./inp_files/9146.got.cif
#   From: 2010.03.12/outbox.cif.g09.slc.cpg/sg41_5_cif.got.tgz:9146.got - 2010.04.14 01:55:53.
