data_PCOD8185778
_publ_section_title
;
Structure prediction by ZEFSAII (Michael W. Deem and Ramdas Pophale) SiO2 
 PCOD8185778
Probable space group: F M M 2
;
_chemical_formula_sum "Si O2"
_cell_formula_units_Z 128
_cell_length_a 18.186487
_cell_length_b 23.428495
_cell_length_c 19.016215
_cell_angle_alpha 90.000000
_cell_angle_beta 90.000000
_cell_angle_gamma 90.000000
_cell_volume 8102.467295
_symmetry_space_group_name_H-M "F M M 2"
_symmetry_group_IT_number 42
_symmetry_cell_setting 'orthorhombic'
loop_
_space_group_symop_operation_xyz
x,y,z
-x,-y,z
-x,y,z
x,-y,z
x,1/2+y,1/2+z
-x,1/2-y,1/2+z
-x,1/2+y,1/2+z
x,1/2-y,1/2+z
1/2+x,y,1/2+z
1/2-x,-y,1/2+z
1/2-x,y,1/2+z
1/2+x,-y,1/2+z
1/2+x,1/2+y,z
1/2-x,1/2-y,z
1/2-x,1/2+y,z
1/2+x,1/2-y,z
loop_
_atom_site_type_symbol
_atom_site_label
_atom_site_fract_x
_atom_site_fract_y
_atom_site_fract_z
Si Si1 0.085489 0.831056 0.193380
Si Si2 0.086800 0.562620 0.060845
Si Si3 0.586614 0.162833 0.153053
Si Si4 0.165308 0.762551 0.079970
Si Si5 0.835052 0.249045 0.421794
Si Si6 0.086994 0.563606 0.782473
Si Si7 0.415556 0.723087 0.788812
Si Si8 0.087446 0.372275 0.922175
O O1 0.135897 0.815251 0.126650
O O2 0.111647 0.893263 0.220364
O O3 0.097168 0.786274 0.257011
O O4 0.000000 0.830774 0.170423
O O5 0.123388 0.500000 0.066890
O O6 0.108792 0.598823 0.130307
O O7 0.000000 0.556343 0.055757
O O8 0.114328 0.594387 0.991242
O O9 0.500000 0.173334 0.148847
O O10 0.620187 0.205783 0.096521
O O11 0.614024 0.176586 0.231978
O O12 0.250000 0.750000 0.097089
O O13 0.152600 0.777721 0.998106
O O14 0.750000 0.250000 0.402894
O O15 0.872988 0.286820 0.361364
O O16 0.868323 0.186117 0.419182
O O17 0.120634 0.500000 0.770605
O O18 0.112265 0.588212 0.857399
O O19 0.000000 0.559698 0.782514
O O20 0.500000 0.712460 0.806077
O O21 0.000000 0.359289 0.921526
#
# Coordination Sequence:
#
# PCOD8185778 Si02
#       8
#    16  16  16  16  16  16  16  16
#     4   9  17  30  47  69  93 121 151 184 229 278
#     4   9  16  26  45  72  95 119 152 187 231 282
#     4   9  17  30  47  68  94 121 149 186 229 276
#     4  10  20  31  44  65  92 124 158 190 229 270
#     4  11  21  30  43  68  92 126 158 189 229 273
#     4   9  16  27  45  70  96 120 151 190 231 278
#     4   9  17  29  45  65  92 123 153 184 227 275
#     4  10  17  28  45  68  99 126 150 187 232 282
#
# _framework density 15.797656999999999
#
# number of rings (size 3 to 8) (size 9 to 14) (size 15 to 20)
#    0.000    2.500    2.500    1.875    0.000    5.000 
#    0.000    0.000    0.000    0.750    0.000    0.875 
#    0.000    4.000    0.000    0.000    0.000    0.500 
#
# Total GULP energy -396643.553969 kJ/mol
# GULP energy per Si atom -12395.111062 kJ/mol
# Density = 1.576170 g / cm^3
# Si number density = 15.797657 Si / 1000 Ang^3
#
#
#
# Elastic Constant Matrix: (Units=GPa)
#
#
# Indices 1 2 3 4 5 6 
#
# 1 45.9457 29.1350 46.2822 0.0000 0.0000 0.0000
# 2 29.1350 105.1375 54.8746 0.0000 0.0000 0.0000
# 3 46.2822 54.8746 129.2057 0.0000 0.0000 0.0000
# 4 0.0000 0.0000 0.0000 18.9457 0.0000 0.0000
# 5 0.0000 0.0000 0.0000 0.0000 16.6944 0.0000
# 6 0.0000 0.0000 0.0000 0.0000 0.0000 6.9624
#
#
#
# Elastic Compliance Matrix: (Units=1/GPa)
#
#
# Indices 1 2 3 4 5 6 
#
# 1 0.035374 -0.004097 -0.010931 0.000000 0.000000 0.000000
# 2 -0.004097 0.012695 -0.003924 0.000000 0.000000 0.000000
# 3 -0.010931 -0.003924 0.013322 0.000000 0.000000 0.000000
# 4 0.000000 0.000000 0.000000 0.052783 0.000000 0.000000
# 5 0.000000 0.000000 0.000000 0.000000 0.059900 0.000000
# 6 0.000000 0.000000 0.000000 0.000000 0.000000 0.143628
#
#
# Mechanical properties :
#
#
# Convention : Reuss Voigt Hill
#
# Bulk Modulus (GPa) = 42.57852 60.09695 51.33774
# Shear Modulus (GPa) = 13.75764 18.52031 16.13898
#
# Velocity S-wave (km/s) = 2.95425 3.42767 3.19972
# Velocity P-wave (km/s) = 6.21673 7.33413 6.79843
#
# Compressibility (1/GPa) = 0.02348602
#
# Stress axis : x y z
#
# Youngs Moduli (GPa) = 28.26923 78.77253 75.06584
#
# Poissons Ratio (x) = 0.32276 0.82055
# Poissons Ratio (y) = 0.11583 0.29455
# Poissons Ratio (z) = 0.30901 0.30909
#
# Static dielectric constant tensor:
#      x y z
#    x 2.761420 0.000000 0.000000 
#    y 0.000000 3.189150 0.000000 
#    z 0.000000 0.000000 3.186460 
# 
# 
# High freq. dielectric constant tensor:
#      x y z
#    x 1.574510 0.000000 0.000000 
#    y 0.000000 1.589230 0.000000 
#    z 0.000000 0.000000 1.612240 
# 
# From -- ./inp_files/21221.got.cif
#   From: 2010.03.12/outbox.cif.g09.slc.cpg/sg42_11_cif.got.tgz:21221.got - 2010.04.14 02:04:31.
