data_PCOD8185699
_publ_section_title
;
Structure prediction by ZEFSAII (Michael W. Deem and Ramdas Pophale) SiO2 
 PCOD8185699
Probable space group: A B A 2
;
_chemical_formula_sum "Si O2"
_cell_formula_units_Z 60
_cell_length_a 27.651672
_cell_length_b 6.245875
_cell_length_c 15.427773
_cell_angle_alpha 90.000000
_cell_angle_beta 90.000000
_cell_angle_gamma 90.000000
_cell_volume 2664.513501
_symmetry_space_group_name_H-M "A B A 2"
_symmetry_group_IT_number 41
_symmetry_cell_setting 'orthorhombic'
loop_
_space_group_symop_operation_xyz
x,y,z
-x,-y,z
1/2-x,y,1/2+z
1/2+x,-y,1/2+z
x,1/2+y,1/2+z
-x,1/2-y,1/2+z
1/2-x,1/2+y,z
1/2+x,1/2-y,z
loop_
_atom_site_type_symbol
_atom_site_label
_atom_site_fract_x
_atom_site_fract_y
_atom_site_fract_z
Si Si1 0.852438 0.398869 0.851460
Si Si2 0.953062 0.883223 0.268412
Si Si3 0.453062 0.883223 0.593555
Si Si4 0.352438 0.898865 0.510506
Si Si5 0.500000 0.500000 0.680984
Si Si6 0.764164 0.358671 0.760988
Si Si7 0.264164 0.358667 0.100978
Si Si8 0.710069 0.250002 0.930983
O O1 0.909554 0.404537 0.835223
O O2 0.821801 0.312396 0.768780
O O3 0.827849 0.624189 0.871540
O O4 0.842307 0.250005 0.930984
O O5 0.965923 0.639084 0.244368
O O6 0.937153 0.999997 0.180983
O O7 0.000000 0.000000 0.309727
O O8 0.465923 0.639086 0.617601
O O9 0.500000 0.000000 0.552238
O O10 0.409555 0.904533 0.526743
O O11 0.327849 0.124184 0.490425
O O12 0.321801 0.812394 0.593187
O O13 0.757262 0.622018 0.722933
O O14 0.742668 0.385432 0.860084
O O15 0.257262 0.622014 0.139033
O O16 0.242668 0.385427 0.001882
#
# Coordination Sequence:
#
# PCOD8185699 Si02
#       8
#     8   8   8   8   4   8   8   8
#     4  12  25  43  65 101 138 176 228 284 343 413
#     4   9  21  43  68  97 129 170 232 282 340 411
#     4   9  21  43  68  97 129 170 232 282 340 411
#     4  12  25  43  65 101 138 176 228 284 343 413
#     4   8  18  44  72  90 128 168 224 288 332 418
#     4  12  23  43  70  95 137 189 224 278 343 400
#     4  12  23  43  70  95 137 189 224 278 343 400
#     4  12  26  46  64 100 148 172 236 286 328 422
#
# _framework density 22.518180999999998
#
# number of rings (size 3 to 8) (size 9 to 14) (size 15 to 20)
#    0.000    1.333    4.000    3.200    0.000    4.267 
#    7.200    0.000    0.000    0.000    0.000    0.000 
#    0.000    0.000    0.000    0.000    0.000    0.000 
#
# Total GULP energy -371685.525718 kJ/mol
# GULP energy per Si atom -12389.517524 kJ/mol
# Density = 2.246693 g / cm^3
# Si number density = 22.518181 Si / 1000 Ang^3
#
#
#
# Elastic Constant Matrix: (Units=GPa)
#
#
# Indices 1 2 3 4 5 6 
#
# 1 180.1992 59.0988 64.2391 0.0000 0.0000 0.0000
# 2 59.0988 99.7671 64.7855 0.0000 0.0000 0.0000
# 3 64.2391 64.7855 131.5119 0.0000 0.0000 0.0000
# 4 0.0000 0.0000 0.0000 39.7028 0.0000 0.0000
# 5 0.0000 0.0000 0.0000 0.0000 45.1180 0.0000
# 6 0.0000 0.0000 0.0000 0.0000 0.0000 19.4466
#
#
#
# Elastic Compliance Matrix: (Units=1/GPa)
#
#
# Indices 1 2 3 4 5 6 
#
# 1 0.007261 -0.002938 -0.002100 0.000000 0.000000 0.000000
# 2 -0.002938 0.015927 -0.006411 0.000000 0.000000 0.000000
# 3 -0.002100 -0.006411 0.011788 0.000000 0.000000 0.000000
# 4 0.000000 0.000000 0.000000 0.025187 0.000000 0.000000
# 5 0.000000 0.000000 0.000000 0.000000 0.022164 0.000000
# 6 0.000000 0.000000 0.000000 0.000000 0.000000 0.051423
#
#
# Mechanical properties :
#
#
# Convention : Reuss Voigt Hill
#
# Bulk Modulus (GPa) = 82.78878 87.52500 85.15689
# Shear Modulus (GPa) = 31.11916 35.74379 33.43148
#
# Velocity S-wave (km/s) = 3.72150 3.98845 3.85729
# Velocity P-wave (km/s) = 7.43715 7.75650 7.59850
#
# Compressibility (1/GPa) = 0.01207893
#
# Stress axis : x y z
#
# Youngs Moduli (GPa) = 137.71287 62.78805 84.83557
#
# Poissons Ratio (x) = 0.18447 0.17813
# Poissons Ratio (y) = 0.40460 0.54385
# Poissons Ratio (z) = 0.28915 0.40251
#
# Static dielectric constant tensor:
#      x y z
#    x 3.968770 0.000000 0.000000 
#    y 0.000000 4.908100 0.000000 
#    z 0.000000 0.000000 4.387820 
# 
# 
# High freq. dielectric constant tensor:
#      x y z
#    x 1.875080 0.000000 0.000000 
#    y 0.000000 1.927340 0.000000 
#    z 0.000000 0.000000 1.913090 
# 
# From -- ./inp_files/11749.got.cif
#   From: 2010.03.12/outbox.cif.g09.slc.cpg/sg41_6_cif.got.tgz:11749.got - 2010.04.14 01:55:53.
