data_PCOD8185215
_publ_section_title
;
Structure prediction by ZEFSAII (Michael W. Deem and Ramdas Pophale) SiO2 
 PCOD8185215
Probable space group: A B A 2
;
_chemical_formula_sum "Si O2"
_cell_formula_units_Z 64
_cell_length_a 11.422241
_cell_length_b 21.098174
_cell_length_c 12.871515
_cell_angle_alpha 90.000000
_cell_angle_beta 90.000000
_cell_angle_gamma 90.000000
_cell_volume 3101.886167
_symmetry_space_group_name_H-M "A B A 2"
_symmetry_group_IT_number 41
_symmetry_cell_setting 'orthorhombic'
loop_
_space_group_symop_operation_xyz
x,y,z
-x,-y,z
1/2-x,y,1/2+z
1/2+x,-y,1/2+z
x,1/2+y,1/2+z
-x,1/2-y,1/2+z
1/2-x,1/2+y,z
1/2+x,1/2-y,z
loop_
_atom_site_type_symbol
_atom_site_label
_atom_site_fract_x
_atom_site_fract_y
_atom_site_fract_z
Si Si1 0.868288 0.019136 0.983490
Si Si2 0.876536 0.034852 0.210549
Si Si3 0.748856 0.931705 0.328404
Si Si4 0.481165 0.642969 0.298582
Si Si5 0.139901 0.775499 0.429157
Si Si6 0.004159 0.228291 0.109495
Si Si7 0.585123 0.322529 0.773101
Si Si8 0.120878 0.343700 0.421562
O O1 0.865014 0.080998 0.912861
O O2 0.799778 0.957451 0.938827
O O3 0.821003 0.041295 0.095907
O O4 0.000000 0.000000 0.998588
O O5 0.904876 0.100987 0.267531
O O6 0.775613 0.996003 0.267650
O O7 0.000000 0.000000 0.207680
O O8 0.651237 0.890547 0.264985
O O9 0.870131 0.894240 0.343999
O O10 0.521881 0.690093 0.388838
O O11 0.442337 0.682162 0.196737
O O12 0.164147 0.713981 0.358285
O O13 0.249496 0.818983 0.413103
O O14 0.114945 0.758834 0.549525
O O15 0.924567 0.283903 0.163736
O O16 0.933071 0.185105 0.027489
O O17 0.454477 0.326652 0.819999
#
# Coordination Sequence:
#
# PCOD8185215 Si02
#       8
#     8   8   8   8   8   8   8   8
#     4  11  21  41  63  91 123 167 216 256 316 383
#     4   9  20  38  62  87 118 167 211 249 314 381
#     4  11  23  37  66  93 127 166 212 272 314 389
#     4  10  21  42  62  93 132 169 215 267 327 389
#     4  10  24  38  64  95 124 171 212 266 323 384
#     4  10  23  40  62  95 127 170 215 262 328 394
#     4  10  24  40  61  96 130 167 208 268 328 383
#     4  11  22  43  66  89 127 168 216 267 316 394
#
# _framework density 20.632608999999999
#
# number of rings (size 3 to 8) (size 9 to 14) (size 15 to 20)
#    0.000    1.750    2.500    0.750    7.000    2.000 
#    2.250    0.000    0.000    0.750    0.000    0.000 
#    0.000    0.000    0.000    0.000    0.000    0.000 
#
# Total GULP energy -396562.025063 kJ/mol
# GULP energy per Si atom -12392.563283 kJ/mol
# Density = 2.058565 g / cm^3
# Si number density = 20.632609 Si / 1000 Ang^3
#
#
#
# Elastic Constant Matrix: (Units=GPa)
#
#
# Indices 1 2 3 4 5 6 
#
# 1 79.3093 26.6817 29.4262 0.0000 0.0000 0.0000
# 2 26.6817 95.3791 29.1462 0.0000 0.0000 0.0000
# 3 29.4262 29.1462 77.3811 0.0000 0.0000 0.0000
# 4 0.0000 0.0000 0.0000 32.1758 0.0000 0.0000
# 5 0.0000 0.0000 0.0000 0.0000 355.6968 0.0000
# 6 0.0000 0.0000 0.0000 0.0000 0.0000 26.7117
#
#
#
# Elastic Compliance Matrix: (Units=1/GPa)
#
#
# Indices 1 2 3 4 5 6 
#
# 1 0.015329 -0.002833 -0.004762 0.000000 0.000000 0.000000
# 2 -0.002833 0.012372 -0.003583 0.000000 0.000000 0.000000
# 3 -0.004762 -0.003583 0.016083 0.000000 0.000000 0.000000
# 4 0.000000 0.000000 0.000000 0.031079 0.000000 0.000000
# 5 0.000000 0.000000 0.000000 0.000000 0.002811 0.000000
# 6 0.000000 0.000000 0.000000 0.000000 0.000000 0.037437
#
#
# Mechanical properties :
#
#
# Convention : Reuss Voigt Hill
#
# Bulk Modulus (GPa) = 46.66658 46.95308 46.80983
# Shear Modulus (GPa) = 34.57580 94.03786 64.30683
#
# Velocity S-wave (km/s) = 4.09808 6.75842 5.58885
# Velocity P-wave (km/s) = 6.71262 9.14920 8.02394
#
# Compressibility (1/GPa) = 0.02142861
#
# Stress axis : x y z
#
# Youngs Moduli (GPa) = 65.23646 80.82921 62.17580
#
# Poissons Ratio (x) = 0.22898 0.29609
# Poissons Ratio (y) = 0.18481 0.22275
# Poissons Ratio (z) = 0.31067 0.28958
#
# Static dielectric constant tensor:
#      x y z
#    x 2.929830 0.000000 0.000000 
#    y 0.000000 3.892700 0.000000 
#    z 0.000000 0.000000 3.861170 
# 
# 
# High freq. dielectric constant tensor:
#      x y z
#    x 1.791910 0.000000 0.000000 
#    y 0.000000 1.824040 0.000000 
#    z 0.000000 0.000000 1.797230 
# 
# From -- ./inp_files/5187.got.cif
#   From: 2010.03.12/outbox.cif.g09.slc.cpg/sg41_3_cif.got.tgz:5187.got - 2010.04.14 01:55:53.
