data_PCOD8185923
_publ_section_title
;
Structure prediction by ZEFSAII (Michael W. Deem and Ramdas Pophale) SiO2 
 PCOD8185923
Probable space group: F M M 2
;
_chemical_formula_sum "Si O2"
_cell_formula_units_Z 80
_cell_length_a 10.341920
_cell_length_b 18.212892
_cell_length_c 22.907405
_cell_angle_alpha 90.000000
_cell_angle_beta 90.000000
_cell_angle_gamma 90.000000
_cell_volume 4314.753408
_symmetry_space_group_name_H-M "F M M 2"
_symmetry_group_IT_number 42
_symmetry_cell_setting 'orthorhombic'
loop_
_space_group_symop_operation_xyz
x,y,z
-x,-y,z
-x,y,z
x,-y,z
x,1/2+y,1/2+z
-x,1/2-y,1/2+z
-x,1/2+y,1/2+z
x,1/2-y,1/2+z
1/2+x,y,1/2+z
1/2-x,-y,1/2+z
1/2-x,y,1/2+z
1/2+x,-y,1/2+z
1/2+x,1/2+y,z
1/2-x,1/2-y,z
1/2-x,1/2+y,z
1/2+x,1/2-y,z
loop_
_atom_site_type_symbol
_atom_site_label
_atom_site_fract_x
_atom_site_fract_y
_atom_site_fract_z
Si Si1 0.243265 0.835335 0.196090
Si Si2 0.500000 0.413268 0.885822
Si Si3 0.000000 0.340773 0.263618
Si Si4 0.260769 0.587094 0.958643
Si Si5 0.648301 0.087042 0.583667
Si Si6 0.000000 0.087380 0.397310
Si Si7 0.000000 0.669789 0.775001
O O1 0.250000 0.750000 0.180565
O O2 0.375344 0.860972 0.225741
O O3 0.228271 0.879191 0.136478
O O4 0.126029 0.854508 0.239295
O O5 0.500000 0.500000 0.892408
O O6 0.500000 0.393125 0.818721
O O7 0.627079 0.380345 0.917130
O O8 0.000000 0.256898 0.285547
O O9 0.267187 0.500000 0.958202
O O10 0.123347 0.614095 0.934387
O O11 0.283809 0.615440 0.024380
O O12 0.500000 0.114404 0.584869
O O13 0.654139 0.000000 0.588487
O O14 0.000000 0.127782 0.335748
O O15 0.000000 0.000000 0.386424
#
# Coordination Sequence:
#
# PCOD8185923 Si02
#       7
#    16   8   8  16  16   8   8
#     4  10  21  37  55  78 110 145 181 223 273 323
#     4  10  18  33  54  74 102 139 179 214 259 328
#     4  10  22  35  52  78 108 145 177 222 277 314
#     4   9  18  33  54  80 107 137 172 219 274 318
#     4  10  19  35  60  83 106 142 187 226 266 325
#     4  10  20  33  54  82 110 139 175 222 271 318
#     4  10  20  37  54  74 110 145 181 218 265 328
#
# _framework density 18.541035999999998
#
# number of rings (size 3 to 8) (size 9 to 14) (size 15 to 20)
#    0.000    2.200    2.000    1.200    0.000    2.400 
#    0.000    3.000    0.000    0.000    0.000    0.000 
#    0.000    0.000    0.000    0.000    0.000    0.000 
#
# Total GULP energy -248040.564956 kJ/mol
# GULP energy per Si atom -12402.028248 kJ/mol
# Density = 1.849884 g / cm^3
# Si number density = 18.541036 Si / 1000 Ang^3
#
#
#
# Elastic Constant Matrix: (Units=GPa)
#
#
# Indices 1 2 3 4 5 6 
#
# 1 184.8595 29.3594 96.3673 0.0000 0.0000 0.0000
# 2 29.3594 21.2532 36.0459 0.0000 0.0000 0.0000
# 3 96.3673 36.0459 170.2504 0.0000 0.0000 0.0000
# 4 0.0000 0.0000 0.0000 -12.7511 0.0000 0.0000
# 5 0.0000 0.0000 0.0000 0.0000 48.3138 0.0000
# 6 0.0000 0.0000 0.0000 0.0000 0.0000 -3.5425
#
#
#
# Elastic Compliance Matrix: (Units=1/GPa)
#
#
# Indices 1 2 3 4 5 6 
#
# 1 0.008037 -0.005284 -0.003430 0.000000 0.000000 0.000000
# 2 -0.005284 0.076888 -0.013288 0.000000 0.000000 0.000000
# 3 -0.003430 -0.013288 0.010629 0.000000 0.000000 0.000000
# 4 0.000000 0.000000 0.000000 -0.078424 0.000000 0.000000
# 5 0.000000 0.000000 0.000000 0.000000 0.020698 0.000000
# 6 0.000000 0.000000 0.000000 0.000000 0.000000 -0.282287
#
#
# Mechanical properties :
#
#
# Convention : Reuss Voigt Hill
#
# Bulk Modulus (GPa) = 19.39913 77.76759 48.58336
# Shear Modulus (GPa) = -27.28202 20.71007 -3.28598
#
# Velocity S-wave (km/s) = -3.84010 3.34576 -1.33271
# Velocity P-wave (km/s) = 3.02924 7.54719 4.88793
#
# Compressibility (1/GPa) = 0.05154871
#
# Stress axis : x y z
#
# Youngs Moduli (GPa) = 124.42348 13.00589 94.08444
#
# Poissons Ratio (x) = 0.06873 0.32275
# Poissons Ratio (y) = 0.65751 1.25017
# Poissons Ratio (z) = 0.42682 0.17282
#
# Static dielectric constant tensor:
#      x y z
#    x 3.609340 0.000000 0.000000 
#    y 0.000000 3.049290 0.000000 
#    z 0.000000 0.000000 3.444750 
# 
# 
# High freq. dielectric constant tensor:
#      x y z
#    x 1.736280 0.000000 0.000000 
#    y 0.000000 1.685060 0.000000 
#    z 0.000000 0.000000 1.731670 
# 
# From -- ./inp_files/18969.got.cif
#   From: 2010.03.12/outbox.cif.g09.slc.cpg/sg42_10_cif.got.tgz:18969.got - 2010.04.14 02:04:31.
