data_PCOD8185295
_publ_section_title
;
Structure prediction by ZEFSAII (Michael W. Deem and Ramdas Pophale) SiO2 
 PCOD8185295
Probable space group: A B A 2
;
_chemical_formula_sum "Si O2"
_cell_formula_units_Z 32
_cell_length_a 4.890352
_cell_length_b 20.373488
_cell_length_c 11.835107
_cell_angle_alpha 90.000000
_cell_angle_beta 90.000000
_cell_angle_gamma 90.000000
_cell_volume 1179.173462
_symmetry_space_group_name_H-M "A B A 2"
_symmetry_group_IT_number 41
_symmetry_cell_setting 'orthorhombic'
loop_
_space_group_symop_operation_xyz
x,y,z
-x,-y,z
1/2-x,y,1/2+z
1/2+x,-y,1/2+z
x,1/2+y,1/2+z
-x,1/2-y,1/2+z
1/2-x,1/2+y,z
1/2+x,1/2-y,z
loop_
_atom_site_type_symbol
_atom_site_label
_atom_site_fract_x
_atom_site_fract_y
_atom_site_fract_z
Si Si1 0.037887 0.796038 0.195840
Si Si2 0.895709 0.206839 0.938723
Si Si3 0.500000 0.000000 0.118128
Si Si4 0.000000 0.500000 0.474037
Si Si5 0.670875 0.898494 0.300096
O O1 0.835151 0.734500 0.222187
O O2 0.952069 0.860002 0.270113
O O3 0.031035 0.818125 0.064520
O O4 0.081408 0.272045 0.918768
O O5 0.941244 0.151266 0.845422
O O6 0.577116 0.935402 0.187923
O O7 0.760021 0.029845 0.050990
O O8 0.809387 0.451246 0.400199
#
# Coordination Sequence:
#
# PCOD8185295 Si02
#       5
#     8   8   4   4   8
#     4  10  22  39  64  99 133 166 209 263 323 391
#     4  10  22  39  64  99 133 166 209 263 323 391
#     4  11  28  47  66  96 130 173 228 281 326 382
#     4  11  28  47  66  96 130 173 228 281 326 382
#     4  11  24  44  72  94 132 179 220 270 334 397
#
# _framework density 27.137651000000002
#
# number of rings (size 3 to 8) (size 9 to 14) (size 15 to 20)
#    0.000    1.500    0.000    3.000    0.000   18.000 
#    0.000    0.000    0.000    0.000    0.000    0.000 
#    0.000    0.000    0.000    0.000    0.000    0.000 
#
# Total GULP energy -198278.581431 kJ/mol
# GULP energy per Si atom -12392.411339 kJ/mol
# Density = 2.707588 g / cm^3
# Si number density = 27.137651 Si / 1000 Ang^3
#
#
#
# Elastic Constant Matrix: (Units=GPa)
#
#
# Indices 1 2 3 4 5 6 
#
# 1 143.5428 34.3493 63.0746 0.0000 0.0000 0.0000
# 2 34.3493 122.6978 74.9705 0.0000 0.0000 0.0000
# 3 63.0746 74.9705 149.4842 0.0000 0.0000 0.0000
# 4 0.0000 0.0000 0.0000 7.5440 0.0000 0.0000
# 5 0.0000 0.0000 0.0000 0.0000 43.5495 0.0000
# 6 0.0000 0.0000 0.0000 0.0000 0.0000 33.3387
#
#
#
# Elastic Compliance Matrix: (Units=1/GPa)
#
#
# Indices 1 2 3 4 5 6 
#
# 1 0.008559 -0.000273 -0.003474 0.000000 0.000000 0.000000
# 2 -0.000273 0.011760 -0.005783 0.000000 0.000000 0.000000
# 3 -0.003474 -0.005783 0.011056 0.000000 0.000000 0.000000
# 4 0.000000 0.000000 0.000000 0.132556 0.000000 0.000000
# 5 0.000000 0.000000 0.000000 0.000000 0.022962 0.000000
# 6 0.000000 0.000000 0.000000 0.000000 0.000000 0.029995
#
#
# Mechanical properties :
#
#
# Convention : Reuss Voigt Hill
#
# Bulk Modulus (GPa) = 81.20775 84.50151 82.85463
# Shear Modulus (GPa) = 20.82873 33.10845 26.96859
#
# Velocity S-wave (km/s) = 2.77342 3.49667 3.15583
# Velocity P-wave (km/s) = 6.34391 6.89260 6.62394
#
# Compressibility (1/GPa) = 0.01231410
#
# Stress axis : x y z
#
# Youngs Moduli (GPa) = 116.84197 85.03491 90.45017
#
# Poissons Ratio (x) = 0.02322 0.31425
# Poissons Ratio (y) = 0.03191 0.52304
# Poissons Ratio (z) = 0.40594 0.49173
#
# Static dielectric constant tensor:
#      x y z
#    x 4.649110 0.000000 0.000000 
#    y 0.000000 4.797890 0.000000 
#    z 0.000000 0.000000 5.826260 
# 
# 
# High freq. dielectric constant tensor:
#      x y z
#    x 2.091070 0.000000 0.000000 
#    y 0.000000 2.082370 0.000000 
#    z 0.000000 0.000000 2.140240 
# 
# From -- ./inp_files/6754.got.cif
#   From: 2010.03.12/outbox.cif.g09.slc.cpg/sg41_4_cif.got.tgz:6754.got - 2010.04.14 01:55:53.
