data_PCOD8185996
_publ_section_title
;
Structure prediction by ZEFSAII (Michael W. Deem and Ramdas Pophale) SiO2 
 PCOD8185996
Probable space group: F M M 2
;
_chemical_formula_sum "Si O2"
_cell_formula_units_Z 128
_cell_length_a 19.185292
_cell_length_b 24.117423
_cell_length_c 16.160777
_cell_angle_alpha 90.000000
_cell_angle_beta 90.000000
_cell_angle_gamma 90.000000
_cell_volume 7477.588327
_symmetry_space_group_name_H-M "F M M 2"
_symmetry_group_IT_number 42
_symmetry_cell_setting 'orthorhombic'
loop_
_space_group_symop_operation_xyz
x,y,z
-x,-y,z
-x,y,z
x,-y,z
x,1/2+y,1/2+z
-x,1/2-y,1/2+z
-x,1/2+y,1/2+z
x,1/2-y,1/2+z
1/2+x,y,1/2+z
1/2-x,-y,1/2+z
1/2-x,y,1/2+z
1/2+x,-y,1/2+z
1/2+x,1/2+y,z
1/2-x,1/2-y,z
1/2-x,1/2+y,z
1/2+x,1/2-y,z
loop_
_atom_site_type_symbol
_atom_site_label
_atom_site_fract_x
_atom_site_fract_y
_atom_site_fract_z
Si Si1 0.581026 0.768772 0.390560
Si Si2 0.891565 0.180788 0.187123
Si Si3 0.575595 0.139948 0.519726
Si Si4 0.076179 0.351189 0.863789
Si Si5 0.297668 0.435743 0.363473
Si Si6 0.679492 0.782159 0.241001
Si Si7 0.709071 0.564279 0.024646
Si Si8 0.745760 0.388380 0.194556
O O1 0.500000 0.774835 0.364273
O O2 0.599932 0.807310 0.467435
O O3 0.597709 0.704333 0.415124
O O4 0.631517 0.791953 0.320031
O O5 0.938844 0.164337 0.110636
O O6 0.933742 0.173225 0.271424
O O7 0.862620 0.243579 0.176463
O O8 0.828540 0.138668 0.190889
O O9 0.500000 0.116069 0.489726
O O10 0.634172 0.093283 0.518849
O O11 0.132162 0.399728 0.870396
O O12 0.000000 0.373968 0.892067
O O13 0.319556 0.500000 0.366347
O O14 0.252120 0.418989 0.443080
O O15 0.253866 0.425335 0.278757
O O16 0.750000 0.750000 0.268733
O O17 0.694194 0.841726 0.199560
O O18 0.691983 0.500000 0.025440
O O19 0.753615 0.578060 0.108113
#
# Coordination Sequence:
#
# PCOD8185996 Si02
#       8
#    16  16  16  16  16  16  16  16
#     4   9  18  30  46  71 100 127 158 201 247 289
#     4   8  16  28  44  69  96 120 151 194 238 284
#     4  10  19  31  48  70  96 126 160 198 245 299
#     4   9  17  31  49  69  97 130 161 197 245 296
#     4  10  20  33  50  72  97 128 166 206 247 288
#     4   9  16  29  48  69  93 127 163 191 232 289
#     4  10  21  35  50  71  98 127 162 206 250 288
#     4   9  17  31  49  69  94 123 159 198 235 283
#
# _framework density 17.117819000000001
#
# number of rings (size 3 to 8) (size 9 to 14) (size 15 to 20)
#    0.000    2.750    0.000    2.250    0.000    2.000 
#    0.000    3.125    0.000    5.250    0.000    0.000 
#    0.000    4.000    0.000    0.000    0.000    0.000 
#
# Total GULP energy -396467.953841 kJ/mol
# GULP energy per Si atom -12389.623558 kJ/mol
# Density = 1.707886 g / cm^3
# Si number density = 17.117819 Si / 1000 Ang^3
#
#
#
# Elastic Constant Matrix: (Units=GPa)
#
#
# Indices 1 2 3 4 5 6 
#
# 1 77.0917 49.9269 32.7061 0.0000 0.0000 0.0000
# 2 49.9269 101.7578 44.8309 0.0000 0.0000 0.0000
# 3 32.7061 44.8309 100.2644 0.0000 0.0000 0.0000
# 4 0.0000 0.0000 0.0000 25.7355 0.0000 0.0000
# 5 0.0000 0.0000 0.0000 0.0000 16.6682 0.0000
# 6 0.0000 0.0000 0.0000 0.0000 0.0000 25.4468
#
#
#
# Elastic Compliance Matrix: (Units=1/GPa)
#
#
# Indices 1 2 3 4 5 6 
#
# 1 0.019542 -0.008443 -0.002600 0.000000 0.000000 0.000000
# 2 -0.008443 0.015886 -0.004349 0.000000 0.000000 0.000000
# 3 -0.002600 -0.004349 0.012766 0.000000 0.000000 0.000000
# 4 0.000000 0.000000 0.000000 0.038857 0.000000 0.000000
# 5 0.000000 0.000000 0.000000 0.000000 0.059994 0.000000
# 6 0.000000 0.000000 0.000000 0.000000 0.000000 0.039298
#
#
# Mechanical properties :
#
#
# Convention : Reuss Voigt Hill
#
# Bulk Modulus (GPa) = 57.43406 59.33798 58.38602
# Shear Modulus (GPa) = 22.42856 23.68010 23.05433
#
# Velocity S-wave (km/s) = 3.62366 3.72339 3.67386
# Velocity P-wave (km/s) = 7.15073 7.29552 7.22348
#
# Compressibility (1/GPa) = 0.01741127
#
# Stress axis : x y z
#
# Youngs Moduli (GPa) = 51.17063 62.94942 78.33259
#
# Poissons Ratio (x) = 0.53149 0.20363
# Poissons Ratio (y) = 0.43204 0.34065
# Poissons Ratio (z) = 0.13302 0.27376
#
# Static dielectric constant tensor:
#      x y z
#    x 3.067870 0.000000 0.000000 
#    y 0.000000 3.176160 0.000000 
#    z 0.000000 0.000000 3.476750 
# 
# 
# High freq. dielectric constant tensor:
#      x y z
#    x 1.656120 0.000000 0.000000 
#    y 0.000000 1.655600 0.000000 
#    z 0.000000 0.000000 1.653480 
# 
# From -- ./inp_files/21239.got.cif
#   From: 2010.03.12/outbox.cif.g09.slc.cpg/sg42_11_cif.got.tgz:21239.got - 2010.04.14 02:04:31.
