data_PCOD8185667
_publ_section_title
;
Structure prediction by ZEFSAII (Michael W. Deem and Ramdas Pophale) SiO2 
 PCOD8185667
Probable space group: A B A 2
;
_chemical_formula_sum "Si O2"
_cell_formula_units_Z 60
_cell_length_a 10.785120
_cell_length_b 9.495532
_cell_length_c 24.811008
_cell_angle_alpha 90.000000
_cell_angle_beta 90.000000
_cell_angle_gamma 90.000000
_cell_volume 2540.906546
_symmetry_space_group_name_H-M "A B A 2"
_symmetry_group_IT_number 41
_symmetry_cell_setting 'orthorhombic'
loop_
_space_group_symop_operation_xyz
x,y,z
-x,-y,z
1/2-x,y,1/2+z
1/2+x,-y,1/2+z
x,1/2+y,1/2+z
-x,1/2-y,1/2+z
1/2-x,1/2+y,z
1/2+x,1/2-y,z
loop_
_atom_site_type_symbol
_atom_site_label
_atom_site_fract_x
_atom_site_fract_y
_atom_site_fract_z
Si Si1 0.500000 0.500000 0.375000
Si Si2 0.136872 0.993012 0.804165
Si Si3 0.272723 0.755498 0.625290
Si Si4 0.636988 0.003605 0.071281
Si Si5 0.480528 0.658721 0.180856
Si Si6 0.645199 0.828059 0.789435
Si Si7 0.131143 0.545698 0.427106
Si Si8 0.158054 0.851186 0.458645
O O1 0.602362 0.417116 0.341093
O O2 0.440796 0.380348 0.411988
O O3 0.231919 0.087710 0.768686
O O4 0.130443 0.067348 0.862720
O O5 0.181542 0.830761 0.806106
O O6 0.000000 0.000000 0.777410
O O7 0.305065 0.653666 0.574365
O O8 0.148871 0.711427 0.656631
O O9 0.395065 0.757252 0.663478
O O10 0.240563 0.908760 0.603297
O O11 0.500000 0.000000 0.098712
O O12 0.614285 0.075262 0.013565
O O13 0.500000 0.500000 0.162130
O O14 0.464444 0.671011 0.245438
O O15 0.174316 0.682821 0.460567
O O16 0.211834 0.412949 0.442287
O O17 0.000000 0.500000 0.449916
#
# Coordination Sequence:
#
# PCOD8185667 Si02
#       8
#     4   8   8   8   8   8   8   8
#     4  12  24  42  76 100 160 198 250 304 372 454
#     4  11  26  45  71 105 155 200 250 305 374 442
#     4  12  27  52  80 108 154 190 260 332 384 456
#     4  12  26  49  77 113 145 198 251 320 395 456
#     4  12  28  49  80 114 150 204 259 319 396 454
#     4  12  28  46  73 111 152 204 257 313 375 463
#     4  11  25  45  71 107 154 198 253 304 365 446
#     4  12  26  45  74 108 151 204 247 307 382 461
#
# _framework density 23.613620000000001
#
# number of rings (size 3 to 8) (size 9 to 14) (size 15 to 20)
#    0.000    0.267    5.333    3.200    7.467    1.067 
#    2.400    0.000    0.000    0.000    0.000    0.000 
#    0.000    0.000    0.000    0.000    0.000    0.000 
#
# Total GULP energy -371937.485724 kJ/mol
# GULP energy per Si atom -12397.916191 kJ/mol
# Density = 2.355987 g / cm^3
# Si number density = 23.613620 Si / 1000 Ang^3
#
#
#
# Elastic Constant Matrix: (Units=GPa)
#
#
# Indices 1 2 3 4 5 6 
#
# 1 175.7368 54.6523 36.8392 0.0000 0.0000 0.0000
# 2 54.6523 134.9518 22.2482 0.0000 0.0000 0.0000
# 3 36.8392 22.2482 85.1436 0.0000 0.0000 0.0000
# 4 0.0000 0.0000 0.0000 25.9319 0.0000 0.0000
# 5 0.0000 0.0000 0.0000 0.0000 20.9687 0.0000
# 6 0.0000 0.0000 0.0000 0.0000 0.0000 41.6081
#
#
#
# Elastic Compliance Matrix: (Units=1/GPa)
#
#
# Indices 1 2 3 4 5 6 
#
# 1 0.006940 -0.002420 -0.002370 0.000000 0.000000 0.000000
# 2 -0.002420 0.008587 -0.001197 0.000000 0.000000 0.000000
# 3 -0.002370 -0.001197 0.013083 0.000000 0.000000 0.000000
# 4 0.000000 0.000000 0.000000 0.038563 0.000000 0.000000
# 5 0.000000 0.000000 0.000000 0.000000 0.047690 0.000000
# 6 0.000000 0.000000 0.000000 0.000000 0.000000 0.024034
#
#
# Mechanical properties :
#
#
# Convention : Reuss Voigt Hill
#
# Bulk Modulus (GPa) = 60.10957 69.25683 64.68320
# Shear Modulus (GPa) = 31.96603 36.50791 34.23697
#
# Velocity S-wave (km/s) = 3.68327 3.93625 3.81186
# Velocity P-wave (km/s) = 6.60298 7.07472 6.84292
#
# Compressibility (1/GPa) = 0.01663629
#
# Stress axis : x y z
#
# Youngs Moduli (GPa) = 144.09848 116.45128 76.43385
#
# Poissons Ratio (x) = 0.28177 0.18118
# Poissons Ratio (y) = 0.34867 0.09149
# Poissons Ratio (z) = 0.34156 0.13939
#
# Static dielectric constant tensor:
#      x y z
#    x 4.563310 0.000000 0.000000 
#    y 0.000000 4.311180 0.000000 
#    z 0.000000 0.000000 4.065810 
# 
# 
# High freq. dielectric constant tensor:
#      x y z
#    x 1.956760 0.000000 0.000000 
#    y 0.000000 1.946810 0.000000 
#    z 0.000000 0.000000 1.910700 
# 
# From -- ./inp_files/12531.got.cif
#   From: 2010.03.12/outbox.cif.g09.slc.cpg/sg41_7_cif.got.tgz:12531.got - 2010.04.14 01:55:53.
