data_PCOD8185210
_publ_section_title
;
Structure prediction by ZEFSAII (Michael W. Deem and Ramdas Pophale) SiO2 
 PCOD8185210
Probable space group: A B A 2
;
_chemical_formula_sum "Si O2"
_cell_formula_units_Z 52
_cell_length_a 13.049276
_cell_length_b 8.227177
_cell_length_c 23.529233
_cell_angle_alpha 90.000000
_cell_angle_beta 90.000000
_cell_angle_gamma 90.000000
_cell_volume 2526.067946
_symmetry_space_group_name_H-M "A B A 2"
_symmetry_group_IT_number 41
_symmetry_cell_setting 'orthorhombic'
loop_
_space_group_symop_operation_xyz
x,y,z
-x,-y,z
1/2-x,y,1/2+z
1/2+x,-y,1/2+z
x,1/2+y,1/2+z
-x,1/2-y,1/2+z
1/2-x,1/2+y,z
1/2+x,1/2-y,z
loop_
_atom_site_type_symbol
_atom_site_label
_atom_site_fract_x
_atom_site_fract_y
_atom_site_fract_z
Si Si1 0.730502 0.526048 0.772150
Si Si2 0.608027 0.564817 0.519982
Si Si3 0.551904 0.330851 0.731619
Si Si4 0.897786 0.812189 0.316145
Si Si5 0.676980 0.139161 0.654633
Si Si6 0.500000 0.500000 0.411645
Si Si7 0.292420 0.132689 0.573750
O O1 0.656140 0.368840 0.766471
O O2 0.676476 0.655800 0.814337
O O3 0.835248 0.475200 0.802300
O O4 0.754720 0.581014 0.708088
O O5 0.500000 0.500000 0.547961
O O6 0.592657 0.565985 0.451595
O O7 0.632596 0.751258 0.537489
O O8 0.701889 0.444924 0.535384
O O9 0.500000 0.500000 0.714043
O O10 0.482429 0.213747 0.768516
O O11 0.573491 0.227542 0.674988
O O12 0.955585 0.847721 0.375368
O O13 0.748491 0.269924 0.626033
O O14 0.644863 0.008006 0.606708
#
# Coordination Sequence:
#
# PCOD8185210 Si02
#       7
#     8   8   8   8   8   4   8
#     4  11  21  40  61  98 140 165 213 264 319 429
#     4   9  23  47  65  92 132 163 242 296 324 397
#     4  10  22  38  60 100 140 171 214 269 316 418
#     4  11  23  40  65  92 130 175 214 268 333 393
#     4  11  19  38  63  99 132 171 216 248 342 415
#     4  10  24  44  68  92 124 176 232 284 348 372
#     4  10  21  41  70  93 131 179 216 282 341 392
#
# _framework density 20.585353000000001
#
# number of rings (size 3 to 8) (size 9 to 14) (size 15 to 20)
#    0.462    1.231    3.077    0.923    0.000    1.846 
#    8.308    2.308   10.154    0.000    0.000    0.000 
#    0.000    0.000    0.000    0.000    0.000    0.000 
#
# Total GULP energy -322175.118817 kJ/mol
# GULP energy per Si atom -12391.350724 kJ/mol
# Density = 2.053850 g / cm^3
# Si number density = 20.585353 Si / 1000 Ang^3
#
#
#
# Elastic Constant Matrix: (Units=GPa)
#
#
# Indices 1 2 3 4 5 6 
#
# 1 102.8288 67.7070 58.8357 0.0000 0.0000 0.0000
# 2 67.7070 116.0842 74.3063 0.0000 0.0000 0.0000
# 3 58.8357 74.3063 116.2076 0.0000 0.0000 0.0000
# 4 0.0000 0.0000 0.0000 14.8891 0.0000 0.0000
# 5 0.0000 0.0000 0.0000 0.0000 100.5272 0.0000
# 6 0.0000 0.0000 0.0000 0.0000 0.0000 43.7543
#
#
#
# Elastic Compliance Matrix: (Units=1/GPa)
#
#
# Indices 1 2 3 4 5 6 
#
# 1 0.016711 -0.007332 -0.003772 0.000000 0.000000 0.000000
# 2 -0.007332 0.017801 -0.007670 0.000000 0.000000 0.000000
# 3 -0.003772 -0.007670 0.015420 0.000000 0.000000 0.000000
# 4 0.000000 0.000000 0.000000 0.067163 0.000000 0.000000
# 5 0.000000 0.000000 0.000000 0.000000 0.009948 0.000000
# 6 0.000000 0.000000 0.000000 0.000000 0.000000 0.022855
#
#
# Mechanical properties :
#
#
# Convention : Reuss Voigt Hill
#
# Bulk Modulus (GPa) = 80.76026 81.86873 81.31450
# Shear Modulus (GPa) = 26.09962 40.78555 33.44259
#
# Velocity S-wave (km/s) = 3.56458 4.45600 4.03498
# Velocity P-wave (km/s) = 7.50058 8.14440 7.82911
#
# Compressibility (1/GPa) = 0.01238233
#
# Stress axis : x y z
#
# Youngs Moduli (GPa) = 59.84005 56.17819 64.85242
#
# Poissons Ratio (x) = 0.41191 0.24466
# Poissons Ratio (y) = 0.43876 0.49741
# Poissons Ratio (z) = 0.22575 0.43088
#
# Static dielectric constant tensor:
#      x y z
#    x 3.486470 0.000000 0.000000 
#    y 0.000000 4.012720 0.000000 
#    z 0.000000 0.000000 3.525100 
# 
# 
# High freq. dielectric constant tensor:
#      x y z
#    x 1.808840 0.000000 0.000000 
#    y 0.000000 1.818400 0.000000 
#    z 0.000000 0.000000 1.779840 
# 
# From -- ./inp_files/12193.got.cif
#   From: 2010.03.12/outbox.cif.g09.slc.cpg/sg41_7_cif.got.tgz:12193.got - 2010.04.14 01:55:53.
