data_PCOD8185160
_publ_section_title
;
Structure prediction by ZEFSAII (Michael W. Deem and Ramdas Pophale) SiO2 
 PCOD8185160
Probable space group: A B A 2
;
_chemical_formula_sum "Si O2"
_cell_formula_units_Z 64
_cell_length_a 8.720863
_cell_length_b 14.881770
_cell_length_c 22.515490
_cell_angle_alpha 90.000000
_cell_angle_beta 90.000000
_cell_angle_gamma 90.000000
_cell_volume 2922.102562
_symmetry_space_group_name_H-M "A B A 2"
_symmetry_group_IT_number 41
_symmetry_cell_setting 'orthorhombic'
loop_
_space_group_symop_operation_xyz
x,y,z
-x,-y,z
1/2-x,y,1/2+z
1/2+x,-y,1/2+z
x,1/2+y,1/2+z
-x,1/2-y,1/2+z
1/2-x,1/2+y,z
1/2+x,1/2-y,z
loop_
_atom_site_type_symbol
_atom_site_label
_atom_site_fract_x
_atom_site_fract_y
_atom_site_fract_z
Si Si1 0.202870 0.629534 0.633290
Si Si2 0.164097 0.542427 0.244951
Si Si3 0.539920 0.788121 0.309020
Si Si4 0.150766 0.314977 0.632537
Si Si5 0.741592 0.145054 0.002519
Si Si6 0.731910 0.640595 0.259630
Si Si7 0.833190 0.958419 0.012103
Si Si8 0.549659 0.291903 0.948084
O O1 0.232623 0.564237 0.688126
O O2 0.327412 0.708384 0.637187
O O3 0.237171 0.575432 0.573543
O O4 0.029877 0.666049 0.633516
O O5 0.145562 0.629880 0.285977
O O6 0.256662 0.463620 0.280398
O O7 0.000000 0.500000 0.226312
O O8 0.578926 0.691681 0.279839
O O9 0.366180 0.802803 0.290344
O O10 0.563980 0.777864 0.378590
O O11 0.226954 0.351406 0.572659
O O12 0.239360 0.360143 0.687848
O O13 0.726421 0.038932 0.986062
O O14 0.591809 0.201037 0.984200
O O15 0.875581 0.189690 0.964312
O O16 0.842008 0.875697 0.966297
O O17 0.000000 0.000000 0.024842
#
# Coordination Sequence:
#
# PCOD8185160 Si02
#       8
#     8   8   8   8   8   8   8   8
#     4  12  23  42  67 103 138 173 220 279 340 416
#     4  10  25  42  64  97 134 172 221 272 339 398
#     4  11  24  44  62  94 129 174 225 272 327 404
#     4  12  22  40  72  94 136 169 218 274 347 399
#     4  11  22  42  66  94 126 168 218 277 336 394
#     4  11  24  42  66  93 131 172 214 277 337 395
#     4  10  21  40  63  97 125 170 220 267 333 402
#     4  11  23  41  68  90 127 172 226 270 323 401
#
# _framework density 21.902035999999999
#
# number of rings (size 3 to 8) (size 9 to 14) (size 15 to 20)
#    0.000    1.000    5.000    2.250    1.750    5.500 
#    2.250    0.625    0.000    3.000    0.000    0.000 
#    0.000    0.000    0.000    0.000    0.000    0.000 
#
# Total GULP energy -396807.723178 kJ/mol
# GULP energy per Si atom -12400.241349 kJ/mol
# Density = 2.185219 g / cm^3
# Si number density = 21.902036 Si / 1000 Ang^3
#
#
#
# Elastic Constant Matrix: (Units=GPa)
#
#
# Indices 1 2 3 4 5 6 
#
# 1 44.9893 20.7974 14.8951 0.0000 0.0000 0.0000
# 2 20.7974 97.1818 3.6526 0.0000 0.0000 0.0000
# 3 14.8951 3.6526 119.9371 0.0000 0.0000 0.0000
# 4 0.0000 0.0000 0.0000 17.7890 0.0000 0.0000
# 5 0.0000 0.0000 0.0000 0.0000 29.6005 0.0000
# 6 0.0000 0.0000 0.0000 0.0000 0.0000 25.0782
#
#
#
# Elastic Compliance Matrix: (Units=1/GPa)
#
#
# Indices 1 2 3 4 5 6 
#
# 1 0.025723 -0.005391 -0.003030 0.000000 0.000000 0.000000
# 2 -0.005391 0.011432 0.000321 0.000000 0.000000 0.000000
# 3 -0.003030 0.000321 0.008704 0.000000 0.000000 0.000000
# 4 0.000000 0.000000 0.000000 0.056215 0.000000 0.000000
# 5 0.000000 0.000000 0.000000 0.000000 0.033783 0.000000
# 6 0.000000 0.000000 0.000000 0.000000 0.000000 0.039875
#
#
# Mechanical properties :
#
#
# Convention : Reuss Voigt Hill
#
# Bulk Modulus (GPa) = 33.71673 37.86650 35.79162
# Shear Modulus (GPa) = 24.77479 29.34440 27.05960
#
# Velocity S-wave (km/s) = 3.36693 3.66430 3.51876
# Velocity P-wave (km/s) = 5.52654 5.93543 5.73463
#
# Compressibility (1/GPa) = 0.02965887
#
# Stress axis : x y z
#
# Youngs Moduli (GPa) = 38.87582 87.47674 114.88625
#
# Poissons Ratio (x) = 0.47158 0.34815
# Poissons Ratio (y) = 0.20958 -0.03692
# Poissons Ratio (z) = 0.11781 -0.02811
#
# Static dielectric constant tensor:
#      x y z
#    x 3.791460 0.000000 0.000000 
#    y 0.000000 4.414600 0.000000 
#    z 0.000000 0.000000 3.876520 
# 
# 
# High freq. dielectric constant tensor:
#      x y z
#    x 1.841860 0.000000 0.000000 
#    y 0.000000 1.882040 0.000000 
#    z 0.000000 0.000000 1.854720 
# 
# From -- ./inp_files/12060.got.cif
#   From: 2010.03.12/outbox.cif.g09.slc.cpg/sg41_7_cif.got.tgz:12060.got - 2010.04.14 01:55:53.
