data_PCOD8185412
_publ_section_title
;
Structure prediction by ZEFSAII (Michael W. Deem and Ramdas Pophale) SiO2 
 PCOD8185412
Probable space group: A B A 2
;
_chemical_formula_sum "Si O2"
_cell_formula_units_Z 64
_cell_length_a 22.412388
_cell_length_b 8.563839
_cell_length_c 15.181685
_cell_angle_alpha 90.000000
_cell_angle_beta 90.000000
_cell_angle_gamma 90.000000
_cell_volume 2913.913144
_symmetry_space_group_name_H-M "A B A 2"
_symmetry_group_IT_number 41
_symmetry_cell_setting 'orthorhombic'
loop_
_space_group_symop_operation_xyz
x,y,z
-x,-y,z
1/2-x,y,1/2+z
1/2+x,-y,1/2+z
x,1/2+y,1/2+z
-x,1/2-y,1/2+z
1/2-x,1/2+y,z
1/2+x,1/2-y,z
loop_
_atom_site_type_symbol
_atom_site_label
_atom_site_fract_x
_atom_site_fract_y
_atom_site_fract_z
Si Si1 0.669235 0.028326 0.436650
Si Si2 0.364170 0.256025 0.325599
Si Si3 0.639706 0.700071 0.759732
Si Si4 0.564796 0.929010 0.195243
Si Si5 0.394152 0.192450 0.018875
Si Si6 0.242998 0.292267 0.683718
Si Si7 0.722685 0.455675 0.556724
Si Si8 0.064785 0.056294 0.349652
O O1 0.669564 0.127673 0.347531
O O2 0.627643 0.126566 0.505029
O O3 0.734879 0.009756 0.477688
O O4 0.649740 0.851527 0.411321
O O5 0.309447 0.278908 0.256154
O O6 0.386060 0.421490 0.360319
O O7 0.421360 0.179510 0.278402
O O8 0.613603 0.567933 0.694831
O O9 0.696019 0.788782 0.717657
O O10 0.587423 0.823222 0.775947
O O11 0.500000 0.000000 0.206052
O O12 0.569785 0.819321 0.109693
O O13 0.440263 0.148511 0.941689
O O14 0.344084 0.053434 0.017663
O O15 0.263593 0.465934 0.652782
O O16 0.227858 0.224688 0.587342
O O17 0.000000 0.000000 0.319686
#
# Coordination Sequence:
#
# PCOD8185412 Si02
#       8
#     8   8   8   8   8   8   8   8
#     4  10  24  39  61  92 130 165 205 259 327 385
#     4  11  24  41  65  97 125 167 214 267 324 383
#     4  10  23  41  63  93 127 162 216 265 320 381
#     4  11  21  42  67  88 126 172 215 263 320 377
#     4  11  23  41  59  92 127 170 213 260 316 388
#     4  12  23  39  63  94 127 159 209 259 326 386
#     4  12  22  39  59  91 129 164 199 259 323 387
#     4  11  25  42  64  93 127 171 221 267 316 382
#
# _framework density 21.963591000000001
#
# number of rings (size 3 to 8) (size 9 to 14) (size 15 to 20)
#    0.000    1.000    3.750    2.625    7.000    0.000 
#    0.000    0.000    0.000    1.500    0.000    0.000 
#    0.000    0.000    0.000    0.000    0.000    0.000 
#
# Total GULP energy -396433.663381 kJ/mol
# GULP energy per Si atom -12388.551981 kJ/mol
# Density = 2.191360 g / cm^3
# Si number density = 21.963591 Si / 1000 Ang^3
#
#
#
# Elastic Constant Matrix: (Units=GPa)
#
#
# Indices 1 2 3 4 5 6 
#
# 1 86.7670 3.7383 21.2433 0.0000 0.0000 0.0000
# 2 3.7383 72.3508 14.8887 0.0000 0.0000 0.0000
# 3 21.2433 14.8887 66.3119 0.0000 0.0000 0.0000
# 4 0.0000 0.0000 0.0000 23.8123 0.0000 0.0000
# 5 0.0000 0.0000 0.0000 0.0000 26.9745 0.0000
# 6 0.0000 0.0000 0.0000 0.0000 0.0000 24.0152
#
#
#
# Elastic Compliance Matrix: (Units=1/GPa)
#
#
# Indices 1 2 3 4 5 6 
#
# 1 0.012508 0.000187 -0.004049 0.000000 0.000000 0.000000
# 2 0.000187 0.014494 -0.003314 0.000000 0.000000 0.000000
# 3 -0.004049 -0.003314 0.017122 0.000000 0.000000 0.000000
# 4 0.000000 0.000000 0.000000 0.041995 0.000000 0.000000
# 5 0.000000 0.000000 0.000000 0.000000 0.037072 0.000000
# 6 0.000000 0.000000 0.000000 0.000000 0.000000 0.041640
#
#
# Mechanical properties :
#
#
# Convention : Reuss Voigt Hill
#
# Bulk Modulus (GPa) = 33.58949 33.90782 33.74865
# Shear Modulus (GPa) = 26.43996 27.33101 26.88549
#
# Velocity S-wave (km/s) = 3.47336 3.53140 3.50250
# Velocity P-wave (km/s) = 5.60465 5.66564 5.63522
#
# Compressibility (1/GPa) = 0.02977122
#
# Stress axis : x y z
#
# Youngs Moduli (GPa) = 79.94615 68.99461 58.40602
#
# Poissons Ratio (x) = -0.01290 0.23649
# Poissons Ratio (y) = -0.01495 0.19357
# Poissons Ratio (z) = 0.32371 0.22866
#
# Static dielectric constant tensor:
#      x y z
#    x 3.741380 0.000000 0.000000 
#    y 0.000000 4.084580 0.000000 
#    z 0.000000 0.000000 3.849970 
# 
# 
# High freq. dielectric constant tensor:
#      x y z
#    x 1.854320 0.000000 0.000000 
#    y 0.000000 1.867820 0.000000 
#    z 0.000000 0.000000 1.862900 
# 
# From -- ./inp_files/9173.got.cif
#   From: 2010.03.12/outbox.cif.g09.slc.cpg/sg41_5_cif.got.tgz:9173.got - 2010.04.14 01:55:53.
