data_PCOD8185760
_publ_section_title
;
Structure prediction by ZEFSAII (Michael W. Deem and Ramdas Pophale) SiO2 
 PCOD8185760
Probable space group: F M M 2
;
_chemical_formula_sum "Si O2"
_cell_formula_units_Z 96
_cell_length_a 19.484758
_cell_length_b 8.760864
_cell_length_c 31.390592
_cell_angle_alpha 90.000000
_cell_angle_beta 90.000000
_cell_angle_gamma 90.000000
_cell_volume 5358.478111
_symmetry_space_group_name_H-M "F M M 2"
_symmetry_group_IT_number 42
_symmetry_cell_setting 'orthorhombic'
loop_
_space_group_symop_operation_xyz
x,y,z
-x,-y,z
-x,y,z
x,-y,z
x,1/2+y,1/2+z
-x,1/2-y,1/2+z
-x,1/2+y,1/2+z
x,1/2-y,1/2+z
1/2+x,y,1/2+z
1/2-x,-y,1/2+z
1/2-x,y,1/2+z
1/2+x,-y,1/2+z
1/2+x,1/2+y,z
1/2-x,1/2-y,z
1/2-x,1/2+y,z
1/2+x,1/2-y,z
loop_
_atom_site_type_symbol
_atom_site_label
_atom_site_fract_x
_atom_site_fract_y
_atom_site_fract_z
Si Si1 0.326059 0.181204 0.243030
Si Si2 0.674953 0.318751 0.157128
Si Si3 0.675542 0.678172 0.325819
Si Si4 0.922750 0.180990 0.492477
Si Si5 0.078237 0.820896 0.080198
Si Si6 0.824240 0.178186 0.419357
O O1 0.250000 0.250000 0.245113
O O2 0.359632 0.249877 0.200165
O O3 0.364540 0.238641 0.286465
O O4 0.325510 0.000000 0.240796
O O5 0.680604 0.500000 0.161390
O O6 0.750000 0.250000 0.148866
O O7 0.625829 0.266780 0.118916
O O8 0.680717 0.500000 0.315173
O O9 0.750000 0.750000 0.329453
O O10 0.642037 0.707822 0.372368
O O11 0.894147 0.240195 0.537552
O O12 0.875810 0.247304 0.454469
O O13 0.000000 0.242449 0.485371
O O14 0.921368 0.000000 0.492574
O O15 0.000000 0.771426 0.090168
O O16 0.083927 0.000000 0.073134
O O17 0.750000 0.250000 0.425194
O O18 0.814139 0.000000 0.426581
#
# Coordination Sequence:
#
# PCOD8185760 Si02
#       6
#    16  16  16  16  16  16
#     4  10  17  26  42  65  93 122 153 187 225 271
#     4  10  19  31  48  70  96 122 151 190 231 272
#     4   9  15  25  41  62  90 121 152 186 225 269
#     4   9  18  33  51  69  91 121 156 191 228 273
#     4   9  19  35  52  69  90 120 157 192 228 273
#     4   9  18  30  46  70  96 122 153 190 230 270
#
# _framework density 17.915534000000001
#
# number of rings (size 3 to 8) (size 9 to 14) (size 15 to 20)
#    0.000    2.667    0.000    4.500    0.000    3.333 
#    0.000    3.333    0.000    1.000    0.000    4.667 
#    0.000    0.000    0.000    0.000    0.000    0.000 
#
# Total GULP energy -297417.308129 kJ/mol
# GULP energy per Si atom -12392.387839 kJ/mol
# Density = 1.787476 g / cm^3
# Si number density = 17.915534 Si / 1000 Ang^3
#
#
#
# Elastic Constant Matrix: (Units=GPa)
#
#
# Indices 1 2 3 4 5 6 
#
# 1 54.5902 23.5078 68.8099 0.0000 0.0000 0.0000
# 2 23.5078 75.9234 57.7006 0.0000 0.0000 0.0000
# 3 68.8099 57.7006 202.1252 0.0000 0.0000 0.0000
# 4 0.0000 0.0000 0.0000 31.8621 0.0000 0.0000
# 5 0.0000 0.0000 0.0000 0.0000 7.4797 0.0000
# 6 0.0000 0.0000 0.0000 0.0000 0.0000 16.4791
#
#
#
# Elastic Compliance Matrix: (Units=1/GPa)
#
#
# Indices 1 2 3 4 5 6 
#
# 1 0.032348 -0.002103 -0.010412 0.000000 0.000000 0.000000
# 2 -0.002103 0.016957 -0.004125 0.000000 0.000000 0.000000
# 3 -0.010412 -0.004125 0.009670 0.000000 0.000000 0.000000
# 4 0.000000 0.000000 0.000000 0.031385 0.000000 0.000000
# 5 0.000000 0.000000 0.000000 0.000000 0.133696 0.000000
# 6 0.000000 0.000000 0.000000 0.000000 0.000000 0.060683
#
#
# Mechanical properties :
#
#
# Convention : Reuss Voigt Hill
#
# Bulk Modulus (GPa) = 38.91772 70.29727 54.60750
# Shear Modulus (GPa) = 15.31003 23.33886 19.32445
#
# Velocity S-wave (km/s) = 2.92647 3.61323 3.28783
# Velocity P-wave (km/s) = 5.76099 7.53197 6.70521
#
# Compressibility (1/GPa) = 0.02569523
#
# Stress axis : x y z
#
# Youngs Moduli (GPa) = 30.91391 58.97238 103.41761
#
# Poissons Ratio (x) = 0.12401 1.07678
# Poissons Ratio (y) = 0.06501 0.42659
# Poissons Ratio (z) = 0.32188 0.24325
#
# Static dielectric constant tensor:
#      x y z
#    x 3.024280 0.000000 0.000000 
#    y 0.000000 3.327660 0.000000 
#    z 0.000000 0.000000 4.376460 
# 
# 
# High freq. dielectric constant tensor:
#      x y z
#    x 1.637230 0.000000 0.000000 
#    y 0.000000 1.697130 0.000000 
#    z 0.000000 0.000000 1.722100 
# 
# From -- ./inp_files/30431.got.cif
#   From: 2010.03.12/outbox.cif.g09.slc.cpg/sg42_16_cif.got.tgz:30431.got - 2010.04.14 02:04:31.
