data_PCOD8185290
_publ_section_title
;
Structure prediction by ZEFSAII (Michael W. Deem and Ramdas Pophale) SiO2 
 PCOD8185290
Probable space group: A B A 2
;
_chemical_formula_sum "Si O2"
_cell_formula_units_Z 64
_cell_length_a 9.455316
_cell_length_b 13.881622
_cell_length_c 24.770538
_cell_angle_alpha 90.000000
_cell_angle_beta 90.000000
_cell_angle_gamma 90.000000
_cell_volume 3251.260002
_symmetry_space_group_name_H-M "A B A 2"
_symmetry_group_IT_number 41
_symmetry_cell_setting 'orthorhombic'
loop_
_space_group_symop_operation_xyz
x,y,z
-x,-y,z
1/2-x,y,1/2+z
1/2+x,-y,1/2+z
x,1/2+y,1/2+z
-x,1/2-y,1/2+z
1/2-x,1/2+y,z
1/2+x,1/2-y,z
loop_
_atom_site_type_symbol
_atom_site_label
_atom_site_fract_x
_atom_site_fract_y
_atom_site_fract_z
Si Si1 0.668995 0.601180 0.451190
Si Si2 0.722525 0.232743 0.361547
Si Si3 0.722525 0.232743 0.540833
Si Si4 0.917519 0.400305 0.707723
Si Si5 0.417519 0.599695 0.694657
Si Si6 0.838225 0.378250 0.951190
Si Si7 0.477195 0.744740 0.787235
Si Si8 0.522805 0.255260 0.115145
O O1 0.739975 0.640786 0.397241
O O2 0.739974 0.640786 0.505139
O O3 0.701776 0.488981 0.451190
O O4 0.506572 0.632763 0.451190
O O5 0.727876 0.329202 0.397895
O O6 0.565154 0.215056 0.339933
O O7 0.819114 0.237645 0.308203
O O8 0.727876 0.329202 0.504485
O O9 0.819114 0.237646 0.594177
O O10 0.565154 0.215056 0.562447
O O11 0.750000 0.417640 0.701190
O O12 0.954264 0.341240 0.761911
O O13 0.979036 0.341919 0.657337
O O14 0.000000 0.500000 0.710984
O O15 0.500000 0.500000 0.691396
O O16 0.479035 0.658081 0.745043
O O17 0.454265 0.658760 0.640469
#
# Coordination Sequence:
#
# PCOD8185290 Si02
#       8
#     8   8   8   8   8   8   8   8
#     4  10  22  39  64  91 124 163 207 260 306 368
#     4  11  22  41  64  91 124 168 204 257 312 368
#     4  11  22  41  64  91 124 168 204 257 312 368
#     4  11  26  42  64  96 127 162 211 262 311 372
#     4  11  26  42  64  96 127 162 211 262 311 372
#     4  10  22  39  62  95 124 157 212 257 308 372
#     4  11  24  43  64  88 130 167 209 253 313 377
#     4  11  24  43  64  88 130 167 209 253 313 377
#
# _framework density 19.684676
#
# number of rings (size 3 to 8) (size 9 to 14) (size 15 to 20)
#    0.000    1.250    5.000    0.000    3.500    4.000 
#    0.000    1.250    0.000    0.000    0.000    0.000 
#    0.000    0.000    0.000    0.000    0.000    0.000 
#
# Total GULP energy -396916.633361 kJ/mol
# GULP energy per Si atom -12403.644793 kJ/mol
# Density = 1.963987 g / cm^3
# Si number density = 19.684676 Si / 1000 Ang^3
#
#
#
# Elastic Constant Matrix: (Units=GPa)
#
#
# Indices 1 2 3 4 5 6 
#
# 1 83.9598 61.1927 28.4743 0.0000 0.0000 0.0000
# 2 61.1927 146.8070 53.7839 0.0000 0.0000 0.0000
# 3 28.4743 53.7839 100.5003 0.0000 0.0000 0.0000
# 4 0.0000 0.0000 0.0000 1.6598 0.0000 0.0000
# 5 0.0000 0.0000 0.0000 0.0000 47.5099 0.0000
# 6 0.0000 0.0000 0.0000 0.0000 0.0000 32.4126
#
#
#
# Elastic Compliance Matrix: (Units=1/GPa)
#
#
# Indices 1 2 3 4 5 6 
#
# 1 0.017242 -0.006713 -0.001292 0.000000 0.000000 0.000000
# 2 -0.006713 0.011087 -0.004031 0.000000 0.000000 0.000000
# 3 -0.001292 -0.004031 0.012474 0.000000 0.000000 0.000000
# 4 0.000000 0.000000 0.000000 0.602474 0.000000 0.000000
# 5 0.000000 0.000000 0.000000 0.000000 0.021048 0.000000
# 6 0.000000 0.000000 0.000000 0.000000 0.000000 0.030852
#
#
# Mechanical properties :
#
#
# Convention : Reuss Voigt Hill
#
# Bulk Modulus (GPa) = 59.77801 68.68545 64.23173
# Shear Modulus (GPa) = 6.89821 28.83755 17.86788
#
# Velocity S-wave (km/s) = 1.87402 3.83165 3.01608
# Velocity P-wave (km/s) = 5.92590 7.38539 6.69553
#
# Compressibility (1/GPa) = 0.01672856
#
# Stress axis : x y z
#
# Youngs Moduli (GPa) = 57.99930 90.19768 80.16879
#
# Poissons Ratio (x) = 0.60552 0.10360
# Poissons Ratio (y) = 0.38936 0.32317
# Poissons Ratio (z) = 0.07495 0.36360
#
# Static dielectric constant tensor:
#      x y z
#    x 3.630940 0.000000 0.000000 
#    y 0.000000 3.454660 0.000000 
#    z 0.000000 0.000000 3.708570 
# 
# 
# High freq. dielectric constant tensor:
#      x y z
#    x 1.778830 0.000000 0.000000 
#    y 0.000000 1.760050 0.000000 
#    z 0.000000 0.000000 1.781470 
# 
# From -- ./inp_files/12022.got.cif
#   From: 2010.03.12/outbox.cif.g09.slc.cpg/sg41_7_cif.got.tgz:12022.got - 2010.04.14 01:55:53.
