data_PCOD8185819
_publ_section_title
;
Structure prediction by ZEFSAII (Michael W. Deem and Ramdas Pophale) SiO2 
 PCOD8185819
Probable space group: F M M 2
;
_chemical_formula_sum "Si O2"
_cell_formula_units_Z 80
_cell_length_a 9.196157
_cell_length_b 20.415346
_cell_length_c 27.429895
_cell_angle_alpha 90.000000
_cell_angle_beta 90.000000
_cell_angle_gamma 90.000000
_cell_volume 5149.763289
_symmetry_space_group_name_H-M "F M M 2"
_symmetry_group_IT_number 42
_symmetry_cell_setting 'orthorhombic'
loop_
_space_group_symop_operation_xyz
x,y,z
-x,-y,z
-x,y,z
x,-y,z
x,1/2+y,1/2+z
-x,1/2-y,1/2+z
-x,1/2+y,1/2+z
x,1/2-y,1/2+z
1/2+x,y,1/2+z
1/2-x,-y,1/2+z
1/2-x,y,1/2+z
1/2+x,-y,1/2+z
1/2+x,1/2+y,z
1/2-x,1/2-y,z
1/2-x,1/2+y,z
1/2+x,1/2-y,z
loop_
_atom_site_type_symbol
_atom_site_label
_atom_site_fract_x
_atom_site_fract_y
_atom_site_fract_z
Si Si1 0.662317 0.500000 0.836730
Si Si2 0.171543 0.000000 0.239177
Si Si3 0.663353 0.427630 0.930203
Si Si4 0.329479 0.315475 0.481881
Si Si5 0.663924 0.571515 0.663653
Si Si6 0.170930 0.814982 0.593504
O O1 0.500000 0.500000 0.813456
O O2 0.783632 0.500000 0.795390
O O3 0.680986 0.435701 0.871387
O O4 0.236311 0.934799 0.212348
O O5 0.000000 0.000000 0.234969
O O6 0.500000 0.403041 0.942559
O O7 0.688407 0.500000 0.954163
O O8 0.780608 0.376865 0.949801
O O9 0.500000 0.305271 0.475236
O O10 0.250000 0.250000 0.463268
O O11 0.286203 0.329960 0.537789
O O12 0.500000 0.590657 0.679554
O O13 0.663725 0.500000 0.637118
O O14 0.727711 0.624900 0.626431
O O15 0.250000 0.750000 0.612559
O O16 0.000000 0.804643 0.598864
#
# Coordination Sequence:
#
# PCOD8185819 Si02
#       6
#     8   8  16  16  16  16
#     4   8  16  32  51  68  91 123 150 183 237 288
#     4  10  18  28  47  74  95 113 148 195 235 274
#     4   8  17  32  49  70  94 122 156 193 235 280
#     4  10  19  30  47  69  97 130 162 193 229 273
#     4   8  16  31  48  65  91 125 156 186 228 277
#     4   9  18  31  47  67  93 128 160 190 225 270
#
# _framework density 15.534694999999999
#
# number of rings (size 3 to 8) (size 9 to 14) (size 15 to 20)
#    1.200    2.000    0.000    1.200    0.000    3.600 
#    0.000    2.000    0.000    1.200    0.000    5.600 
#    0.000    0.000    0.000    0.000    0.000    0.000 
#
# Total GULP energy -247786.812840 kJ/mol
# GULP energy per Si atom -12389.340642 kJ/mol
# Density = 1.549934 g / cm^3
# Si number density = 15.534695 Si / 1000 Ang^3
#
#
#
# Elastic Constant Matrix: (Units=GPa)
#
#
# Indices 1 2 3 4 5 6 
#
# 1 79.7473 42.4662 40.2913 0.0000 0.0000 0.0000
# 2 42.4662 89.3467 47.9186 0.0000 0.0000 0.0000
# 3 40.2913 47.9186 70.2703 0.0000 0.0000 0.0000
# 4 0.0000 0.0000 0.0000 6.1731 0.0000 0.0000
# 5 0.0000 0.0000 0.0000 0.0000 22.4735 0.0000
# 6 0.0000 0.0000 0.0000 0.0000 0.0000 28.0714
#
#
#
# Elastic Compliance Matrix: (Units=1/GPa)
#
#
# Indices 1 2 3 4 5 6 
#
# 1 0.018983 -0.005021 -0.007460 0.000000 0.000000 0.000000
# 2 -0.005021 0.018974 -0.010060 0.000000 0.000000 0.000000
# 3 -0.007460 -0.010060 0.025368 0.000000 0.000000 0.000000
# 4 0.000000 0.000000 0.000000 0.161993 0.000000 0.000000
# 5 0.000000 0.000000 0.000000 0.000000 0.044497 0.000000
# 6 0.000000 0.000000 0.000000 0.000000 0.000000 0.035624
#
#
# Mechanical properties :
#
#
# Convention : Reuss Voigt Hill
#
# Bulk Modulus (GPa) = 54.81656 55.63517 55.22586
# Shear Modulus (GPa) = 14.02125 18.58948 16.30537
#
# Velocity S-wave (km/s) = 3.00755 3.46301 3.24328
# Velocity P-wave (km/s) = 6.88648 7.20285 7.04644
#
# Compressibility (1/GPa) = 0.01824266
#
# Stress axis : x y z
#
# Youngs Moduli (GPa) = 52.67974 52.70297 39.41972
#
# Poissons Ratio (x) = 0.26464 0.29407
# Poissons Ratio (y) = 0.26453 0.39655
# Poissons Ratio (z) = 0.39299 0.53018
#
# Static dielectric constant tensor:
#      x y z
#    x 2.855860 0.000000 0.000000 
#    y 0.000000 2.848140 0.000000 
#    z 0.000000 0.000000 2.748170 
# 
# 
# High freq. dielectric constant tensor:
#      x y z
#    x 1.598330 0.000000 0.000000 
#    y 0.000000 1.580350 0.000000 
#    z 0.000000 0.000000 1.572850 
# 
# From -- ./inp_files/33777.got.cif
#   From: 2010.03.12/outbox.cif.g09.slc.cpg/sg42_17_cif.got.tgz:33777.got - 2010.04.14 02:04:31.
