data_PCOD8185654
_publ_section_title
;
Structure prediction by ZEFSAII (Michael W. Deem and Ramdas Pophale) SiO2 
 PCOD8185654
Probable space group: A B A 2
;
_chemical_formula_sum "Si O2"
_cell_formula_units_Z 36
_cell_length_a 4.912306
_cell_length_b 23.475907
_cell_length_c 13.603373
_cell_angle_alpha 90.000000
_cell_angle_beta 90.000000
_cell_angle_gamma 90.000000
_cell_volume 1568.752385
_symmetry_space_group_name_H-M "A B A 2"
_symmetry_group_IT_number 41
_symmetry_cell_setting 'orthorhombic'
loop_
_space_group_symop_operation_xyz
x,y,z
-x,-y,z
1/2-x,y,1/2+z
1/2+x,-y,1/2+z
x,1/2+y,1/2+z
-x,1/2-y,1/2+z
1/2-x,1/2+y,z
1/2+x,1/2-y,z
loop_
_atom_site_type_symbol
_atom_site_label
_atom_site_fract_x
_atom_site_fract_y
_atom_site_fract_z
Si Si1 0.584015 0.928056 0.681930
Si Si2 0.271090 0.388624 0.354207
Si Si3 0.589251 0.711377 0.729433
Si Si4 0.905021 0.118267 0.578887
Si Si5 0.000000 0.500000 0.279649
O O1 0.535103 0.894584 0.784126
O O2 0.295121 0.930466 0.623797
O O3 0.786779 0.894690 0.610011
O O4 0.731648 0.987806 0.711711
O O5 0.109171 0.332634 0.320531
O O6 0.381450 0.380044 0.462839
O O7 0.078297 0.445086 0.345448
O O8 0.284274 0.734401 0.736437
O O9 0.661773 0.679534 0.626804
#
# Coordination Sequence:
#
# PCOD8185654 Si02
#       5
#     8   8   8   8   4
#     4  11  24  47  67 104 149 185 233 298 356 437
#     4  11  27  46  75 111 146 190 246 300 373 439
#     4  11  24  46  73 102 144 188 240 305 356 425
#     4  11  26  46  75 104 145 190 247 292 366 436
#     4  12  24  48  72 106 152 196 228 312 364 452
#
# _framework density 22.948172
#
# number of rings (size 3 to 8) (size 9 to 14) (size 15 to 20)
#    0.000    0.889    4.444    3.333    3.111    3.556 
#    0.000    0.000    0.000    0.000    0.000    0.000 
#    0.000    0.000    0.000    0.000    0.000    0.000 
#
# Total GULP energy -223108.613828 kJ/mol
# GULP energy per Si atom -12394.922990 kJ/mol
# Density = 2.289594 g / cm^3
# Si number density = 22.948172 Si / 1000 Ang^3
#
#
#
# Elastic Constant Matrix: (Units=GPa)
#
#
# Indices 1 2 3 4 5 6 
#
# 1 85.4939 10.4904 9.2278 0.0000 0.0000 0.0000
# 2 10.4904 111.9639 39.8251 0.0000 0.0000 0.0000
# 3 9.2278 39.8251 178.1986 0.0000 0.0000 0.0000
# 4 0.0000 0.0000 0.0000 17.1595 0.0000 0.0000
# 5 0.0000 0.0000 0.0000 0.0000 29.4109 0.0000
# 6 0.0000 0.0000 0.0000 0.0000 0.0000 40.5462
#
#
#
# Elastic Compliance Matrix: (Units=1/GPa)
#
#
# Indices 1 2 3 4 5 6 
#
# 1 0.011859 -0.000970 -0.000397 0.000000 0.000000 0.000000
# 2 -0.000970 0.009782 -0.002136 0.000000 0.000000 0.000000
# 3 -0.000397 -0.002136 0.006110 0.000000 0.000000 0.000000
# 4 0.000000 0.000000 0.000000 0.058277 0.000000 0.000000
# 5 0.000000 0.000000 0.000000 0.000000 0.034001 0.000000
# 6 0.000000 0.000000 0.000000 0.000000 0.000000 0.024663
#
#
# Mechanical properties :
#
#
# Convention : Reuss Voigt Hill
#
# Bulk Modulus (GPa) = 48.20620 54.97145 51.58882
# Shear Modulus (GPa) = 31.52348 38.49755 35.01052
#
# Velocity S-wave (km/s) = 3.71034 4.10028 3.91017
# Velocity P-wave (km/s) = 6.27755 6.81344 6.55098
#
# Compressibility (1/GPa) = 0.02074422
#
# Stress axis : x y z
#
# Youngs Moduli (GPa) = 84.32680 102.22801 163.67556
#
# Poissons Ratio (x) = 0.09914 0.06504
# Poissons Ratio (y) = 0.08178 0.34960
# Poissons Ratio (z) = 0.03351 0.21835
#
# Static dielectric constant tensor:
#      x y z
#    x 4.334890 0.000000 0.000000 
#    y 0.000000 4.163350 0.000000 
#    z 0.000000 0.000000 3.924860 
# 
# 
# High freq. dielectric constant tensor:
#      x y z
#    x 1.931340 0.000000 0.000000 
#    y 0.000000 1.915140 0.000000 
#    z 0.000000 0.000000 1.881490 
# 
# From -- ./inp_files/6786.got.cif
#   From: 2010.03.12/outbox.cif.g09.slc.cpg/sg41_4_cif.got.tgz:6786.got - 2010.04.14 01:55:53.
