data_PCOD8185174
_publ_section_title
;
Structure prediction by ZEFSAII (Michael W. Deem and Ramdas Pophale) SiO2 
 PCOD8185174
Probable space group: A B A 2
;
_chemical_formula_sum "Si O2"
_cell_formula_units_Z 64
_cell_length_a 9.438944
_cell_length_b 17.754118
_cell_length_c 17.939645
_cell_angle_alpha 90.000000
_cell_angle_beta 90.000000
_cell_angle_gamma 90.000000
_cell_volume 3006.327962
_symmetry_space_group_name_H-M "A B A 2"
_symmetry_group_IT_number 41
_symmetry_cell_setting 'orthorhombic'
loop_
_space_group_symop_operation_xyz
x,y,z
-x,-y,z
1/2-x,y,1/2+z
1/2+x,-y,1/2+z
x,1/2+y,1/2+z
-x,1/2-y,1/2+z
1/2-x,1/2+y,z
1/2+x,1/2-y,z
loop_
_atom_site_type_symbol
_atom_site_label
_atom_site_fract_x
_atom_site_fract_y
_atom_site_fract_z
Si Si1 0.278529 0.575186 0.742570
Si Si2 0.652207 0.524612 0.993037
Si Si3 0.635945 0.161905 0.597433
Si Si4 0.738413 0.073852 0.336943
Si Si5 0.880459 0.939447 0.575935
Si Si6 0.022384 0.352854 0.757994
Si Si7 0.447484 0.798110 0.093212
Si Si8 0.517999 0.184724 0.266823
O O1 0.300524 0.503010 0.794725
O O2 0.333551 0.553517 0.661291
O O3 0.368012 0.643211 0.778525
O O4 0.118456 0.603159 0.734836
O O5 0.500000 0.500000 0.961897
O O6 0.733225 0.564194 0.925467
O O7 0.621820 0.580452 0.061503
O O8 0.745388 0.454654 0.022985
O O9 0.627002 0.153939 0.686749
O O10 0.784146 0.197440 0.568801
O O11 0.507417 0.216099 0.571856
O O12 0.899337 0.097049 0.319551
O O13 0.636190 0.141878 0.313789
O O14 0.948603 0.858996 0.555087
O O15 0.000000 0.000000 0.559094
O O16 0.991634 0.271128 0.793940
O O17 0.443501 0.814730 0.180479
#
# Coordination Sequence:
#
# PCOD8185174 Si02
#       8
#     8   8   8   8   8   8   8   8
#     4  11  22  38  67  97 124 170 213 272 327 390
#     4  12  27  44  64  92 134 179 223 274 324 398
#     4  11  23  43  66 101 128 165 219 274 336 386
#     4  12  24  45  61  93 132 174 219 264 326 394
#     4  11  22  42  66  97 129 172 217 271 331 389
#     4  11  23  40  70  99 129 161 220 279 327 392
#     4  10  22  39  70  96 128 165 212 275 327 394
#     4  10  21  40  66  93 128 163 211 265 337 384
#
# _framework density 21.288430000000002
#
# number of rings (size 3 to 8) (size 9 to 14) (size 15 to 20)
#    0.000    1.000    2.500    5.250   10.500    1.000 
#    2.250    1.250    0.000    0.000    0.000    0.000 
#    0.000    0.000    0.000    0.000    0.000    0.000 
#
# Total GULP energy -396893.670211 kJ/mol
# GULP energy per Si atom -12402.927194 kJ/mol
# Density = 2.123998 g / cm^3
# Si number density = 21.288430 Si / 1000 Ang^3
#
#
#
# Elastic Constant Matrix: (Units=GPa)
#
#
# Indices 1 2 3 4 5 6 
#
# 1 100.9193 10.2533 7.4528 0.0000 0.0000 0.0000
# 2 10.2533 78.5394 20.8766 0.0000 0.0000 0.0000
# 3 7.4528 20.8766 45.7622 0.0000 0.0000 0.0000
# 4 0.0000 0.0000 0.0000 8.4597 0.0000 0.0000
# 5 0.0000 0.0000 0.0000 0.0000 21.1121 0.0000
# 6 0.0000 0.0000 0.0000 0.0000 0.0000 34.2624
#
#
#
# Elastic Compliance Matrix: (Units=1/GPa)
#
#
# Indices 1 2 3 4 5 6 
#
# 1 0.010098 -0.001003 -0.001187 0.000000 0.000000 0.000000
# 2 -0.001003 0.014589 -0.006492 0.000000 0.000000 0.000000
# 3 -0.001187 -0.006492 0.025007 0.000000 0.000000 0.000000
# 4 0.000000 0.000000 0.000000 0.118208 0.000000 0.000000
# 5 0.000000 0.000000 0.000000 0.000000 0.047366 0.000000
# 6 0.000000 0.000000 0.000000 0.000000 0.000000 0.029187
#
#
# Mechanical properties :
#
#
# Convention : Reuss Voigt Hill
#
# Bulk Modulus (GPa) = 30.93064 33.59849 32.26456
# Shear Modulus (GPa) = 18.34214 25.20937 21.77576
#
# Velocity S-wave (km/s) = 2.93849 3.44493 3.20174
# Velocity P-wave (km/s) = 5.10625 5.62496 5.37187
#
# Compressibility (1/GPa) = 0.03233040
#
# Stress axis : x y z
#
# Youngs Moduli (GPa) = 99.02504 68.54444 39.98853
#
# Poissons Ratio (x) = 0.06874 0.04747
# Poissons Ratio (y) = 0.09930 0.25961
# Poissons Ratio (z) = 0.11756 0.44500
#
# Static dielectric constant tensor:
#      x y z
#    x 4.023550 0.000000 0.000000 
#    y 0.000000 4.118440 0.000000 
#    z 0.000000 0.000000 3.441700 
# 
# 
# High freq. dielectric constant tensor:
#      x y z
#    x 1.853700 0.000000 0.000000 
#    y 0.000000 1.845000 0.000000 
#    z 0.000000 0.000000 1.796960 
# 
# From -- ./inp_files/9855.got.cif
#   From: 2010.03.12/outbox.cif.g09.slc.cpg/sg41_5_cif.got.tgz:9855.got - 2010.04.14 01:55:53.
