data_PCOD8185935
_publ_section_title
;
Structure prediction by ZEFSAII (Michael W. Deem and Ramdas Pophale) SiO2 
 PCOD8185935
Probable space group: F M M 2
;
_chemical_formula_sum "Si O2"
_cell_formula_units_Z 128
_cell_length_a 17.409607
_cell_length_b 20.045378
_cell_length_c 19.557525
_cell_angle_alpha 90.000000
_cell_angle_beta 90.000000
_cell_angle_gamma 90.000000
_cell_volume 6825.227185
_symmetry_space_group_name_H-M "F M M 2"
_symmetry_group_IT_number 42
_symmetry_cell_setting 'orthorhombic'
loop_
_space_group_symop_operation_xyz
x,y,z
-x,-y,z
-x,y,z
x,-y,z
x,1/2+y,1/2+z
-x,1/2-y,1/2+z
-x,1/2+y,1/2+z
x,1/2-y,1/2+z
1/2+x,y,1/2+z
1/2-x,-y,1/2+z
1/2-x,y,1/2+z
1/2+x,-y,1/2+z
1/2+x,1/2+y,z
1/2-x,1/2-y,z
1/2-x,1/2+y,z
1/2+x,1/2-y,z
loop_
_atom_site_type_symbol
_atom_site_label
_atom_site_fract_x
_atom_site_fract_y
_atom_site_fract_z
Si Si1 0.415371 0.602144 0.349660
Si Si2 0.086395 0.743283 0.346429
Si Si3 0.702858 0.923112 0.456000
Si Si4 0.587441 0.195404 0.096846
Si Si5 0.253894 0.573111 0.304899
Si Si6 0.690138 0.691776 0.729306
Si Si7 0.089866 0.190178 0.992785
Si Si8 0.627843 0.075766 0.001757
O O1 0.500000 0.578966 0.323230
O O2 0.403488 0.679242 0.332668
O O3 0.346318 0.564883 0.311545
O O4 0.413027 0.587726 0.429807
O O5 0.140058 0.702899 0.296229
O O6 0.110297 0.729812 0.424122
O O7 0.000000 0.718838 0.333113
O O8 0.717180 0.902461 0.376885
O O9 0.638321 0.878153 0.492774
O O10 0.781121 0.912063 0.497367
O O11 0.676034 0.000000 0.460012
O O12 0.500000 0.206591 0.120056
O O13 0.638611 0.186320 0.163012
O O14 0.614935 0.260468 0.054133
O O15 0.591662 0.127505 0.054243
O O16 0.221518 0.500000 0.286113
O O17 0.233846 0.622250 0.242817
O O18 0.750000 0.750000 0.717420
O O19 0.000000 0.171837 0.997712
O O20 0.611011 0.000000 0.026024
#
# Coordination Sequence:
#
# PCOD8185935 Si02
#       8
#    16  16  16  16  16  16  16  16
#     4  10  18  33  58  88 119 148 186 244 303 342
#     4  10  19  35  60  88 115 146 191 242 288 337
#     4   9  19  35  58  89 120 149 188 241 289 339
#     4  11  25  41  58  86 120 151 193 242 292 346
#     4  10  21  37  56  86 121 152 193 237 281 344
#     4  12  24  39  59  85 113 161 197 233 288 346
#     4  10  20  36  61  88 115 149 192 245 291 341
#     4  10  21  36  58  87 118 152 193 239 290 349
#
# _framework density 18.753955000000001
#
# number of rings (size 3 to 8) (size 9 to 14) (size 15 to 20)
#    0.000    1.750    3.750    1.875    1.750    2.500 
#    0.000    0.000    0.000    1.125    0.000    0.000 
#    0.000    0.000    0.000    0.000    0.000    0.000 
#
# Total GULP energy -396762.567211 kJ/mol
# GULP energy per Si atom -12398.830225 kJ/mol
# Density = 1.871127 g / cm^3
# Si number density = 18.753955 Si / 1000 Ang^3
#
#
#
# Elastic Constant Matrix: (Units=GPa)
#
#
# Indices 1 2 3 4 5 6 
#
# 1 86.9517 47.1430 47.3150 0.0000 0.0000 0.0000
# 2 47.1430 107.1822 37.9976 0.0000 0.0000 0.0000
# 3 47.3150 37.9976 81.1299 0.0000 0.0000 0.0000
# 4 0.0000 0.0000 0.0000 -8.3277 0.0000 0.0000
# 5 0.0000 0.0000 0.0000 0.0000 23.4607 0.0000
# 6 0.0000 0.0000 0.0000 0.0000 0.0000 26.7091
#
#
#
# Elastic Compliance Matrix: (Units=1/GPa)
#
#
# Indices 1 2 3 4 5 6 
#
# 1 0.019093 -0.005336 -0.008636 0.000000 0.000000 0.000000
# 2 -0.005336 0.012679 -0.002826 0.000000 0.000000 0.000000
# 3 -0.008636 -0.002826 0.018686 0.000000 0.000000 0.000000
# 4 0.000000 0.000000 0.000000 -0.120081 0.000000 0.000000
# 5 0.000000 0.000000 0.000000 0.000000 0.042625 0.000000
# 6 0.000000 0.000000 0.000000 0.000000 0.000000 0.037440
#
#
# Mechanical properties :
#
#
# Convention : Reuss Voigt Hill
#
# Bulk Modulus (GPa) = 59.30677 60.01943 59.66310
# Shear Modulus (GPa) = 100.68629 17.88895 59.28762
#
# Velocity S-wave (km/s) = 7.33516 3.09184 5.62868
# Velocity P-wave (km/s) = 10.17014 6.69470 8.60961
#
# Compressibility (1/GPa) = 0.01686148
#
# Stress axis : x y z
#
# Youngs Moduli (GPa) = 52.37509 78.87092 53.51629
#
# Poissons Ratio (x) = 0.42089 0.46215
# Poissons Ratio (y) = 0.27949 0.15124
# Poissons Ratio (z) = 0.45230 0.22289
#
# Static dielectric constant tensor:
#      x y z
#    x 3.675980 0.000000 0.000000 
#    y 0.000000 3.541980 0.000000 
#    z 0.000000 0.000000 3.228100 
# 
# 
# High freq. dielectric constant tensor:
#      x y z
#    x 1.735270 0.000000 0.000000 
#    y 0.000000 1.736100 0.000000 
#    z 0.000000 0.000000 1.697700 
# 
# From -- ./inp_files/26237.got.cif
#   From: 2010.03.12/outbox.cif.g09.slc.cpg/sg42_14_cif.got.tgz:26237.got - 2010.04.14 02:04:31.
