data_PCOD8185340
_publ_section_title
;
Structure prediction by ZEFSAII (Michael W. Deem and Ramdas Pophale) SiO2 
 PCOD8185340
Probable space group: A B A 2
;
_chemical_formula_sum "Si O2"
_cell_formula_units_Z 60
_cell_length_a 22.260264
_cell_length_b 22.297602
_cell_length_c 5.033373
_cell_angle_alpha 90.000000
_cell_angle_beta 90.000000
_cell_angle_gamma 90.000000
_cell_volume 2498.317241
_symmetry_space_group_name_H-M "A B A 2"
_symmetry_group_IT_number 41
_symmetry_cell_setting 'orthorhombic'
loop_
_space_group_symop_operation_xyz
x,y,z
-x,-y,z
1/2-x,y,1/2+z
1/2+x,-y,1/2+z
x,1/2+y,1/2+z
-x,1/2-y,1/2+z
1/2-x,1/2+y,z
1/2+x,1/2-y,z
loop_
_atom_site_type_symbol
_atom_site_label
_atom_site_fract_x
_atom_site_fract_y
_atom_site_fract_z
Si Si1 0.093041 0.700773 0.994910
Si Si2 0.348262 0.394973 0.737344
Si Si3 0.529564 0.820408 0.501842
Si Si4 0.000000 0.000000 0.457379
Si Si5 0.210690 0.772847 0.885923
Si Si6 0.906329 0.420141 0.227480
Si Si7 0.572815 0.605499 0.214729
Si Si8 0.213828 0.016097 0.692226
O O1 0.059957 0.720317 0.727169
O O2 0.157204 0.732251 0.999801
O O3 0.044165 0.716568 0.229657
O O4 0.103085 0.628984 0.993436
O O5 0.313245 0.340296 0.874923
O O6 0.387187 0.376953 0.474373
O O7 0.299871 0.445406 0.672642
O O8 0.389230 0.421521 0.973161
O O9 0.562985 0.885598 0.475065
O O10 0.460730 0.835279 0.588657
O O11 0.975382 0.054862 0.284541
O O12 0.053770 0.023788 0.638441
O O13 0.234466 0.760218 0.588890
O O14 0.841855 0.446084 0.300516
O O15 0.232654 0.032569 0.393574
#
# Coordination Sequence:
#
# PCOD8185340 Si02
#       8
#     8   8   8   4   8   8   8   8
#     4  10  23  43  68 100 136 173 231 297 342 418
#     4  12  26  45  68 104 136 180 246 291 349 437
#     4  10  22  42  66 102 142 168 221 290 350 426
#     4  12  22  44  74 108 142 198 228 282 358 454
#     4  12  26  49  77  97 132 193 251 303 358 424
#     4  10  25  42  70 103 145 183 237 287 352 443
#     4  12  24  40  74 103 141 184 225 284 364 429
#     4  12  27  42  62  95 143 185 223 292 359 410
#
# _framework density 24.016164
#
# number of rings (size 3 to 8) (size 9 to 14) (size 15 to 20)
#    0.800    0.000    2.667    4.800    3.733    1.600 
#    0.000    2.667    0.000    0.000    0.000    0.000 
#    0.000    0.000    0.000    0.000    0.000    0.000 
#
# Total GULP energy -371724.713342 kJ/mol
# GULP energy per Si atom -12390.823778 kJ/mol
# Density = 2.396150 g / cm^3
# Si number density = 24.016164 Si / 1000 Ang^3
#
#
#
# Elastic Constant Matrix: (Units=GPa)
#
#
# Indices 1 2 3 4 5 6 
#
# 1 89.5959 1.7023 23.7330 0.0000 0.0000 0.0000
# 2 1.7023 29.6949 -10.5372 0.0000 0.0000 0.0000
# 3 23.7330 -10.5372 144.5702 0.0000 0.0000 0.0000
# 4 0.0000 0.0000 0.0000 4.3473 0.0000 0.0000
# 5 0.0000 0.0000 0.0000 0.0000 36.2819 0.0000
# 6 0.0000 0.0000 0.0000 0.0000 0.0000 34.6436
#
#
#
# Elastic Compliance Matrix: (Units=1/GPa)
#
#
# Indices 1 2 3 4 5 6 
#
# 1 0.011724 -0.001391 -0.002026 0.000000 0.000000 0.000000
# 2 -0.001391 0.034735 0.002760 0.000000 0.000000 0.000000
# 3 -0.002026 0.002760 0.007451 0.000000 0.000000 0.000000
# 4 0.000000 0.000000 0.000000 0.230026 0.000000 0.000000
# 5 0.000000 0.000000 0.000000 0.000000 0.027562 0.000000
# 6 0.000000 0.000000 0.000000 0.000000 0.000000 0.028865
#
#
# Mechanical properties :
#
#
# Convention : Reuss Voigt Hill
#
# Bulk Modulus (GPa) = 19.01288 32.62858 25.82073
# Shear Modulus (GPa) = 13.91943 31.65209 22.78576
#
# Velocity S-wave (km/s) = 2.41007 3.63430 3.08355
# Velocity P-wave (km/s) = 3.95961 5.58806 4.84277
#
# Compressibility (1/GPa) = 0.05259593
#
# Stress axis : x y z
#
# Youngs Moduli (GPa) = 85.29262 28.78945 134.21311
#
# Poissons Ratio (x) = 0.04005 0.27193
# Poissons Ratio (y) = 0.11865 -0.37044
# Poissons Ratio (z) = 0.17281 -0.07946
#
# Static dielectric constant tensor:
#      x y z
#    x 4.464700 0.000000 0.000000 
#    y 0.000000 4.187990 0.000000 
#    z 0.000000 0.000000 4.287400 
# 
# 
# High freq. dielectric constant tensor:
#      x y z
#    x 1.958830 0.000000 0.000000 
#    y 0.000000 1.946760 0.000000 
#    z 0.000000 0.000000 1.960350 
# 
# From -- ./inp_files/1001.got.cif
#   From: 2010.03.12/outbox.cif.g09.slc.cpg/sg41_1_cif.got.tgz:1001.got - 2010.04.14 01:55:53.
