data_PCOD8185639
_publ_section_title
;
Structure prediction by ZEFSAII (Michael W. Deem and Ramdas Pophale) SiO2 
 PCOD8185639
Probable space group: A B A 2
;
_chemical_formula_sum "Si O2"
_cell_formula_units_Z 40
_cell_length_a 9.929237
_cell_length_b 8.932686
_cell_length_c 20.065439
_cell_angle_alpha 90.000000
_cell_angle_beta 90.000000
_cell_angle_gamma 90.000000
_cell_volume 1779.699223
_symmetry_space_group_name_H-M "A B A 2"
_symmetry_group_IT_number 41
_symmetry_cell_setting 'orthorhombic'
loop_
_space_group_symop_operation_xyz
x,y,z
-x,-y,z
1/2-x,y,1/2+z
1/2+x,-y,1/2+z
x,1/2+y,1/2+z
-x,1/2-y,1/2+z
1/2-x,1/2+y,z
1/2+x,1/2-y,z
loop_
_atom_site_type_symbol
_atom_site_label
_atom_site_fract_x
_atom_site_fract_y
_atom_site_fract_z
Si Si1 0.845584 0.540704 0.384350
Si Si2 0.212851 0.196643 0.300949
Si Si3 0.388269 0.610018 0.578627
Si Si4 0.473817 0.171424 0.226806
Si Si5 0.144623 0.437404 0.535246
O O1 0.824917 0.713359 0.367530
O O2 0.739561 0.465805 0.332700
O O3 0.811775 0.509432 0.461361
O O4 0.000000 0.500000 0.369699
O O5 0.348949 0.246312 0.264245
O O6 0.097236 0.217449 0.244869
O O7 0.500000 0.500000 0.545211
O O8 0.445438 0.669647 0.648450
O O9 0.252671 0.510195 0.586069
O O10 0.357516 0.757031 0.535253
O O11 0.500000 0.000000 0.250912
O O12 0.000000 0.500000 0.556029
#
# Coordination Sequence:
#
# PCOD8185639 Si02
#       5
#     8   8   8   8   8
#     4  11  24  45  67 104 142 177 239 298 356 440
#     4  12  21  46  68  97 141 180 225 302 358 425
#     4  11  26  47  69 108 143 188 251 300 366 446
#     4  11  26  44  68 102 144 178 240 297 358 442
#     4  11  25  46  74 101 144 195 243 305 370 433
#
# _framework density 22.475708000000001
#
# number of rings (size 3 to 8) (size 9 to 14) (size 15 to 20)
#    0.000    0.800    4.000    2.400    8.400    2.400 
#    3.600    0.000    0.000    0.000    0.000    0.000 
#    0.000    0.000    0.000    0.000    0.000    0.000 
#
# Total GULP energy -247859.148092 kJ/mol
# GULP energy per Si atom -12392.957405 kJ/mol
# Density = 2.242455 g / cm^3
# Si number density = 22.475708 Si / 1000 Ang^3
#
#
#
# Elastic Constant Matrix: (Units=GPa)
#
#
# Indices 1 2 3 4 5 6 
#
# 1 162.1975 52.8478 49.8613 0.0000 0.0000 0.0000
# 2 52.8478 103.9545 29.0852 0.0000 0.0000 0.0000
# 3 49.8613 29.0852 98.7111 0.0000 0.0000 0.0000
# 4 0.0000 0.0000 0.0000 6.7171 0.0000 0.0000
# 5 0.0000 0.0000 0.0000 0.0000 32.4371 0.0000
# 6 0.0000 0.0000 0.0000 0.0000 0.0000 51.2856
#
#
#
# Elastic Compliance Matrix: (Units=1/GPa)
#
#
# Indices 1 2 3 4 5 6 
#
# 1 0.008214 -0.003286 -0.003181 0.000000 0.000000 0.000000
# 2 -0.003286 0.011798 -0.001817 0.000000 0.000000 0.000000
# 3 -0.003181 -0.001817 0.012273 0.000000 0.000000 0.000000
# 4 0.000000 0.000000 0.000000 0.148873 0.000000 0.000000
# 5 0.000000 0.000000 0.000000 0.000000 0.030829 0.000000
# 6 0.000000 0.000000 0.000000 0.000000 0.000000 0.019499
#
#
# Mechanical properties :
#
#
# Convention : Reuss Voigt Hill
#
# Bulk Modulus (GPa) = 63.62066 69.82797 66.72432
# Shear Modulus (GPa) = 19.74018 33.62589 26.68303
#
# Velocity S-wave (km/s) = 2.96681 3.87214 3.44931
# Velocity P-wave (km/s) = 6.33276 7.15031 6.75392
#
# Compressibility (1/GPa) = 0.01571816
#
# Stress axis : x y z
#
# Youngs Moduli (GPa) = 121.74797 84.75850 81.48261
#
# Poissons Ratio (x) = 0.27849 0.25918
# Poissons Ratio (y) = 0.40002 0.14803
# Poissons Ratio (z) = 0.38726 0.15398
#
# Static dielectric constant tensor:
#      x y z
#    x 4.212460 0.000000 0.000000 
#    y 0.000000 3.966410 0.000000 
#    z 0.000000 0.000000 3.943690 
# 
# 
# High freq. dielectric constant tensor:
#      x y z
#    x 1.893760 0.000000 0.000000 
#    y 0.000000 1.879680 0.000000 
#    z 0.000000 0.000000 1.887840 
# 
# From -- ./inp_files/11915.got.cif
#   From: 2010.03.12/outbox.cif.g09.slc.cpg/sg41_6_cif.got.tgz:11915.got - 2010.04.14 01:55:53.
