data_PCOD8185993
_publ_section_title
;
Structure prediction by ZEFSAII (Michael W. Deem and Ramdas Pophale) SiO2 
 PCOD8185993
Probable space group: F M M 2
;
_chemical_formula_sum "Si O2"
_cell_formula_units_Z 112
_cell_length_a 9.605477
_cell_length_b 18.719716
_cell_length_c 35.999566
_cell_angle_alpha 90.000000
_cell_angle_beta 90.000000
_cell_angle_gamma 90.000000
_cell_volume 6473.146815
_symmetry_space_group_name_H-M "F M M 2"
_symmetry_group_IT_number 42
_symmetry_cell_setting 'orthorhombic'
loop_
_space_group_symop_operation_xyz
x,y,z
-x,-y,z
-x,y,z
x,-y,z
x,1/2+y,1/2+z
-x,1/2-y,1/2+z
-x,1/2+y,1/2+z
x,1/2-y,1/2+z
1/2+x,y,1/2+z
1/2-x,-y,1/2+z
1/2-x,y,1/2+z
1/2+x,-y,1/2+z
1/2+x,1/2+y,z
1/2-x,1/2-y,z
1/2-x,1/2+y,z
1/2+x,1/2-y,z
loop_
_atom_site_type_symbol
_atom_site_label
_atom_site_fract_x
_atom_site_fract_y
_atom_site_fract_z
Si Si1 0.665953 0.176958 0.378540
Si Si2 0.839541 0.817943 0.660799
Si Si3 0.335671 0.079521 0.310140
Si Si4 0.165283 0.420453 0.446118
Si Si5 0.162025 0.180585 0.745007
Si Si6 0.345056 0.585024 0.027736
Si Si7 0.339514 0.917616 0.094368
O O1 0.500000 0.191565 0.378095
O O2 0.750000 0.250000 0.376025
O O3 0.714845 0.127984 0.344258
O O4 0.715943 0.135978 0.415599
O O5 0.750000 0.750000 0.649675
O O6 0.807563 0.843545 0.702750
O O7 0.797292 0.880951 0.632979
O O8 0.000000 0.796344 0.656527
O O9 0.500000 0.072097 0.312060
O O10 0.289852 0.115975 0.271448
O O11 0.268992 0.000000 0.312424
O O12 0.226041 0.500000 0.437624
O O13 0.213082 0.392890 0.486972
O O14 0.000000 0.426221 0.445689
O O15 0.250000 0.250000 0.755805
O O16 0.000000 0.199281 0.751151
O O17 0.500000 0.616005 0.034174
O O18 0.348472 0.500000 0.029291
O O19 0.246270 0.616048 0.060021
O O20 0.500000 0.905585 0.084645
O O21 0.302550 0.000000 0.099880
#
# Coordination Sequence:
#
# PCOD8185993 Si02
#       7
#    16  16  16  16  16  16  16
#     4  10  19  31  48  69  94 122 150 182 221 265
#     4   9  18  31  46  65  90 121 152 182 221 267
#     4   9  17  29  48  73  94 115 150 190 221 255
#     4   8  14  27  48  69  87 113 152 191 222 258
#     4   9  17  30  48  68  91 119 150 184 222 265
#     4   8  14  26  45  67  88 113 148 187 225 265
#     4   9  17  29  45  66  91 117 147 185 228 269
#
# _framework density 17.302249
#
# number of rings (size 3 to 8) (size 9 to 14) (size 15 to 20)
#    0.000    3.143    0.000    1.714    0.000    2.857 
#    0.000    4.286    0.000    7.286    0.000    4.000 
#    0.000    0.000    0.000    0.000    0.000    0.000 
#
# Total GULP energy -347077.876095 kJ/mol
# GULP energy per Si atom -12395.638432 kJ/mol
# Density = 1.726287 g / cm^3
# Si number density = 17.302249 Si / 1000 Ang^3
#
#
#
# Elastic Constant Matrix: (Units=GPa)
#
#
# Indices 1 2 3 4 5 6 
#
# 1 39.9500 40.2065 46.9696 0.0000 0.0000 0.0000
# 2 40.2065 114.3313 84.9462 0.0000 0.0000 0.0000
# 3 46.9696 84.9462 154.3464 0.0000 0.0000 0.0000
# 4 0.0000 0.0000 0.0000 18.1020 0.0000 0.0000
# 5 0.0000 0.0000 0.0000 0.0000 21.2884 0.0000
# 6 0.0000 0.0000 0.0000 0.0000 0.0000 23.1735
#
#
#
# Elastic Compliance Matrix: (Units=1/GPa)
#
#
# Indices 1 2 3 4 5 6 
#
# 1 0.044235 -0.009397 -0.008289 0.000000 0.000000 0.000000
# 2 -0.009397 0.016793 -0.006383 0.000000 0.000000 0.000000
# 3 -0.008289 -0.006383 0.012514 0.000000 0.000000 0.000000
# 4 0.000000 0.000000 0.000000 0.055243 0.000000 0.000000
# 5 0.000000 0.000000 0.000000 0.000000 0.046974 0.000000
# 6 0.000000 0.000000 0.000000 0.000000 0.000000 0.043153
#
#
# Mechanical properties :
#
#
# Convention : Reuss Voigt Hill
#
# Bulk Modulus (GPa) = 39.36396 72.54138 55.95267
# Shear Modulus (GPa) = 18.14764 21.61313 19.88038
#
# Velocity S-wave (km/s) = 3.24212 3.53817 3.39338
# Velocity P-wave (km/s) = 6.06756 7.66215 6.91100
#
# Compressibility (1/GPa) = 0.02540395
#
# Stress axis : x y z
#
# Youngs Moduli (GPa) = 22.60679 59.54710 79.90788
#
# Poissons Ratio (x) = 0.55956 0.66239
# Poissons Ratio (y) = 0.21243 0.51004
# Poissons Ratio (z) = 0.18740 0.38008
#
# Static dielectric constant tensor:
#      x y z
#    x 3.001910 0.000000 0.000000 
#    y 0.000000 3.178950 0.000000 
#    z 0.000000 0.000000 3.624790 
# 
# 
# High freq. dielectric constant tensor:
#      x y z
#    x 1.633420 0.000000 0.000000 
#    y 0.000000 1.649510 0.000000 
#    z 0.000000 0.000000 1.686580 
# 
# From -- ./inp_files/34178.got.cif
#   From: 2010.03.12/outbox.cif.g09.slc.cpg/sg42_18_cif.got.tgz:34178.got - 2010.04.14 02:04:31.
