data_PCOD8185097
_publ_section_title
;
Structure prediction by ZEFSAII (Michael W. Deem and Ramdas Pophale) SiO2 
 PCOD8185097
Probable space group: A B A 2
;
_chemical_formula_sum "Si O2"
_cell_formula_units_Z 40
_cell_length_a 11.983925
_cell_length_b 17.301421
_cell_length_c 8.799379
_cell_angle_alpha 90.000000
_cell_angle_beta 90.000000
_cell_angle_gamma 90.000000
_cell_volume 1824.453841
_symmetry_space_group_name_H-M "A B A 2"
_symmetry_group_IT_number 41
_symmetry_cell_setting 'orthorhombic'
loop_
_space_group_symop_operation_xyz
x,y,z
-x,-y,z
1/2-x,y,1/2+z
1/2+x,-y,1/2+z
x,1/2+y,1/2+z
-x,1/2-y,1/2+z
1/2-x,1/2+y,z
1/2+x,1/2-y,z
loop_
_atom_site_type_symbol
_atom_site_label
_atom_site_fract_x
_atom_site_fract_y
_atom_site_fract_z
Si Si1 0.148220 0.663625 0.554090
Si Si2 0.244660 0.398319 0.890510
Si Si3 0.361623 0.625779 0.703233
Si Si4 0.689508 0.994390 0.647590
Si Si5 0.101006 0.324387 0.142794
O O1 0.278358 0.678316 0.599975
O O2 0.136754 0.659098 0.373638
O O3 0.108956 0.580785 0.629167
O O4 0.076420 0.732235 0.630744
O O5 0.159453 0.447660 0.784190
O O6 0.330839 0.347020 0.793385
O O7 0.314134 0.458520 0.991630
O O8 0.170984 0.342306 0.992169
O O9 0.315853 0.537441 0.687878
O O10 0.485380 0.629797 0.636559
#
# Coordination Sequence:
#
# PCOD8185097 Si02
#       5
#     8   8   8   8   8
#     4  10  21  42  67  89 126 171 215 267 316 381
#     4  10  21  37  65  94 133 161 209 269 318 372
#     4  10  22  42  71  88 129 173 218 256 330 386
#     4   9  18  42  63  84 127 172 200 263 323 374
#     4  11  24  40  67  98 129 168 217 270 318 379
#
# _framework density 21.92437
#
# number of rings (size 3 to 8) (size 9 to 14) (size 15 to 20)
#    1.200    0.800    2.000    1.200    0.000    6.400 
#    0.000    4.000   17.600    0.000    0.000    0.000 
#    0.000    0.000    0.000    0.000    0.000    0.000 
#
# Total GULP energy -247772.184328 kJ/mol
# GULP energy per Si atom -12388.609216 kJ/mol
# Density = 2.187447 g / cm^3
# Si number density = 21.924370 Si / 1000 Ang^3
#
#
#
# Elastic Constant Matrix: (Units=GPa)
#
#
# Indices 1 2 3 4 5 6 
#
# 1 36.3609 -25.7487 3.7113 0.0000 0.0000 0.0000
# 2 -25.7487 92.8091 30.5938 0.0000 0.0000 0.0000
# 3 3.7113 30.5938 113.3339 0.0000 0.0000 0.0000
# 4 0.0000 0.0000 0.0000 31.5997 0.0000 0.0000
# 5 0.0000 0.0000 0.0000 0.0000 20.0634 0.0000
# 6 0.0000 0.0000 0.0000 0.0000 0.0000 9.3961
#
#
#
# Elastic Compliance Matrix: (Units=1/GPa)
#
#
# Indices 1 2 3 4 5 6 
#
# 1 0.036002 0.011391 -0.004254 0.000000 0.000000 0.000000
# 2 0.011391 0.015431 -0.004539 0.000000 0.000000 0.000000
# 3 -0.004254 -0.004539 0.010188 0.000000 0.000000 0.000000
# 4 0.000000 0.000000 0.000000 0.031646 0.000000 0.000000
# 5 0.000000 0.000000 0.000000 0.000000 0.049842 0.000000
# 6 0.000000 0.000000 0.000000 0.000000 0.000000 0.106428
#
#
# Mechanical properties :
#
#
# Convention : Reuss Voigt Hill
#
# Bulk Modulus (GPa) = 14.96601 28.84631 21.90616
# Shear Modulus (GPa) = 18.75377 27.80833 23.28105
#
# Velocity S-wave (km/s) = 2.92787 3.56529 3.26219
# Velocity P-wave (km/s) = 4.27445 5.48946 4.91961
#
# Compressibility (1/GPa) = 0.06681809
#
# Stress axis : x y z
#
# Youngs Moduli (GPa) = 27.77590 64.80419 98.15531
#
# Poissons Ratio (x) = -0.73816 0.41753
# Poissons Ratio (y) = -0.31639 0.44548
# Poissons Ratio (z) = 0.11815 0.29412
#
# Static dielectric constant tensor:
#      x y z
#    x 3.432700 0.000000 0.000000 
#    y 0.000000 4.034760 0.000000 
#    z 0.000000 0.000000 3.996870 
# 
# 
# High freq. dielectric constant tensor:
#      x y z
#    x 1.811450 0.000000 0.000000 
#    y 0.000000 1.873440 0.000000 
#    z 0.000000 0.000000 1.874980 
# 
# From -- ./inp_files/2046.got.cif
#   From: 2010.03.12/outbox.cif.g09.slc.cpg/sg41_2_cif.got.tgz:2046.got - 2010.04.14 01:55:53.
