data_PCOD8185553
_publ_section_title
;
Structure prediction by ZEFSAII (Michael W. Deem and Ramdas Pophale) SiO2 
 PCOD8185553
Probable space group: A B A 2
;
_chemical_formula_sum "Si O2"
_cell_formula_units_Z 64
_cell_length_a 20.160749
_cell_length_b 8.295732
_cell_length_c 17.489368
_cell_angle_alpha 90.000000
_cell_angle_beta 90.000000
_cell_angle_gamma 90.000000
_cell_volume 2925.064803
_symmetry_space_group_name_H-M "A B A 2"
_symmetry_group_IT_number 41
_symmetry_cell_setting 'orthorhombic'
loop_
_space_group_symop_operation_xyz
x,y,z
-x,-y,z
1/2-x,y,1/2+z
1/2+x,-y,1/2+z
x,1/2+y,1/2+z
-x,1/2-y,1/2+z
1/2-x,1/2+y,z
1/2+x,1/2-y,z
loop_
_atom_site_type_symbol
_atom_site_label
_atom_site_fract_x
_atom_site_fract_y
_atom_site_fract_z
Si Si1 0.305970 0.598117 0.047410
Si Si2 0.295288 0.913011 0.306105
Si Si3 0.933573 0.548724 0.773520
Si Si4 0.566427 0.548724 0.991931
Si Si5 0.805970 0.401883 0.718041
Si Si6 0.295288 0.913011 0.959346
Si Si7 0.433903 0.085459 0.330574
Si Si8 0.566097 0.914541 0.934877
O O1 0.300452 0.671268 0.132725
O O2 0.370250 0.483712 0.043960
O O3 0.309205 0.728514 0.979949
O O4 0.242551 0.488075 0.031279
O O5 0.257449 0.988075 0.234172
O O6 0.365917 0.997628 0.309488
O O7 0.309205 0.728514 0.285502
O O8 0.250000 0.923959 0.382725
O O9 0.870250 0.516288 0.721490
O O10 0.930277 0.731179 0.803294
O O11 0.937895 0.420859 0.843486
O O12 0.000000 0.500000 0.725770
O O13 0.500000 0.500000 0.039681
O O14 0.562105 0.420859 0.921965
O O15 0.569723 0.731179 0.962156
O O16 0.365917 0.997628 0.955963
O O17 0.500000 0.000000 0.294612
O O18 0.500000 0.000000 0.970839
#
# Coordination Sequence:
#
# PCOD8185553 Si02
#       8
#     8   8   8   8   8   8   8   8
#     4  12  26  43  65  97 139 177 217 276 335 390
#     4  12  24  42  69  99 128 177 227 271 325 395
#     4  11  22  40  66  99 134 173 218 270 333 393
#     4  11  22  40  66  99 134 173 218 270 333 393
#     4  12  26  43  65  97 139 177 217 276 335 390
#     4  12  24  42  69  99 128 177 227 271 325 395
#     4  11  22  40  69 101 132 168 220 282 327 384
#     4  11  22  40  69 101 132 168 220 282 327 384
#
# _framework density 21.879857000000001
#
# number of rings (size 3 to 8) (size 9 to 14) (size 15 to 20)
#    0.000    0.500    2.500    9.000    0.000    0.500 
#    0.000    1.250    0.000    5.250    0.000    0.000 
#    0.000    0.000    0.000    0.000    0.000    0.000 
#
# Total GULP energy -396641.288447 kJ/mol
# GULP energy per Si atom -12395.040264 kJ/mol
# Density = 2.183006 g / cm^3
# Si number density = 21.879857 Si / 1000 Ang^3
#
#
#
# Elastic Constant Matrix: (Units=GPa)
#
#
# Indices 1 2 3 4 5 6 
#
# 1 207.4906 48.8070 44.1044 0.0000 0.0000 0.0000
# 2 48.8070 116.5081 32.1776 0.0000 0.0000 0.0000
# 3 44.1044 32.1776 80.6359 0.0000 0.0000 0.0000
# 4 0.0000 0.0000 0.0000 19.2582 0.0000 0.0000
# 5 0.0000 0.0000 0.0000 0.0000 40.6056 0.0000
# 6 0.0000 0.0000 0.0000 0.0000 0.0000 39.3046
#
#
#
# Elastic Compliance Matrix: (Units=1/GPa)
#
#
# Indices 1 2 3 4 5 6 
#
# 1 0.005748 -0.001730 -0.002453 0.000000 0.000000 0.000000
# 2 -0.001730 0.010167 -0.003111 0.000000 0.000000 0.000000
# 3 -0.002453 -0.003111 0.014985 0.000000 0.000000 0.000000
# 4 0.000000 0.000000 0.000000 0.051926 0.000000 0.000000
# 5 0.000000 0.000000 0.000000 0.000000 0.024627 0.000000
# 6 0.000000 0.000000 0.000000 0.000000 0.000000 0.025442
#
#
# Mechanical properties :
#
#
# Convention : Reuss Voigt Hill
#
# Bulk Modulus (GPa) = 61.30916 72.75696 67.03306
# Shear Modulus (GPa) = 32.69662 38.47006 35.58334
#
# Velocity S-wave (km/s) = 3.86990 4.19769 4.03712
# Velocity P-wave (km/s) = 6.93180 7.53785 7.24117
#
# Compressibility (1/GPa) = 0.01631078
#
# Stress axis : x y z
#
# Youngs Moduli (GPa) = 173.97294 98.35650 66.73479
#
# Poissons Ratio (x) = 0.17019 0.16373
# Poissons Ratio (y) = 0.30103 0.20759
# Poissons Ratio (z) = 0.42683 0.30596
#
# Static dielectric constant tensor:
#      x y z
#    x 4.679170 0.000000 0.000000 
#    y 0.000000 4.010260 0.000000 
#    z 0.000000 0.000000 3.530630 
# 
# 
# High freq. dielectric constant tensor:
#      x y z
#    x 1.898600 0.000000 0.000000 
#    y 0.000000 1.869850 0.000000 
#    z 0.000000 0.000000 1.818210 
# 
# From -- ./inp_files/10678.got.cif
#   From: 2010.03.12/outbox.cif.g09.slc.cpg/sg41_6_cif.got.tgz:10678.got - 2010.04.14 01:55:53.
