data_PCOD8185074
_publ_section_title
;
Structure prediction by ZEFSAII (Michael W. Deem and Ramdas Pophale) SiO2 
 PCOD8185074
Probable space group: A B A 2
;
_chemical_formula_sum "Si O2"
_cell_formula_units_Z 48
_cell_length_a 4.943419
_cell_length_b 15.773371
_cell_length_c 28.404856
_cell_angle_alpha 90.000000
_cell_angle_beta 90.000000
_cell_angle_gamma 90.000000
_cell_volume 2214.851089
_symmetry_space_group_name_H-M "A B A 2"
_symmetry_group_IT_number 41
_symmetry_cell_setting 'orthorhombic'
loop_
_space_group_symop_operation_xyz
x,y,z
-x,-y,z
1/2-x,y,1/2+z
1/2+x,-y,1/2+z
x,1/2+y,1/2+z
-x,1/2-y,1/2+z
1/2-x,1/2+y,z
1/2+x,1/2-y,z
loop_
_atom_site_type_symbol
_atom_site_label
_atom_site_fract_x
_atom_site_fract_y
_atom_site_fract_z
Si Si1 0.486177 0.098044 0.350120
Si Si2 0.532479 0.692197 0.507955
Si Si3 0.979454 0.100066 0.410383
Si Si4 0.708829 0.197628 0.264521
Si Si5 0.240942 0.942042 0.581722
Si Si6 0.799471 0.694757 0.157424
O O1 0.192666 0.126021 0.369340
O O2 0.580784 0.131031 0.299814
O O3 0.688688 0.125841 0.391010
O O4 0.500000 0.000000 0.342101
O O5 0.239135 0.731108 0.519215
O O6 0.494979 0.659693 0.455140
O O7 0.624559 0.611032 0.537791
O O8 0.000000 0.000000 0.423391
O O9 0.524437 0.281797 0.272726
O O10 0.695267 0.162998 0.211316
O O11 0.307942 0.881127 0.625175
O O12 0.500000 0.000000 0.567436
O O13 0.000000 0.000000 0.600071
O O14 0.602373 0.774167 0.146523
#
# Coordination Sequence:
#
# PCOD8185074 Si02
#       6
#     8   8   8   8   8   8
#     4  10  21  37  57  84 119 158 197 246 302 358
#     4  12  25  41  63  91 120 158 202 252 306 365
#     4  10  22  39  58  83 119 159 200 248 303 359
#     4  10  21  36  59  86 117 155 196 244 299 355
#     4  12  25  42  65  92 122 160 203 254 309 370
#     4  10  21  41  63  88 122 160 200 250 305 361
#
# _framework density 21.671887999999999
#
# number of rings (size 3 to 8) (size 9 to 14) (size 15 to 20)
#    0.000    1.333    0.000    5.500    0.000    6.667 
#    0.000    2.500    0.000    0.000    0.000    0.000 
#    0.000    0.000    0.000    0.000    0.000    0.000 
#
# Total GULP energy -297455.627986 kJ/mol
# GULP energy per Si atom -12393.984499 kJ/mol
# Density = 2.162256 g / cm^3
# Si number density = 21.671888 Si / 1000 Ang^3
#
#
#
# Elastic Constant Matrix: (Units=GPa)
#
#
# Indices 1 2 3 4 5 6 
#
# 1 75.8263 23.9358 2.6883 0.0000 0.0000 0.0000
# 2 23.9358 56.6774 45.9532 0.0000 0.0000 0.0000
# 3 2.6883 45.9532 92.0144 0.0000 0.0000 0.0000
# 4 0.0000 0.0000 0.0000 17.1048 0.0000 0.0000
# 5 0.0000 0.0000 0.0000 0.0000 38.1480 0.0000
# 6 0.0000 0.0000 0.0000 0.0000 0.0000 37.0244
#
#
#
# Elastic Compliance Matrix: (Units=1/GPa)
#
#
# Indices 1 2 3 4 5 6 
#
# 1 0.016498 -0.011052 0.005037 0.000000 0.000000 0.000000
# 2 -0.011052 0.037052 -0.018181 0.000000 0.000000 0.000000
# 3 0.005037 -0.018181 0.019801 0.000000 0.000000 0.000000
# 4 0.000000 0.000000 0.000000 0.058463 0.000000 0.000000
# 5 0.000000 0.000000 0.000000 0.000000 0.026214 0.000000
# 6 0.000000 0.000000 0.000000 0.000000 0.000000 0.027009
#
#
# Mechanical properties :
#
#
# Convention : Reuss Voigt Hill
#
# Bulk Modulus (GPa) = 40.06485 41.07476 40.56981
# Shear Modulus (GPa) = 20.68264 28.58482 24.63373
#
# Velocity S-wave (km/s) = 3.09261 3.63572 3.37511
# Velocity P-wave (km/s) = 5.59281 6.05134 5.82659
#
# Compressibility (1/GPa) = 0.02495953
#
# Stress axis : x y z
#
# Youngs Moduli (GPa) = 60.61315 26.98890 50.50311
#
# Poissons Ratio (x) = 0.29827 -0.25440
# Poissons Ratio (y) = 0.66987 0.91822
# Poissons Ratio (z) = -0.30533 0.49070
#
# Static dielectric constant tensor:
#      x y z
#    x 4.084620 0.000000 0.000000 
#    y 0.000000 3.789180 0.000000 
#    z 0.000000 0.000000 3.935710 
# 
# 
# High freq. dielectric constant tensor:
#      x y z
#    x 1.871380 0.000000 0.000000 
#    y 0.000000 1.839950 0.000000 
#    z 0.000000 0.000000 1.858110 
# 
# From -- ./inp_files/12616.got.cif
#   From: 2010.03.12/outbox.cif.g09.slc.cpg/sg41_7_cif.got.tgz:12616.got - 2010.04.14 01:55:53.
