data_PCOD8185854
_publ_section_title
;
Structure prediction by ZEFSAII (Michael W. Deem and Ramdas Pophale) SiO2 
 PCOD8185854
Probable space group: F M M 2
;
_chemical_formula_sum "Si O2"
_cell_formula_units_Z 80
_cell_length_a 28.074174
_cell_length_b 20.594559
_cell_length_c 8.969684
_cell_angle_alpha 90.000000
_cell_angle_beta 90.000000
_cell_angle_gamma 90.000000
_cell_volume 5186.049135
_symmetry_space_group_name_H-M "F M M 2"
_symmetry_group_IT_number 42
_symmetry_cell_setting 'orthorhombic'
loop_
_space_group_symop_operation_xyz
x,y,z
-x,-y,z
-x,y,z
x,-y,z
x,1/2+y,1/2+z
-x,1/2-y,1/2+z
-x,1/2+y,1/2+z
x,1/2-y,1/2+z
1/2+x,y,1/2+z
1/2-x,-y,1/2+z
1/2-x,y,1/2+z
1/2+x,-y,1/2+z
1/2+x,1/2+y,z
1/2-x,1/2-y,z
1/2-x,1/2+y,z
1/2+x,1/2-y,z
loop_
_atom_site_type_symbol
_atom_site_label
_atom_site_fract_x
_atom_site_fract_y
_atom_site_fract_z
Si Si1 0.198944 0.000000 0.722620
Si Si2 0.122037 0.070870 0.229701
Si Si3 0.622037 0.429130 0.567321
Si Si4 0.054082 0.183974 0.222043
Si Si5 0.554082 0.683974 0.574979
Si Si6 0.698944 0.500000 0.074401
O O1 0.169990 0.064496 0.667655
O O2 0.250000 0.000000 0.648511
O O3 0.204290 0.000000 0.898511
O O4 0.136975 0.089347 0.398511
O O5 0.086639 0.124853 0.163037
O O6 0.169990 0.064496 0.129367
O O7 0.095886 0.000000 0.228512
O O8 0.595886 0.500000 0.568510
O O9 0.586639 0.375147 0.633986
O O10 0.057127 0.190717 0.398511
O O11 0.000000 0.170250 0.170181
O O12 0.073341 0.250000 0.148511
O O13 0.500000 0.670250 0.626841
#
# Coordination Sequence:
#
# PCOD8185854 Si02
#       6
#     8  16  16  16  16   8
#     4  10  18  30  49  70  91 115 146 187 235 278
#     4   8  16  30  46  67  92 120 154 189 224 266
#     4   8  16  30  46  67  92 120 154 189 224 266
#     4   9  17  29  46  67  94 128 158 186 221 263
#     4   9  17  29  46  67  94 128 158 186 221 263
#     4  10  18  30  49  70  91 115 146 187 235 278
#
# _framework density 15.426002
#
# number of rings (size 3 to 8) (size 9 to 14) (size 15 to 20)
#    1.200    2.000    0.000    1.200    0.000    2.400 
#    0.000    4.000    0.000    2.400    0.000    8.400 
#    0.000    0.000    0.000    0.000    0.000    0.000 
#
# Total GULP energy -247762.230437 kJ/mol
# GULP energy per Si atom -12388.111522 kJ/mol
# Density = 1.539089 g / cm^3
# Si number density = 15.426002 Si / 1000 Ang^3
#
#
#
# Elastic Constant Matrix: (Units=GPa)
#
#
# Indices 1 2 3 4 5 6 
#
# 1 110.0327 73.1912 45.0116 0.0000 0.0000 0.0000
# 2 73.1912 105.4257 35.8637 -0.0001 0.0001 0.0000
# 3 45.0116 35.8637 64.9771 -0.0011 0.0004 -0.0001
# 4 0.0000 -0.0001 -0.0011 24.5609 0.0002 0.0000
# 5 0.0000 0.0001 0.0004 0.0002 23.2512 0.0000
# 6 0.0000 0.0000 -0.0001 0.0000 0.0000 10.9124
#
#
#
# Elastic Compliance Matrix: (Units=1/GPa)
#
#
# Indices 1 2 3 4 5 6 
#
# 1 0.019397 -0.010951 -0.007392 0.000000 0.000000 0.000000
# 2 -0.010951 0.017861 -0.002272 0.000000 0.000000 0.000000
# 3 -0.007392 -0.002272 0.021765 0.000001 0.000000 0.000000
# 4 0.000000 0.000000 0.000001 0.040715 0.000000 0.000000
# 5 0.000000 0.000000 0.000000 0.000000 0.043008 0.000000
# 6 0.000000 0.000000 0.000000 0.000000 0.000000 0.091639
#
#
# Mechanical properties :
#
#
# Convention : Reuss Voigt Hill
#
# Bulk Modulus (GPa) = 56.20616 65.39648 60.80132
# Shear Modulus (GPa) = 17.75900 20.16949 18.96424
#
# Velocity S-wave (km/s) = 3.39667 3.61986 3.51004
# Velocity P-wave (km/s) = 7.20404 7.74318 7.47847
#
# Compressibility (1/GPa) = 0.01779165
#
# Stress axis : x y z
#
# Youngs Moduli (GPa) = 51.55489 55.98721 45.94567
#
# Poissons Ratio (x) = 0.61314 0.33964
# Poissons Ratio (y) = 0.56460 0.10439
# Poissons Ratio (z) = 0.38110 0.12720
#
# Static dielectric constant tensor:
#      x y z
#    x 2.847450 0.000000 0.000000 
#    y 0.000000 2.911800 0.000000 
#    z 0.000000 0.000000 2.835130 
# 
# 
# High freq. dielectric constant tensor:
#      x y z
#    x 1.573230 0.000000 0.000000 
#    y 0.000000 1.576480 0.000000 
#    z 0.000000 0.000000 1.587430 
# 
# From -- ./inp_files/5569.got.cif
#   From: 2010.03.12/outbox.cif.g09.slc.cpg/sg42_3_cif.got.tgz:5569.got - 2010.04.14 02:04:31.
