data_PCOD8185266
_publ_section_title
;
Structure prediction by ZEFSAII (Michael W. Deem and Ramdas Pophale) SiO2 
 PCOD8185266
Probable space group: A B A 2
;
_chemical_formula_sum "Si O2"
_cell_formula_units_Z 36
_cell_length_a 16.745589
_cell_length_b 19.097690
_cell_length_c 5.387927
_cell_angle_alpha 90.000000
_cell_angle_beta 90.000000
_cell_angle_gamma 90.000000
_cell_volume 1723.070195
_symmetry_space_group_name_H-M "A B A 2"
_symmetry_group_IT_number 41
_symmetry_cell_setting 'orthorhombic'
loop_
_space_group_symop_operation_xyz
x,y,z
-x,-y,z
1/2-x,y,1/2+z
1/2+x,-y,1/2+z
x,1/2+y,1/2+z
-x,1/2-y,1/2+z
1/2-x,1/2+y,z
1/2+x,1/2-y,z
loop_
_atom_site_type_symbol
_atom_site_label
_atom_site_fract_x
_atom_site_fract_y
_atom_site_fract_z
Si Si1 0.913125 0.105170 0.192410
Si Si2 0.500000 0.000000 0.337538
Si Si3 0.428351 0.099089 0.979057
Si Si4 0.201000 0.012197 0.263356
Si Si5 0.449607 0.247970 0.062593
O O1 0.831843 0.067594 0.280364
O O2 0.893154 0.183683 0.096742
O O3 0.978797 0.109775 0.408125
O O4 0.951944 0.058310 0.981647
O O5 0.570464 0.960953 0.186826
O O6 0.397794 0.175796 0.069002
O O7 0.372120 0.068583 0.760961
O O8 0.252750 0.026311 0.508802
O O9 0.511541 0.245102 0.290204
#
# Coordination Sequence:
#
# PCOD8185266 Si02
#       5
#     8   4   8   8   8
#     4  11  22  39  64  94 121 163 211 264 310 369
#     4  12  16  36  68  92 120 152 214 254 318 342
#     4  11  22  39  64  94 121 163 211 264 310 369
#     4  12  26  40  61  93 130 168 210 254 310 374
#     4  10  22  36  62  96 124 152 206 268 316 360
#
# _framework density 20.892938999999998
#
# number of rings (size 3 to 8) (size 9 to 14) (size 15 to 20)
#    0.000    0.889    6.667    1.333    0.000    0.000 
#    0.000    2.222    0.000    0.000    0.000    0.000 
#    0.000    0.000    0.000    0.000    0.000    0.000 
#
# Total GULP energy -223058.443998 kJ/mol
# GULP energy per Si atom -12392.135778 kJ/mol
# Density = 2.084539 g / cm^3
# Si number density = 20.892939 Si / 1000 Ang^3
#
#
#
# Elastic Constant Matrix: (Units=GPa)
#
#
# Indices 1 2 3 4 5 6 
#
# 1 39.5801 8.7887 11.1171 0.0000 0.0000 0.0000
# 2 8.7887 175.5805 17.6811 0.0000 0.0000 0.0000
# 3 11.1171 17.6811 94.0226 0.0000 0.0000 0.0000
# 4 0.0000 0.0000 0.0000 29.9305 0.0000 0.0000
# 5 0.0000 0.0000 0.0000 0.0000 29.8558 0.0000
# 6 0.0000 0.0000 0.0000 0.0000 0.0000 15.1446
#
#
#
# Elastic Compliance Matrix: (Units=1/GPa)
#
#
# Indices 1 2 3 4 5 6 
#
# 1 0.026312 -0.001023 -0.002919 0.000000 0.000000 0.000000
# 2 -0.001023 0.005845 -0.000978 0.000000 0.000000 0.000000
# 3 -0.002919 -0.000978 0.011165 0.000000 0.000000 0.000000
# 4 0.000000 0.000000 0.000000 0.033411 0.000000 0.000000
# 5 0.000000 0.000000 0.000000 0.000000 0.033494 0.000000
# 6 0.000000 0.000000 0.000000 0.000000 0.000000 0.066030
#
#
# Mechanical properties :
#
#
# Convention : Reuss Voigt Hill
#
# Bulk Modulus (GPa) = 29.86680 42.70633 36.28657
# Shear Modulus (GPa) = 25.34751 33.09261 29.22006
#
# Velocity S-wave (km/s) = 3.48689 3.98416 3.74379
# Velocity P-wave (km/s) = 5.52607 6.45365 6.00779
#
# Compressibility (1/GPa) = 0.03348199
#
# Stress axis : x y z
#
# Youngs Moduli (GPa) = 38.00516 171.08315 89.56716
#
# Poissons Ratio (x) = 0.17504 0.26142
# Poissons Ratio (y) = 0.03888 0.08762
# Poissons Ratio (z) = 0.11093 0.16735
#
# Static dielectric constant tensor:
#      x y z
#    x 3.784570 0.000000 0.000000 
#    y 0.000000 4.517970 0.000000 
#    z 0.000000 0.000000 3.849140 
# 
# 
# High freq. dielectric constant tensor:
#      x y z
#    x 1.766450 0.000000 0.000000 
#    y 0.000000 1.840350 0.000000 
#    z 0.000000 0.000000 1.830480 
# 
# From -- ./inp_files/210.got.cif
#   From: 2010.03.12/outbox.cif.g09.slc.cpg/sg41_1_cif.got.tgz:210.got - 2010.04.14 01:55:53.
