data_PCOD8185748
_publ_section_title
;
Structure prediction by ZEFSAII (Michael W. Deem and Ramdas Pophale) SiO2 
 PCOD8185748
Probable space group: F M M 2
;
_chemical_formula_sum "Si O2"
_cell_formula_units_Z 112
_cell_length_a 17.720532
_cell_length_b 18.407654
_cell_length_c 21.054852
_cell_angle_alpha 90.000000
_cell_angle_beta 90.000000
_cell_angle_gamma 90.000000
_cell_volume 6867.954218
_symmetry_space_group_name_H-M "F M M 2"
_symmetry_group_IT_number 42
_symmetry_cell_setting 'orthorhombic'
loop_
_space_group_symop_operation_xyz
x,y,z
-x,-y,z
-x,y,z
x,-y,z
x,1/2+y,1/2+z
-x,1/2-y,1/2+z
-x,1/2+y,1/2+z
x,1/2-y,1/2+z
1/2+x,y,1/2+z
1/2-x,-y,1/2+z
1/2-x,y,1/2+z
1/2+x,-y,1/2+z
1/2+x,1/2+y,z
1/2-x,1/2-y,z
1/2-x,1/2+y,z
1/2+x,1/2-y,z
loop_
_atom_site_type_symbol
_atom_site_label
_atom_site_fract_x
_atom_site_fract_y
_atom_site_fract_z
Si Si1 0.675285 0.918144 0.640050
Si Si2 0.085712 0.216392 0.692845
Si Si3 0.912965 0.643874 0.759267
Si Si4 0.648616 0.082001 0.146582
Si Si5 0.910252 0.417978 0.890540
Si Si6 0.833129 0.223530 0.074321
Si Si7 0.911254 0.846563 0.519056
O O1 0.628872 0.897195 0.702558
O O2 0.762650 0.912697 0.657896
O O3 0.658389 0.864068 0.580183
O O4 0.653781 0.000000 0.618855
O O5 0.094556 0.267799 0.754652
O O6 0.107385 0.131346 0.701101
O O7 0.146218 0.245812 0.643107
O O8 0.000000 0.222267 0.666565
O O9 0.878559 0.620552 0.827028
O O10 0.000000 0.619966 0.754302
O O11 0.628179 0.109634 0.076035
O O12 0.619265 0.000000 0.154781
O O13 0.879880 0.500000 0.892181
O O14 0.000000 0.415644 0.890562
O O15 0.879292 0.376607 0.952517
O O16 0.750000 0.250000 0.055916
O O17 0.889948 0.260543 0.023341
O O18 0.000000 0.857773 0.524365
#
# Coordination Sequence:
#
# PCOD8185748 Si02
#       7
#    16  16  16  16  16  16  16
#     4  10  19  29  46  69  93 125 158 191 235 278
#     4   9  17  28  45  68  91 120 156 192 230 279
#     4   9  18  31  48  69  95 124 157 194 235 281
#     4  10  18  28  44  68  97 126 154 190 237 282
#     4   9  17  30  48  71  97 121 148 193 246 284
#     4  10  16  29  46  62  94 126 152 182 227 275
#     4  10  19  30  48  72  94 122 155 190 233 287
#
# _framework density 16.307621999999999
#
# number of rings (size 3 to 8) (size 9 to 14) (size 15 to 20)
#    0.000    2.429    2.857    2.571    0.000    3.143 
#    0.000    0.000    3.143    0.000    0.000    1.000 
#    0.000    3.429    0.000    0.000    0.000    1.143 
#
# Total GULP energy -346901.723754 kJ/mol
# GULP energy per Si atom -12389.347277 kJ/mol
# Density = 1.627051 g / cm^3
# Si number density = 16.307622 Si / 1000 Ang^3
#
#
#
# Elastic Constant Matrix: (Units=GPa)
#
#
# Indices 1 2 3 4 5 6 
#
# 1 50.2220 21.7322 22.3572 0.0000 0.0000 0.0000
# 2 21.7322 158.7247 61.0502 0.0000 0.0000 0.0000
# 3 22.3572 61.0502 85.6596 0.0000 0.0000 0.0000
# 4 0.0000 0.0000 0.0000 28.3021 0.0000 0.0000
# 5 0.0000 0.0000 0.0000 0.0000 4.5653 0.0000
# 6 0.0000 0.0000 0.0000 0.0000 0.0000 24.5707
#
#
#
# Elastic Compliance Matrix: (Units=1/GPa)
#
#
# Indices 1 2 3 4 5 6 
#
# 1 0.022678 -0.001141 -0.005106 0.000000 0.000000 0.000000
# 2 -0.001141 0.008737 -0.005929 0.000000 0.000000 0.000000
# 3 -0.005106 -0.005929 0.017232 0.000000 0.000000 0.000000
# 4 0.000000 0.000000 0.000000 0.035333 0.000000 0.000000
# 5 0.000000 0.000000 0.000000 0.000000 0.219045 0.000000
# 6 0.000000 0.000000 0.000000 0.000000 0.000000 0.040699
#
#
# Mechanical properties :
#
#
# Convention : Reuss Voigt Hill
#
# Bulk Modulus (GPa) = 41.15952 56.09841 48.62897
# Shear Modulus (GPa) = 13.29169 24.11873 18.70521
#
# Velocity S-wave (km/s) = 2.85802 3.84993 3.39045
# Velocity P-wave (km/s) = 6.01542 7.36461 6.72394
#
# Compressibility (1/GPa) = 0.02429572
#
# Stress axis : x y z
#
# Youngs Moduli (GPa) = 44.09493 114.45640 58.03037
#
# Poissons Ratio (x) = 0.13063 0.29628
# Poissons Ratio (y) = 0.05032 0.34406
# Poissons Ratio (z) = 0.22513 0.67861
#
# Static dielectric constant tensor:
#      x y z
#    x 3.001830 0.000000 0.000000 
#    y 0.000000 3.705800 0.000000 
#    z 0.000000 0.000000 2.967680 
# 
# 
# High freq. dielectric constant tensor:
#      x y z
#    x 1.618760 0.000000 0.000000 
#    y 0.000000 1.640750 0.000000 
#    z 0.000000 0.000000 1.585240 
# 
# From -- ./inp_files/26083.got.cif
#   From: 2010.03.12/outbox.cif.g09.slc.cpg/sg42_14_cif.got.tgz:26083.got - 2010.04.14 02:04:31.
