data_PCOD8185759
_publ_section_title
;
Structure prediction by ZEFSAII (Michael W. Deem and Ramdas Pophale) SiO2 
 PCOD8185759
Probable space group: F M M 2
;
_chemical_formula_sum "Si O2"
_cell_formula_units_Z 96
_cell_length_a 30.939899
_cell_length_b 8.795259
_cell_length_c 20.131082
_cell_angle_alpha 90.000000
_cell_angle_beta 90.000000
_cell_angle_gamma 90.000000
_cell_volume 5478.159117
_symmetry_space_group_name_H-M "F M M 2"
_symmetry_group_IT_number 42
_symmetry_cell_setting 'orthorhombic'
loop_
_space_group_symop_operation_xyz
x,y,z
-x,-y,z
-x,y,z
x,-y,z
x,1/2+y,1/2+z
-x,1/2-y,1/2+z
-x,1/2+y,1/2+z
x,1/2-y,1/2+z
1/2+x,y,1/2+z
1/2-x,-y,1/2+z
1/2-x,y,1/2+z
1/2+x,-y,1/2+z
1/2+x,1/2+y,z
1/2-x,1/2-y,z
1/2-x,1/2+y,z
1/2+x,1/2-y,z
loop_
_atom_site_type_symbol
_atom_site_label
_atom_site_fract_x
_atom_site_fract_y
_atom_site_fract_z
Si Si1 0.619471 0.819653 0.317310
Si Si2 0.709220 0.322686 0.961781
Si Si3 0.292947 0.320400 0.317597
Si Si4 0.548985 0.680185 0.074297
Si Si5 0.451052 0.321622 0.712009
Si Si6 0.114348 0.823486 0.966676
O O1 0.662788 0.745265 0.286056
O O2 0.579133 0.768830 0.272501
O O3 0.610650 0.756278 0.392017
O O4 0.626301 0.000000 0.318644
O O5 0.717364 0.500000 0.947327
O O6 0.750000 0.250000 0.002919
O O7 0.707318 0.229836 0.893825
O O8 0.662768 0.298539 0.997079
O O9 0.291984 0.500000 0.309671
O O10 0.250000 0.250000 0.282308
O O11 0.500000 0.733454 0.059638
O O12 0.552663 0.500000 0.076456
O O13 0.565072 0.742123 0.144874
O O14 0.579594 0.751226 0.016684
O O15 0.500000 0.272099 0.729476
O O16 0.447712 0.500000 0.700544
O O17 0.103431 0.000000 0.961420
#
# Coordination Sequence:
#
# PCOD8185759 Si02
#       6
#    16  16  16  16  16  16
#     4   9  17  30  47  68  94 121 153 192 229 267
#     4   9  15  25  41  62  90 120 150 184 222 267
#     4  10  17  26  42  65  93 122 152 185 225 272
#     4   9  17  30  48  67  88 117 152 187 225 274
#     4   9  18  32  49  68  91 121 154 188 229 275
#     4   8  15  27  44  67  91 115 146 186 226 260
#
# _framework density 17.524134
#
# number of rings (size 3 to 8) (size 9 to 14) (size 15 to 20)
#    0.000    3.000    0.000    4.000    0.000    1.333 
#    0.000    7.500    0.000    1.000    0.000    9.333 
#    0.000    0.000    0.000    0.000    0.000    0.000 
#
# Total GULP energy -297377.751697 kJ/mol
# GULP energy per Si atom -12390.739654 kJ/mol
# Density = 1.748425 g / cm^3
# Si number density = 17.524134 Si / 1000 Ang^3
#
#
#
# Elastic Constant Matrix: (Units=GPa)
#
#
# Indices 1 2 3 4 5 6 
#
# 1 152.2956 40.2667 76.9894 0.0000 0.0000 0.0000
# 2 40.2667 51.7710 23.7917 0.0000 0.0000 0.0000
# 3 76.9894 23.7917 81.5286 0.0000 0.0000 0.0000
# 4 0.0000 0.0000 0.0000 17.5210 0.0000 0.0000
# 5 0.0000 0.0000 0.0000 0.0000 8.5910 0.0000
# 6 0.0000 0.0000 0.0000 0.0000 0.0000 26.5193
#
#
#
# Elastic Compliance Matrix: (Units=1/GPa)
#
#
# Indices 1 2 3 4 5 6 
#
# 1 0.013788 -0.005475 -0.011423 0.000000 0.000000 0.000000
# 2 -0.005475 0.024481 -0.001974 0.000000 0.000000 0.000000
# 3 -0.011423 -0.001974 0.023629 0.000000 0.000000 0.000000
# 4 0.000000 0.000000 0.000000 0.057075 0.000000 0.000000
# 5 0.000000 0.000000 0.000000 0.000000 0.116401 0.000000
# 6 0.000000 0.000000 0.000000 0.000000 0.000000 0.037708
#
#
# Mechanical properties :
#
#
# Convention : Reuss Voigt Hill
#
# Bulk Modulus (GPa) = 41.40016 63.07675 52.23846
# Shear Modulus (GPa) = 15.67999 20.16274 17.92137
#
# Velocity S-wave (km/s) = 2.99451 3.39568 3.20139
# Velocity P-wave (km/s) = 5.96926 7.17263 6.59843
#
# Compressibility (1/GPa) = 0.02415449
#
# Stress axis : x y z
#
# Youngs Moduli (GPa) = 72.52504 40.84746 42.32140
#
# Poissons Ratio (x) = 0.22363 0.48344
# Poissons Ratio (y) = 0.39707 0.08355
# Poissons Ratio (z) = 0.82845 0.08064
#
# Static dielectric constant tensor:
#      x y z
#    x 4.111680 0.000000 0.000000 
#    y 0.000000 3.110130 0.000000 
#    z 0.000000 0.000000 3.024470 
# 
# 
# High freq. dielectric constant tensor:
#      x y z
#    x 1.699400 0.000000 0.000000 
#    y 0.000000 1.660960 0.000000 
#    z 0.000000 0.000000 1.626960 
# 
# From -- ./inp_files/30600.got.cif
#   From: 2010.03.12/outbox.cif.g09.slc.cpg/sg42_16_cif.got.tgz:30600.got - 2010.04.14 02:04:31.
