data_PCOD8185200
_publ_section_title
;
Structure prediction by ZEFSAII (Michael W. Deem and Ramdas Pophale) SiO2 
 PCOD8185200
Probable space group: A B A 2
;
_chemical_formula_sum "Si O2"
_cell_formula_units_Z 64
_cell_length_a 19.970301
_cell_length_b 9.369803
_cell_length_c 15.181594
_cell_angle_alpha 90.000000
_cell_angle_beta 90.000000
_cell_angle_gamma 90.000000
_cell_volume 2840.746261
_symmetry_space_group_name_H-M "A B A 2"
_symmetry_group_IT_number 41
_symmetry_cell_setting 'orthorhombic'
loop_
_space_group_symop_operation_xyz
x,y,z
-x,-y,z
1/2-x,y,1/2+z
1/2+x,-y,1/2+z
x,1/2+y,1/2+z
-x,1/2-y,1/2+z
1/2-x,1/2+y,z
1/2+x,1/2-y,z
loop_
_atom_site_type_symbol
_atom_site_label
_atom_site_fract_x
_atom_site_fract_y
_atom_site_fract_z
Si Si1 0.035155 0.855700 0.442820
Si Si2 0.699516 0.710846 0.003848
Si Si3 0.287185 0.520083 0.273701
Si Si4 0.110456 0.464430 0.628384
Si Si5 0.322430 0.321830 0.804785
Si Si6 0.983145 0.286762 0.618814
Si Si7 0.680115 0.534024 0.476352
Si Si8 0.978883 0.155201 0.799279
O O1 0.997769 0.779911 0.524428
O O2 0.108268 0.890941 0.480329
O O3 0.027619 0.759012 0.355343
O O4 0.000000 0.000000 0.414666
O O5 0.706739 0.688996 0.901037
O O6 0.771842 0.643310 0.030685
O O7 0.686753 0.878627 0.026023
O O8 0.641897 0.608642 0.042056
O O9 0.338690 0.440184 0.209022
O O10 0.210764 0.462279 0.259001
O O11 0.293086 0.687137 0.250478
O O12 0.307932 0.491091 0.373438
O O13 0.088672 0.630011 0.612754
O O14 0.041542 0.389167 0.651318
O O15 0.401303 0.318937 0.818726
O O16 0.983534 0.166547 0.693973
O O17 0.000000 0.000000 0.830553
#
# Coordination Sequence:
#
# PCOD8185200 Si02
#       8
#     8   8   8   8   8   8   8   8
#     4  12  26  45  74 101 142 191 239 295 368 436
#     4  10  23  40  66  98 140 176 233 298 340 438
#     4  10  21  41  66  94 132 180 225 294 336 436
#     4  11  23  41  69  99 137 183 234 287 368 410
#     4  10  22  42  64  97 135 177 232 278 357 414
#     4  11  26  43  68 101 145 180 238 297 352 437
#     4  10  23  42  68  98 135 184 237 283 367 424
#     4  12  27  44  73 105 144 184 238 304 363 429
#
# _framework density 22.529292000000002
#
# number of rings (size 3 to 8) (size 9 to 14) (size 15 to 20)
#    0.000    1.250    1.250    4.125    7.000    6.000 
#    0.000    0.000    0.000    0.000    0.000    0.000 
#    0.000    0.000    0.000    0.000    0.000    0.000 
#
# Total GULP energy -396494.737866 kJ/mol
# GULP energy per Si atom -12390.460558 kJ/mol
# Density = 2.247801 g / cm^3
# Si number density = 22.529292 Si / 1000 Ang^3
#
#
#
# Elastic Constant Matrix: (Units=GPa)
#
#
# Indices 1 2 3 4 5 6 
#
# 1 115.4602 55.8883 3.9017 0.0000 0.0000 0.0000
# 2 55.8883 145.7052 35.9905 0.0000 0.0000 0.0000
# 3 3.9017 35.9905 61.8771 0.0000 0.0000 0.0000
# 4 0.0000 0.0000 0.0000 33.6526 0.0000 0.0000
# 5 0.0000 0.0000 0.0000 0.0000 29.2340 0.0000
# 6 0.0000 0.0000 0.0000 0.0000 0.0000 38.7768
#
#
#
# Elastic Compliance Matrix: (Units=1/GPa)
#
#
# Indices 1 2 3 4 5 6 
#
# 1 0.010849 -0.004662 0.002028 0.000000 0.000000 0.000000
# 2 -0.004662 0.010018 -0.005533 0.000000 0.000000 0.000000
# 3 0.002028 -0.005533 0.019251 0.000000 0.000000 0.000000
# 4 0.000000 0.000000 0.000000 0.029715 0.000000 0.000000
# 5 0.000000 0.000000 0.000000 0.000000 0.034207 0.000000
# 6 0.000000 0.000000 0.000000 0.000000 0.000000 0.025789
#
#
# Mechanical properties :
#
#
# Convention : Reuss Voigt Hill
#
# Bulk Modulus (GPa) = 42.04576 57.17818 49.61197
# Shear Modulus (GPa) = 32.44796 35.48349 33.96573
#
# Velocity S-wave (km/s) = 3.79919 3.97292 3.88703
# Velocity P-wave (km/s) = 6.16022 6.81763 6.49725
#
# Compressibility (1/GPa) = 0.02378361
#
# Stress axis : x y z
#
# Youngs Moduli (GPa) = 92.17224 99.81817 51.94402
#
# Poissons Ratio (x) = 0.46538 -0.10533
# Poissons Ratio (y) = 0.42974 0.28741
# Poissons Ratio (z) = -0.18690 0.55230
#
# Static dielectric constant tensor:
#      x y z
#    x 4.275460 0.000000 0.000000 
#    y 0.000000 4.455510 0.000000 
#    z 0.000000 0.000000 3.818250 
# 
# 
# High freq. dielectric constant tensor:
#      x y z
#    x 1.891730 0.000000 0.000000 
#    y 0.000000 1.893480 0.000000 
#    z 0.000000 0.000000 1.878420 
# 
# From -- ./inp_files/10687.got.cif
#   From: 2010.03.12/outbox.cif.g09.slc.cpg/sg41_6_cif.got.tgz:10687.got - 2010.04.14 01:55:53.
