data_PCOD8185332
_publ_section_title
;
Structure prediction by ZEFSAII (Michael W. Deem and Ramdas Pophale) SiO2 
 PCOD8185332
Probable space group: A B A 2
;
_chemical_formula_sum "Si O2"
_cell_formula_units_Z 40
_cell_length_a 5.302708
_cell_length_b 22.137789
_cell_length_c 14.540558
_cell_angle_alpha 90.000000
_cell_angle_beta 90.000000
_cell_angle_gamma 90.000000
_cell_volume 1706.919460
_symmetry_space_group_name_H-M "A B A 2"
_symmetry_group_IT_number 41
_symmetry_cell_setting 'orthorhombic'
loop_
_space_group_symop_operation_xyz
x,y,z
-x,-y,z
1/2-x,y,1/2+z
1/2+x,-y,1/2+z
x,1/2+y,1/2+z
-x,1/2-y,1/2+z
1/2-x,1/2+y,z
1/2+x,1/2-y,z
loop_
_atom_site_type_symbol
_atom_site_label
_atom_site_fract_x
_atom_site_fract_y
_atom_site_fract_z
Si Si1 0.215362 0.712862 0.717030
Si Si2 0.249906 0.944168 0.840845
Si Si3 0.500000 0.000000 0.495304
Si Si4 0.735522 0.371408 0.375180
Si Si5 0.000000 0.500000 0.181142
Si Si6 0.250565 0.104271 0.079799
O O1 0.479696 0.744599 0.693613
O O2 0.219470 0.693384 0.824185
O O3 0.181438 0.653690 0.654623
O O4 0.511624 0.910523 0.832020
O O5 0.010092 0.899258 0.853256
O O6 0.233243 0.983542 0.747863
O O7 0.243122 0.991414 0.927370
O O8 0.483402 0.059488 0.558167
O O9 0.678812 0.362543 0.483750
O O10 0.964162 0.440985 0.117580
#
# Coordination Sequence:
#
# PCOD8185332 Si02
#       6
#     8   8   4   8   4   8
#     4  12  29  50  74 101 139 195 254 299 346 413
#     4  10  22  41  70 103 152 186 222 280 371 434
#     4   9  22  40  67 116 146 182 227 288 375 450
#     4  11  24  48  69 101 144 192 235 294 354 425
#     4  11  22  38  71 118 148 188 223 300 365 456
#     4  11  25  43  75 112 146 190 237 299 365 440
#
# _framework density 23.434028000000001
#
# number of rings (size 3 to 8) (size 9 to 14) (size 15 to 20)
#    0.000    1.200    2.000    2.400    2.800   11.200 
#    0.000    0.000    0.000    0.000    0.000    0.000 
#    0.000    0.000    0.000    0.000    0.000    0.000 
#
# Total GULP energy -247817.074342 kJ/mol
# GULP energy per Si atom -12390.853717 kJ/mol
# Density = 2.338069 g / cm^3
# Si number density = 23.434028 Si / 1000 Ang^3
#
#
#
# Elastic Constant Matrix: (Units=GPa)
#
#
# Indices 1 2 3 4 5 6 
#
# 1 117.6500 34.5502 22.5532 0.0000 0.0000 0.0000
# 2 34.5502 118.0951 61.1192 0.0000 0.0000 0.0000
# 3 22.5532 61.1192 151.4403 0.0000 0.0000 0.0000
# 4 0.0000 0.0000 0.0000 45.7253 0.0000 0.0000
# 5 0.0000 0.0000 0.0000 0.0000 16.9123 0.0000
# 6 0.0000 0.0000 0.0000 0.0000 0.0000 40.1811
#
#
#
# Elastic Compliance Matrix: (Units=1/GPa)
#
#
# Indices 1 2 3 4 5 6 
#
# 1 0.009314 -0.002537 -0.000363 0.000000 0.000000 0.000000
# 2 -0.002537 0.011394 -0.004221 0.000000 0.000000 0.000000
# 3 -0.000363 -0.004221 0.008361 0.000000 0.000000 0.000000
# 4 0.000000 0.000000 0.000000 0.021870 0.000000 0.000000
# 5 0.000000 0.000000 0.000000 0.000000 0.059129 0.000000
# 6 0.000000 0.000000 0.000000 0.000000 0.000000 0.024887
#
#
# Mechanical properties :
#
#
# Convention : Reuss Voigt Hill
#
# Bulk Modulus (GPa) = 67.44219 69.29230 68.36725
# Shear Modulus (GPa) = 32.43801 38.49458 35.46630
#
# Velocity S-wave (km/s) = 3.72456 4.05739 3.89453
# Velocity P-wave (km/s) = 6.88030 7.18215 7.03284
#
# Compressibility (1/GPa) = 0.01482751
#
# Stress axis : x y z
#
# Youngs Moduli (GPa) = 107.35968 87.76202 119.60555
#
# Poissons Ratio (x) = 0.22266 0.04344
# Poissons Ratio (y) = 0.27238 0.50483
# Poissons Ratio (z) = 0.03900 0.37043
#
# Static dielectric constant tensor:
#      x y z
#    x 3.958070 0.000000 0.000000 
#    y 0.000000 4.392780 0.000000 
#    z 0.000000 0.000000 4.748130 
# 
# 
# High freq. dielectric constant tensor:
#      x y z
#    x 1.922180 0.000000 0.000000 
#    y 0.000000 1.913010 0.000000 
#    z 0.000000 0.000000 1.948170 
# 
# From -- ./inp_files/6833.got.cif
#   From: 2010.03.12/outbox.cif.g09.slc.cpg/sg41_4_cif.got.tgz:6833.got - 2010.04.14 01:55:53.
