data_PCOD8185625
_publ_section_title
;
Structure prediction by ZEFSAII (Michael W. Deem and Ramdas Pophale) SiO2 
 PCOD8185625
Probable space group: A B A 2
;
_chemical_formula_sum "Si O2"
_cell_formula_units_Z 48
_cell_length_a 9.870061
_cell_length_b 9.847518
_cell_length_c 24.965355
_cell_angle_alpha 90.000000
_cell_angle_beta 90.000000
_cell_angle_gamma 90.000000
_cell_volume 2426.522742
_symmetry_space_group_name_H-M "A B A 2"
_symmetry_group_IT_number 41
_symmetry_cell_setting 'orthorhombic'
loop_
_space_group_symop_operation_xyz
x,y,z
-x,-y,z
1/2-x,y,1/2+z
1/2+x,-y,1/2+z
x,1/2+y,1/2+z
-x,1/2-y,1/2+z
1/2-x,1/2+y,z
1/2+x,1/2-y,z
loop_
_atom_site_type_symbol
_atom_site_label
_atom_site_fract_x
_atom_site_fract_y
_atom_site_fract_z
Si Si1 0.997939 0.337251 0.308870
Si Si2 0.500977 0.341629 0.685334
Si Si3 0.251839 0.227917 0.622531
Si Si4 0.249780 0.761134 0.371461
Si Si5 0.657691 0.522609 0.058423
Si Si6 0.662450 0.989381 0.434880
O O1 0.104351 0.251228 0.343576
O O2 0.000000 0.500000 0.321464
O O3 0.030311 0.311061 0.247017
O O4 0.856477 0.266679 0.323903
O O5 0.500000 0.500000 0.673179
O O6 0.394354 0.268898 0.647232
O O7 0.646896 0.279746 0.671467
O O8 0.201432 0.329328 0.576937
O O9 0.259454 0.083545 0.593749
O O10 0.221074 0.656707 0.419251
O O11 0.247606 0.908265 0.399249
O O12 0.500000 0.500000 0.067591
O O13 0.696908 0.511008 0.996550
O O14 0.500000 0.000000 0.424016
#
# Coordination Sequence:
#
# PCOD8185625 Si02
#       6
#     8   8   8   8   8   8
#     4  11  24  43  64  94 131 168 209 271 322 367
#     4  11  24  41  66  94 131 166 213 267 318 375
#     4  12  22  44  64  98 124 172 214 256 324 378
#     4  12  20  46  64  92 126 168 212 254 328 372
#     4  11  24  41  66  94 131 166 213 267 318 375
#     4  11  24  43  64  94 131 168 209 271 322 367
#
# _framework density 19.781393000000001
#
# number of rings (size 3 to 8) (size 9 to 14) (size 15 to 20)
#    0.000    0.667    6.667    2.000    0.000    0.667 
#    0.000    3.333    0.000    0.000    0.000    0.000 
#    0.000    0.000    0.000    0.000    0.000    0.000 
#
# Total GULP energy -297594.506239 kJ/mol
# GULP energy per Si atom -12399.771093 kJ/mol
# Density = 1.973637 g / cm^3
# Si number density = 19.781393 Si / 1000 Ang^3
#
#
#
# Elastic Constant Matrix: (Units=GPa)
#
#
# Indices 1 2 3 4 5 6 
#
# 1 85.0004 21.2727 23.2751 0.0000 0.0000 0.0000
# 2 21.2727 63.5245 17.5319 0.0000 0.0000 0.0000
# 3 23.2751 17.5319 104.6180 0.0000 0.0000 0.0000
# 4 0.0000 0.0000 0.0000 28.3060 0.0000 0.0000
# 5 0.0000 0.0000 0.0000 0.0000 26.0838 0.0000
# 6 0.0000 0.0000 0.0000 0.0000 0.0000 36.2313
#
#
#
# Elastic Compliance Matrix: (Units=1/GPa)
#
#
# Indices 1 2 3 4 5 6 
#
# 1 0.013362 -0.003831 -0.002331 0.000000 0.000000 0.000000
# 2 -0.003831 0.017604 -0.002098 0.000000 0.000000 0.000000
# 3 -0.002331 -0.002098 0.010429 0.000000 0.000000 0.000000
# 4 0.000000 0.000000 0.000000 0.035328 0.000000 0.000000
# 5 0.000000 0.000000 0.000000 0.000000 0.038338 0.000000
# 6 0.000000 0.000000 0.000000 0.000000 0.000000 0.027600
#
#
# Mechanical properties :
#
#
# Convention : Reuss Voigt Hill
#
# Bulk Modulus (GPa) = 40.20095 41.92246 41.06170
# Shear Modulus (GPa) = 29.85580 30.86176 30.35878
#
# Velocity S-wave (km/s) = 3.88917 3.95415 3.92179
# Velocity P-wave (km/s) = 6.36665 6.48737 6.42729
#
# Compressibility (1/GPa) = 0.02487504
#
# Stress axis : x y z
#
# Youngs Moduli (GPa) = 74.84100 56.80573 95.88989
#
# Poissons Ratio (x) = 0.21764 0.22348
# Poissons Ratio (y) = 0.28673 0.20115
# Poissons Ratio (z) = 0.17443 0.11916
#
# Static dielectric constant tensor:
#      x y z
#    x 3.619370 0.000000 0.000000 
#    y 0.000000 3.595430 0.000000 
#    z 0.000000 0.000000 3.690470 
# 
# 
# High freq. dielectric constant tensor:
#      x y z
#    x 1.772650 0.000000 0.000000 
#    y 0.000000 1.772150 0.000000 
#    z 0.000000 0.000000 1.790380 
# 
# From -- ./inp_files/12663.got.cif
#   From: 2010.03.12/outbox.cif.g09.slc.cpg/sg41_7_cif.got.tgz:12663.got - 2010.04.14 01:55:53.
