data_PCOD8185396
_publ_section_title
;
Structure prediction by ZEFSAII (Michael W. Deem and Ramdas Pophale) SiO2 
 PCOD8185396
Probable space group: A B A 2
;
_chemical_formula_sum "Si O2"
_cell_formula_units_Z 40
_cell_length_a 9.513138
_cell_length_b 19.736017
_cell_length_c 9.961236
_cell_angle_alpha 90.000000
_cell_angle_beta 90.000000
_cell_angle_gamma 90.000000
_cell_volume 1870.236536
_symmetry_space_group_name_H-M "A B A 2"
_symmetry_group_IT_number 41
_symmetry_cell_setting 'orthorhombic'
loop_
_space_group_symop_operation_xyz
x,y,z
-x,-y,z
1/2-x,y,1/2+z
1/2+x,-y,1/2+z
x,1/2+y,1/2+z
-x,1/2-y,1/2+z
1/2-x,1/2+y,z
1/2+x,1/2-y,z
loop_
_atom_site_type_symbol
_atom_site_label
_atom_site_fract_x
_atom_site_fract_y
_atom_site_fract_z
Si Si1 0.456425 0.793570 0.495100
Si Si2 0.242171 0.696393 0.884962
Si Si3 0.878821 0.553858 0.503849
Si Si4 0.897764 0.833507 0.635575
Si Si5 0.115008 0.945089 0.694936
O O1 0.350399 0.765681 0.377602
O O2 0.610625 0.779783 0.443382
O O3 0.435298 0.871226 0.532969
O O4 0.433921 0.747097 0.628047
O O5 0.271665 0.657911 0.744810
O O6 0.164856 0.644039 0.989582
O O7 0.834155 0.546612 0.348256
O O8 0.744944 0.542118 0.597338
O O9 0.000000 0.500000 0.540595
O O10 0.039182 0.872654 0.675654
O O11 0.000000 0.000000 0.655833
#
# Coordination Sequence:
#
# PCOD8185396 Si02
#       5
#     8   8   8   8   8
#     4  10  23  39  67  96 138 174 228 285 344 413
#     4  10  23  38  67  95 142 169 230 276 357 399
#     4  11  26  46  71 101 140 187 234 296 351 432
#     4  10  24  41  66 105 133 183 223 296 344 427
#     4  11  26  48  70  99 145 181 243 287 357 427
#
# _framework density 21.387668999999999
#
# number of rings (size 3 to 8) (size 9 to 14) (size 15 to 20)
#    1.200    0.400    2.000    1.200    8.400    0.800 
#    3.600    0.000    0.000    0.000    0.000    0.000 
#    0.000    0.000    0.000    0.000    0.000    0.000 
#
# Total GULP energy -247787.586460 kJ/mol
# GULP energy per Si atom -12389.379323 kJ/mol
# Density = 2.133899 g / cm^3
# Si number density = 21.387669 Si / 1000 Ang^3
#
#
#
# Elastic Constant Matrix: (Units=GPa)
#
#
# Indices 1 2 3 4 5 6 
#
# 1 135.3647 53.7062 52.5806 0.0000 0.0000 0.0000
# 2 53.7062 107.4168 52.0613 0.0000 0.0000 0.0000
# 3 52.5806 52.0613 116.2828 0.0000 0.0000 0.0000
# 4 0.0000 0.0000 0.0000 22.7707 0.0000 0.0000
# 5 0.0000 0.0000 0.0000 0.0000 43.3397 0.0000
# 6 0.0000 0.0000 0.0000 0.0000 0.0000 28.9919
#
#
#
# Elastic Compliance Matrix: (Units=1/GPa)
#
#
# Indices 1 2 3 4 5 6 
#
# 1 0.009924 -0.003559 -0.002894 0.000000 0.000000 0.000000
# 2 -0.003559 0.013166 -0.004285 0.000000 0.000000 0.000000
# 3 -0.002894 -0.004285 0.011827 0.000000 0.000000 0.000000
# 4 0.000000 0.000000 0.000000 0.043916 0.000000 0.000000
# 5 0.000000 0.000000 0.000000 0.000000 0.023074 0.000000
# 6 0.000000 0.000000 0.000000 0.000000 0.000000 0.034492
#
#
# Mechanical properties :
#
#
# Convention : Reuss Voigt Hill
#
# Bulk Modulus (GPa) = 74.40410 75.08450 74.74430
# Shear Modulus (GPa) = 30.79685 32.40155 31.59920
#
# Velocity S-wave (km/s) = 3.79876 3.89648 3.84793
# Velocity P-wave (km/s) = 7.35559 7.44487 7.40036
#
# Compressibility (1/GPa) = 0.01344012
#
# Stress axis : x y z
#
# Youngs Moduli (GPa) = 100.77027 75.95390 84.55391
#
# Poissons Ratio (x) = 0.27032 0.24468
# Poissons Ratio (y) = 0.35865 0.36233
# Poissons Ratio (z) = 0.29161 0.32548
#
# Static dielectric constant tensor:
#      x y z
#    x 4.216570 0.000000 0.000000 
#    y 0.000000 3.737650 0.000000 
#    z 0.000000 0.000000 4.007850 
# 
# 
# High freq. dielectric constant tensor:
#      x y z
#    x 1.845940 0.000000 0.000000 
#    y 0.000000 1.825390 0.000000 
#    z 0.000000 0.000000 1.838330 
# 
# From -- ./inp_files/1715.got.cif
#   From: 2010.03.12/outbox.cif.g09.slc.cpg/sg41_1_cif.got.tgz:1715.got - 2010.04.14 01:55:53.
