data_PCOD8185815
_publ_section_title
;
Structure prediction by ZEFSAII (Michael W. Deem and Ramdas Pophale) SiO2 
 PCOD8185815
Probable space group: F M M 2
;
_chemical_formula_sum "Si O2"
_cell_formula_units_Z 96
_cell_length_a 18.447260
_cell_length_b 20.179118
_cell_length_c 14.113167
_cell_angle_alpha 90.000000
_cell_angle_beta 90.000000
_cell_angle_gamma 90.000000
_cell_volume 5253.618460
_symmetry_space_group_name_H-M "F M M 2"
_symmetry_group_IT_number 42
_symmetry_cell_setting 'orthorhombic'
loop_
_space_group_symop_operation_xyz
x,y,z
-x,-y,z
-x,y,z
x,-y,z
x,1/2+y,1/2+z
-x,1/2-y,1/2+z
-x,1/2+y,1/2+z
x,1/2-y,1/2+z
1/2+x,y,1/2+z
1/2-x,-y,1/2+z
1/2-x,y,1/2+z
1/2+x,-y,1/2+z
1/2+x,1/2+y,z
1/2-x,1/2-y,z
1/2-x,1/2+y,z
1/2+x,1/2-y,z
loop_
_atom_site_type_symbol
_atom_site_label
_atom_site_fract_x
_atom_site_fract_y
_atom_site_fract_z
Si Si1 0.721882 0.323920 0.074870
Si Si2 0.917127 0.798861 0.176933
Si Si3 0.082893 0.187787 0.395807
Si Si4 0.856465 0.847650 0.684687
Si Si5 0.310638 0.200277 0.375464
Si Si6 0.916566 0.572582 0.031263
O O1 0.750000 0.250000 0.093135
O O2 0.641184 0.339366 0.114866
O O3 0.781727 0.366136 0.130027
O O4 0.722804 0.340989 0.962676
O O5 0.909221 0.825575 0.284005
O O6 0.895655 0.722190 0.166485
O O7 0.000000 0.809395 0.141421
O O8 0.126103 0.254631 0.421826
O O9 0.116103 0.126888 0.457287
O O10 0.000000 0.200857 0.424716
O O11 0.840459 0.851195 0.797277
O O12 0.909086 0.903577 0.641318
O O13 0.250000 0.250000 0.329184
O O14 0.879750 0.500000 0.017705
O O15 0.000000 0.565159 0.006437
#
# Coordination Sequence:
#
# PCOD8185815 Si02
#       6
#    16  16  16  16  16  16
#     4   9  17  27  43  66  94 126 152 185 233 284
#     4   9  16  27  45  70  98 124 151 192 244 288
#     4   9  17  28  44  68  95 121 155 197 237 277
#     4  10  18  29  45  66  94 124 157 195 237 282
#     4  10  18  28  45  70  97 125 153 192 242 288
#     4  10  20  33  49  69  95 129 164 195 229 275
#
# _framework density 18.273119999999999
#
# number of rings (size 3 to 8) (size 9 to 14) (size 15 to 20)
#    0.000    2.500    0.000    6.000    0.000    2.667 
#    0.000    0.000    0.000    9.000    0.000    0.000 
#    0.000    2.667    0.000    0.000    0.000    0.000 
#
# Total GULP energy -297327.326411 kJ/mol
# GULP energy per Si atom -12388.638600 kJ/mol
# Density = 1.823153 g / cm^3
# Si number density = 18.273120 Si / 1000 Ang^3
#
#
#
# Elastic Constant Matrix: (Units=GPa)
#
#
# Indices 1 2 3 4 5 6 
#
# 1 74.6648 12.2632 26.8794 0.0000 0.0000 0.0000
# 2 12.2632 61.7615 41.7549 0.0000 0.0000 0.0000
# 3 26.8794 41.7549 99.1032 0.0000 0.0000 0.0000
# 4 0.0000 0.0000 0.0000 16.1178 0.0000 0.0000
# 5 0.0000 0.0000 0.0000 0.0000 30.3740 0.0000
# 6 0.0000 0.0000 0.0000 0.0000 0.0000 10.2336
#
#
#
# Elastic Compliance Matrix: (Units=1/GPa)
#
#
# Indices 1 2 3 4 5 6 
#
# 1 0.014847 -0.000315 -0.003894 0.000000 0.000000 0.000000
# 2 -0.000315 0.022647 -0.009456 0.000000 0.000000 0.000000
# 3 -0.003894 -0.009456 0.015131 0.000000 0.000000 0.000000
# 4 0.000000 0.000000 0.000000 0.062043 0.000000 0.000000
# 5 0.000000 0.000000 0.000000 0.000000 0.032923 0.000000
# 6 0.000000 0.000000 0.000000 0.000000 0.000000 0.097718
#
#
# Mechanical properties :
#
#
# Convention : Reuss Voigt Hill
#
# Bulk Modulus (GPa) = 39.53595 44.14718 41.84156
# Shear Modulus (GPa) = 17.78913 21.65388 19.72150
#
# Velocity S-wave (km/s) = 3.12350 3.44614 3.28878
# Velocity P-wave (km/s) = 5.88995 6.32823 6.11302
#
# Compressibility (1/GPa) = 0.02529343
#
# Stress axis : x y z
#
# Youngs Moduli (GPa) = 67.35453 44.15593 66.09024
#
# Poissons Ratio (x) = 0.01392 0.25735
# Poissons Ratio (y) = 0.02124 0.62497
# Poissons Ratio (z) = 0.26228 0.41755
#
# Static dielectric constant tensor:
#      x y z
#    x 3.709730 0.000000 0.000000 
#    y 0.000000 2.974740 0.000000 
#    z 0.000000 0.000000 3.448110 
# 
# 
# High freq. dielectric constant tensor:
#      x y z
#    x 1.723880 0.000000 0.000000 
#    y 0.000000 1.623750 0.000000 
#    z 0.000000 0.000000 1.716220 
# 
# From -- ./inp_files/16057.got.cif
#   From: 2010.03.12/outbox.cif.g09.slc.cpg/sg42_9_cif.got.tgz:16057.got - 2010.04.14 02:04:31.
