data_PCOD8185942
_publ_section_title
;
Structure prediction by ZEFSAII (Michael W. Deem and Ramdas Pophale) SiO2 
 PCOD8185942
Probable space group: F M M 2
;
_chemical_formula_sum "Si O2"
_cell_formula_units_Z 112
_cell_length_a 15.952030
_cell_length_b 27.716614
_cell_length_c 11.960901
_cell_angle_alpha 90.000000
_cell_angle_beta 90.000000
_cell_angle_gamma 90.000000
_cell_volume 5288.348011
_symmetry_space_group_name_H-M "F M M 2"
_symmetry_group_IT_number 42
_symmetry_cell_setting 'orthorhombic'
loop_
_space_group_symop_operation_xyz
x,y,z
-x,-y,z
-x,y,z
x,-y,z
x,1/2+y,1/2+z
-x,1/2-y,1/2+z
-x,1/2+y,1/2+z
x,1/2-y,1/2+z
1/2+x,y,1/2+z
1/2-x,-y,1/2+z
1/2-x,y,1/2+z
1/2+x,-y,1/2+z
1/2+x,1/2+y,z
1/2-x,1/2-y,z
1/2-x,1/2+y,z
1/2+x,1/2-y,z
loop_
_atom_site_type_symbol
_atom_site_label
_atom_site_fract_x
_atom_site_fract_y
_atom_site_fract_z
Si Si1 0.342876 0.699647 0.788880
Si Si2 0.644997 0.693729 0.251484
Si Si3 0.098078 0.447325 0.534926
Si Si4 0.906984 0.391765 0.896148
Si Si5 0.667064 0.125071 0.118553
Si Si6 0.833859 0.652734 0.517197
Si Si7 0.211274 0.446643 0.742419
O O1 0.385169 0.750924 0.760082
O O2 0.244272 0.695100 0.766760
O O3 0.382091 0.660191 0.704561
O O4 0.359941 0.689044 0.919051
O O5 0.601104 0.662527 0.347862
O O6 0.620197 0.669963 0.131580
O O7 0.118812 0.500000 0.478016
O O8 0.139754 0.401200 0.474574
O O9 0.132722 0.448070 0.659869
O O10 0.000000 0.438824 0.539841
O O11 0.828197 0.423002 0.852751
O O12 0.000000 0.411644 0.865535
O O13 0.901139 0.394317 0.031076
O O14 0.734701 0.153630 0.041320
O O15 0.712064 0.083230 0.190465
O O16 0.245050 0.500000 0.770603
#
# Coordination Sequence:
#
# PCOD8185942 Si02
#       7
#    16  16  16  16  16  16  16
#     4  10  20  35  61  84 117 161 218 259 309 370
#     4  10  21  33  57  89 114 162 212 264 307 373
#     4   9  17  31  54  83 113 149 197 255 315 366
#     4  12  23  39  62  94 136 168 204 265 334 390
#     4  10  20  39  58  89 124 163 208 264 314 379
#     4  10  18  34  57  86 118 155 215 269 305 376
#     4  10  20  37  61  90 121 161 212 259 310 379
#
# _framework density 21.178636999999998
#
# number of rings (size 3 to 8) (size 9 to 14) (size 15 to 20)
#    0.000    1.857    5.714    0.429    2.000    2.571 
#    0.000    5.714    0.000    0.000    0.000    0.000 
#    0.000    0.000    0.000    0.000    0.000    0.000 
#
# Total GULP energy -346972.732707 kJ/mol
# GULP energy per Si atom -12391.883311 kJ/mol
# Density = 2.113043 g / cm^3
# Si number density = 21.178637 Si / 1000 Ang^3
#
#
#
# Elastic Constant Matrix: (Units=GPa)
#
#
# Indices 1 2 3 4 5 6 
#
# 1 39.1443 18.6418 15.7324 0.0000 0.0000 0.0000
# 2 18.6418 160.0357 54.6510 0.0000 0.0000 0.0000
# 3 15.7324 54.6510 105.7150 0.0000 0.0000 0.0000
# 4 0.0000 0.0000 0.0000 17.3091 0.0000 0.0000
# 5 0.0000 0.0000 0.0000 0.0000 15.4524 0.0000
# 6 0.0000 0.0000 0.0000 0.0000 0.0000 15.3763
#
#
#
# Elastic Compliance Matrix: (Units=1/GPa)
#
#
# Indices 1 2 3 4 5 6 
#
# 1 0.027805 -0.002217 -0.002992 0.000000 0.000000 0.000000
# 2 -0.002217 0.007765 -0.003684 0.000000 0.000000 0.000000
# 3 -0.002992 -0.003684 0.011809 0.000000 0.000000 0.000000
# 4 0.000000 0.000000 0.000000 0.057773 0.000000 0.000000
# 5 0.000000 0.000000 0.000000 0.000000 0.064715 0.000000
# 6 0.000000 0.000000 0.000000 0.000000 0.000000 0.065035
#
#
# Mechanical properties :
#
#
# Convention : Reuss Voigt Hill
#
# Bulk Modulus (GPa) = 33.79208 53.66060 43.72634
# Shear Modulus (GPa) = 19.04378 24.01887 21.53132
#
# Velocity S-wave (km/s) = 3.00192 3.37131 3.19196
# Velocity P-wave (km/s) = 5.29204 6.36761 5.85458
#
# Compressibility (1/GPa) = 0.02959273
#
# Stress axis : x y z
#
# Youngs Moduli (GPa) = 35.96504 128.78239 84.67928
#
# Poissons Ratio (x) = 0.28554 0.25333
# Poissons Ratio (y) = 0.07974 0.31198
# Poissons Ratio (z) = 0.10760 0.47447
#
# Static dielectric constant tensor:
#      x y z
#    x 3.335190 0.000000 0.000000 
#    y 0.000000 4.360910 0.000000 
#    z 0.000000 0.000000 3.771600 
# 
# 
# High freq. dielectric constant tensor:
#      x y z
#    x 1.788510 0.000000 0.000000 
#    y 0.000000 1.834660 0.000000 
#    z 0.000000 0.000000 1.822350 
# 
# From -- ./inp_files/8108.got.cif
#   From: 2010.03.12/outbox.cif.g09.slc.cpg/sg42_5_cif.got.tgz:8108.got - 2010.04.14 02:04:31.
