data_PCOD8185475
_publ_section_title
;
Structure prediction by ZEFSAII (Michael W. Deem and Ramdas Pophale) SiO2 
 PCOD8185475
Probable space group: A B A 2
;
_chemical_formula_sum "Si O2"
_cell_formula_units_Z 64
_cell_length_a 7.759736
_cell_length_b 15.315693
_cell_length_c 22.417290
_cell_angle_alpha 90.000000
_cell_angle_beta 90.000000
_cell_angle_gamma 90.000000
_cell_volume 2664.199292
_symmetry_space_group_name_H-M "A B A 2"
_symmetry_group_IT_number 41
_symmetry_cell_setting 'orthorhombic'
loop_
_space_group_symop_operation_xyz
x,y,z
-x,-y,z
1/2-x,y,1/2+z
1/2+x,-y,1/2+z
x,1/2+y,1/2+z
-x,1/2-y,1/2+z
1/2-x,1/2+y,z
1/2+x,1/2-y,z
loop_
_atom_site_type_symbol
_atom_site_label
_atom_site_fract_x
_atom_site_fract_y
_atom_site_fract_z
Si Si1 0.245734 0.336518 0.860590
Si Si2 0.883681 0.685212 0.984253
Si Si3 0.237830 0.128589 0.976459
Si Si4 0.136997 0.137639 0.849749
Si Si5 0.208859 0.860473 0.613961
Si Si6 0.310505 0.039259 0.597155
Si Si7 0.045840 0.593394 0.778398
Si Si8 0.559981 0.806846 0.661075
O O1 0.244349 0.349449 0.932308
O O2 0.210010 0.235246 0.849324
O O3 0.432903 0.364326 0.834144
O O4 0.093138 0.392060 0.830650
O O5 0.877328 0.788927 0.996396
O O6 0.072875 0.662955 0.961757
O O7 0.844504 0.638409 0.045555
O O8 0.163180 0.091057 0.914177
O O9 0.240964 0.056304 0.028388
O O10 0.256342 0.088015 0.801571
O O11 0.401318 0.824530 0.617821
O O12 0.099103 0.796587 0.656778
O O13 0.192376 0.964018 0.629071
O O14 0.289402 0.128692 0.635666
O O15 0.500000 0.000000 0.598511
O O16 0.022054 0.670008 0.729656
O O17 0.000000 0.500000 0.748338
#
# Coordination Sequence:
#
# PCOD8185475 Si02
#       8
#     8   8   8   8   8   8   8   8
#     4  11  23  43  74 111 146 197 254 298 374 455
#     4  11  21  39  70 103 150 190 237 303 363 448
#     4  11  21  40  66 105 149 192 240 297 372 446
#     4  11  23  43  75 106 146 199 244 303 370 455
#     4  11  24  43  72 100 131 190 238 289 371 437
#     4  10  24  42  66 103 141 185 236 299 370 444
#     4  12  27  50  72 105 151 194 253 319 377 442
#     4  11  26  48  71  98 142 192 240 307 366 434
#
# _framework density 24.022227000000001
#
# number of rings (size 3 to 8) (size 9 to 14) (size 15 to 20)
#    0.000    1.000    3.750    4.125    7.000    2.000 
#    0.000    0.000    2.750    0.000    0.000    0.000 
#    0.000    0.000    0.000    0.000    0.000    0.000 
#
# Total GULP energy -396644.651039 kJ/mol
# GULP energy per Si atom -12395.145345 kJ/mol
# Density = 2.396755 g / cm^3
# Si number density = 24.022227 Si / 1000 Ang^3
#
#
#
# Elastic Constant Matrix: (Units=GPa)
#
#
# Indices 1 2 3 4 5 6 
#
# 1 108.7320 35.2055 33.8007 0.0000 0.0000 0.0000
# 2 35.2055 80.9546 15.8367 0.0000 0.0000 0.0000
# 3 33.8007 15.8367 74.9610 0.0000 0.0000 0.0000
# 4 0.0000 0.0000 0.0000 28.5825 0.0000 0.0000
# 5 0.0000 0.0000 0.0000 0.0000 20.9567 0.0000
# 6 0.0000 0.0000 0.0000 0.0000 0.0000 21.6128
#
#
#
# Elastic Compliance Matrix: (Units=1/GPa)
#
#
# Indices 1 2 3 4 5 6 
#
# 1 0.011999 -0.004339 -0.004494 0.000000 0.000000 0.000000
# 2 -0.004339 0.014454 -0.001097 0.000000 0.000000 0.000000
# 3 -0.004494 -0.001097 0.015598 0.000000 0.000000 0.000000
# 4 0.000000 0.000000 0.000000 0.034986 0.000000 0.000000
# 5 0.000000 0.000000 0.000000 0.000000 0.047717 0.000000
# 6 0.000000 0.000000 0.000000 0.000000 0.000000 0.046269
#
#
# Mechanical properties :
#
#
# Convention : Reuss Voigt Hill
#
# Bulk Modulus (GPa) = 45.06215 48.25927 46.66071
# Shear Modulus (GPa) = 25.21678 26.21739 25.71708
#
# Velocity S-wave (km/s) = 3.24346 3.30719 3.27548
# Velocity P-wave (km/s) = 5.72940 5.89206 5.81130
#
# Compressibility (1/GPa) = 0.02219157
#
# Stress axis : x y z
#
# Youngs Moduli (GPa) = 83.34231 69.18429 64.10943
#
# Poissons Ratio (x) = 0.30019 0.28809
# Poissons Ratio (y) = 0.36162 0.07034
# Poissons Ratio (z) = 0.37451 0.07591
#
# Static dielectric constant tensor:
#      x y z
#    x 4.390420 0.000000 0.000000 
#    y 0.000000 4.674440 0.000000 
#    z 0.000000 0.000000 4.141230 
# 
# 
# High freq. dielectric constant tensor:
#      x y z
#    x 1.950560 0.000000 0.000000 
#    y 0.000000 1.946940 0.000000 
#    z 0.000000 0.000000 1.941490 
# 
# From -- ./inp_files/12055.got.cif
#   From: 2010.03.12/outbox.cif.g09.slc.cpg/sg41_7_cif.got.tgz:12055.got - 2010.04.14 01:55:53.
