data_PCOD8185871
_publ_section_title
;
Structure prediction by ZEFSAII (Michael W. Deem and Ramdas Pophale) SiO2 
 PCOD8185871
Probable space group: F M M 2
;
_chemical_formula_sum "Si O2"
_cell_formula_units_Z 64
_cell_length_a 18.161405
_cell_length_b 8.074612
_cell_length_c 23.784983
_cell_angle_alpha 90.000000
_cell_angle_beta 90.000000
_cell_angle_gamma 90.000000
_cell_volume 3487.979723
_symmetry_space_group_name_H-M "F M M 2"
_symmetry_group_IT_number 42
_symmetry_cell_setting 'orthorhombic'
loop_
_space_group_symop_operation_xyz
x,y,z
-x,-y,z
-x,y,z
x,-y,z
x,1/2+y,1/2+z
-x,1/2-y,1/2+z
-x,1/2+y,1/2+z
x,1/2-y,1/2+z
1/2+x,y,1/2+z
1/2-x,-y,1/2+z
1/2-x,y,1/2+z
1/2+x,-y,1/2+z
1/2+x,1/2+y,z
1/2-x,1/2-y,z
1/2-x,1/2+y,z
1/2+x,1/2-y,z
loop_
_atom_site_type_symbol
_atom_site_label
_atom_site_fract_x
_atom_site_fract_y
_atom_site_fract_z
Si Si1 0.417683 0.311089 0.723420
Si Si2 0.828465 0.818710 0.123327
Si Si3 0.587635 0.500000 0.908225
Si Si4 0.912794 0.500000 0.536638
Si Si5 0.412417 0.316519 0.340731
O O1 0.500000 0.249665 0.707145
O O2 0.420074 0.500000 0.743422
O O3 0.365761 0.297483 0.669426
O O4 0.386402 0.207612 0.776204
O O5 0.750000 0.750000 0.103995
O O6 0.818002 0.000000 0.151159
O O7 0.879909 0.835946 0.067614
O O8 0.500000 0.500000 0.903957
O O9 0.619754 0.331906 0.879489
O O10 0.613781 0.500000 0.972535
O O11 0.000000 0.500000 0.542228
O O12 0.500000 0.306494 0.342658
O O13 0.385697 0.500000 0.361095
#
# Coordination Sequence:
#
# PCOD8185871 Si02
#       5
#    16  16   8   8  16
#     4  10  18  30  52  84 119 147 184 236 285 344
#     4  10  21  35  54  78 109 151 191 226 288 338
#     4   9  16  32  51  78 110 141 185 236 282 332
#     4   9  20  36  59  80 109 151 193 236 279 334
#     4   9  16  27  48  80 114 146 180 231 293 337
#
# _framework density 18.348731000000001
#
# number of rings (size 3 to 8) (size 9 to 14) (size 15 to 20)
#    0.750    1.750    1.250    2.250    0.000    1.000 
#    0.000    2.500    0.000    7.500    0.000    0.000 
#    0.000    0.000    0.000    0.000    0.000    0.000 
#
# Total GULP energy -198264.888067 kJ/mol
# GULP energy per Si atom -12391.555504 kJ/mol
# Density = 1.830697 g / cm^3
# Si number density = 18.348731 Si / 1000 Ang^3
#
#
#
# Elastic Constant Matrix: (Units=GPa)
#
#
# Indices 1 2 3 4 5 6 
#
# 1 66.7169 17.4197 40.9073 0.0000 0.0000 -0.0001
# 2 17.4197 114.6983 55.1083 0.0000 0.0000 -0.0001
# 3 40.9073 55.1083 134.1544 0.0000 0.0000 0.0000
# 4 0.0000 0.0000 0.0000 27.2843 0.0000 0.0000
# 5 0.0000 0.0000 0.0000 0.0000 3.7149 0.0000
# 6 -0.0001 -0.0001 0.0000 0.0000 0.0000 21.7813
#
#
#
# Elastic Compliance Matrix: (Units=1/GPa)
#
#
# Indices 1 2 3 4 5 6 
#
# 1 0.018437 -0.000123 -0.005571 0.000000 0.000000 0.000000
# 2 -0.000123 0.010863 -0.004425 0.000000 0.000000 0.000000
# 3 -0.005571 -0.004425 0.010971 0.000000 0.000000 0.000000
# 4 0.000000 0.000000 0.000000 0.036651 0.000000 0.000000
# 5 0.000000 0.000000 0.000000 0.000000 0.269183 0.000000
# 6 0.000000 0.000000 0.000000 0.000000 0.000000 0.045911
#
#
# Mechanical properties :
#
#
# Convention : Reuss Voigt Hill
#
# Bulk Modulus (GPa) = 49.92031 60.27111 55.09571
# Shear Modulus (GPa) = 11.93512 24.03172 17.98342
#
# Velocity S-wave (km/s) = 2.55318 3.62293 3.13404
# Velocity P-wave (km/s) = 5.99642 7.10069 6.57179
#
# Compressibility (1/GPa) = 0.02003193
#
# Stress axis : x y z
#
# Youngs Moduli (GPa) = 54.23902 92.05378 91.15298
#
# Poissons Ratio (x) = 0.01135 0.50784
# Poissons Ratio (y) = 0.00669 0.40334
# Poissons Ratio (z) = 0.30218 0.40732
#
# Static dielectric constant tensor:
#      x y z
#    x 2.932400 0.000000 0.000000 
#    y 0.000000 3.494180 0.000000 
#    z 0.000000 0.000000 3.234820 
# 
# 
# High freq. dielectric constant tensor:
#      x y z
#    x 1.667770 0.000000 0.000000 
#    y 0.000000 1.715390 0.000000 
#    z 0.000000 0.000000 1.700830 
# 
# From -- ./inp_files/23285.got.cif
#   From: 2010.03.12/outbox.cif.g09.slc.cpg/sg42_12_cif.got.tgz:23285.got - 2010.04.14 02:04:31.
