data_PCOD8185157
_publ_section_title
;
Structure prediction by ZEFSAII (Michael W. Deem and Ramdas Pophale) SiO2 
 PCOD8185157
Probable space group: A B A 2
;
_chemical_formula_sum "Si O2"
_cell_formula_units_Z 48
_cell_length_a 8.631187
_cell_length_b 15.328215
_cell_length_c 16.994565
_cell_angle_alpha 90.000000
_cell_angle_beta 90.000000
_cell_angle_gamma 90.000000
_cell_volume 2248.392676
_symmetry_space_group_name_H-M "A B A 2"
_symmetry_group_IT_number 41
_symmetry_cell_setting 'orthorhombic'
loop_
_space_group_symop_operation_xyz
x,y,z
-x,-y,z
1/2-x,y,1/2+z
1/2+x,-y,1/2+z
x,1/2+y,1/2+z
-x,1/2-y,1/2+z
1/2-x,1/2+y,z
1/2+x,1/2-y,z
loop_
_atom_site_type_symbol
_atom_site_label
_atom_site_fract_x
_atom_site_fract_y
_atom_site_fract_z
Si Si1 0.133389 0.181694 0.687830
Si Si2 0.817910 0.493572 0.683254
Si Si3 0.791930 0.663217 0.932943
Si Si4 0.809172 0.161580 0.757933
Si Si5 0.683355 0.493788 0.517218
Si Si6 0.610981 0.810372 0.008034
O O1 0.255127 0.103261 0.701844
O O2 0.221433 0.272539 0.699819
O O3 0.062021 0.181432 0.599696
O O4 0.993269 0.172012 0.749027
O O5 0.735882 0.562106 0.740825
O O6 0.779806 0.519595 0.594094
O O7 0.000000 0.500000 0.698869
O O8 0.739214 0.686989 0.845970
O O9 0.764285 0.560681 0.949501
O O10 0.699156 0.720661 0.995781
O O11 0.970136 0.686375 0.947151
O O12 0.500000 0.500000 0.536498
O O13 0.720494 0.394808 0.489388
#
# Coordination Sequence:
#
# PCOD8185157 Si02
#       6
#     8   8   8   8   8   8
#     4  11  23  42  67  91 124 168 212 261 310 377
#     4  11  23  40  64  91 121 164 216 261 309 376
#     4  11  23  38  61  90 124 158 198 256 316 372
#     4  12  24  40  62  93 128 162 205 262 327 379
#     4   9  20  40  63  86 120 164 206 252 308 370
#     4  10  21  40  63  87 118 162 207 250 303 368
#
# _framework density 21.348586000000001
#
# number of rings (size 3 to 8) (size 9 to 14) (size 15 to 20)
#    0.000    1.333    0.000    7.500    0.000    7.333 
#    0.000    3.333    0.000    0.000    0.000    0.000 
#    0.000    0.000    0.000    0.000    0.000    0.000 
#
# Total GULP energy -297649.846535 kJ/mol
# GULP energy per Si atom -12402.076939 kJ/mol
# Density = 2.130000 g / cm^3
# Si number density = 21.348586 Si / 1000 Ang^3
#
#
#
# Elastic Constant Matrix: (Units=GPa)
#
#
# Indices 1 2 3 4 5 6 
#
# 1 101.9570 34.4662 37.7463 0.0000 0.0000 0.0000
# 2 34.4662 109.3587 51.1807 0.0000 0.0000 0.0000
# 3 37.7463 51.1807 80.8962 0.0000 0.0000 0.0000
# 4 0.0000 0.0000 0.0000 14.5627 0.0000 0.0000
# 5 0.0000 0.0000 0.0000 0.0000 24.1840 0.0000
# 6 0.0000 0.0000 0.0000 0.0000 0.0000 34.4415
#
#
#
# Elastic Compliance Matrix: (Units=1/GPa)
#
#
# Indices 1 2 3 4 5 6 
#
# 1 0.012064 -0.001659 -0.004580 0.000000 0.000000 0.000000
# 2 -0.001659 0.013219 -0.007589 0.000000 0.000000 0.000000
# 3 -0.004580 -0.007589 0.019300 0.000000 0.000000 0.000000
# 4 0.000000 0.000000 0.000000 0.068669 0.000000 0.000000
# 5 0.000000 0.000000 0.000000 0.000000 0.041350 0.000000
# 6 0.000000 0.000000 0.000000 0.000000 0.000000 0.029035
#
#
# Mechanical properties :
#
#
# Convention : Reuss Voigt Hill
#
# Bulk Modulus (GPa) = 59.07538 59.88870 59.48204
# Shear Modulus (GPa) = 23.04847 25.89220 24.47033
#
# Velocity S-wave (km/s) = 3.28933 3.48635 3.38927
# Velocity P-wave (km/s) = 6.49293 6.65731 6.57564
#
# Compressibility (1/GPa) = 0.01692752
#
# Stress axis : x y z
#
# Youngs Moduli (GPa) = 82.88894 75.64974 51.81394
#
# Poissons Ratio (x) = 0.12550 0.23729
# Poissons Ratio (y) = 0.13751 0.39322
# Poissons Ratio (z) = 0.37960 0.57411
#
# Static dielectric constant tensor:
#      x y z
#    x 3.705490 0.000000 0.000000 
#    y 0.000000 4.207310 0.000000 
#    z 0.000000 0.000000 3.597020 
# 
# 
# High freq. dielectric constant tensor:
#      x y z
#    x 1.829550 0.000000 0.000000 
#    y 0.000000 1.860370 0.000000 
#    z 0.000000 0.000000 1.824510 
# 
# From -- ./inp_files/9660.got.cif
#   From: 2010.03.12/outbox.cif.g09.slc.cpg/sg41_5_cif.got.tgz:9660.got - 2010.04.14 01:55:53.
