data_PCOD8185516
_publ_section_title
;
Structure prediction by ZEFSAII (Michael W. Deem and Ramdas Pophale) SiO2 
 PCOD8185516
Probable space group: A B A 2
;
_chemical_formula_sum "Si O2"
_cell_formula_units_Z 48
_cell_length_a 10.078242
_cell_length_b 8.472764
_cell_length_c 24.221035
_cell_angle_alpha 90.000000
_cell_angle_beta 90.000000
_cell_angle_gamma 90.000000
_cell_volume 2068.247888
_symmetry_space_group_name_H-M "A B A 2"
_symmetry_group_IT_number 41
_symmetry_cell_setting 'orthorhombic'
loop_
_space_group_symop_operation_xyz
x,y,z
-x,-y,z
1/2-x,y,1/2+z
1/2+x,-y,1/2+z
x,1/2+y,1/2+z
-x,1/2-y,1/2+z
1/2-x,1/2+y,z
1/2+x,1/2-y,z
loop_
_atom_site_type_symbol
_atom_site_label
_atom_site_fract_x
_atom_site_fract_y
_atom_site_fract_z
Si Si1 0.879497 0.609147 0.595120
Si Si2 0.163077 0.878923 0.966425
Si Si3 0.431344 0.832177 0.801174
Si Si4 0.407706 0.220936 0.421901
Si Si5 0.841820 0.668418 0.234351
Si Si6 0.800648 0.896314 0.660035
O O1 0.870989 0.635560 0.530395
O O2 0.897451 0.772781 0.629037
O O3 0.748190 0.518043 0.613724
O O4 0.000000 0.500000 0.611927
O O5 0.316306 0.840371 0.956375
O O6 0.063089 0.754261 0.936707
O O7 0.136408 0.048057 0.940346
O O8 0.385393 0.748729 0.857390
O O9 0.536703 0.714937 0.773169
O O10 0.299477 0.853622 0.765257
O O11 0.500000 0.000000 0.812824
O O12 0.821897 0.803744 0.188371
O O13 0.876739 0.499054 0.206549
#
# Coordination Sequence:
#
# PCOD8185516 Si02
#       6
#     8   8   8   8   8   8
#     4  11  23  47  74 104 149 190 246 308 376 446
#     4  11  25  48  72 110 145 193 245 309 365 450
#     4  12  27  48  74 107 150 199 249 309 376 446
#     4  11  26  45  75 104 146 191 247 301 371 443
#     4  11  25  48  72 109 146 194 251 308 370 449
#     4  10  25  43  74 103 142 197 240 308 369 444
#
# _framework density 23.208048000000002
#
# number of rings (size 3 to 8) (size 9 to 14) (size 15 to 20)
#    0.000    1.000    3.333    2.000    9.333    3.333 
#    3.000    0.000    0.000    0.000    0.000    0.000 
#    0.000    0.000    0.000    0.000    0.000    0.000 
#
# Total GULP energy -297575.362098 kJ/mol
# GULP energy per Si atom -12398.973421 kJ/mol
# Density = 2.315523 g / cm^3
# Si number density = 23.208048 Si / 1000 Ang^3
#
#
#
# Elastic Constant Matrix: (Units=GPa)
#
#
# Indices 1 2 3 4 5 6 
#
# 1 92.6389 37.1251 52.2940 0.0000 0.0000 0.0000
# 2 37.1251 134.4420 81.1825 0.0000 0.0000 0.0000
# 3 52.2940 81.1825 115.7839 0.0000 0.0000 0.0000
# 4 0.0000 0.0000 0.0000 46.7604 0.0000 0.0000
# 5 0.0000 0.0000 0.0000 0.0000 17.5907 0.0000
# 6 0.0000 0.0000 0.0000 0.0000 0.0000 38.6898
#
#
#
# Elastic Compliance Matrix: (Units=1/GPa)
#
#
# Indices 1 2 3 4 5 6 
#
# 1 0.014489 -0.000086 -0.006484 0.000000 0.000000 0.000000
# 2 -0.000086 0.012900 -0.009006 0.000000 0.000000 0.000000
# 3 -0.006484 -0.009006 0.017880 0.000000 0.000000 0.000000
# 4 0.000000 0.000000 0.000000 0.021386 0.000000 0.000000
# 5 0.000000 0.000000 0.000000 0.000000 0.056848 0.000000
# 6 0.000000 0.000000 0.000000 0.000000 0.000000 0.025847
#
#
# Mechanical properties :
#
#
# Convention : Reuss Voigt Hill
#
# Bulk Modulus (GPa) = 70.83440 76.00756 73.42098
# Shear Modulus (GPa) = 26.99670 32.09240 29.54455
#
# Velocity S-wave (km/s) = 3.41434 3.72265 3.57183
# Velocity P-wave (km/s) = 6.79201 7.16234 6.97963
#
# Compressibility (1/GPa) = 0.01411743
#
# Stress axis : x y z
#
# Youngs Moduli (GPa) = 69.01749 77.51744 55.92804
#
# Poissons Ratio (x) = 0.00665 0.36263
# Poissons Ratio (y) = 0.00592 0.50371
# Poissons Ratio (z) = 0.44750 0.69815
#
# Static dielectric constant tensor:
#      x y z
#    x 4.531610 0.000000 0.000000 
#    y 0.000000 4.371210 0.000000 
#    z 0.000000 0.000000 4.209900 
# 
# 
# High freq. dielectric constant tensor:
#      x y z
#    x 1.921770 0.000000 0.000000 
#    y 0.000000 1.927270 0.000000 
#    z 0.000000 0.000000 1.926280 
# 
# From -- ./inp_files/12665.got.cif
#   From: 2010.03.12/outbox.cif.g09.slc.cpg/sg41_7_cif.got.tgz:12665.got - 2010.04.14 01:55:53.
