data_PCOD8185335
_publ_section_title
;
Structure prediction by ZEFSAII (Michael W. Deem and Ramdas Pophale) SiO2 
 PCOD8185335
Probable space group: A B A 2
;
_chemical_formula_sum "Si O2"
_cell_formula_units_Z 60
_cell_length_a 27.077442
_cell_length_b 11.925791
_cell_length_c 8.122504
_cell_angle_alpha 90.000000
_cell_angle_beta 90.000000
_cell_angle_gamma 90.000000
_cell_volume 2622.918294
_symmetry_space_group_name_H-M "A B A 2"
_symmetry_group_IT_number 41
_symmetry_cell_setting 'orthorhombic'
loop_
_space_group_symop_operation_xyz
x,y,z
-x,-y,z
1/2-x,y,1/2+z
1/2+x,-y,1/2+z
x,1/2+y,1/2+z
-x,1/2-y,1/2+z
1/2-x,1/2+y,z
1/2+x,1/2-y,z
loop_
_atom_site_type_symbol
_atom_site_label
_atom_site_fract_x
_atom_site_fract_y
_atom_site_fract_z
Si Si1 0.461206 0.377433 0.933870
Si Si2 0.901008 0.303209 0.067822
Si Si3 0.808606 0.055698 0.805745
Si Si4 0.457573 0.794010 0.877402
Si Si5 0.586074 0.546699 0.630487
Si Si6 0.724194 0.430697 0.115865
Si Si7 0.500000 0.500000 0.212200
Si Si8 0.298517 0.199812 0.922642
O O1 0.512695 0.308931 0.958690
O O2 0.458287 0.442594 0.762341
O O3 0.417700 0.284597 0.928129
O O4 0.455621 0.470189 0.080746
O O5 0.922223 0.253910 0.236914
O O6 0.921697 0.428555 0.037101
O O7 0.841911 0.307099 0.058298
O O8 0.861838 0.046624 0.722565
O O9 0.792903 0.181844 0.837256
O O10 0.768447 0.009435 0.678598
O O11 0.810424 0.993713 0.983618
O O12 0.499483 0.886640 0.822080
O O13 0.419464 0.851249 0.003555
O O14 0.692506 0.389813 0.273538
O O15 0.748239 0.325395 0.020200
#
# Coordination Sequence:
#
# PCOD8185335 Si02
#       8
#     8   8   8   8   8   8   4   8
#     4  11  23  44  65  91 129 170 222 272 333 393
#     4  11  24  42  64  99 131 169 226 272 330 402
#     4  11  23  44  67  99 130 177 219 273 340 399
#     4  11  25  42  66  92 130 176 220 272 341 398
#     4  12  24  42  67  98 134 172 224 282 327 409
#     4  10  24  44  69  96 136 176 222 273 345 408
#     4  10  22  42  62  88 120 170 210 264 328 382
#     4  11  22  45  67  97 132 175 222 276 331 411
#
# _framework density 22.875284000000001
#
# number of rings (size 3 to 8) (size 9 to 14) (size 15 to 20)
#    0.000    1.067    2.667    4.000    0.000    3.733 
#    4.800    0.000    0.000    0.000    0.000    0.000 
#    0.000    0.000    0.000    0.000    0.000    0.000 
#
# Total GULP energy -371704.998095 kJ/mol
# GULP energy per Si atom -12390.166603 kJ/mol
# Density = 2.282322 g / cm^3
# Si number density = 22.875284 Si / 1000 Ang^3
#
#
#
# Elastic Constant Matrix: (Units=GPa)
#
#
# Indices 1 2 3 4 5 6 
#
# 1 92.6756 47.3877 42.8688 0.0000 0.0000 0.0000
# 2 47.3877 113.7672 25.8987 0.0000 0.0000 0.0000
# 3 42.8688 25.8987 88.0309 0.0000 0.0000 0.0000
# 4 0.0000 0.0000 0.0000 38.8572 0.0000 0.0000
# 5 0.0000 0.0000 0.0000 0.0000 35.6285 0.0000
# 6 0.0000 0.0000 0.0000 0.0000 0.0000 18.7704
#
#
#
# Elastic Compliance Matrix: (Units=1/GPa)
#
#
# Indices 1 2 3 4 5 6 
#
# 1 0.016555 -0.005424 -0.006466 0.000000 0.000000 0.000000
# 2 -0.005424 0.011198 -0.000653 0.000000 0.000000 0.000000
# 3 -0.006466 -0.000653 0.014701 0.000000 0.000000 0.000000
# 4 0.000000 0.000000 0.000000 0.025735 0.000000 0.000000
# 5 0.000000 0.000000 0.000000 0.000000 0.028067 0.000000
# 6 0.000000 0.000000 0.000000 0.000000 0.000000 0.053275
#
#
# Mechanical properties :
#
#
# Convention : Reuss Voigt Hill
#
# Bulk Modulus (GPa) = 57.57973 58.53158 58.05566
# Shear Modulus (GPa) = 27.71533 30.53911 29.12722
#
# Velocity S-wave (km/s) = 3.48456 3.65777 3.57221
# Velocity P-wave (km/s) = 6.43547 6.59407 6.51526
#
# Compressibility (1/GPa) = 0.01736722
#
# Stress axis : x y z
#
# Youngs Moduli (GPa) = 60.40650 89.30445 68.02430
#
# Poissons Ratio (x) = 0.48434 0.43985
# Poissons Ratio (y) = 0.32762 0.04444
# Poissons Ratio (z) = 0.39059 0.05834
#
# Static dielectric constant tensor:
#      x y z
#    x 3.779670 0.000000 0.000000 
#    y 0.000000 4.524170 0.000000 
#    z 0.000000 0.000000 4.236810 
# 
# 
# High freq. dielectric constant tensor:
#      x y z
#    x 1.876880 0.000000 0.000000 
#    y 0.000000 1.922610 0.000000 
#    z 0.000000 0.000000 1.914060 
# 
# From -- ./inp_files/3813.got.cif
#   From: 2010.03.12/outbox.cif.g09.slc.cpg/sg41_2_cif.got.tgz:3813.got - 2010.04.14 01:55:53.
