data_PCOD8185124
_publ_section_title
;
Structure prediction by ZEFSAII (Michael W. Deem and Ramdas Pophale) SiO2 
 PCOD8185124
Probable space group: A B A 2
;
_chemical_formula_sum "Si O2"
_cell_formula_units_Z 52
_cell_length_a 15.762690
_cell_length_b 15.991015
_cell_length_c 9.255138
_cell_angle_alpha 90.000000
_cell_angle_beta 90.000000
_cell_angle_gamma 90.000000
_cell_volume 2332.863155
_symmetry_space_group_name_H-M "A B A 2"
_symmetry_group_IT_number 41
_symmetry_cell_setting 'orthorhombic'
loop_
_space_group_symop_operation_xyz
x,y,z
-x,-y,z
1/2-x,y,1/2+z
1/2+x,-y,1/2+z
x,1/2+y,1/2+z
-x,1/2-y,1/2+z
1/2-x,1/2+y,z
1/2+x,1/2-y,z
loop_
_atom_site_type_symbol
_atom_site_label
_atom_site_fract_x
_atom_site_fract_y
_atom_site_fract_z
Si Si1 0.413816 0.203958 0.841630
Si Si2 0.504669 0.319378 0.049211
Si Si3 0.000000 0.500000 0.418410
Si Si4 0.773003 0.191218 0.690640
Si Si5 0.820500 0.007433 0.762463
Si Si6 0.205854 0.078875 0.464066
Si Si7 0.322317 0.233543 0.419041
O O1 0.489466 0.192389 0.723324
O O2 0.335450 0.238990 0.753217
O O3 0.384263 0.113552 0.904435
O O4 0.429300 0.266019 0.977003
O O5 0.493926 0.417852 0.018479
O O6 0.581443 0.275254 0.964554
O O7 0.084556 0.507238 0.321906
O O8 0.683312 0.216694 0.765421
O O9 0.765592 0.205864 0.520616
O O10 0.813095 0.101053 0.708412
O O11 0.805492 0.942364 0.632010
O O12 0.742719 0.000515 0.876707
O O13 0.282540 0.142165 0.431786
#
# Coordination Sequence:
#
# PCOD8185124 Si02
#       7
#     8   8   4   8   8   8   8
#     4  10  24  42  66  97 129 177 231 277 341 427
#     4  11  23  44  65  95 135 174 225 285 351 408
#     4  12  26  42  68  98 136 184 224 294 362 404
#     4  10  21  39  60  95 121 167 222 265 329 405
#     4  12  24  43  68  98 140 176 228 288 347 412
#     4  11  24  42  68  98 135 182 230 276 346 415
#     4  10  21  39  64  90 126 167 222 271 328 408
#
# _framework density 22.290206000000001
#
# number of rings (size 3 to 8) (size 9 to 14) (size 15 to 20)
#    0.000    1.231    3.077    3.692    2.154    1.231 
#    2.769    3.846    0.000    0.000    0.000    0.000 
#    0.000    0.000    0.000    0.000    0.000    0.000 
#
# Total GULP energy -322176.759241 kJ/mol
# GULP energy per Si atom -12391.413817 kJ/mol
# Density = 2.223947 g / cm^3
# Si number density = 22.290206 Si / 1000 Ang^3
#
#
#
# Elastic Constant Matrix: (Units=GPa)
#
#
# Indices 1 2 3 4 5 6 
#
# 1 51.4825 4.4314 12.5942 0.0000 0.0000 0.0000
# 2 4.4314 75.7027 23.7028 0.0000 0.0000 0.0000
# 3 12.5942 23.7028 72.2607 0.0000 0.0000 0.0000
# 4 0.0000 0.0000 0.0000 29.0723 0.0000 0.0000
# 5 0.0000 0.0000 0.0000 0.0000 31.2940 0.0000
# 6 0.0000 0.0000 0.0000 0.0000 0.0000 31.7809
#
#
#
# Elastic Compliance Matrix: (Units=1/GPa)
#
#
# Indices 1 2 3 4 5 6 
#
# 1 0.020290 -0.000090 -0.003507 0.000000 0.000000 0.000000
# 2 -0.000090 0.014722 -0.004813 0.000000 0.000000 0.000000
# 3 -0.003507 -0.004813 0.016029 0.000000 0.000000 0.000000
# 4 0.000000 0.000000 0.000000 0.034397 0.000000 0.000000
# 5 0.000000 0.000000 0.000000 0.000000 0.031955 0.000000
# 6 0.000000 0.000000 0.000000 0.000000 0.000000 0.031465
#
#
# Mechanical properties :
#
#
# Convention : Reuss Voigt Hill
#
# Bulk Modulus (GPa) = 29.22220 31.21142 30.21681
# Shear Modulus (GPa) = 28.23508 29.01060 28.62284
#
# Velocity S-wave (km/s) = 3.56294 3.61154 3.58732
# Velocity P-wave (km/s) = 5.48310 5.60568 5.54473
#
# Compressibility (1/GPa) = 0.03422055
#
# Stress axis : x y z
#
# Youngs Moduli (GPa) = 49.28617 67.92596 62.38748
#
# Poissons Ratio (x) = 0.00609 0.21878
# Poissons Ratio (y) = 0.00442 0.30030
# Poissons Ratio (z) = 0.17284 0.32696
#
# Static dielectric constant tensor:
#      x y z
#    x 3.958150 0.000000 0.000000 
#    y 0.000000 3.968270 0.000000 
#    z 0.000000 0.000000 4.537460 
# 
# 
# High freq. dielectric constant tensor:
#      x y z
#    x 1.869210 0.000000 0.000000 
#    y 0.000000 1.879680 0.000000 
#    z 0.000000 0.000000 1.889800 
# 
# From -- ./inp_files/3114.got.cif
#   From: 2010.03.12/outbox.cif.g09.slc.cpg/sg41_2_cif.got.tgz:3114.got - 2010.04.14 01:55:53.
