data_PCOD8185886
_publ_section_title
;
Structure prediction by ZEFSAII (Michael W. Deem and Ramdas Pophale) SiO2 
 PCOD8185886
Probable space group: F M M 2
;
_chemical_formula_sum "Si O2"
_cell_formula_units_Z 96
_cell_length_a 16.707723
_cell_length_b 17.057763
_cell_length_c 18.678115
_cell_angle_alpha 90.000000
_cell_angle_beta 90.000000
_cell_angle_gamma 90.000000
_cell_volume 5323.195145
_symmetry_space_group_name_H-M "F M M 2"
_symmetry_group_IT_number 42
_symmetry_cell_setting 'orthorhombic'
loop_
_space_group_symop_operation_xyz
x,y,z
-x,-y,z
-x,y,z
x,-y,z
x,1/2+y,1/2+z
-x,1/2-y,1/2+z
-x,1/2+y,1/2+z
x,1/2-y,1/2+z
1/2+x,y,1/2+z
1/2-x,-y,1/2+z
1/2-x,y,1/2+z
1/2+x,-y,1/2+z
1/2+x,1/2+y,z
1/2-x,1/2-y,z
1/2-x,1/2+y,z
1/2+x,1/2-y,z
loop_
_atom_site_type_symbol
_atom_site_label
_atom_site_fract_x
_atom_site_fract_y
_atom_site_fract_z
Si Si1 0.681549 0.907083 0.033580
Si Si2 0.000000 0.593142 0.264468
Si Si3 0.908583 0.592800 0.893410
Si Si4 0.760033 0.341954 0.816247
Si Si5 0.000000 0.406612 0.425103
Si Si6 0.670946 0.592845 0.948769
Si Si7 0.662418 0.093431 0.192996
O O1 0.663954 0.872910 0.111914
O O2 0.683193 0.000000 0.038394
O O3 0.615926 0.881446 0.974306
O O4 0.768367 0.874070 0.008394
O O5 0.078978 0.624689 0.224903
O O6 0.000000 0.500000 0.263367
O O7 0.000000 0.626534 0.344612
O O8 0.898042 0.500000 0.884583
O O9 0.851375 0.634381 0.835279
O O10 0.000000 0.619013 0.879694
O O11 0.750000 0.250000 0.822046
O O12 0.697783 0.382398 0.869871
O O13 0.737482 0.371309 0.736689
O O14 0.080625 0.376260 0.464589
O O15 0.000000 0.500000 0.422361
O O16 0.672612 0.500000 0.949372
O O17 0.668724 0.000000 0.194857
#
# Coordination Sequence:
#
# PCOD8185886 Si02
#       7
#    16   8  16  16   8  16  16
#     4   8  16  28  50  78 101 125 159 207 254 291
#     4   9  16  24  44  76  97 118 150 196 253 292
#     4   9  18  35  57  77  99 131 172 215 251 293
#     4  11  21  33  48  75 100 137 171 202 248 297
#     4   9  14  24  48  76  97 118 154 198 247 298
#     4   9  16  31  51  75 100 127 162 204 250 294
#     4  10  18  31  50  75 104 128 159 203 252 301
#
# _framework density 18.034282000000001
#
# number of rings (size 3 to 8) (size 9 to 14) (size 15 to 20)
#    0.000    2.667    1.667    2.500    1.167    0.000 
#    3.000    3.333    1.833    0.000    0.000    0.000 
#    0.000    0.000    0.000    0.000    0.000    0.000 
#
# Total GULP energy -297447.032959 kJ/mol
# GULP energy per Si atom -12393.626373 kJ/mol
# Density = 1.799324 g / cm^3
# Si number density = 18.034282 Si / 1000 Ang^3
#
#
#
# Elastic Constant Matrix: (Units=GPa)
#
#
# Indices 1 2 3 4 5 6 
#
# 1 168.2779 33.3999 57.8179 0.0000 0.0000 0.0000
# 2 33.3999 16.0569 15.6915 0.0000 0.0000 0.0000
# 3 57.8179 15.6915 94.1498 0.0000 0.0000 0.0000
# 4 0.0000 0.0000 0.0000 5.1434 0.0000 0.0000
# 5 0.0000 0.0000 0.0000 0.0000 15.2477 0.0000
# 6 0.0000 0.0000 0.0000 0.0000 0.0000 9.5699
#
#
#
# Elastic Compliance Matrix: (Units=1/GPa)
#
#
# Indices 1 2 3 4 5 6 
#
# 1 0.011018 -0.019479 -0.003520 0.000000 0.000000 0.000000
# 2 -0.019479 0.108833 -0.006176 0.000000 0.000000 0.000000
# 3 -0.003520 -0.006176 0.013812 0.000000 0.000000 0.000000
# 4 0.000000 0.000000 0.000000 0.194423 0.000000 0.000000
# 5 0.000000 0.000000 0.000000 0.000000 0.065584 0.000000
# 6 0.000000 0.000000 0.000000 0.000000 0.000000 0.104495
#
#
# Mechanical properties :
#
#
# Convention : Reuss Voigt Hill
#
# Bulk Modulus (GPa) = 13.27799 54.70036 33.98917
# Shear Modulus (GPa) = 8.59669 17.43054 13.01362
#
# Velocity S-wave (km/s) = 2.18568 3.11227 2.68918
# Velocity P-wave (km/s) = 3.70786 6.58119 5.34136
#
# Compressibility (1/GPa) = 0.07531263
#
# Stress axis : x y z
#
# Youngs Moduli (GPa) = 90.75953 9.18841 72.39920
#
# Poissons Ratio (x) = 0.17898 0.25483
# Poissons Ratio (y) = 1.76791 0.44717
# Poissons Ratio (z) = 0.31946 0.05675
#
# Static dielectric constant tensor:
#      x y z
#    x 3.791530 0.000000 0.000000 
#    y 0.000000 2.845230 0.000000 
#    z 0.000000 0.000000 3.444700 
# 
# 
# High freq. dielectric constant tensor:
#      x y z
#    x 1.710450 0.000000 0.000000 
#    y 0.000000 1.650420 0.000000 
#    z 0.000000 0.000000 1.683410 
# 
# From -- ./inp_files/20831.got.cif
#   From: 2010.03.12/outbox.cif.g09.slc.cpg/sg42_11_cif.got.tgz:20831.got - 2010.04.14 02:04:31.
