data_PCOD8185893
_publ_section_title
;
Structure prediction by ZEFSAII (Michael W. Deem and Ramdas Pophale) SiO2 
 PCOD8185893
Probable space group: F M M 2
;
_chemical_formula_sum "Si O2"
_cell_formula_units_Z 80
_cell_length_a 8.789999
_cell_length_b 29.173829
_cell_length_c 15.695588
_cell_angle_alpha 90.000000
_cell_angle_beta 90.000000
_cell_angle_gamma 90.000000
_cell_volume 4024.944061
_symmetry_space_group_name_H-M "F M M 2"
_symmetry_group_IT_number 42
_symmetry_cell_setting 'orthorhombic'
loop_
_space_group_symop_operation_xyz
x,y,z
-x,-y,z
-x,y,z
x,-y,z
x,1/2+y,1/2+z
-x,1/2-y,1/2+z
-x,1/2+y,1/2+z
x,1/2-y,1/2+z
1/2+x,y,1/2+z
1/2-x,-y,1/2+z
1/2-x,y,1/2+z
1/2+x,-y,1/2+z
1/2+x,1/2+y,z
1/2-x,1/2-y,z
1/2-x,1/2+y,z
1/2+x,1/2-y,z
loop_
_atom_site_type_symbol
_atom_site_label
_atom_site_fract_x
_atom_site_fract_y
_atom_site_fract_z
Si Si1 0.324442 0.105799 0.343730
Si Si2 0.180290 0.448534 0.691333
Si Si3 0.819477 0.608060 0.532038
Si Si4 0.819869 0.296243 0.597965
Si Si5 0.676656 0.205070 0.281434
O O1 0.500000 0.093192 0.327725
O O2 0.225736 0.079300 0.274947
O O3 0.270111 0.090456 0.438323
O O4 0.300264 0.160547 0.339737
O O5 0.246156 0.500000 0.696440
O O6 0.248043 0.424786 0.605934
O O7 0.000000 0.449288 0.686648
O O8 0.760768 0.659961 0.545111
O O9 0.000000 0.608129 0.538565
O O10 0.750000 0.250000 0.557369
O O11 0.764433 0.303230 0.693885
O O12 0.000000 0.292252 0.596394
O O13 0.500000 0.214296 0.262487
O O14 0.750000 0.250000 0.327036
#
# Coordination Sequence:
#
# PCOD8185893 Si02
#       5
#    16  16  16  16  16
#     4  10  21  37  58  84 112 144 185 227 271 326
#     4  10  21  39  61  82 107 142 183 227 279 334
#     4   9  19  36  57  81 110 146 183 220 268 330
#     4  10  18  31  53  78 109 146 184 222 265 318
#     4  10  19  31  51  79 111 146 184 222 266 319
#
# _framework density 19.876051
#
# number of rings (size 3 to 8) (size 9 to 14) (size 15 to 20)
#    0.000    2.200    2.000    2.400    0.000    2.800 
#    0.000    5.000    0.000    0.000    0.000    0.000 
#    0.000    0.000    0.000    0.000    0.000    0.000 
#
# Total GULP energy -247932.403001 kJ/mol
# GULP energy per Si atom -12396.620150 kJ/mol
# Density = 1.983081 g / cm^3
# Si number density = 19.876051 Si / 1000 Ang^3
#
#
#
# Elastic Constant Matrix: (Units=GPa)
#
#
# Indices 1 2 3 4 5 6 
#
# 1 47.2896 28.5052 12.1267 0.0000 0.0000 0.0000
# 2 28.5052 132.8864 62.4328 0.0000 0.0000 0.0000
# 3 12.1267 62.4328 123.4781 0.0000 0.0000 0.0000
# 4 0.0000 0.0000 0.0000 15.2528 0.0000 0.0000
# 5 0.0000 0.0000 0.0000 0.0000 20.7645 0.0000
# 6 0.0000 0.0000 0.0000 0.0000 0.0000 23.7449
#
#
#
# Elastic Compliance Matrix: (Units=1/GPa)
#
#
# Indices 1 2 3 4 5 6 
#
# 1 0.024297 -0.005365 0.000327 0.000000 0.000000 0.000000
# 2 -0.005365 0.011055 -0.005062 0.000000 0.000000 0.000000
# 3 0.000327 -0.005062 0.010626 0.000000 0.000000 0.000000
# 4 0.000000 0.000000 0.000000 0.065562 0.000000 0.000000
# 5 0.000000 0.000000 0.000000 0.000000 0.048159 0.000000
# 6 0.000000 0.000000 0.000000 0.000000 0.000000 0.042114
#
#
# Mechanical properties :
#
#
# Convention : Reuss Voigt Hill
#
# Bulk Modulus (GPa) = 38.79705 56.64258 47.71982
# Shear Modulus (GPa) = 21.68194 25.32506 23.50350
#
# Velocity S-wave (km/s) = 3.30640 3.57340 3.44249
# Velocity P-wave (km/s) = 5.84279 6.75169 6.31362
#
# Compressibility (1/GPa) = 0.02577515
#
# Stress axis : x y z
#
# Youngs Moduli (GPa) = 41.15801 90.46028 94.10696
#
# Poissons Ratio (x) = 0.48534 -0.03074
# Poissons Ratio (y) = 0.22082 0.47641
# Poissons Ratio (z) = -0.01344 0.45795
#
# Static dielectric constant tensor:
#      x y z
#    x 3.368240 0.000000 0.000000 
#    y 0.000000 3.763960 0.000000 
#    z 0.000000 0.000000 3.606810 
# 
# 
# High freq. dielectric constant tensor:
#      x y z
#    x 1.750280 0.000000 0.000000 
#    y 0.000000 1.782180 0.000000 
#    z 0.000000 0.000000 1.770970 
# 
# From -- ./inp_files/18218.got.cif
#   From: 2010.03.12/outbox.cif.g09.slc.cpg/sg42_10_cif.got.tgz:18218.got - 2010.04.14 02:04:31.
