data_PCOD8185282
_publ_section_title
;
Structure prediction by ZEFSAII (Michael W. Deem and Ramdas Pophale) SiO2 
 PCOD8185282
Probable space group: A B A 2
;
_chemical_formula_sum "Si O2"
_cell_formula_units_Z 44
_cell_length_a 21.487758
_cell_length_b 5.072699
_cell_length_c 18.279381
_cell_angle_alpha 90.000000
_cell_angle_beta 90.000000
_cell_angle_gamma 90.000000
_cell_volume 1992.469502
_symmetry_space_group_name_H-M "A B A 2"
_symmetry_group_IT_number 41
_symmetry_cell_setting 'orthorhombic'
loop_
_space_group_symop_operation_xyz
x,y,z
-x,-y,z
1/2-x,y,1/2+z
1/2+x,-y,1/2+z
x,1/2+y,1/2+z
-x,1/2-y,1/2+z
1/2-x,1/2+y,z
1/2+x,1/2-y,z
loop_
_atom_site_type_symbol
_atom_site_label
_atom_site_fract_x
_atom_site_fract_y
_atom_site_fract_z
Si Si1 0.118604 0.358090 0.937740
Si Si2 0.565707 0.135021 0.504545
Si Si3 0.568865 0.608971 0.280909
Si Si4 0.099681 0.148133 0.139557
Si Si5 0.500000 0.000000 0.190537
Si Si6 0.289963 0.410969 0.556991
O O1 0.070153 0.562503 0.977383
O O2 0.113686 0.384889 0.850745
O O3 0.108343 0.051330 0.954214
O O4 0.186697 0.415724 0.972271
O O5 0.500000 0.000000 0.493038
O O6 0.592262 0.108932 0.587412
O O7 0.500000 0.500000 0.300678
O O8 0.608864 0.435690 0.223615
O O9 0.555230 0.889561 0.242871
O O10 0.153277 0.344517 0.111895
O O11 0.031685 0.289696 0.136266
O O12 0.264766 0.702695 0.572780
#
# Coordination Sequence:
#
# PCOD8185282 Si02
#       6
#     8   8   8   8   4   8
#     4  11  25  40  65  93 133 175 225 274 337 398
#     4  11  22  36  61  98 131 172 214 271 333 412
#     4  10  22  40  62 102 139 178 206 272 347 428
#     4  10  24  39  68  95 137 173 225 277 345 406
#     4  10  22  38  70 104 148 172 214 278 364 428
#     4  11  25  47  69  93 129 182 239 293 327 384
#
# _framework density 22.083147
#
# number of rings (size 3 to 8) (size 9 to 14) (size 15 to 20)
#    0.000    1.455    0.000    5.455   19.091    0.000 
#    0.000    1.818    0.000    0.000    0.000    0.000 
#    0.000    0.000    0.000    0.000    0.000    0.000 
#
# Total GULP energy -272579.332616 kJ/mol
# GULP energy per Si atom -12389.969664 kJ/mol
# Density = 2.203288 g / cm^3
# Si number density = 22.083147 Si / 1000 Ang^3
#
#
#
# Elastic Constant Matrix: (Units=GPa)
#
#
# Indices 1 2 3 4 5 6 
#
# 1 64.4862 12.0464 36.1182 0.0000 0.0000 0.0000
# 2 12.0464 69.6557 22.7437 0.0000 0.0000 0.0000
# 3 36.1182 22.7437 158.8896 0.0000 0.0000 0.0000
# 4 0.0000 0.0000 0.0000 13.4900 0.0000 0.0000
# 5 0.0000 0.0000 0.0000 0.0000 36.4765 0.0000
# 6 0.0000 0.0000 0.0000 0.0000 0.0000 33.9395
#
#
#
# Elastic Compliance Matrix: (Units=1/GPa)
#
#
# Indices 1 2 3 4 5 6 
#
# 1 0.017997 -0.001864 -0.003824 0.000000 0.000000 0.000000
# 2 -0.001864 0.015253 -0.001760 0.000000 0.000000 0.000000
# 3 -0.003824 -0.001760 0.007415 0.000000 0.000000 0.000000
# 4 0.000000 0.000000 0.000000 0.074129 0.000000 0.000000
# 5 0.000000 0.000000 0.000000 0.000000 0.027415 0.000000
# 6 0.000000 0.000000 0.000000 0.000000 0.000000 0.029464
#
#
# Mechanical properties :
#
#
# Convention : Reuss Voigt Hill
#
# Bulk Modulus (GPa) = 38.80506 48.31645 43.56075
# Shear Modulus (GPa) = 25.62016 31.58944 28.60480
#
# Velocity S-wave (km/s) = 3.40982 3.78627 3.60296
# Velocity P-wave (km/s) = 5.75438 6.40635 6.08909
#
# Compressibility (1/GPa) = 0.02576984
#
# Stress axis : x y z
#
# Youngs Moduli (GPa) = 55.56385 65.55987 134.86386
#
# Poissons Ratio (x) = 0.12219 0.51576
# Poissons Ratio (y) = 0.10356 0.23732
# Poissons Ratio (z) = 0.21249 0.11537
#
# Static dielectric constant tensor:
#      x y z
#    x 3.872770 0.000000 0.000000 
#    y 0.000000 4.249550 0.000000 
#    z 0.000000 0.000000 3.920470 
# 
# 
# High freq. dielectric constant tensor:
#      x y z
#    x 1.835800 0.000000 0.000000 
#    y 0.000000 1.885320 0.000000 
#    z 0.000000 0.000000 1.859740 
# 
# From -- ./inp_files/10722.got.cif
#   From: 2010.03.12/outbox.cif.g09.slc.cpg/sg41_6_cif.got.tgz:10722.got - 2010.04.14 01:55:53.
