data_PCOD8185865
_publ_section_title
;
Structure prediction by ZEFSAII (Michael W. Deem and Ramdas Pophale) SiO2 
 PCOD8185865
Probable space group: F M M 2
;
_chemical_formula_sum "Si O2"
_cell_formula_units_Z 80
_cell_length_a 8.483305
_cell_length_b 25.738473
_cell_length_c 19.550025
_cell_angle_alpha 90.000000
_cell_angle_beta 90.000000
_cell_angle_gamma 90.000000
_cell_volume 4268.695500
_symmetry_space_group_name_H-M "F M M 2"
_symmetry_group_IT_number 42
_symmetry_cell_setting 'orthorhombic'
loop_
_space_group_symop_operation_xyz
x,y,z
-x,-y,z
-x,y,z
x,-y,z
x,1/2+y,1/2+z
-x,1/2-y,1/2+z
-x,1/2+y,1/2+z
x,1/2-y,1/2+z
1/2+x,y,1/2+z
1/2-x,-y,1/2+z
1/2-x,y,1/2+z
1/2+x,-y,1/2+z
1/2+x,1/2+y,z
1/2-x,1/2-y,z
1/2-x,1/2+y,z
1/2+x,1/2-y,z
loop_
_atom_site_type_symbol
_atom_site_label
_atom_site_fract_x
_atom_site_fract_y
_atom_site_fract_z
Si Si1 0.314635 0.107925 0.367760
Si Si2 0.815412 0.805652 0.465348
Si Si3 0.314493 0.694185 0.112145
Si Si4 0.812693 0.605251 0.715515
Si Si5 0.186748 0.000000 0.718197
Si Si6 0.315259 0.000000 0.868755
O O1 0.500000 0.114631 0.375640
O O2 0.227011 0.152699 0.408493
O O3 0.265811 0.113347 0.289043
O O4 0.262874 0.052212 0.399534
O O5 0.750000 0.750000 0.441949
O O6 0.746703 0.823170 0.538166
O O7 0.000000 0.800606 0.473165
O O8 0.500000 0.697430 0.108471
O O9 0.250000 0.750000 0.134888
O O10 0.258414 0.652459 0.167802
O O11 0.742799 0.552588 0.680140
O O12 0.000000 0.601542 0.723078
O O13 0.283685 0.000000 0.788400
O O14 0.000000 0.000000 0.731414
O O15 0.500000 0.000000 0.884672
#
# Coordination Sequence:
#
# PCOD8185865 Si02
#       6
#    16  16  16  16   8   8
#     4  11  21  35  56  82 111 142 180 222 266 316
#     4  11  22  38  58  79 107 142 180 221 269 322
#     4  10  21  37  57  79 106 141 178 218 267 320
#     4  10  20  35  55  80 110 142 178 219 265 316
#     4  10  18  30  51  78 107 140 177 217 265 315
#     4  10  18  32  53  78 109 142 177 217 267 319
#
# _framework density 18.741088000000001
#
# number of rings (size 3 to 8) (size 9 to 14) (size 15 to 20)
#    0.000    1.600    0.000   10.200    0.000    4.000 
#    0.000    3.000    0.000    3.600    0.000    0.000 
#    0.000    0.000    0.000    0.000    0.000    0.000 
#
# Total GULP energy -247999.463995 kJ/mol
# GULP energy per Si atom -12399.973200 kJ/mol
# Density = 1.869843 g / cm^3
# Si number density = 18.741088 Si / 1000 Ang^3
#
#
#
# Elastic Constant Matrix: (Units=GPa)
#
#
# Indices 1 2 3 4 5 6 
#
# 1 41.7767 19.3445 4.7940 0.0000 0.0000 0.0000
# 2 19.3445 143.6872 57.2711 0.0000 0.0000 0.0000
# 3 4.7940 57.2711 53.6621 0.0000 0.0000 0.0000
# 4 0.0000 0.0000 0.0000 -389.3034 0.0000 0.0000
# 5 0.0000 0.0000 0.0000 0.0000 27.3955 0.0000
# 6 0.0000 0.0000 0.0000 0.0000 0.0000 36.1096
#
#
#
# Elastic Compliance Matrix: (Units=1/GPa)
#
#
# Indices 1 2 3 4 5 6 
#
# 1 0.025709 -0.004430 0.002432 0.000000 0.000000 0.000000
# 2 -0.004430 0.012875 -0.013345 0.000000 0.000000 0.000000
# 3 0.002432 -0.013345 0.032661 0.000000 0.000000 0.000000
# 4 0.000000 0.000000 0.000000 -0.002569 0.000000 0.000000
# 5 0.000000 0.000000 0.000000 0.000000 0.036502 0.000000
# 6 0.000000 0.000000 0.000000 0.000000 0.000000 0.027693
#
#
# Mechanical properties :
#
#
# Convention : Reuss Voigt Hill
#
# Bulk Modulus (GPa) = 24.65670 44.66058 34.65864
# Shear Modulus (GPa) = 28.23587 -54.64522 -13.20468
#
# Velocity S-wave (km/s) = 3.88574 -5.40567 -2.65728
# Velocity P-wave (km/s) = 5.77209 3.88325 3.01972
#
# Compressibility (1/GPa) = 0.04055693
#
# Stress axis : x y z
#
# Youngs Moduli (GPa) = 38.89653 77.66843 30.61772
#
# Poissons Ratio (x) = 0.34410 -0.07445
# Poissons Ratio (y) = 0.17233 0.40860
# Poissons Ratio (z) = -0.09458 1.03651
#
# Static dielectric constant tensor:
#      x y z
#    x 3.570810 0.000000 0.000000 
#    y 0.000000 4.607000 0.000000 
#    z 0.000000 0.000000 3.226040 
# 
# 
# High freq. dielectric constant tensor:
#      x y z
#    x 1.751150 0.000000 0.000000 
#    y 0.000000 1.748660 0.000000 
#    z 0.000000 0.000000 1.694810 
# 
# From -- ./inp_files/27833.got.cif
#   From: 2010.03.12/outbox.cif.g09.slc.cpg/sg42_14_cif.got.tgz:27833.got - 2010.04.14 02:04:31.
