data_PCOD8185860
_publ_section_title
;
Structure prediction by ZEFSAII (Michael W. Deem and Ramdas Pophale) SiO2 
 PCOD8185860
Probable space group: F M M 2
;
_chemical_formula_sum "Si O2"
_cell_formula_units_Z 96
_cell_length_a 8.817883
_cell_length_b 28.298088
_cell_length_c 20.818515
_cell_angle_alpha 90.000000
_cell_angle_beta 90.000000
_cell_angle_gamma 90.000000
_cell_volume 5194.827999
_symmetry_space_group_name_H-M "F M M 2"
_symmetry_group_IT_number 42
_symmetry_cell_setting 'orthorhombic'
loop_
_space_group_symop_operation_xyz
x,y,z
-x,-y,z
-x,y,z
x,-y,z
x,1/2+y,1/2+z
-x,1/2-y,1/2+z
-x,1/2+y,1/2+z
x,1/2-y,1/2+z
1/2+x,y,1/2+z
1/2-x,-y,1/2+z
1/2-x,y,1/2+z
1/2+x,-y,1/2+z
1/2+x,1/2+y,z
1/2-x,1/2-y,z
1/2-x,1/2+y,z
1/2+x,1/2-y,z
loop_
_atom_site_type_symbol
_atom_site_label
_atom_site_fract_x
_atom_site_fract_y
_atom_site_fract_z
Si Si1 0.824526 0.896469 0.209490
Si Si2 0.179781 0.447128 0.328089
Si Si3 0.820801 0.798302 0.899351
Si Si4 0.820567 0.604045 0.453793
Si Si5 0.319451 0.053862 0.580528
Si Si6 0.676059 0.702656 0.261987
O O1 0.730184 0.919047 0.266118
O O2 0.762178 0.917341 0.142648
O O3 0.800581 0.839836 0.211326
O O4 0.000000 0.909719 0.219038
O O5 0.244364 0.500000 0.324291
O O6 0.247187 0.423190 0.392218
O O7 0.000000 0.446699 0.330677
O O8 0.750000 0.750000 0.927179
O O9 0.777129 0.840581 0.948134
O O10 0.755310 0.810155 0.829217
O O11 0.000000 0.792798 0.892798
O O12 0.751862 0.580934 0.518352
O O13 0.000000 0.597905 0.454727
O O14 0.500000 0.053724 0.577987
O O15 0.258080 0.000000 0.582570
O O16 0.500000 0.711945 0.275859
O O17 0.750000 0.750000 0.232055
#
# Coordination Sequence:
#
# PCOD8185860 Si02
#       6
#    16  16  16  16  16  16
#     4  10  20  33  51  76 103 132 167 210 257 301
#     4  10  19  31  50  75 101 129 167 213 255 298
#     4  10  18  30  50  75 102 130 163 206 254 301
#     4   9  17  30  49  74 100 130 168 209 249 291
#     4   9  17  31  51  73 100 134 171 208 246 295
#     4  10  19  31  49  74 102 132 166 205 252 304
#
# _framework density 18.479918999999999
#
# number of rings (size 3 to 8) (size 9 to 14) (size 15 to 20)
#    0.000    2.333    1.667    3.000    0.000    3.667 
#    0.000    0.833    0.000    3.000    0.000    0.000 
#    0.000    0.000    0.000    0.000    0.000    0.000 
#
# Total GULP energy -297546.788378 kJ/mol
# GULP energy per Si atom -12397.782849 kJ/mol
# Density = 1.843786 g / cm^3
# Si number density = 18.479919 Si / 1000 Ang^3
#
#
#
# Elastic Constant Matrix: (Units=GPa)
#
#
# Indices 1 2 3 4 5 6 
#
# 1 43.2165 33.5142 16.0234 0.0000 0.0000 0.0000
# 2 33.5142 168.8768 81.4254 0.0000 0.0000 0.0000
# 3 16.0234 81.4254 134.6945 0.0000 0.0000 0.0000
# 4 0.0000 0.0000 0.0000 38.0902 0.0000 0.0000
# 5 0.0000 0.0000 0.0000 0.0000 13.6347 0.0000
# 6 0.0000 0.0000 0.0000 0.0000 0.0000 16.3114
#
#
#
# Elastic Compliance Matrix: (Units=1/GPa)
#
#
# Indices 1 2 3 4 5 6 
#
# 1 0.027348 -0.005446 0.000039 0.000000 0.000000 0.000000
# 2 -0.005446 0.009442 -0.005060 0.000000 0.000000 0.000000
# 3 0.000039 -0.005060 0.010478 0.000000 0.000000 0.000000
# 4 0.000000 0.000000 0.000000 0.026253 0.000000 0.000000
# 5 0.000000 0.000000 0.000000 0.000000 0.073342 0.000000
# 6 0.000000 0.000000 0.000000 0.000000 0.000000 0.061307
#
#
# Mechanical properties :
#
#
# Convention : Reuss Voigt Hill
#
# Bulk Modulus (GPa) = 37.97323 67.63485 52.80404
# Shear Modulus (GPa) = 21.01866 27.99559 24.50712
#
# Velocity S-wave (km/s) = 3.37616 3.89642 3.64558
# Velocity P-wave (km/s) = 5.98255 7.54462 6.80853
#
# Compressibility (1/GPa) = 0.02633434
#
# Stress axis : x y z
#
# Youngs Moduli (GPa) = 36.56531 105.90971 95.43401
#
# Poissons Ratio (x) = 0.57680 -0.00371
# Poissons Ratio (y) = 0.19914 0.48290
# Poissons Ratio (z) = -0.00142 0.53590
#
# Static dielectric constant tensor:
#      x y z
#    x 3.084310 0.000000 0.000000 
#    y 0.000000 3.836210 0.000000 
#    z 0.000000 0.000000 3.411930 
# 
# 
# High freq. dielectric constant tensor:
#      x y z
#    x 1.683810 0.000000 0.000000 
#    y 0.000000 1.738030 0.000000 
#    z 0.000000 0.000000 1.699270 
# 
# From -- ./inp_files/23720.got.cif
#   From: 2010.03.12/outbox.cif.g09.slc.cpg/sg42_12_cif.got.tgz:23720.got - 2010.04.14 02:04:31.
