data_PCOD8185618
_publ_section_title
;
Structure prediction by ZEFSAII (Michael W. Deem and Ramdas Pophale) SiO2 
 PCOD8185618
Probable space group: A B A 2
;
_chemical_formula_sum "Si O2"
_cell_formula_units_Z 48
_cell_length_a 21.355435
_cell_length_b 9.249339
_cell_length_c 10.837830
_cell_angle_alpha 90.000000
_cell_angle_beta 90.000000
_cell_angle_gamma 90.000000
_cell_volume 2140.727824
_symmetry_space_group_name_H-M "A B A 2"
_symmetry_group_IT_number 41
_symmetry_cell_setting 'orthorhombic'
loop_
_space_group_symop_operation_xyz
x,y,z
-x,-y,z
1/2-x,y,1/2+z
1/2+x,-y,1/2+z
x,1/2+y,1/2+z
-x,1/2-y,1/2+z
1/2-x,1/2+y,z
1/2+x,1/2-y,z
loop_
_atom_site_type_symbol
_atom_site_label
_atom_site_fract_x
_atom_site_fract_y
_atom_site_fract_z
Si Si1 0.211069 0.763097 0.687130
Si Si2 0.865167 0.234004 0.930854
Si Si3 0.943046 0.389932 0.298630
Si Si4 0.974242 0.359288 0.780346
Si Si5 0.611537 0.431467 0.054507
Si Si6 0.323899 0.572722 0.639557
O O1 0.185908 0.785490 0.824682
O O2 0.171974 0.656696 0.599095
O O3 0.280393 0.696971 0.699349
O O4 0.213094 0.921628 0.624731
O O5 0.932572 0.261019 0.870001
O O6 0.845499 0.376323 0.005182
O O7 0.868738 0.095023 0.019733
O O8 0.919782 0.355721 0.436719
O O9 0.885020 0.455128 0.223103
O O10 0.000000 0.500000 0.296881
O O11 0.967258 0.240481 0.238297
O O12 0.938871 0.425952 0.663174
O O13 0.000000 0.500000 0.853492
#
# Coordination Sequence:
#
# PCOD8185618 Si02
#       6
#     8   8   8   8   8   8
#     4  11  27  49  71 110 140 194 252 298 378 438
#     4  11  25  49  72 105 144 197 242 303 365 435
#     4  12  24  45  76 109 148 196 243 304 377 444
#     4  11  25  41  69 111 142 190 247 293 369 441
#     4  11  23  49  73 101 154 191 241 312 365 439
#     4  12  27  46  77 106 149 192 246 312 365 445
#
# _framework density 22.422280000000001
#
# number of rings (size 3 to 8) (size 9 to 14) (size 15 to 20)
#    0.000    0.667    3.333    3.500    7.000    3.333 
#    0.000    0.000    0.000    0.000    0.000    0.000 
#    0.000    0.000    0.000    0.000    0.000    0.000 
#
# Total GULP energy -297649.991555 kJ/mol
# GULP energy per Si atom -12402.082981 kJ/mol
# Density = 2.237125 g / cm^3
# Si number density = 22.422280 Si / 1000 Ang^3
#
#
#
# Elastic Constant Matrix: (Units=GPa)
#
#
# Indices 1 2 3 4 5 6 
#
# 1 98.8244 22.2431 42.7977 0.0000 0.0000 0.0000
# 2 22.2431 102.5514 66.1375 0.0000 0.0000 0.0000
# 3 42.7977 66.1375 99.2406 0.0000 0.0000 0.0000
# 4 0.0000 0.0000 0.0000 33.2057 0.0000 0.0000
# 5 0.0000 0.0000 0.0000 0.0000 15.3616 0.0000
# 6 0.0000 0.0000 0.0000 0.0000 0.0000 35.3485
#
#
#
# Elastic Compliance Matrix: (Units=1/GPa)
#
#
# Indices 1 2 3 4 5 6 
#
# 1 0.012548 0.001347 -0.006309 0.000000 0.000000 0.000000
# 2 0.001347 0.017246 -0.012074 0.000000 0.000000 0.000000
# 3 -0.006309 -0.012074 0.020844 0.000000 0.000000 0.000000
# 4 0.000000 0.000000 0.000000 0.030115 0.000000 0.000000
# 5 0.000000 0.000000 0.000000 0.000000 0.065097 0.000000
# 6 0.000000 0.000000 0.000000 0.000000 0.000000 0.028290
#
#
# Mechanical properties :
#
#
# Convention : Reuss Voigt Hill
#
# Bulk Modulus (GPa) = 60.36607 62.55256 61.45932
# Shear Modulus (GPa) = 23.39343 28.07905 25.73624
#
# Velocity S-wave (km/s) = 3.23354 3.54260 3.39159
# Velocity P-wave (km/s) = 6.39702 6.68516 6.54268
#
# Compressibility (1/GPa) = 0.01656560
#
# Stress axis : x y z
#
# Youngs Moduli (GPa) = 79.69363 57.98446 47.97487
#
# Poissons Ratio (x) = -0.07813 0.30269
# Poissons Ratio (y) = -0.10738 0.57927
# Poissons Ratio (z) = 0.50281 0.70013
#
# Static dielectric constant tensor:
#      x y z
#    x 4.200300 0.000000 0.000000 
#    y 0.000000 4.278680 0.000000 
#    z 0.000000 0.000000 3.911370 
# 
# 
# High freq. dielectric constant tensor:
#      x y z
#    x 1.896400 0.000000 0.000000 
#    y 0.000000 1.900720 0.000000 
#    z 0.000000 0.000000 1.874200 
# 
# From -- ./inp_files/6401.got.cif
#   From: 2010.03.12/outbox.cif.g09.slc.cpg/sg41_4_cif.got.tgz:6401.got - 2010.04.14 01:55:53.
