data_PCOD8185555
_publ_section_title
;
Structure prediction by ZEFSAII (Michael W. Deem and Ramdas Pophale) SiO2 
 PCOD8185555
Probable space group: A B A 2
;
_chemical_formula_sum "Si O2"
_cell_formula_units_Z 36
_cell_length_a 23.594748
_cell_length_b 13.026476
_cell_length_c 4.962201
_cell_angle_alpha 90.000000
_cell_angle_beta 90.000000
_cell_angle_gamma 90.000000
_cell_volume 1525.164327
_symmetry_space_group_name_H-M "A B A 2"
_symmetry_group_IT_number 41
_symmetry_cell_setting 'orthorhombic'
loop_
_space_group_symop_operation_xyz
x,y,z
-x,-y,z
1/2-x,y,1/2+z
1/2+x,-y,1/2+z
x,1/2+y,1/2+z
-x,1/2-y,1/2+z
1/2-x,1/2+y,z
1/2+x,1/2-y,z
loop_
_atom_site_type_symbol
_atom_site_label
_atom_site_fract_x
_atom_site_fract_y
_atom_site_fract_z
Si Si1 0.123310 0.750697 0.189750
Si Si2 0.621757 0.033496 0.428962
Si Si3 0.576931 0.847258 0.687376
Si Si4 0.212047 0.580205 0.139564
Si Si5 0.500000 0.500000 0.959469
O O1 0.092925 0.745935 0.481453
O O2 0.182936 0.690978 0.183798
O O3 0.135789 0.865584 0.097520
O O4 0.079423 0.694195 0.988593
O O5 0.624000 0.937217 0.638627
O O6 0.667685 0.013321 0.195872
O O7 0.557381 0.031698 0.296417
O O8 0.514890 0.898342 0.639906
O O9 0.265647 0.569303 0.337319
#
# Coordination Sequence:
#
# PCOD8185555 Si02
#       5
#     8   8   8   8   4
#     4  11  22  41  67  92 130 173 223 262 336 393
#     4   9  22  43  66  99 131 176 215 275 339 399
#     4   9  22  40  60  99 134 165 209 269 315 407
#     4  11  24  43  66  93 134 172 228 286 324 390
#     4   8  20  46  62 104 136 170 210 278 340 406
#
# _framework density 23.604016999999999
#
# number of rings (size 3 to 8) (size 9 to 14) (size 15 to 20)
#    1.333    0.889    0.000    2.667    0.000    9.778 
#    0.000    0.000    0.000    0.000    0.000    0.000 
#    0.000    0.000    0.000    0.000    0.000    0.000 
#
# Total GULP energy -222998.278836 kJ/mol
# GULP energy per Si atom -12388.793269 kJ/mol
# Density = 2.355029 g / cm^3
# Si number density = 23.604017 Si / 1000 Ang^3
#
#
#
# Elastic Constant Matrix: (Units=GPa)
#
#
# Indices 1 2 3 4 5 6 
#
# 1 118.3081 23.2719 15.5060 0.0000 0.0000 0.0000
# 2 23.2719 127.2400 5.9426 0.0000 0.0000 0.0000
# 3 15.5060 5.9426 55.7090 0.0000 0.0000 0.0000
# 4 0.0000 0.0000 0.0000 24.1820 0.0000 0.0000
# 5 0.0000 0.0000 0.0000 0.0000 17.2803 0.0000
# 6 0.0000 0.0000 0.0000 0.0000 0.0000 22.1350
#
#
#
# Elastic Compliance Matrix: (Units=1/GPa)
#
#
# Indices 1 2 3 4 5 6 
#
# 1 0.009066 -0.001548 -0.002358 0.000000 0.000000 0.000000
# 2 -0.001548 0.008163 -0.000440 0.000000 0.000000 0.000000
# 3 -0.002358 -0.000440 0.018654 0.000000 0.000000 0.000000
# 4 0.000000 0.000000 0.000000 0.041353 0.000000 0.000000
# 5 0.000000 0.000000 0.000000 0.000000 0.057869 0.000000
# 6 0.000000 0.000000 0.000000 0.000000 0.000000 0.045177
#
#
# Mechanical properties :
#
#
# Convention : Reuss Voigt Hill
#
# Bulk Modulus (GPa) = 36.77787 43.41090 40.09439
# Shear Modulus (GPa) = 25.24764 29.82190 27.53477
#
# Velocity S-wave (km/s) = 3.27407 3.55832 3.41915
# Velocity P-wave (km/s) = 5.46880 5.94251 5.71057
#
# Compressibility (1/GPa) = 0.02719026
#
# Stress axis : x y z
#
# Youngs Moduli (GPa) = 110.30096 122.50640 53.60848
#
# Poissons Ratio (x) = 0.18964 0.12643
# Poissons Ratio (y) = 0.17075 0.02358
# Poissons Ratio (z) = 0.26012 0.05389
#
# Static dielectric constant tensor:
#      x y z
#    x 4.134410 0.000000 0.000000 
#    y 0.000000 4.146100 0.000000 
#    z 0.000000 0.000000 3.865180 
# 
# 
# High freq. dielectric constant tensor:
#      x y z
#    x 1.932100 0.000000 0.000000 
#    y 0.000000 1.926980 0.000000 
#    z 0.000000 0.000000 1.911030 
# 
# From -- ./inp_files/1084.got.cif
#   From: 2010.03.12/outbox.cif.g09.slc.cpg/sg41_1_cif.got.tgz:1084.got - 2010.04.14 01:55:53.
