data_PCOD8185744
_publ_section_title
;
Structure prediction by ZEFSAII (Michael W. Deem and Ramdas Pophale) SiO2 
 PCOD8185744
Probable space group: F M M 2
;
_chemical_formula_sum "Si O2"
_cell_formula_units_Z 128
_cell_length_a 16.865766
_cell_length_b 23.736380
_cell_length_c 19.232482
_cell_angle_alpha 90.000000
_cell_angle_beta 90.000000
_cell_angle_gamma 90.000000
_cell_volume 7699.382422
_symmetry_space_group_name_H-M "F M M 2"
_symmetry_group_IT_number 42
_symmetry_cell_setting 'orthorhombic'
loop_
_space_group_symop_operation_xyz
x,y,z
-x,-y,z
-x,y,z
x,-y,z
x,1/2+y,1/2+z
-x,1/2-y,1/2+z
-x,1/2+y,1/2+z
x,1/2-y,1/2+z
1/2+x,y,1/2+z
1/2-x,-y,1/2+z
1/2-x,y,1/2+z
1/2+x,-y,1/2+z
1/2+x,1/2+y,z
1/2-x,1/2-y,z
1/2-x,1/2+y,z
1/2+x,1/2-y,z
loop_
_atom_site_type_symbol
_atom_site_label
_atom_site_fract_x
_atom_site_fract_y
_atom_site_fract_z
Si Si1 0.093712 0.230274 0.099380
Si Si2 0.406743 0.835836 0.008662
Si Si3 0.094734 0.937275 0.884499
Si Si4 0.159233 0.734564 0.892871
Si Si5 0.405825 0.116517 0.242539
Si Si6 0.092766 0.163292 0.973362
Si Si7 0.905714 0.754661 0.749845
Si Si8 0.594321 0.436949 0.600840
O O1 0.124724 0.225176 0.178335
O O2 0.000000 0.225321 0.100199
O O3 0.116897 0.290939 0.068116
O O4 0.129162 0.180986 0.048889
O O5 0.500000 0.833713 0.992738
O O6 0.360039 0.821395 0.937692
O O7 0.379709 0.897083 0.036568
O O8 0.126238 0.917629 0.809230
O O9 0.129167 0.895036 0.943826
O O10 0.000000 0.935652 0.884062
O O11 0.126298 0.000000 0.900461
O O12 0.250000 0.750000 0.902285
O O13 0.105752 0.786574 0.918519
O O14 0.137317 0.722339 0.812790
O O15 0.500000 0.115241 0.239550
O O16 0.376971 0.180735 0.248137
O O17 0.370913 0.087196 0.173317
O O18 0.000000 0.154841 0.981506
O O19 0.000000 0.750013 0.758085
O O20 0.500000 0.437339 0.606027
O O21 0.627247 0.500000 0.587908
#
# Coordination Sequence:
#
# PCOD8185744 Si02
#       8
#    16  16  16  16  16  16  16  16
#     4   8  14  24  43  64  82 109 147 177 206 257
#     4   9  16  29  46  65  88 117 146 175 218 267
#     4   9  15  22  37  63  92 119 144 170 207 257
#     4  11  21  30  42  62  89 116 153 188 218 255
#     4   9  14  21  36  63  95 119 137 167 213 267
#     4   9  16  29  46  64  88 118 146 176 218 263
#     4  10  16  27  45  64  87 119 147 174 220 271
#     4   9  15  23  40  68  96 116 140 178 221 264
#
# _framework density 16.62471
#
# number of rings (size 3 to 8) (size 9 to 14) (size 15 to 20)
#    0.000    2.750    2.500    2.250    0.000    1.500 
#    0.000    2.500    0.000    0.750    0.000    0.875 
#    0.000    5.000    0.000    0.000    0.000    0.000 
#
# Total GULP energy -396562.828599 kJ/mol
# GULP energy per Si atom -12392.588394 kJ/mol
# Density = 1.658687 g / cm^3
# Si number density = 16.624710 Si / 1000 Ang^3
#
#
#
# Elastic Constant Matrix: (Units=GPa)
#
#
# Indices 1 2 3 4 5 6 
#
# 1 18.0350 11.1157 19.6649 0.0000 0.0000 0.0000
# 2 11.1157 111.0523 79.2046 0.0000 0.0000 0.0000
# 3 19.6649 79.2046 154.6700 0.0000 0.0000 0.0000
# 4 0.0000 0.0000 0.0000 28.7539 0.0000 0.0000
# 5 0.0000 0.0000 0.0000 0.0000 4.1097 0.0000
# 6 0.0000 0.0000 0.0000 0.0000 0.0000 5.0531
#
#
#
# Elastic Compliance Matrix: (Units=1/GPa)
#
#
# Indices 1 2 3 4 5 6 
#
# 1 0.064436 -0.000956 -0.007703 0.000000 0.000000 0.000000
# 2 -0.000956 0.014200 -0.007150 0.000000 0.000000 0.000000
# 3 -0.007703 -0.007150 0.011106 0.000000 0.000000 0.000000
# 4 0.000000 0.000000 0.000000 0.034778 0.000000 0.000000
# 5 0.000000 0.000000 0.000000 0.000000 0.243329 0.000000
# 6 0.000000 0.000000 0.000000 0.000000 0.000000 0.197900
#
#
# Mechanical properties :
#
#
# Convention : Reuss Voigt Hill
#
# Bulk Modulus (GPa) = 17.20448 55.96976 36.58712
# Shear Modulus (GPa) = 8.10712 19.16814 13.63763
#
# Velocity S-wave (km/s) = 2.21069 3.39926 2.86723
# Velocity P-wave (km/s) = 4.10943 7.01044 5.74603
#
# Compressibility (1/GPa) = 0.05812441
#
# Stress axis : x y z
#
# Youngs Moduli (GPa) = 15.51929 70.42220 90.03926
#
# Poissons Ratio (x) = 0.06730 0.69358
# Poissons Ratio (y) = 0.01483 0.64380
# Poissons Ratio (z) = 0.11955 0.50353
#
# Static dielectric constant tensor:
#      x y z
#    x 2.523150 0.000000 0.000000 
#    y 0.000000 3.265230 0.000000 
#    z 0.000000 0.000000 3.480920 
# 
# 
# High freq. dielectric constant tensor:
#      x y z
#    x 1.575090 0.000000 0.000000 
#    y 0.000000 1.621200 0.000000 
#    z 0.000000 0.000000 1.649010 
# 
# From -- ./inp_files/21978.got.cif
#   From: 2010.03.12/outbox.cif.g09.slc.cpg/sg42_11_cif.got.tgz:21978.got - 2010.04.14 02:04:31.
