data_PCOD8185783
_publ_section_title
;
Structure prediction by ZEFSAII (Michael W. Deem and Ramdas Pophale) SiO2 
 PCOD8185783
Probable space group: F M M 2
;
_chemical_formula_sum "Si O2"
_cell_formula_units_Z 128
_cell_length_a 24.067049
_cell_length_b 25.292479
_cell_length_c 11.919369
_cell_angle_alpha 90.000000
_cell_angle_beta 90.000000
_cell_angle_gamma 90.000000
_cell_volume 7255.502651
_symmetry_space_group_name_H-M "F M M 2"
_symmetry_group_IT_number 42
_symmetry_cell_setting 'orthorhombic'
loop_
_space_group_symop_operation_xyz
x,y,z
-x,-y,z
-x,y,z
x,-y,z
x,1/2+y,1/2+z
-x,1/2-y,1/2+z
-x,1/2+y,1/2+z
x,1/2-y,1/2+z
1/2+x,y,1/2+z
1/2-x,-y,1/2+z
1/2-x,y,1/2+z
1/2+x,-y,1/2+z
1/2+x,1/2+y,z
1/2-x,1/2-y,z
1/2-x,1/2+y,z
1/2+x,1/2-y,z
loop_
_atom_site_type_symbol
_atom_site_label
_atom_site_fract_x
_atom_site_fract_y
_atom_site_fract_z
Si Si1 0.690172 0.380325 0.448950
Si Si2 0.282308 0.938624 0.174398
Si Si3 0.813093 0.255608 0.192010
Si Si4 0.561673 0.862366 0.684733
Si Si5 0.885465 0.201299 0.366964
Si Si6 0.383989 0.796436 0.505544
Si Si7 0.694626 0.854618 0.346085
Si Si8 0.158493 0.060007 0.233731
O O1 0.694331 0.409757 0.566100
O O2 0.641467 0.336635 0.461321
O O3 0.745990 0.350513 0.408022
O O4 0.669700 0.424172 0.361278
O O5 0.308373 0.912490 0.287499
O O6 0.215694 0.931606 0.166052
O O7 0.299415 0.000000 0.176732
O O8 0.750000 0.250000 0.157833
O O9 0.834008 0.212747 0.282232
O O10 0.845875 0.243576 0.077872
O O11 0.817324 0.313997 0.244525
O O12 0.500000 0.887507 0.680191
O O13 0.566214 0.828652 0.799261
O O14 0.568230 0.823190 0.578901
O O15 0.609321 0.906446 0.677308
O O16 0.910960 0.255699 0.415802
O O17 0.350656 0.843548 0.442840
O O18 0.138405 0.000000 0.229994
#
# Coordination Sequence:
#
# PCOD8185783 Si02
#       8
#    16  16  16  16  16  16  16  16
#     4  10  17  29  49  72 102 136 162 190 236 296
#     4  10  20  32  49  73 104 139 164 190 241 303
#     4  10  18  28  46  73 104 134 165 191 236 289
#     4  10  21  37  53  70  94 126 169 216 252 283
#     4   9  19  32  46  75 102 131 162 199 240 291
#     4  10  21  31  49  73 101 132 168 199 240 293
#     4  10  20  30  46  70 103 136 164 199 235 289
#     4   9  19  34  49  71  99 124 164 210 246 290
#
# _framework density 17.641783
#
# number of rings (size 3 to 8) (size 9 to 14) (size 15 to 20)
#    0.000    2.250    1.250    1.875    5.250    1.250 
#    0.000    0.625    0.000    0.000    0.000    0.875 
#    0.000    4.000    0.000    0.000    0.000    0.000 
#
# Total GULP energy -396538.481764 kJ/mol
# GULP energy per Si atom -12391.827555 kJ/mol
# Density = 1.760163 g / cm^3
# Si number density = 17.641783 Si / 1000 Ang^3
#
#
#
# Elastic Constant Matrix: (Units=GPa)
#
#
# Indices 1 2 3 4 5 6 
#
# 1 56.6684 30.0092 21.4152 0.0000 0.0000 0.0000
# 2 30.0092 92.3158 34.9292 0.0000 0.0000 0.0000
# 3 21.4152 34.9292 70.0700 0.0000 0.0000 0.0000
# 4 0.0000 0.0000 0.0000 27.1658 0.0000 0.0000
# 5 0.0000 0.0000 0.0000 0.0000 7.9740 0.0000
# 6 0.0000 0.0000 0.0000 0.0000 0.0000 14.7045
#
#
#
# Elastic Compliance Matrix: (Units=1/GPa)
#
#
# Indices 1 2 3 4 5 6 
#
# 1 0.022157 -0.005719 -0.003921 0.000000 0.000000 0.000000
# 2 -0.005719 0.014827 -0.005643 0.000000 0.000000 0.000000
# 3 -0.003921 -0.005643 0.018283 0.000000 0.000000 0.000000
# 4 0.000000 0.000000 0.000000 0.036811 0.000000 0.000000
# 5 0.000000 0.000000 0.000000 0.000000 0.125408 0.000000
# 6 0.000000 0.000000 0.000000 0.000000 0.000000 0.068007
#
#
# Mechanical properties :
#
#
# Convention : Reuss Voigt Hill
#
# Bulk Modulus (GPa) = 40.48520 43.52904 42.00712
# Shear Modulus (GPa) = 15.41827 18.81556 17.11692
#
# Velocity S-wave (km/s) = 2.95949 3.26933 3.11826
# Velocity P-wave (km/s) = 5.88867 6.24329 6.06857
#
# Compressibility (1/GPa) = 0.02470038
#
# Stress axis : x y z
#
# Youngs Moduli (GPa) = 45.13299 67.44634 54.69644
#
# Poissons Ratio (x) = 0.38573 0.21445
# Poissons Ratio (y) = 0.25812 0.30865
# Poissons Ratio (z) = 0.17696 0.38060
#
# Static dielectric constant tensor:
#      x y z
#    x 2.855930 0.000000 0.000000 
#    y 0.000000 3.353690 0.000000 
#    z 0.000000 0.000000 3.286870 
# 
# 
# High freq. dielectric constant tensor:
#      x y z
#    x 1.635470 0.000000 0.000000 
#    y 0.000000 1.686020 0.000000 
#    z 0.000000 0.000000 1.688000 
# 
# From -- ./inp_files/10345.got.cif
#   From: 2010.03.12/outbox.cif.g09.slc.cpg/sg42_6_cif.got.tgz:10345.got - 2010.04.14 02:04:31.
