data_PCOD8185975
_publ_section_title
;
Structure prediction by ZEFSAII (Michael W. Deem and Ramdas Pophale) SiO2 
 PCOD8185975
Probable space group: F M M 2
;
_chemical_formula_sum "Si O2"
_cell_formula_units_Z 96
_cell_length_a 13.937528
_cell_length_b 22.060471
_cell_length_c 18.196410
_cell_angle_alpha 90.000000
_cell_angle_beta 90.000000
_cell_angle_gamma 90.000000
_cell_volume 5594.821655
_symmetry_space_group_name_H-M "F M M 2"
_symmetry_group_IT_number 42
_symmetry_cell_setting 'orthorhombic'
loop_
_space_group_symop_operation_xyz
x,y,z
-x,-y,z
-x,y,z
x,-y,z
x,1/2+y,1/2+z
-x,1/2-y,1/2+z
-x,1/2+y,1/2+z
x,1/2-y,1/2+z
1/2+x,y,1/2+z
1/2-x,-y,1/2+z
1/2-x,y,1/2+z
1/2+x,-y,1/2+z
1/2+x,1/2+y,z
1/2-x,1/2-y,z
1/2-x,1/2+y,z
1/2+x,1/2-y,z
loop_
_atom_site_type_symbol
_atom_site_label
_atom_site_fract_x
_atom_site_fract_y
_atom_site_fract_z
Si Si1 0.388938 0.852754 0.840830
Si Si2 0.110187 0.215294 0.637844
Si Si3 0.199360 0.839462 0.092472
Si Si4 0.111491 0.429617 0.700956
Si Si5 0.391474 0.282503 0.805321
Si Si6 0.230269 0.819893 0.934939
O O1 0.500000 0.857272 0.862764
O O2 0.361130 0.902708 0.780456
O O3 0.358599 0.787449 0.807937
O O4 0.326462 0.858626 0.915536
O O5 0.135416 0.285970 0.627311
O O6 0.185980 0.174261 0.593934
O O7 0.122985 0.195490 0.722380
O O8 0.000000 0.204217 0.611898
O O9 0.174460 0.900218 0.136291
O O10 0.177222 0.848975 0.005694
O O11 0.136446 0.500000 0.702732
O O12 0.000000 0.417040 0.684141
O O13 0.500000 0.287308 0.831093
O O14 0.334417 0.324644 0.861909
O O15 0.250000 0.750000 0.956297
#
# Coordination Sequence:
#
# PCOD8185975 Si02
#       6
#    16  16  16  16  16  16
#     4   9  17  30  48  69  95 128 168 208 242 287
#     4  10  19  31  49  73 102 135 168 204 251 304
#     4  11  20  32  48  76 107 136 163 207 258 308
#     4  10  20  35  56  77  97 131 178 221 256 291
#     4   9  17  28  45  67  96 132 160 194 240 296
#     4  10  19  30  44  74 106 133 158 193 255 315
#
# _framework density 17.158723999999999
#
# number of rings (size 3 to 8) (size 9 to 14) (size 15 to 20)
#    0.000    2.167    3.333    1.500    4.667    2.000 
#    0.000    0.833    0.000    0.500    0.000    0.000 
#    0.000    0.000    0.000    0.000    0.000    0.000 
#
# Total GULP energy -297525.671276 kJ/mol
# GULP energy per Si atom -12396.902970 kJ/mol
# Density = 1.711967 g / cm^3
# Si number density = 17.158724 Si / 1000 Ang^3
#
#
#
# Elastic Constant Matrix: (Units=GPa)
#
#
# Indices 1 2 3 4 5 6 
#
# 1 75.3559 33.6982 41.6402 0.0000 0.0000 0.0000
# 2 33.6982 71.2070 37.7893 0.0000 0.0000 0.0000
# 3 41.6402 37.7893 110.5105 0.0000 0.0000 0.0000
# 4 0.0000 0.0000 0.0000 13.5512 0.0000 0.0000
# 5 0.0000 0.0000 0.0000 0.0000 19.6366 0.0000
# 6 0.0000 0.0000 0.0000 0.0000 0.0000 15.8407
#
#
#
# Elastic Compliance Matrix: (Units=1/GPa)
#
#
# Indices 1 2 3 4 5 6 
#
# 1 0.018808 -0.006279 -0.004940 0.000000 0.000000 0.000000
# 2 -0.006279 0.019254 -0.004218 0.000000 0.000000 0.000000
# 3 -0.004940 -0.004218 0.012352 0.000000 0.000000 0.000000
# 4 0.000000 0.000000 0.000000 0.073794 0.000000 0.000000
# 5 0.000000 0.000000 0.000000 0.000000 0.050925 0.000000
# 6 0.000000 0.000000 0.000000 0.000000 0.000000 0.063128
#
#
# Mechanical properties :
#
#
# Convention : Reuss Voigt Hill
#
# Bulk Modulus (GPa) = 51.17549 53.70319 52.43934
# Shear Modulus (GPa) = 18.13904 19.40209 18.77057
#
# Velocity S-wave (km/s) = 3.25488 3.36630 3.31106
# Velocity P-wave (km/s) = 6.63440 6.81727 6.72645
#
# Compressibility (1/GPa) = 0.01954060
#
# Stress axis : x y z
#
# Youngs Moduli (GPa) = 53.16920 51.93849 80.95594
#
# Poissons Ratio (x) = 0.32614 0.39989
# Poissons Ratio (y) = 0.33386 0.34145
# Poissons Ratio (z) = 0.26263 0.21906
#
# Static dielectric constant tensor:
#      x y z
#    x 3.351700 0.000000 0.000000 
#    y 0.000000 2.742160 0.000000 
#    z 0.000000 0.000000 3.255850 
# 
# 
# High freq. dielectric constant tensor:
#      x y z
#    x 1.669080 0.000000 0.000000 
#    y 0.000000 1.599550 0.000000 
#    z 0.000000 0.000000 1.668870 
# 
# From -- ./inp_files/13971.got.cif
#   From: 2010.03.12/outbox.cif.g09.slc.cpg/sg42_7_cif.got.tgz:13971.got - 2010.04.14 02:04:31.
