data_PCOD8185858
_publ_section_title
;
Structure prediction by ZEFSAII (Michael W. Deem and Ramdas Pophale) SiO2 
 PCOD8185858
Probable space group: F M M 2
;
_chemical_formula_sum "Si O2"
_cell_formula_units_Z 96
_cell_length_a 8.854797
_cell_length_b 25.235527
_cell_length_c 24.941355
_cell_angle_alpha 90.000000
_cell_angle_beta 90.000000
_cell_angle_gamma 90.000000
_cell_volume 5573.282173
_symmetry_space_group_name_H-M "F M M 2"
_symmetry_group_IT_number 42
_symmetry_cell_setting 'orthorhombic'
loop_
_space_group_symop_operation_xyz
x,y,z
-x,-y,z
-x,y,z
x,-y,z
x,1/2+y,1/2+z
-x,1/2-y,1/2+z
-x,1/2+y,1/2+z
x,1/2-y,1/2+z
1/2+x,y,1/2+z
1/2-x,-y,1/2+z
1/2-x,y,1/2+z
1/2+x,-y,1/2+z
1/2+x,1/2+y,z
1/2-x,1/2-y,z
1/2-x,1/2+y,z
1/2+x,1/2-y,z
loop_
_atom_site_type_symbol
_atom_site_label
_atom_site_fract_x
_atom_site_fract_y
_atom_site_fract_z
Si Si1 0.676150 0.500000 0.595280
Si Si2 0.323921 0.692747 0.517821
Si Si3 0.325097 0.892977 0.591301
Si Si4 0.322675 0.307591 0.795292
Si Si5 0.670184 0.885161 0.717592
Si Si6 0.175674 0.693075 0.899719
Si Si7 0.828047 0.500000 0.705366
O O1 0.500000 0.500000 0.582482
O O2 0.750033 0.447286 0.570018
O O3 0.705073 0.500000 0.658660
O O4 0.500000 0.699201 0.529856
O O5 0.250000 0.750000 0.522242
O O6 0.250904 0.655829 0.561876
O O7 0.298413 0.666941 0.458275
O O8 0.500000 0.894641 0.576659
O O9 0.297414 0.885148 0.654357
O O10 0.500000 0.300611 0.800179
O O11 0.250000 0.250000 0.785581
O O12 0.286259 0.345765 0.745641
O O13 0.257433 0.335914 0.849577
O O14 0.500000 0.865792 0.729693
O O15 0.692946 0.945856 0.739494
O O16 0.250000 0.750000 0.902319
O O17 0.000000 0.697996 0.886115
O O18 0.000000 0.500000 0.680357
#
# Coordination Sequence:
#
# PCOD8185858 Si02
#       7
#     8  16  16  16  16  16   8
#     4  10  18  30  50  73  98 127 164 206 242 286
#     4  10  20  33  51  75 101 130 163 201 246 294
#     4  10  20  34  52  73 100 133 166 202 244 290
#     4  11  21  32  49  72  98 129 163 201 243 287
#     4   9  18  33  51  72  98 128 161 197 240 289
#     4   9  17  31  50  70  94 125 162 201 239 285
#     4   8  16  32  52  71  94 127 164 198 238 288
#
# _framework density 17.225038000000001
#
# number of rings (size 3 to 8) (size 9 to 14) (size 15 to 20)
#    0.000    2.333    0.000    5.750    0.000    6.000 
#    0.000    0.000    0.000    1.000    0.000    2.333 
#    0.000    0.000    0.000    0.000    0.000    0.000 
#
# Total GULP energy -297437.232005 kJ/mol
# GULP energy per Si atom -12393.218000 kJ/mol
# Density = 1.718583 g / cm^3
# Si number density = 17.225038 Si / 1000 Ang^3
#
#
#
# Elastic Constant Matrix: (Units=GPa)
#
#
# Indices 1 2 3 4 5 6 
#
# 1 137.1949 56.0348 47.9571 0.0000 0.0000 0.0000
# 2 56.0348 101.6280 48.9140 0.0000 0.0000 0.0000
# 3 47.9571 48.9140 66.9908 0.0000 0.0000 0.0000
# 4 0.0000 0.0000 0.0000 0.6880 0.0000 0.0000
# 5 0.0000 0.0000 0.0000 0.0000 26.3350 0.0000
# 6 0.0000 0.0000 0.0000 0.0000 0.0000 29.3158
#
#
#
# Elastic Compliance Matrix: (Units=1/GPa)
#
#
# Indices 1 2 3 4 5 6 
#
# 1 0.010399 -0.003316 -0.005023 0.000000 0.000000 0.000000
# 2 -0.003316 0.016229 -0.009476 0.000000 0.000000 0.000000
# 3 -0.005023 -0.009476 0.025442 0.000000 0.000000 0.000000
# 4 0.000000 0.000000 0.000000 1.453497 0.000000 0.000000
# 5 0.000000 0.000000 0.000000 0.000000 0.037972 0.000000
# 6 0.000000 0.000000 0.000000 0.000000 0.000000 0.034111
#
#
# Mechanical properties :
#
#
# Convention : Reuss Voigt Hill
#
# Bulk Modulus (GPa) = 60.82679 67.95838 64.39259
# Shear Modulus (GPa) = 3.08878 21.46162 12.27520
#
# Velocity S-wave (km/s) = 1.34055 3.53364 2.67242
# Velocity P-wave (km/s) = 6.14701 7.49585 6.85469
#
# Compressibility (1/GPa) = 0.01644012
#
# Stress axis : x y z
#
# Youngs Moduli (GPa) = 96.16118 61.61820 39.30467
#
# Poissons Ratio (x) = 0.20433 0.19744
# Poissons Ratio (y) = 0.31888 0.37244
# Poissons Ratio (z) = 0.48304 0.58388
#
# Static dielectric constant tensor:
#      x y z
#    x 3.295260 0.000000 0.000000 
#    y 0.000000 3.181210 0.000000 
#    z 0.000000 0.000000 3.435240 
# 
# 
# High freq. dielectric constant tensor:
#      x y z
#    x 1.680390 0.000000 0.000000 
#    y 0.000000 1.648850 0.000000 
#    z 0.000000 0.000000 1.646700 
# 
# From -- ./inp_files/28092.got.cif
#   From: 2010.03.12/outbox.cif.g09.slc.cpg/sg42_15_cif.got.tgz:28092.got - 2010.04.14 02:04:31.
