data_PCOD8185928
_publ_section_title
;
Structure prediction by ZEFSAII (Michael W. Deem and Ramdas Pophale) SiO2 
 PCOD8185928
Probable space group: F M M 2
;
_chemical_formula_sum "Si O2"
_cell_formula_units_Z 80
_cell_length_a 16.830511
_cell_length_b 10.308901
_cell_length_c 23.092273
_cell_angle_alpha 90.000000
_cell_angle_beta 90.000000
_cell_angle_gamma 90.000000
_cell_volume 4006.603390
_symmetry_space_group_name_H-M "F M M 2"
_symmetry_group_IT_number 42
_symmetry_cell_setting 'orthorhombic'
loop_
_space_group_symop_operation_xyz
x,y,z
-x,-y,z
-x,y,z
x,-y,z
x,1/2+y,1/2+z
-x,1/2-y,1/2+z
-x,1/2+y,1/2+z
x,1/2-y,1/2+z
1/2+x,y,1/2+z
1/2-x,-y,1/2+z
1/2-x,y,1/2+z
1/2+x,-y,1/2+z
1/2+x,1/2+y,z
1/2-x,1/2-y,z
1/2-x,1/2+y,z
1/2+x,1/2-y,z
loop_
_atom_site_type_symbol
_atom_site_label
_atom_site_fract_x
_atom_site_fract_y
_atom_site_fract_z
Si Si1 0.594212 0.000000 0.732141
Si Si2 0.094662 0.000000 0.714501
Si Si3 0.591874 0.248425 0.910894
Si Si4 0.856207 0.500000 0.344987
Si Si5 0.170730 0.500000 0.856846
Si Si6 0.905360 0.854254 0.032520
Si Si7 0.405861 0.260033 0.154467
O O1 0.640491 0.000000 0.791727
O O2 0.622299 0.874593 0.696590
O O3 0.500000 0.000000 0.744075
O O4 0.125772 0.124332 0.679078
O O5 0.135447 0.000000 0.776356
O O6 0.000000 0.000000 0.722062
O O7 0.500000 0.207816 0.911162
O O8 0.601422 0.373077 0.870127
O O9 0.641992 0.128561 0.888518
O O10 0.623359 0.278802 0.975476
O O11 0.764668 0.500000 0.360969
O O12 0.872075 0.781836 0.089673
O O13 0.000000 0.860423 0.033743
O O14 0.871003 0.000000 0.031077
O O15 0.500000 0.259829 0.151649
#
# Coordination Sequence:
#
# PCOD8185928 Si02
#       7
#     8   8  16   8   8  16  16
#     4  10  18  33  56  80 110 151 193 238 287 352
#     4  10  20  33  54  86 116 151 197 244 289 346
#     4  11  22  39  64  90 116 156 205 250 290 351
#     4  12  24  41  60  82 124 167 199 238 299 366
#     4  12  26  39  56  88 128 157 195 252 309 344
#     4   9  16  31  57  87 114 145 192 246 297 351
#     4   9  17  30  54  85 114 142 187 246 296 340
#
# _framework density 19.967036
#
# number of rings (size 3 to 8) (size 9 to 14) (size 15 to 20)
#    0.000    1.800    2.000    3.600    0.000    2.400 
#    0.000    3.000    0.000    7.200    0.000    0.000 
#    0.000    0.000    0.000    0.000    0.000    0.000 
#
# Total GULP energy -248040.091309 kJ/mol
# GULP energy per Si atom -12402.004565 kJ/mol
# Density = 1.992159 g / cm^3
# Si number density = 19.967036 Si / 1000 Ang^3
#
#
#
# Elastic Constant Matrix: (Units=GPa)
#
#
# Indices 1 2 3 4 5 6 
#
# 1 43.1264 14.3413 17.1721 0.0000 0.0000 0.0000
# 2 14.3413 164.6342 79.1455 0.0000 0.0000 0.0000
# 3 17.1721 79.1455 180.7536 0.0000 0.0000 0.0000
# 4 0.0000 0.0000 0.0000 88.1689 0.0000 0.0000
# 5 0.0000 0.0000 0.0000 0.0000 -2.1625 0.0000
# 6 0.0000 0.0000 0.0000 0.0000 0.0000 18.5840
#
#
#
# Elastic Compliance Matrix: (Units=1/GPa)
#
#
# Indices 1 2 3 4 5 6 
#
# 1 0.024309 -0.001276 -0.001751 0.000000 0.000000 0.000000
# 2 -0.001276 0.007761 -0.003277 0.000000 0.000000 0.000000
# 3 -0.001751 -0.003277 0.007134 0.000000 0.000000 0.000000
# 4 0.000000 0.000000 0.000000 0.011342 0.000000 0.000000
# 5 0.000000 0.000000 0.000000 0.000000 -0.462431 0.000000
# 6 0.000000 0.000000 0.000000 0.000000 0.000000 0.053810
#
#
# Mechanical properties :
#
#
# Convention : Reuss Voigt Hill
#
# Bulk Modulus (GPa) = 37.59949 67.75911 52.67930
# Shear Modulus (GPa) = -14.85426 39.44177 12.29375
#
# Velocity S-wave (km/s) = -2.73048 4.44931 2.48403
# Velocity P-wave (km/s) = 2.98847 7.77202 5.88792
#
# Compressibility (1/GPa) = 0.02659611
#
# Stress axis : x y z
#
# Youngs Moduli (GPa) = 41.13689 128.85754 140.18315
#
# Poissons Ratio (x) = 0.16441 0.24543
# Poissons Ratio (y) = 0.05249 0.45936
# Poissons Ratio (z) = 0.07202 0.42224
#
# Static dielectric constant tensor:
#      x y z
#    x 3.162040 0.000000 0.000000 
#    y 0.000000 3.873950 0.000000 
#    z 0.000000 0.000000 3.952150 
# 
# 
# High freq. dielectric constant tensor:
#      x y z
#    x 1.735280 0.000000 0.000000 
#    y 0.000000 1.790830 0.000000 
#    z 0.000000 0.000000 1.798540 
# 
# From -- ./inp_files/25769.got.cif
#   From: 2010.03.12/outbox.cif.g09.slc.cpg/sg42_13_cif.got.tgz:25769.got - 2010.04.14 02:04:31.
