data_PCOD8185556
_publ_section_title
;
Structure prediction by ZEFSAII (Michael W. Deem and Ramdas Pophale) SiO2 
 PCOD8185556
Probable space group: A B A 2
;
_chemical_formula_sum "Si O2"
_cell_formula_units_Z 64
_cell_length_a 22.891289
_cell_length_b 12.972518
_cell_length_c 8.461433
_cell_angle_alpha 90.000000
_cell_angle_beta 90.000000
_cell_angle_gamma 90.000000
_cell_volume 2512.687332
_symmetry_space_group_name_H-M "A B A 2"
_symmetry_group_IT_number 41
_symmetry_cell_setting 'orthorhombic'
loop_
_space_group_symop_operation_xyz
x,y,z
-x,-y,z
1/2-x,y,1/2+z
1/2+x,-y,1/2+z
x,1/2+y,1/2+z
-x,1/2-y,1/2+z
1/2-x,1/2+y,z
1/2+x,1/2-y,z
loop_
_atom_site_type_symbol
_atom_site_label
_atom_site_fract_x
_atom_site_fract_y
_atom_site_fract_z
Si Si1 0.827589 0.071784 0.830030
Si Si2 0.320627 0.728474 0.179190
Si Si3 0.209621 0.471541 0.653543
Si Si4 0.389545 0.091676 0.138916
Si Si5 0.058115 0.142772 0.137310
Si Si6 0.534198 0.255359 0.821006
Si Si7 0.227612 0.660754 0.996900
Si Si8 0.593264 0.535614 0.331817
O O1 0.854229 0.175559 0.755603
O O2 0.766036 0.069321 0.740056
O O3 0.871077 0.977934 0.790393
O O4 0.820146 0.097899 0.015577
O O5 0.372994 0.660320 0.110391
O O6 0.269865 0.757314 0.049743
O O7 0.284068 0.661042 0.310226
O O8 0.226963 0.569957 0.544454
O O9 0.161448 0.480623 0.791582
O O10 0.438942 0.173269 0.184201
O O11 0.333158 0.157037 0.088270
O O12 0.415265 0.019782 0.000763
O O13 0.053553 0.023618 0.198782
O O14 0.029703 0.216326 0.270940
O O15 0.026234 0.170496 0.973317
O O16 0.575745 0.155314 0.848482
#
# Coordination Sequence:
#
# PCOD8185556 Si02
#       8
#     8   8   8   8   8   8   8   8
#     4  11  24  38  65 106 149 199 245 314 384 460
#     4  12  25  41  72 108 152 194 251 308 393 458
#     4  11  22  42  64 104 153 191 252 308 377 474
#     4  11  24  48  72 109 148 193 255 316 379 465
#     4  12  27  52  75 115 151 203 271 325 378 474
#     4  12  30  50  83 106 155 210 262 327 397 445
#     4  11  22  41  68 103 147 194 235 310 384 456
#     4  12  25  50  79 111 151 202 254 322 388 466
#
# _framework density 25.470739999999999
#
# number of rings (size 3 to 8) (size 9 to 14) (size 15 to 20)
#    0.000    0.500    2.500    6.375    5.250    0.000 
#    0.000    5.625    0.000    0.000    0.000    0.000 
#    0.000    0.000    0.000    0.000    0.000    0.000 
#
# Total GULP energy -396564.208578 kJ/mol
# GULP energy per Si atom -12392.631518 kJ/mol
# Density = 2.541277 g / cm^3
# Si number density = 25.470740 Si / 1000 Ang^3
#
#
#
# Elastic Constant Matrix: (Units=GPa)
#
#
# Indices 1 2 3 4 5 6 
#
# 1 65.9035 -2.2716 3.1780 0.0000 0.0000 0.0000
# 2 -2.2716 76.8218 7.8152 0.0000 0.0000 0.0000
# 3 3.1780 7.8152 97.6431 0.0000 0.0000 0.0000
# 4 0.0000 0.0000 0.0000 42.1509 0.0000 0.0000
# 5 0.0000 0.0000 0.0000 0.0000 36.0830 0.0000
# 6 0.0000 0.0000 0.0000 0.0000 0.0000 30.7574
#
#
#
# Elastic Compliance Matrix: (Units=1/GPa)
#
#
# Indices 1 2 3 4 5 6 
#
# 1 0.015217 0.000504 -0.000536 0.000000 0.000000 0.000000
# 2 0.000504 0.013141 -0.001068 0.000000 0.000000 0.000000
# 3 -0.000536 -0.001068 0.010344 0.000000 0.000000 0.000000
# 4 0.000000 0.000000 0.000000 0.023724 0.000000 0.000000
# 5 0.000000 0.000000 0.000000 0.000000 0.027714 0.000000
# 6 0.000000 0.000000 0.000000 0.000000 0.000000 0.032513
#
#
# Mechanical properties :
#
#
# Convention : Reuss Voigt Hill
#
# Bulk Modulus (GPa) = 27.39486 28.64574 28.02030
# Shear Modulus (GPa) = 36.49126 37.24138 36.86632
#
# Velocity S-wave (km/s) = 3.78917 3.82792 3.80860
# Velocity P-wave (km/s) = 5.47015 5.55052 5.51048
#
# Compressibility (1/GPa) = 0.03650320
#
# Stress axis : x y z
#
# Youngs Moduli (GPa) = 65.71635 76.09935 96.67157
#
# Poissons Ratio (x) = -0.03839 0.05178
# Poissons Ratio (y) = -0.03315 0.10326
# Poissons Ratio (z) = 0.03520 0.08129
#
# Static dielectric constant tensor:
#      x y z
#    x 4.359060 0.000000 0.000000 
#    y 0.000000 4.785110 0.000000 
#    z 0.000000 0.000000 4.890160 
# 
# 
# High freq. dielectric constant tensor:
#      x y z
#    x 2.010230 0.000000 0.000000 
#    y 0.000000 2.020450 0.000000 
#    z 0.000000 0.000000 2.022560 
# 
# From -- ./inp_files/3696.got.cif
#   From: 2010.03.12/outbox.cif.g09.slc.cpg/sg41_2_cif.got.tgz:3696.got - 2010.04.14 01:55:53.
