data_PCOD8185735
_publ_section_title
;
Structure prediction by ZEFSAII (Michael W. Deem and Ramdas Pophale) SiO2 
 PCOD8185735
Probable space group: A B A 2
;
_chemical_formula_sum "Si O2"
_cell_formula_units_Z 40
_cell_length_a 10.125855
_cell_length_b 9.628745
_cell_length_c 16.795582
_cell_angle_alpha 90.000000
_cell_angle_beta 90.000000
_cell_angle_gamma 90.000000
_cell_volume 1637.557080
_symmetry_space_group_name_H-M "A B A 2"
_symmetry_group_IT_number 41
_symmetry_cell_setting 'orthorhombic'
loop_
_space_group_symop_operation_xyz
x,y,z
-x,-y,z
1/2-x,y,1/2+z
1/2+x,-y,1/2+z
x,1/2+y,1/2+z
-x,1/2-y,1/2+z
1/2-x,1/2+y,z
1/2+x,1/2-y,z
loop_
_atom_site_type_symbol
_atom_site_label
_atom_site_fract_x
_atom_site_fract_y
_atom_site_fract_z
Si Si1 0.360109 0.243035 0.183330
Si Si2 0.103172 0.270284 0.082933
Si Si3 0.270423 0.108708 0.828487
Si Si4 0.739046 0.141413 0.437017
Si Si5 0.500000 0.500000 0.017291
Si Si6 0.000000 0.000000 0.243373
O O1 0.217975 0.267247 0.146705
O O2 0.467109 0.170369 0.123241
O O3 0.342572 0.151895 0.264159
O O4 0.402601 0.403345 0.193298
O O5 0.147600 0.362379 0.005986
O O6 0.088687 0.105933 0.066830
O O7 0.262606 0.200216 0.907738
O O8 0.262935 0.949851 0.858411
O O9 0.416696 0.115440 0.792023
O O10 0.594588 0.100635 0.466946
#
# Coordination Sequence:
#
# PCOD8185735 Si02
#       6
#     8   8   8   8   4   4
#     4  12  27  50  82 118 165 223 271 347 415 496
#     4  12  27  50  82 118 165 223 271 347 415 496
#     4  12  28  50  81 122 162 221 275 346 421 501
#     4  12  28  50  81 122 162 221 275 346 421 501
#     4  12  27  50  78 116 173 204 284 342 413 492
#     4  12  27  50  78 116 173 204 284 342 413 492
#
# _framework density 24.426629999999999
#
# number of rings (size 3 to 8) (size 9 to 14) (size 15 to 20)
#    0.000    0.000    8.000    0.600    5.600    0.000 
#    0.000    6.000    0.000    0.000    0.000    0.000 
#    0.000    0.000    0.000    0.000    0.000    0.000 
#
# Total GULP energy -247888.388427 kJ/mol
# GULP energy per Si atom -12394.419421 kJ/mol
# Density = 2.437103 g / cm^3
# Si number density = 24.426630 Si / 1000 Ang^3
#
#
#
# Elastic Constant Matrix: (Units=GPa)
#
#
# Indices 1 2 3 4 5 6 
#
# 1 114.9756 19.7593 42.8957 0.0000 0.0000 0.0000
# 2 19.7593 82.5342 37.2047 0.0000 0.0000 0.0000
# 3 42.8957 37.2047 119.4989 0.0000 0.0000 0.0000
# 4 0.0000 0.0000 0.0000 42.7036 0.0000 0.0000
# 5 0.0000 0.0000 0.0000 0.0000 49.2918 0.0000
# 6 0.0000 0.0000 0.0000 0.0000 0.0000 49.2977
#
#
#
# Elastic Compliance Matrix: (Units=1/GPa)
#
#
# Indices 1 2 3 4 5 6 
#
# 1 0.010101 -0.000912 -0.003342 0.000000 0.000000 0.000000
# 2 -0.000912 0.014177 -0.004086 0.000000 0.000000 0.000000
# 3 -0.003342 -0.004086 0.010840 0.000000 0.000000 0.000000
# 4 0.000000 0.000000 0.000000 0.023417 0.000000 0.000000
# 5 0.000000 0.000000 0.000000 0.000000 0.020287 0.000000
# 6 0.000000 0.000000 0.000000 0.000000 0.000000 0.020285
#
#
# Mechanical properties :
#
#
# Convention : Reuss Voigt Hill
#
# Bulk Modulus (GPa) = 54.23768 57.41424 55.82596
# Shear Modulus (GPa) = 41.00594 42.73521 41.87057
#
# Velocity S-wave (km/s) = 4.10169 4.18728 4.14470
# Velocity P-wave (km/s) = 6.68463 6.85081 6.76823
#
# Compressibility (1/GPa) = 0.01843737
#
# Stress axis : x y z
#
# Youngs Moduli (GPa) = 98.99958 70.53907 92.24908
#
# Poissons Ratio (x) = 0.06431 0.30830
# Poissons Ratio (y) = 0.09026 0.37697
# Poissons Ratio (z) = 0.33086 0.28825
#
# Static dielectric constant tensor:
#      x y z
#    x 4.794180 0.000000 0.000000 
#    y 0.000000 6.041870 0.000000 
#    z 0.000000 0.000000 4.663220 
# 
# 
# High freq. dielectric constant tensor:
#      x y z
#    x 1.977380 0.000000 0.000000 
#    y 0.000000 1.964210 0.000000 
#    z 0.000000 0.000000 1.986740 
# 
# From -- ./inp_files/9567.got.cif
#   From: 2010.03.12/outbox.cif.g09.slc.cpg/sg41_5_cif.got.tgz:9567.got - 2010.04.14 01:55:53.
