data_PCOD8185427
_publ_section_title
;
Structure prediction by ZEFSAII (Michael W. Deem and Ramdas Pophale) SiO2 
 PCOD8185427
Probable space group: A B A 2
;
_chemical_formula_sum "Si O2"
_cell_formula_units_Z 64
_cell_length_a 7.758493
_cell_length_b 27.732846
_cell_length_c 13.288624
_cell_angle_alpha 90.000000
_cell_angle_beta 90.000000
_cell_angle_gamma 90.000000
_cell_volume 2859.248000
_symmetry_space_group_name_H-M "A B A 2"
_symmetry_group_IT_number 41
_symmetry_cell_setting 'orthorhombic'
loop_
_space_group_symop_operation_xyz
x,y,z
-x,-y,z
1/2-x,y,1/2+z
1/2+x,-y,1/2+z
x,1/2+y,1/2+z
-x,1/2-y,1/2+z
1/2-x,1/2+y,z
1/2+x,1/2-y,z
loop_
_atom_site_type_symbol
_atom_site_label
_atom_site_fract_x
_atom_site_fract_y
_atom_site_fract_z
Si Si1 0.183999 0.063609 0.104410
Si Si2 0.166615 0.890899 0.463391
Si Si3 0.548581 0.801890 0.604042
Si Si4 0.850277 0.356526 0.212107
Si Si5 0.349640 0.807196 0.105553
Si Si6 0.053644 0.624618 0.432597
Si Si7 0.836641 0.032375 0.638170
Si Si8 0.063992 0.446525 0.780399
O O1 0.351180 0.093358 0.147195
O O2 0.036742 0.076687 0.186035
O O3 0.199322 0.006352 0.094929
O O4 0.142192 0.081319 0.993255
O O5 0.117079 0.837491 0.502537
O O6 0.356322 0.889818 0.416607
O O7 0.144977 0.926090 0.557605
O O8 0.042214 0.910801 0.375424
O O9 0.682608 0.824379 0.684065
O O10 0.350494 0.809502 0.641043
O O11 0.590425 0.746593 0.584029
O O12 0.572705 0.826456 0.496014
O O13 0.029160 0.328541 0.193056
O O14 0.843589 0.369140 0.329345
O O15 0.763827 0.052130 0.744290
O O16 0.000000 0.000000 0.661480
O O17 0.000000 0.500000 0.811675
#
# Coordination Sequence:
#
# PCOD8185427 Si02
#       8
#     8   8   8   8   8   8   8   8
#     4  10  23  45  66  94 144 178 221 284 338 403
#     4  11  24  40  70 101 138 178 234 284 341 415
#     4  10  23  48  68  98 144 172 227 291 344 419
#     4  11  24  43  72 102 134 181 232 276 353 419
#     4  11  23  47  72 100 138 183 225 293 348 415
#     4  10  24  43  68 104 130 175 229 281 346 406
#     4  11  23  41  64  97 137 184 230 280 337 406
#     4  10  23  43  64  98 138 186 228 283 343 403
#
# _framework density 22.383509
#
# number of rings (size 3 to 8) (size 9 to 14) (size 15 to 20)
#    0.000    1.500    2.500    1.125    3.500    5.000 
#    4.500    3.750    0.000    0.000    0.000    0.000 
#    0.000    0.000    0.000    0.000    0.000    0.000 
#
# Total GULP energy -396723.777659 kJ/mol
# GULP energy per Si atom -12397.618052 kJ/mol
# Density = 2.233256 g / cm^3
# Si number density = 22.383509 Si / 1000 Ang^3
#
#
#
# Elastic Constant Matrix: (Units=GPa)
#
#
# Indices 1 2 3 4 5 6 
#
# 1 104.7186 20.5150 42.1213 0.0000 0.0000 0.0000
# 2 20.5150 109.9582 46.3311 0.0000 0.0000 0.0000
# 3 42.1213 46.3311 122.7318 0.0000 0.0000 0.0000
# 4 0.0000 0.0000 0.0000 14.4023 0.0000 0.0000
# 5 0.0000 0.0000 0.0000 0.0000 24.0234 0.0000
# 6 0.0000 0.0000 0.0000 0.0000 0.0000 23.6640
#
#
#
# Elastic Compliance Matrix: (Units=1/GPa)
#
#
# Indices 1 2 3 4 5 6 
#
# 1 0.011107 -0.000554 -0.003603 0.000000 0.000000 0.000000
# 2 -0.000554 0.010842 -0.003903 0.000000 0.000000 0.000000
# 3 -0.003603 -0.003903 0.010858 0.000000 0.000000 0.000000
# 4 0.000000 0.000000 0.000000 0.069433 0.000000 0.000000
# 5 0.000000 0.000000 0.000000 0.000000 0.041626 0.000000
# 6 0.000000 0.000000 0.000000 0.000000 0.000000 0.042258
#
#
# Mechanical properties :
#
#
# Convention : Reuss Voigt Hill
#
# Bulk Modulus (GPa) = 59.92496 61.70482 60.81489
# Shear Modulus (GPa) = 24.06090 27.64737 25.85413
#
# Velocity S-wave (km/s) = 3.28218 3.51831 3.40229
# Velocity P-wave (km/s) = 6.41823 6.64316 6.53166
#
# Compressibility (1/GPa) = 0.01668754
#
# Stress axis : x y z
#
# Youngs Moduli (GPa) = 90.03233 92.23239 92.10185
#
# Poissons Ratio (x) = 0.05112 0.33182
# Poissons Ratio (y) = 0.04990 0.35944
# Poissons Ratio (z) = 0.32436 0.35995
#
# Static dielectric constant tensor:
#      x y z
#    x 4.354230 0.000000 0.000000 
#    y 0.000000 8.054830 0.000000 
#    z 0.000000 0.000000 3.685720 
# 
# 
# High freq. dielectric constant tensor:
#      x y z
#    x 1.897560 0.000000 0.000000 
#    y 0.000000 1.893260 0.000000 
#    z 0.000000 0.000000 1.860070 
# 
# From -- ./inp_files/4642.got.cif
#   From: 2010.03.12/outbox.cif.g09.slc.cpg/sg41_3_cif.got.tgz:4642.got - 2010.04.14 01:55:53.
