data_PCOD8185302
_publ_section_title
;
Structure prediction by ZEFSAII (Michael W. Deem and Ramdas Pophale) SiO2 
 PCOD8185302
Probable space group: A B A 2
;
_chemical_formula_sum "Si O2"
_cell_formula_units_Z 48
_cell_length_a 28.030817
_cell_length_b 4.889782
_cell_length_c 15.533435
_cell_angle_alpha 90.000000
_cell_angle_beta 90.000000
_cell_angle_gamma 90.000000
_cell_volume 2129.083813
_symmetry_space_group_name_H-M "A B A 2"
_symmetry_group_IT_number 41
_symmetry_cell_setting 'orthorhombic'
loop_
_space_group_symop_operation_xyz
x,y,z
-x,-y,z
1/2-x,y,1/2+z
1/2+x,-y,1/2+z
x,1/2+y,1/2+z
-x,1/2-y,1/2+z
1/2-x,1/2+y,z
1/2+x,1/2-y,z
loop_
_atom_site_type_symbol
_atom_site_label
_atom_site_fract_x
_atom_site_fract_y
_atom_site_fract_z
Si Si1 0.554605 0.533308 0.006540
Si Si2 0.125536 0.789816 0.865363
Si Si3 0.125260 0.271750 0.753261
Si Si4 0.720165 0.717158 0.160028
Si Si5 0.945505 0.018885 0.623057
Si Si6 0.279689 0.267424 0.957100
O O1 0.500000 0.500000 0.977969
O O2 0.562919 0.835855 0.040240
O O3 0.568410 0.320432 0.084708
O O4 0.586143 0.540460 0.920618
O O5 0.105007 0.536455 0.806817
O O6 0.168994 0.674933 0.921549
O O7 0.148085 0.035914 0.811265
O O8 0.168506 0.374424 0.694232
O O9 0.084805 0.102091 0.701598
O O10 0.760911 0.508659 0.192169
O O11 0.714239 0.725597 0.058564
O O12 0.000000 0.000000 0.655046
O O13 0.261109 0.559595 0.925147
#
# Coordination Sequence:
#
# PCOD8185302 Si02
#       6
#     8   8   8   8   8   8
#     4  10  22  43  68  90 118 164 217 261 305 371
#     4  12  25  39  62  96 131 163 198 256 325 377
#     4  12  25  39  62  96 131 163 198 256 325 377
#     4  10  22  40  62  87 119 164 212 253 297 363
#     4  10  22  43  68  90 118 164 217 261 305 371
#     4  10  22  40  62  87 119 164 212 253 297 363
#
# _framework density 22.544910999999999
#
# number of rings (size 3 to 8) (size 9 to 14) (size 15 to 20)
#    0.000    1.333    0.000    5.000    0.000    8.667 
#    0.000    1.667    0.000    0.000    0.000    0.000 
#    0.000    0.000    0.000    0.000    0.000    0.000 
#
# Total GULP energy -297378.037129 kJ/mol
# GULP energy per Si atom -12390.751547 kJ/mol
# Density = 2.249360 g / cm^3
# Si number density = 22.544911 Si / 1000 Ang^3
#
#
#
# Elastic Constant Matrix: (Units=GPa)
#
#
# Indices 1 2 3 4 5 6 
#
# 1 119.6414 35.6618 57.9573 0.0000 0.0000 0.0000
# 2 35.6618 114.1252 41.4267 0.0000 0.0000 0.0000
# 3 57.9573 41.4267 67.9109 0.0000 0.0000 0.0000
# 4 0.0000 0.0000 0.0000 32.7779 0.0000 0.0000
# 5 0.0000 0.0000 0.0000 0.0000 17.2124 0.0000
# 6 0.0000 0.0000 0.0000 0.0000 0.0000 24.2843
#
#
#
# Elastic Compliance Matrix: (Units=1/GPa)
#
#
# Indices 1 2 3 4 5 6 
#
# 1 0.014250 -0.000049 -0.012131 0.000000 0.000000 0.000000
# 2 -0.000049 0.011255 -0.006823 0.000000 0.000000 0.000000
# 3 -0.012131 -0.006823 0.029241 0.000000 0.000000 0.000000
# 4 0.000000 0.000000 0.000000 0.030508 0.000000 0.000000
# 5 0.000000 0.000000 0.000000 0.000000 0.058098 0.000000
# 6 0.000000 0.000000 0.000000 0.000000 0.000000 0.041179
#
#
# Mechanical properties :
#
#
# Convention : Reuss Voigt Hill
#
# Bulk Modulus (GPa) = 59.74662 63.52989 61.63825
# Shear Modulus (GPa) = 21.91867 25.96370 23.94119
#
# Velocity S-wave (km/s) = 3.12143 3.39727 3.26227
# Velocity P-wave (km/s) = 6.28886 6.60523 6.44898
#
# Compressibility (1/GPa) = 0.01673735
#
# Stress axis : x y z
#
# Youngs Moduli (GPa) = 70.17779 88.85294 34.19907
#
# Poissons Ratio (x) = 0.00437 0.41487
# Poissons Ratio (y) = 0.00345 0.23336
# Poissons Ratio (z) = 0.85132 0.60628
#
# Static dielectric constant tensor:
#      x y z
#    x 3.999040 0.000000 0.000000 
#    y 0.000000 4.325980 0.000000 
#    z 0.000000 0.000000 4.050490 
# 
# 
# High freq. dielectric constant tensor:
#      x y z
#    x 1.882570 0.000000 0.000000 
#    y 0.000000 1.906780 0.000000 
#    z 0.000000 0.000000 1.887020 
# 
# From -- ./inp_files/9222.got.cif
#   From: 2010.03.12/outbox.cif.g09.slc.cpg/sg41_5_cif.got.tgz:9222.got - 2010.04.14 01:55:53.
