data_PCOD8185690
_publ_section_title
;
Structure prediction by ZEFSAII (Michael W. Deem and Ramdas Pophale) SiO2 
 PCOD8185690
Probable space group: A B A 2
;
_chemical_formula_sum "Si O2"
_cell_formula_units_Z 56
_cell_length_a 13.650217
_cell_length_b 15.882620
_cell_length_c 11.472940
_cell_angle_alpha 90.000000
_cell_angle_beta 90.000000
_cell_angle_gamma 90.000000
_cell_volume 2487.347269
_symmetry_space_group_name_H-M "A B A 2"
_symmetry_group_IT_number 41
_symmetry_cell_setting 'orthorhombic'
loop_
_space_group_symop_operation_xyz
x,y,z
-x,-y,z
1/2-x,y,1/2+z
1/2+x,-y,1/2+z
x,1/2+y,1/2+z
-x,1/2-y,1/2+z
1/2-x,1/2+y,z
1/2+x,1/2-y,z
loop_
_atom_site_type_symbol
_atom_site_label
_atom_site_fract_x
_atom_site_fract_y
_atom_site_fract_z
Si Si1 0.023911 0.638699 0.051580
Si Si2 0.755869 0.331293 0.095233
Si Si3 0.884668 0.250000 0.427734
Si Si4 0.523911 0.138699 0.303888
Si Si5 0.664273 0.500000 0.177734
Si Si6 0.000000 0.500000 0.489203
Si Si7 0.255868 0.831294 0.260234
Si Si8 0.500000 0.500000 0.366265
O O1 0.136781 0.662524 0.040264
O O2 1.000000 0.598782 0.177734
O O3 0.953533 0.719230 0.034275
O O4 0.989052 0.579965 0.947671
O O5 0.731734 0.416929 0.165891
O O6 0.750001 0.249999 0.177733
O O7 0.682872 0.322016 0.985701
O O8 0.817128 0.177984 0.369766
O O9 0.953533 0.280770 0.321192
O O10 0.489053 0.079965 0.407797
O O11 0.636781 0.162525 0.315203
O O12 0.731734 0.583070 0.189577
O O13 0.597265 0.488949 0.290710
O O14 0.597265 0.511051 0.064757
#
# Coordination Sequence:
#
# PCOD8185690 Si02
#       8
#     8   8   8   8   8   4   8   4
#     4  12  27  45  74 109 154 193 258 315 383 455
#     4  12  28  48  77 110 151 202 257 316 390 463
#     4  12  26  50  72 110 150 206 252 322 384 460
#     4  12  27  45  74 109 154 193 258 315 383 455
#     4  11  28  50  75 108 152 198 259 312 387 464
#     4  11  27  48  74 106 153 203 248 316 386 463
#     4  12  28  48  77 110 151 202 257 316 390 463
#     4  11  27  48  74 106 153 203 248 316 386 463
#
# _framework density 22.513945
#
# number of rings (size 3 to 8) (size 9 to 14) (size 15 to 20)
#    0.000    0.286    5.714    1.286   12.000    1.143 
#    0.000    0.000    0.000    0.000    0.000    0.000 
#    0.000    0.000    0.000    0.000    0.000    0.000 
#
# Total GULP energy -347283.929854 kJ/mol
# GULP energy per Si atom -12402.997495 kJ/mol
# Density = 2.246270 g / cm^3
# Si number density = 22.513945 Si / 1000 Ang^3
#
#
#
# Elastic Constant Matrix: (Units=GPa)
#
#
# Indices 1 2 3 4 5 6 
#
# 1 180.4295 57.5492 59.6416 0.0000 0.0000 0.0000
# 2 57.5492 130.6587 45.3120 0.0000 0.0000 0.0000
# 3 59.6416 45.3120 137.3494 0.0000 0.0000 0.0000
# 4 0.0000 0.0000 0.0000 33.1776 0.0000 0.0000
# 5 0.0000 0.0000 0.0000 0.0000 38.9360 0.0000
# 6 0.0000 0.0000 0.0000 0.0000 0.0000 32.2674
#
#
#
# Elastic Compliance Matrix: (Units=1/GPa)
#
#
# Indices 1 2 3 4 5 6 
#
# 1 0.007036 -0.002303 -0.002295 0.000000 0.000000 0.000000
# 2 -0.002303 0.009396 -0.002100 0.000000 0.000000 0.000000
# 3 -0.002295 -0.002100 0.008970 0.000000 0.000000 0.000000
# 4 0.000000 0.000000 0.000000 0.030141 0.000000 0.000000
# 5 0.000000 0.000000 0.000000 0.000000 0.025683 0.000000
# 6 0.000000 0.000000 0.000000 0.000000 0.000000 0.030991
#
#
# Mechanical properties :
#
#
# Convention : Reuss Voigt Hill
#
# Bulk Modulus (GPa) = 83.29345 85.93813 84.61579
# Shear Modulus (GPa) = 38.57586 39.93851 39.25719
#
# Velocity S-wave (km/s) = 4.14384 4.21639 4.18027
# Velocity P-wave (km/s) = 7.74415 7.87133 7.80800
#
# Compressibility (1/GPa) = 0.01200575
#
# Stress axis : x y z
#
# Youngs Moduli (GPa) = 142.13482 106.42798 111.48072
#
# Poissons Ratio (x) = 0.24509 0.25589
# Poissons Ratio (y) = 0.32731 0.23409
# Poissons Ratio (z) = 0.32625 0.22348
#
# Static dielectric constant tensor:
#      x y z
#    x 4.186420 0.000000 0.000000 
#    y 0.000000 4.239390 0.000000 
#    z 0.000000 0.000000 4.099870 
# 
# 
# High freq. dielectric constant tensor:
#      x y z
#    x 1.908170 0.000000 0.000000 
#    y 0.000000 1.883600 0.000000 
#    z 0.000000 0.000000 1.897910 
# 
# From -- ./inp_files/5643.got.cif
#   From: 2010.03.12/outbox.cif.g09.slc.cpg/sg41_3_cif.got.tgz:5643.got - 2010.04.14 01:55:53.
