data_PCOD8185385
_publ_section_title
;
Structure prediction by ZEFSAII (Michael W. Deem and Ramdas Pophale) SiO2 
 PCOD8185385
Probable space group: A B A 2
;
_chemical_formula_sum "Si O2"
_cell_formula_units_Z 48
_cell_length_a 16.366008
_cell_length_b 10.921195
_cell_length_c 11.574674
_cell_angle_alpha 90.000000
_cell_angle_beta 90.000000
_cell_angle_gamma 90.000000
_cell_volume 2068.815154
_symmetry_space_group_name_H-M "A B A 2"
_symmetry_group_IT_number 41
_symmetry_cell_setting 'orthorhombic'
loop_
_space_group_symop_operation_xyz
x,y,z
-x,-y,z
1/2-x,y,1/2+z
1/2+x,-y,1/2+z
x,1/2+y,1/2+z
-x,1/2-y,1/2+z
1/2-x,1/2+y,z
1/2+x,1/2-y,z
loop_
_atom_site_type_symbol
_atom_site_label
_atom_site_fract_x
_atom_site_fract_y
_atom_site_fract_z
Si Si1 0.409178 0.018971 0.388870
Si Si2 0.650758 0.066377 0.163747
Si Si3 0.667547 0.543414 0.210637
Si Si4 0.347272 0.292944 0.011685
Si Si5 0.409635 0.546898 0.445923
Si Si6 0.167891 0.192172 0.052089
O O1 0.410318 0.005414 0.249791
O O2 0.348423 0.912248 0.431448
O O3 0.500000 0.000000 0.438343
O O4 0.377615 0.151819 0.433049
O O5 0.737664 0.075991 0.228800
O O6 0.620467 0.201031 0.122715
O O7 0.654479 0.987712 0.046488
O O8 0.626475 0.658237 0.140624
O O9 0.620034 0.517407 0.328584
O O10 0.666198 0.421797 0.135920
O O11 0.256168 0.240294 0.014675
O O12 0.408111 0.195043 0.950821
O O13 0.500000 0.500000 0.474311
#
# Coordination Sequence:
#
# PCOD8185385 Si02
#       6
#     8   8   8   8   8   8
#     4  11  25  44  69 104 147 185 232 303 375 432
#     4  11  24  42  70 100 138 181 240 287 351 436
#     4  10  23  44  71  99 135 189 236 294 352 432
#     4  10  23  46  70 101 137 186 244 292 352 446
#     4  12  26  45  68 106 145 181 235 299 370 432
#     4  10  22  45  72  98 135 188 241 289 349 436
#
# _framework density 23.201685999999999
#
# number of rings (size 3 to 8) (size 9 to 14) (size 15 to 20)
#    0.000    1.333    1.667    2.500    7.000    4.000 
#    3.000    0.000    0.000    0.000    0.000    0.000 
#    0.000    0.000    0.000    0.000    0.000    0.000 
#
# Total GULP energy -297414.493459 kJ/mol
# GULP energy per Si atom -12392.270561 kJ/mol
# Density = 2.314888 g / cm^3
# Si number density = 23.201686 Si / 1000 Ang^3
#
#
#
# Elastic Constant Matrix: (Units=GPa)
#
#
# Indices 1 2 3 4 5 6 
#
# 1 67.7583 23.3637 40.1762 0.0000 0.0000 0.0000
# 2 23.3637 113.3907 55.0976 0.0000 0.0000 0.0000
# 3 40.1762 55.0976 147.6122 0.0000 0.0000 0.0000
# 4 0.0000 0.0000 0.0000 46.2081 0.0000 0.0000
# 5 0.0000 0.0000 0.0000 0.0000 28.5234 0.0000
# 6 0.0000 0.0000 0.0000 0.0000 0.0000 22.4776
#
#
#
# Elastic Compliance Matrix: (Units=1/GPa)
#
#
# Indices 1 2 3 4 5 6 
#
# 1 0.017835 -0.001608 -0.004254 0.000000 0.000000 0.000000
# 2 -0.001608 0.010918 -0.003638 0.000000 0.000000 0.000000
# 3 -0.004254 -0.003638 0.009290 0.000000 0.000000 0.000000
# 4 0.000000 0.000000 0.000000 0.021641 0.000000 0.000000
# 5 0.000000 0.000000 0.000000 0.000000 0.035059 0.000000
# 6 0.000000 0.000000 0.000000 0.000000 0.000000 0.044489
#
#
# Mechanical properties :
#
#
# Convention : Reuss Voigt Hill
#
# Bulk Modulus (GPa) = 52.50953 62.89292 57.70123
# Shear Modulus (GPa) = 30.38051 33.45006 31.91528
#
# Velocity S-wave (km/s) = 3.62250 3.80110 3.71288
# Velocity P-wave (km/s) = 6.33858 6.81399 6.58058
#
# Compressibility (1/GPa) = 0.01904416
#
# Stress axis : x y z
#
# Youngs Moduli (GPa) = 56.06911 91.59281 107.64078
#
# Poissons Ratio (x) = 0.14726 0.45792
# Poissons Ratio (y) = 0.09014 0.39156
# Poissons Ratio (z) = 0.23853 0.33318
#
# Static dielectric constant tensor:
#      x y z
#    x 3.832260 0.000000 0.000000 
#    y 0.000000 4.716780 0.000000 
#    z 0.000000 0.000000 4.401420 
# 
# 
# High freq. dielectric constant tensor:
#      x y z
#    x 1.893310 0.000000 0.000000 
#    y 0.000000 1.931730 0.000000 
#    z 0.000000 0.000000 1.922730 
# 
# From -- ./inp_files/5904.got.cif
#   From: 2010.03.12/outbox.cif.g09.slc.cpg/sg41_3_cif.got.tgz:5904.got - 2010.04.14 01:55:53.
