data_PCOD8185709
_publ_section_title
;
Structure prediction by ZEFSAII (Michael W. Deem and Ramdas Pophale) SiO2 
 PCOD8185709
Probable space group: A B A 2
;
_chemical_formula_sum "Si O2"
_cell_formula_units_Z 36
_cell_length_a 9.184642
_cell_length_b 10.151337
_cell_length_c 16.822905
_cell_angle_alpha 90.000000
_cell_angle_beta 90.000000
_cell_angle_gamma 90.000000
_cell_volume 1568.507035
_symmetry_space_group_name_H-M "A B A 2"
_symmetry_group_IT_number 41
_symmetry_cell_setting 'orthorhombic'
loop_
_space_group_symop_operation_xyz
x,y,z
-x,-y,z
1/2-x,y,1/2+z
1/2+x,-y,1/2+z
x,1/2+y,1/2+z
-x,1/2-y,1/2+z
1/2-x,1/2+y,z
1/2+x,1/2-y,z
loop_
_atom_site_type_symbol
_atom_site_label
_atom_site_fract_x
_atom_site_fract_y
_atom_site_fract_z
Si Si1 0.459573 0.147468 0.771800
Si Si2 0.686181 0.299866 0.671407
Si Si3 0.508212 0.148685 0.414000
Si Si4 0.292335 0.299920 0.510852
Si Si5 0.500000 0.000000 0.073880
O O1 0.574277 0.192263 0.705164
O O2 0.294512 0.147822 0.739566
O O3 0.466405 0.249668 0.843598
O O4 0.500000 0.000000 0.800058
O O5 0.782067 0.233417 0.603485
O O6 0.603101 0.421216 0.632934
O O7 0.356901 0.179645 0.459070
O O8 0.637333 0.157011 0.477673
O O9 0.500000 0.000000 0.379756
O O10 0.408659 0.417046 0.509775
#
# Coordination Sequence:
#
# PCOD8185709 Si02
#       5
#     8   8   8   8   4
#     4  12  29  48  74 109 151 194 244 301 366 437
#     4  12  25  48  77 108 145 192 247 300 365 434
#     4  12  29  48  74 109 151 194 244 301 366 437
#     4  12  25  48  77 108 145 192 247 300 365 434
#     4  12  24  44  80 108 144 188 250 304 364 428
#
# _framework density 22.951761999999999
#
# number of rings (size 3 to 8) (size 9 to 14) (size 15 to 20)
#    0.000    0.000    4.444    4.000    3.111    5.333 
#    0.000    0.000    0.000    0.000    0.000    0.000 
#    0.000    0.000    0.000    0.000    0.000    0.000 
#
# Total GULP energy -223302.539801 kJ/mol
# GULP energy per Si atom -12405.696656 kJ/mol
# Density = 2.289952 g / cm^3
# Si number density = 22.951762 Si / 1000 Ang^3
#
#
#
# Elastic Constant Matrix: (Units=GPa)
#
#
# Indices 1 2 3 4 5 6 
#
# 1 97.5343 26.6279 11.2137 0.0000 0.0000 0.0000
# 2 26.6279 152.8351 35.5757 0.0000 0.0000 0.0000
# 3 11.2137 35.5757 94.3304 0.0000 0.0000 0.0000
# 4 0.0000 0.0000 0.0000 37.7466 0.0000 0.0000
# 5 0.0000 0.0000 0.0000 0.0000 30.5431 0.0000
# 6 0.0000 0.0000 0.0000 0.0000 0.0000 38.2692
#
#
#
# Elastic Compliance Matrix: (Units=1/GPa)
#
#
# Indices 1 2 3 4 5 6 
#
# 1 0.010799 -0.001735 -0.000629 0.000000 0.000000 0.000000
# 2 -0.001735 0.007451 -0.002604 0.000000 0.000000 0.000000
# 3 -0.000629 -0.002604 0.011658 0.000000 0.000000 0.000000
# 4 0.000000 0.000000 0.000000 0.026492 0.000000 0.000000
# 5 0.000000 0.000000 0.000000 0.000000 0.032741 0.000000
# 6 0.000000 0.000000 0.000000 0.000000 0.000000 0.026131
#
#
# Mechanical properties :
#
#
# Convention : Reuss Voigt Hill
#
# Bulk Modulus (GPa) = 50.07133 54.61492 52.34312
# Shear Modulus (GPa) = 37.91737 39.39728 38.65733
#
# Velocity S-wave (km/s) = 4.06895 4.14759 4.10846
# Velocity P-wave (km/s) = 6.62860 6.83987 6.73507
#
# Compressibility (1/GPa) = 0.01997151
#
# Stress axis : x y z
#
# Youngs Moduli (GPa) = 92.60265 134.20291 85.77866
#
# Poissons Ratio (x) = 0.23283 0.05399
# Poissons Ratio (y) = 0.16066 0.22337
# Poissons Ratio (z) = 0.05829 0.34946
#
# Static dielectric constant tensor:
#      x y z
#    x 4.252110 0.000000 0.000000 
#    y 0.000000 4.382210 0.000000 
#    z 0.000000 0.000000 4.065250 
# 
# 
# High freq. dielectric constant tensor:
#      x y z
#    x 1.929240 0.000000 0.000000 
#    y 0.000000 1.913490 0.000000 
#    z 0.000000 0.000000 1.910220 
# 
# From -- ./inp_files/11089.got.cif
#   From: 2010.03.12/outbox.cif.g09.slc.cpg/sg41_6_cif.got.tgz:11089.got - 2010.04.14 01:55:53.
