data_PCOD8185334
_publ_section_title
;
Structure prediction by ZEFSAII (Michael W. Deem and Ramdas Pophale) SiO2 
 PCOD8185334
Probable space group: A B A 2
;
_chemical_formula_sum "Si O2"
_cell_formula_units_Z 36
_cell_length_a 18.597617
_cell_length_b 5.508332
_cell_length_c 13.678378
_cell_angle_alpha 90.000000
_cell_angle_beta 90.000000
_cell_angle_gamma 90.000000
_cell_volume 1401.238332
_symmetry_space_group_name_H-M "A B A 2"
_symmetry_group_IT_number 41
_symmetry_cell_setting 'orthorhombic'
loop_
_space_group_symop_operation_xyz
x,y,z
-x,-y,z
1/2-x,y,1/2+z
1/2+x,-y,1/2+z
x,1/2+y,1/2+z
-x,1/2-y,1/2+z
1/2-x,1/2+y,z
1/2+x,1/2-y,z
loop_
_atom_site_type_symbol
_atom_site_label
_atom_site_fract_x
_atom_site_fract_y
_atom_site_fract_z
Si Si1 0.436581 0.327170 0.272370
Si Si2 0.216943 0.983059 0.245689
Si Si3 0.500000 0.500000 0.938408
Si Si4 0.272497 0.486356 0.527703
Si Si5 0.928549 0.365028 0.065658
O O1 0.500000 0.500000 0.237744
O O2 0.365008 0.488921 0.283821
O O3 0.457732 0.192279 0.371431
O O4 0.423129 0.144698 0.182846
O O5 0.250225 0.732189 0.288684
O O6 0.226179 0.975166 0.128456
O O7 0.563312 0.611080 0.007283
O O8 0.251838 0.234986 0.471830
O O9 0.358251 0.485533 0.536470
O O10 0.000000 0.500000 0.031136
#
# Coordination Sequence:
#
# PCOD8185334 Si02
#       5
#     8   8   4   8   8
#     4  12  26  46  80 107 158 208 257 329 394 463
#     4  10  22  41  73 113 150 200 260 314 394 466
#     4  12  30  48  72 120 152 200 280 312 390 482
#     4  10  22  41  73 113 150 200 260 314 394 466
#     4  12  26  46  80 107 158 208 257 329 394 463
#
# _framework density 25.691564
#
# number of rings (size 3 to 8) (size 9 to 14) (size 15 to 20)
#    0.000    0.889    6.667    0.667   12.444    0.000 
#    0.000    2.222    0.000    0.000    0.000    0.000 
#    0.000    0.000    0.000    0.000    0.000    0.000 
#
# Total GULP energy -223072.680763 kJ/mol
# GULP energy per Si atom -12392.926709 kJ/mol
# Density = 2.563309 g / cm^3
# Si number density = 25.691564 Si / 1000 Ang^3
#
#
#
# Elastic Constant Matrix: (Units=GPa)
#
#
# Indices 1 2 3 4 5 6 
#
# 1 176.2381 60.9339 -5.8687 0.0000 0.0000 0.0000
# 2 60.9339 187.7506 -2.5834 0.0000 0.0000 0.0000
# 3 -5.8687 -2.5834 104.4844 0.0000 0.0000 0.0000
# 4 0.0000 0.0000 0.0000 -29.7344 0.0000 0.0000
# 5 0.0000 0.0000 0.0000 0.0000 214.9989 0.0000
# 6 0.0000 0.0000 0.0000 0.0000 0.0000 46.4490
#
#
#
# Elastic Compliance Matrix: (Units=1/GPa)
#
#
# Indices 1 2 3 4 5 6 
#
# 1 0.006401 -0.002073 0.000308 0.000000 0.000000 0.000000
# 2 -0.002073 0.006000 0.000032 0.000000 0.000000 0.000000
# 3 0.000308 0.000032 0.009589 0.000000 0.000000 0.000000
# 4 0.000000 0.000000 0.000000 -0.033631 0.000000 0.000000
# 5 0.000000 0.000000 0.000000 0.000000 0.004651 0.000000
# 6 0.000000 0.000000 0.000000 0.000000 0.000000 0.021529
#
#
# Mechanical properties :
#
#
# Convention : Reuss Voigt Hill
#
# Bulk Modulus (GPa) = 53.98549 63.71518 58.85034
# Shear Modulus (GPa) = 206.78747 74.07547 140.43147
#
# Velocity S-wave (km/s) = 8.98127 5.37543 7.40130
# Velocity P-wave (km/s) = 11.34061 7.96121 9.79771
#
# Compressibility (1/GPa) = 0.01852350
#
# Stress axis : x y z
#
# Youngs Moduli (GPa) = 156.22000 166.67996 104.28711
#
# Poissons Ratio (x) = 0.34557 -0.03215
# Poissons Ratio (y) = 0.32388 -0.00333
# Poissons Ratio (z) = -0.04816 -0.00532
#
# Static dielectric constant tensor:
#      x y z
#    x 4.507410 0.000000 0.000000 
#    y 0.000000 5.544680 0.000000 
#    z 0.000000 0.000000 4.250170 
# 
# 
# High freq. dielectric constant tensor:
#      x y z
#    x 2.033860 0.000000 0.000000 
#    y 0.000000 2.036480 0.000000 
#    z 0.000000 0.000000 2.015670 
# 
# From -- ./inp_files/417.got.cif
#   From: 2010.03.12/outbox.cif.g09.slc.cpg/sg41_1_cif.got.tgz:417.got - 2010.04.14 01:55:53.
