data_PCOD8185506
_publ_section_title
;
Structure prediction by ZEFSAII (Michael W. Deem and Ramdas Pophale) SiO2 
 PCOD8185506
Probable space group: A B A 2
;
_chemical_formula_sum "Si O2"
_cell_formula_units_Z 28
_cell_length_a 5.277986
_cell_length_b 12.992611
_cell_length_c 16.543237
_cell_angle_alpha 90.000000
_cell_angle_beta 90.000000
_cell_angle_gamma 90.000000
_cell_volume 1134.449482
_symmetry_space_group_name_H-M "A B A 2"
_symmetry_group_IT_number 41
_symmetry_cell_setting 'orthorhombic'
loop_
_space_group_symop_operation_xyz
x,y,z
-x,-y,z
1/2-x,y,1/2+z
1/2+x,-y,1/2+z
x,1/2+y,1/2+z
-x,1/2-y,1/2+z
1/2-x,1/2+y,z
1/2+x,1/2-y,z
loop_
_atom_site_type_symbol
_atom_site_label
_atom_site_fract_x
_atom_site_fract_y
_atom_site_fract_z
Si Si1 0.682137 0.813780 0.511670
Si Si2 0.500000 0.500000 0.112559
Si Si3 0.231043 0.622811 0.328235
Si Si4 0.766975 0.597937 0.761265
O O1 0.444300 0.741716 0.535285
O O2 0.680530 0.838171 0.417451
O O3 0.661752 0.921436 0.558701
O O4 0.698423 0.561458 0.169051
O O5 0.495896 0.667786 0.291928
O O6 0.251020 0.499150 0.322540
O O7 0.995140 0.660156 0.271444
#
# Coordination Sequence:
#
# PCOD8185506 Si02
#       4
#     8   4   8   8
#     4  12  27  43  67 102 134 177 222 268 337 402
#     4  10  24  46  68  94 144 172 212 284 332 396
#     4   9  18  38  60  90 124 158 221 263 303 385
#     4   9  19  38  69  92 118 179 217 261 336 372
#
# _framework density 24.681573
#
# number of rings (size 3 to 8) (size 9 to 14) (size 15 to 20)
#    0.000    2.286    0.000    3.429    0.000   12.571 
#    0.000   20.000    0.000    0.000    0.000    0.000 
#    0.000    0.000    0.000    0.000    0.000    0.000 
#
# Total GULP energy -173471.932656 kJ/mol
# GULP energy per Si atom -12390.852333 kJ/mol
# Density = 2.462540 g / cm^3
# Si number density = 24.681573 Si / 1000 Ang^3
#
#
#
# Elastic Constant Matrix: (Units=GPa)
#
#
# Indices 1 2 3 4 5 6 
#
# 1 255.4689 16.2459 61.2763 0.0000 0.0000 0.0000
# 2 16.2459 102.8886 43.8395 0.0000 0.0000 0.0000
# 3 61.2763 43.8395 127.1048 0.0000 0.0000 0.0000
# 4 0.0000 0.0000 0.0000 23.1634 0.0000 0.0000
# 5 0.0000 0.0000 0.0000 0.0000 16.4191 0.0000
# 6 0.0000 0.0000 0.0000 0.0000 0.0000 -10.8194
#
#
#
# Elastic Compliance Matrix: (Units=1/GPa)
#
#
# Indices 1 2 3 4 5 6 
#
# 1 0.004432 0.000247 -0.002222 0.000000 0.000000 0.000000
# 2 0.000247 0.011407 -0.004054 0.000000 0.000000 0.000000
# 3 -0.002222 -0.004054 0.010337 0.000000 0.000000 0.000000
# 4 0.000000 0.000000 0.000000 0.043172 0.000000 0.000000
# 5 0.000000 0.000000 0.000000 0.000000 0.060905 0.000000
# 6 0.000000 0.000000 0.000000 0.000000 0.000000 -0.092427
#
#
# Mechanical properties :
#
#
# Convention : Reuss Voigt Hill
#
# Bulk Modulus (GPa) = 70.82595 80.90952 75.86774
# Shear Modulus (GPa) = 91.59584 30.02601 60.81092
#
# Velocity S-wave (km/s) = 6.09849 3.49167 4.96907
# Velocity P-wave (km/s) = 8.85138 7.00772 7.98296
#
# Compressibility (1/GPa) = 0.01411912
#
# Stress axis : x y z
#
# Youngs Moduli (GPa) = 225.65572 87.66229 96.74364
#
# Poissons Ratio (x) = -0.02164 0.21492
# Poissons Ratio (y) = -0.05570 0.39215
# Poissons Ratio (z) = 0.50130 0.35534
#
# Static dielectric constant tensor:
#      x y z
#    x 7.154270 0.000000 0.000000 
#    y 0.000000 4.338740 0.000000 
#    z 0.000000 0.000000 4.154520 
# 
# 
# High freq. dielectric constant tensor:
#      x y z
#    x 2.008540 0.000000 0.000000 
#    y 0.000000 1.987650 0.000000 
#    z 0.000000 0.000000 1.961580 
# 
# From -- ./inp_files/9338.got.cif
#   From: 2010.03.12/outbox.cif.g09.slc.cpg/sg41_5_cif.got.tgz:9338.got - 2010.04.14 01:55:53.
