data_PCOD8185934
_publ_section_title
;
Structure prediction by ZEFSAII (Michael W. Deem and Ramdas Pophale) SiO2 
 PCOD8185934
Probable space group: F M M 2
;
_chemical_formula_sum "Si O2"
_cell_formula_units_Z 128
_cell_length_a 17.003383
_cell_length_b 20.314257
_cell_length_c 19.705965
_cell_angle_alpha 90.000000
_cell_angle_beta 90.000000
_cell_angle_gamma 90.000000
_cell_volume 6806.658892
_symmetry_space_group_name_H-M "F M M 2"
_symmetry_group_IT_number 42
_symmetry_cell_setting 'orthorhombic'
loop_
_space_group_symop_operation_xyz
x,y,z
-x,-y,z
-x,y,z
x,-y,z
x,1/2+y,1/2+z
-x,1/2-y,1/2+z
-x,1/2+y,1/2+z
x,1/2-y,1/2+z
1/2+x,y,1/2+z
1/2-x,-y,1/2+z
1/2-x,y,1/2+z
1/2+x,-y,1/2+z
1/2+x,1/2+y,z
1/2-x,1/2-y,z
1/2-x,1/2+y,z
1/2+x,1/2-y,z
loop_
_atom_site_type_symbol
_atom_site_label
_atom_site_fract_x
_atom_site_fract_y
_atom_site_fract_z
Si Si1 0.187974 0.924832 0.593360
Si Si2 0.593586 0.811572 0.460705
Si Si3 0.808884 0.311034 0.595575
Si Si4 0.908902 0.621665 0.219032
Si Si5 0.093424 0.426426 0.364468
Si Si6 0.591845 0.574581 0.460583
Si Si7 0.591288 0.776391 0.720239
Si Si8 0.906924 0.807952 0.368692
O O1 0.264411 0.879887 0.591814
O O2 0.138562 0.916032 0.661561
O O3 0.133912 0.905071 0.529851
O O4 0.216216 0.000000 0.588094
O O5 0.500000 0.810176 0.469524
O O6 0.631606 0.804648 0.533696
O O7 0.623149 0.878496 0.424215
O O8 0.624740 0.750982 0.415525
O O9 0.750000 0.250000 0.596023
O O10 0.859520 0.314046 0.663771
O O11 0.875418 0.598360 0.291697
O O12 0.895761 0.698992 0.211733
O O13 0.000000 0.602460 0.211267
O O14 0.124889 0.500000 0.379399
O O15 0.000000 0.424356 0.362510
O O16 0.500000 0.584573 0.474467
O O17 0.611355 0.500000 0.438388
O O18 0.620574 0.622348 0.400062
O O19 0.500000 0.795154 0.712509
O O20 0.625924 0.800334 0.792613
O O21 0.000000 0.801766 0.364911
#
# Coordination Sequence:
#
# PCOD8185934 Si02
#       8
#    16  16  16  16  16  16  16  16
#     4  11  23  38  54  80 119 155 186 228 277 329
#     4  10  20  36  58  81 106 142 187 229 274 324
#     4  12  24  39  55  79 113 151 191 228 273 325
#     4  10  18  33  58  88 116 145 181 227 284 338
#     4   9  17  31  55  86 113 137 175 229 281 328
#     4   9  18  34  58  86 113 144 182 226 280 335
#     4  10  20  37  61  86 112 142 185 234 277 324
#     4   9  17  33  58  86 111 135 175 235 283 324
#
# _framework density 18.805115000000001
#
# number of rings (size 3 to 8) (size 9 to 14) (size 15 to 20)
#    0.000    2.000    2.500    1.875    0.000    1.750 
#    0.000    5.000    0.000    3.375    0.000    0.000 
#    0.000    0.000    0.000    0.000    0.000    0.000 
#
# Total GULP energy -396857.030620 kJ/mol
# GULP energy per Si atom -12401.782207 kJ/mol
# Density = 1.876231 g / cm^3
# Si number density = 18.805115 Si / 1000 Ang^3
#
#
#
# Elastic Constant Matrix: (Units=GPa)
#
#
# Indices 1 2 3 4 5 6 
#
# 1 49.1473 42.6595 46.9155 0.0000 0.0000 0.0000
# 2 42.6595 114.1075 61.6833 0.0000 0.0000 0.0000
# 3 46.9155 61.6833 158.5188 0.0000 0.0000 0.0000
# 4 0.0000 0.0000 0.0000 34.2002 0.0000 0.0000
# 5 0.0000 0.0000 0.0000 0.0000 -1.1461 0.0000
# 6 0.0000 0.0000 0.0000 0.0000 0.0000 25.0438
#
#
#
# Elastic Compliance Matrix: (Units=1/GPa)
#
#
# Indices 1 2 3 4 5 6 
#
# 1 0.034901 -0.009452 -0.006651 0.000000 0.000000 0.000000
# 2 -0.009452 0.013658 -0.002517 0.000000 0.000000 0.000000
# 3 -0.006651 -0.002517 0.009256 0.000000 0.000000 0.000000
# 4 0.000000 0.000000 0.000000 0.029240 0.000000 0.000000
# 5 0.000000 0.000000 0.000000 0.000000 -0.872491 0.000000
# 6 0.000000 0.000000 0.000000 0.000000 0.000000 0.039930
#
#
# Mechanical properties :
#
#
# Convention : Reuss Voigt Hill
#
# Bulk Modulus (GPa) = 48.60528 69.36559 58.98544
# Shear Modulus (GPa) = -7.12852 22.98725 7.92936
#
# Velocity S-wave (km/s) = -1.94909 3.50007 2.05566
# Velocity P-wave (km/s) = 4.56483 7.30073 6.08844
#
# Compressibility (1/GPa) = 0.02057390
#
# Stress axis : x y z
#
# Youngs Moduli (GPa) = 28.65278 73.21629 108.03354
#
# Poissons Ratio (x) = 0.69206 0.71855
# Poissons Ratio (y) = 0.27083 0.27194
# Poissons Ratio (z) = 0.19057 0.18430
#
# Static dielectric constant tensor:
#      x y z
#    x 3.138800 0.000000 0.000000 
#    y 0.000000 3.602870 0.000000 
#    z 0.000000 0.000000 3.602810 
# 
# 
# High freq. dielectric constant tensor:
#      x y z
#    x 1.700210 0.000000 0.000000 
#    y 0.000000 1.735870 0.000000 
#    z 0.000000 0.000000 1.741770 
# 
# From -- ./inp_files/21956.got.cif
#   From: 2010.03.12/outbox.cif.g09.slc.cpg/sg42_11_cif.got.tgz:21956.got - 2010.04.14 02:04:31.
