data_PCOD8185051
_publ_section_title
;
Structure prediction by ZEFSAII (Michael W. Deem and Ramdas Pophale) SiO2 
 PCOD8185051
Probable space group: A B A 2
;
_chemical_formula_sum "Si O2"
_cell_formula_units_Z 60
_cell_length_a 9.545257
_cell_length_b 18.376588
_cell_length_c 16.825779
_cell_angle_alpha 90.000000
_cell_angle_beta 90.000000
_cell_angle_gamma 90.000000
_cell_volume 2951.397363
_symmetry_space_group_name_H-M "A B A 2"
_symmetry_group_IT_number 41
_symmetry_cell_setting 'orthorhombic'
loop_
_space_group_symop_operation_xyz
x,y,z
-x,-y,z
1/2-x,y,1/2+z
1/2+x,-y,1/2+z
x,1/2+y,1/2+z
-x,1/2-y,1/2+z
1/2-x,1/2+y,z
1/2+x,1/2-y,z
loop_
_atom_site_type_symbol
_atom_site_label
_atom_site_fract_x
_atom_site_fract_y
_atom_site_fract_z
Si Si1 0.382051 0.278174 0.381130
Si Si2 0.000000 0.500000 0.233628
Si Si3 0.444593 0.109879 0.653715
Si Si4 0.660746 0.314242 0.305931
Si Si5 0.682379 0.946824 0.368433
Si Si6 0.230652 0.465673 0.632630
Si Si7 0.040690 0.651387 0.482284
Si Si8 0.754275 0.590320 0.453346
O O1 0.535978 0.273775 0.348260
O O2 0.281512 0.247711 0.310479
O O3 0.372249 0.219659 0.451452
O O4 0.366920 0.358480 0.418547
O O5 0.077598 0.556992 0.292283
O O6 0.121519 0.460803 0.180549
O O7 0.385851 0.165869 0.717529
O O8 0.605109 0.083232 0.671141
O O9 0.449541 0.157924 0.575632
O O10 0.331437 0.046490 0.638535
O O11 0.694167 0.390589 0.349641
O O12 0.604389 0.924097 0.449222
O O13 0.737331 0.027586 0.386243
O O14 0.266972 0.442964 0.541719
O O15 0.881003 0.647682 0.453537
#
# Coordination Sequence:
#
# PCOD8185051 Si02
#       8
#     8   4   8   8   8   8   8   8
#     4  11  25  44  66  96 135 173 227 272 339 410
#     4  12  22  38  60 110 134 164 214 286 344 394
#     4  10  21  43  67  92 133 174 223 274 335 398
#     4  11  25  45  65  98 134 173 223 284 335 403
#     4  11  22  37  72  96 128 176 221 277 328 396
#     4  10  23  39  67 103 132 168 222 285 337 389
#     4  10  20  43  65  91 131 180 221 257 340 410
#     4  11  21  42  68  98 128 178 223 276 330 403
#
# _framework density 20.329353000000001
#
# number of rings (size 3 to 8) (size 9 to 14) (size 15 to 20)
#    0.000    1.333    5.333    0.000    1.867    1.600 
#    4.800    0.000    0.000    0.000    0.000    0.000 
#    0.000    0.000    0.000    0.000    0.000    0.000 
#
# Total GULP energy -371682.608320 kJ/mol
# GULP energy per Si atom -12389.420277 kJ/mol
# Density = 2.028308 g / cm^3
# Si number density = 20.329353 Si / 1000 Ang^3
#
#
#
# Elastic Constant Matrix: (Units=GPa)
#
#
# Indices 1 2 3 4 5 6 
#
# 1 111.7865 38.0325 43.9090 0.0000 0.0000 0.0000
# 2 38.0325 90.6112 38.5461 0.0000 0.0000 0.0000
# 3 43.9090 38.5461 99.4458 0.0000 0.0000 0.0000
# 4 0.0000 0.0000 0.0000 27.6161 0.0000 0.0000
# 5 0.0000 0.0000 0.0000 0.0000 23.8512 0.0000
# 6 0.0000 0.0000 0.0000 0.0000 0.0000 26.0444
#
#
#
# Elastic Compliance Matrix: (Units=1/GPa)
#
#
# Indices 1 2 3 4 5 6 
#
# 1 0.011552 -0.003208 -0.003857 0.000000 0.000000 0.000000
# 2 -0.003208 0.014106 -0.004051 0.000000 0.000000 0.000000
# 3 -0.003857 -0.004051 0.013329 0.000000 0.000000 0.000000
# 4 0.000000 0.000000 0.000000 0.036211 0.000000 0.000000
# 5 0.000000 0.000000 0.000000 0.000000 0.041927 0.000000
# 6 0.000000 0.000000 0.000000 0.000000 0.000000 0.038396
#
#
# Mechanical properties :
#
#
# Convention : Reuss Voigt Hill
#
# Bulk Modulus (GPa) = 59.68546 60.31317 59.99932
# Shear Modulus (GPa) = 27.27199 27.59274 27.43236
#
# Velocity S-wave (km/s) = 3.66663 3.68813 3.67740
# Velocity P-wave (km/s) = 6.88103 6.91873 6.89991
#
# Compressibility (1/GPa) = 0.01675450
#
# Stress axis : x y z
#
# Youngs Moduli (GPa) = 86.56403 70.89170 75.02352
#
# Poissons Ratio (x) = 0.22741 0.28939
# Poissons Ratio (y) = 0.27769 0.30394
# Poissons Ratio (z) = 0.33390 0.28720
#
# Static dielectric constant tensor:
#      x y z
#    x 3.799220 0.000000 0.000000 
#    y 0.000000 3.437250 0.000000 
#    z 0.000000 0.000000 3.687840 
# 
# 
# High freq. dielectric constant tensor:
#      x y z
#    x 1.796520 0.000000 0.000000 
#    y 0.000000 1.785920 0.000000 
#    z 0.000000 0.000000 1.794840 
# 
# From -- ./inp_files/9756.got.cif
#   From: 2010.03.12/outbox.cif.g09.slc.cpg/sg41_5_cif.got.tgz:9756.got - 2010.04.14 01:55:53.
