data_PCOD8185570
_publ_section_title
;
Structure prediction by ZEFSAII (Michael W. Deem and Ramdas Pophale) SiO2 
 PCOD8185570
Probable space group: A B A 2
;
_chemical_formula_sum "Si O2"
_cell_formula_units_Z 56
_cell_length_a 16.673601
_cell_length_b 13.943373
_cell_length_c 10.864551
_cell_angle_alpha 90.000000
_cell_angle_beta 90.000000
_cell_angle_gamma 90.000000
_cell_volume 2525.858590
_symmetry_space_group_name_H-M "A B A 2"
_symmetry_group_IT_number 41
_symmetry_cell_setting 'orthorhombic'
loop_
_space_group_symop_operation_xyz
x,y,z
-x,-y,z
1/2-x,y,1/2+z
1/2+x,-y,1/2+z
x,1/2+y,1/2+z
-x,1/2-y,1/2+z
1/2-x,1/2+y,z
1/2+x,1/2-y,z
loop_
_atom_site_type_symbol
_atom_site_label
_atom_site_fract_x
_atom_site_fract_y
_atom_site_fract_z
Si Si1 0.580144 0.953976 0.729010
Si Si2 0.635557 0.308295 0.845264
Si Si3 0.974236 0.105754 0.762165
Si Si4 0.863204 0.073514 0.000074
Si Si5 0.614212 0.760456 0.625441
Si Si6 0.250160 0.515084 0.324054
Si Si7 0.273079 0.327487 0.189746
O O1 0.569111 0.840600 0.707216
O O2 0.654288 0.966488 0.823407
O O3 0.500000 0.000000 0.788923
O O4 0.593165 0.003874 0.596316
O O5 0.551793 0.330338 0.782415
O O6 0.698186 0.389736 0.800486
O O7 0.670758 0.206517 0.802078
O O8 0.615761 0.298255 0.987712
O O9 0.927936 0.158002 0.650017
O O10 0.920976 0.099906 0.886818
O O11 0.000000 0.000000 0.719413
O O12 0.831361 0.168010 0.070111
O O13 0.781212 0.022676 0.954940
O O14 0.706152 0.752022 0.666943
O O15 0.234686 0.431689 0.221687
#
# Coordination Sequence:
#
# PCOD8185570 Si02
#       7
#     8   8   8   8   8   8   8
#     4  11  24  41  72 107 141 184 246 303 358 433
#     4  12  25  44  71 106 140 190 242 297 358 440
#     4  12  25  45  73 101 145 188 238 295 373 424
#     4  11  22  45  73  99 141 194 232 295 371 436
#     4  12  24  43  74 106 140 191 244 292 362 434
#     4  11  22  45  70  99 142 189 228 294 363 437
#     4  11  25  42  70 103 139 181 246 294 357 429
#
# _framework density 22.170680000000001
#
# number of rings (size 3 to 8) (size 9 to 14) (size 15 to 20)
#    0.000    0.571    5.714    2.143    6.000    0.000 
#    0.000    0.000    9.429    0.000    0.000    0.000 
#    0.000    0.000    0.000    0.000    0.000    0.000 
#
# Total GULP energy -347010.434264 kJ/mol
# GULP energy per Si atom -12393.229795 kJ/mol
# Density = 2.212022 g / cm^3
# Si number density = 22.170680 Si / 1000 Ang^3
#
#
#
# Elastic Constant Matrix: (Units=GPa)
#
#
# Indices 1 2 3 4 5 6 
#
# 1 134.2638 50.6017 32.6458 0.0000 0.0000 0.0000
# 2 50.6017 112.2355 24.9545 0.0000 0.0000 0.0000
# 3 32.6458 24.9545 33.6001 0.0000 0.0000 0.0000
# 4 0.0000 0.0000 0.0000 28.4179 0.0000 0.0000
# 5 0.0000 0.0000 0.0000 0.0000 21.9729 0.0000
# 6 0.0000 0.0000 0.0000 0.0000 0.0000 39.6702
#
#
#
# Elastic Compliance Matrix: (Units=1/GPa)
#
#
# Indices 1 2 3 4 5 6 
#
# 1 0.010512 -0.002957 -0.008017 0.000000 0.000000 0.000000
# 2 -0.002957 0.011504 -0.005671 0.000000 0.000000 0.000000
# 3 -0.008017 -0.005671 0.041763 0.000000 0.000000 0.000000
# 4 0.000000 0.000000 0.000000 0.035189 0.000000 0.000000
# 5 0.000000 0.000000 0.000000 0.000000 0.045511 0.000000
# 6 0.000000 0.000000 0.000000 0.000000 0.000000 0.025208
#
#
# Mechanical properties :
#
#
# Convention : Reuss Voigt Hill
#
# Bulk Modulus (GPa) = 32.79899 55.16703 43.98301
# Shear Modulus (GPa) = 23.45886 29.47202 26.46544
#
# Velocity S-wave (km/s) = 3.25638 3.64995 3.45876
# Velocity P-wave (km/s) = 5.38188 6.53450 5.98600
#
# Compressibility (1/GPa) = 0.03048874
#
# Stress axis : x y z
#
# Youngs Moduli (GPa) = 95.13200 86.92808 23.94451
#
# Poissons Ratio (x) = 0.25702 0.19197
# Poissons Ratio (y) = 0.28127 0.13579
# Poissons Ratio (z) = 0.76270 0.49297
#
# Static dielectric constant tensor:
#      x y z
#    x 4.293260 0.000000 0.000000 
#    y 0.000000 4.154730 0.000000 
#    z 0.000000 0.000000 3.714370 
# 
# 
# High freq. dielectric constant tensor:
#      x y z
#    x 1.887630 0.000000 0.000000 
#    y 0.000000 1.882170 0.000000 
#    z 0.000000 0.000000 1.845330 
# 
# From -- ./inp_files/5608.got.cif
#   From: 2010.03.12/outbox.cif.g09.slc.cpg/sg41_3_cif.got.tgz:5608.got - 2010.04.14 01:55:53.
