data_PCOD8185747
_publ_section_title
;
Structure prediction by ZEFSAII (Michael W. Deem and Ramdas Pophale) SiO2 
 PCOD8185747
Probable space group: F M M 2
;
_chemical_formula_sum "Si O2"
_cell_formula_units_Z 48
_cell_length_a 13.746559
_cell_length_b 5.318158
_cell_length_c 28.753899
_cell_angle_alpha 90.000000
_cell_angle_beta 90.000000
_cell_angle_gamma 90.000000
_cell_volume 2102.093257
_symmetry_space_group_name_H-M "F M M 2"
_symmetry_group_IT_number 42
_symmetry_cell_setting 'orthorhombic'
loop_
_space_group_symop_operation_xyz
x,y,z
-x,-y,z
-x,y,z
x,-y,z
x,1/2+y,1/2+z
-x,1/2-y,1/2+z
-x,1/2+y,1/2+z
x,1/2-y,1/2+z
1/2+x,y,1/2+z
1/2-x,-y,1/2+z
1/2-x,y,1/2+z
1/2+x,-y,1/2+z
1/2+x,1/2+y,z
1/2-x,1/2-y,z
1/2-x,1/2+y,z
1/2+x,1/2-y,z
loop_
_atom_site_type_symbol
_atom_site_label
_atom_site_fract_x
_atom_site_fract_y
_atom_site_fract_z
Si Si1 0.650994 0.500000 0.417120
Si Si2 0.860381 0.500000 0.269990
Si Si3 0.635139 0.000000 0.455112
Si Si4 0.815562 0.500000 0.165994
Si Si5 0.000000 0.500000 0.538938
Si Si6 0.000000 0.500000 0.099595
Si Si7 0.852316 0.000000 0.308642
O O1 0.591238 0.249221 0.430128
O O2 0.748605 0.500000 0.448668
O O3 0.674468 0.500000 0.362758
O O4 0.873209 0.500000 0.214789
O O5 0.910186 0.747973 0.293202
O O6 0.746465 0.500000 0.279964
O O7 0.598800 0.000000 0.508114
O O8 0.750000 0.750000 0.160451
O O9 0.900666 0.500000 0.128425
O O10 0.000000 0.749634 0.569155
#
# Coordination Sequence:
#
# PCOD8185747 Si02
#       7
#     8   8   8   8   4   4   8
#     4  10  19  35  60 101 119 173 221 262 305 396
#     4  10  16  29  56  94 120 174 209 256 317 390
#     4  10  20  37  61  84 126 160 217 262 331 390
#     4  12  23  47  72 103 135 183 231 277 361 412
#     4  12  26  50  64  91 132 179 210 292 378 390
#     4  12  30  50  70 103 136 173 230 308 352 420
#     4  10  16  28  56  93 136 159 226 256 303 383
#
# _framework density 22.834379999999999
#
# number of rings (size 3 to 8) (size 9 to 14) (size 15 to 20)
#    0.000    1.333    3.333    7.000    0.000    0.000 
#   18.000    0.000    0.000   11.000    0.000    0.000 
#    0.000    0.000    0.000    0.000    0.000    0.000 
#
# Total GULP energy -148657.333151 kJ/mol
# GULP energy per Si atom -12388.111096 kJ/mol
# Density = 2.278241 g / cm^3
# Si number density = 22.834380 Si / 1000 Ang^3
#
#
#
# Elastic Constant Matrix: (Units=GPa)
#
#
# Indices 1 2 3 4 5 6 
#
# 1 93.9697 27.8016 51.0038 0.0000 0.0000 0.0000
# 2 27.8016 301.1512 90.2538 0.0000 0.0000 0.0000
# 3 51.0038 90.2538 181.9825 0.0000 0.0000 0.0000
# 4 0.0000 0.0000 0.0000 49.1172 0.0000 0.0000
# 5 0.0000 0.0000 0.0000 0.0000 -20.6932 0.0000
# 6 0.0000 0.0000 0.0000 0.0000 0.0000 -18.7941
#
#
#
# Elastic Compliance Matrix: (Units=1/GPa)
#
#
# Indices 1 2 3 4 5 6 
#
# 1 0.012555 -0.000123 -0.003458 0.000000 0.000000 0.000000
# 2 -0.000123 0.003902 -0.001901 0.000000 0.000000 0.000000
# 3 -0.003458 -0.001901 0.007407 0.000000 0.000000 0.000000
# 4 0.000000 0.000000 0.000000 0.020359 0.000000 0.000000
# 5 0.000000 0.000000 0.000000 0.000000 -0.048325 0.000000
# 6 0.000000 0.000000 0.000000 0.000000 0.000000 -0.053208
#
#
# Mechanical properties :
#
#
# Convention : Reuss Voigt Hill
#
# Bulk Modulus (GPa) = 77.51439 101.69131 89.60285
# Shear Modulus (GPa) = -118.91096 29.12894 -44.89101
#
# Velocity S-wave (km/s) = -7.22416 3.57551 -4.43870
# Velocity P-wave (km/s) = 5.96360 7.85345 3.61332
#
# Compressibility (1/GPa) = 0.01290083
#
# Stress axis : x y z
#
# Youngs Moduli (GPa) = 79.65053 256.31114 135.01240
#
# Poissons Ratio (x) = 0.03146 0.46685
# Poissons Ratio (y) = 0.00978 0.25660
# Poissons Ratio (z) = 0.27542 0.48713
#
# Static dielectric constant tensor:
#      x y z
#    x 3.683100 0.000000 0.000000 
#    y 0.000000 20.090950 0.000000 
#    z 0.000000 0.000000 3.989700 
# 
# 
# High freq. dielectric constant tensor:
#      x y z
#    x 1.880510 0.000000 0.000000 
#    y 0.000000 1.950480 0.000000 
#    z 0.000000 0.000000 1.891240 
# 
# From -- ./inp_files/32352.got.cif
#   From: 2010.03.12/outbox.cif.g09.slc.cpg/sg42_17_cif.got.tgz:32352.got - 2010.04.14 02:04:31.
