data_PCOD8185068
_publ_section_title
;
Structure prediction by ZEFSAII (Michael W. Deem and Ramdas Pophale) SiO2 
 PCOD8185068
Probable space group: A B A 2
;
_chemical_formula_sum "Si O2"
_cell_formula_units_Z 56
_cell_length_a 4.984038
_cell_length_b 16.728524
_cell_length_c 33.025831
_cell_angle_alpha 90.000000
_cell_angle_beta 90.000000
_cell_angle_gamma 90.000000
_cell_volume 2753.548452
_symmetry_space_group_name_H-M "A B A 2"
_symmetry_group_IT_number 41
_symmetry_cell_setting 'orthorhombic'
loop_
_space_group_symop_operation_xyz
x,y,z
-x,-y,z
1/2-x,y,1/2+z
1/2+x,-y,1/2+z
x,1/2+y,1/2+z
-x,1/2-y,1/2+z
1/2-x,1/2+y,z
1/2+x,1/2-y,z
loop_
_atom_site_type_symbol
_atom_site_label
_atom_site_fract_x
_atom_site_fract_y
_atom_site_fract_z
Si Si1 0.094654 0.195214 0.644480
Si Si2 0.759264 0.947084 0.995525
Si Si3 0.092266 0.698410 0.940052
Si Si4 0.741485 0.946072 0.586274
Si Si5 0.519622 0.908303 0.775011
Si Si6 0.107465 0.700299 0.848132
Si Si7 0.012726 0.407149 0.222580
O O1 0.295172 0.270176 0.640690
O O2 0.188995 0.133957 0.610279
O O3 0.090163 0.148598 0.686707
O O4 0.691101 0.871989 0.968331
O O5 0.500000 0.000000 0.998721
O O6 0.842192 0.919029 0.040858
O O7 0.000000 0.000000 0.976405
O O8 0.289661 0.773220 0.948846
O O9 0.091957 0.667270 0.893865
O O10 0.500000 0.000000 0.605485
O O11 0.000000 0.000000 0.586470
O O12 0.488501 0.864060 0.817362
O O13 0.305414 0.884052 0.740042
O O14 0.813962 0.889025 0.759150
O O15 0.500000 0.000000 0.786152
O O16 0.417800 0.722428 0.841243
O O17 0.000000 0.500000 0.208383
#
# Coordination Sequence:
#
# PCOD8185068 Si02
#       7
#     8   8   8   8   8   8   8
#     4  12  25  38  58  90 117 144 192 242 285 338
#     4  10  21  38  61  88 114 150 198 240 283 340
#     4  10  21  37  57  84 118 154 188 230 290 348
#     4  10  22  41  62  83 116 158 192 231 292 353
#     4  10  21  37  57  81 107 144 193 236 279 337
#     4  10  21  36  55  80 112 149 184 225 285 344
#     4  10  22  39  57  78 111 151 187 230 290 348
#
# _framework density 20.337392000000001
#
# number of rings (size 3 to 8) (size 9 to 14) (size 15 to 20)
#    0.000    1.714    0.000    3.857    0.000    6.857 
#    0.000    2.143    0.000    0.000    0.000    0.000 
#    0.000    0.000    0.000    0.000    0.000    0.000 
#
# Total GULP energy -347107.092917 kJ/mol
# GULP energy per Si atom -12396.681890 kJ/mol
# Density = 2.029110 g / cm^3
# Si number density = 20.337392 Si / 1000 Ang^3
#
#
#
# Elastic Constant Matrix: (Units=GPa)
#
#
# Indices 1 2 3 4 5 6 
#
# 1 93.9910 20.5990 16.3935 0.0000 0.0000 0.0000
# 2 20.5990 85.9112 66.9395 0.0000 0.0000 0.0000
# 3 16.3935 66.9395 102.6018 0.0000 0.0000 0.0000
# 4 0.0000 0.0000 0.0000 22.3112 0.0000 0.0000
# 5 0.0000 0.0000 0.0000 0.0000 -136.1066 0.0000
# 6 0.0000 0.0000 0.0000 0.0000 0.0000 33.0064
#
#
#
# Elastic Compliance Matrix: (Units=1/GPa)
#
#
# Indices 1 2 3 4 5 6 
#
# 1 0.011230 -0.002633 -0.000076 0.000000 0.000000 0.000000
# 2 -0.002633 0.024292 -0.015428 0.000000 0.000000 0.000000
# 3 -0.000076 -0.015428 0.019824 0.000000 0.000000 0.000000
# 4 0.000000 0.000000 0.000000 0.044820 0.000000 0.000000
# 5 0.000000 0.000000 0.000000 0.000000 -0.007347 0.000000
# 6 0.000000 0.000000 0.000000 0.000000 0.000000 0.030297
#
#
# Mechanical properties :
#
#
# Convention : Reuss Voigt Hill
#
# Bulk Modulus (GPa) = 52.43511 54.48532 53.46021
# Shear Modulus (GPa) = 30.16608 -4.25299 12.95655
#
# Velocity S-wave (km/s) = 3.85552 -1.44767 2.52678
# Velocity P-wave (km/s) = 6.75712 4.90454 5.90395
#
# Compressibility (1/GPa) = 0.01907119
#
# Stress axis : x y z
#
# Youngs Moduli (GPa) = 89.04963 41.16511 50.44319
#
# Poissons Ratio (x) = 0.10839 0.00386
# Poissons Ratio (y) = 0.23447 0.77825
# Poissons Ratio (z) = 0.00681 0.63510
#
# Static dielectric constant tensor:
#      x y z
#    x 6.814460 0.000000 0.000000 
#    y 0.000000 3.551090 0.000000 
#    z 0.000000 0.000000 3.751590 
# 
# 
# High freq. dielectric constant tensor:
#      x y z
#    x 1.817790 0.000000 0.000000 
#    y 0.000000 1.783820 0.000000 
#    z 0.000000 0.000000 1.793290 
# 
# From -- ./inp_files/12631.got.cif
#   From: 2010.03.12/outbox.cif.g09.slc.cpg/sg41_7_cif.got.tgz:12631.got - 2010.04.14 01:55:53.
