data_PCOD8185096
_publ_section_title
;
Structure prediction by ZEFSAII (Michael W. Deem and Ramdas Pophale) SiO2 
 PCOD8185096
Probable space group: A B A 2
;
_chemical_formula_sum "Si O2"
_cell_formula_units_Z 64
_cell_length_a 13.587672
_cell_length_b 16.755416
_cell_length_c 13.832057
_cell_angle_alpha 90.000000
_cell_angle_beta 90.000000
_cell_angle_gamma 90.000000
_cell_volume 3149.104260
_symmetry_space_group_name_H-M "A B A 2"
_symmetry_group_IT_number 41
_symmetry_cell_setting 'orthorhombic'
loop_
_space_group_symop_operation_xyz
x,y,z
-x,-y,z
1/2-x,y,1/2+z
1/2+x,-y,1/2+z
x,1/2+y,1/2+z
-x,1/2-y,1/2+z
1/2-x,1/2+y,z
1/2+x,1/2-y,z
loop_
_atom_site_type_symbol
_atom_site_label
_atom_site_fract_x
_atom_site_fract_y
_atom_site_fract_z
Si Si1 0.517258 0.662456 0.362080
Si Si2 0.914198 0.945478 0.977923
Si Si3 0.558433 0.578477 0.553694
Si Si4 0.580422 0.301718 0.637030
Si Si5 0.150578 0.694731 0.344313
Si Si6 0.029038 0.876697 0.153014
Si Si7 0.162621 0.245482 0.444860
Si Si8 0.710558 0.084610 0.532968
O O1 0.528218 0.596996 0.444293
O O2 0.615743 0.714332 0.356507
O O3 0.501163 0.609541 0.265287
O O4 0.437380 0.731857 0.385046
O O5 0.946522 0.917301 0.085727
O O6 0.816018 0.000568 0.980540
O O7 0.905664 0.869497 0.909382
O O8 0.000000 0.000000 0.932927
O O9 0.500000 0.500000 0.584297
O O10 0.515064 0.643421 0.626148
O O11 0.676507 0.577379 0.566667
O O12 0.641703 0.327856 0.731435
O O13 0.527077 0.217377 0.640047
O O14 0.656186 0.302042 0.547042
O O15 0.261821 0.697000 0.379168
O O16 0.138638 0.908661 0.126200
O O17 0.188870 0.338928 0.462902
#
# Coordination Sequence:
#
# PCOD8185096 Si02
#       8
#     8   8   8   8   8   8   8   8
#     4  10  21  41  63  96 121 164 210 259 313 366
#     4  10  21  37  65  91 126 163 206 264 309 372
#     4  11  23  40  60  85 136 170 199 263 312 374
#     4   9  22  41  60  93 121 162 213 256 314 360
#     4  11  21  40  67  89 121 164 211 256 312 378
#     4   9  20  41  65  92 122 158 215 260 305 378
#     4  10  21  40  66  87 126 158 209 263 308 382
#     4  10  21  40  63  92 125 172 204 251 330 371
#
# _framework density 20.323239000000001
#
# number of rings (size 3 to 8) (size 9 to 14) (size 15 to 20)
#    0.000    2.000    1.250    3.000    3.500    3.000 
#   11.250    1.250    0.000    0.000    0.000    0.000 
#    0.000    0.000    0.000    0.000    0.000    0.000 
#
# Total GULP energy -396541.096986 kJ/mol
# GULP energy per Si atom -12391.909281 kJ/mol
# Density = 2.027698 g / cm^3
# Si number density = 20.323239 Si / 1000 Ang^3
#
#
#
# Elastic Constant Matrix: (Units=GPa)
#
#
# Indices 1 2 3 4 5 6 
#
# 1 114.9160 34.8526 42.6467 0.0000 0.0000 0.0000
# 2 34.8526 82.6644 25.4212 0.0000 0.0000 0.0000
# 3 42.6467 25.4212 115.7294 0.0000 0.0000 0.0000
# 4 0.0000 0.0000 0.0000 16.1097 0.0000 0.0000
# 5 0.0000 0.0000 0.0000 0.0000 26.2344 0.0000
# 6 0.0000 0.0000 0.0000 0.0000 0.0000 31.9142
#
#
#
# Elastic Compliance Matrix: (Units=1/GPa)
#
#
# Indices 1 2 3 4 5 6 
#
# 1 0.011016 -0.003642 -0.003259 0.000000 0.000000 0.000000
# 2 -0.003642 0.014178 -0.001772 0.000000 0.000000 0.000000
# 3 -0.003259 -0.001772 0.010231 0.000000 0.000000 0.000000
# 4 0.000000 0.000000 0.000000 0.062074 0.000000 0.000000
# 5 0.000000 0.000000 0.000000 0.000000 0.038118 0.000000
# 6 0.000000 0.000000 0.000000 0.000000 0.000000 0.031334
#
#
# Mechanical properties :
#
#
# Convention : Reuss Voigt Hill
#
# Bulk Modulus (GPa) = 55.31726 57.68342 56.50034
# Shear Modulus (GPa) = 26.27085 28.87761 27.57423
#
# Velocity S-wave (km/s) = 3.59925 3.77359 3.68745
# Velocity P-wave (km/s) = 6.67462 6.88704 6.78166
#
# Compressibility (1/GPa) = 0.01807754
#
# Stress axis : x y z
#
# Youngs Moduli (GPa) = 90.77454 70.53323 97.73991
#
# Poissons Ratio (x) = 0.25690 0.31858
# Poissons Ratio (y) = 0.33063 0.17320
# Poissons Ratio (z) = 0.29588 0.12499
#
# Static dielectric constant tensor:
#      x y z
#    x 3.625980 0.000000 0.000000 
#    y 0.000000 3.754670 0.000000 
#    z 0.000000 0.000000 3.928750 
# 
# 
# High freq. dielectric constant tensor:
#      x y z
#    x 1.787200 0.000000 0.000000 
#    y 0.000000 1.800630 0.000000 
#    z 0.000000 0.000000 1.783400 
# 
# From -- ./inp_files/8084.got.cif
#   From: 2010.03.12/outbox.cif.g09.slc.cpg/sg41_5_cif.got.tgz:8084.got - 2010.04.14 01:55:53.
