data_PCOD8185641
_publ_section_title
;
Structure prediction by ZEFSAII (Michael W. Deem and Ramdas Pophale) SiO2 
 PCOD8185641
Probable space group: A B A 2
;
_chemical_formula_sum "Si O2"
_cell_formula_units_Z 40
_cell_length_a 9.404138
_cell_length_b 9.512605
_cell_length_c 20.431537
_cell_angle_alpha 90.000000
_cell_angle_beta 90.000000
_cell_angle_gamma 90.000000
_cell_volume 1827.761375
_symmetry_space_group_name_H-M "A B A 2"
_symmetry_group_IT_number 41
_symmetry_cell_setting 'orthorhombic'
loop_
_space_group_symop_operation_xyz
x,y,z
-x,-y,z
1/2-x,y,1/2+z
1/2+x,-y,1/2+z
x,1/2+y,1/2+z
-x,1/2-y,1/2+z
1/2-x,1/2+y,z
1/2+x,1/2-y,z
loop_
_atom_site_type_symbol
_atom_site_label
_atom_site_fract_x
_atom_site_fract_y
_atom_site_fract_z
Si Si1 0.075472 0.201679 0.612490
Si Si2 0.768762 0.262020 0.337820
Si Si3 0.703012 0.570332 0.566551
Si Si4 0.666490 0.012575 0.923140
Si Si5 0.021526 0.335656 0.253239
O O1 0.159987 0.338996 0.587663
O O2 0.015468 0.237350 0.684414
O O3 0.939040 0.168868 0.565844
O O4 0.177274 0.062629 0.615189
O O5 0.715983 0.406830 0.367444
O O6 0.927045 0.277796 0.311799
O O7 0.679568 0.206311 0.275455
O O8 0.774642 0.160832 0.399483
O O9 0.731897 0.498897 0.495800
O O10 0.500000 0.000000 0.929639
O O11 0.000000 0.500000 0.244327
#
# Coordination Sequence:
#
# PCOD8185641 Si02
#       5
#     8   8   8   8   8
#     4  11  24  45  69  97 133 178 226 286 340 407
#     4  12  26  42  70 100 136 182 223 281 347 404
#     4  11  24  45  69  97 135 176 227 286 342 407
#     4  12  24  44  68 100 138 177 229 283 341 417
#     4  12  24  44  68 100 138 177 231 282 338 415
#
# _framework density 21.884696000000002
#
# number of rings (size 3 to 8) (size 9 to 14) (size 15 to 20)
#    0.000    0.400    8.000    2.400    0.000    0.800 
#    0.000    0.000    0.000    0.000    0.000    0.000 
#    0.000    0.000    0.000    0.000    0.000    0.000 
#
# Total GULP energy -247991.370530 kJ/mol
# GULP energy per Si atom -12399.568527 kJ/mol
# Density = 2.183489 g / cm^3
# Si number density = 21.884696 Si / 1000 Ang^3
#
#
#
# Elastic Constant Matrix: (Units=GPa)
#
#
# Indices 1 2 3 4 5 6 
#
# 1 57.9839 9.2400 19.7296 0.0000 0.0000 0.0000
# 2 9.2400 49.9599 16.4662 0.0000 0.0000 0.0000
# 3 19.7296 16.4662 112.8224 0.0000 0.0000 0.0000
# 4 0.0000 0.0000 0.0000 19.5385 0.0000 0.0000
# 5 0.0000 0.0000 0.0000 0.0000 48.2334 0.0000
# 6 0.0000 0.0000 0.0000 0.0000 0.0000 36.0006
#
#
#
# Elastic Compliance Matrix: (Units=1/GPa)
#
#
# Indices 1 2 3 4 5 6 
#
# 1 0.018628 -0.002491 -0.002894 0.000000 0.000000 0.000000
# 2 -0.002491 0.021361 -0.002682 0.000000 0.000000 0.000000
# 3 -0.002894 -0.002682 0.009761 0.000000 0.000000 0.000000
# 4 0.000000 0.000000 0.000000 0.051181 0.000000 0.000000
# 5 0.000000 0.000000 0.000000 0.000000 0.020733 0.000000
# 6 0.000000 0.000000 0.000000 0.000000 0.000000 0.027777
#
#
# Mechanical properties :
#
#
# Convention : Reuss Voigt Hill
#
# Bulk Modulus (GPa) = 29.74840 34.62641 32.18740
# Shear Modulus (GPa) = 28.28377 32.44319 30.36348
#
# Velocity S-wave (km/s) = 3.59890 3.85445 3.72886
# Velocity P-wave (km/s) = 5.55807 5.97207 5.76878
#
# Compressibility (1/GPa) = 0.03361526
#
# Stress axis : x y z
#
# Youngs Moduli (GPa) = 53.68299 46.81480 102.44889
#
# Poissons Ratio (x) = 0.11663 0.29648
# Poissons Ratio (y) = 0.13375 0.27475
# Poissons Ratio (z) = 0.15535 0.12555
#
# Static dielectric constant tensor:
#      x y z
#    x 3.943430 0.000000 0.000000 
#    y 0.000000 3.881220 0.000000 
#    z 0.000000 0.000000 4.003890 
# 
# 
# High freq. dielectric constant tensor:
#      x y z
#    x 1.857390 0.000000 0.000000 
#    y 0.000000 1.857700 0.000000 
#    z 0.000000 0.000000 1.871740 
# 
# From -- ./inp_files/9551.got.cif
#   From: 2010.03.12/outbox.cif.g09.slc.cpg/sg41_5_cif.got.tgz:9551.got - 2010.04.14 01:55:53.
