data_PCOD8185366
_publ_section_title
;
Structure prediction by ZEFSAII (Michael W. Deem and Ramdas Pophale) SiO2 
 PCOD8185366
Probable space group: A B A 2
;
_chemical_formula_sum "Si O2"
_cell_formula_units_Z 60
_cell_length_a 7.939234
_cell_length_b 23.811443
_cell_length_c 15.518866
_cell_angle_alpha 90.000000
_cell_angle_beta 90.000000
_cell_angle_gamma 90.000000
_cell_volume 2933.758093
_symmetry_space_group_name_H-M "A B A 2"
_symmetry_group_IT_number 41
_symmetry_cell_setting 'orthorhombic'
loop_
_space_group_symop_operation_xyz
x,y,z
-x,-y,z
1/2-x,y,1/2+z
1/2+x,-y,1/2+z
x,1/2+y,1/2+z
-x,1/2-y,1/2+z
1/2-x,1/2+y,z
1/2+x,1/2-y,z
loop_
_atom_site_type_symbol
_atom_site_label
_atom_site_fract_x
_atom_site_fract_y
_atom_site_fract_z
Si Si1 0.500000 0.000000 0.904191
Si Si2 0.141377 0.866075 0.608847
Si Si3 0.221054 0.291957 0.462074
Si Si4 0.851695 0.420621 0.022331
Si Si5 0.674697 0.522512 0.803427
Si Si6 0.633493 0.825453 0.438983
Si Si7 0.308894 0.482015 0.122457
Si Si8 0.878176 0.651244 0.302983
O O1 0.331229 0.005153 0.850031
O O2 0.500405 0.941858 0.958404
O O3 0.158545 0.819605 0.533690
O O4 0.283991 0.915429 0.600189
O O5 0.143941 0.834341 0.701690
O O6 0.951579 0.891199 0.600718
O O7 0.235419 0.225110 0.450899
O O8 0.253278 0.314917 0.364250
O O9 0.032096 0.307416 0.493317
O O10 0.715964 0.380793 0.977817
O O11 0.754657 0.477799 0.046807
O O12 0.500000 0.500000 0.842007
O O13 0.690767 0.505334 0.703910
O O14 0.676915 0.588104 0.817071
O O15 0.569501 0.837003 0.339741
O O16 0.500000 0.500000 0.143192
#
# Coordination Sequence:
#
# PCOD8185366 Si02
#       8
#     4   8   8   8   8   8   8   8
#     4  12  24  38  64 104 128 186 220 272 352 412
#     4  11  21  43  68  95 137 177 226 283 354 413
#     4  10  22  44  65  95 125 176 225 290 341 413
#     4  12  23  38  64  96 131 176 224 276 345 416
#     4  11  22  41  65  96 140 175 224 281 338 413
#     4  10  23  44  66  92 132 174 228 293 346 409
#     4  11  22  39  63  99 137 178 226 276 342 424
#     4   9  23  41  66  95 131 176 221 287 340 405
#
# _framework density 20.451584
#
# number of rings (size 3 to 8) (size 9 to 14) (size 15 to 20)
#    0.800    0.533    2.000    4.800    0.000    0.533 
#    4.800    0.000    2.933    0.000    0.000    0.000 
#    0.000    0.000    0.000    0.000    0.000    0.000 
#
# Total GULP energy -371695.523660 kJ/mol
# GULP energy per Si atom -12389.850789 kJ/mol
# Density = 2.040504 g / cm^3
# Si number density = 20.451584 Si / 1000 Ang^3
#
#
#
# Elastic Constant Matrix: (Units=GPa)
#
#
# Indices 1 2 3 4 5 6 
#
# 1 97.3224 27.6232 27.9723 0.0000 0.0000 0.0000
# 2 27.6232 101.9457 54.4145 0.0000 0.0000 0.0000
# 3 27.9723 54.4145 119.6471 0.0000 0.0000 0.0000
# 4 0.0000 0.0000 0.0000 29.8476 0.0000 0.0000
# 5 0.0000 0.0000 0.0000 0.0000 52.1010 0.0000
# 6 0.0000 0.0000 0.0000 0.0000 0.0000 37.4376
#
#
#
# Elastic Compliance Matrix: (Units=1/GPa)
#
#
# Indices 1 2 3 4 5 6 
#
# 1 0.011376 -0.002196 -0.001661 0.000000 0.000000 0.000000
# 2 -0.002196 0.013377 -0.005571 0.000000 0.000000 0.000000
# 3 -0.001661 -0.005571 0.011280 0.000000 0.000000 0.000000
# 4 0.000000 0.000000 0.000000 0.033504 0.000000 0.000000
# 5 0.000000 0.000000 0.000000 0.000000 0.019193 0.000000
# 6 0.000000 0.000000 0.000000 0.000000 0.000000 0.026711
#
#
# Mechanical properties :
#
#
# Convention : Reuss Voigt Hill
#
# Bulk Modulus (GPa) = 58.21318 59.88167 59.04742
# Shear Modulus (GPa) = 35.70872 37.80426 36.75649
#
# Velocity S-wave (km/s) = 4.18306 4.30405 4.24399
# Velocity P-wave (km/s) = 7.20114 7.35140 7.27666
#
# Compressibility (1/GPa) = 0.01717824
#
# Stress axis : x y z
#
# Youngs Moduli (GPa) = 87.90628 74.75242 88.65504
#
# Poissons Ratio (x) = 0.16415 0.14724
# Poissons Ratio (y) = 0.19303 0.49386
# Poissons Ratio (z) = 0.14600 0.41642
#
# Static dielectric constant tensor:
#      x y z
#    x 3.234830 0.000000 0.000000 
#    y 0.000000 3.451880 0.000000 
#    z 0.000000 0.000000 3.760140 
# 
# 
# High freq. dielectric constant tensor:
#      x y z
#    x 1.794010 0.000000 0.000000 
#    y 0.000000 1.795810 0.000000 
#    z 0.000000 0.000000 1.793920 
# 
# From -- ./inp_files/7552.got.cif
#   From: 2010.03.12/outbox.cif.g09.slc.cpg/sg41_4_cif.got.tgz:7552.got - 2010.04.14 01:55:53.
