data_PCOD8185868
_publ_section_title
;
Structure prediction by ZEFSAII (Michael W. Deem and Ramdas Pophale) SiO2 
 PCOD8185868
Probable space group: F M M 2
;
_chemical_formula_sum "Si O2"
_cell_formula_units_Z 64
_cell_length_a 8.875389
_cell_length_b 15.424209
_cell_length_c 24.215537
_cell_angle_alpha 90.000000
_cell_angle_beta 90.000000
_cell_angle_gamma 90.000000
_cell_volume 3315.006639
_symmetry_space_group_name_H-M "F M M 2"
_symmetry_group_IT_number 42
_symmetry_cell_setting 'orthorhombic'
loop_
_space_group_symop_operation_xyz
x,y,z
-x,-y,z
-x,y,z
x,-y,z
x,1/2+y,1/2+z
-x,1/2-y,1/2+z
-x,1/2+y,1/2+z
x,1/2-y,1/2+z
1/2+x,y,1/2+z
1/2-x,-y,1/2+z
1/2-x,y,1/2+z
1/2+x,-y,1/2+z
1/2+x,1/2+y,z
1/2-x,1/2-y,z
1/2-x,1/2+y,z
1/2+x,1/2-y,z
loop_
_atom_site_type_symbol
_atom_site_label
_atom_site_fract_x
_atom_site_fract_y
_atom_site_fract_z
Si Si1 0.670192 0.396521 0.500000
Si Si2 0.821013 0.000000 0.306231
Si Si3 0.321527 0.838915 0.610126
Si Si4 0.835952 0.903436 0.894434
Si Si5 0.321156 0.000000 0.681021
O O1 0.500000 0.361807 0.506304
O O2 0.671651 0.500000 0.502291
O O3 0.772190 0.357174 0.547833
O O4 0.736126 0.358338 0.442114
O O5 0.756524 0.087178 0.336506
O O6 0.761604 0.000000 0.243695
O O7 0.000000 0.000000 0.310661
O O8 0.500000 0.832142 0.612311
O O9 0.250000 0.750000 0.632154
O O10 0.259919 0.915015 0.649837
O O11 0.000000 0.857300 0.885543
O O12 0.867162 0.000000 0.916982
O O13 0.500000 0.000000 0.680238
#
# Coordination Sequence:
#
# PCOD8185868 Si02
#       5
#    16   8  16  16   8
#     4  10  18  30  52  81 109 141 179 221 271 328
#     4   9  15  28  49  76 101 136 186 229 268 329
#     4  11  22  38  56  81 113 149 187 231 278 331
#     4   8  15  26  44  74 106 136 170 218 273 324
#     4   9  20  36  57  78 107 148 188 227 280 329
#
# _framework density 19.306145999999998
#
# number of rings (size 3 to 8) (size 9 to 14) (size 15 to 20)
#    0.750    1.750    1.250    2.250    0.000    1.000 
#    0.000    5.000    0.000    1.500    0.000    7.000 
#    0.000    0.000    0.000    0.000    0.000    0.000 
#
# Total GULP energy -198243.368891 kJ/mol
# GULP energy per Si atom -12390.210556 kJ/mol
# Density = 1.926220 g / cm^3
# Si number density = 19.306146 Si / 1000 Ang^3
#
#
#
# Elastic Constant Matrix: (Units=GPa)
#
#
# Indices 1 2 3 4 5 6 
#
# 1 113.9779 32.9992 46.6243 0.0000 0.0000 0.0000
# 2 32.9992 76.0194 50.0888 0.0000 0.0000 0.0000
# 3 46.6243 50.0888 164.4119 0.0000 0.0000 0.0000
# 4 0.0000 0.0000 0.0000 1.0401 0.0000 0.0000
# 5 0.0000 0.0000 0.0000 0.0000 28.1468 0.0000
# 6 0.0000 0.0000 0.0000 0.0000 0.0000 20.8644
#
#
#
# Elastic Compliance Matrix: (Units=1/GPa)
#
#
# Indices 1 2 3 4 5 6 
#
# 1 0.010533 -0.003258 -0.001994 0.000000 0.000000 0.000000
# 2 -0.003258 0.017466 -0.004397 0.000000 0.000000 0.000000
# 3 -0.001994 -0.004397 0.007987 0.000000 0.000000 0.000000
# 4 0.000000 0.000000 0.000000 0.961433 0.000000 0.000000
# 5 0.000000 0.000000 0.000000 0.000000 0.035528 0.000000
# 6 0.000000 0.000000 0.000000 0.000000 0.000000 0.047928
#
#
# Mechanical properties :
#
#
# Convention : Reuss Voigt Hill
#
# Bulk Modulus (GPa) = 59.92648 68.20376 64.06512
# Shear Modulus (GPa) = 4.52187 24.99006 14.75597
#
# Velocity S-wave (km/s) = 1.53208 3.60169 2.76762
# Velocity P-wave (km/s) = 5.85126 7.25951 6.59309
#
# Compressibility (1/GPa) = 0.01668711
#
# Stress axis : x y z
#
# Youngs Moduli (GPa) = 94.94214 57.25367 125.19635
#
# Poissons Ratio (x) = 0.18654 0.24968
# Poissons Ratio (y) = 0.30933 0.55051
# Poissons Ratio (z) = 0.18934 0.25175
#
# Static dielectric constant tensor:
#      x y z
#    x 3.614550 0.000000 0.000000 
#    y 0.000000 3.243990 0.000000 
#    z 0.000000 0.000000 3.537150 
# 
# 
# High freq. dielectric constant tensor:
#      x y z
#    x 1.758910 0.000000 0.000000 
#    y 0.000000 1.707080 0.000000 
#    z 0.000000 0.000000 1.745100 
# 
# From -- ./inp_files/27564.got.cif
#   From: 2010.03.12/outbox.cif.g09.slc.cpg/sg42_14_cif.got.tgz:27564.got - 2010.04.14 02:04:31.
