data_PCOD8185131
_publ_section_title
;
Structure prediction by ZEFSAII (Michael W. Deem and Ramdas Pophale) SiO2 
 PCOD8185131
Probable space group: A B A 2
;
_chemical_formula_sum "Si O2"
_cell_formula_units_Z 44
_cell_length_a 29.325239
_cell_length_b 13.107150
_cell_length_c 4.880782
_cell_angle_alpha 90.000000
_cell_angle_beta 90.000000
_cell_angle_gamma 90.000000
_cell_volume 1876.027673
_symmetry_space_group_name_H-M "A B A 2"
_symmetry_group_IT_number 41
_symmetry_cell_setting 'orthorhombic'
loop_
_space_group_symop_operation_xyz
x,y,z
-x,-y,z
1/2-x,y,1/2+z
1/2+x,-y,1/2+z
x,1/2+y,1/2+z
-x,1/2-y,1/2+z
1/2-x,1/2+y,z
1/2+x,1/2-y,z
loop_
_atom_site_type_symbol
_atom_site_label
_atom_site_fract_x
_atom_site_fract_y
_atom_site_fract_z
Si Si1 0.084642 0.384831 0.311900
Si Si2 0.855645 0.587641 0.826999
Si Si3 0.778409 0.453481 0.598481
Si Si4 0.975710 0.789895 0.284722
Si Si5 0.278160 0.785909 0.093995
Si Si6 0.000000 0.000000 0.057906
O O1 0.116692 0.367143 0.573297
O O2 0.071466 0.269546 0.211330
O O3 0.039184 0.449441 0.374284
O O4 0.109147 0.446587 0.064775
O O5 0.826238 0.495207 0.706299
O O6 0.824987 0.671268 0.979750
O O7 0.763575 0.489842 0.295134
O O8 0.784346 0.333844 0.595647
O O9 0.985079 0.763813 0.601847
O O10 0.975340 0.912136 0.241295
O O11 0.264614 0.821224 0.400901
#
# Coordination Sequence:
#
# PCOD8185131 Si02
#       6
#     8   8   8   8   8   4
#     4  11  25  41  66  97 128 168 217 266 329 390
#     4  12  23  40  62  96 132 163 208 270 320 374
#     4  10  21  39  64  93 127 171 215 250 308 388
#     4  10  22  43  67  92 120 162 217 259 312 389
#     4  10  21  39  62  87 123 169 208 254 315 374
#     4  10  24  48  70  88 128 178 214 272 336 382
#
# _framework density 23.453813
#
# number of rings (size 3 to 8) (size 9 to 14) (size 15 to 20)
#    0.000    1.455    0.000    5.455    0.000    8.000 
#    0.000    9.091    0.000    0.000    0.000    0.000 
#    0.000    0.000    0.000    0.000    0.000    0.000 
#
# Total GULP energy -272695.690000 kJ/mol
# GULP energy per Si atom -12395.258636 kJ/mol
# Density = 2.340043 g / cm^3
# Si number density = 23.453813 Si / 1000 Ang^3
#
#
#
# Elastic Constant Matrix: (Units=GPa)
#
#
# Indices 1 2 3 4 5 6 
#
# 1 92.2024 30.2200 16.6441 0.0000 0.0000 0.0000
# 2 30.2200 115.3693 8.4971 0.0000 0.0000 0.0000
# 3 16.6441 8.4971 100.1264 0.0000 0.0000 0.0000
# 4 0.0000 0.0000 0.0000 24.2151 0.0000 0.0000
# 5 0.0000 0.0000 0.0000 0.0000 66.8303 0.0000
# 6 0.0000 0.0000 0.0000 0.0000 0.0000 -7.4117
#
#
#
# Elastic Compliance Matrix: (Units=1/GPa)
#
#
# Indices 1 2 3 4 5 6 
#
# 1 0.012166 -0.003057 -0.001763 0.000000 0.000000 0.000000
# 2 -0.003057 0.009490 -0.000297 0.000000 0.000000 0.000000
# 3 -0.001763 -0.000297 0.010306 0.000000 0.000000 0.000000
# 4 0.000000 0.000000 0.000000 0.041296 0.000000 0.000000
# 5 0.000000 0.000000 0.000000 0.000000 0.014963 0.000000
# 6 0.000000 0.000000 0.000000 0.000000 0.000000 -0.134921
#
#
# Mechanical properties :
#
#
# Convention : Reuss Voigt Hill
#
# Bulk Modulus (GPa) = 46.02395 46.49118 46.25757
# Shear Modulus (GPa) = -171.09850 33.54919 -68.77465
#
# Velocity S-wave (km/s) = -8.55042 3.78621 -5.42099
# Velocity P-wave (km/s) = 8.82121 6.24335 4.40649
#
# Compressibility (1/GPa) = 0.02172782
#
# Stress axis : x y z
#
# Youngs Moduli (GPa) = 82.19712 105.36917 97.03407
#
# Poissons Ratio (x) = 0.32210 0.17106
# Poissons Ratio (y) = 0.25127 0.02884
# Poissons Ratio (z) = 0.14491 0.03132
#
# Static dielectric constant tensor:
#      x y z
#    x 4.271730 0.000000 0.000000 
#    y 0.000000 4.328640 0.000000 
#    z 0.000000 0.000000 4.651600 
# 
# 
# High freq. dielectric constant tensor:
#      x y z
#    x 1.919350 0.000000 0.000000 
#    y 0.000000 1.931310 0.000000 
#    z 0.000000 0.000000 1.947290 
# 
# From -- ./inp_files/1106.got.cif
#   From: 2010.03.12/outbox.cif.g09.slc.cpg/sg41_1_cif.got.tgz:1106.got - 2010.04.14 01:55:53.
