data_PCOD8185551
_publ_section_title
;
Structure prediction by ZEFSAII (Michael W. Deem and Ramdas Pophale) SiO2 
 PCOD8185551
Probable space group: A B A 2
;
_chemical_formula_sum "Si O2"
_cell_formula_units_Z 60
_cell_length_a 12.569570
_cell_length_b 18.360964
_cell_length_c 12.185166
_cell_angle_alpha 90.000000
_cell_angle_beta 90.000000
_cell_angle_gamma 90.000000
_cell_volume 2812.207421
_symmetry_space_group_name_H-M "A B A 2"
_symmetry_group_IT_number 41
_symmetry_cell_setting 'orthorhombic'
loop_
_space_group_symop_operation_xyz
x,y,z
-x,-y,z
1/2-x,y,1/2+z
1/2+x,-y,1/2+z
x,1/2+y,1/2+z
-x,1/2-y,1/2+z
1/2-x,1/2+y,z
1/2+x,1/2-y,z
loop_
_atom_site_type_symbol
_atom_site_label
_atom_site_fract_x
_atom_site_fract_y
_atom_site_fract_z
Si Si1 0.327473 0.942918 0.489200
Si Si2 0.000000 0.500000 0.625020
Si Si3 0.433254 0.350622 0.819995
Si Si4 0.345620 0.605948 0.236254
Si Si5 0.846340 0.907089 0.876473
Si Si6 0.147407 0.349030 0.072109
Si Si7 0.549845 0.807373 0.928556
Si Si8 0.760126 0.800696 0.041370
O O1 0.438245 0.935490 0.558053
O O2 0.336744 0.891735 0.381998
O O3 0.217926 0.922293 0.552927
O O4 0.327169 0.029298 0.464856
O O5 0.908821 0.463765 0.696466
O O6 0.535399 0.403402 0.828428
O O7 0.402818 0.344610 0.692810
O O8 0.457577 0.273856 0.878671
O O9 0.232731 0.576242 0.277126
O O10 0.417331 0.640880 0.329967
O O11 0.319351 0.664258 0.143729
O O12 0.817543 0.829511 0.931335
O O13 0.231652 0.285177 0.055387
O O14 0.059004 0.338099 0.978346
O O15 0.634065 0.814024 0.028791
#
# Coordination Sequence:
#
# PCOD8185551 Si02
#       8
#     8   4   8   8   8   8   8   8
#     4  12  26  46  69 101 145 187 237 293 349 432
#     4  12  26  50  74 100 136 198 242 288 354 444
#     4  12  23  44  73 105 142 188 234 294 360 419
#     4  11  25  43  72 101 134 192 233 293 360 412
#     4  11  24  45  69  96 145 186 232 288 360 426
#     4  12  27  42  72 111 141 183 243 296 348 426
#     4  11  25  44  69 107 142 179 237 301 347 422
#     4  11  21  45  68 100 142 182 232 287 359 419
#
# _framework density 21.335552
#
# number of rings (size 3 to 8) (size 9 to 14) (size 15 to 20)
#    0.000    0.533    6.667    0.800    3.733    0.000 
#    4.800    0.000    0.000    0.000    0.000    0.000 
#    0.000    0.000    0.000    0.000    0.000    0.000 
#
# Total GULP energy -371945.560460 kJ/mol
# GULP energy per Si atom -12398.185349 kJ/mol
# Density = 2.128699 g / cm^3
# Si number density = 21.335552 Si / 1000 Ang^3
#
#
#
# Elastic Constant Matrix: (Units=GPa)
#
#
# Indices 1 2 3 4 5 6 
#
# 1 127.5109 35.1949 55.9255 0.0000 0.0000 0.0000
# 2 35.1949 89.0559 29.9500 0.0000 0.0000 0.0000
# 3 55.9255 29.9500 107.7192 0.0000 0.0000 0.0000
# 4 0.0000 0.0000 0.0000 22.9077 0.0000 0.0000
# 5 0.0000 0.0000 0.0000 0.0000 37.4947 0.0000
# 6 0.0000 0.0000 0.0000 0.0000 0.0000 40.1964
#
#
#
# Elastic Compliance Matrix: (Units=1/GPa)
#
#
# Indices 1 2 3 4 5 6 
#
# 1 0.010673 -0.002597 -0.004819 0.000000 0.000000 0.000000
# 2 -0.002597 0.013019 -0.002271 0.000000 0.000000 0.000000
# 3 -0.004819 -0.002271 0.012417 0.000000 0.000000 0.000000
# 4 0.000000 0.000000 0.000000 0.043653 0.000000 0.000000
# 5 0.000000 0.000000 0.000000 0.000000 0.026670 0.000000
# 6 0.000000 0.000000 0.000000 0.000000 0.000000 0.024878
#
#
# Mechanical properties :
#
#
# Convention : Reuss Voigt Hill
#
# Bulk Modulus (GPa) = 59.75980 62.93632 61.34806
# Shear Modulus (GPa) = 31.99710 33.66745 32.83228
#
# Velocity S-wave (km/s) = 3.87681 3.97671 3.92708
# Velocity P-wave (km/s) = 6.93612 7.11674 7.02701
#
# Compressibility (1/GPa) = 0.01673366
#
# Stress axis : x y z
#
# Youngs Moduli (GPa) = 93.69483 76.80944 80.53558
#
# Poissons Ratio (x) = 0.19950 0.38810
# Poissons Ratio (y) = 0.24335 0.18293
# Poissons Ratio (z) = 0.45152 0.17446
#
# Static dielectric constant tensor:
#      x y z
#    x 3.978820 0.000000 0.000000 
#    y 0.000000 3.789400 0.000000 
#    z 0.000000 0.000000 4.024040 
# 
# 
# High freq. dielectric constant tensor:
#      x y z
#    x 1.847570 0.000000 0.000000 
#    y 0.000000 1.833910 0.000000 
#    z 0.000000 0.000000 1.840960 
# 
# From -- ./inp_files/5132.got.cif
#   From: 2010.03.12/outbox.cif.g09.slc.cpg/sg41_3_cif.got.tgz:5132.got - 2010.04.14 01:55:53.
