data_PCOD8185325
_publ_section_title
;
Structure prediction by ZEFSAII (Michael W. Deem and Ramdas Pophale) SiO2 
 PCOD8185325
Probable space group: A B A 2
;
_chemical_formula_sum "Si O2"
_cell_formula_units_Z 64
_cell_length_a 18.806993
_cell_length_b 12.836387
_cell_length_c 12.820171
_cell_angle_alpha 90.000000
_cell_angle_beta 90.000000
_cell_angle_gamma 90.000000
_cell_volume 3094.966716
_symmetry_space_group_name_H-M "A B A 2"
_symmetry_group_IT_number 41
_symmetry_cell_setting 'orthorhombic'
loop_
_space_group_symop_operation_xyz
x,y,z
-x,-y,z
1/2-x,y,1/2+z
1/2+x,-y,1/2+z
x,1/2+y,1/2+z
-x,1/2-y,1/2+z
1/2-x,1/2+y,z
1/2+x,1/2-y,z
loop_
_atom_site_type_symbol
_atom_site_label
_atom_site_fract_x
_atom_site_fract_y
_atom_site_fract_z
Si Si1 0.703563 0.942959 0.718810
Si Si2 0.938043 0.259415 0.007496
Si Si3 0.060156 0.087322 0.322877
Si Si4 0.514998 0.888432 0.363266
Si Si5 0.191691 0.892000 0.038276
Si Si6 0.458045 0.777815 0.176801
Si Si7 0.816282 0.262124 0.562783
Si Si8 0.828477 0.925733 0.880648
O O1 0.635239 0.961090 0.791397
O O2 0.707444 0.831934 0.660819
O O3 0.773266 0.940912 0.788434
O O4 0.697930 0.040052 0.641930
O O5 0.921929 0.354788 0.930869
O O6 0.001187 0.190381 0.957410
O O7 0.868173 0.196394 0.039277
O O8 0.970177 0.301899 0.114326
O O9 0.035613 0.164516 0.230649
O O10 0.000000 0.000000 0.339139
O O11 0.459858 0.864149 0.268705
O O12 0.597067 0.892005 0.328076
O O13 0.500000 0.000000 0.412577
O O14 0.267003 0.834534 0.032393
O O15 0.172240 0.963879 0.940106
O O16 0.391606 0.787454 0.098269
O O17 0.813371 0.333218 0.460835
#
# Coordination Sequence:
#
# PCOD8185325 Si02
#       8
#     8   8   8   8   8   8   8   8
#     4  10  24  41  63  94 129 170 215 264 321 386
#     4  11  22  41  65  95 124 168 212 266 322 381
#     4  10  22  41  64  92 129 166 215 263 321 385
#     4  11  23  40  67  93 126 167 215 270 324 384
#     4  11  24  40  67  91 125 171 213 262 327 381
#     4  10  23  40  64  94 126 166 214 264 321 382
#     4  10  23  43  63  94 131 170 213 268 320 391
#     4  11  23  43  64  95 130 170 213 270 325 385
#
# _framework density 20.678735
#
# number of rings (size 3 to 8) (size 9 to 14) (size 15 to 20)
#    0.000    1.500    2.500    1.500    3.500    4.000 
#    0.000    0.000    0.000    0.000    0.000    0.000 
#    0.000    0.000    0.000    0.000    0.000    0.000 
#
# Total GULP energy -396609.354831 kJ/mol
# GULP energy per Si atom -12394.042338 kJ/mol
# Density = 2.063167 g / cm^3
# Si number density = 20.678735 Si / 1000 Ang^3
#
#
#
# Elastic Constant Matrix: (Units=GPa)
#
#
# Indices 1 2 3 4 5 6 
#
# 1 108.9276 29.3879 29.5900 0.0000 0.0000 0.0000
# 2 29.3879 78.1972 10.7020 0.0000 0.0000 0.0000
# 3 29.5900 10.7020 71.3815 0.0000 0.0000 0.0000
# 4 0.0000 0.0000 0.0000 20.1010 0.0000 0.0000
# 5 0.0000 0.0000 0.0000 0.0000 38.3648 0.0000
# 6 0.0000 0.0000 0.0000 0.0000 0.0000 39.7991
#
#
#
# Elastic Compliance Matrix: (Units=1/GPa)
#
#
# Indices 1 2 3 4 5 6 
#
# 1 0.011295 -0.003680 -0.004131 0.000000 0.000000 0.000000
# 2 -0.003680 0.014255 -0.000612 0.000000 0.000000 0.000000
# 3 -0.004131 -0.000612 0.015813 0.000000 0.000000 0.000000
# 4 0.000000 0.000000 0.000000 0.049749 0.000000 0.000000
# 5 0.000000 0.000000 0.000000 0.000000 0.026066 0.000000
# 6 0.000000 0.000000 0.000000 0.000000 0.000000 0.025126
#
#
# Mechanical properties :
#
#
# Convention : Reuss Voigt Hill
#
# Bulk Modulus (GPa) = 40.78444 44.20731 42.49588
# Shear Modulus (GPa) = 29.88270 32.24141 31.06205
#
# Velocity S-wave (km/s) = 3.80556 3.95290 3.87993
# Velocity P-wave (km/s) = 6.25104 6.50065 6.37706
#
# Compressibility (1/GPa) = 0.02451915
#
# Stress axis : x y z
#
# Youngs Moduli (GPa) = 88.53313 70.15190 63.23821
#
# Poissons Ratio (x) = 0.25813 0.26121
# Poissons Ratio (y) = 0.32577 0.03869
# Poissons Ratio (z) = 0.36569 0.04292
#
# Static dielectric constant tensor:
#      x y z
#    x 3.820370 0.000000 0.000000 
#    y 0.000000 3.752840 0.000000 
#    z 0.000000 0.000000 3.754470 
# 
# 
# High freq. dielectric constant tensor:
#      x y z
#    x 1.816430 0.000000 0.000000 
#    y 0.000000 1.806590 0.000000 
#    z 0.000000 0.000000 1.814050 
# 
# From -- ./inp_files/8843.got.cif
#   From: 2010.03.12/outbox.cif.g09.slc.cpg/sg41_5_cif.got.tgz:8843.got - 2010.04.14 01:55:53.
