data_PCOD8185931
_publ_section_title
;
Structure prediction by ZEFSAII (Michael W. Deem and Ramdas Pophale) SiO2 
 PCOD8185931
Probable space group: F M M 2
;
_chemical_formula_sum "Si O2"
_cell_formula_units_Z 64
_cell_length_a 8.856711
_cell_length_b 27.315098
_cell_length_c 15.301281
_cell_angle_alpha 90.000000
_cell_angle_beta 90.000000
_cell_angle_gamma 90.000000
_cell_volume 3701.715415
_symmetry_space_group_name_H-M "F M M 2"
_symmetry_group_IT_number 42
_symmetry_cell_setting 'orthorhombic'
loop_
_space_group_symop_operation_xyz
x,y,z
-x,-y,z
-x,y,z
x,-y,z
x,1/2+y,1/2+z
-x,1/2-y,1/2+z
-x,1/2+y,1/2+z
x,1/2-y,1/2+z
1/2+x,y,1/2+z
1/2-x,-y,1/2+z
1/2-x,y,1/2+z
1/2+x,-y,1/2+z
1/2+x,1/2+y,z
1/2-x,1/2-y,z
1/2-x,1/2+y,z
1/2+x,1/2-y,z
loop_
_atom_site_type_symbol
_atom_site_label
_atom_site_fract_x
_atom_site_fract_y
_atom_site_fract_z
Si Si1 0.329231 0.612528 0.797770
Si Si2 0.329093 0.121391 0.488625
Si Si3 0.320792 0.444755 0.145807
Si Si4 0.321708 0.802910 0.882765
O O1 0.500000 0.620706 0.764315
O O2 0.244266 0.574691 0.736345
O O3 0.242380 0.665054 0.800895
O O4 0.328592 0.590778 0.897048
O O5 0.500000 0.137567 0.511830
O O6 0.259800 0.088212 0.565573
O O7 0.228546 0.170474 0.473908
O O8 0.500000 0.443050 0.149974
O O9 0.263119 0.500000 0.131498
O O10 0.500000 0.798922 0.876999
O O11 0.250000 0.750000 0.878009
#
# Coordination Sequence:
#
# PCOD8185931 Si02
#       4
#    16  16  16  16
#     4   9  19  35  54  78 108 140 178 219 263 314
#     4   8  18  35  53  76 109 142 176 216 263 316
#     4  10  20  35  55  79 108 142 179 220 266 313
#     4  10  18  33  57  80 106 139 175 218 267 317
#
# _framework density 17.289280000000002
#
# number of rings (size 3 to 8) (size 9 to 14) (size 15 to 20)
#    1.500    1.250    0.000    2.250    0.000    2.500 
#    0.000    3.750    0.000    6.000    0.000    0.000 
#    0.000    0.000    0.000    0.000    0.000    0.000 
#
# Total GULP energy -198213.365690 kJ/mol
# GULP energy per Si atom -12388.335356 kJ/mol
# Density = 1.724993 g / cm^3
# Si number density = 17.289280 Si / 1000 Ang^3
#
#
#
# Elastic Constant Matrix: (Units=GPa)
#
#
# Indices 1 2 3 4 5 6 
#
# 1 67.5917 53.4536 21.9053 0.0000 0.0000 0.0000
# 2 53.4536 107.9597 29.6135 0.0000 0.0000 0.0000
# 3 21.9053 29.6135 60.3689 0.0000 0.0000 0.0000
# 4 0.0000 0.0000 0.0000 32.0718 0.0000 0.0000
# 5 0.0000 0.0000 0.0000 0.0000 24.7745 0.0000
# 6 0.0000 0.0000 0.0000 0.0000 0.0000 19.1522
#
#
#
# Elastic Compliance Matrix: (Units=1/GPa)
#
#
# Indices 1 2 3 4 5 6 
#
# 1 0.024924 -0.011393 -0.003455 0.000000 0.000000 0.000000
# 2 -0.011393 0.015911 -0.003671 0.000000 0.000000 0.000000
# 3 -0.003455 -0.003671 0.019619 0.000000 0.000000 0.000000
# 4 0.000000 0.000000 0.000000 0.031180 0.000000 0.000000
# 5 0.000000 0.000000 0.000000 0.000000 0.040364 0.000000
# 6 0.000000 0.000000 0.000000 0.000000 0.000000 0.052213
#
#
# Mechanical properties :
#
#
# Convention : Reuss Voigt Hill
#
# Bulk Modulus (GPa) = 42.70549 49.54059 46.12304
# Shear Modulus (GPa) = 21.82883 23.92958 22.87920
#
# Velocity S-wave (km/s) = 3.55711 3.72435 3.64169
# Velocity P-wave (km/s) = 6.45174 6.87099 6.66466
#
# Compressibility (1/GPa) = 0.02341619
#
# Stress axis : x y z
#
# Youngs Moduli (GPa) = 40.12137 62.85141 50.97031
#
# Poissons Ratio (x) = 0.71606 0.17612
# Poissons Ratio (y) = 0.45710 0.18710
# Poissons Ratio (z) = 0.13863 0.23071
#
# Static dielectric constant tensor:
#      x y z
#    x 3.219430 0.000000 0.000000 
#    y 0.000000 3.120840 0.000000 
#    z 0.000000 0.000000 3.072470 
# 
# 
# High freq. dielectric constant tensor:
#      x y z
#    x 1.671560 0.000000 0.000000 
#    y 0.000000 1.654000 0.000000 
#    z 0.000000 0.000000 1.649250 
# 
# From -- ./inp_files/9915.got.cif
#   From: 2010.03.12/outbox.cif.g09.slc.cpg/sg42_5_cif.got.tgz:9915.got - 2010.04.14 02:04:31.
