data_PCOD8185718
_publ_section_title
;
Structure prediction by ZEFSAII (Michael W. Deem and Ramdas Pophale) SiO2 
 PCOD8185718
Probable space group: A B A 2
;
_chemical_formula_sum "Si O2"
_cell_formula_units_Z 48
_cell_length_a 14.380733
_cell_length_b 8.281376
_cell_length_c 17.416590
_cell_angle_alpha 90.000000
_cell_angle_beta 90.000000
_cell_angle_gamma 90.000000
_cell_volume 2074.181015
_symmetry_space_group_name_H-M "A B A 2"
_symmetry_group_IT_number 41
_symmetry_cell_setting 'orthorhombic'
loop_
_space_group_symop_operation_xyz
x,y,z
-x,-y,z
1/2-x,y,1/2+z
1/2+x,-y,1/2+z
x,1/2+y,1/2+z
-x,1/2-y,1/2+z
1/2-x,1/2+y,z
1/2+x,1/2-y,z
loop_
_atom_site_type_symbol
_atom_site_label
_atom_site_fract_x
_atom_site_fract_y
_atom_site_fract_z
Si Si1 0.523561 0.313710 0.333390
Si Si2 0.362574 0.166172 0.247067
Si Si3 0.528009 0.320180 0.995550
Si Si4 0.291344 0.849672 0.323344
Si Si5 0.366467 0.155246 0.070967
Si Si6 0.714965 0.655001 0.494642
O O1 0.500000 0.500000 0.345508
O O2 0.464971 0.236581 0.263620
O O3 0.500621 0.212817 0.408751
O O4 0.632902 0.294064 0.316841
O O5 0.289251 0.309531 0.262562
O O6 0.357871 0.108165 0.159634
O O7 0.339951 0.018212 0.303297
O O8 0.500000 0.500000 0.019114
O O9 0.473215 0.198414 0.052156
O O10 0.638668 0.297294 0.004219
O O11 0.248518 0.860691 0.407662
O O12 0.301338 0.308448 0.050469
O O13 0.333852 0.011197 0.016633
#
# Coordination Sequence:
#
# PCOD8185718 Si02
#       6
#     8   8   8   8   8   8
#     4  12  26  46  74 106 142 190 242 295 355 426
#     4  12  27  46  73 109 148 188 236 300 362 418
#     4  12  26  46  74 106 142 190 242 295 355 426
#     4  12  25  45  75 105 143 192 243 292 352 431
#     4  12  27  46  73 109 148 188 236 300 362 418
#     4  12  25  45  75 105 143 192 243 292 352 431
#
# _framework density 23.141666000000001
#
# number of rings (size 3 to 8) (size 9 to 14) (size 15 to 20)
#    0.000    0.000    3.333    7.000    0.000    4.667 
#    0.000    0.000    0.000    0.000    0.000    0.000 
#    0.000    0.000    0.000    0.000    0.000    0.000 
#
# Total GULP energy -297821.305109 kJ/mol
# GULP energy per Si atom -12409.221046 kJ/mol
# Density = 2.308899 g / cm^3
# Si number density = 23.141666 Si / 1000 Ang^3
#
#
#
# Elastic Constant Matrix: (Units=GPa)
#
#
# Indices 1 2 3 4 5 6 
#
# 1 123.6742 21.4453 60.4892 0.0000 0.0000 0.0000
# 2 21.4453 103.0941 25.2713 0.0000 0.0000 0.0000
# 3 60.4892 25.2713 122.0211 0.0000 0.0000 0.0000
# 4 0.0000 0.0000 0.0000 21.0812 0.0000 0.0000
# 5 0.0000 0.0000 0.0000 0.0000 35.3804 0.0000
# 6 0.0000 0.0000 0.0000 0.0000 0.0000 41.8031
#
#
#
# Elastic Compliance Matrix: (Units=1/GPa)
#
#
# Indices 1 2 3 4 5 6 
#
# 1 0.010767 -0.000981 -0.005134 0.000000 0.000000 0.000000
# 2 -0.000981 0.010308 -0.001648 0.000000 0.000000 0.000000
# 3 -0.005134 -0.001648 0.011082 0.000000 0.000000 0.000000
# 4 0.000000 0.000000 0.000000 0.047436 0.000000 0.000000
# 5 0.000000 0.000000 0.000000 0.000000 0.028264 0.000000
# 6 0.000000 0.000000 0.000000 0.000000 0.000000 0.023922
#
#
# Mechanical properties :
#
#
# Convention : Reuss Voigt Hill
#
# Bulk Modulus (GPa) = 60.13532 62.57788 61.35660
# Shear Modulus (GPa) = 32.71188 35.75851 34.23520
#
# Velocity S-wave (km/s) = 3.76380 3.93517 3.85044
# Velocity P-wave (km/s) = 6.70301 6.90994 6.80726
#
# Compressibility (1/GPa) = 0.01662916
#
# Stress axis : x y z
#
# Youngs Moduli (GPa) = 92.87538 97.01142 90.23681
#
# Poissons Ratio (x) = 0.09518 0.46331
# Poissons Ratio (y) = 0.09113 0.14875
# Poissons Ratio (z) = 0.47685 0.15992
#
# Static dielectric constant tensor:
#      x y z
#    x 4.747930 0.000000 0.000000 
#    y 0.000000 4.111060 0.000000 
#    z 0.000000 0.000000 3.929150 
# 
# 
# High freq. dielectric constant tensor:
#      x y z
#    x 1.937620 0.000000 0.000000 
#    y 0.000000 1.922860 0.000000 
#    z 0.000000 0.000000 1.900180 
# 
# From -- ./inp_files/10292.got.cif
#   From: 2010.03.12/outbox.cif.g09.slc.cpg/sg41_6_cif.got.tgz:10292.got - 2010.04.14 01:55:53.
