data_PCOD8185129
_publ_section_title
;
Structure prediction by ZEFSAII (Michael W. Deem and Ramdas Pophale) SiO2 
 PCOD8185129
Probable space group: A B A 2
;
_chemical_formula_sum "Si O2"
_cell_formula_units_Z 64
_cell_length_a 19.096458
_cell_length_b 9.310770
_cell_length_c 17.489967
_cell_angle_alpha 90.000000
_cell_angle_beta 90.000000
_cell_angle_gamma 90.000000
_cell_volume 3109.763850
_symmetry_space_group_name_H-M "A B A 2"
_symmetry_group_IT_number 41
_symmetry_cell_setting 'orthorhombic'
loop_
_space_group_symop_operation_xyz
x,y,z
-x,-y,z
1/2-x,y,1/2+z
1/2+x,-y,1/2+z
x,1/2+y,1/2+z
-x,1/2-y,1/2+z
1/2-x,1/2+y,z
1/2+x,1/2-y,z
loop_
_atom_site_type_symbol
_atom_site_label
_atom_site_fract_x
_atom_site_fract_y
_atom_site_fract_z
Si Si1 0.250269 0.298002 0.718000
Si Si2 0.060250 0.898919 0.846364
Si Si3 0.343299 0.296468 0.981505
Si Si4 0.386132 0.363566 0.138563
Si Si5 0.874344 0.316716 0.616732
Si Si6 0.309675 0.547795 0.807250
Si Si7 0.505514 0.170055 0.192991
Si Si8 0.781923 0.902067 0.976043
O O1 0.196173 0.370980 0.660074
O O2 0.320642 0.253261 0.675879
O O3 0.266632 0.399654 0.791108
O O4 0.210744 0.154387 0.741101
O O5 0.106860 0.808854 0.906854
O O6 0.108491 0.013851 0.801715
O O7 0.032424 0.793749 0.779557
O O8 0.000000 0.000000 0.885206
O O9 0.297916 0.150610 0.987999
O O10 0.287075 0.426460 0.986766
O O11 0.395105 0.301957 0.053004
O O12 0.406690 0.530427 0.142691
O O13 0.433371 0.260144 0.190196
O O14 0.942970 0.217235 0.623551
O O15 0.838727 0.325236 0.532300
O O16 0.297072 0.627359 0.887538
O O17 0.500000 0.000000 0.183435
#
# Coordination Sequence:
#
# PCOD8185129 Si02
#       8
#     8   8   8   8   8   8   8   8
#     4  12  21  38  61  96 127 163 214 273 316 382
#     4  10  21  39  61  88 122 169 210 262 325 397
#     4  10  22  39  64  94 127 169 211 273 329 401
#     4  11  24  39  64  97 130 171 214 268 333 390
#     4  11  23  41  63  91 133 165 215 273 326 389
#     4  11  22  37  63  91 126 165 214 262 326 385
#     4  11  24  42  65  94 128 174 218 270 328 404
#     4  10  22  39  61  93 124 165 211 264 330 381
#
# _framework density 20.58034
#
# number of rings (size 3 to 8) (size 9 to 14) (size 15 to 20)
#    0.000    1.250    3.750    3.375    0.000    4.000 
#    0.000    0.000    0.000    1.500    0.000    0.000 
#    0.000    0.000    0.000    0.000    0.000    0.000 
#
# Total GULP energy -396495.346438 kJ/mol
# GULP energy per Si atom -12390.479576 kJ/mol
# Density = 2.053350 g / cm^3
# Si number density = 20.580340 Si / 1000 Ang^3
#
#
#
# Elastic Constant Matrix: (Units=GPa)
#
#
# Indices 1 2 3 4 5 6 
#
# 1 99.7843 43.2351 34.4824 0.0000 0.0000 0.0000
# 2 43.2351 84.6864 38.7441 0.0000 0.0000 0.0000
# 3 34.4824 38.7441 103.5335 0.0000 0.0000 0.0000
# 4 0.0000 0.0000 0.0000 29.1218 0.0000 0.0000
# 5 0.0000 0.0000 0.0000 0.0000 36.8462 0.0000
# 6 0.0000 0.0000 0.0000 0.0000 0.0000 39.7981
#
#
#
# Elastic Compliance Matrix: (Units=1/GPa)
#
#
# Indices 1 2 3 4 5 6 
#
# 1 0.013299 -0.005747 -0.002279 0.000000 0.000000 0.000000
# 2 -0.005747 0.016731 -0.004347 0.000000 0.000000 0.000000
# 3 -0.002279 -0.004347 0.012044 0.000000 0.000000 0.000000
# 4 0.000000 0.000000 0.000000 0.034339 0.000000 0.000000
# 5 0.000000 0.000000 0.000000 0.000000 0.027140 0.000000
# 6 0.000000 0.000000 0.000000 0.000000 0.000000 0.025127
#
#
# Mechanical properties :
#
#
# Convention : Reuss Voigt Hill
#
# Bulk Modulus (GPa) = 57.70655 57.88084 57.79369
# Shear Modulus (GPa) = 31.40666 32.58940 31.99803
#
# Velocity S-wave (km/s) = 3.91071 3.98366 3.94736
# Velocity P-wave (km/s) = 6.96362 7.02459 6.99417
#
# Compressibility (1/GPa) = 0.01732906
#
# Stress axis : x y z
#
# Youngs Moduli (GPa) = 75.19235 59.76886 83.02655
#
# Poissons Ratio (x) = 0.34350 0.18919
# Poissons Ratio (y) = 0.43214 0.36091
# Poissons Ratio (z) = 0.17134 0.25981
#
# Static dielectric constant tensor:
#      x y z
#    x 3.799180 0.000000 0.000000 
#    y 0.000000 3.675210 0.000000 
#    z 0.000000 0.000000 3.791900 
# 
# 
# High freq. dielectric constant tensor:
#      x y z
#    x 1.807840 0.000000 0.000000 
#    y 0.000000 1.795450 0.000000 
#    z 0.000000 0.000000 1.805880 
# 
# From -- ./inp_files/10680.got.cif
#   From: 2010.03.12/outbox.cif.g09.slc.cpg/sg41_6_cif.got.tgz:10680.got - 2010.04.14 01:55:53.
