data_PCOD8185188
_publ_section_title
;
Structure prediction by ZEFSAII (Michael W. Deem and Ramdas Pophale) SiO2 
 PCOD8185188
Probable space group: A B A 2
;
_chemical_formula_sum "Si O2"
_cell_formula_units_Z 64
_cell_length_a 17.582466
_cell_length_b 13.919525
_cell_length_c 12.711251
_cell_angle_alpha 90.000000
_cell_angle_beta 90.000000
_cell_angle_gamma 90.000000
_cell_volume 3110.946168
_symmetry_space_group_name_H-M "A B A 2"
_symmetry_group_IT_number 41
_symmetry_cell_setting 'orthorhombic'
loop_
_space_group_symop_operation_xyz
x,y,z
-x,-y,z
1/2-x,y,1/2+z
1/2+x,-y,1/2+z
x,1/2+y,1/2+z
-x,1/2-y,1/2+z
1/2-x,1/2+y,z
1/2+x,1/2-y,z
loop_
_atom_site_type_symbol
_atom_site_label
_atom_site_fract_x
_atom_site_fract_y
_atom_site_fract_z
Si Si1 0.292039 0.465346 0.212490
Si Si2 0.638190 0.337553 0.148022
Si Si3 0.568945 0.334811 0.593748
Si Si4 0.128221 0.963603 0.641702
Si Si5 0.047544 0.737606 0.457502
Si Si6 0.677399 0.633553 0.424927
Si Si7 0.217434 0.780309 0.073597
Si Si8 0.039133 0.803190 0.763103
O O1 0.346078 0.551445 0.173781
O O2 0.204650 0.497956 0.201316
O O3 0.309337 0.445118 0.335314
O O4 0.308399 0.370164 0.144876
O O5 0.715683 0.278098 0.131773
O O6 0.593544 0.289526 0.246298
O O7 0.585263 0.333364 0.043509
O O8 0.576997 0.447306 0.611319
O O9 0.500888 0.322561 0.510858
O O10 0.646602 0.288367 0.553992
O O11 0.540028 0.285876 0.701160
O O12 0.150307 0.909247 0.535840
O O13 0.081715 0.897346 0.721671
O O14 0.114054 0.788920 0.389341
O O15 0.987672 0.681259 0.383350
O O16 0.756505 0.686532 0.456287
#
# Coordination Sequence:
#
# PCOD8185188 Si02
#       8
#     8   8   8   8   8   8   8   8
#     4  11  22  41  66  95 130 169 216 276 334 376
#     4  10  21  44  63  93 135 167 223 276 322 405
#     4  11  22  40  67  91 130 175 217 267 333 393
#     4  11  22  42  64  98 133 168 222 276 319 401
#     4  10  23  42  67  93 132 181 220 271 341 392
#     4  10  22  42  62  96 132 171 228 276 318 400
#     4  10  21  41  63  95 131 166 219 277 319 396
#     4  11  22  42  63  97 133 170 219 277 334 395
#
# _framework density 20.572519
#
# number of rings (size 3 to 8) (size 9 to 14) (size 15 to 20)
#    0.000    1.500    6.250    1.125    3.500    0.000 
#    4.500    6.250    0.000    0.000    0.000    0.000 
#    0.000    0.000    0.000    0.000    0.000    0.000 
#
# Total GULP energy -396675.013494 kJ/mol
# GULP energy per Si atom -12396.094172 kJ/mol
# Density = 2.052569 g / cm^3
# Si number density = 20.572519 Si / 1000 Ang^3
#
#
#
# Elastic Constant Matrix: (Units=GPa)
#
#
# Indices 1 2 3 4 5 6 
#
# 1 112.9112 47.5720 48.1599 0.0000 0.0000 0.0000
# 2 47.5720 115.7937 52.0084 0.0000 0.0000 0.0000
# 3 48.1599 52.0084 83.0553 0.0000 0.0000 0.0000
# 4 0.0000 0.0000 0.0000 24.5136 0.0000 0.0000
# 5 0.0000 0.0000 0.0000 0.0000 30.8644 0.0000
# 6 0.0000 0.0000 0.0000 0.0000 0.0000 -18.0882
#
#
#
# Elastic Compliance Matrix: (Units=1/GPa)
#
#
# Indices 1 2 3 4 5 6 
#
# 1 0.012294 -0.002572 -0.005518 0.000000 0.000000 0.000000
# 2 -0.002572 0.012554 -0.006369 0.000000 0.000000 0.000000
# 3 -0.005518 -0.006369 0.019228 0.000000 0.000000 0.000000
# 4 0.000000 0.000000 0.000000 0.040794 0.000000 0.000000
# 5 0.000000 0.000000 0.000000 0.000000 0.032400 0.000000
# 6 0.000000 0.000000 0.000000 0.000000 0.000000 -0.055285
#
#
# Mechanical properties :
#
#
# Convention : Reuss Voigt Hill
#
# Bulk Modulus (GPa) = 65.97846 67.47122 66.72484
# Shear Modulus (GPa) = 52.10734 18.39262 35.24998
#
# Velocity S-wave (km/s) = 5.03821 2.99329 4.14387
# Velocity P-wave (km/s) = 8.12315 6.69435 7.44312
#
# Compressibility (1/GPa) = 0.01515646
#
# Stress axis : x y z
#
# Youngs Moduli (GPa) = 81.34161 79.65804 52.00718
#
# Poissons Ratio (x) = 0.20491 0.28697
# Poissons Ratio (y) = 0.20924 0.33125
# Poissons Ratio (z) = 0.44883 0.50737
#
# Static dielectric constant tensor:
#      x y z
#    x 4.147140 0.000000 0.000000 
#    y 0.000000 3.596620 0.000000 
#    z 0.000000 0.000000 3.705470 
# 
# 
# High freq. dielectric constant tensor:
#      x y z
#    x 1.824850 0.000000 0.000000 
#    y 0.000000 1.791530 0.000000 
#    z 0.000000 0.000000 1.792280 
# 
# From -- ./inp_files/6055.got.cif
#   From: 2010.03.12/outbox.cif.g09.slc.cpg/sg41_4_cif.got.tgz:6055.got - 2010.04.14 01:55:53.
