data_PCOD8185310
_publ_section_title
;
Structure prediction by ZEFSAII (Michael W. Deem and Ramdas Pophale) SiO2 
 PCOD8185310
Probable space group: A B A 2
;
_chemical_formula_sum "Si O2"
_cell_formula_units_Z 36
_cell_length_a 22.237546
_cell_length_b 12.014364
_cell_length_c 4.853667
_cell_angle_alpha 90.000000
_cell_angle_beta 90.000000
_cell_angle_gamma 90.000000
_cell_volume 1296.754077
_symmetry_space_group_name_H-M "A B A 2"
_symmetry_group_IT_number 41
_symmetry_cell_setting 'orthorhombic'
loop_
_space_group_symop_operation_xyz
x,y,z
-x,-y,z
1/2-x,y,1/2+z
1/2+x,-y,1/2+z
x,1/2+y,1/2+z
-x,1/2-y,1/2+z
1/2-x,1/2+y,z
1/2+x,1/2-y,z
loop_
_atom_site_type_symbol
_atom_site_label
_atom_site_fract_x
_atom_site_fract_y
_atom_site_fract_z
Si Si1 0.531251 0.706203 0.813240
Si Si2 0.884931 0.886939 0.352492
Si Si3 0.500000 0.000000 0.679832
Si Si4 0.791605 0.787307 0.705502
Si Si5 0.790587 0.536444 0.590896
O O1 0.498215 0.700093 0.519161
O O2 0.597187 0.760869 0.749641
O O3 0.528835 0.590757 0.972468
O O4 0.847798 0.869207 0.636825
O O5 0.844108 0.949744 0.131559
O O6 0.945965 0.959597 0.378114
O O7 0.767461 0.810127 0.013134
O O8 0.813605 0.661018 0.654615
O O9 0.768336 0.515156 0.279960
#
# Coordination Sequence:
#
# PCOD8185310 Si02
#       5
#     8   8   4   8   8
#     4  10  24  43  64  92 128 173 222 271 329 396
#     4  11  22  42  66  95 132 176 223 279 336 401
#     4  10  24  44  66  96 134 180 230 278 336 404
#     4  10  22  40  63  94 129 169 219 275 340 406
#     4  10  22  40  66  98 130 170 219 275 339 401
#
# _framework density 27.761627000000001
#
# number of rings (size 3 to 8) (size 9 to 14) (size 15 to 20)
#    0.000    1.778    0.000    2.667    0.000   10.667 
#    0.000   17.778    0.000    0.000    0.000    0.000 
#    0.000    0.000    0.000    0.000    0.000    0.000 
#
# Total GULP energy -223017.048849 kJ/mol
# GULP energy per Si atom -12389.836047 kJ/mol
# Density = 2.769844 g / cm^3
# Si number density = 27.761627 Si / 1000 Ang^3
#
#
#
# Elastic Constant Matrix: (Units=GPa)
#
#
# Indices 1 2 3 4 5 6 
#
# 1 135.5423 88.7425 26.3428 0.0000 0.0000 0.0000
# 2 88.7425 115.6982 4.5846 0.0000 0.0000 0.0000
# 3 26.3428 4.5846 97.5060 0.0000 0.0000 0.0000
# 4 0.0000 0.0000 0.0000 53.0675 0.0000 0.0000
# 5 0.0000 0.0000 0.0000 0.0000 20.3315 0.0000
# 6 0.0000 0.0000 0.0000 0.0000 0.0000 53.8145
#
#
#
# Elastic Compliance Matrix: (Units=1/GPa)
#
#
# Indices 1 2 3 4 5 6 
#
# 1 0.016097 -0.012197 -0.003775 0.000000 0.000000 0.000000
# 2 -0.012197 0.017902 0.002454 0.000000 0.000000 0.000000
# 3 -0.003775 0.002454 0.011160 0.000000 0.000000 0.000000
# 4 0.000000 0.000000 0.000000 0.018844 0.000000 0.000000
# 5 0.000000 0.000000 0.000000 0.000000 0.049185 0.000000
# 6 0.000000 0.000000 0.000000 0.000000 0.000000 0.018582
#
#
# Mechanical properties :
#
#
# Convention : Reuss Voigt Hill
#
# Bulk Modulus (GPa) = 55.18487 65.34292 60.26390
# Shear Modulus (GPa) = 30.33070 40.71447 35.52259
#
# Velocity S-wave (km/s) = 3.30895 3.83374 3.58097
# Velocity P-wave (km/s) = 5.87538 6.57153 6.23318
#
# Compressibility (1/GPa) = 0.01812091
#
# Stress axis : x y z
#
# Youngs Moduli (GPa) = 62.12154 55.86092 89.60231
#
# Poissons Ratio (x) = 0.68136 0.33829
# Poissons Ratio (y) = 0.75772 -0.21985
# Poissons Ratio (z) = 0.23454 -0.13706
#
# Static dielectric constant tensor:
#      x y z
#    x 4.956730 0.000000 0.000000 
#    y 0.000000 5.755530 0.000000 
#    z 0.000000 0.000000 4.682860 
# 
# 
# High freq. dielectric constant tensor:
#      x y z
#    x 2.112200 0.000000 0.000000 
#    y 0.000000 2.158880 0.000000 
#    z 0.000000 0.000000 2.109680 
# 
# From -- ./inp_files/655.got.cif
#   From: 2010.03.12/outbox.cif.g09.slc.cpg/sg41_1_cif.got.tgz:655.got - 2010.04.14 01:55:53.
