data_PCOD8185502
_publ_section_title
;
Structure prediction by ZEFSAII (Michael W. Deem and Ramdas Pophale) SiO2 
 PCOD8185502
Probable space group: A B A 2
;
_chemical_formula_sum "Si O2"
_cell_formula_units_Z 44
_cell_length_a 11.524895
_cell_length_b 17.535466
_cell_length_c 8.984824
_cell_angle_alpha 90.000000
_cell_angle_beta 90.000000
_cell_angle_gamma 90.000000
_cell_volume 1815.782655
_symmetry_space_group_name_H-M "A B A 2"
_symmetry_group_IT_number 41
_symmetry_cell_setting 'orthorhombic'
loop_
_space_group_symop_operation_xyz
x,y,z
-x,-y,z
1/2-x,y,1/2+z
1/2+x,-y,1/2+z
x,1/2+y,1/2+z
-x,1/2-y,1/2+z
1/2-x,1/2+y,z
1/2+x,1/2-y,z
loop_
_atom_site_type_symbol
_atom_site_label
_atom_site_fract_x
_atom_site_fract_y
_atom_site_fract_z
Si Si1 0.111685 0.425833 0.365760
Si Si2 0.875848 0.930621 0.040485
Si Si3 0.221284 0.709070 0.990762
Si Si4 0.500000 0.500000 0.600804
Si Si5 0.958012 0.887520 0.346239
Si Si6 0.191169 0.311790 0.774533
O O1 0.170434 0.487657 0.478998
O O2 0.189998 0.352597 0.331128
O O3 0.986032 0.404039 0.438101
O O4 0.100324 0.466289 0.205583
O O5 0.771919 0.870253 0.048718
O O6 0.907112 0.939530 0.214214
O O7 0.192252 0.773904 0.112088
O O8 0.110915 0.690857 0.883276
O O9 0.324282 0.742712 0.889384
O O10 0.549665 0.433207 0.499072
O O11 0.086531 0.869793 0.288757
#
# Coordination Sequence:
#
# PCOD8185502 Si02
#       6
#     8   8   8   4   8   8
#     4  10  25  50  79 110 151 193 251 315 372 449
#     4  10  24  49  76 108 150 197 248 305 374 448
#     4  12  28  46  76 108 150 202 245 310 374 461
#     4  10  24  44  76 112 142 192 246 314 360 452
#     4  12  27  46  75 111 150 196 255 304 385 441
#     4  12  28  48  76 109 152 195 247 313 378 451
#
# _framework density 24.231977000000001
#
# number of rings (size 3 to 8) (size 9 to 14) (size 15 to 20)
#    0.000    1.091    1.818    3.273   12.727    0.000 
#    3.273    0.000    0.000    0.000    0.000    0.000 
#    0.000    0.000    0.000    0.000    0.000    0.000 
#
# Total GULP energy -272619.396341 kJ/mol
# GULP energy per Si atom -12391.790743 kJ/mol
# Density = 2.417682 g / cm^3
# Si number density = 24.231977 Si / 1000 Ang^3
#
#
#
# Elastic Constant Matrix: (Units=GPa)
#
#
# Indices 1 2 3 4 5 6 
#
# 1 69.6129 30.3400 26.1956 0.0000 0.0000 0.0000
# 2 30.3400 95.7892 46.6152 0.0000 0.0000 0.0000
# 3 26.1956 46.6152 182.1474 0.0000 0.0000 0.0000
# 4 0.0000 0.0000 0.0000 54.9083 0.0000 0.0000
# 5 0.0000 0.0000 0.0000 0.0000 22.3773 0.0000
# 6 0.0000 0.0000 0.0000 0.0000 0.0000 25.7326
#
#
#
# Elastic Compliance Matrix: (Units=1/GPa)
#
#
# Indices 1 2 3 4 5 6 
#
# 1 0.016897 -0.004762 -0.001211 0.000000 0.000000 0.000000
# 2 -0.004762 0.013267 -0.002710 0.000000 0.000000 0.000000
# 3 -0.001211 -0.002710 0.006358 0.000000 0.000000 0.000000
# 4 0.000000 0.000000 0.000000 0.018212 0.000000 0.000000
# 5 0.000000 0.000000 0.000000 0.000000 0.044688 0.000000
# 6 0.000000 0.000000 0.000000 0.000000 0.000000 0.038861
#
#
# Mechanical properties :
#
#
# Convention : Reuss Voigt Hill
#
# Bulk Modulus (GPa) = 52.20964 61.53903 56.87433
# Shear Modulus (GPa) = 30.85747 36.89688 33.87717
#
# Velocity S-wave (km/s) = 3.57237 3.90635 3.74309
# Velocity P-wave (km/s) = 6.21356 6.76735 6.49636
#
# Compressibility (1/GPa) = 0.01915355
#
# Stress axis : x y z
#
# Youngs Moduli (GPa) = 59.18370 75.37502 157.28475
#
# Poissons Ratio (x) = 0.35896 0.19050
# Poissons Ratio (y) = 0.28185 0.42630
# Poissons Ratio (z) = 0.07168 0.20430
#
# Static dielectric constant tensor:
#      x y z
#    x 4.114950 0.000000 0.000000 
#    y 0.000000 4.436780 0.000000 
#    z 0.000000 0.000000 4.547370 
# 
# 
# High freq. dielectric constant tensor:
#      x y z
#    x 1.945190 0.000000 0.000000 
#    y 0.000000 1.969340 0.000000 
#    z 0.000000 0.000000 1.983910 
# 
# From -- ./inp_files/2485.got.cif
#   From: 2010.03.12/outbox.cif.g09.slc.cpg/sg41_2_cif.got.tgz:2485.got - 2010.04.14 01:55:53.
