data_PCOD8185108
_publ_section_title
;
Structure prediction by ZEFSAII (Michael W. Deem and Ramdas Pophale) SiO2 
 PCOD8185108
Probable space group: A B A 2
;
_chemical_formula_sum "Si O2"
_cell_formula_units_Z 40
_cell_length_a 4.873876
_cell_length_b 11.249370
_cell_length_c 28.250703
_cell_angle_alpha 90.000000
_cell_angle_beta 90.000000
_cell_angle_gamma 90.000000
_cell_volume 1548.930518
_symmetry_space_group_name_H-M "A B A 2"
_symmetry_group_IT_number 41
_symmetry_cell_setting 'orthorhombic'
loop_
_space_group_symop_operation_xyz
x,y,z
-x,-y,z
1/2-x,y,1/2+z
1/2+x,-y,1/2+z
x,1/2+y,1/2+z
-x,1/2-y,1/2+z
1/2-x,1/2+y,z
1/2+x,1/2-y,z
loop_
_atom_site_type_symbol
_atom_site_label
_atom_site_fract_x
_atom_site_fract_y
_atom_site_fract_z
Si Si1 0.280210 0.832918 0.416190
Si Si2 0.664288 0.673608 0.315456
Si Si3 0.713254 0.667094 0.212491
Si Si4 0.000000 0.000000 0.486715
Si Si5 0.783756 0.830500 0.564943
Si Si6 0.000000 0.500000 0.143294
O O1 0.586467 0.783202 0.422255
O O2 0.239806 0.895317 0.364136
O O3 0.224842 0.932517 0.455185
O O4 0.341928 0.704115 0.316435
O O5 0.737227 0.609143 0.265640
O O6 0.411386 0.719709 0.204775
O O7 0.771297 0.563364 0.175417
O O8 0.167841 0.092856 0.518264
O O9 0.468529 0.788771 0.564879
O O10 0.835978 0.905788 0.611866
#
# Coordination Sequence:
#
# PCOD8185108 Si02
#       6
#     8   8   8   4   8   4
#     4  10  21  38  60  89 124 161 204 253 304 366
#     4   8  16  34  56  80 118 158 192 242 300 350
#     4  10  21  38  60  89 124 161 204 253 304 366
#     4  11  24  40  68  94 122 168 214 259 320 376
#     4  11  26  45  64  92 128 163 208 267 324 382
#     4  11  24  40  68  94 122 168 214 259 320 376
#
# _framework density 25.824268
#
# number of rings (size 3 to 8) (size 9 to 14) (size 15 to 20)
#    0.000    2.000    0.000    2.400    0.000    8.000 
#    0.000   12.000    0.000    0.000    0.000    0.000 
#    0.000    0.000    0.000    0.000    0.000    0.000 
#
# Total GULP energy -247988.638003 kJ/mol
# GULP energy per Si atom -12399.431900 kJ/mol
# Density = 2.576549 g / cm^3
# Si number density = 25.824268 Si / 1000 Ang^3
#
#
#
# Elastic Constant Matrix: (Units=GPa)
#
#
# Indices 1 2 3 4 5 6 
#
# 1 66.8192 3.2621 1.6652 0.0000 0.0000 0.0000
# 2 3.2621 83.5149 54.8355 0.0000 0.0000 0.0000
# 3 1.6652 54.8355 195.2008 0.0000 0.0000 0.0000
# 4 0.0000 0.0000 0.0000 78.4511 0.0000 0.0000
# 5 0.0000 0.0000 0.0000 0.0000 31.1213 0.0000
# 6 0.0000 0.0000 0.0000 0.0000 0.0000 16.0515
#
#
#
# Elastic Compliance Matrix: (Units=1/GPa)
#
#
# Indices 1 2 3 4 5 6 
#
# 1 0.014995 -0.000615 0.000045 0.000000 0.000000 0.000000
# 2 -0.000615 0.014707 -0.004126 0.000000 0.000000 0.000000
# 3 0.000045 -0.004126 0.006282 0.000000 0.000000 0.000000
# 4 0.000000 0.000000 0.000000 0.012747 0.000000 0.000000
# 5 0.000000 0.000000 0.000000 0.000000 0.032132 0.000000
# 6 0.000000 0.000000 0.000000 0.000000 0.000000 0.062300
#
#
# Mechanical properties :
#
#
# Convention : Reuss Voigt Hill
#
# Bulk Modulus (GPa) = 37.60742 51.67338 44.64040
# Shear Modulus (GPa) = 30.97530 44.17625 37.57578
#
# Velocity S-wave (km/s) = 3.46709 4.14049 3.81866
# Velocity P-wave (km/s) = 5.53372 6.55067 6.06355
#
# Compressibility (1/GPa) = 0.02659050
#
# Stress axis : x y z
#
# Youngs Moduli (GPa) = 66.69031 67.99372 159.19275
#
# Poissons Ratio (x) = 0.04183 -0.00715
# Poissons Ratio (y) = 0.04103 0.65687
# Poissons Ratio (z) = -0.00299 0.28056
#
# Static dielectric constant tensor:
#      x y z
#    x 4.515720 0.000000 0.000000 
#    y 0.000000 4.142890 0.000000 
#    z 0.000000 0.000000 5.266010 
# 
# 
# High freq. dielectric constant tensor:
#      x y z
#    x 2.037640 0.000000 0.000000 
#    y 0.000000 1.994050 0.000000 
#    z 0.000000 0.000000 2.064980 
# 
# From -- ./inp_files/12360.got.cif
#   From: 2010.03.12/outbox.cif.g09.slc.cpg/sg41_7_cif.got.tgz:12360.got - 2010.04.14 01:55:53.
