data_PCOD8185730
_publ_section_title
;
Structure prediction by ZEFSAII (Michael W. Deem and Ramdas Pophale) SiO2 
 PCOD8185730
Probable space group: A B A 2
;
_chemical_formula_sum "Si O2"
_cell_formula_units_Z 56
_cell_length_a 14.723696
_cell_length_b 11.224343
_cell_length_c 14.037300
_cell_angle_alpha 90.000000
_cell_angle_beta 90.000000
_cell_angle_gamma 90.000000
_cell_volume 2319.857738
_symmetry_space_group_name_H-M "A B A 2"
_symmetry_group_IT_number 41
_symmetry_cell_setting 'orthorhombic'
loop_
_space_group_symop_operation_xyz
x,y,z
-x,-y,z
1/2-x,y,1/2+z
1/2+x,-y,1/2+z
x,1/2+y,1/2+z
-x,1/2-y,1/2+z
1/2-x,1/2+y,z
1/2+x,1/2-y,z
loop_
_atom_site_type_symbol
_atom_site_label
_atom_site_fract_x
_atom_site_fract_y
_atom_site_fract_z
Si Si1 0.000000 0.500000 0.985461
Si Si2 0.091740 0.332011 0.311903
Si Si3 0.737840 0.323278 0.871030
Si Si4 0.807780 0.987559 0.218861
Si Si5 0.433700 0.833520 0.824056
Si Si6 0.000000 0.000000 0.959815
Si Si7 0.144993 0.164151 0.054869
Si Si8 0.642196 0.076723 0.116839
O O1 0.977599 0.611833 0.919207
O O2 0.912008 0.476516 0.054671
O O3 0.184921 0.270902 0.345866
O O4 0.101480 0.417865 0.222178
O O5 0.018726 0.233432 0.277642
O O6 0.063064 0.414650 0.398455
O O7 0.751708 0.446447 0.812403
O O8 0.640644 0.265995 0.847306
O O9 0.730894 0.358545 0.982939
O O10 0.836842 0.866819 0.165515
O O11 0.892807 0.067864 0.252027
O O12 0.748906 0.052810 0.136144
O O13 0.059149 0.086198 0.025228
O O14 0.126560 0.304559 0.055262
#
# Coordination Sequence:
#
# PCOD8185730 Si02
#       8
#     4   8   8   8   8   4   8   8
#     4  12  27  45  78 110 156 202 268 326 404 466
#     4  12  26  50  79 110 156 205 259 326 396 476
#     4  12  26  51  76 109 157 199 264 326 393 480
#     4  12  28  49  79 110 159 208 257 334 404 475
#     4  12  27  50  74 112 152 208 258 326 399 474
#     4  12  27  47  78 108 154 208 248 330 394 474
#     4  12  28  48  75 115 150 198 265 314 400 476
#     4  12  27  49  73 120 147 204 267 323 394 490
#
# _framework density 24.139413000000001
#
# number of rings (size 3 to 8) (size 9 to 14) (size 15 to 20)
#    0.000    0.000    5.714    2.143   10.000    0.000 
#    0.000    0.000    0.000    0.000    0.000    0.000 
#    0.000    0.000    0.000    0.000    0.000    0.000 
#
# Total GULP energy -347085.179590 kJ/mol
# GULP energy per Si atom -12395.899271 kJ/mol
# Density = 2.408447 g / cm^3
# Si number density = 24.139413 Si / 1000 Ang^3
#
#
#
# Elastic Constant Matrix: (Units=GPa)
#
#
# Indices 1 2 3 4 5 6 
#
# 1 111.7822 20.0355 37.7499 0.0000 0.0000 0.0000
# 2 20.0355 67.7029 17.9428 0.0000 0.0000 0.0000
# 3 37.7499 17.9428 108.0809 0.0000 0.0000 0.0000
# 4 0.0000 0.0000 0.0000 38.3234 0.0000 0.0000
# 5 0.0000 0.0000 0.0000 0.0000 29.4321 0.0000
# 6 0.0000 0.0000 0.0000 0.0000 0.0000 44.9144
#
#
#
# Elastic Compliance Matrix: (Units=1/GPa)
#
#
# Indices 1 2 3 4 5 6 
#
# 1 0.010453 -0.002224 -0.003282 0.000000 0.000000 0.000000
# 2 -0.002224 0.015923 -0.001867 0.000000 0.000000 0.000000
# 3 -0.003282 -0.001867 0.010708 0.000000 0.000000 0.000000
# 4 0.000000 0.000000 0.000000 0.026094 0.000000 0.000000
# 5 0.000000 0.000000 0.000000 0.000000 0.033976 0.000000
# 6 0.000000 0.000000 0.000000 0.000000 0.000000 0.022265
#
#
# Mechanical properties :
#
#
# Convention : Reuss Voigt Hill
#
# Bulk Modulus (GPa) = 44.76244 48.78028 46.77136
# Shear Modulus (GPa) = 35.30817 36.65649 35.98233
#
# Velocity S-wave (km/s) = 3.82865 3.90106 3.86502
# Velocity P-wave (km/s) = 6.17481 6.36731 6.27180
#
# Compressibility (1/GPa) = 0.02234016
#
# Stress axis : x y z
#
# Youngs Moduli (GPa) = 95.66818 62.80152 93.38401
#
# Poissons Ratio (x) = 0.13964 0.30646
# Poissons Ratio (y) = 0.21273 0.17433
# Poissons Ratio (z) = 0.31396 0.11724
#
# Static dielectric constant tensor:
#      x y z
#    x 4.506270 0.000000 0.000000 
#    y 0.000000 4.356970 0.000000 
#    z 0.000000 0.000000 4.581060 
# 
# 
# High freq. dielectric constant tensor:
#      x y z
#    x 1.962500 0.000000 0.000000 
#    y 0.000000 1.959330 0.000000 
#    z 0.000000 0.000000 1.972350 
# 
# From -- ./inp_files/8412.got.cif
#   From: 2010.03.12/outbox.cif.g09.slc.cpg/sg41_5_cif.got.tgz:8412.got - 2010.04.14 01:55:53.
