data_PCOD8185538
_publ_section_title
;
Structure prediction by ZEFSAII (Michael W. Deem and Ramdas Pophale) SiO2 
 PCOD8185538
Probable space group: A B A 2
;
_chemical_formula_sum "Si O2"
_cell_formula_units_Z 48
_cell_length_a 15.258283
_cell_length_b 16.891833
_cell_length_c 8.567409
_cell_angle_alpha 90.000000
_cell_angle_beta 90.000000
_cell_angle_gamma 90.000000
_cell_volume 2208.167151
_symmetry_space_group_name_H-M "A B A 2"
_symmetry_group_IT_number 41
_symmetry_cell_setting 'orthorhombic'
loop_
_space_group_symop_operation_xyz
x,y,z
-x,-y,z
1/2-x,y,1/2+z
1/2+x,-y,1/2+z
x,1/2+y,1/2+z
-x,1/2-y,1/2+z
1/2-x,1/2+y,z
1/2+x,1/2-y,z
loop_
_atom_site_type_symbol
_atom_site_label
_atom_site_fract_x
_atom_site_fract_y
_atom_site_fract_z
Si Si1 0.830678 0.917608 0.539820
Si Si2 0.774869 0.691285 0.217922
Si Si3 0.302601 0.912308 0.943657
Si Si4 0.316309 0.666177 0.855581
Si Si5 0.495732 0.360809 0.406841
Si Si6 0.437963 0.725292 0.118644
O O1 0.771081 0.853367 0.452185
O O2 0.837961 0.899718 0.724789
O O3 0.925072 0.918522 0.456147
O O4 0.783479 0.002843 0.519829
O O5 0.760298 0.604194 0.295725
O O6 0.696353 0.750288 0.265548
O O7 0.868759 0.733907 0.239072
O O8 0.773575 0.666989 0.037295
O O9 0.406051 0.909592 0.909368
O O10 0.393828 0.672507 0.981828
O O11 0.504056 0.330539 0.228635
O O12 0.497925 0.290558 0.534881
#
# Coordination Sequence:
#
# PCOD8185538 Si02
#       6
#     8   8   8   8   8   8
#     4  12  23  40  63  94 131 169 209 268 321 393
#     4  11  20  41  61  92 123 161 218 259 307 385
#     4  11  25  39  63  93 131 167 204 263 333 374
#     4  12  21  41  68  93 123 168 226 263 311 382
#     4  11  23  39  62  93 135 162 214 266 330 384
#     4  11  23  38  67 101 120 173 219 277 317 372
#
# _framework density 21.737486000000001
#
# number of rings (size 3 to 8) (size 9 to 14) (size 15 to 20)
#    0.000    0.667    6.667    2.500    0.000    0.000 
#    0.000    0.000    0.000    8.000    0.000    0.000 
#    0.000    0.000    0.000    0.000    0.000    0.000 
#
# Total GULP energy -297482.602173 kJ/mol
# GULP energy per Si atom -12395.108424 kJ/mol
# Density = 2.168801 g / cm^3
# Si number density = 21.737486 Si / 1000 Ang^3
#
#
#
# Elastic Constant Matrix: (Units=GPa)
#
#
# Indices 1 2 3 4 5 6 
#
# 1 33.8523 8.1866 23.2735 0.0000 0.0000 0.0000
# 2 8.1866 86.7424 32.5655 0.0000 0.0000 0.0000
# 3 23.2735 32.5655 87.8554 0.0000 0.0000 0.0000
# 4 0.0000 0.0000 0.0000 39.3721 0.0000 0.0000
# 5 0.0000 0.0000 0.0000 0.0000 39.0423 0.0000
# 6 0.0000 0.0000 0.0000 0.0000 0.0000 27.2555
#
#
#
# Elastic Compliance Matrix: (Units=1/GPa)
#
#
# Indices 1 2 3 4 5 6 
#
# 1 0.036121 0.000213 -0.009648 0.000000 0.000000 0.000000
# 2 0.000213 0.013393 -0.005021 0.000000 0.000000 0.000000
# 3 -0.009648 -0.005021 0.015799 0.000000 0.000000 0.000000
# 4 0.000000 0.000000 0.000000 0.025399 0.000000 0.000000
# 5 0.000000 0.000000 0.000000 0.000000 0.025613 0.000000
# 6 0.000000 0.000000 0.000000 0.000000 0.000000 0.036690
#
#
# Mechanical properties :
#
#
# Convention : Reuss Voigt Hill
#
# Bulk Modulus (GPa) = 27.47066 37.38902 32.42984
# Shear Modulus (GPa) = 25.76508 30.76229 28.26368
#
# Velocity S-wave (km/s) = 3.44653 3.76596 3.60978
# Velocity P-wave (km/s) = 5.33882 6.01228 5.68553
#
# Compressibility (1/GPa) = 0.03640248
#
# Stress axis : x y z
#
# Youngs Moduli (GPa) = 27.68444 74.66430 63.29439
#
# Poissons Ratio (x) = -0.01590 0.61065
# Poissons Ratio (y) = -0.00590 0.31780
# Poissons Ratio (z) = 0.26709 0.37488
#
# Static dielectric constant tensor:
#      x y z
#    x 3.788120 0.000000 0.000000 
#    y 0.000000 3.742740 0.000000 
#    z 0.000000 0.000000 4.030230 
# 
# 
# High freq. dielectric constant tensor:
#      x y z
#    x 1.838740 0.000000 0.000000 
#    y 0.000000 1.847340 0.000000 
#    z 0.000000 0.000000 1.866440 
# 
# From -- ./inp_files/2527.got.cif
#   From: 2010.03.12/outbox.cif.g09.slc.cpg/sg41_2_cif.got.tgz:2527.got - 2010.04.14 01:55:53.
