data_PCOD8185829
_publ_section_title
;
Structure prediction by ZEFSAII (Michael W. Deem and Ramdas Pophale) SiO2 
 PCOD8185829
Probable space group: F M M 2
;
_chemical_formula_sum "Si O2"
_cell_formula_units_Z 112
_cell_length_a 9.101556
_cell_length_b 29.263177
_cell_length_c 25.437628
_cell_angle_alpha 90.000000
_cell_angle_beta 90.000000
_cell_angle_gamma 90.000000
_cell_volume 6775.069141
_symmetry_space_group_name_H-M "F M M 2"
_symmetry_group_IT_number 42
_symmetry_cell_setting 'orthorhombic'
loop_
_space_group_symop_operation_xyz
x,y,z
-x,-y,z
-x,y,z
x,-y,z
x,1/2+y,1/2+z
-x,1/2-y,1/2+z
-x,1/2+y,1/2+z
x,1/2-y,1/2+z
1/2+x,y,1/2+z
1/2-x,-y,1/2+z
1/2-x,y,1/2+z
1/2+x,-y,1/2+z
1/2+x,1/2+y,z
1/2-x,1/2-y,z
1/2-x,1/2+y,z
1/2+x,1/2-y,z
loop_
_atom_site_type_symbol
_atom_site_label
_atom_site_fract_x
_atom_site_fract_y
_atom_site_fract_z
Si Si1 0.174493 0.643791 0.032070
Si Si2 0.674955 0.450327 0.492273
Si Si3 0.671662 0.203782 0.126762
Si Si4 0.172691 0.702998 0.246605
Si Si5 0.672259 0.856286 0.830006
Si Si6 0.172065 0.201816 0.433229
Si Si7 0.674035 0.950168 0.874087
O O1 0.227561 0.663715 0.088034
O O2 0.000000 0.642572 0.028671
O O3 0.236596 0.591885 0.026969
O O4 0.233346 0.675188 0.984360
O O5 0.500000 0.448783 0.491310
O O6 0.726930 0.500000 0.514734
O O7 0.735858 0.444346 0.433086
O O8 0.500000 0.212399 0.119881
O O9 0.750000 0.250000 0.109256
O O10 0.711070 0.190437 0.186409
O O11 0.250000 0.750000 0.263580
O O12 0.234911 0.662202 0.281368
O O13 0.000000 0.708804 0.255799
O O14 0.500000 0.853673 0.816488
O O15 0.709097 0.828077 0.882240
O O16 0.728448 0.908515 0.837737
O O17 0.250000 0.250000 0.427687
O O18 0.000000 0.210820 0.438388
O O19 0.500000 0.947312 0.877508
O O20 0.723109 0.000000 0.851302
#
# Coordination Sequence:
#
# PCOD8185829 Si02
#       7
#    16  16  16  16  16  16  16
#     4   9  15  26  42  62  89 116 140 175 221 263
#     4   8  12  20  38  64  91 115 140 174 217 262
#     4   9  18  31  47  64  86 116 151 186 218 255
#     4  10  20  33  47  64  86 118 157 192 222 259
#     4  10  18  29  46  68  92 118 146 182 226 268
#     4  10  19  28  40  62  91 117 140 170 216 268
#     4   8  13  23  41  66  93 117 145 182 220 260
#
# _framework density 16.531196999999999
#
# number of rings (size 3 to 8) (size 9 to 14) (size 15 to 20)
#    0.000    2.857    1.429    2.143    0.000    2.286 
#    0.000    0.000    0.000    1.286    0.000    2.000 
#    0.000    2.286    0.000    0.000    0.000    0.000 
#
# Total GULP energy -347025.849174 kJ/mol
# GULP energy per Si atom -12393.780328 kJ/mol
# Density = 1.649357 g / cm^3
# Si number density = 16.531197 Si / 1000 Ang^3
#
#
#
# Elastic Constant Matrix: (Units=GPa)
#
#
# Indices 1 2 3 4 5 6 
#
# 1 24.9184 34.8920 26.5596 0.0000 0.0000 0.0000
# 2 34.8920 177.3596 76.5379 0.0000 0.0000 0.0000
# 3 26.5596 76.5379 92.1369 0.0000 0.0000 0.0000
# 4 0.0000 0.0000 0.0000 25.3861 0.0000 0.0000
# 5 0.0000 0.0000 0.0000 0.0000 13.3782 0.0000
# 6 0.0000 0.0000 0.0000 0.0000 0.0000 16.0362
#
#
#
# Elastic Compliance Matrix: (Units=1/GPa)
#
#
# Indices 1 2 3 4 5 6 
#
# 1 0.063228 -0.007129 -0.012304 0.000000 0.000000 0.000000
# 2 -0.007129 0.009593 -0.005914 0.000000 0.000000 0.000000
# 3 -0.012304 -0.005914 0.019313 0.000000 0.000000 0.000000
# 4 0.000000 0.000000 0.000000 0.039392 0.000000 0.000000
# 5 0.000000 0.000000 0.000000 0.000000 0.074749 0.000000
# 6 0.000000 0.000000 0.000000 0.000000 0.000000 0.062359
#
#
# Mechanical properties :
#
#
# Convention : Reuss Voigt Hill
#
# Bulk Modulus (GPa) = 24.13145 63.37710 43.75427
# Shear Modulus (GPa) = 15.00874 21.38846 18.19860
#
# Velocity S-wave (km/s) = 3.01641 3.60088 3.32153
# Velocity P-wave (km/s) = 5.17309 7.46388 6.42146
#
# Compressibility (1/GPa) = 0.04143970
#
# Stress axis : x y z
#
# Youngs Moduli (GPa) = 15.81580 104.24543 51.77964
#
# Poissons Ratio (x) = 0.74318 0.63710
# Poissons Ratio (y) = 0.11275 0.30620
# Poissons Ratio (z) = 0.19460 0.61647
#
# Static dielectric constant tensor:
#      x y z
#    x 2.708440 0.000000 0.000000 
#    y 0.000000 3.542390 0.000000 
#    z 0.000000 0.000000 3.113970 
# 
# 
# High freq. dielectric constant tensor:
#      x y z
#    x 1.593070 0.000000 0.000000 
#    y 0.000000 1.646840 0.000000 
#    z 0.000000 0.000000 1.621280 
# 
# From -- ./inp_files/29065.got.cif
#   From: 2010.03.12/outbox.cif.g09.slc.cpg/sg42_15_cif.got.tgz:29065.got - 2010.04.14 02:04:31.
