data_PCOD8185929
_publ_section_title
;
Structure prediction by ZEFSAII (Michael W. Deem and Ramdas Pophale) SiO2 
 PCOD8185929
Probable space group: F M M 2
;
_chemical_formula_sum "Si O2"
_cell_formula_units_Z 104
_cell_length_a 18.737603
_cell_length_b 22.265160
_cell_length_c 13.796036
_cell_angle_alpha 90.000000
_cell_angle_beta 90.000000
_cell_angle_gamma 90.000000
_cell_volume 5755.647294
_symmetry_space_group_name_H-M "F M M 2"
_symmetry_group_IT_number 42
_symmetry_cell_setting 'orthorhombic'
loop_
_space_group_symop_operation_xyz
x,y,z
-x,-y,z
-x,y,z
x,-y,z
x,1/2+y,1/2+z
-x,1/2-y,1/2+z
-x,1/2+y,1/2+z
x,1/2-y,1/2+z
1/2+x,y,1/2+z
1/2-x,-y,1/2+z
1/2-x,y,1/2+z
1/2+x,-y,1/2+z
1/2+x,1/2+y,z
1/2-x,1/2-y,z
1/2-x,1/2+y,z
1/2+x,1/2-y,z
loop_
_atom_site_type_symbol
_atom_site_label
_atom_site_fract_x
_atom_site_fract_y
_atom_site_fract_z
Si Si1 0.386038 0.431081 0.037540
Si Si2 0.143242 0.314559 0.290200
Si Si3 0.712726 0.169362 0.490996
Si Si4 0.500000 0.262356 0.308639
Si Si5 0.079082 0.564908 0.320930
Si Si6 0.500000 0.649962 0.124591
Si Si7 0.345205 0.282834 0.583282
Si Si8 0.500000 0.227984 0.025224
O O1 0.374073 0.500000 0.072402
O O2 0.431068 0.393628 0.117149
O O3 0.309840 0.398564 0.017603
O O4 0.428451 0.427973 0.936919
O O5 0.196543 0.309665 0.381022
O O6 0.127462 0.384717 0.272914
O O7 0.181918 0.292340 0.193063
O O8 0.070216 0.278328 0.304904
O O9 0.666433 0.213018 0.559820
O O10 0.797154 0.176847 0.510597
O O11 0.500000 0.313862 0.226545
O O12 0.500000 0.292735 0.414011
O O13 0.113510 0.500000 0.296204
O O14 0.000000 0.569123 0.277158
O O15 0.500000 0.699387 0.037944
O O16 0.429059 0.299648 0.575182
#
# Coordination Sequence:
#
# PCOD8185929 Si02
#       8
#    16  16  16   8  16   8  16   8
#     4  10  18  33  56  82 116 150 184 240 293 335
#     4  11  19  35  54  80 116 150 188 233 290 343
#     4  10  22  36  53  84 116 148 189 237 284 349
#     4  12  20  31  56  84 116 155 181 233 286 347
#     4   9  16  27  50  82 109 138 183 239 290 325
#     4  12  19  32  52  92 116 145 188 231 291 352
#     4  11  22  36  56  81 117 153 185 233 290 341
#     4  12  20  37  55  82 122 144 189 228 283 343
#
# _framework density 18.069210999999999
#
# number of rings (size 3 to 8) (size 9 to 14) (size 15 to 20)
#    0.000    1.385    6.154    1.154    0.000    2.462 
#    2.769    0.769    0.000    0.000    0.000    2.154 
#    0.000    0.000    0.000    0.000    0.000    0.000 
#
# Total GULP energy -322232.444418 kJ/mol
# GULP energy per Si atom -12393.555555 kJ/mol
# Density = 1.802808 g / cm^3
# Si number density = 18.069211 Si / 1000 Ang^3
#
#
#
# Elastic Constant Matrix: (Units=GPa)
#
#
# Indices 1 2 3 4 5 6 
#
# 1 111.5532 36.6313 30.2624 0.0000 0.0000 0.0000
# 2 36.6313 107.7896 43.3224 0.0000 0.0000 0.0000
# 3 30.2624 43.3224 113.6422 0.0000 0.0000 0.0000
# 4 0.0000 0.0000 0.0000 20.5453 0.0000 0.0000
# 5 0.0000 0.0000 0.0000 0.0000 19.0687 0.0000
# 6 0.0000 0.0000 0.0000 0.0000 0.0000 18.7818
#
#
#
# Elastic Compliance Matrix: (Units=1/GPa)
#
#
# Indices 1 2 3 4 5 6 
#
# 1 0.010353 -0.002846 -0.001672 0.000000 0.000000 0.000000
# 2 -0.002846 0.011739 -0.003717 0.000000 0.000000 0.000000
# 3 -0.001672 -0.003717 0.010662 0.000000 0.000000 0.000000
# 4 0.000000 0.000000 0.000000 0.048673 0.000000 0.000000
# 5 0.000000 0.000000 0.000000 0.000000 0.052442 0.000000
# 6 0.000000 0.000000 0.000000 0.000000 0.000000 0.053243
#
#
# Mechanical properties :
#
#
# Convention : Reuss Voigt Hill
#
# Bulk Modulus (GPa) = 61.41498 61.49078 61.45288
# Shear Modulus (GPa) = 23.92247 26.53040 25.22644
#
# Velocity S-wave (km/s) = 3.64254 3.83595 3.74050
# Velocity P-wave (km/s) = 7.19398 7.32966 7.26214
#
# Compressibility (1/GPa) = 0.01628267
#
# Stress axis : x y z
#
# Youngs Moduli (GPa) = 96.59499 85.18949 93.79356
#
# Poissons Ratio (x) = 0.24247 0.15680
# Poissons Ratio (y) = 0.27494 0.34863
# Poissons Ratio (z) = 0.16148 0.31665
#
# Static dielectric constant tensor:
#      x y z
#    x 3.241480 0.000000 0.000000 
#    y 0.000000 3.402220 0.000000 
#    z 0.000000 0.000000 3.295980 
# 
# 
# High freq. dielectric constant tensor:
#      x y z
#    x 1.690240 0.000000 0.000000 
#    y 0.000000 1.686560 0.000000 
#    z 0.000000 0.000000 1.681640 
# 
# From -- ./inp_files/15369.got.cif
#   From: 2010.03.12/outbox.cif.g09.slc.cpg/sg42_8_cif.got.tgz:15369.got - 2010.04.14 02:04:31.
