data_PCOD8185058
_publ_section_title
;
Structure prediction by ZEFSAII (Michael W. Deem and Ramdas Pophale) SiO2 
 PCOD8185058
Probable space group: A B A 2
;
_chemical_formula_sum "Si O2"
_cell_formula_units_Z 64
_cell_length_a 13.963508
_cell_length_b 12.704640
_cell_length_c 17.241317
_cell_angle_alpha 90.000000
_cell_angle_beta 90.000000
_cell_angle_gamma 90.000000
_cell_volume 3058.632778
_symmetry_space_group_name_H-M "A B A 2"
_symmetry_group_IT_number 41
_symmetry_cell_setting 'orthorhombic'
loop_
_space_group_symop_operation_xyz
x,y,z
-x,-y,z
1/2-x,y,1/2+z
1/2+x,-y,1/2+z
x,1/2+y,1/2+z
-x,1/2-y,1/2+z
1/2-x,1/2+y,z
1/2+x,1/2-y,z
loop_
_atom_site_type_symbol
_atom_site_label
_atom_site_fract_x
_atom_site_fract_y
_atom_site_fract_z
Si Si1 0.184107 0.622626 0.217460
Si Si2 0.978810 0.377730 0.551383
Si Si3 0.717666 0.285429 0.077619
Si Si4 0.815822 0.622572 0.195487
Si Si5 0.122595 0.749659 0.956588
Si Si6 0.499913 0.252152 0.206535
Si Si7 0.717742 0.714583 0.335484
Si Si8 0.978525 0.622163 0.861849
O O1 0.270854 0.653481 0.159646
O O2 0.169405 0.500014 0.206513
O O3 0.202860 0.662677 0.306976
O O4 0.088551 0.677709 0.188774
O O5 0.870139 0.339859 0.530025
O O6 0.995350 0.326946 0.633782
O O7 0.000000 0.500000 0.558814
O O8 0.053668 0.341444 0.486419
O O9 0.703333 0.162562 0.106011
O O10 0.810584 0.296730 0.024201
O O11 0.911496 0.677736 0.223706
O O12 0.729304 0.653453 0.253496
O O13 0.189123 0.795966 0.888745
O O14 0.053319 0.657921 0.927066
O O15 0.494979 0.325541 0.279997
O O16 0.630301 0.659565 0.383229
O O17 0.000000 0.500000 0.853394
#
# Coordination Sequence:
#
# PCOD8185058 Si02
#       8
#     8   8   8   8   8   8   8   8
#     4  10  21  40  69  96 130 174 219 272 327 388
#     4  11  25  43  70  96 131 178 221 275 334 390
#     4  10  24  42  66  97 133 169 225 274 323 403
#     4  10  21  40  69  96 130 174 219 272 327 388
#     4  12  24  48  60  98 138 170 214 286 324 406
#     4  10  20  44  66 100 128 168 228 274 314 402
#     4  10  24  42  66  97 133 169 225 274 323 403
#     4  11  25  43  70  96 131 178 221 275 334 390
#
# _framework density 20.924381
#
# number of rings (size 3 to 8) (size 9 to 14) (size 15 to 20)
#    0.000    1.500    2.500    1.500    3.500    1.000 
#    9.000    0.000    0.000    0.000    0.000    0.000 
#    0.000    0.000    0.000    0.000    0.000    0.000 
#
# Total GULP energy -396538.993089 kJ/mol
# GULP energy per Si atom -12391.843534 kJ/mol
# Density = 2.087676 g / cm^3
# Si number density = 20.924381 Si / 1000 Ang^3
#
#
#
# Elastic Constant Matrix: (Units=GPa)
#
#
# Indices 1 2 3 4 5 6 
#
# 1 148.8475 59.6220 44.8223 0.0000 0.0000 0.0000
# 2 59.6220 179.2028 38.2045 0.0000 0.0000 0.0000
# 3 44.8223 38.2045 57.5849 0.0000 0.0000 0.0000
# 4 0.0000 0.0000 0.0000 3.5440 0.0000 0.0000
# 5 0.0000 0.0000 0.0000 0.0000 46.8334 0.0000
# 6 0.0000 0.0000 0.0000 0.0000 0.0000 3.9093
#
#
#
# Elastic Compliance Matrix: (Units=1/GPa)
#
#
# Indices 1 2 3 4 5 6 
#
# 1 0.009246 -0.001796 -0.006005 0.000000 0.000000 0.000000
# 2 -0.001796 0.006848 -0.003146 0.000000 0.000000 0.000000
# 3 -0.006005 -0.003146 0.024127 0.000000 0.000000 0.000000
# 4 0.000000 0.000000 0.000000 0.282168 0.000000 0.000000
# 5 0.000000 0.000000 0.000000 0.000000 0.021352 0.000000
# 6 0.000000 0.000000 0.000000 0.000000 0.000000 0.255799
#
#
# Mechanical properties :
#
#
# Convention : Reuss Voigt Hill
#
# Bulk Modulus (GPa) = 54.56247 74.54809 64.55528
# Shear Modulus (GPa) = 7.96756 27.05644 17.51200
#
# Velocity S-wave (km/s) = 1.95347 3.59981 2.89609
# Velocity P-wave (km/s) = 5.58755 7.27894 6.48859
#
# Compressibility (1/GPa) = 0.01832762
#
# Stress axis : x y z
#
# Youngs Moduli (GPa) = 108.15446 146.01915 41.44736
#
# Poissons Ratio (x) = 0.26224 0.24890
# Poissons Ratio (y) = 0.19424 0.13038
# Poissons Ratio (z) = 0.64950 0.45933
#
# Static dielectric constant tensor:
#      x y z
#    x 7.161610 0.000000 0.000000 
#    y 0.000000 3.694550 0.000000 
#    z 0.000000 0.000000 4.197310 
# 
# 
# High freq. dielectric constant tensor:
#      x y z
#    x 1.843340 0.000000 0.000000 
#    y 0.000000 1.806840 0.000000 
#    z 0.000000 0.000000 1.815730 
# 
# From -- ./inp_files/10419.got.cif
#   From: 2010.03.12/outbox.cif.g09.slc.cpg/sg41_6_cif.got.tgz:10419.got - 2010.04.14 01:55:53.
