data_PCOD8185356
_publ_section_title
;
Structure prediction by ZEFSAII (Michael W. Deem and Ramdas Pophale) SiO2 
 PCOD8185356
Probable space group: A B A 2
;
_chemical_formula_sum "Si O2"
_cell_formula_units_Z 56
_cell_length_a 18.280883
_cell_length_b 9.099513
_cell_length_c 16.256054
_cell_angle_alpha 90.000000
_cell_angle_beta 90.000000
_cell_angle_gamma 90.000000
_cell_volume 2704.147969
_symmetry_space_group_name_H-M "A B A 2"
_symmetry_group_IT_number 41
_symmetry_cell_setting 'orthorhombic'
loop_
_space_group_symop_operation_xyz
x,y,z
-x,-y,z
1/2-x,y,1/2+z
1/2+x,-y,1/2+z
x,1/2+y,1/2+z
-x,1/2-y,1/2+z
1/2-x,1/2+y,z
1/2+x,1/2-y,z
loop_
_atom_site_type_symbol
_atom_site_label
_atom_site_fract_x
_atom_site_fract_y
_atom_site_fract_z
Si Si1 0.393760 0.355925 0.765180
Si Si2 0.724720 0.848940 0.844994
Si Si3 0.283619 0.591833 0.010666
Si Si4 0.572466 0.426838 0.905695
Si Si5 0.475450 0.339047 0.309603
Si Si6 0.821694 0.144300 0.260563
Si Si7 0.288415 0.360343 0.620090
O O1 0.334473 0.266842 0.816391
O O2 0.414185 0.500392 0.815940
O O3 0.463440 0.247998 0.757324
O O4 0.359531 0.400983 0.676136
O O5 0.731784 0.833327 0.942769
O O6 0.801971 0.799515 0.804432
O O7 0.707522 0.013745 0.818611
O O8 0.359678 0.543419 0.967044
O O9 0.229664 0.465622 0.044251
O O10 0.303832 0.698570 0.085433
O O11 0.500000 0.500000 0.946179
O O12 0.553823 0.254429 0.888612
O O13 0.500000 0.500000 0.341939
O O14 0.408251 0.365932 0.247229
O O15 0.785974 0.137352 0.171718
#
# Coordination Sequence:
#
# PCOD8185356 Si02
#       7
#     8   8   8   8   8   8   8
#     4  10  22  43  65  95 127 171 223 268 316 391
#     4  11  21  38  68  92 125 168 224 269 316 385
#     4  12  23  40  62  98 131 170 206 271 339 388
#     4  10  23  43  68  93 128 175 223 271 325 394
#     4  11  22  39  71  97 123 166 231 276 319 381
#     4  11  22  40  65  94 123 170 224 272 312 390
#     4  11  25  38  62  96 134 167 213 269 330 389
#
# _framework density 20.708925000000001
#
# number of rings (size 3 to 8) (size 9 to 14) (size 15 to 20)
#    0.000    1.143    2.857    5.143    2.000    0.000 
#    2.571    0.000    0.000    2.571    0.000    0.000 
#    0.000    0.000    0.000    0.000    0.000    0.000 
#
# Total GULP energy -347078.691177 kJ/mol
# GULP energy per Si atom -12395.667542 kJ/mol
# Density = 2.066179 g / cm^3
# Si number density = 20.708925 Si / 1000 Ang^3
#
#
#
# Elastic Constant Matrix: (Units=GPa)
#
#
# Indices 1 2 3 4 5 6 
#
# 1 131.6617 46.9154 38.4227 0.0000 0.0000 0.0000
# 2 46.9154 84.9332 14.3258 0.0000 0.0000 0.0000
# 3 38.4227 14.3258 74.4843 0.0000 0.0000 0.0000
# 4 0.0000 0.0000 0.0000 35.2506 0.0000 0.0000
# 5 0.0000 0.0000 0.0000 0.0000 24.4447 0.0000
# 6 0.0000 0.0000 0.0000 0.0000 0.0000 30.3498
#
#
#
# Elastic Compliance Matrix: (Units=1/GPa)
#
#
# Indices 1 2 3 4 5 6 
#
# 1 0.010772 -0.005181 -0.004560 0.000000 0.000000 0.000000
# 2 -0.005181 0.014661 -0.000147 0.000000 0.000000 0.000000
# 3 -0.004560 -0.000147 0.015806 0.000000 0.000000 0.000000
# 4 0.000000 0.000000 0.000000 0.028368 0.000000 0.000000
# 5 0.000000 0.000000 0.000000 0.000000 0.040909 0.000000
# 6 0.000000 0.000000 0.000000 0.000000 0.000000 0.032949
#
#
# Mechanical properties :
#
#
# Convention : Reuss Voigt Hill
#
# Bulk Modulus (GPa) = 46.59343 54.48966 50.54155
# Shear Modulus (GPa) = 29.34327 30.77005 30.05666
#
# Velocity S-wave (km/s) = 3.76831 3.85883 3.81384
# Velocity P-wave (km/s) = 6.44062 6.79878 6.62212
#
# Compressibility (1/GPa) = 0.02146225
#
# Stress axis : x y z
#
# Youngs Moduli (GPa) = 92.83065 68.20934 63.26554
#
# Poissons Ratio (x) = 0.35341 0.28851
# Poissons Ratio (y) = 0.48097 0.00930
# Poissons Ratio (z) = 0.42334 0.01003
#
# Static dielectric constant tensor:
#      x y z
#    x 4.364980 0.000000 0.000000 
#    y 0.000000 3.988790 0.000000 
#    z 0.000000 0.000000 3.502570 
# 
# 
# High freq. dielectric constant tensor:
#      x y z
#    x 1.823590 0.000000 0.000000 
#    y 0.000000 1.825330 0.000000 
#    z 0.000000 0.000000 1.778980 
# 
# From -- ./inp_files/9014.got.cif
#   From: 2010.03.12/outbox.cif.g09.slc.cpg/sg41_5_cif.got.tgz:9014.got - 2010.04.14 01:55:53.
