data_PCOD8185255
_publ_section_title
;
Structure prediction by ZEFSAII (Michael W. Deem and Ramdas Pophale) SiO2 
 PCOD8185255
Probable space group: A B A 2
;
_chemical_formula_sum "Si O2"
_cell_formula_units_Z 64
_cell_length_a 17.701487
_cell_length_b 11.763825
_cell_length_c 13.805076
_cell_angle_alpha 90.000000
_cell_angle_beta 90.000000
_cell_angle_gamma 90.000000
_cell_volume 2874.730307
_symmetry_space_group_name_H-M "A B A 2"
_symmetry_group_IT_number 41
_symmetry_cell_setting 'orthorhombic'
loop_
_space_group_symop_operation_xyz
x,y,z
-x,-y,z
1/2-x,y,1/2+z
1/2+x,-y,1/2+z
x,1/2+y,1/2+z
-x,1/2-y,1/2+z
1/2-x,1/2+y,z
1/2+x,1/2-y,z
loop_
_atom_site_type_symbol
_atom_site_label
_atom_site_fract_x
_atom_site_fract_y
_atom_site_fract_z
Si Si1 0.788803 0.153977 0.569400
Si Si2 0.915927 0.993962 0.835442
Si Si3 0.943701 0.842495 0.658550
Si Si4 0.082744 0.534673 0.792495
Si Si5 0.208740 0.184265 0.894695
Si Si6 0.147321 0.067872 0.484259
Si Si7 0.601298 0.209361 0.229861
Si Si8 0.332588 0.831413 0.715279
O O1 0.814224 0.230654 0.480136
O O2 0.825247 0.200756 0.666552
O O3 0.702485 0.165654 0.606413
O O4 0.808269 0.023735 0.548418
O O5 0.922557 0.948796 0.725792
O O6 0.854407 0.917329 0.892753
O O7 0.889622 0.124736 0.822741
O O8 0.000000 0.000000 0.885474
O O9 0.905264 0.856501 0.553904
O O10 0.913423 0.728429 0.708557
O O11 0.033502 0.827146 0.656779
O O12 0.089725 0.512285 0.907745
O O13 0.093879 0.665692 0.770406
O O14 0.150473 0.461256 0.744858
O O15 0.000000 0.500000 0.755957
O O16 0.291343 0.136959 0.920545
O O17 0.214475 0.258254 0.795997
#
# Coordination Sequence:
#
# PCOD8185255 Si02
#       8
#     8   8   8   8   8   8   8   8
#     4  12  26  43  70 103 141 185 234 289 354 425
#     4   9  21  42  73  96 132 182 231 284 352 412
#     4  10  21  45  68  98 135 184 236 288 352 422
#     4  12  27  44  71 105 142 186 236 295 358 424
#     4  11  25  46  69 105 140 184 236 293 353 426
#     4  12  26  41  70 106 139 181 243 294 351 427
#     4  11  24  44  72 100 139 184 233 289 362 418
#     4  11  24  47  71  97 148 187 231 294 355 425
#
# _framework density 22.262958000000001
#
# number of rings (size 3 to 8) (size 9 to 14) (size 15 to 20)
#    0.000    1.000    5.000    0.750    5.250    1.000 
#    0.000    0.625    0.000    0.000    0.000    0.000 
#    0.000    0.000    0.000    0.000    0.000    0.000 
#
# Total GULP energy -396586.530868 kJ/mol
# GULP energy per Si atom -12393.329090 kJ/mol
# Density = 2.221229 g / cm^3
# Si number density = 22.262958 Si / 1000 Ang^3
#
#
#
# Elastic Constant Matrix: (Units=GPa)
#
#
# Indices 1 2 3 4 5 6 
#
# 1 74.9846 26.2751 24.9040 0.0000 0.0000 0.0000
# 2 26.2751 137.9830 35.4910 0.0000 0.0000 0.0000
# 3 24.9040 35.4910 74.7045 0.0000 0.0000 0.0000
# 4 0.0000 0.0000 0.0000 14.6040 0.0000 0.0000
# 5 0.0000 0.0000 0.0000 0.0000 -183.8096 0.0000
# 6 0.0000 0.0000 0.0000 0.0000 0.0000 35.9013
#
#
#
# Elastic Compliance Matrix: (Units=1/GPa)
#
#
# Indices 1 2 3 4 5 6 
#
# 1 0.015394 -0.001836 -0.004260 0.000000 0.000000 0.000000
# 2 -0.001836 0.008475 -0.003414 0.000000 0.000000 0.000000
# 3 -0.004260 -0.003414 0.016428 0.000000 0.000000 0.000000
# 4 0.000000 0.000000 0.000000 0.068474 0.000000 0.000000
# 5 0.000000 0.000000 0.000000 0.000000 -0.005440 0.000000
# 6 0.000000 0.000000 0.000000 0.000000 0.000000 0.027854
#
#
# Mechanical properties :
#
#
# Convention : Reuss Voigt Hill
#
# Bulk Modulus (GPa) = 46.99766 51.22359 49.11062
# Shear Modulus (GPa) = 31.78687 -13.26072 9.26308
#
# Velocity S-wave (km/s) = 3.78271 -2.44322 2.04201
# Velocity P-wave (km/s) = 6.34308 3.88578 5.25994
#
# Compressibility (1/GPa) = 0.02127766
#
# Stress axis : x y z
#
# Youngs Moduli (GPa) = 64.96003 117.99320 60.87068
#
# Poissons Ratio (x) = 0.21660 0.25929
# Poissons Ratio (y) = 0.11925 0.20784
# Poissons Ratio (z) = 0.27671 0.40288
#
# Static dielectric constant tensor:
#      x y z
#    x 5.262930 0.000000 0.000000 
#    y 0.000000 4.058940 0.000000 
#    z 0.000000 0.000000 3.781120 
# 
# 
# High freq. dielectric constant tensor:
#      x y z
#    x 1.884820 0.000000 0.000000 
#    y 0.000000 1.888850 0.000000 
#    z 0.000000 0.000000 1.858380 
# 
# From -- ./inp_files/8822.got.cif
#   From: 2010.03.12/outbox.cif.g09.slc.cpg/sg41_5_cif.got.tgz:8822.got - 2010.04.14 01:55:53.
