data_PCOD8185208
_publ_section_title
;
Structure prediction by ZEFSAII (Michael W. Deem and Ramdas Pophale) SiO2 
 PCOD8185208
Probable space group: A B A 2
;
_chemical_formula_sum "Si O2"
_cell_formula_units_Z 52
_cell_length_a 7.440885
_cell_length_b 17.207768
_cell_length_c 19.771810
_cell_angle_alpha 90.000000
_cell_angle_beta 90.000000
_cell_angle_gamma 90.000000
_cell_volume 2531.602775
_symmetry_space_group_name_H-M "A B A 2"
_symmetry_group_IT_number 41
_symmetry_cell_setting 'orthorhombic'
loop_
_space_group_symop_operation_xyz
x,y,z
-x,-y,z
1/2-x,y,1/2+z
1/2+x,-y,1/2+z
x,1/2+y,1/2+z
-x,1/2-y,1/2+z
1/2-x,1/2+y,z
1/2+x,1/2-y,z
loop_
_atom_site_type_symbol
_atom_site_label
_atom_site_fract_x
_atom_site_fract_y
_atom_site_fract_z
Si Si1 0.500000 0.000000 0.174400
Si Si2 0.378445 0.846196 0.878565
Si Si3 0.212493 0.174564 0.897171
Si Si4 0.540002 0.676192 0.226261
Si Si5 0.582739 0.582807 0.963648
Si Si6 0.846655 0.561948 0.615570
Si Si7 0.366686 0.150834 0.246078
O O1 0.335774 0.985171 0.124686
O O2 0.528168 0.924242 0.220537
O O3 0.582802 0.855282 0.905054
O O4 0.283894 0.767096 0.902383
O O5 0.371719 0.851410 0.797120
O O6 0.252095 0.910910 0.912497
O O7 0.124383 0.148075 0.826827
O O8 0.081438 0.143005 0.954912
O O9 0.647661 0.635522 0.165904
O O10 0.541014 0.769698 0.219553
O O11 0.336688 0.647702 0.220609
O O12 0.500000 0.500000 0.949220
O O13 0.649020 0.594639 0.039918
O O14 0.000000 0.500000 0.631734
#
# Coordination Sequence:
#
# PCOD8185208 Si02
#       7
#     4   8   8   8   8   8   8
#     4  12  24  42  68  96 132 174 216 262 340 384
#     4  10  21  42  70  96 130 167 218 274 319 384
#     4  10  21  41  68  98 129 167 215 270 325 380
#     4  10  21  44  66 100 132 167 225 271 325 381
#     4  11  26  43  63  95 135 173 215 270 328 388
#     4  11  25  46  63  91 136 175 217 273 322 391
#     4  10  22  38  71 101 129 168 215 278 322 389
#
# _framework density 20.540347000000001
#
# number of rings (size 3 to 8) (size 9 to 14) (size 15 to 20)
#    0.000    1.538    3.077    0.923    5.385    3.077 
#    5.538    0.000    0.000    0.000    0.000    0.000 
#    0.000    0.000    0.000    0.000    0.000    0.000 
#
# Total GULP energy -322476.365455 kJ/mol
# GULP energy per Si atom -12402.937133 kJ/mol
# Density = 2.049360 g / cm^3
# Si number density = 20.540347 Si / 1000 Ang^3
#
#
#
# Elastic Constant Matrix: (Units=GPa)
#
#
# Indices 1 2 3 4 5 6 
#
# 1 113.9978 57.0131 57.5045 0.0000 0.0000 0.0000
# 2 57.0131 95.7454 68.4486 0.0000 0.0000 0.0000
# 3 57.5045 68.4486 112.1108 0.0000 0.0000 0.0000
# 4 0.0000 0.0000 0.0000 29.5029 0.0000 0.0000
# 5 0.0000 0.0000 0.0000 0.0000 17.9993 0.0000
# 6 0.0000 0.0000 0.0000 0.0000 0.0000 34.5292
#
#
#
# Elastic Compliance Matrix: (Units=1/GPa)
#
#
# Indices 1 2 3 4 5 6 
#
# 1 0.013226 -0.005369 -0.003506 0.000000 0.000000 0.000000
# 2 -0.005369 0.020714 -0.009893 0.000000 0.000000 0.000000
# 3 -0.003506 -0.009893 0.016758 0.000000 0.000000 0.000000
# 4 0.000000 0.000000 0.000000 0.033895 0.000000 0.000000
# 5 0.000000 0.000000 0.000000 0.000000 0.055558 0.000000
# 6 0.000000 0.000000 0.000000 0.000000 0.000000 0.028961
#
#
# Mechanical properties :
#
#
# Convention : Reuss Voigt Hill
#
# Bulk Modulus (GPa) = 75.97512 76.42071 76.19792
# Shear Modulus (GPa) = 23.69285 25.66545 24.67915
#
# Velocity S-wave (km/s) = 3.39997 3.53868 3.47002
# Velocity P-wave (km/s) = 7.24442 7.34726 7.29602
#
# Compressibility (1/GPa) = 0.01316220
#
# Stress axis : x y z
#
# Youngs Moduli (GPa) = 75.60979 48.27662 59.67353
#
# Poissons Ratio (x) = 0.25921 0.20919
# Poissons Ratio (y) = 0.40597 0.59033
# Poissons Ratio (z) = 0.26506 0.47759
#
# Static dielectric constant tensor:
#      x y z
#    x 3.867750 0.000000 0.000000 
#    y 0.000000 3.753360 0.000000 
#    z 0.000000 0.000000 3.548100 
# 
# 
# High freq. dielectric constant tensor:
#      x y z
#    x 1.824690 0.000000 0.000000 
#    y 0.000000 1.801490 0.000000 
#    z 0.000000 0.000000 1.786440 
# 
# From -- ./inp_files/11174.got.cif
#   From: 2010.03.12/outbox.cif.g09.slc.cpg/sg41_6_cif.got.tgz:11174.got - 2010.04.14 01:55:53.
