data_PCOD8185767
_publ_section_title
;
Structure prediction by ZEFSAII (Michael W. Deem and Ramdas Pophale) SiO2 
 PCOD8185767
Probable space group: F M M 2
;
_chemical_formula_sum "Si O2"
_cell_formula_units_Z 96
_cell_length_a 19.213000
_cell_length_b 8.610105
_cell_length_c 31.164537
_cell_angle_alpha 90.000000
_cell_angle_beta 90.000000
_cell_angle_gamma 90.000000
_cell_volume 5155.423057
_symmetry_space_group_name_H-M "F M M 2"
_symmetry_group_IT_number 42
_symmetry_cell_setting 'orthorhombic'
loop_
_space_group_symop_operation_xyz
x,y,z
-x,-y,z
-x,y,z
x,-y,z
x,1/2+y,1/2+z
-x,1/2-y,1/2+z
-x,1/2+y,1/2+z
x,1/2-y,1/2+z
1/2+x,y,1/2+z
1/2-x,-y,1/2+z
1/2-x,y,1/2+z
1/2+x,-y,1/2+z
1/2+x,1/2+y,z
1/2-x,1/2-y,z
1/2-x,1/2+y,z
1/2+x,1/2-y,z
loop_
_atom_site_type_symbol
_atom_site_label
_atom_site_fract_x
_atom_site_fract_y
_atom_site_fract_z
Si Si1 0.173466 0.816361 0.185520
Si Si2 0.325951 0.318331 0.945005
Si Si3 0.419062 0.179123 0.016607
Si Si4 0.579890 0.320172 0.106125
Si Si5 0.172420 0.683826 0.272589
Si Si6 0.672494 0.816313 0.858288
O O1 0.250000 0.750000 0.177569
O O2 0.125945 0.764079 0.145964
O O3 0.137726 0.745938 0.228669
O O4 0.177613 0.000000 0.190517
O O5 0.318248 0.500000 0.937046
O O6 0.250000 0.250000 0.954824
O O7 0.362114 0.241243 0.902727
O O8 0.375545 0.286582 0.984955
O O9 0.500000 0.216748 0.009451
O O10 0.397400 0.219894 0.065110
O O11 0.401716 0.000000 0.007641
O O12 0.500000 0.289201 0.118396
O O13 0.592970 0.500000 0.095311
O O14 0.172580 0.500000 0.273314
O O15 0.250000 0.750000 0.272703
O O16 0.134097 0.748055 0.315682
O O17 0.750000 0.750000 0.859666
O O18 0.672163 0.000000 0.855733
#
# Coordination Sequence:
#
# PCOD8185767 Si02
#       6
#    16  16  16  16  16  16
#     4  10  19  31  49  74 102 130 163 206 252 297
#     4  11  21  34  53  78 107 136 170 212 257 302
#     4  10  21  37  56  77 102 134 172 211 254 307
#     4   9  19  36  55  73  96 131 172 209 249 300
#     4  10  17  27  44  68  99 132 166 202 244 296
#     4  10  17  28  46  70 101 133 167 205 248 298
#
# _framework density 18.621168999999998
#
# number of rings (size 3 to 8) (size 9 to 14) (size 15 to 20)
#    0.000    2.000    0.000    8.500    0.000    3.000 
#    0.000    1.667    0.000    1.000    0.000    2.333 
#    0.000    0.000    0.000    0.000    0.000    0.000 
#
# Total GULP energy -297551.500240 kJ/mol
# GULP energy per Si atom -12397.979177 kJ/mol
# Density = 1.857879 g / cm^3
# Si number density = 18.621169 Si / 1000 Ang^3
#
#
#
# Elastic Constant Matrix: (Units=GPa)
#
#
# Indices 1 2 3 4 5 6 
#
# 1 43.6575 26.2309 54.6011 0.0000 0.0000 0.0000
# 2 26.2309 136.1604 59.7339 0.0000 0.0000 0.0000
# 3 54.6011 59.7339 163.9253 0.0000 0.0000 0.0000
# 4 0.0000 0.0000 0.0000 37.3610 0.0000 0.0000
# 5 0.0000 0.0000 0.0000 0.0000 -1.5037 0.0000
# 6 0.0000 0.0000 0.0000 0.0000 0.0000 19.5777
#
#
#
# Elastic Compliance Matrix: (Units=1/GPa)
#
#
# Indices 1 2 3 4 5 6 
#
# 1 0.039809 -0.002204 -0.012457 0.000000 0.000000 0.000000
# 2 -0.002204 0.008864 -0.002496 0.000000 0.000000 0.000000
# 3 -0.012457 -0.002496 0.011159 0.000000 0.000000 0.000000
# 4 0.000000 0.000000 0.000000 0.026766 0.000000 0.000000
# 5 0.000000 0.000000 0.000000 0.000000 -0.665014 0.000000
# 6 0.000000 0.000000 0.000000 0.000000 0.000000 0.051078
#
#
# Mechanical properties :
#
#
# Convention : Reuss Voigt Hill
#
# Bulk Modulus (GPa) = 39.18731 69.43057 54.30894
# Shear Modulus (GPa) = -10.31952 24.63214 7.15631
#
# Velocity S-wave (km/s) = -2.35666 3.64098 1.96251
# Velocity P-wave (km/s) = 3.69933 7.41906 5.86206
#
# Compressibility (1/GPa) = 0.02551847
#
# Stress axis : x y z
#
# Youngs Moduli (GPa) = 25.11994 112.81821 89.61486
#
# Poissons Ratio (x) = 0.24869 1.11629
# Poissons Ratio (y) = 0.05537 0.22365
# Poissons Ratio (z) = 0.31291 0.28156
#
# Static dielectric constant tensor:
#      x y z
#    x 2.992390 0.000000 0.000000 
#    y 0.000000 3.481440 0.000000 
#    z 0.000000 0.000000 4.353440 
# 
# 
# High freq. dielectric constant tensor:
#      x y z
#    x 1.665220 0.000000 0.000000 
#    y 0.000000 1.739790 0.000000 
#    z 0.000000 0.000000 1.750290 
# 
# From -- ./inp_files/31622.got.cif
#   From: 2010.03.12/outbox.cif.g09.slc.cpg/sg42_16_cif.got.tgz:31622.got - 2010.04.14 02:04:31.
