data_PCOD8185141
_publ_section_title
;
Structure prediction by ZEFSAII (Michael W. Deem and Ramdas Pophale) SiO2 
 PCOD8185141
Probable space group: A B A 2
;
_chemical_formula_sum "Si O2"
_cell_formula_units_Z 56
_cell_length_a 11.944416
_cell_length_b 13.869401
_cell_length_c 15.991739
_cell_angle_alpha 90.000000
_cell_angle_beta 90.000000
_cell_angle_gamma 90.000000
_cell_volume 2649.221791
_symmetry_space_group_name_H-M "A B A 2"
_symmetry_group_IT_number 41
_symmetry_cell_setting 'orthorhombic'
loop_
_space_group_symop_operation_xyz
x,y,z
-x,-y,z
1/2-x,y,1/2+z
1/2+x,-y,1/2+z
x,1/2+y,1/2+z
-x,1/2-y,1/2+z
1/2-x,1/2+y,z
1/2+x,1/2-y,z
loop_
_atom_site_type_symbol
_atom_site_label
_atom_site_fract_x
_atom_site_fract_y
_atom_site_fract_z
Si Si1 0.500000 0.000000 0.973770
Si Si2 0.191943 0.381160 0.817566
Si Si3 0.701103 0.975941 0.674792
Si Si4 0.451942 0.665051 0.374218
Si Si5 0.681740 0.272202 0.216640
Si Si6 0.356917 0.850020 0.459063
Si Si7 0.500000 0.500000 0.051542
Si Si8 0.340541 0.874816 0.082330
O O1 0.412839 0.061145 0.914416
O O2 0.559415 0.083878 0.026767
O O3 0.163058 0.475798 0.762810
O O4 0.223030 0.293945 0.755972
O O5 0.297113 0.400177 0.879214
O O6 0.086811 0.344987 0.871748
O O7 0.746068 0.867453 0.685624
O O8 0.599435 0.965407 0.610481
O O9 0.804085 0.035350 0.638859
O O10 0.410354 0.687048 0.281209
O O11 0.411347 0.748105 0.436257
O O12 0.619234 0.213164 0.142147
O O13 0.264561 0.834135 0.530527
O O14 0.458918 0.914908 0.491090
#
# Coordination Sequence:
#
# PCOD8185141 Si02
#       8
#     4   8   8   8   8   8   4   8
#     4  12  24  41  69 100 134 176 226 274 345 396
#     4  10  21  42  61  96 132 167 227 272 328 408
#     4  10  21  39  64  89 129 174 213 275 332 396
#     4  11  23  40  68  93 127 182 215 273 332 405
#     4  10  23  39  64  93 128 172 221 270 332 395
#     4  10  23  42  63  97 136 168 227 279 334 396
#     4  10  22  39  63  92 126 176 216 278 333 400
#     4  10  24  42  61  97 134 166 222 277 328 402
#
# _framework density 21.138283999999999
#
# number of rings (size 3 to 8) (size 9 to 14) (size 15 to 20)
#    0.000    1.714    1.429    1.714    4.000    2.286 
#    5.143    5.000    0.000    0.000    0.000    0.000 
#    0.000    0.000    0.000    0.000    0.000    0.000 
#
# Total GULP energy -347095.736817 kJ/mol
# GULP energy per Si atom -12396.276315 kJ/mol
# Density = 2.109017 g / cm^3
# Si number density = 21.138284 Si / 1000 Ang^3
#
#
#
# Elastic Constant Matrix: (Units=GPa)
#
#
# Indices 1 2 3 4 5 6 
#
# 1 58.1337 33.6634 33.0306 0.0000 0.0000 0.0000
# 2 33.6634 155.6115 82.7717 0.0000 0.0000 0.0000
# 3 33.0306 82.7717 129.2609 0.0000 0.0000 0.0000
# 4 0.0000 0.0000 0.0000 43.6448 0.0000 0.0000
# 5 0.0000 0.0000 0.0000 0.0000 17.1635 0.0000
# 6 0.0000 0.0000 0.0000 0.0000 0.0000 23.8374
#
#
#
# Elastic Compliance Matrix: (Units=1/GPa)
#
#
# Indices 1 2 3 4 5 6 
#
# 1 0.020761 -0.002532 -0.003684 0.000000 0.000000 0.000000
# 2 -0.002532 0.010054 -0.005791 0.000000 0.000000 0.000000
# 3 -0.003684 -0.005791 0.012386 0.000000 0.000000 0.000000
# 4 0.000000 0.000000 0.000000 0.022912 0.000000 0.000000
# 5 0.000000 0.000000 0.000000 0.000000 0.058263 0.000000
# 6 0.000000 0.000000 0.000000 0.000000 0.000000 0.041951
#
#
# Mechanical properties :
#
#
# Convention : Reuss Voigt Hill
#
# Bulk Modulus (GPa) = 52.11741 71.32639 61.72190
# Shear Modulus (GPa) = 25.41453 29.83182 27.62318
#
# Velocity S-wave (km/s) = 3.47118 3.76076 3.61887
# Velocity P-wave (km/s) = 6.38549 7.25767 6.83550
#
# Compressibility (1/GPa) = 0.01918745
#
# Stress axis : x y z
#
# Youngs Moduli (GPa) = 48.16745 99.45850 80.73509
#
# Poissons Ratio (x) = 0.25179 0.29743
# Poissons Ratio (y) = 0.12194 0.46757
# Poissons Ratio (z) = 0.17745 0.57600
#
# Static dielectric constant tensor:
#      x y z
#    x 3.520370 0.000000 0.000000 
#    y 0.000000 4.047970 0.000000 
#    z 0.000000 0.000000 4.249700 
# 
# 
# High freq. dielectric constant tensor:
#      x y z
#    x 1.798650 0.000000 0.000000 
#    y 0.000000 1.839610 0.000000 
#    z 0.000000 0.000000 1.853360 
# 
# From -- ./inp_files/7982.got.cif
#   From: 2010.03.12/outbox.cif.g09.slc.cpg/sg41_4_cif.got.tgz:7982.got - 2010.04.14 01:55:53.
