data_PCOD8185388
_publ_section_title
;
Structure prediction by ZEFSAII (Michael W. Deem and Ramdas Pophale) SiO2 
 PCOD8185388
Probable space group: A B A 2
;
_chemical_formula_sum "Si O2"
_cell_formula_units_Z 64
_cell_length_a 8.758024
_cell_length_b 22.314225
_cell_length_c 15.325766
_cell_angle_alpha 90.000000
_cell_angle_beta 90.000000
_cell_angle_gamma 90.000000
_cell_volume 2995.091738
_symmetry_space_group_name_H-M "A B A 2"
_symmetry_group_IT_number 41
_symmetry_cell_setting 'orthorhombic'
loop_
_space_group_symop_operation_xyz
x,y,z
-x,-y,z
1/2-x,y,1/2+z
1/2+x,-y,1/2+z
x,1/2+y,1/2+z
-x,1/2-y,1/2+z
1/2-x,1/2+y,z
1/2+x,1/2-y,z
loop_
_atom_site_type_symbol
_atom_site_label
_atom_site_fract_x
_atom_site_fract_y
_atom_site_fract_z
Si Si1 0.663942 0.382351 0.233460
Si Si2 0.152552 0.315364 0.075005
Si Si3 0.612377 0.554315 0.533416
Si Si4 0.385471 0.704687 0.817489
Si Si5 0.675894 0.005492 0.671443
Si Si6 0.538795 0.717697 0.157687
Si Si7 0.870516 0.583748 0.832756
Si Si8 0.699020 0.194389 0.390613
O O1 0.812648 0.353955 0.276321
O O2 0.737608 0.437757 0.180735
O O3 0.575537 0.338422 0.166516
O O4 0.547893 0.405948 0.308219
O O5 0.065353 0.380077 0.073385
O O6 0.286380 0.304777 0.146664
O O7 0.025004 0.262850 0.082003
O O8 0.250602 0.315119 0.988170
O O9 0.500000 0.500000 0.558102
O O10 0.765568 0.538602 0.585403
O O11 0.639239 0.555253 0.429365
O O12 0.472213 0.743997 0.745575
O O13 0.247505 0.739102 0.863516
O O14 0.516395 0.686404 0.886318
O O15 0.710261 0.041233 0.761517
O O16 0.500000 0.000000 0.653968
O O17 0.782837 0.646803 0.827975
#
# Coordination Sequence:
#
# PCOD8185388 Si02
#       8
#     8   8   8   8   8   8   8   8
#     4  11  22  39  67  96 126 174 219 273 326 404
#     4  11  25  40  62  95 134 172 212 279 330 391
#     4  11  25  43  68  98 132 176 224 276 334 398
#     4  12  22  38  66  95 126 172 218 262 328 398
#     4  10  23  42  67  94 130 173 230 272 337 394
#     4  12  22  40  65  95 132 170 219 262 338 390
#     4  10  22  46  67  91 134 178 219 275 340 389
#     4  11  22  40  62  93 131 169 215 270 330 394
#
# _framework density 21.368293000000001
#
# number of rings (size 3 to 8) (size 9 to 14) (size 15 to 20)
#    0.000    1.000    3.750    3.375    3.500    1.000 
#    0.000    9.375    0.000    0.000    0.000    0.000 
#    0.000    0.000    0.000    0.000    0.000    0.000 
#
# Total GULP energy -396681.628945 kJ/mol
# GULP energy per Si atom -12396.300905 kJ/mol
# Density = 2.131966 g / cm^3
# Si number density = 21.368293 Si / 1000 Ang^3
#
#
#
# Elastic Constant Matrix: (Units=GPa)
#
#
# Indices 1 2 3 4 5 6 
#
# 1 61.8385 17.5169 15.6536 0.0000 0.0000 0.0000
# 2 17.5169 120.3427 38.5152 0.0000 0.0000 0.0000
# 3 15.6536 38.5152 81.0513 0.0000 0.0000 0.0000
# 4 0.0000 0.0000 0.0000 27.3367 0.0000 0.0000
# 5 0.0000 0.0000 0.0000 0.0000 27.9528 0.0000
# 6 0.0000 0.0000 0.0000 0.0000 0.0000 29.9595
#
#
#
# Elastic Compliance Matrix: (Units=1/GPa)
#
#
# Indices 1 2 3 4 5 6 
#
# 1 0.017295 -0.001708 -0.002529 0.000000 0.000000 0.000000
# 2 -0.001708 0.009969 -0.004407 0.000000 0.000000 0.000000
# 3 -0.002529 -0.004407 0.014920 0.000000 0.000000 0.000000
# 4 0.000000 0.000000 0.000000 0.036581 0.000000 0.000000
# 5 0.000000 0.000000 0.000000 0.000000 0.035775 0.000000
# 6 0.000000 0.000000 0.000000 0.000000 0.000000 0.033378
#
#
# Mechanical properties :
#
#
# Convention : Reuss Voigt Hill
#
# Bulk Modulus (GPa) = 40.16628 45.17821 42.67224
# Shear Modulus (GPa) = 28.81765 29.81959 29.31862
#
# Velocity S-wave (km/s) = 3.67634 3.73970 3.70815
# Velocity P-wave (km/s) = 6.07112 6.31155 6.19250
#
# Compressibility (1/GPa) = 0.02489650
#
# Stress axis : x y z
#
# Youngs Moduli (GPa) = 57.81990 100.31354 67.02202
#
# Poissons Ratio (x) = 0.17136 0.16947
# Poissons Ratio (y) = 0.09877 0.29538
# Poissons Ratio (z) = 0.14620 0.44210
#
# Static dielectric constant tensor:
#      x y z
#    x 3.659230 0.000000 0.000000 
#    y 0.000000 4.952850 0.000000 
#    z 0.000000 0.000000 3.794670 
# 
# 
# High freq. dielectric constant tensor:
#      x y z
#    x 1.825320 0.000000 0.000000 
#    y 0.000000 1.854760 0.000000 
#    z 0.000000 0.000000 1.833890 
# 
# From -- ./inp_files/7560.got.cif
#   From: 2010.03.12/outbox.cif.g09.slc.cpg/sg41_4_cif.got.tgz:7560.got - 2010.04.14 01:55:53.
