data_PCOD8185121
_publ_section_title
;
Structure prediction by ZEFSAII (Michael W. Deem and Ramdas Pophale) SiO2 
 PCOD8185121
Probable space group: A B A 2
;
_chemical_formula_sum "Si O2"
_cell_formula_units_Z 60
_cell_length_a 10.506103
_cell_length_b 25.090895
_cell_length_c 11.005339
_cell_angle_alpha 90.000000
_cell_angle_beta 90.000000
_cell_angle_gamma 90.000000
_cell_volume 2901.090200
_symmetry_space_group_name_H-M "A B A 2"
_symmetry_group_IT_number 41
_symmetry_cell_setting 'orthorhombic'
loop_
_space_group_symop_operation_xyz
x,y,z
-x,-y,z
1/2-x,y,1/2+z
1/2+x,-y,1/2+z
x,1/2+y,1/2+z
-x,1/2-y,1/2+z
1/2-x,1/2+y,z
1/2+x,1/2-y,z
loop_
_atom_site_type_symbol
_atom_site_label
_atom_site_fract_x
_atom_site_fract_y
_atom_site_fract_z
Si Si1 0.598106 0.757213 0.699990
Si Si2 0.467493 0.160083 0.294902
Si Si3 0.500000 0.500000 0.673922
Si Si4 0.180118 0.926713 0.790802
Si Si5 0.703486 0.825659 0.888200
Si Si6 0.953323 0.888690 0.556594
Si Si7 0.157699 0.273710 0.556441
Si Si8 0.238647 0.884578 0.534710
O O1 0.542418 0.715936 0.800242
O O2 0.638162 0.813959 0.758095
O O3 0.729244 0.730459 0.654744
O O4 0.486458 0.767706 0.603589
O O5 0.558613 0.110368 0.313594
O O6 0.353282 0.161918 0.390804
O O7 0.399928 0.149495 0.163777
O O8 0.378883 0.484585 0.758221
O O9 0.541705 0.451220 0.587433
O O10 0.264070 0.908787 0.671453
O O11 0.251151 0.927021 0.921449
O O12 0.636618 0.878132 0.942077
O O13 0.683302 0.770450 0.957102
O O14 0.093337 0.865351 0.529852
O O15 0.168845 0.334547 0.505946
#
# Coordination Sequence:
#
# PCOD8185121 Si02
#       8
#     8   8   4   8   8   8   8   8
#     4  12  23  38  54  89 131 173 212 255 325 383
#     4  10  21  39  54  86 126 168 211 260 328 387
#     4   8  20  44  70  82 130 162 218 274 360 382
#     4  10  21  43  66  95 122 167 214 278 335 393
#     4  12  24  35  63  86 129 173 221 255 329 397
#     4  10  21  44  60  93 122 170 214 284 328 395
#     4  12  24  37  59  89 131 174 213 265 315 401
#     4  10  22  38  67  93 127 163 220 264 328 392
#
# _framework density 20.68188
#
# number of rings (size 3 to 8) (size 9 to 14) (size 15 to 20)
#    0.000    1.600    5.333    0.800    7.467    0.000 
#    9.600    0.000    0.000    3.200    0.000    0.000 
#    0.000    0.000    0.000    0.000    0.000    0.000 
#
# Total GULP energy -371677.112387 kJ/mol
# GULP energy per Si atom -12389.237080 kJ/mol
# Density = 2.063481 g / cm^3
# Si number density = 20.681880 Si / 1000 Ang^3
#
#
#
# Elastic Constant Matrix: (Units=GPa)
#
#
# Indices 1 2 3 4 5 6 
#
# 1 61.8621 9.3964 16.1165 0.0000 0.0000 0.0000
# 2 9.3964 84.0420 16.9764 0.0000 0.0000 0.0000
# 3 16.1165 16.9764 80.8504 0.0000 0.0000 0.0000
# 4 0.0000 0.0000 0.0000 28.9262 0.0000 0.0000
# 5 0.0000 0.0000 0.0000 0.0000 36.4746 0.0000
# 6 0.0000 0.0000 0.0000 0.0000 0.0000 23.7434
#
#
#
# Elastic Compliance Matrix: (Units=1/GPa)
#
#
# Indices 1 2 3 4 5 6 
#
# 1 0.017182 -0.001284 -0.003155 0.000000 0.000000 0.000000
# 2 -0.001284 0.012522 -0.002373 0.000000 0.000000 0.000000
# 3 -0.003155 -0.002373 0.013496 0.000000 0.000000 0.000000
# 4 0.000000 0.000000 0.000000 0.034571 0.000000 0.000000
# 5 0.000000 0.000000 0.000000 0.000000 0.027416 0.000000
# 6 0.000000 0.000000 0.000000 0.000000 0.000000 0.042117
#
#
# Mechanical properties :
#
#
# Convention : Reuss Voigt Hill
#
# Bulk Modulus (GPa) = 33.81271 34.63702 34.22487
# Shear Modulus (GPa) = 29.27626 30.11319 29.69472
#
# Velocity S-wave (km/s) = 3.76646 3.81992 3.79329
# Velocity P-wave (km/s) = 5.94133 6.01993 5.98076
#
# Compressibility (1/GPa) = 0.02957467
#
# Stress axis : x y z
#
# Youngs Moduli (GPa) = 58.20031 79.86105 74.09676
#
# Poissons Ratio (x) = 0.10251 0.23381
# Poissons Ratio (y) = 0.07471 0.17586
# Poissons Ratio (z) = 0.18365 0.18954
#
# Static dielectric constant tensor:
#      x y z
#    x 3.755960 0.000000 0.000000 
#    y 0.000000 3.597410 0.000000 
#    z 0.000000 0.000000 4.078890 
# 
# 
# High freq. dielectric constant tensor:
#      x y z
#    x 1.804890 0.000000 0.000000 
#    y 0.000000 1.789240 0.000000 
#    z 0.000000 0.000000 1.810640 
# 
# From -- ./inp_files/4575.got.cif
#   From: 2010.03.12/outbox.cif.g09.slc.cpg/sg41_3_cif.got.tgz:4575.got - 2010.04.14 01:55:53.
