data_PCOD8185949
_publ_section_title
;
Structure prediction by ZEFSAII (Michael W. Deem and Ramdas Pophale) SiO2 
 PCOD8185949
Probable space group: F M M 2
;
_chemical_formula_sum "Si O2"
_cell_formula_units_Z 104
_cell_length_a 15.669274
_cell_length_b 15.280678
_cell_length_c 22.050653
_cell_angle_alpha 90.000000
_cell_angle_beta 90.000000
_cell_angle_gamma 90.000000
_cell_volume 5279.745080
_symmetry_space_group_name_H-M "F M M 2"
_symmetry_group_IT_number 42
_symmetry_cell_setting 'orthorhombic'
loop_
_space_group_symop_operation_xyz
x,y,z
-x,-y,z
-x,y,z
x,-y,z
x,1/2+y,1/2+z
-x,1/2-y,1/2+z
-x,1/2+y,1/2+z
x,1/2-y,1/2+z
1/2+x,y,1/2+z
1/2-x,-y,1/2+z
1/2-x,y,1/2+z
1/2+x,-y,1/2+z
1/2+x,1/2+y,z
1/2-x,1/2-y,z
1/2-x,1/2+y,z
1/2+x,1/2-y,z
loop_
_atom_site_type_symbol
_atom_site_label
_atom_site_fract_x
_atom_site_fract_y
_atom_site_fract_z
Si Si1 0.095042 0.356453 0.849820
Si Si2 0.100595 0.096759 0.218509
Si Si3 0.402537 0.401078 0.717540
Si Si4 0.900042 0.746727 0.627647
Si Si5 0.250000 0.250000 0.033271
Si Si6 0.670375 0.685442 0.832410
Si Si7 0.758655 0.901492 0.437270
O O1 0.137030 0.389974 0.786381
O O2 0.091661 0.250198 0.847473
O O3 0.149538 0.393081 0.905353
O O4 0.000000 0.392993 0.858855
O O5 0.134183 0.170138 0.172313
O O6 0.000000 0.108877 0.223711
O O7 0.126048 0.000000 0.194591
O O8 0.500000 0.394665 0.739690
O O9 0.378179 0.500000 0.698793
O O10 0.387638 0.340223 0.659520
O O11 0.343146 0.371426 0.772583
O O12 0.837977 0.744922 0.570450
O O13 0.000000 0.732775 0.608955
O O14 0.246310 0.337166 0.993743
O O15 0.750000 0.750000 0.823953
O O16 0.684568 0.621054 0.889019
O O17 0.745305 0.000000 0.460994
#
# Coordination Sequence:
#
# PCOD8185949 Si02
#       7
#    16  16  16  16   8  16  16
#     4  10  18  34  63  92 120 151 185 236 305 363
#     4   9  17  32  58  92 123 150 186 236 298 363
#     4  10  20  36  61  94 125 152 186 233 297 369
#     4  10  23  41  61  85 119 159 200 249 294 347
#     4  12  26  44  60  82 112 162 216 252 292 336
#     4  10  19  35  59  88 121 155 187 234 298 360
#     4  11  24  42  58  83 119 153 201 251 291 350
#
# _framework density 19.69792
#
# number of rings (size 3 to 8) (size 9 to 14) (size 15 to 20)
#    0.000    1.846    3.846    1.385    1.077    2.769 
#    0.000    3.077    0.000    1.846    0.000    0.000 
#    0.000    0.000    0.000    0.000    0.000    0.000 
#
# Total GULP energy -322343.533107 kJ/mol
# GULP energy per Si atom -12397.828196 kJ/mol
# Density = 1.965309 g / cm^3
# Si number density = 19.697920 Si / 1000 Ang^3
#
#
#
# Elastic Constant Matrix: (Units=GPa)
#
#
# Indices 1 2 3 4 5 6 
#
# 1 63.2443 29.1814 50.9569 0.0000 0.0000 0.0000
# 2 29.1814 176.1259 67.0840 0.0000 0.0000 0.0000
# 3 50.9569 67.0840 128.6340 0.0000 0.0000 0.0000
# 4 0.0000 0.0000 0.0000 13.8064 0.0000 0.0000
# 5 0.0000 0.0000 0.0000 0.0000 24.9703 0.0000
# 6 0.0000 0.0000 0.0000 0.0000 0.0000 15.9545
#
#
#
# Elastic Compliance Matrix: (Units=1/GPa)
#
#
# Indices 1 2 3 4 5 6 
#
# 1 0.023250 -0.000429 -0.008986 0.000000 0.000000 0.000000
# 2 -0.000429 0.007093 -0.003529 0.000000 0.000000 0.000000
# 3 -0.008986 -0.003529 0.013174 0.000000 0.000000 0.000000
# 4 0.000000 0.000000 0.000000 0.072430 0.000000 0.000000
# 5 0.000000 0.000000 0.000000 0.000000 0.040048 0.000000
# 6 0.000000 0.000000 0.000000 0.000000 0.000000 0.062678
#
#
# Mechanical properties :
#
#
# Convention : Reuss Voigt Hill
#
# Bulk Modulus (GPa) = 56.72795 73.60543 65.16669
# Shear Modulus (GPa) = 19.96492 25.66503 22.81498
#
# Velocity S-wave (km/s) = 3.18709 3.61353 3.40699
# Velocity P-wave (km/s) = 6.51190 7.40664 6.97364
#
# Compressibility (1/GPa) = 0.01762800
#
# Stress axis : x y z
#
# Youngs Moduli (GPa) = 43.01014 140.98300 75.90550
#
# Poissons Ratio (x) = 0.06054 0.68212
# Poissons Ratio (y) = 0.01847 0.26787
# Poissons Ratio (z) = 0.38651 0.49753
#
# Static dielectric constant tensor:
#      x y z
#    x 3.612340 0.000000 0.000000 
#    y 0.000000 3.885630 0.000000 
#    z 0.000000 0.000000 3.369670 
# 
# 
# High freq. dielectric constant tensor:
#      x y z
#    x 1.760650 0.000000 0.000000 
#    y 0.000000 1.783050 0.000000 
#    z 0.000000 0.000000 1.743640 
# 
# From -- ./inp_files/25936.got.cif
#   From: 2010.03.12/outbox.cif.g09.slc.cpg/sg42_13_cif.got.tgz:25936.got - 2010.04.14 02:04:31.
