data_PCOD8185463
_publ_section_title
;
Structure prediction by ZEFSAII (Michael W. Deem and Ramdas Pophale) SiO2 
 PCOD8185463
Probable space group: A B A 2
;
_chemical_formula_sum "Si O2"
_cell_formula_units_Z 64
_cell_length_a 10.053375
_cell_length_b 22.313425
_cell_length_c 13.489884
_cell_angle_alpha 90.000000
_cell_angle_beta 90.000000
_cell_angle_gamma 90.000000
_cell_volume 3026.121318
_symmetry_space_group_name_H-M "A B A 2"
_symmetry_group_IT_number 41
_symmetry_cell_setting 'orthorhombic'
loop_
_space_group_symop_operation_xyz
x,y,z
-x,-y,z
1/2-x,y,1/2+z
1/2+x,-y,1/2+z
x,1/2+y,1/2+z
-x,1/2-y,1/2+z
1/2-x,1/2+y,z
1/2+x,1/2-y,z
loop_
_atom_site_type_symbol
_atom_site_label
_atom_site_fract_x
_atom_site_fract_y
_atom_site_fract_z
Si Si1 0.053076 0.434052 0.930340
Si Si2 0.295809 0.156757 0.701556
Si Si3 0.603132 0.186682 0.354523
Si Si4 0.293928 0.877900 0.533446
Si Si5 0.813794 0.282824 0.383137
Si Si6 0.964828 0.067577 0.207810
Si Si7 0.383881 0.788609 0.139163
Si Si8 0.377122 0.161195 0.029783
O O1 0.173844 0.421707 0.004624
O O2 0.103405 0.427873 0.816536
O O3 0.000000 0.500000 0.952134
O O4 0.935491 0.386810 0.953049
O O5 0.216959 0.165732 0.803468
O O6 0.404153 0.106598 0.715857
O O7 0.361897 0.219954 0.669248
O O8 0.188663 0.129772 0.624977
O O9 0.615895 0.132832 0.434467
O O10 0.744915 0.220568 0.355135
O O11 0.474053 0.226158 0.388414
O O12 0.588243 0.170212 0.237909
O O13 0.373528 0.909776 0.619847
O O14 0.240546 0.814842 0.577261
O O15 0.748712 0.302973 0.485807
O O16 0.000000 0.000000 0.181648
O O17 0.511467 0.791837 0.067155
#
# Coordination Sequence:
#
# PCOD8185463 Si02
#       8
#     8   8   8   8   8   8   8   8
#     4  10  24  45  68  93 128 175 226 282 332 402
#     4  11  23  40  65  93 132 170 219 273 332 409
#     4  11  24  42  61  99 139 171 219 268 339 409
#     4  11  24  41  70  96 133 173 224 279 340 404
#     4  11  24  38  63  97 135 176 212 274 332 405
#     4  11  25  45  66  95 130 179 228 273 336 397
#     4  10  24  39  65  99 133 172 208 276 343 411
#     4  11  22  40  64  93 129 167 223 261 347 392
#
# _framework density 21.149184000000002
#
# number of rings (size 3 to 8) (size 9 to 14) (size 15 to 20)
#    0.000    1.250    2.500    2.250   10.500    1.000 
#    0.000    0.000    0.000    1.500    0.000    0.000 
#    0.000    0.000    0.000    0.000    0.000    0.000 
#
# Total GULP energy -396648.321769 kJ/mol
# GULP energy per Si atom -12395.260055 kJ/mol
# Density = 2.110105 g / cm^3
# Si number density = 21.149184 Si / 1000 Ang^3
#
#
#
# Elastic Constant Matrix: (Units=GPa)
#
#
# Indices 1 2 3 4 5 6 
#
# 1 75.9841 8.4913 22.8012 0.0000 0.0000 0.0000
# 2 8.4913 71.9322 20.3767 0.0000 0.0000 0.0000
# 3 22.8012 20.3767 121.6970 0.0000 0.0000 0.0000
# 4 0.0000 0.0000 0.0000 27.2457 0.0000 0.0000
# 5 0.0000 0.0000 0.0000 0.0000 37.5543 0.0000
# 6 0.0000 0.0000 0.0000 0.0000 0.0000 16.2503
#
#
#
# Elastic Compliance Matrix: (Units=1/GPa)
#
#
# Indices 1 2 3 4 5 6 
#
# 1 0.014007 -0.000955 -0.002464 0.000000 0.000000 0.000000
# 2 -0.000955 0.014659 -0.002276 0.000000 0.000000 0.000000
# 3 -0.002464 -0.002276 0.009060 0.000000 0.000000 0.000000
# 4 0.000000 0.000000 0.000000 0.036703 0.000000 0.000000
# 5 0.000000 0.000000 0.000000 0.000000 0.026628 0.000000
# 6 0.000000 0.000000 0.000000 0.000000 0.000000 0.061537
#
#
# Mechanical properties :
#
#
# Convention : Reuss Voigt Hill
#
# Bulk Modulus (GPa) = 37.97141 41.43907 39.70524
# Shear Modulus (GPa) = 27.35773 30.73967 29.04870
#
# Velocity S-wave (km/s) = 3.60051 3.81657 3.71012
# Velocity P-wave (km/s) = 5.93953 6.24963 6.09655
#
# Compressibility (1/GPa) = 0.02633560
#
# Stress axis : x y z
#
# Youngs Moduli (GPa) = 71.39336 68.21580 110.37684
#
# Poissons Ratio (x) = 0.06517 0.27201
# Poissons Ratio (y) = 0.06821 0.25117
# Poissons Ratio (z) = 0.17594 0.15523
#
# Static dielectric constant tensor:
#      x y z
#    x 3.907970 0.000000 0.000000 
#    y 0.000000 3.492280 0.000000 
#    z 0.000000 0.000000 4.396560 
# 
# 
# High freq. dielectric constant tensor:
#      x y z
#    x 1.832070 0.000000 0.000000 
#    y 0.000000 1.789040 0.000000 
#    z 0.000000 0.000000 1.863730 
# 
# From -- ./inp_files/7589.got.cif
#   From: 2010.03.12/outbox.cif.g09.slc.cpg/sg41_4_cif.got.tgz:7589.got - 2010.04.14 01:55:53.
