data_PCOD8185118
_publ_section_title
;
Structure prediction by ZEFSAII (Michael W. Deem and Ramdas Pophale) SiO2 
 PCOD8185118
Probable space group: A B A 2
;
_chemical_formula_sum "Si O2"
_cell_formula_units_Z 60
_cell_length_a 17.426122
_cell_length_b 18.725941
_cell_length_c 8.758305
_cell_angle_alpha 90.000000
_cell_angle_beta 90.000000
_cell_angle_gamma 90.000000
_cell_volume 2858.014751
_symmetry_space_group_name_H-M "A B A 2"
_symmetry_group_IT_number 41
_symmetry_cell_setting 'orthorhombic'
loop_
_space_group_symop_operation_xyz
x,y,z
-x,-y,z
1/2-x,y,1/2+z
1/2+x,-y,1/2+z
x,1/2+y,1/2+z
-x,1/2-y,1/2+z
1/2-x,1/2+y,z
1/2+x,1/2-y,z
loop_
_atom_site_type_symbol
_atom_site_label
_atom_site_fract_x
_atom_site_fract_y
_atom_site_fract_z
Si Si1 0.384446 0.532062 0.126260
Si Si2 0.000000 0.000000 0.678727
Si Si3 0.873247 0.523254 0.944255
Si Si4 0.023489 0.122399 0.910939
Si Si5 0.144869 0.387709 0.474273
Si Si6 0.212700 0.350656 0.800030
Si Si7 0.671232 0.310395 0.812785
Si Si8 0.235724 0.602010 0.054024
O O1 0.413512 0.500034 0.285749
O O2 0.372956 0.471714 0.994371
O O3 0.303397 0.570500 0.160554
O O4 0.448832 0.587142 0.069890
O O5 0.967816 0.935948 0.778902
O O6 0.064974 0.964806 0.574709
O O7 0.833624 0.599358 0.916362
O O8 0.814190 0.464070 0.999721
O O9 0.081282 0.185771 0.860941
O O10 0.937053 0.151149 0.940009
O O11 0.187904 0.359561 0.624833
O O12 0.197853 0.371659 0.326442
O O13 0.198993 0.269177 0.843820
O O14 0.684596 0.337912 0.639661
O O15 0.723002 0.362909 0.910909
#
# Coordination Sequence:
#
# PCOD8185118 Si02
#       8
#     8   4   8   8   8   8   8   8
#     4  10  21  38  65  98 130 166 218 276 334 375
#     4  12  24  38  68  98 134 164 232 282 336 388
#     4  11  24  39  65 101 126 176 224 283 318 400
#     4  11  24  42  67  95 138 170 216 279 342 387
#     4  11  23  42  67  93 131 173 220 279 328 398
#     4  11  26  43  66  96 136 174 230 270 339 407
#     4  11  24  45  64 100 134 180 218 273 342 407
#     4  11  20  40  68  92 131 172 225 271 321 398
#
# _framework density 20.993594000000002
#
# number of rings (size 3 to 8) (size 9 to 14) (size 15 to 20)
#    0.000    1.067    5.333    0.800    5.600    0.000 
#    2.400    1.333    0.000    0.000    0.000    0.000 
#    0.000    0.000    0.000    0.000    0.000    0.000 
#
# Total GULP energy -371980.136286 kJ/mol
# GULP energy per Si atom -12399.337876 kJ/mol
# Density = 2.094581 g / cm^3
# Si number density = 20.993594 Si / 1000 Ang^3
#
#
#
# Elastic Constant Matrix: (Units=GPa)
#
#
# Indices 1 2 3 4 5 6 
#
# 1 128.0583 14.0521 35.1662 0.0000 0.0000 0.0000
# 2 14.0521 67.9498 5.2320 0.0000 0.0000 0.0000
# 3 35.1662 5.2320 65.2772 0.0000 0.0000 0.0000
# 4 0.0000 0.0000 0.0000 22.0646 0.0000 0.0000
# 5 0.0000 0.0000 0.0000 0.0000 30.0304 0.0000
# 6 0.0000 0.0000 0.0000 0.0000 0.0000 16.4682
#
#
#
# Elastic Compliance Matrix: (Units=1/GPa)
#
#
# Indices 1 2 3 4 5 6 
#
# 1 0.009324 -0.001551 -0.004899 0.000000 0.000000 0.000000
# 2 -0.001551 0.015066 -0.000372 0.000000 0.000000 0.000000
# 3 -0.004899 -0.000372 0.017988 0.000000 0.000000 0.000000
# 4 0.000000 0.000000 0.000000 0.045321 0.000000 0.000000
# 5 0.000000 0.000000 0.000000 0.000000 0.033300 0.000000
# 6 0.000000 0.000000 0.000000 0.000000 0.000000 0.060723
#
#
# Mechanical properties :
#
#
# Convention : Reuss Voigt Hill
#
# Bulk Modulus (GPa) = 34.80095 41.13177 37.96636
# Shear Modulus (GPa) = 24.39675 27.50163 25.94919
#
# Velocity S-wave (km/s) = 3.41266 3.62332 3.51957
# Velocity P-wave (km/s) = 5.66933 6.09423 5.88562
#
# Compressibility (1/GPa) = 0.02873485
#
# Stress axis : x y z
#
# Youngs Moduli (GPa) = 107.24485 66.37397 55.59177
#
# Poissons Ratio (x) = 0.10295 0.27234
# Poissons Ratio (y) = 0.16635 0.02068
# Poissons Ratio (z) = 0.52539 0.02469
#
# Static dielectric constant tensor:
#      x y z
#    x 4.053990 0.000000 0.000000 
#    y 0.000000 3.574400 0.000000 
#    z 0.000000 0.000000 3.855630 
# 
# 
# High freq. dielectric constant tensor:
#      x y z
#    x 1.831600 0.000000 0.000000 
#    y 0.000000 1.799340 0.000000 
#    z 0.000000 0.000000 1.828660 
# 
# From -- ./inp_files/3153.got.cif
#   From: 2010.03.12/outbox.cif.g09.slc.cpg/sg41_2_cif.got.tgz:3153.got - 2010.04.14 01:55:53.
