data_PCOD8185378
_publ_section_title
;
Structure prediction by ZEFSAII (Michael W. Deem and Ramdas Pophale) SiO2 
 PCOD8185378
Probable space group: A B A 2
;
_chemical_formula_sum "Si O2"
_cell_formula_units_Z 40
_cell_length_a 14.832531
_cell_length_b 10.530597
_cell_length_c 10.518030
_cell_angle_alpha 90.000000
_cell_angle_beta 90.000000
_cell_angle_gamma 90.000000
_cell_volume 1642.867971
_symmetry_space_group_name_H-M "A B A 2"
_symmetry_group_IT_number 41
_symmetry_cell_setting 'orthorhombic'
loop_
_space_group_symop_operation_xyz
x,y,z
-x,-y,z
1/2-x,y,1/2+z
1/2+x,-y,1/2+z
x,1/2+y,1/2+z
-x,1/2-y,1/2+z
1/2-x,1/2+y,z
1/2+x,1/2-y,z
loop_
_atom_site_type_symbol
_atom_site_label
_atom_site_fract_x
_atom_site_fract_y
_atom_site_fract_z
Si Si1 0.819150 0.515766 0.391580
Si Si2 0.000000 0.500000 0.541385
Si Si3 0.031582 0.802425 0.256129
Si Si4 0.892785 0.624232 0.149987
Si Si5 0.303057 0.253654 0.436039
Si Si6 0.000000 0.000000 0.448526
O O1 0.914884 0.472940 0.451091
O O2 0.826221 0.549880 0.242774
O O3 0.773508 0.638942 0.453157
O O4 0.760375 0.386189 0.409827
O O5 0.967638 0.619737 0.624905
O O6 0.130891 0.782906 0.315576
O O7 0.980838 0.669362 0.230140
O O8 0.973597 0.880030 0.360852
O O9 0.850347 0.745709 0.076092
O O10 0.914463 0.525508 0.037516
#
# Coordination Sequence:
#
# PCOD8185378 Si02
#       6
#     8   4   8   8   8   4
#     4  12  27  47  75 112 155 206 257 319 401 460
#     4  11  23  46  78 106 155 207 256 314 392 483
#     4  10  22  44  75 105 144 197 257 315 385 465
#     4  11  23  45  74 102 150 195 252 316 388 469
#     4  11  27  47  71 116 151 202 260 330 388 466
#     4   9  21  38  68 108 135 183 252 306 366 459
#
# _framework density 24.347666
#
# number of rings (size 3 to 8) (size 9 to 14) (size 15 to 20)
#    0.000    1.200    2.000    3.000    5.600    6.400 
#    0.000    0.000    0.000    0.000    0.000    0.000 
#    0.000    0.000    0.000    0.000    0.000    0.000 
#
# Total GULP energy -247851.571079 kJ/mol
# GULP energy per Si atom -12392.578554 kJ/mol
# Density = 2.429225 g / cm^3
# Si number density = 24.347666 Si / 1000 Ang^3
#
#
#
# Elastic Constant Matrix: (Units=GPa)
#
#
# Indices 1 2 3 4 5 6 
#
# 1 64.0391 28.9487 19.3252 0.0000 0.0000 0.0000
# 2 28.9487 145.4327 33.9588 0.0000 0.0000 0.0000
# 3 19.3252 33.9588 119.8397 0.0000 0.0000 0.0000
# 4 0.0000 0.0000 0.0000 28.5744 0.0000 0.0000
# 5 0.0000 0.0000 0.0000 0.0000 26.2212 0.0000
# 6 0.0000 0.0000 0.0000 0.0000 0.0000 36.6553
#
#
#
# Elastic Compliance Matrix: (Units=1/GPa)
#
#
# Indices 1 2 3 4 5 6 
#
# 1 0.017585 -0.003039 -0.001975 0.000000 0.000000 0.000000
# 2 -0.003039 0.007889 -0.001745 0.000000 0.000000 0.000000
# 3 -0.001975 -0.001745 0.009157 0.000000 0.000000 0.000000
# 4 0.000000 0.000000 0.000000 0.034996 0.000000 0.000000
# 5 0.000000 0.000000 0.000000 0.000000 0.038137 0.000000
# 6 0.000000 0.000000 0.000000 0.000000 0.000000 0.027281
#
#
# Mechanical properties :
#
#
# Convention : Reuss Voigt Hill
#
# Bulk Modulus (GPa) = 47.36415 54.86409 51.11412
# Shear Modulus (GPa) = 32.13332 34.76210 33.44771
#
# Velocity S-wave (km/s) = 3.63681 3.78264 3.71044
# Velocity P-wave (km/s) = 6.09349 6.45448 6.27658
#
# Compressibility (1/GPa) = 0.02111302
#
# Stress axis : x y z
#
# Youngs Moduli (GPa) = 56.86592 126.76631 109.20086
#
# Poissons Ratio (x) = 0.38528 0.21562
# Poissons Ratio (y) = 0.17283 0.19058
# Poissons Ratio (z) = 0.11228 0.22124
#
# Static dielectric constant tensor:
#      x y z
#    x 3.998530 0.000000 0.000000 
#    y 0.000000 4.583240 0.000000 
#    z 0.000000 0.000000 4.600010 
# 
# 
# High freq. dielectric constant tensor:
#      x y z
#    x 1.929770 0.000000 0.000000 
#    y 0.000000 1.975420 0.000000 
#    z 0.000000 0.000000 1.984060 
# 
# From -- ./inp_files/2936.got.cif
#   From: 2010.03.12/outbox.cif.g09.slc.cpg/sg41_2_cif.got.tgz:2936.got - 2010.04.14 01:55:53.
