data_PCOD8185770
_publ_section_title
;
Structure prediction by ZEFSAII (Michael W. Deem and Ramdas Pophale) SiO2 
 PCOD8185770
Probable space group: F M M 2
;
_chemical_formula_sum "Si O2"
_cell_formula_units_Z 80
_cell_length_a 18.575659
_cell_length_b 8.706383
_cell_length_c 26.278488
_cell_angle_alpha 90.000000
_cell_angle_beta 90.000000
_cell_angle_gamma 90.000000
_cell_volume 4249.935819
_symmetry_space_group_name_H-M "F M M 2"
_symmetry_group_IT_number 42
_symmetry_cell_setting 'orthorhombic'
loop_
_space_group_symop_operation_xyz
x,y,z
-x,-y,z
-x,y,z
x,-y,z
x,1/2+y,1/2+z
-x,1/2-y,1/2+z
-x,1/2+y,1/2+z
x,1/2-y,1/2+z
1/2+x,y,1/2+z
1/2-x,-y,1/2+z
1/2-x,y,1/2+z
1/2+x,-y,1/2+z
1/2+x,1/2+y,z
1/2-x,1/2-y,z
1/2-x,1/2+y,z
1/2+x,1/2-y,z
loop_
_atom_site_type_symbol
_atom_site_label
_atom_site_fract_x
_atom_site_fract_y
_atom_site_fract_z
Si Si1 0.170084 0.681893 0.706930
Si Si2 0.671226 0.819755 0.306477
Si Si3 0.916136 0.679338 0.514299
Si Si4 0.672184 0.320770 0.917763
Si Si5 0.828663 0.680889 0.104235
O O1 0.170340 0.500000 0.704837
O O2 0.250000 0.750000 0.708498
O O3 0.129496 0.739739 0.758705
O O4 0.134730 0.748234 0.655376
O O5 0.750000 0.750000 0.308824
O O6 0.637439 0.781549 0.362039
O O7 0.674559 0.000000 0.295734
O O8 0.900644 0.500000 0.524322
O O9 0.883271 0.735247 0.460599
O O10 0.880953 0.780047 0.558187
O O11 0.000000 0.715633 0.512688
O O12 0.685099 0.500000 0.921487
O O13 0.750000 0.250000 0.927384
O O14 0.820789 0.500000 0.110676
O O15 0.750000 0.750000 0.093512
#
# Coordination Sequence:
#
# PCOD8185770 Si02
#       5
#    16  16  16  16  16
#     4  10  17  27  45  71 101 131 163 201 251 301
#     4   9  15  25  42  68 100 129 160 200 247 296
#     4  10  21  37  54  73 101 136 172 211 257 305
#     4   9  18  31  50  75 101 132 167 205 249 297
#     4  11  21  34  53  77 104 133 170 212 255 302
#
# _framework density 18.823813000000001
#
# number of rings (size 3 to 8) (size 9 to 14) (size 15 to 20)
#    0.000    2.200    0.000    7.200    0.000    3.600 
#    0.000    0.000    0.000    1.200    0.000    2.800 
#    0.000    0.000    0.000    0.000    0.000    0.000 
#
# Total GULP energy -247843.765190 kJ/mol
# GULP energy per Si atom -12392.188260 kJ/mol
# Density = 1.878097 g / cm^3
# Si number density = 18.823813 Si / 1000 Ang^3
#
#
#
# Elastic Constant Matrix: (Units=GPa)
#
#
# Indices 1 2 3 4 5 6 
#
# 1 57.4599 30.0976 52.5778 0.0000 0.0000 0.0000
# 2 30.0976 126.2459 75.5490 0.0000 0.0000 0.0000
# 3 52.5778 75.5490 204.6515 0.0000 0.0000 0.0000
# 4 0.0000 0.0000 0.0000 36.3064 0.0000 0.0000
# 5 0.0000 0.0000 0.0000 0.0000 -3.5843 0.0000
# 6 0.0000 0.0000 0.0000 0.0000 0.0000 15.6208
#
#
#
# Elastic Compliance Matrix: (Units=1/GPa)
#
#
# Indices 1 2 3 4 5 6 
#
# 1 0.023370 -0.002539 -0.005067 0.000000 0.000000 0.000000
# 2 -0.002539 0.010443 -0.003203 0.000000 0.000000 0.000000
# 3 -0.005067 -0.003203 0.007370 0.000000 0.000000 0.000000
# 4 0.000000 0.000000 0.000000 0.027543 0.000000 0.000000
# 5 0.000000 0.000000 0.000000 0.000000 -0.278995 0.000000
# 6 0.000000 0.000000 0.000000 0.000000 0.000000 0.064017
#
#
# Mechanical properties :
#
#
# Convention : Reuss Voigt Hill
#
# Bulk Modulus (GPa) = 51.11006 78.31178 64.71092
# Shear Modulus (GPa) = -42.33285 25.01077 -8.66104
#
# Velocity S-wave (km/s) = -4.74740 3.64906 -2.14735
# Velocity P-wave (km/s) = 1.68513 7.71019 5.32012
#
# Compressibility (1/GPa) = 0.01956562
#
# Stress axis : x y z
#
# Youngs Moduli (GPa) = 42.79048 95.75720 135.67912
#
# Poissons Ratio (x) = 0.24317 0.68742
# Poissons Ratio (y) = 0.10867 0.43454
# Poissons Ratio (z) = 0.21680 0.30668
#
# Static dielectric constant tensor:
#      x y z
#    x 2.885550 0.000000 0.000000 
#    y 0.000000 3.454020 0.000000 
#    z 0.000000 0.000000 5.149570 
# 
# 
# High freq. dielectric constant tensor:
#      x y z
#    x 1.661060 0.000000 0.000000 
#    y 0.000000 1.739030 0.000000 
#    z 0.000000 0.000000 1.768720 
# 
# From -- ./inp_files/31244.got.cif
#   From: 2010.03.12/outbox.cif.g09.slc.cpg/sg42_16_cif.got.tgz:31244.got - 2010.04.14 02:04:31.
