data_PCOD8185638
_publ_section_title
;
Structure prediction by ZEFSAII (Michael W. Deem and Ramdas Pophale) SiO2 
 PCOD8185638
Probable space group: A B A 2
;
_chemical_formula_sum "Si O2"
_cell_formula_units_Z 40
_cell_length_a 8.904448
_cell_length_b 9.955320
_cell_length_c 19.883326
_cell_angle_alpha 90.000000
_cell_angle_beta 90.000000
_cell_angle_gamma 90.000000
_cell_volume 1762.589828
_symmetry_space_group_name_H-M "A B A 2"
_symmetry_group_IT_number 41
_symmetry_cell_setting 'orthorhombic'
loop_
_space_group_symop_operation_xyz
x,y,z
-x,-y,z
1/2-x,y,1/2+z
1/2+x,-y,1/2+z
x,1/2+y,1/2+z
-x,1/2-y,1/2+z
1/2-x,1/2+y,z
1/2+x,1/2-y,z
loop_
_atom_site_type_symbol
_atom_site_label
_atom_site_fract_x
_atom_site_fract_y
_atom_site_fract_z
Si Si1 0.533614 0.656152 0.794270
Si Si2 0.205473 0.280829 0.709851
Si Si3 0.327988 0.523011 0.635249
Si Si4 0.937861 0.854192 0.942662
Si Si5 0.109733 0.112048 0.486344
O O1 0.500000 0.500000 0.782427
O O2 0.707147 0.682234 0.778564
O O3 0.460248 0.755111 0.738590
O O4 0.492193 0.696586 0.869780
O O5 0.224397 0.394667 0.652698
O O6 0.254273 0.143230 0.673893
O O7 0.500000 0.500000 0.660020
O O8 0.329127 0.553968 0.556386
O O9 0.756797 0.856705 0.941940
O O10 0.009642 0.747429 0.995168
O O11 0.000000 0.000000 0.961408
O O12 0.000000 0.000000 0.452658
#
# Coordination Sequence:
#
# PCOD8185638 Si02
#       5
#     8   8   8   8   8
#     4  11  24  45  67 104 142 177 237 291 347 434
#     4  12  21  46  68  97 141 180 223 299 352 413
#     4  11  26  44  68 102 144 177 238 294 351 435
#     4  11  25  46  74 101 144 194 238 298 362 431
#     4  11  26  47  69 108 141 186 246 298 358 433
#
# _framework density 22.69388
#
# number of rings (size 3 to 8) (size 9 to 14) (size 15 to 20)
#    0.000    0.800    4.000    2.400    8.400    2.400 
#    3.600    0.000    0.000    0.000    0.000    0.000 
#    0.000    0.000    0.000    0.000    0.000    0.000 
#
# Total GULP energy -247872.684176 kJ/mol
# GULP energy per Si atom -12393.634209 kJ/mol
# Density = 2.264223 g / cm^3
# Si number density = 22.693880 Si / 1000 Ang^3
#
#
#
# Elastic Constant Matrix: (Units=GPa)
#
#
# Indices 1 2 3 4 5 6 
#
# 1 81.6430 40.7781 19.6140 0.0000 0.0000 0.0000
# 2 40.7781 159.0504 33.5113 0.0000 0.0000 0.0000
# 3 19.6140 33.5113 100.3120 0.0000 0.0000 0.0000
# 4 0.0000 0.0000 0.0000 35.5081 0.0000 0.0000
# 5 0.0000 0.0000 0.0000 0.0000 12.6245 0.0000
# 6 0.0000 0.0000 0.0000 0.0000 0.0000 51.6113
#
#
#
# Elastic Compliance Matrix: (Units=1/GPa)
#
#
# Indices 1 2 3 4 5 6 
#
# 1 0.014309 -0.003312 -0.001691 0.000000 0.000000 0.000000
# 2 -0.003312 0.007530 -0.001868 0.000000 0.000000 0.000000
# 3 -0.001691 -0.001868 0.010924 0.000000 0.000000 0.000000
# 4 0.000000 0.000000 0.000000 0.028163 0.000000 0.000000
# 5 0.000000 0.000000 0.000000 0.000000 0.079211 0.000000
# 6 0.000000 0.000000 0.000000 0.000000 0.000000 0.019376
#
#
# Mechanical properties :
#
#
# Convention : Reuss Voigt Hill
#
# Bulk Modulus (GPa) = 52.57687 58.75693 55.66690
# Shear Modulus (GPa) = 27.84035 36.42223 32.13129
#
# Velocity S-wave (km/s) = 3.50634 4.01051 3.76687
# Velocity P-wave (km/s) = 6.29370 6.88425 6.59559
#
# Compressibility (1/GPa) = 0.01901977
#
# Stress axis : x y z
#
# Youngs Moduli (GPa) = 69.88533 132.80029 91.54471
#
# Poissons Ratio (x) = 0.43987 0.15483
# Poissons Ratio (y) = 0.23148 0.17100
# Poissons Ratio (z) = 0.11820 0.24806
#
# Static dielectric constant tensor:
#      x y z
#    x 4.017780 0.000000 0.000000 
#    y 0.000000 4.270890 0.000000 
#    z 0.000000 0.000000 4.010440 
# 
# 
# High freq. dielectric constant tensor:
#      x y z
#    x 1.889910 0.000000 0.000000 
#    y 0.000000 1.906020 0.000000 
#    z 0.000000 0.000000 1.892850 
# 
# From -- ./inp_files/11916.got.cif
#   From: 2010.03.12/outbox.cif.g09.slc.cpg/sg41_6_cif.got.tgz:11916.got - 2010.04.14 01:55:53.
