data_PCOD8185862
_publ_section_title
;
Structure prediction by ZEFSAII (Michael W. Deem and Ramdas Pophale) SiO2 
 PCOD8185862
Probable space group: F M M 2
;
_chemical_formula_sum "Si O2"
_cell_formula_units_Z 96
_cell_length_a 25.257403
_cell_length_b 8.803341
_cell_length_c 25.047418
_cell_angle_alpha 90.000000
_cell_angle_beta 90.000000
_cell_angle_gamma 90.000000
_cell_volume 5569.281655
_symmetry_space_group_name_H-M "F M M 2"
_symmetry_group_IT_number 42
_symmetry_cell_setting 'orthorhombic'
loop_
_space_group_symop_operation_xyz
x,y,z
-x,-y,z
-x,y,z
x,-y,z
x,1/2+y,1/2+z
-x,1/2-y,1/2+z
-x,1/2+y,1/2+z
x,1/2-y,1/2+z
1/2+x,y,1/2+z
1/2-x,-y,1/2+z
1/2-x,y,1/2+z
1/2+x,-y,1/2+z
1/2+x,1/2+y,z
1/2-x,1/2-y,z
1/2-x,1/2+y,z
1/2+x,1/2-y,z
loop_
_atom_site_type_symbol
_atom_site_label
_atom_site_fract_x
_atom_site_fract_y
_atom_site_fract_z
Si Si1 0.500000 0.327384 0.659631
Si Si2 0.693672 0.675512 0.249296
Si Si3 0.191692 0.319957 0.471447
Si Si4 0.891522 0.176718 0.547349
Si Si5 0.500000 0.177604 0.550113
Si Si6 0.807447 0.821274 0.366299
Si Si7 0.114164 0.170193 0.673244
O O1 0.500000 0.500000 0.634203
O O2 0.500000 0.202180 0.613538
O O3 0.446503 0.307344 0.694354
O O4 0.705774 0.500000 0.246361
O O5 0.750000 0.750000 0.238068
O O6 0.668267 0.715668 0.307687
O O7 0.652045 0.715914 0.203786
O O8 0.195895 0.500000 0.470892
O O9 0.250000 0.250000 0.478104
O O10 0.156452 0.266368 0.520661
O O11 0.163617 0.260608 0.416250
O O12 0.947187 0.244652 0.526048
O O13 0.885176 0.203734 0.610401
O O14 0.888874 0.000000 0.532319
O O15 0.500000 0.000000 0.536323
O O16 0.750000 0.750000 0.364773
O O17 0.805164 0.000000 0.377705
O O18 0.133940 0.000000 0.685283
#
# Coordination Sequence:
#
# PCOD8185862 Si02
#       7
#     8  16  16  16   8  16  16
#     4   8  16  32  50  69  94 129 166 198 238 288
#     4  10  20  32  49  72  99 129 162 199 242 289
#     4  11  21  33  51  75 100 129 163 203 247 294
#     4  10  20  35  52  72 100 134 166 201 244 291
#     4  10  18  30  50  75  98 125 164 206 242 286
#     4   9  17  31  49  69  93 125 163 201 240 288
#     4   9  18  32  51  72  97 128 162 198 240 287
#
# _framework density 17.237411000000002
#
# number of rings (size 3 to 8) (size 9 to 14) (size 15 to 20)
#    0.000    2.333    0.000    5.750    0.000    6.000 
#    0.000    0.000    0.000    1.000    0.000    2.333 
#    0.000    0.000    0.000    0.000    0.000    0.000 
#
# Total GULP energy -297417.820748 kJ/mol
# GULP energy per Si atom -12392.409198 kJ/mol
# Density = 1.719818 g / cm^3
# Si number density = 17.237411 Si / 1000 Ang^3
#
#
#
# Elastic Constant Matrix: (Units=GPa)
#
#
# Indices 1 2 3 4 5 6 
#
# 1 100.2347 45.6056 48.3112 0.0000 0.0000 -0.0001
# 2 45.6056 106.0583 39.1986 0.0000 0.0000 -0.0001
# 3 48.3112 39.1986 68.1779 0.0000 0.0000 0.0000
# 4 0.0000 0.0000 0.0000 25.5402 0.0000 0.0000
# 5 0.0000 0.0000 0.0000 0.0000 1.3169 0.0000
# 6 -0.0001 -0.0001 0.0000 0.0000 0.0000 29.3417
#
#
#
# Elastic Compliance Matrix: (Units=1/GPa)
#
#
# Indices 1 2 3 4 5 6 
#
# 1 0.016078 -0.003432 -0.009420 0.000000 0.000000 0.000000
# 2 -0.003432 0.012706 -0.004873 0.000000 0.000000 0.000000
# 3 -0.009420 -0.004873 0.024144 0.000000 0.000000 0.000000
# 4 0.000000 0.000000 0.000000 0.039154 0.000000 0.000000
# 5 0.000000 0.000000 0.000000 0.000000 0.759378 -0.000001
# 6 0.000000 0.000000 0.000000 0.000000 -0.000001 0.034081
#
#
# Mechanical properties :
#
#
# Convention : Reuss Voigt Hill
#
# Bulk Modulus (GPa) = 57.21459 60.07798 58.64628
# Shear Modulus (GPa) = 5.39480 20.66346 13.02913
#
# Velocity S-wave (km/s) = 1.77102 3.46606 2.75228
# Velocity P-wave (km/s) = 6.11933 7.13772 6.64805
#
# Compressibility (1/GPa) = 0.01747806
#
# Stress axis : x y z
#
# Youngs Moduli (GPa) = 62.19508 78.70489 41.41784
#
# Poissons Ratio (x) = 0.27014 0.39015
# Poissons Ratio (y) = 0.21347 0.20183
# Poissons Ratio (z) = 0.58587 0.38353
#
# Static dielectric constant tensor:
#      x y z
#    x 3.189320 0.000000 0.000000 
#    y 0.000000 3.302080 0.000000 
#    z 0.000000 0.000000 3.587670 
# 
# 
# High freq. dielectric constant tensor:
#      x y z
#    x 1.649250 0.000000 0.000000 
#    y 0.000000 1.680360 0.000000 
#    z 0.000000 0.000000 1.647930 
# 
# From -- ./inp_files/30623.got.cif
#   From: 2010.03.12/outbox.cif.g09.slc.cpg/sg42_16_cif.got.tgz:30623.got - 2010.04.14 02:04:31.
