data_PCOD8185213
_publ_section_title
;
Structure prediction by ZEFSAII (Michael W. Deem and Ramdas Pophale) SiO2 
 PCOD8185213
Probable space group: A B A 2
;
_chemical_formula_sum "Si O2"
_cell_formula_units_Z 40
_cell_length_a 15.521604
_cell_length_b 7.809677
_cell_length_c 16.956006
_cell_angle_alpha 90.000000
_cell_angle_beta 90.000000
_cell_angle_gamma 90.000000
_cell_volume 2055.385238
_symmetry_space_group_name_H-M "A B A 2"
_symmetry_group_IT_number 41
_symmetry_cell_setting 'orthorhombic'
loop_
_space_group_symop_operation_xyz
x,y,z
-x,-y,z
1/2-x,y,1/2+z
1/2+x,-y,1/2+z
x,1/2+y,1/2+z
-x,1/2-y,1/2+z
1/2-x,1/2+y,z
1/2+x,1/2-y,z
loop_
_atom_site_type_symbol
_atom_site_label
_atom_site_fract_x
_atom_site_fract_y
_atom_site_fract_z
Si Si1 0.000000 0.000000 0.726240
Si Si2 0.843066 0.125029 0.311196
Si Si3 0.436799 0.841710 0.478860
Si Si4 0.843773 0.502541 0.342977
Si Si5 0.000000 0.000000 0.405643
Si Si6 0.938633 0.661533 0.656304
O O1 0.009365 0.163904 0.670559
O O2 0.917666 0.045012 0.779830
O O3 0.846093 0.300578 0.360920
O O4 0.750524 0.039302 0.310323
O O5 0.915849 0.006037 0.350079
O O6 0.861251 0.154126 0.218612
O O7 0.357094 0.880380 0.420610
O O8 0.487896 0.667239 0.459568
O O9 0.400573 0.834086 0.567808
O O10 0.500000 0.000000 0.466413
O O11 0.000000 0.500000 0.667828
#
# Coordination Sequence:
#
# PCOD8185213 Si02
#       6
#     4   8   8   8   4   8
#     4  10  21  42  61  88 124 166 208 250 301 372
#     4  11  23  39  64  92 122 169 208 256 303 370
#     4  11  21  40  61  92 123 157 202 257 306 362
#     4  11  22  39  64  92 126 161 215 255 299 371
#     4  12  21  40  67  88 124 170 208 246 313 366
#     4  10  22  38  63  89 121 159 199 254 312 354
#
# _framework density 19.461074
#
# number of rings (size 3 to 8) (size 9 to 14) (size 15 to 20)
#    0.000    1.200    4.000    3.000    2.800    0.000 
#    0.000   10.000    0.000    0.000    0.000    0.000 
#    0.000    0.000    0.000    0.000    0.000    0.000 
#
# Total GULP energy -247994.425742 kJ/mol
# GULP energy per Si atom -12399.721287 kJ/mol
# Density = 1.941678 g / cm^3
# Si number density = 19.461074 Si / 1000 Ang^3
#
#
#
# Elastic Constant Matrix: (Units=GPa)
#
#
# Indices 1 2 3 4 5 6 
#
# 1 127.4893 38.3997 49.9123 0.0000 0.0000 0.0000
# 2 38.3997 133.4255 55.2087 0.0000 0.0000 0.0000
# 3 49.9123 55.2087 125.1514 0.0000 0.0000 0.0000
# 4 0.0000 0.0000 0.0000 -1.0104 0.0000 0.0000
# 5 0.0000 0.0000 0.0000 0.0000 9.5609 0.0000
# 6 0.0000 0.0000 0.0000 0.0000 0.0000 29.3688
#
#
#
# Elastic Compliance Matrix: (Units=1/GPa)
#
#
# Indices 1 2 3 4 5 6 
#
# 1 0.009513 -0.001429 -0.003164 0.000000 0.000000 0.000000
# 2 -0.001429 0.009383 -0.003569 0.000000 0.000000 0.000000
# 3 -0.003164 -0.003569 0.010827 0.000000 0.000000 0.000000
# 4 0.000000 0.000000 0.000000 -0.989695 0.000000 0.000000
# 5 0.000000 0.000000 0.000000 0.000000 0.104592 0.000000
# 6 0.000000 0.000000 0.000000 0.000000 0.000000 0.034050
#
#
# Mechanical properties :
#
#
# Convention : Reuss Voigt Hill
#
# Bulk Modulus (GPa) = 74.63283 74.78974 74.71129
# Shear Modulus (GPa) = -6.24578 23.75357 8.75389
#
# Velocity S-wave (km/s) = -1.79341 3.49745 2.12319
# Velocity P-wave (km/s) = 5.84334 7.40428 6.66963
#
# Compressibility (1/GPa) = 0.01339893
#
# Stress axis : x y z
#
# Youngs Moduli (GPa) = 105.12308 106.57660 92.36552
#
# Poissons Ratio (x) = 0.15227 0.29220
# Poissons Ratio (y) = 0.15019 0.32968
# Poissons Ratio (z) = 0.33256 0.38041
#
# Static dielectric constant tensor:
#      x y z
#    x 3.365550 0.000000 0.000000 
#    y 0.000000 3.844040 0.000000 
#    z 0.000000 0.000000 3.620080 
# 
# 
# High freq. dielectric constant tensor:
#      x y z
#    x 1.740420 0.000000 0.000000 
#    y 0.000000 1.781850 0.000000 
#    z 0.000000 0.000000 1.754570 
# 
# From -- ./inp_files/8237.got.cif
#   From: 2010.03.12/outbox.cif.g09.slc.cpg/sg41_5_cif.got.tgz:8237.got - 2010.04.14 01:55:53.
