data_PCOD8185333
_publ_section_title
;
Structure prediction by ZEFSAII (Michael W. Deem and Ramdas Pophale) SiO2 
 PCOD8185333
Probable space group: A B A 2
;
_chemical_formula_sum "Si O2"
_cell_formula_units_Z 56
_cell_length_a 31.338808
_cell_length_b 14.049572
_cell_length_c 5.534238
_cell_angle_alpha 90.000000
_cell_angle_beta 90.000000
_cell_angle_gamma 90.000000
_cell_volume 2436.707500
_symmetry_space_group_name_H-M "A B A 2"
_symmetry_group_IT_number 41
_symmetry_cell_setting 'orthorhombic'
loop_
_space_group_symop_operation_xyz
x,y,z
-x,-y,z
1/2-x,y,1/2+z
1/2+x,-y,1/2+z
x,1/2+y,1/2+z
-x,1/2-y,1/2+z
1/2-x,1/2+y,z
1/2+x,1/2-y,z
loop_
_atom_site_type_symbol
_atom_site_label
_atom_site_fract_x
_atom_site_fract_y
_atom_site_fract_z
Si Si1 0.609050 0.043838 0.721020
Si Si2 0.498966 0.307270 0.693708
Si Si3 0.656710 0.423226 0.859597
Si Si4 0.087670 0.819460 0.841769
Si Si5 0.671482 0.603058 0.590278
Si Si6 0.275048 0.716004 0.046804
Si Si7 0.916905 0.880716 0.535237
O O1 0.584260 0.135438 0.613159
O O2 0.618944 0.971125 0.508590
O O3 0.654833 0.077167 0.824728
O O4 0.581582 0.985968 0.917683
O O5 0.501931 0.244027 0.453945
O O6 0.452515 0.359838 0.684975
O O7 0.540182 0.376611 0.698364
O O8 0.685373 0.506258 0.731057
O O9 0.684805 0.354409 0.026610
O O10 0.628661 0.363807 0.668432
O O11 0.132498 0.846562 0.727045
O O12 0.083345 0.705261 0.843189
O O13 0.711186 0.673746 0.560389
O O14 0.248172 0.695204 0.801890
#
# Coordination Sequence:
#
# PCOD8185333 Si02
#       7
#     8   8   8   8   8   8   8
#     4  10  22  42  71 102 130 188 230 282 350 417
#     4  10  24  40  67 103 134 186 234 280 346 397
#     4  10  24  44  70  99 137 179 227 282 353 414
#     4  10  22  41  72  96 139 183 233 284 342 415
#     4  10  24  44  70  99 137 179 227 282 353 414
#     4  12  30  46  72 106 134 180 232 286 354 422
#     4  10  22  41  72  96 139 183 233 284 342 415
#
# _framework density 22.981829000000001
#
# number of rings (size 3 to 8) (size 9 to 14) (size 15 to 20)
#    0.000    1.714    0.000    1.714   20.000    1.143 
#    0.000    7.857    0.000    0.000    0.000    0.000 
#    0.000    0.000    0.000    0.000    0.000    0.000 
#
# Total GULP energy -346921.471127 kJ/mol
# GULP energy per Si atom -12390.052540 kJ/mol
# Density = 2.292952 g / cm^3
# Si number density = 22.981829 Si / 1000 Ang^3
#
#
#
# Elastic Constant Matrix: (Units=GPa)
#
#
# Indices 1 2 3 4 5 6 
#
# 1 49.9407 -2.2166 17.5978 0.0000 0.0000 0.0000
# 2 -2.2166 52.4646 8.2909 0.0000 0.0000 0.0000
# 3 17.5978 8.2909 100.1701 0.0000 0.0000 0.0000
# 4 0.0000 0.0000 0.0000 30.5060 0.0000 0.0000
# 5 0.0000 0.0000 0.0000 0.0000 36.1944 0.0000
# 6 0.0000 0.0000 0.0000 0.0000 0.0000 12.8946
#
#
#
# Elastic Compliance Matrix: (Units=1/GPa)
#
#
# Indices 1 2 3 4 5 6 
#
# 1 0.021464 0.001523 -0.003897 0.000000 0.000000 0.000000
# 2 0.001523 0.019421 -0.001875 0.000000 0.000000 0.000000
# 3 -0.003897 -0.001875 0.010823 0.000000 0.000000 0.000000
# 4 0.000000 0.000000 0.000000 0.032780 0.000000 0.000000
# 5 0.000000 0.000000 0.000000 0.000000 0.027629 0.000000
# 6 0.000000 0.000000 0.000000 0.000000 0.000000 0.077552
#
#
# Mechanical properties :
#
#
# Convention : Reuss Voigt Hill
#
# Bulk Modulus (GPa) = 23.14276 27.76885 25.45581
# Shear Modulus (GPa) = 23.52153 27.84588 25.68371
#
# Velocity S-wave (km/s) = 3.20266 3.48465 3.34663
# Velocity P-wave (km/s) = 4.87524 5.31973 5.10233
#
# Compressibility (1/GPa) = 0.04321006
#
# Stress axis : x y z
#
# Youngs Moduli (GPa) = 46.58859 51.49037 92.39741
#
# Poissons Ratio (x) = -0.07840 0.36006
# Poissons Ratio (y) = -0.07094 0.17324
# Poissons Ratio (z) = 0.18155 0.09654
#
# Static dielectric constant tensor:
#      x y z
#    x 4.184490 0.000000 0.000000 
#    y 0.000000 4.158480 0.000000 
#    z 0.000000 0.000000 4.363600 
# 
# 
# High freq. dielectric constant tensor:
#      x y z
#    x 1.898440 0.000000 0.000000 
#    y 0.000000 1.905150 0.000000 
#    z 0.000000 0.000000 1.915070 
# 
# From -- ./inp_files/1358.got.cif
#   From: 2010.03.12/outbox.cif.g09.slc.cpg/sg41_1_cif.got.tgz:1358.got - 2010.04.14 01:55:53.
