data_PCOD8185498
_publ_section_title
;
Structure prediction by ZEFSAII (Michael W. Deem and Ramdas Pophale) SiO2 
 PCOD8185498
Probable space group: A B A 2
;
_chemical_formula_sum "Si O2"
_cell_formula_units_Z 56
_cell_length_a 21.209574
_cell_length_b 9.142591
_cell_length_c 13.628825
_cell_angle_alpha 90.000000
_cell_angle_beta 90.000000
_cell_angle_gamma 90.000000
_cell_volume 2642.771730
_symmetry_space_group_name_H-M "A B A 2"
_symmetry_group_IT_number 41
_symmetry_cell_setting 'orthorhombic'
loop_
_space_group_symop_operation_xyz
x,y,z
-x,-y,z
1/2-x,y,1/2+z
1/2+x,-y,1/2+z
x,1/2+y,1/2+z
-x,1/2-y,1/2+z
1/2-x,1/2+y,z
1/2+x,1/2-y,z
loop_
_atom_site_type_symbol
_atom_site_label
_atom_site_fract_x
_atom_site_fract_y
_atom_site_fract_z
Si Si1 0.500000 0.250416 0.928650
Si Si2 0.734797 0.249999 0.178650
Si Si3 0.334035 0.023108 0.118106
Si Si4 0.665965 0.023106 0.739193
Si Si5 0.447636 0.391730 0.117281
Si Si6 0.052365 0.608270 0.240019
Si Si7 0.089799 0.500001 0.928650
O O1 0.537074 0.355989 0.853362
O O2 0.449048 0.137269 0.883054
O O3 0.550952 0.137267 0.974246
O O4 0.462928 0.355992 0.003937
O O5 0.777218 0.360114 0.114763
O O6 0.690912 0.356088 0.244697
O O7 0.690912 0.143911 0.112602
O O8 0.777218 0.139884 0.242536
O O9 0.377363 0.045444 0.216503
O O10 0.370869 0.061933 0.019481
O O11 0.629131 0.061931 0.837818
O O12 0.622637 0.045444 0.640797
O O13 0.500000 0.500000 0.158751
O O14 0.458248 0.249998 0.178648
O O15 0.000000 0.500000 0.198551
#
# Coordination Sequence:
#
# PCOD8185498 Si02
#       7
#     8   8   8   8   8   8   8
#     4  11  23  40  62 102 134 174 212 270 352 404
#     4  10  24  44  68  90 128 184 224 274 330 384
#     4  11  23  44  67  96 132 176 225 277 329 394
#     4  11  23  44  67  96 132 176 225 277 329 394
#     4  12  24  42  66  99 135 172 216 277 337 404
#     4  12  24  42  66  99 135 172 216 277 337 404
#     4  11  22  40  68  98 134 172 221 278 332 402
#
# _framework density 21.189874
#
# number of rings (size 3 to 8) (size 9 to 14) (size 15 to 20)
#    0.000    0.857    4.286    2.143    6.000    1.143 
#    0.000    0.000    0.000    0.000    0.000    0.000 
#    0.000    0.000    0.000    0.000    0.000    0.000 
#
# Total GULP energy -346940.496124 kJ/mol
# GULP energy per Si atom -12390.732004 kJ/mol
# Density = 2.114164 g / cm^3
# Si number density = 21.189874 Si / 1000 Ang^3
#
#
#
# Elastic Constant Matrix: (Units=GPa)
#
#
# Indices 1 2 3 4 5 6 
#
# 1 112.7579 60.8126 44.7419 0.0000 0.0000 0.0000
# 2 60.8126 136.2938 21.6997 0.0000 0.0000 0.0000
# 3 44.7419 21.6997 101.2940 0.0000 0.0000 0.0000
# 4 0.0000 0.0000 0.0000 380.3011 0.0000 0.0000
# 5 0.0000 0.0000 0.0000 0.0000 18.7606 0.0000
# 6 0.0000 0.0000 0.0000 0.0000 0.0000 44.2826
#
#
#
# Elastic Compliance Matrix: (Units=1/GPa)
#
#
# Indices 1 2 3 4 5 6 
#
# 1 0.013687 -0.005326 -0.004905 0.000000 0.000000 0.000000
# 2 -0.005326 0.009669 0.000281 0.000000 0.000000 0.000000
# 3 -0.004905 0.000281 0.011978 0.000000 0.000000 0.000000
# 4 0.000000 0.000000 0.000000 0.002629 0.000000 0.000000
# 5 0.000000 0.000000 0.000000 0.000000 0.053303 0.000000
# 6 0.000000 0.000000 0.000000 0.000000 0.000000 0.022582
#
#
# Mechanical properties :
#
#
# Convention : Reuss Voigt Hill
#
# Bulk Modulus (GPa) = 64.78668 67.20600 65.99634
# Shear Modulus (GPa) = 35.99877 103.54163 69.77020
#
# Velocity S-wave (km/s) = 4.12620 6.99784 5.74436
# Velocity P-wave (km/s) = 7.30352 9.85282 8.67236
#
# Compressibility (1/GPa) = 0.01543527
#
# Stress axis : x y z
#
# Youngs Moduli (GPa) = 73.06077 103.42565 83.48353
#
# Poissons Ratio (x) = 0.55086 0.40946
# Poissons Ratio (y) = 0.38914 -0.02348
# Poissons Ratio (z) = 0.35834 -0.02909
#
# Static dielectric constant tensor:
#      x y z
#    x 4.386970 0.000000 0.000000 
#    y 0.000000 4.285580 0.000000 
#    z 0.000000 0.000000 4.245250 
# 
# 
# High freq. dielectric constant tensor:
#      x y z
#    x 1.840590 0.000000 0.000000 
#    y 0.000000 1.857020 0.000000 
#    z 0.000000 0.000000 1.796600 
# 
# From -- ./inp_files/9002.got.cif
#   From: 2010.03.12/outbox.cif.g09.slc.cpg/sg41_5_cif.got.tgz:9002.got - 2010.04.14 01:55:53.
