data_PCOD8185548
_publ_section_title
;
Structure prediction by ZEFSAII (Michael W. Deem and Ramdas Pophale) SiO2 
 PCOD8185548
Probable space group: A B A 2
;
_chemical_formula_sum "Si O2"
_cell_formula_units_Z 48
_cell_length_a 11.959920
_cell_length_b 16.811820
_cell_length_c 11.122636
_cell_angle_alpha 90.000000
_cell_angle_beta 90.000000
_cell_angle_gamma 90.000000
_cell_volume 2236.406423
_symmetry_space_group_name_H-M "A B A 2"
_symmetry_group_IT_number 41
_symmetry_cell_setting 'orthorhombic'
loop_
_space_group_symop_operation_xyz
x,y,z
-x,-y,z
1/2-x,y,1/2+z
1/2+x,-y,1/2+z
x,1/2+y,1/2+z
-x,1/2-y,1/2+z
1/2-x,1/2+y,z
1/2+x,1/2-y,z
loop_
_atom_site_type_symbol
_atom_site_label
_atom_site_fract_x
_atom_site_fract_y
_atom_site_fract_z
Si Si1 0.386768 0.337291 0.727930
Si Si2 0.342617 0.896627 0.788219
Si Si3 0.388238 0.964483 0.031745
Si Si4 0.456546 0.586470 0.906839
Si Si5 0.932411 0.337418 0.662611
Si Si6 0.762581 0.442327 0.214184
O O1 0.252812 0.333808 0.748538
O O2 0.420408 0.411929 0.646261
O O3 0.448387 0.356254 0.852463
O O4 0.432433 0.257760 0.666957
O O5 0.460933 0.867988 0.737210
O O6 0.317427 0.983290 0.738051
O O7 0.334287 0.906339 0.932866
O O8 0.500000 0.000000 0.972517
O O9 0.313407 0.038649 0.080922
O O10 0.500000 0.500000 0.944417
O O11 0.354797 0.573397 0.815250
O O12 0.424345 0.632473 0.026956
O O13 0.816525 0.365738 0.721503
#
# Coordination Sequence:
#
# PCOD8185548 Si02
#       6
#     8   8   8   8   8   8
#     4  11  27  44  66 107 141 190 229 306 359 417
#     4  11  25  44  68 103 142 182 243 285 354 425
#     4  11  21  43  72 100 137 188 241 288 350 433
#     4  12  23  51  76 101 145 196 243 290 356 436
#     4  12  29  42  73 107 146 184 241 297 367 424
#     4  11  22  45  71 108 137 185 243 290 352 426
#
# _framework density 21.463003
#
# number of rings (size 3 to 8) (size 9 to 14) (size 15 to 20)
#    0.000    0.667    5.000    3.500    9.333    0.000 
#    0.000    0.000    0.000    0.000    0.000    0.000 
#    0.000    0.000    0.000    0.000    0.000    0.000 
#
# Total GULP energy -297541.684044 kJ/mol
# GULP energy per Si atom -12397.570168 kJ/mol
# Density = 2.141415 g / cm^3
# Si number density = 21.463003 Si / 1000 Ang^3
#
#
#
# Elastic Constant Matrix: (Units=GPa)
#
#
# Indices 1 2 3 4 5 6 
#
# 1 117.9486 45.8950 38.6461 0.0000 0.0000 0.0000
# 2 45.8950 102.0736 21.0796 0.0000 0.0000 0.0000
# 3 38.6461 21.0796 104.2803 0.0000 0.0000 0.0000
# 4 0.0000 0.0000 0.0000 22.2205 0.0000 0.0000
# 5 0.0000 0.0000 0.0000 0.0000 26.4100 0.0000
# 6 0.0000 0.0000 0.0000 0.0000 0.0000 30.1410
#
#
#
# Elastic Compliance Matrix: (Units=1/GPa)
#
#
# Indices 1 2 3 4 5 6 
#
# 1 0.011261 -0.004385 -0.003287 0.000000 0.000000 0.000000
# 2 -0.004385 0.011931 -0.000787 0.000000 0.000000 0.000000
# 3 -0.003287 -0.000787 0.010967 0.000000 0.000000 0.000000
# 4 0.000000 0.000000 0.000000 0.045004 0.000000 0.000000
# 5 0.000000 0.000000 0.000000 0.000000 0.037864 0.000000
# 6 0.000000 0.000000 0.000000 0.000000 0.000000 0.033177
#
#
# Mechanical properties :
#
#
# Convention : Reuss Voigt Hill
#
# Bulk Modulus (GPa) = 57.99826 59.50487 58.75156
# Shear Modulus (GPa) = 28.92370 30.33310 29.62840
#
# Velocity S-wave (km/s) = 3.67496 3.76343 3.71946
# Velocity P-wave (km/s) = 6.71477 6.83148 6.77338
#
# Compressibility (1/GPa) = 0.01724190
#
# Stress axis : x y z
#
# Youngs Moduli (GPa) = 88.79903 83.81698 91.18434
#
# Poissons Ratio (x) = 0.36750 0.29974
# Poissons Ratio (y) = 0.38935 0.07174
# Poissons Ratio (z) = 0.29189 0.06595
#
# Static dielectric constant tensor:
#      x y z
#    x 4.108740 0.000000 0.000000 
#    y 0.000000 3.851920 0.000000 
#    z 0.000000 0.000000 3.937490 
# 
# 
# High freq. dielectric constant tensor:
#      x y z
#    x 1.858190 0.000000 0.000000 
#    y 0.000000 1.830440 0.000000 
#    z 0.000000 0.000000 1.847640 
# 
# From -- ./inp_files/4948.got.cif
#   From: 2010.03.12/outbox.cif.g09.slc.cpg/sg41_3_cif.got.tgz:4948.got - 2010.04.14 01:55:53.
