data_PCOD8185309
_publ_section_title
;
Structure prediction by ZEFSAII (Michael W. Deem and Ramdas Pophale) SiO2 
 PCOD8185309
Probable space group: A B A 2
;
_chemical_formula_sum "Si O2"
_cell_formula_units_Z 36
_cell_length_a 21.709626
_cell_length_b 13.714236
_cell_length_c 4.788456
_cell_angle_alpha 90.000000
_cell_angle_beta 90.000000
_cell_angle_gamma 90.000000
_cell_volume 1425.671479
_symmetry_space_group_name_H-M "A B A 2"
_symmetry_group_IT_number 41
_symmetry_cell_setting 'orthorhombic'
loop_
_space_group_symop_operation_xyz
x,y,z
-x,-y,z
1/2-x,y,1/2+z
1/2+x,-y,1/2+z
x,1/2+y,1/2+z
-x,1/2-y,1/2+z
1/2-x,1/2+y,z
1/2+x,1/2-y,z
loop_
_atom_site_type_symbol
_atom_site_label
_atom_site_fract_x
_atom_site_fract_y
_atom_site_fract_z
Si Si1 0.292653 0.780979 0.475310
Si Si2 0.882481 0.596853 0.821776
Si Si3 0.708587 0.938698 0.946813
Si Si4 0.500000 0.500000 0.379069
Si Si5 0.481752 0.808838 0.140619
O O1 0.230742 0.800663 0.661289
O O2 0.347254 0.852803 0.565785
O O3 0.317181 0.670108 0.506284
O O4 0.841935 0.521321 0.003387
O O5 0.910023 0.677206 0.041303
O O6 0.940588 0.533739 0.695061
O O7 0.730129 0.953909 0.629015
O O8 0.518763 0.408971 0.580599
O O9 0.486418 0.780009 0.465300
#
# Coordination Sequence:
#
# PCOD8185309 Si02
#       5
#     8   8   8   4   8
#     4  10  22  40  63  94 126 167 216 269 330 386
#     4  10  22  41  68  92 131 173 215 272 324 395
#     4  10  22  41  64  96 127 165 217 270 323 386
#     4   8  24  44  64 102 124 180 220 270 330 392
#     4  10  24  44  63  94 132 170 220 267 322 392
#
# _framework density 25.251259000000001
#
# number of rings (size 3 to 8) (size 9 to 14) (size 15 to 20)
#    1.333    0.889    0.000    1.333    3.111    4.444 
#    8.000    0.000    0.000    0.000    0.000    0.000 
#    0.000    0.000    0.000    0.000    0.000    0.000 
#
# Total GULP energy -223071.606248 kJ/mol
# GULP energy per Si atom -12392.867014 kJ/mol
# Density = 2.519379 g / cm^3
# Si number density = 25.251259 Si / 1000 Ang^3
#
#
#
# Elastic Constant Matrix: (Units=GPa)
#
#
# Indices 1 2 3 4 5 6 
#
# 1 90.3263 56.0787 -2.4643 0.0000 0.0000 0.0000
# 2 56.0787 137.5713 10.7385 0.0000 0.0000 0.0000
# 3 -2.4643 10.7385 54.3149 0.0000 0.0000 0.0000
# 4 0.0000 0.0000 0.0000 18.4704 0.0000 0.0000
# 5 0.0000 0.0000 0.0000 0.0000 3.8362 0.0000
# 6 0.0000 0.0000 0.0000 0.0000 0.0000 61.6594
#
#
#
# Elastic Compliance Matrix: (Units=1/GPa)
#
#
# Indices 1 2 3 4 5 6 
#
# 1 0.015017 -0.006271 0.001921 0.000000 0.000000 0.000000
# 2 -0.006271 0.010002 -0.002262 0.000000 0.000000 0.000000
# 3 0.001921 -0.002262 0.018946 0.000000 0.000000 0.000000
# 4 0.000000 0.000000 0.000000 0.054141 0.000000 0.000000
# 5 0.000000 0.000000 0.000000 0.000000 0.260676 0.000000
# 6 0.000000 0.000000 0.000000 0.000000 0.000000 0.016218
#
#
# Mechanical properties :
#
#
# Convention : Reuss Voigt Hill
#
# Bulk Modulus (GPa) = 32.53076 45.65758 39.09417
# Shear Modulus (GPa) = 12.54799 31.31717 21.93258
#
# Velocity S-wave (km/s) = 2.23160 3.52550 2.95035
# Velocity P-wave (km/s) = 4.42163 5.89006 5.20786
#
# Compressibility (1/GPa) = 0.03074014
#
# Stress axis : x y z
#
# Youngs Moduli (GPa) = 66.59146 99.98060 52.78286
#
# Poissons Ratio (x) = 0.62702 -0.10141
# Poissons Ratio (y) = 0.41762 0.11939
# Poissons Ratio (z) = -0.12794 0.22616
#
# Static dielectric constant tensor:
#      x y z
#    x 4.220350 0.000000 0.000000 
#    y 0.000000 4.677010 0.000000 
#    z 0.000000 0.000000 3.989320 
# 
# 
# High freq. dielectric constant tensor:
#      x y z
#    x 1.990440 0.000000 0.000000 
#    y 0.000000 2.023900 0.000000 
#    z 0.000000 0.000000 1.982050 
# 
# From -- ./inp_files/623.got.cif
#   From: 2010.03.12/outbox.cif.g09.slc.cpg/sg41_1_cif.got.tgz:623.got - 2010.04.14 01:55:53.
