data_PCOD8185736
_publ_section_title
;
Structure prediction by ZEFSAII (Michael W. Deem and Ramdas Pophale) SiO2 
 PCOD8185736
Probable space group: A B A 2
;
_chemical_formula_sum "Si O2"
_cell_formula_units_Z 32
_cell_length_a 9.218910
_cell_length_b 8.468711
_cell_length_c 15.153226
_cell_angle_alpha 90.000000
_cell_angle_beta 90.000000
_cell_angle_gamma 90.000000
_cell_volume 1183.046972
_symmetry_space_group_name_H-M "A B A 2"
_symmetry_group_IT_number 41
_symmetry_cell_setting 'orthorhombic'
loop_
_space_group_symop_operation_xyz
x,y,z
-x,-y,z
1/2-x,y,1/2+z
1/2+x,-y,1/2+z
x,1/2+y,1/2+z
-x,1/2-y,1/2+z
1/2-x,1/2+y,z
1/2+x,1/2-y,z
loop_
_atom_site_type_symbol
_atom_site_label
_atom_site_fract_x
_atom_site_fract_y
_atom_site_fract_z
Si Si1 0.414035 0.342174 0.633720
Si Si2 0.338232 0.138763 0.848468
Si Si3 0.934255 0.332775 0.454131
Si Si4 0.142990 0.841352 0.234801
O O1 0.500000 0.500000 0.652084
O O2 0.437425 0.289626 0.533961
O O3 0.481881 0.206564 0.699945
O O4 0.245833 0.388748 0.651762
O O5 0.476203 0.252915 0.872055
O O6 0.235271 0.197537 0.771050
O O7 0.234405 0.130666 0.933836
O O8 0.382937 0.964945 0.814562
O O9 0.000000 0.500000 0.481627
#
# Coordination Sequence:
#
# PCOD8185736 Si02
#       4
#     8   8   8   8
#     4  12  29  51  77 116 158 202 256 316 388 461
#     4  12  27  50  81 113 153 199 261 319 382 455
#     4  12  29  51  77 116 158 202 256 316 388 461
#     4  12  27  50  81 113 153 199 261 319 382 455
#
# _framework density 27.048801000000001
#
# number of rings (size 3 to 8) (size 9 to 14) (size 15 to 20)
#    0.000    0.000    5.000    3.000    7.000    6.000 
#    0.000    0.000    0.000    0.000    0.000    0.000 
#    0.000    0.000    0.000    0.000    0.000    0.000 
#
# Total GULP energy -198356.733921 kJ/mol
# GULP energy per Si atom -12397.295870 kJ/mol
# Density = 2.698724 g / cm^3
# Si number density = 27.048801 Si / 1000 Ang^3
#
#
#
# Elastic Constant Matrix: (Units=GPa)
#
#
# Indices 1 2 3 4 5 6 
#
# 1 207.3426 39.3403 30.3277 0.0000 0.0000 0.0000
# 2 39.3403 107.1790 20.0602 0.0000 0.0000 0.0000
# 3 30.3277 20.0602 99.5239 0.0000 0.0000 0.0000
# 4 0.0000 0.0000 0.0000 54.5533 0.0000 0.0000
# 5 0.0000 0.0000 0.0000 0.0000 18.1188 0.0000
# 6 0.0000 0.0000 0.0000 0.0000 0.0000 41.3979
#
#
#
# Elastic Compliance Matrix: (Units=1/GPa)
#
#
# Indices 1 2 3 4 5 6 
#
# 1 0.005336 -0.001719 -0.001280 0.000000 0.000000 0.000000
# 2 -0.001719 0.010250 -0.001542 0.000000 0.000000 0.000000
# 3 -0.001280 -0.001542 0.010749 0.000000 0.000000 0.000000
# 4 0.000000 0.000000 0.000000 0.018331 0.000000 0.000000
# 5 0.000000 0.000000 0.000000 0.000000 0.055191 0.000000
# 6 0.000000 0.000000 0.000000 0.000000 0.000000 0.024156
#
#
# Mechanical properties :
#
#
# Convention : Reuss Voigt Hill
#
# Bulk Modulus (GPa) = 57.96104 65.94464 61.95284
# Shear Modulus (GPa) = 36.01128 44.43515 40.22322
#
# Velocity S-wave (km/s) = 3.65272 4.05752 3.86043
# Velocity P-wave (km/s) = 6.26615 6.81058 6.54403
#
# Compressibility (1/GPa) = 0.01725297
#
# Stress axis : x y z
#
# Youngs Moduli (GPa) = 187.39598 97.56239 93.03541
#
# Poissons Ratio (x) = 0.16773 0.11905
# Poissons Ratio (y) = 0.32217 0.14347
# Poissons Ratio (z) = 0.23979 0.15045
#
# Static dielectric constant tensor:
#      x y z
#    x 5.950110 0.000000 0.000000 
#    y 0.000000 4.843130 0.000000 
#    z 0.000000 0.000000 4.787960 
# 
# 
# High freq. dielectric constant tensor:
#      x y z
#    x 2.126910 0.000000 0.000000 
#    y 0.000000 2.092280 0.000000 
#    z 0.000000 0.000000 2.090540 
# 
# From -- ./inp_files/7678.got.cif
#   From: 2010.03.12/outbox.cif.g09.slc.cpg/sg41_4_cif.got.tgz:7678.got - 2010.04.14 01:55:53.
