data_PCOD8185348
_publ_section_title
;
Structure prediction by ZEFSAII (Michael W. Deem and Ramdas Pophale) SiO2 
 PCOD8185348
Probable space group: A B A 2
;
_chemical_formula_sum "Si O2"
_cell_formula_units_Z 52
_cell_length_a 10.773326
_cell_length_b 25.400996
_cell_length_c 8.906496
_cell_angle_alpha 90.000000
_cell_angle_beta 90.000000
_cell_angle_gamma 90.000000
_cell_volume 2437.291226
_symmetry_space_group_name_H-M "A B A 2"
_symmetry_group_IT_number 41
_symmetry_cell_setting 'orthorhombic'
loop_
_space_group_symop_operation_xyz
x,y,z
-x,-y,z
1/2-x,y,1/2+z
1/2+x,-y,1/2+z
x,1/2+y,1/2+z
-x,1/2-y,1/2+z
1/2-x,1/2+y,z
1/2+x,1/2-y,z
loop_
_atom_site_type_symbol
_atom_site_label
_atom_site_fract_x
_atom_site_fract_y
_atom_site_fract_z
Si Si1 0.524959 0.299096 0.750000
Si Si2 0.637897 0.923658 0.500295
Si Si3 0.000000 0.500000 0.675201
Si Si4 0.778135 0.362161 0.781773
Si Si5 0.493479 0.307639 0.408252
Si Si6 0.615304 0.118024 0.421477
Si Si7 0.354133 0.400568 0.260694
O O1 0.648713 0.333904 0.750870
O O2 0.475926 0.293724 0.581610
O O3 0.554047 0.241483 0.811928
O O4 0.415509 0.324698 0.851451
O O5 0.750770 0.915224 0.383026
O O6 0.652843 0.879261 0.630083
O O7 0.509156 0.916040 0.412583
O O8 0.620638 0.981081 0.575900
O O9 0.054950 0.451576 0.771156
O O10 0.863898 0.321353 0.870931
O O11 0.408376 0.357385 0.372694
O O12 0.657778 0.122963 0.593949
O O13 0.717300 0.086765 0.323115
#
# Coordination Sequence:
#
# PCOD8185348 Si02
#       7
#     8   8   4   8   8   8   8
#     4  11  26  40  69  98 138 182 227 273 349 411
#     4  10  22  42  68  96 131 178 225 282 340 404
#     4  10  22  42  70 102 130 180 226 290 346 410
#     4  11  22  44  66  94 138 177 223 280 339 415
#     4  12  24  42  66 100 133 184 223 279 339 415
#     4  10  22  43  63  96 135 174 225 278 337 411
#     4  11  23  43  67  95 139 175 227 288 339 406
#
# _framework density 21.335159000000001
#
# number of rings (size 3 to 8) (size 9 to 14) (size 15 to 20)
#    0.000    1.231    4.615    1.846    4.308    2.462 
#    0.000    0.000    0.000    5.538    0.000    0.000 
#    0.000    0.000    0.000    0.000    0.000    0.000 
#
# Total GULP energy -322315.506209 kJ/mol
# GULP energy per Si atom -12396.750239 kJ/mol
# Density = 2.128660 g / cm^3
# Si number density = 21.335159 Si / 1000 Ang^3
#
#
#
# Elastic Constant Matrix: (Units=GPa)
#
#
# Indices 1 2 3 4 5 6 
#
# 1 92.2087 30.9694 38.2333 0.0000 0.0000 0.0000
# 2 30.9694 107.3545 36.0590 0.0000 0.0000 0.0000
# 3 38.2333 36.0590 124.1739 0.0000 0.0000 0.0000
# 4 0.0000 0.0000 0.0000 24.9778 0.0000 0.0000
# 5 0.0000 0.0000 0.0000 0.0000 40.6794 0.0000
# 6 0.0000 0.0000 0.0000 0.0000 0.0000 32.6883
#
#
#
# Elastic Compliance Matrix: (Units=1/GPa)
#
#
# Indices 1 2 3 4 5 6 
#
# 1 0.013095 -0.002685 -0.003252 0.000000 0.000000 0.000000
# 2 -0.002685 0.010872 -0.002330 0.000000 0.000000 0.000000
# 3 -0.003252 -0.002330 0.009731 0.000000 0.000000 0.000000
# 4 0.000000 0.000000 0.000000 0.040035 0.000000 0.000000
# 5 0.000000 0.000000 0.000000 0.000000 0.024582 0.000000
# 6 0.000000 0.000000 0.000000 0.000000 0.000000 0.030592
#
#
# Mechanical properties :
#
#
# Convention : Reuss Voigt Hill
#
# Bulk Modulus (GPa) = 58.26487 59.36229 58.81358
# Shear Modulus (GPa) = 33.07620 34.23413 33.65516
#
# Velocity S-wave (km/s) = 3.94167 4.01008 3.97602
# Velocity P-wave (km/s) = 6.93429 7.02318 6.97887
#
# Compressibility (1/GPa) = 0.01716300
#
# Stress axis : x y z
#
# Youngs Moduli (GPa) = 76.36280 91.97639 102.76075
#
# Poissons Ratio (x) = 0.24699 0.33421
# Poissons Ratio (y) = 0.20506 0.23948
# Poissons Ratio (z) = 0.24835 0.21434
#
# Static dielectric constant tensor:
#      x y z
#    x 3.973290 0.000000 0.000000 
#    y 0.000000 3.802320 0.000000 
#    z 0.000000 0.000000 3.964890 
# 
# 
# High freq. dielectric constant tensor:
#      x y z
#    x 1.841000 0.000000 0.000000 
#    y 0.000000 1.823080 0.000000 
#    z 0.000000 0.000000 1.841260 
# 
# From -- ./inp_files/2142.got.cif
#   From: 2010.03.12/outbox.cif.g09.slc.cpg/sg41_2_cif.got.tgz:2142.got - 2010.04.14 01:55:53.
