data_PCOD8185742
_publ_section_title
;
Structure prediction by ZEFSAII (Michael W. Deem and Ramdas Pophale) SiO2 
 PCOD8185742
Probable space group: F M M 2
;
_chemical_formula_sum "Si O2"
_cell_formula_units_Z 88
_cell_length_a 19.644446
_cell_length_b 14.947461
_cell_length_c 17.078018
_cell_angle_alpha 90.000000
_cell_angle_beta 90.000000
_cell_angle_gamma 90.000000
_cell_volume 5014.696821
_symmetry_space_group_name_H-M "F M M 2"
_symmetry_group_IT_number 42
_symmetry_cell_setting 'orthorhombic'
loop_
_space_group_symop_operation_xyz
x,y,z
-x,-y,z
-x,y,z
x,-y,z
x,1/2+y,1/2+z
-x,1/2-y,1/2+z
-x,1/2+y,1/2+z
x,1/2-y,1/2+z
1/2+x,y,1/2+z
1/2-x,-y,1/2+z
1/2-x,y,1/2+z
1/2+x,-y,1/2+z
1/2+x,1/2+y,z
1/2-x,1/2-y,z
1/2-x,1/2+y,z
1/2+x,1/2-y,z
loop_
_atom_site_type_symbol
_atom_site_label
_atom_site_fract_x
_atom_site_fract_y
_atom_site_fract_z
Si Si1 0.717914 0.500000 0.438740
Si Si2 0.077380 0.166217 0.976996
Si Si3 0.864928 0.500000 0.399235
Si Si4 0.200260 0.174321 0.244919
Si Si5 0.684915 0.693713 0.430063
Si Si6 0.737566 0.500000 0.773388
Si Si7 0.578360 0.104176 0.651045
O O1 0.799031 0.500000 0.457148
O O2 0.685095 0.593554 0.469019
O O3 0.708034 0.500000 0.344977
O O4 0.092295 0.089793 0.912680
O O5 0.118650 0.256403 0.961107
O O6 0.000000 0.196023 0.969414
O O7 0.093582 0.123699 0.060754
O O8 0.839391 0.500000 0.308487
O O9 0.250000 0.250000 0.210523
O O10 0.185739 0.189797 0.336289
O O11 0.246008 0.087714 0.223953
O O12 0.127461 0.167673 0.202068
O O13 0.750000 0.750000 0.459302
O O14 0.500000 0.127236 0.672045
O O15 0.593327 0.000000 0.668529
#
# Coordination Sequence:
#
# PCOD8185742 Si02
#       7
#     8  16   8  16  16   8  16
#     4   8  16  29  51  78  97 134 164 212 264 306
#     4  11  21  33  51  78 109 143 181 223 268 320
#     4  10  15  31  52  75  99 133 170 226 262 307
#     4  10  18  33  54  80 106 139 178 219 270 323
#     4  10  18  33  55  79 108 137 174 221 273 321
#     4   8  16  30  51  75 103 133 166 214 269 313
#     4  10  21  36  53  75 110 146 178 223 272 314
#
# _framework density 17.548418999999999
#
# number of rings (size 3 to 8) (size 9 to 14) (size 15 to 20)
#    0.545    1.636    3.636    1.364    0.000    1.455 
#    0.000    0.455    0.000    0.000    0.000    1.273 
#    0.000    0.000    0.000    0.000    0.000    0.000 
#
# Total GULP energy -272601.472219 kJ/mol
# GULP energy per Si atom -12390.976010 kJ/mol
# Density = 1.750848 g / cm^3
# Si number density = 17.548419 Si / 1000 Ang^3
#
#
#
# Elastic Constant Matrix: (Units=GPa)
#
#
# Indices 1 2 3 4 5 6 
#
# 1 114.7528 65.6513 35.4072 0.0000 0.0000 0.0000
# 2 65.6513 146.1360 17.7219 0.0000 0.0000 0.0000
# 3 35.4072 17.7219 26.0674 0.0000 0.0000 0.0000
# 4 0.0000 0.0000 0.0000 10.8090 0.0000 0.0000
# 5 0.0000 0.0000 0.0000 0.0000 26.3709 0.0000
# 6 0.0000 0.0000 0.0000 0.0000 0.0000 36.8860
#
#
#
# Elastic Compliance Matrix: (Units=1/GPa)
#
#
# Indices 1 2 3 4 5 6 
#
# 1 0.018599 -0.005767 -0.021342 0.000000 0.000000 0.000000
# 2 -0.005767 0.009246 0.001548 0.000000 0.000000 0.000000
# 3 -0.021342 0.001548 0.066299 0.000000 0.000000 0.000000
# 4 0.000000 0.000000 0.000000 0.092515 0.000000 0.000000
# 5 0.000000 0.000000 0.000000 0.000000 0.037921 0.000000
# 6 0.000000 0.000000 0.000000 0.000000 0.000000 0.027111
#
#
# Mechanical properties :
#
#
# Convention : Reuss Voigt Hill
#
# Bulk Modulus (GPa) = 23.24467 58.27967 40.76217
# Shear Modulus (GPa) = 15.76521 26.02491 20.89506
#
# Velocity S-wave (km/s) = 3.00056 3.85520 3.45441
# Velocity P-wave (km/s) = 5.02784 7.28695 6.26014
#
# Compressibility (1/GPa) = 0.04302062
#
# Stress axis : x y z
#
# Youngs Moduli (GPa) = 53.76587 108.15182 15.08326
#
# Poissons Ratio (x) = 0.62376 0.32191
# Poissons Ratio (y) = 0.31009 -0.02335
# Poissons Ratio (z) = 1.14748 -0.16740
#
# Static dielectric constant tensor:
#      x y z
#    x 3.165940 0.000000 0.000000 
#    y 0.000000 3.490770 0.000000 
#    z 0.000000 0.000000 2.862740 
# 
# 
# High freq. dielectric constant tensor:
#      x y z
#    x 1.668190 0.000000 0.000000 
#    y 0.000000 1.689570 0.000000 
#    z 0.000000 0.000000 1.636390 
# 
# From -- ./inp_files/15795.got.cif
#   From: 2010.03.12/outbox.cif.g09.slc.cpg/sg42_8_cif.got.tgz:15795.got - 2010.04.14 02:04:31.
