data_PCOD8185156
_publ_section_title
;
Structure prediction by ZEFSAII (Michael W. Deem and Ramdas Pophale) SiO2 
 PCOD8185156
Probable space group: A B A 2
;
_chemical_formula_sum "Si O2"
_cell_formula_units_Z 64
_cell_length_a 17.555056
_cell_length_b 18.226741
_cell_length_c 10.051211
_cell_angle_alpha 90.000000
_cell_angle_beta 90.000000
_cell_angle_gamma 90.000000
_cell_volume 3216.100648
_symmetry_space_group_name_H-M "A B A 2"
_symmetry_group_IT_number 41
_symmetry_cell_setting 'orthorhombic'
loop_
_space_group_symop_operation_xyz
x,y,z
-x,-y,z
1/2-x,y,1/2+z
1/2+x,-y,1/2+z
x,1/2+y,1/2+z
-x,1/2-y,1/2+z
1/2-x,1/2+y,z
1/2+x,1/2-y,z
loop_
_atom_site_type_symbol
_atom_site_label
_atom_site_fract_x
_atom_site_fract_y
_atom_site_fract_z
Si Si1 0.954816 0.148501 0.483920
Si Si2 0.152426 0.199654 0.767447
Si Si3 0.892849 0.406649 0.038581
Si Si4 0.813852 0.555997 0.011133
Si Si5 0.180987 0.138349 0.265105
Si Si6 0.806030 0.030053 0.219704
Si Si7 0.066866 0.695563 0.549289
Si Si8 0.074664 0.347453 0.694553
O O1 0.867256 0.126339 0.503178
O O2 0.964373 0.222237 0.567862
O O3 0.973754 0.161298 0.329004
O O4 0.015619 0.089324 0.533780
O O5 0.129081 0.136244 0.668948
O O6 0.242527 0.185951 0.790028
O O7 0.135669 0.279377 0.699124
O O8 0.105156 0.186163 0.904137
O O9 0.858382 0.368062 0.908165
O O10 0.865170 0.488509 0.055337
O O11 0.749393 0.570291 0.117935
O O12 0.774759 0.542699 0.868466
O O13 0.129172 0.181886 0.161897
O O14 0.190834 0.057547 0.197141
O O15 0.886015 0.071981 0.196572
O O16 0.987537 0.650572 0.574088
#
# Coordination Sequence:
#
# PCOD8185156 Si02
#       8
#     8   8   8   8   8   8   8   8
#     4  10  21  40  62  92 120 164 207 247 310 374
#     4  11  23  39  64  96 124 154 209 257 307 366
#     4  11  20  39  66  87 125 160 204 254 305 366
#     4  10  22  40  63  89 124 162 207 255 305 363
#     4  11  23  40  68  89 122 165 207 253 314 365
#     4  10  23  41  63  90 123 163 209 256 299 371
#     4  11  23  40  65  91 125 162 203 255 308 371
#     4  10  22  43  62  90 127 163 206 252 307 375
#
# _framework density 19.899875000000002
#
# number of rings (size 3 to 8) (size 9 to 14) (size 15 to 20)
#    0.000    1.500    3.750    1.125    3.500    0.500 
#    4.500    0.000    2.750    0.000    0.000    0.000 
#    0.000    0.000    0.000    0.000    0.000    0.000 
#
# Total GULP energy -396563.809535 kJ/mol
# GULP energy per Si atom -12392.619048 kJ/mol
# Density = 1.985458 g / cm^3
# Si number density = 19.899875 Si / 1000 Ang^3
#
#
#
# Elastic Constant Matrix: (Units=GPa)
#
#
# Indices 1 2 3 4 5 6 
#
# 1 99.5932 22.4208 38.8829 0.0000 0.0000 0.0000
# 2 22.4208 56.9464 24.0979 0.0000 0.0000 0.0000
# 3 38.8829 24.0979 81.8133 0.0000 0.0000 0.0000
# 4 0.0000 0.0000 0.0000 26.2402 0.0000 0.0000
# 5 0.0000 0.0000 0.0000 0.0000 23.0436 0.0000
# 6 0.0000 0.0000 0.0000 0.0000 0.0000 26.2605
#
#
#
# Elastic Compliance Matrix: (Units=1/GPa)
#
#
# Indices 1 2 3 4 5 6 
#
# 1 0.012706 -0.002796 -0.005215 0.000000 0.000000 0.000000
# 2 -0.002796 0.020676 -0.004761 0.000000 0.000000 0.000000
# 3 -0.005215 -0.004761 0.016104 0.000000 0.000000 0.000000
# 4 0.000000 0.000000 0.000000 0.038109 0.000000 0.000000
# 5 0.000000 0.000000 0.000000 0.000000 0.043396 0.000000
# 6 0.000000 0.000000 0.000000 0.000000 0.000000 0.038080
#
#
# Mechanical properties :
#
#
# Convention : Reuss Voigt Hill
#
# Bulk Modulus (GPa) = 41.76854 45.46180 43.61517
# Shear Modulus (GPa) = 24.67948 25.30561 24.99254
#
# Velocity S-wave (km/s) = 3.52544 3.56988 3.54773
# Velocity P-wave (km/s) = 6.13242 6.31561 6.22469
#
# Compressibility (1/GPa) = 0.02394146
#
# Stress axis : x y z
#
# Youngs Moduli (GPa) = 78.70032 48.36538 62.09603
#
# Poissons Ratio (x) = 0.13522 0.32386
# Poissons Ratio (y) = 0.22003 0.29566
# Poissons Ratio (z) = 0.41046 0.23028
#
# Static dielectric constant tensor:
#      x y z
#    x 3.778160 0.000000 0.000000 
#    y 0.000000 3.725270 0.000000 
#    z 0.000000 0.000000 3.683560 
# 
# 
# High freq. dielectric constant tensor:
#      x y z
#    x 1.781030 0.000000 0.000000 
#    y 0.000000 1.774750 0.000000 
#    z 0.000000 0.000000 1.775550 
# 
# From -- ./inp_files/3235.got.cif
#   From: 2010.03.12/outbox.cif.g09.slc.cpg/sg41_2_cif.got.tgz:3235.got - 2010.04.14 01:55:53.
