data_PCOD8185559
_publ_section_title
;
Structure prediction by ZEFSAII (Michael W. Deem and Ramdas Pophale) SiO2 
 PCOD8185559
Probable space group: A B A 2
;
_chemical_formula_sum "Si O2"
_cell_formula_units_Z 44
_cell_length_a 17.257359
_cell_length_b 12.188515
_cell_length_c 9.153278
_cell_angle_alpha 90.000000
_cell_angle_beta 90.000000
_cell_angle_gamma 90.000000
_cell_volume 1925.314948
_symmetry_space_group_name_H-M "A B A 2"
_symmetry_group_IT_number 41
_symmetry_cell_setting 'orthorhombic'
loop_
_space_group_symop_operation_xyz
x,y,z
-x,-y,z
1/2-x,y,1/2+z
1/2+x,-y,1/2+z
x,1/2+y,1/2+z
-x,1/2-y,1/2+z
1/2-x,1/2+y,z
1/2+x,1/2-y,z
loop_
_atom_site_type_symbol
_atom_site_label
_atom_site_fract_x
_atom_site_fract_y
_atom_site_fract_z
Si Si1 0.773362 0.669359 0.471500
Si Si2 0.129384 0.513771 0.595402
Si Si3 0.083070 0.149743 0.841441
Si Si4 0.252133 0.677996 0.232171
Si Si5 0.395945 0.895960 0.882612
Si Si6 0.500000 0.500000 0.620725
O O1 0.840929 0.580147 0.484242
O O2 0.759285 0.716154 0.631481
O O3 0.800201 0.771484 0.369250
O O4 0.695863 0.615303 0.405309
O O5 0.072276 0.589605 0.498839
O O6 0.202767 0.582534 0.651503
O O7 0.085468 0.464236 0.735323
O O8 0.170836 0.130264 0.788041
O O9 0.063689 0.277462 0.865145
O O10 0.025075 0.101670 0.721607
O O11 0.429398 0.960171 0.020841
#
# Coordination Sequence:
#
# PCOD8185559 Si02
#       6
#     8   8   8   8   8   4
#     4  11  22  41  70 106 136 164 214 281 343 399
#     4  12  23  41  72  99 137 172 214 278 350 380
#     4  11  26  46  66  99 133 178 226 270 329 399
#     4  11  22  41  70 106 136 164 214 281 343 399
#     4  11  26  46  66  99 133 178 226 270 329 399
#     4  12  30  46  68  90 138 186 232 266 320 396
#
# _framework density 22.853404999999999
#
# number of rings (size 3 to 8) (size 9 to 14) (size 15 to 20)
#    0.000    0.727    7.273    2.182    5.091    3.636 
#    0.000    0.000    0.000    0.000    0.000    0.000 
#    0.000    0.000    0.000    0.000    0.000    0.000 
#
# Total GULP energy -272876.213191 kJ/mol
# GULP energy per Si atom -12403.464236 kJ/mol
# Density = 2.280139 g / cm^3
# Si number density = 22.853405 Si / 1000 Ang^3
#
#
#
# Elastic Constant Matrix: (Units=GPa)
#
#
# Indices 1 2 3 4 5 6 
#
# 1 13.6028 7.6616 18.9382 0.0000 0.0000 0.0000
# 2 7.6616 91.3082 35.0087 0.0000 0.0000 0.0000
# 3 18.9382 35.0087 135.4833 0.0000 0.0000 0.0000
# 4 0.0000 0.0000 0.0000 47.1198 0.0000 0.0000
# 5 0.0000 0.0000 0.0000 0.0000 29.8865 0.0000
# 6 0.0000 0.0000 0.0000 0.0000 0.0000 12.9958
#
#
#
# Elastic Compliance Matrix: (Units=1/GPa)
#
#
# Indices 1 2 3 4 5 6 
#
# 1 0.092061 -0.003098 -0.012068 0.000000 0.000000 0.000000
# 2 -0.003098 0.012261 -0.002735 0.000000 0.000000 0.000000
# 3 -0.012068 -0.002735 0.009775 0.000000 0.000000 0.000000
# 4 0.000000 0.000000 0.000000 0.021222 0.000000 0.000000
# 5 0.000000 0.000000 0.000000 0.000000 0.033460 0.000000
# 6 0.000000 0.000000 0.000000 0.000000 0.000000 0.076948
#
#
# Mechanical properties :
#
#
# Convention : Reuss Voigt Hill
#
# Bulk Modulus (GPa) = 12.77237 40.40128 26.58682
# Shear Modulus (GPa) = 16.25350 29.91947 23.08649
#
# Velocity S-wave (km/s) = 2.66974 3.62220 3.18181
# Velocity P-wave (km/s) = 3.88643 5.93385 5.01572
#
# Compressibility (1/GPa) = 0.07829402
#
# Stress axis : x y z
#
# Youngs Moduli (GPa) = 10.86241 81.56266 102.30565
#
# Poissons Ratio (x) = 0.25266 1.23463
# Poissons Ratio (y) = 0.03365 0.27982
# Poissons Ratio (z) = 0.13109 0.22308
#
# Static dielectric constant tensor:
#      x y z
#    x 3.596540 0.000000 0.000000 
#    y 0.000000 4.317720 0.000000 
#    z 0.000000 0.000000 4.517050 
# 
# 
# High freq. dielectric constant tensor:
#      x y z
#    x 1.859100 0.000000 0.000000 
#    y 0.000000 1.916850 0.000000 
#    z 0.000000 0.000000 1.927860 
# 
# From -- ./inp_files/3585.got.cif
#   From: 2010.03.12/outbox.cif.g09.slc.cpg/sg41_2_cif.got.tgz:3585.got - 2010.04.14 01:55:53.
