data_PCOD8185050
_publ_section_title
;
Structure prediction by ZEFSAII (Michael W. Deem and Ramdas Pophale) SiO2 
 PCOD8185050
Probable space group: A B A 2
;
_chemical_formula_sum "Si O2"
_cell_formula_units_Z 64
_cell_length_a 11.542460
_cell_length_b 18.218797
_cell_length_c 13.999003
_cell_angle_alpha 90.000000
_cell_angle_beta 90.000000
_cell_angle_gamma 90.000000
_cell_volume 2943.846640
_symmetry_space_group_name_H-M "A B A 2"
_symmetry_group_IT_number 41
_symmetry_cell_setting 'orthorhombic'
loop_
_space_group_symop_operation_xyz
x,y,z
-x,-y,z
1/2-x,y,1/2+z
1/2+x,-y,1/2+z
x,1/2+y,1/2+z
-x,1/2-y,1/2+z
1/2-x,1/2+y,z
1/2+x,1/2-y,z
loop_
_atom_site_type_symbol
_atom_site_label
_atom_site_fract_x
_atom_site_fract_y
_atom_site_fract_z
Si Si1 0.426602 0.573048 0.830540
Si Si2 0.163131 0.055860 0.341862
Si Si3 0.385800 0.318829 0.135408
Si Si4 0.466650 0.660432 0.661325
Si Si5 0.583399 0.608041 0.326099
Si Si6 0.063455 0.575368 0.554286
Si Si7 0.682979 0.956309 0.061168
Si Si8 0.333287 0.872932 0.036754
O O1 0.500000 0.500000 0.805674
O O2 0.290949 0.568597 0.797106
O O3 0.481242 0.643084 0.774380
O O4 0.435963 0.589843 0.941730
O O5 0.170915 0.070231 0.453652
O O6 0.057098 0.109245 0.309512
O O7 0.129959 0.973539 0.316850
O O8 0.389019 0.231068 0.139697
O O9 0.355201 0.345350 0.242669
O O10 0.507420 0.354821 0.105414
O O11 0.295957 0.343212 0.053269
O O12 0.412251 0.585270 0.621935
O O13 0.588783 0.673511 0.609999
O O14 0.623747 0.640756 0.428417
O O15 0.190325 0.565568 0.599288
O O16 0.000000 0.500000 0.580277
O O17 0.660684 0.042526 0.066689
#
# Coordination Sequence:
#
# PCOD8185050 Si02
#       8
#     8   8   8   8   8   8   8   8
#     4  10  23  40  69 101 135 179 227 286 331 401
#     4   9  20  40  69 101 126 171 235 281 333 386
#     4  12  29  42  66 104 138 182 221 280 351 414
#     4  12  27  42  64 103 138 181 223 272 350 415
#     4  10  23  42  67  99 133 174 227 286 334 409
#     4  10  22  43  68  99 132 172 230 281 334 390
#     4  10  20  42  71  97 127 174 231 280 326 399
#     4  11  24  47  71  95 134 179 232 283 336 407
#
# _framework density 21.740262000000001
#
# number of rings (size 3 to 8) (size 9 to 14) (size 15 to 20)
#    0.000    1.500    2.500    1.125   10.500    1.000 
#    2.250    0.000    0.000    0.000    0.000    0.000 
#    0.000    0.000    0.000    0.000    0.000    0.000 
#
# Total GULP energy -396736.635898 kJ/mol
# GULP energy per Si atom -12398.019872 kJ/mol
# Density = 2.169078 g / cm^3
# Si number density = 21.740262 Si / 1000 Ang^3
#
#
#
# Elastic Constant Matrix: (Units=GPa)
#
#
# Indices 1 2 3 4 5 6 
#
# 1 98.2354 6.1410 35.7094 0.0000 0.0000 0.0000
# 2 6.1410 70.2338 30.2192 0.0000 0.0000 0.0000
# 3 35.7094 30.2192 73.7428 0.0000 0.0000 0.0000
# 4 0.0000 0.0000 0.0000 15.9049 0.0000 0.0000
# 5 0.0000 0.0000 0.0000 0.0000 29.3855 0.0000
# 6 0.0000 0.0000 0.0000 0.0000 0.0000 27.2248
#
#
#
# Elastic Compliance Matrix: (Units=1/GPa)
#
#
# Indices 1 2 3 4 5 6 
#
# 1 0.012548 0.001842 -0.006831 0.000000 0.000000 0.000000
# 2 0.001842 0.017556 -0.008086 0.000000 0.000000 0.000000
# 3 -0.006831 -0.008086 0.020182 0.000000 0.000000 0.000000
# 4 0.000000 0.000000 0.000000 0.062874 0.000000 0.000000
# 5 0.000000 0.000000 0.000000 0.000000 0.034030 0.000000
# 6 0.000000 0.000000 0.000000 0.000000 0.000000 0.036731
#
#
# Mechanical properties :
#
#
# Convention : Reuss Voigt Hill
#
# Bulk Modulus (GPa) = 41.43278 42.92793 42.18036
# Shear Modulus (GPa) = 22.92345 25.84587 24.38466
#
# Velocity S-wave (km/s) = 3.25071 3.45171 3.35272
# Velocity P-wave (km/s) = 5.76099 5.97281 5.86785
#
# Compressibility (1/GPa) = 0.02413548
#
# Stress axis : x y z
#
# Youngs Moduli (GPa) = 79.69663 56.95924 49.54857
#
# Poissons Ratio (x) = -0.10492 0.33846
# Poissons Ratio (y) = -0.14680 0.40067
# Poissons Ratio (z) = 0.54440 0.46060
#
# Static dielectric constant tensor:
#      x y z
#    x 4.342590 0.000000 0.000000 
#    y 0.000000 3.519690 0.000000 
#    z 0.000000 0.000000 4.114480 
# 
# 
# High freq. dielectric constant tensor:
#      x y z
#    x 1.864070 0.000000 0.000000 
#    y 0.000000 1.820380 0.000000 
#    z 0.000000 0.000000 1.868840 
# 
# From -- ./inp_files/8092.got.cif
#   From: 2010.03.12/outbox.cif.g09.slc.cpg/sg41_5_cif.got.tgz:8092.got - 2010.04.14 01:55:53.
