data_PCOD8185136
_publ_section_title
;
Structure prediction by ZEFSAII (Michael W. Deem and Ramdas Pophale) SiO2 
 PCOD8185136
Probable space group: A B A 2
;
_chemical_formula_sum "Si O2"
_cell_formula_units_Z 48
_cell_length_a 15.806900
_cell_length_b 5.231881
_cell_length_c 25.826285
_cell_angle_alpha 90.000000
_cell_angle_beta 90.000000
_cell_angle_gamma 90.000000
_cell_volume 2135.829115
_symmetry_space_group_name_H-M "A B A 2"
_symmetry_group_IT_number 41
_symmetry_cell_setting 'orthorhombic'
loop_
_space_group_symop_operation_xyz
x,y,z
-x,-y,z
1/2-x,y,1/2+z
1/2+x,-y,1/2+z
x,1/2+y,1/2+z
-x,1/2-y,1/2+z
1/2-x,1/2+y,z
1/2+x,1/2-y,z
loop_
_atom_site_type_symbol
_atom_site_label
_atom_site_fract_x
_atom_site_fract_y
_atom_site_fract_z
Si Si1 0.697580 0.146491 0.444660
Si Si2 0.785943 0.371022 0.077005
Si Si3 0.053815 0.751150 0.024665
Si Si4 0.302420 0.353504 0.824433
Si Si5 0.285941 0.128983 0.692090
Si Si6 0.946185 0.248850 0.744428
O O1 0.759021 0.379628 0.459492
O O2 0.609975 0.178206 0.475202
O O3 0.673122 0.154322 0.384547
O O4 0.761810 0.636015 0.048039
O O5 0.886270 0.320404 0.074055
O O6 0.750004 0.414389 0.134548
O O7 0.000000 0.500000 0.011178
O O8 0.000000 0.000000 0.040498
O O9 0.259018 0.620360 0.809601
O O10 0.390024 0.321796 0.793891
O O11 0.238190 0.363991 0.721058
O O12 0.386270 0.179598 0.695038
O O13 0.000000 0.500000 0.757914
O O14 0.000000 0.000000 0.728595
#
# Coordination Sequence:
#
# PCOD8185136 Si02
#       6
#     8   8   8   8   8   8
#     4  10  21  39  63  88 118 162 205 234 278 355
#     4  10  21  41  63  82 111 158 201 238 289 356
#     4  12  24  38  60  92 124 152 192 250 306 345
#     4  10  21  39  63  88 118 162 205 234 278 355
#     4  10  21  41  63  82 111 158 201 238 289 356
#     4  12  24  38  60  92 124 152 192 250 306 345
#
# _framework density 22.473707999999998
#
# number of rings (size 3 to 8) (size 9 to 14) (size 15 to 20)
#    0.000    1.333    0.000    6.000    0.000    1.333 
#    0.000   20.000    0.000    0.000    0.000    0.000 
#    0.000    0.000    0.000    0.000    0.000    0.000 
#
# Total GULP energy -297522.298502 kJ/mol
# GULP energy per Si atom -12396.762438 kJ/mol
# Density = 2.242256 g / cm^3
# Si number density = 22.473708 Si / 1000 Ang^3
#
#
#
# Elastic Constant Matrix: (Units=GPa)
#
#
# Indices 1 2 3 4 5 6 
#
# 1 144.7687 67.2003 30.1173 0.0000 0.0000 0.0000
# 2 67.2003 204.4979 22.6030 0.0000 0.0000 0.0000
# 3 30.1173 22.6030 63.2308 0.0000 0.0000 0.0000
# 4 0.0000 0.0000 0.0000 20.1006 0.0000 0.0000
# 5 0.0000 0.0000 0.0000 0.0000 31.0363 0.0000
# 6 0.0000 0.0000 0.0000 0.0000 0.0000 38.0123
#
#
#
# Elastic Compliance Matrix: (Units=1/GPa)
#
#
# Indices 1 2 3 4 5 6 
#
# 1 0.008756 -0.002516 -0.003271 0.000000 0.000000 0.000000
# 2 -0.002516 0.005814 -0.000880 0.000000 0.000000 0.000000
# 3 -0.003271 -0.000880 0.017688 0.000000 0.000000 0.000000
# 4 0.000000 0.000000 0.000000 0.049750 0.000000 0.000000
# 5 0.000000 0.000000 0.000000 0.000000 0.032220 0.000000
# 6 0.000000 0.000000 0.000000 0.000000 0.000000 0.026307
#
#
# Mechanical properties :
#
#
# Convention : Reuss Voigt Hill
#
# Bulk Modulus (GPa) = 52.84382 72.48204 62.66293
# Shear Modulus (GPa) = 31.21549 37.33496 34.27522
#
# Velocity S-wave (km/s) = 3.73094 4.08029 3.90952
# Velocity P-wave (km/s) = 6.49034 7.38379 6.95144
#
# Compressibility (1/GPa) = 0.01892369
#
# Stress axis : x y z
#
# Youngs Moduli (GPa) = 114.20906 171.99892 56.53623
#
# Poissons Ratio (x) = 0.43270 0.18494
# Poissons Ratio (y) = 0.28732 0.04976
# Poissons Ratio (z) = 0.37360 0.15137
#
# Static dielectric constant tensor:
#      x y z
#    x 3.991160 0.000000 0.000000 
#    y 0.000000 5.133330 0.000000 
#    z 0.000000 0.000000 4.353250 
# 
# 
# High freq. dielectric constant tensor:
#      x y z
#    x 1.872450 0.000000 0.000000 
#    y 0.000000 1.929240 0.000000 
#    z 0.000000 0.000000 1.892890 
# 
# From -- ./inp_files/12561.got.cif
#   From: 2010.03.12/outbox.cif.g09.slc.cpg/sg41_7_cif.got.tgz:12561.got - 2010.04.14 01:55:53.
