data_PCOD8185368
_publ_section_title
;
Structure prediction by ZEFSAII (Michael W. Deem and Ramdas Pophale) SiO2 
 PCOD8185368
Probable space group: A B A 2
;
_chemical_formula_sum "Si O2"
_cell_formula_units_Z 52
_cell_length_a 24.870691
_cell_length_b 11.030450
_cell_length_c 9.450606
_cell_angle_alpha 90.000000
_cell_angle_beta 90.000000
_cell_angle_gamma 90.000000
_cell_volume 2592.631180
_symmetry_space_group_name_H-M "A B A 2"
_symmetry_group_IT_number 41
_symmetry_cell_setting 'orthorhombic'
loop_
_space_group_symop_operation_xyz
x,y,z
-x,-y,z
1/2-x,y,1/2+z
1/2+x,-y,1/2+z
x,1/2+y,1/2+z
-x,1/2-y,1/2+z
1/2-x,1/2+y,z
1/2+x,1/2-y,z
loop_
_atom_site_type_symbol
_atom_site_label
_atom_site_fract_x
_atom_site_fract_y
_atom_site_fract_z
Si Si1 0.086388 0.644060 0.759790
Si Si2 0.813389 0.993394 0.897721
Si Si3 0.154572 0.253422 0.030386
Si Si4 0.500000 0.500000 0.096540
Si Si5 0.142643 0.394066 0.767613
Si Si6 0.590967 0.660360 0.990066
Si Si7 0.755457 0.587234 0.142168
O O1 0.109413 0.740782 0.649239
O O2 0.130587 0.537389 0.763705
O O3 0.078552 0.712545 0.910401
O O4 0.030252 0.592416 0.702318
O O5 0.858860 0.095400 0.915091
O O6 0.792220 0.997329 0.736932
O O7 0.763359 0.016859 0.002674
O O8 0.838281 0.864527 0.933613
O O9 0.210891 0.293761 0.099414
O O10 0.130054 0.354061 0.926262
O O11 0.538750 0.573727 0.990277
O O12 0.106272 0.319249 0.655238
O O13 0.204918 0.368788 0.734026
#
# Coordination Sequence:
#
# PCOD8185368 Si02
#       7
#     8   8   8   4   8   8   8
#     4  11  23  45  69  91 132 166 217 275 325 390
#     4  11  23  39  61  94 129 172 214 263 315 389
#     4  12  23  39  64  90 132 171 214 268 315 381
#     4  10  22  44  66 100 122 168 214 274 344 374
#     4  10  24  40  60  98 130 169 215 256 318 386
#     4  10  22  45  68  92 131 166 211 276 329 380
#     4  11  22  37  57  96 128 171 214 251 318 379
#
# _framework density 20.056844000000002
#
# number of rings (size 3 to 8) (size 9 to 14) (size 15 to 20)
#    0.000    1.231    7.692    0.000    2.154    6.154 
#    0.000    0.000    0.000    0.000    0.000    0.000 
#    0.000    0.000    0.000    0.000    0.000    0.000 
#
# Total GULP energy -322395.111240 kJ/mol
# GULP energy per Si atom -12399.811971 kJ/mol
# Density = 2.001119 g / cm^3
# Si number density = 20.056844 Si / 1000 Ang^3
#
#
#
# Elastic Constant Matrix: (Units=GPa)
#
#
# Indices 1 2 3 4 5 6 
#
# 1 97.8968 24.8720 42.0921 0.0000 0.0000 0.0000
# 2 24.8720 61.0938 50.9452 0.0000 0.0000 0.0000
# 3 42.0921 50.9452 111.2844 0.0000 0.0000 0.0000
# 4 0.0000 0.0000 0.0000 45.9292 0.0000 0.0000
# 5 0.0000 0.0000 0.0000 0.0000 19.5375 0.0000
# 6 0.0000 0.0000 0.0000 0.0000 0.0000 35.5294
#
#
#
# Elastic Compliance Matrix: (Units=1/GPa)
#
#
# Indices 1 2 3 4 5 6 
#
# 1 0.012324 -0.001828 -0.003824 0.000000 0.000000 0.000000
# 2 -0.001828 0.026746 -0.011553 0.000000 0.000000 0.000000
# 3 -0.003824 -0.011553 0.015721 0.000000 0.000000 0.000000
# 4 0.000000 0.000000 0.000000 0.021773 0.000000 0.000000
# 5 0.000000 0.000000 0.000000 0.000000 0.051183 0.000000
# 6 0.000000 0.000000 0.000000 0.000000 0.000000 0.028146
#
#
# Mechanical properties :
#
#
# Convention : Reuss Voigt Hill
#
# Bulk Modulus (GPa) = 49.06597 56.23261 52.64929
# Shear Modulus (GPa) = 25.36824 30.35695 27.86260
#
# Velocity S-wave (km/s) = 3.56029 3.89465 3.73122
# Velocity P-wave (km/s) = 6.43564 6.95140 6.69848
#
# Compressibility (1/GPa) = 0.02038072
#
# Stress axis : x y z
#
# Youngs Moduli (GPa) = 81.14494 37.38858 63.60792
#
# Poissons Ratio (x) = 0.06834 0.24327
# Poissons Ratio (y) = 0.14833 0.73485
# Poissons Ratio (z) = 0.31033 0.43194
#
# Static dielectric constant tensor:
#      x y z
#    x 3.616700 0.000000 0.000000 
#    y 0.000000 3.474690 0.000000 
#    z 0.000000 0.000000 3.722190 
# 
# 
# High freq. dielectric constant tensor:
#      x y z
#    x 1.779250 0.000000 0.000000 
#    y 0.000000 1.768880 0.000000 
#    z 0.000000 0.000000 1.788910 
# 
# From -- ./inp_files/3771.got.cif
#   From: 2010.03.12/outbox.cif.g09.slc.cpg/sg41_2_cif.got.tgz:3771.got - 2010.04.14 01:55:53.
