data_PCOD8185964
_publ_section_title
;
Structure prediction by ZEFSAII (Michael W. Deem and Ramdas Pophale) SiO2 
 PCOD8185964
Probable space group: F M M 2
;
_chemical_formula_sum "Si O2"
_cell_formula_units_Z 80
_cell_length_a 22.854515
_cell_length_b 8.797929
_cell_length_c 20.036523
_cell_angle_alpha 90.000000
_cell_angle_beta 90.000000
_cell_angle_gamma 90.000000
_cell_volume 4028.791773
_symmetry_space_group_name_H-M "F M M 2"
_symmetry_group_IT_number 42
_symmetry_cell_setting 'orthorhombic'
loop_
_space_group_symop_operation_xyz
x,y,z
-x,-y,z
-x,y,z
x,-y,z
x,1/2+y,1/2+z
-x,1/2-y,1/2+z
-x,1/2+y,1/2+z
x,1/2-y,1/2+z
1/2+x,y,1/2+z
1/2-x,-y,1/2+z
1/2-x,y,1/2+z
1/2+x,-y,1/2+z
1/2+x,1/2+y,z
1/2-x,1/2-y,z
1/2-x,1/2+y,z
1/2+x,1/2-y,z
loop_
_atom_site_type_symbol
_atom_site_label
_atom_site_fract_x
_atom_site_fract_y
_atom_site_fract_z
Si Si1 0.000000 0.181036 0.237680
Si Si2 0.691407 0.671831 0.301750
Si Si3 0.384586 0.174570 0.930002
Si Si4 0.500000 0.680128 0.885135
Si Si5 0.121262 0.819754 0.179040
Si Si6 0.313416 0.319250 0.047190
O O1 0.000000 0.249196 0.311616
O O2 0.944030 0.239498 0.195454
O O3 0.000000 0.000000 0.246538
O O4 0.708925 0.500000 0.287692
O O5 0.750000 0.750000 0.327293
O O6 0.641246 0.685251 0.356323
O O7 0.666294 0.747425 0.233982
O O8 0.445026 0.265641 0.928985
O O9 0.395003 0.000000 0.951213
O O10 0.338990 0.253122 0.979361
O O11 0.500000 0.500000 0.879255
O O12 0.142506 0.767974 0.106210
O O13 0.121066 0.000000 0.185260
O O14 0.307853 0.500000 0.041999
O O15 0.250000 0.250000 0.061483
#
# Coordination Sequence:
#
# PCOD8185964 Si02
#       6
#     8  16  16   8  16  16
#     4  10  18  39  66  87 119 161 207 253 306 366
#     4  10  20  35  57  85 114 154 204 250 299 357
#     4  11  23  41  64  87 120 164 206 252 309 367
#     4  12  24  39  62  95 127 155 199 257 312 370
#     4   9  19  36  61  88 117 161 206 250 305 364
#     4  11  23  40  61  90 127 165 209 256 309 367
#
# _framework density 19.857071000000001
#
# number of rings (size 3 to 8) (size 9 to 14) (size 15 to 20)
#    0.000    1.600    2.000    3.300    0.000    4.000 
#    0.000    5.000    0.000    0.000    0.000    0.000 
#    0.000    0.000    0.000    0.000    0.000    0.000 
#
# Total GULP energy -248027.368686 kJ/mol
# GULP energy per Si atom -12401.368434 kJ/mol
# Density = 1.981187 g / cm^3
# Si number density = 19.857071 Si / 1000 Ang^3
#
#
#
# Elastic Constant Matrix: (Units=GPa)
#
#
# Indices 1 2 3 4 5 6 
#
# 1 131.1821 41.5375 22.1685 0.0000 0.0000 0.0000
# 2 41.5375 84.3126 30.7254 0.0000 0.0000 0.0000
# 3 22.1685 30.7254 82.0032 0.0000 0.0000 0.0000
# 4 0.0000 0.0000 0.0000 21.6238 0.0000 0.0000
# 5 0.0000 0.0000 0.0000 0.0000 39.2404 0.0000
# 6 0.0000 0.0000 0.0000 0.0000 0.0000 31.8173
#
#
#
# Elastic Compliance Matrix: (Units=1/GPa)
#
#
# Indices 1 2 3 4 5 6 
#
# 1 0.009089 -0.004149 -0.000903 0.000000 0.000000 0.000000
# 2 -0.004149 0.015630 -0.004735 0.000000 0.000000 0.000000
# 3 -0.000903 -0.004735 0.014213 0.000000 0.000000 0.000000
# 4 0.000000 0.000000 0.000000 0.046245 0.000000 0.000000
# 5 0.000000 0.000000 0.000000 0.000000 0.025484 0.000000
# 6 0.000000 0.000000 0.000000 0.000000 0.000000 0.031429
#
#
# Mechanical properties :
#
#
# Convention : Reuss Voigt Hill
#
# Bulk Modulus (GPa) = 51.65453 54.04009 52.84731
# Shear Modulus (GPa) = 29.74126 32.07407 30.90767
#
# Velocity S-wave (km/s) = 3.87430 4.02337 3.94954
# Velocity P-wave (km/s) = 6.78846 6.98978 6.88986
#
# Compressibility (1/GPa) = 0.01935939
#
# Stress axis : x y z
#
# Youngs Moduli (GPa) = 110.01998 63.97908 70.35959
#
# Poissons Ratio (x) = 0.26545 0.06351
# Poissons Ratio (y) = 0.45647 0.33314
# Poissons Ratio (z) = 0.09930 0.30293
#
# Static dielectric constant tensor:
#      x y z
#    x 3.824260 0.000000 0.000000 
#    y 0.000000 3.466440 0.000000 
#    z 0.000000 0.000000 3.622800 
# 
# 
# High freq. dielectric constant tensor:
#      x y z
#    x 1.791340 0.000000 0.000000 
#    y 0.000000 1.756030 0.000000 
#    z 0.000000 0.000000 1.777250 
# 
# From -- ./inp_files/26732.got.cif
#   From: 2010.03.12/outbox.cif.g09.slc.cpg/sg42_14_cif.got.tgz:26732.got - 2010.04.14 02:04:31.
