data_PCOD8185115
_publ_section_title
;
Structure prediction by ZEFSAII (Michael W. Deem and Ramdas Pophale) SiO2 
 PCOD8185115
Probable space group: A B A 2
;
_chemical_formula_sum "Si O2"
_cell_formula_units_Z 52
_cell_length_a 16.548098
_cell_length_b 13.542087
_cell_length_c 12.200214
_cell_angle_alpha 90.000000
_cell_angle_beta 90.000000
_cell_angle_gamma 90.000000
_cell_volume 2734.016507
_symmetry_space_group_name_H-M "A B A 2"
_symmetry_group_IT_number 41
_symmetry_cell_setting 'orthorhombic'
loop_
_space_group_symop_operation_xyz
x,y,z
-x,-y,z
1/2-x,y,1/2+z
1/2+x,-y,1/2+z
x,1/2+y,1/2+z
-x,1/2-y,1/2+z
1/2-x,1/2+y,z
1/2+x,1/2-y,z
loop_
_atom_site_type_symbol
_atom_site_label
_atom_site_fract_x
_atom_site_fract_y
_atom_site_fract_z
Si Si1 0.882768 0.503631 0.404630
Si Si2 0.631225 0.923897 0.161610
Si Si3 0.000000 0.000000 0.512769
Si Si4 0.100134 0.337349 0.910976
Si Si5 0.626396 0.197802 0.661395
Si Si6 0.998039 0.349562 0.487386
Si Si7 0.258492 0.923790 0.035212
O O1 0.886748 0.454841 0.285914
O O2 0.926467 0.431413 0.494143
O O3 0.789648 0.519899 0.438071
O O4 0.932091 0.607692 0.405607
O O5 0.657249 0.810294 0.155631
O O6 0.549536 0.927809 0.091773
O O7 0.698209 0.994869 0.110018
O O8 0.943289 0.059726 0.431922
O O9 0.122201 0.334825 0.785482
O O10 0.040598 0.248604 0.938880
O O11 0.181141 0.341389 0.985125
O O12 0.539584 0.176511 0.603877
O O13 0.695209 0.132248 0.609189
#
# Coordination Sequence:
#
# PCOD8185115 Si02
#       7
#     8   8   4   8   8   8   8
#     4  10  21  40  62  86 120 160 198 249 297 358
#     4  11  21  38  65  84 118 162 200 240 303 356
#     4  10  22  38  60  90 120 146 200 250 298 342
#     4  11  22  40  62  91 121 154 197 251 296 351
#     4  11  23  40  64  90 119 159 199 247 298 353
#     4  10  21  38  63  88 117 150 205 243 295 352
#     4  10  25  39  58  89 128 153 203 244 297 357
#
# _framework density 19.019635999999998
#
# number of rings (size 3 to 8) (size 9 to 14) (size 15 to 20)
#    0.000    1.538    3.077    1.846    2.154    2.462 
#    0.000    0.000    3.385    0.000    0.000    0.000 
#    0.000    0.000    0.000    0.000    0.000    0.000 
#
# Total GULP energy -322341.989116 kJ/mol
# GULP energy per Si atom -12397.768812 kJ/mol
# Density = 1.897635 g / cm^3
# Si number density = 19.019636 Si / 1000 Ang^3
#
#
#
# Elastic Constant Matrix: (Units=GPa)
#
#
# Indices 1 2 3 4 5 6 
#
# 1 95.9148 35.7279 46.7048 0.0000 0.0000 0.0000
# 2 35.7279 92.1626 57.7162 0.0000 0.0000 0.0000
# 3 46.7048 57.7162 114.0834 0.0000 0.0000 0.0000
# 4 0.0000 0.0000 0.0000 11.5505 0.0000 0.0000
# 5 0.0000 0.0000 0.0000 0.0000 1.8886 0.0000
# 6 0.0000 0.0000 0.0000 0.0000 0.0000 32.4145
#
#
#
# Elastic Compliance Matrix: (Units=1/GPa)
#
#
# Indices 1 2 3 4 5 6 
#
# 1 0.013428 -0.002580 -0.004192 0.000000 0.000000 0.000000
# 2 -0.002580 0.016378 -0.007229 0.000000 0.000000 0.000000
# 3 -0.004192 -0.007229 0.014139 0.000000 0.000000 0.000000
# 4 0.000000 0.000000 0.000000 0.086576 0.000000 0.000000
# 5 0.000000 0.000000 0.000000 0.000000 0.529506 0.000000
# 6 0.000000 0.000000 0.000000 0.000000 0.000000 0.030850
#
#
# Mechanical properties :
#
#
# Convention : Reuss Voigt Hill
#
# Bulk Modulus (GPa) = 62.72805 64.71763 63.72284
# Shear Modulus (GPa) = 6.90421 19.97150 13.43785
#
# Velocity S-wave (km/s) = 1.90733 3.24396 2.66094
# Velocity P-wave (km/s) = 6.15653 6.93770 6.55875
#
# Compressibility (1/GPa) = 0.01594183
#
# Stress axis : x y z
#
# Youngs Moduli (GPa) = 74.46913 61.05692 70.72549
#
# Poissons Ratio (x) = 0.15756 0.29648
# Poissons Ratio (y) = 0.19217 0.51131
# Poissons Ratio (z) = 0.31217 0.44141
#
# Static dielectric constant tensor:
#      x y z
#    x 3.756080 0.000000 0.000000 
#    y 0.000000 3.683400 0.000000 
#    z 0.000000 0.000000 3.514180 
# 
# 
# High freq. dielectric constant tensor:
#      x y z
#    x 1.747680 0.000000 0.000000 
#    y 0.000000 1.748440 0.000000 
#    z 0.000000 0.000000 1.735610 
# 
# From -- ./inp_files/5971.got.cif
#   From: 2010.03.12/outbox.cif.g09.slc.cpg/sg41_3_cif.got.tgz:5971.got - 2010.04.14 01:55:53.
