data_PCOD8185831
_publ_section_title
;
Structure prediction by ZEFSAII (Michael W. Deem and Ramdas Pophale) SiO2 
 PCOD8185831
Probable space group: F M M 2
;
_chemical_formula_sum "Si O2"
_cell_formula_units_Z 96
_cell_length_a 19.255489
_cell_length_b 8.927427
_cell_length_c 31.274041
_cell_angle_alpha 90.000000
_cell_angle_beta 90.000000
_cell_angle_gamma 90.000000
_cell_volume 5376.069333
_symmetry_space_group_name_H-M "F M M 2"
_symmetry_group_IT_number 42
_symmetry_cell_setting 'orthorhombic'
loop_
_space_group_symop_operation_xyz
x,y,z
-x,-y,z
-x,y,z
x,-y,z
x,1/2+y,1/2+z
-x,1/2-y,1/2+z
-x,1/2+y,1/2+z
x,1/2-y,1/2+z
1/2+x,y,1/2+z
1/2-x,-y,1/2+z
1/2-x,y,1/2+z
1/2+x,-y,1/2+z
1/2+x,1/2+y,z
1/2-x,1/2-y,z
1/2-x,1/2+y,z
1/2+x,1/2-y,z
loop_
_atom_site_type_symbol
_atom_site_label
_atom_site_fract_x
_atom_site_fract_y
_atom_site_fract_z
Si Si1 0.917468 0.666446 0.433580
Si Si2 0.824155 0.325461 0.681253
Si Si3 0.581578 0.827461 0.017687
Si Si4 0.824417 0.173784 0.086720
Si Si5 0.422673 0.678241 0.840190
Si Si6 0.674199 0.678589 0.764034
O O1 0.887002 0.500000 0.441770
O O2 0.890916 0.774669 0.471219
O O3 0.894012 0.729313 0.386982
O O4 0.000000 0.658273 0.433120
O O5 0.817467 0.500000 0.692684
O O6 0.750000 0.250000 0.678363
O O7 0.857461 0.301396 0.634305
O O8 0.862987 0.240295 0.720378
O O9 0.500000 0.796391 0.022264
O O10 0.619461 0.736349 0.054330
O O11 0.600336 0.000000 0.022921
O O12 0.750000 0.250000 0.080597
O O13 0.812567 0.000000 0.077693
O O14 0.500000 0.743339 0.831735
O O15 0.426211 0.500000 0.839789
O O16 0.371347 0.737622 0.803660
O O17 0.678966 0.500000 0.762524
O O18 0.750000 0.750000 0.768945
#
# Coordination Sequence:
#
# PCOD8185831 Si02
#       6
#    16  16  16  16  16  16
#     4   8  14  28  50  70  90 122 163 200 235 281
#     4   9  17  30  48  69  93 123 159 194 230 280
#     4  10  20  33  50  74 102 129 161 201 242 287
#     4  10  20  34  53  74  97 127 163 202 244 291
#     4   8  15  29  49  71  92 120 161 201 234 274
#     4  10  18  29  48  71  96 124 155 193 234 280
#
# _framework density 17.856912000000001
#
# number of rings (size 3 to 8) (size 9 to 14) (size 15 to 20)
#    0.000    2.833    0.000    4.000    0.000    3.000 
#    0.000    3.333    0.000    9.000    0.000    0.000 
#    0.000    0.000    0.000    0.000    0.000    0.000 
#
# Total GULP energy -297392.300217 kJ/mol
# GULP energy per Si atom -12391.345842 kJ/mol
# Density = 1.781627 g / cm^3
# Si number density = 17.856912 Si / 1000 Ang^3
#
#
#
# Elastic Constant Matrix: (Units=GPa)
#
#
# Indices 1 2 3 4 5 6 
#
# 1 44.8911 32.3164 54.2641 0.0000 0.0000 0.0000
# 2 32.3164 95.8056 68.2582 0.0000 0.0000 0.0000
# 3 54.2641 68.2582 184.4801 0.0000 0.0000 0.0000
# 4 0.0000 0.0000 0.0000 25.7600 0.0000 0.0000
# 5 0.0000 0.0000 0.0000 0.0000 30.6200 0.0000
# 6 0.0000 0.0000 0.0000 0.0000 0.0000 19.8969
#
#
#
# Elastic Compliance Matrix: (Units=1/GPa)
#
#
# Indices 1 2 3 4 5 6 
#
# 1 0.037304 -0.006471 -0.008579 0.000000 0.000000 0.000000
# 2 -0.006471 0.015297 -0.003756 0.000000 0.000000 0.000000
# 3 -0.008579 -0.003756 0.009334 0.000000 0.000000 0.000000
# 4 0.000000 0.000000 0.000000 0.038820 0.000000 0.000000
# 5 0.000000 0.000000 0.000000 0.000000 0.032658 0.000000
# 6 0.000000 0.000000 0.000000 0.000000 0.000000 0.050259
#
#
# Mechanical properties :
#
#
# Convention : Reuss Voigt Hill
#
# Bulk Modulus (GPa) = 41.11383 70.53935 55.82659
# Shear Modulus (GPa) = 21.79668 26.61125 24.20396
#
# Velocity S-wave (km/s) = 3.49754 3.86456 3.68562
# Velocity P-wave (km/s) = 6.27570 7.71372 7.03157
#
# Compressibility (1/GPa) = 0.02432272
#
# Stress axis : x y z
#
# Youngs Moduli (GPa) = 26.80648 65.37245 107.13669
#
# Poissons Ratio (x) = 0.42305 0.91908
# Poissons Ratio (y) = 0.17347 0.40245
# Poissons Ratio (z) = 0.22996 0.24557
#
# Static dielectric constant tensor:
#      x y z
#    x 2.986860 0.000000 0.000000 
#    y 0.000000 3.286780 0.000000 
#    z 0.000000 0.000000 4.187200 
# 
# 
# High freq. dielectric constant tensor:
#      x y z
#    x 1.642210 0.000000 0.000000 
#    y 0.000000 1.687100 0.000000 
#    z 0.000000 0.000000 1.716390 
# 
# From -- ./inp_files/30432.got.cif
#   From: 2010.03.12/outbox.cif.g09.slc.cpg/sg42_16_cif.got.tgz:30432.got - 2010.04.14 02:04:31.
