data_PCOD8185202
_publ_section_title
;
Structure prediction by ZEFSAII (Michael W. Deem and Ramdas Pophale) SiO2 
 PCOD8185202
Probable space group: A B A 2
;
_chemical_formula_sum "Si O2"
_cell_formula_units_Z 60
_cell_length_a 26.938534
_cell_length_b 10.991362
_cell_length_c 8.658982
_cell_angle_alpha 90.000000
_cell_angle_beta 90.000000
_cell_angle_gamma 90.000000
_cell_volume 2563.848189
_symmetry_space_group_name_H-M "A B A 2"
_symmetry_group_IT_number 41
_symmetry_cell_setting 'orthorhombic'
loop_
_space_group_symop_operation_xyz
x,y,z
-x,-y,z
1/2-x,y,1/2+z
1/2+x,-y,1/2+z
x,1/2+y,1/2+z
-x,1/2-y,1/2+z
1/2-x,1/2+y,z
1/2+x,1/2-y,z
loop_
_atom_site_type_symbol
_atom_site_label
_atom_site_fract_x
_atom_site_fract_y
_atom_site_fract_z
Si Si1 0.573519 0.579383 0.419060
Si Si2 0.402274 0.222969 0.624664
Si Si3 0.750445 0.847051 0.890600
Si Si4 0.500000 0.000000 0.179086
Si Si5 0.015459 0.257834 0.679829
Si Si6 0.097509 0.686227 0.950957
Si Si7 0.813427 0.732773 0.632553
Si Si8 0.183024 0.043117 0.134189
O O1 0.611601 0.679315 0.490194
O O2 0.542690 0.551646 0.571547
O O3 0.542044 0.637668 0.279538
O O4 0.597686 0.450476 0.373046
O O5 0.461426 0.191417 0.630044
O O6 0.389381 0.269244 0.800693
O O7 0.367541 0.108914 0.582916
O O8 0.793217 0.787715 0.789517
O O9 0.727819 0.741101 0.998533
O O10 0.705789 0.904397 0.792552
O O11 0.775711 0.948558 0.999193
O O12 0.515273 0.875486 0.271549
O O13 0.044667 0.229092 0.519250
O O14 0.137905 0.691403 0.085480
O O15 0.831056 0.596186 0.661675
#
# Coordination Sequence:
#
# PCOD8185202 Si02
#       8
#     8   8   8   4   8   8   8   8
#     4  10  22  42  64  90 134 176 217 268 329 383
#     4  11  23  42  64  98 130 171 222 275 318 389
#     4  10  24  47  69  97 131 174 214 279 344 395
#     4   8  18  40  60  88 126 168 222 272 316 376
#     4  10  21  41  67  91 132 184 219 268 332 383
#     4  11  25  43  64  97 136 175 220 273 328 396
#     4  11  24  46  70 101 132 172 222 273 337 402
#     4  11  24  44  69  99 131 167 222 275 335 403
#
# _framework density 23.402322000000002
#
# number of rings (size 3 to 8) (size 9 to 14) (size 15 to 20)
#    0.000    1.600    1.333    3.200    3.733    1.067 
#   14.400    2.667    0.000    0.000    0.000    0.000 
#    0.000    0.000    0.000    0.000    0.000    0.000 
#
# Total GULP energy -371718.891312 kJ/mol
# GULP energy per Si atom -12390.629710 kJ/mol
# Density = 2.334906 g / cm^3
# Si number density = 23.402322 Si / 1000 Ang^3
#
#
#
# Elastic Constant Matrix: (Units=GPa)
#
#
# Indices 1 2 3 4 5 6 
#
# 1 68.4746 22.7656 1.3395 0.0000 0.0000 0.0000
# 2 22.7656 115.6659 13.1857 0.0000 0.0000 0.0000
# 3 1.3395 13.1857 58.4986 0.0000 0.0000 0.0000
# 4 0.0000 0.0000 0.0000 19.6261 0.0000 0.0000
# 5 0.0000 0.0000 0.0000 0.0000 27.9930 0.0000
# 6 0.0000 0.0000 0.0000 0.0000 0.0000 39.6320
#
#
#
# Elastic Compliance Matrix: (Units=1/GPa)
#
#
# Indices 1 2 3 4 5 6 
#
# 1 0.015633 -0.003116 0.000344 0.000000 0.000000 0.000000
# 2 -0.003116 0.009495 -0.002069 0.000000 0.000000 0.000000
# 3 0.000344 -0.002069 0.017553 0.000000 0.000000 0.000000
# 4 0.000000 0.000000 0.000000 0.050953 0.000000 0.000000
# 5 0.000000 0.000000 0.000000 0.000000 0.035723 0.000000
# 6 0.000000 0.000000 0.000000 0.000000 0.000000 0.025232
#
#
# Mechanical properties :
#
#
# Convention : Reuss Voigt Hill
#
# Bulk Modulus (GPa) = 30.30331 35.24676 32.77503
# Shear Modulus (GPa) = 28.52742 31.14010 29.83376
#
# Velocity S-wave (km/s) = 3.49521 3.65175 3.57434
# Velocity P-wave (km/s) = 5.40977 5.73361 5.57404
#
# Compressibility (1/GPa) = 0.03299969
#
# Stress axis : x y z
#
# Youngs Moduli (GPa) = 63.96619 105.32114 56.97083
#
# Poissons Ratio (x) = 0.32821 -0.01962
# Poissons Ratio (y) = 0.19933 0.11786
# Poissons Ratio (z) = -0.02203 0.21789
#
# Static dielectric constant tensor:
#      x y z
#    x 4.238190 0.000000 0.000000 
#    y 0.000000 4.598550 0.000000 
#    z 0.000000 0.000000 4.289210 
# 
# 
# High freq. dielectric constant tensor:
#      x y z
#    x 1.929370 0.000000 0.000000 
#    y 0.000000 1.914800 0.000000 
#    z 0.000000 0.000000 1.928350 
# 
# From -- ./inp_files/3833.got.cif
#   From: 2010.03.12/outbox.cif.g09.slc.cpg/sg41_2_cif.got.tgz:3833.got - 2010.04.14 01:55:53.
