data_PCOD8185612
_publ_section_title
;
Structure prediction by ZEFSAII (Michael W. Deem and Ramdas Pophale) SiO2 
 PCOD8185612
Probable space group: A B A 2
;
_chemical_formula_sum "Si O2"
_cell_formula_units_Z 48
_cell_length_a 12.138062
_cell_length_b 17.919696
_cell_length_c 9.923196
_cell_angle_alpha 90.000000
_cell_angle_beta 90.000000
_cell_angle_gamma 90.000000
_cell_volume 2158.398143
_symmetry_space_group_name_H-M "A B A 2"
_symmetry_group_IT_number 41
_symmetry_cell_setting 'orthorhombic'
loop_
_space_group_symop_operation_xyz
x,y,z
-x,-y,z
1/2-x,y,1/2+z
1/2+x,-y,1/2+z
x,1/2+y,1/2+z
-x,1/2-y,1/2+z
1/2-x,1/2+y,z
1/2+x,1/2-y,z
loop_
_atom_site_type_symbol
_atom_site_label
_atom_site_fract_x
_atom_site_fract_y
_atom_site_fract_z
Si Si1 0.702036 0.221665 0.037460
Si Si2 0.828541 0.459009 0.234819
Si Si3 0.044168 0.858442 0.372722
Si Si4 0.000000 0.000000 0.961017
Si Si5 0.000000 0.000000 0.523440
Si Si6 0.196865 0.686367 0.801903
Si Si7 0.332902 0.911235 0.632939
O O1 0.689449 0.249975 0.189181
O O2 0.761574 0.140642 0.033383
O O3 0.579903 0.206271 0.977457
O O4 0.762906 0.281171 0.943698
O O5 0.774051 0.378849 0.247493
O O6 0.738857 0.522756 0.201336
O O7 0.897803 0.471131 0.371652
O O8 0.912952 0.453927 0.111734
O O9 0.062833 0.940758 0.432455
O O10 0.125981 0.853788 0.246417
O O11 0.920729 0.848792 0.326453
O O12 0.943291 0.061176 0.056836
#
# Coordination Sequence:
#
# PCOD8185612 Si02
#       7
#     8   8   8   4   4   8   8
#     4  12  28  50  72 108 156 200 241 318 385 455
#     4  11  26  47  74 110 146 193 257 309 378 450
#     4  12  26  45  76 105 146 192 255 300 384 447
#     4  11  27  42  84 106 147 195 256 314 382 450
#     4  11  23  46  76 110 143 191 250 322 366 442
#     4  12  29  46  77 110 153 198 249 313 382 463
#     4  12  25  50  73 109 148 197 249 317 374 451
#
# _framework density 22.238713000000001
#
# number of rings (size 3 to 8) (size 9 to 14) (size 15 to 20)
#    0.000    0.333    3.333    4.500    9.333    1.333 
#    0.000    0.000    0.000    0.000    0.000    0.000 
#    0.000    0.000    0.000    0.000    0.000    0.000 
#
# Total GULP energy -297644.425079 kJ/mol
# GULP energy per Si atom -12401.851045 kJ/mol
# Density = 2.218810 g / cm^3
# Si number density = 22.238713 Si / 1000 Ang^3
#
#
#
# Elastic Constant Matrix: (Units=GPa)
#
#
# Indices 1 2 3 4 5 6 
#
# 1 109.3043 38.6859 39.0042 0.0000 0.0000 0.0000
# 2 38.6859 102.3869 31.5959 0.0000 0.0000 0.0000
# 3 39.0042 31.5959 100.6728 0.0000 0.0000 0.0000
# 4 0.0000 0.0000 0.0000 33.8476 0.0000 0.0000
# 5 0.0000 0.0000 0.0000 0.0000 26.6141 0.0000
# 6 0.0000 0.0000 0.0000 0.0000 0.0000 37.9963
#
#
#
# Elastic Compliance Matrix: (Units=1/GPa)
#
#
# Indices 1 2 3 4 5 6 
#
# 1 0.011543 -0.003301 -0.003436 0.000000 0.000000 0.000000
# 2 -0.003301 0.011758 -0.002411 0.000000 0.000000 0.000000
# 3 -0.003436 -0.002411 0.012021 0.000000 0.000000 0.000000
# 4 0.000000 0.000000 0.000000 0.029544 0.000000 0.000000
# 5 0.000000 0.000000 0.000000 0.000000 0.037574 0.000000
# 6 0.000000 0.000000 0.000000 0.000000 0.000000 0.026318
#
#
# Mechanical properties :
#
#
# Convention : Reuss Voigt Hill
#
# Bulk Modulus (GPa) = 58.73548 58.99289 58.86419
# Shear Modulus (GPa) = 32.73707 33.23014 32.98361
#
# Velocity S-wave (km/s) = 3.84093 3.86974 3.85536
# Velocity P-wave (km/s) = 6.79257 6.82285 6.80773
#
# Compressibility (1/GPa) = 0.01702548
#
# Stress axis : x y z
#
# Youngs Moduli (GPa) = 86.63012 85.04637 83.18579
#
# Poissons Ratio (x) = 0.28075 0.28585
# Poissons Ratio (y) = 0.28598 0.20059
# Poissons Ratio (z) = 0.29768 0.20508
#
# Static dielectric constant tensor:
#      x y z
#    x 4.087950 0.000000 0.000000 
#    y 0.000000 3.842400 0.000000 
#    z 0.000000 0.000000 4.235770 
# 
# 
# High freq. dielectric constant tensor:
#      x y z
#    x 1.889180 0.000000 0.000000 
#    y 0.000000 1.873180 0.000000 
#    z 0.000000 0.000000 1.895050 
# 
# From -- ./inp_files/5024.got.cif
#   From: 2010.03.12/outbox.cif.g09.slc.cpg/sg41_3_cif.got.tgz:5024.got - 2010.04.14 01:55:53.
