data_PCOD8185589
_publ_section_title
;
Structure prediction by ZEFSAII (Michael W. Deem and Ramdas Pophale) SiO2 
 PCOD8185589
Probable space group: A B A 2
;
_chemical_formula_sum "Si O2"
_cell_formula_units_Z 64
_cell_length_a 9.676970
_cell_length_b 26.330427
_cell_length_c 12.170714
_cell_angle_alpha 90.000000
_cell_angle_beta 90.000000
_cell_angle_gamma 90.000000
_cell_volume 3101.082740
_symmetry_space_group_name_H-M "A B A 2"
_symmetry_group_IT_number 41
_symmetry_cell_setting 'orthorhombic'
loop_
_space_group_symop_operation_xyz
x,y,z
-x,-y,z
1/2-x,y,1/2+z
1/2+x,-y,1/2+z
x,1/2+y,1/2+z
-x,1/2-y,1/2+z
1/2-x,1/2+y,z
1/2+x,1/2-y,z
loop_
_atom_site_type_symbol
_atom_site_label
_atom_site_fract_x
_atom_site_fract_y
_atom_site_fract_z
Si Si1 0.603578 0.878737 0.068170
Si Si2 0.135183 0.386215 0.236629
Si Si3 0.289896 0.802801 0.406093
Si Si4 0.377136 0.125705 0.703838
Si Si5 0.620810 0.459770 0.386513
Si Si6 0.128448 0.968993 0.906102
Si Si7 0.538474 0.299105 0.384327
Si Si8 0.638853 0.116527 0.574948
O O1 0.460754 0.877718 0.132537
O O2 0.723499 0.869708 0.156841
O O3 0.622334 0.931649 0.004033
O O4 0.596396 0.833971 0.980906
O O5 0.137868 0.338089 0.315709
O O6 0.084955 0.436566 0.299407
O O7 0.290686 0.393088 0.192507
O O8 0.381356 0.752819 0.402707
O O9 0.308072 0.830516 0.523340
O O10 0.127561 0.791646 0.386279
O O11 0.393946 0.078696 0.785852
O O12 0.418150 0.177416 0.766873
O O13 0.475151 0.118358 0.597524
O O14 0.500000 0.500000 0.383328
O O15 0.760473 0.490137 0.370671
O O16 0.183269 0.930251 0.997682
O O17 0.000000 0.000000 0.953572
#
# Coordination Sequence:
#
# PCOD8185589 Si02
#       8
#     8   8   8   8   8   8   8   8
#     4  11  25  43  66  97 135 170 215 268 323 383
#     4  11  23  43  67  92 131 174 214 263 323 385
#     4  11  26  44  69  98 128 167 217 268 327 388
#     4  11  25  43  66  97 135 170 215 268 323 383
#     4  11  24  41  65  96 134 172 218 268 319 375
#     4  11  24  39  63  96 130 170 220 265 312 379
#     4  11  26  46  67  97 132 165 213 272 326 386
#     4  11  23  43  67  92 131 174 214 263 323 385
#
# _framework density 20.637953
#
# number of rings (size 3 to 8) (size 9 to 14) (size 15 to 20)
#    0.000    1.000    2.500    3.000    7.000   10.000 
#    0.000    0.000    0.000    0.000    0.000    0.000 
#    0.000    0.000    0.000    0.000    0.000    0.000 
#
# Total GULP energy -396915.864899 kJ/mol
# GULP energy per Si atom -12403.620778 kJ/mol
# Density = 2.059098 g / cm^3
# Si number density = 20.637953 Si / 1000 Ang^3
#
#
#
# Elastic Constant Matrix: (Units=GPa)
#
#
# Indices 1 2 3 4 5 6 
#
# 1 113.7036 49.2570 22.3940 0.0000 0.0000 0.0000
# 2 49.2570 129.0823 36.0222 0.0000 0.0000 0.0000
# 3 22.3940 36.0222 89.0614 0.0000 0.0000 0.0000
# 4 0.0000 0.0000 0.0000 12.7911 0.0000 0.0000
# 5 0.0000 0.0000 0.0000 0.0000 44.1643 0.0000
# 6 0.0000 0.0000 0.0000 0.0000 0.0000 36.6087
#
#
#
# Elastic Compliance Matrix: (Units=1/GPa)
#
#
# Indices 1 2 3 4 5 6 
#
# 1 0.010643 -0.003736 -0.001165 0.000000 0.000000 0.000000
# 2 -0.003736 0.010044 -0.003123 0.000000 0.000000 0.000000
# 3 -0.001165 -0.003123 0.012784 0.000000 0.000000 0.000000
# 4 0.000000 0.000000 0.000000 0.078179 0.000000 0.000000
# 5 0.000000 0.000000 0.000000 0.000000 0.022643 0.000000
# 6 0.000000 0.000000 0.000000 0.000000 0.000000 0.027316
#
#
# Mechanical properties :
#
#
# Convention : Reuss Voigt Hill
#
# Bulk Modulus (GPa) = 57.39551 60.79930 59.09740
# Shear Modulus (GPa) = 27.25312 33.65776 30.45544
#
# Velocity S-wave (km/s) = 3.63786 4.04278 3.84565
# Velocity P-wave (km/s) = 6.74658 7.16352 6.95817
#
# Compressibility (1/GPa) = 0.01742297
#
# Stress axis : x y z
#
# Youngs Moduli (GPa) = 93.96076 99.55977 78.22088
#
# Poissons Ratio (x) = 0.37197 0.09112
# Poissons Ratio (y) = 0.35105 0.24429
# Poissons Ratio (z) = 0.10946 0.31094
#
# Static dielectric constant tensor:
#      x y z
#    x 3.652510 0.000000 0.000000 
#    y 0.000000 3.803080 0.000000 
#    z 0.000000 0.000000 3.818060 
# 
# 
# High freq. dielectric constant tensor:
#      x y z
#    x 1.820320 0.000000 0.000000 
#    y 0.000000 1.813580 0.000000 
#    z 0.000000 0.000000 1.816080 
# 
# From -- ./inp_files/4643.got.cif
#   From: 2010.03.12/outbox.cif.g09.slc.cpg/sg41_3_cif.got.tgz:4643.got - 2010.04.14 01:55:53.
