data_PCOD8185438
_publ_section_title
;
Structure prediction by ZEFSAII (Michael W. Deem and Ramdas Pophale) SiO2 
 PCOD8185438
Probable space group: A B A 2
;
_chemical_formula_sum "Si O2"
_cell_formula_units_Z 48
_cell_length_a 16.941286
_cell_length_b 9.639490
_cell_length_c 13.522976
_cell_angle_alpha 90.000000
_cell_angle_beta 90.000000
_cell_angle_gamma 90.000000
_cell_volume 2208.374423
_symmetry_space_group_name_H-M "A B A 2"
_symmetry_group_IT_number 41
_symmetry_cell_setting 'orthorhombic'
loop_
_space_group_symop_operation_xyz
x,y,z
-x,-y,z
1/2-x,y,1/2+z
1/2+x,-y,1/2+z
x,1/2+y,1/2+z
-x,1/2-y,1/2+z
1/2-x,1/2+y,z
1/2+x,1/2-y,z
loop_
_atom_site_type_symbol
_atom_site_label
_atom_site_fract_x
_atom_site_fract_y
_atom_site_fract_z
Si Si1 0.956477 0.858855 0.410150
Si Si2 0.573554 0.708099 0.574745
Si Si3 0.796847 0.882269 0.149788
Si Si4 0.440764 0.891919 0.274556
Si Si5 0.762066 0.113632 0.778143
Si Si6 0.306298 0.993227 0.979635
O O1 0.948782 0.760845 0.317594
O O2 0.868122 0.891636 0.442945
O O3 0.007981 0.773756 0.490863
O O4 0.000000 0.000000 0.380185
O O5 0.612615 0.849383 0.617500
O O6 0.530416 0.623747 0.661648
O O7 0.651022 0.622235 0.544379
O O8 0.760250 0.765001 0.225029
O O9 0.797482 0.021305 0.213840
O O10 0.751164 0.914213 0.047463
O O11 0.351200 0.946357 0.278997
O O12 0.500000 0.000000 0.327516
O O13 0.733816 0.098076 0.891900
#
# Coordination Sequence:
#
# PCOD8185438 Si02
#       6
#     8   8   8   8   8   8
#     4  10  24  44  67  96 130 183 220 281 347 416
#     4  10  23  44  67  97 132 177 226 277 352 411
#     4  11  23  42  64 104 132 180 224 292 343 422
#     4  11  23  43  65  97 136 175 227 288 345 413
#     4  11  26  40  70 100 135 181 237 285 356 420
#     4  11  22  43  70  94 139 175 228 284 350 414
#
# _framework density 21.735444000000001
#
# number of rings (size 3 to 8) (size 9 to 14) (size 15 to 20)
#    0.000    1.333    3.333    3.500    7.000    1.333 
#    0.000    0.833    0.000    0.000    0.000    0.000 
#    0.000    0.000    0.000    0.000    0.000    0.000 
#
# Total GULP energy -297347.192810 kJ/mol
# GULP energy per Si atom -12389.466367 kJ/mol
# Density = 2.168597 g / cm^3
# Si number density = 21.735444 Si / 1000 Ang^3
#
#
#
# Elastic Constant Matrix: (Units=GPa)
#
#
# Indices 1 2 3 4 5 6 
#
# 1 45.4774 -13.2642 22.4987 0.0000 0.0000 0.0000
# 2 -13.2642 38.0243 22.3398 0.0000 0.0000 0.0000
# 3 22.4987 22.3398 107.1573 0.0000 0.0000 0.0000
# 4 0.0000 0.0000 0.0000 36.8571 0.0000 0.0000
# 5 0.0000 0.0000 0.0000 0.0000 37.1940 0.0000
# 6 0.0000 0.0000 0.0000 0.0000 0.0000 30.9579
#
#
#
# Elastic Compliance Matrix: (Units=1/GPa)
#
#
# Indices 1 2 3 4 5 6 
#
# 1 0.032162 0.017306 -0.010361 0.000000 0.000000 0.000000
# 2 0.017306 0.039282 -0.011823 0.000000 0.000000 0.000000
# 3 -0.010361 -0.011823 0.013972 0.000000 0.000000 0.000000
# 4 0.000000 0.000000 0.000000 0.027132 0.000000 0.000000
# 5 0.000000 0.000000 0.000000 0.000000 0.026886 0.000000
# 6 0.000000 0.000000 0.000000 0.000000 0.000000 0.032302
#
#
# Mechanical properties :
#
#
# Convention : Reuss Voigt Hill
#
# Bulk Modulus (GPa) = 13.21666 28.20085 20.70876
# Shear Modulus (GPa) = 24.18820 31.60745 27.89783
#
# Velocity S-wave (km/s) = 3.33955 3.81752 3.58651
# Velocity P-wave (km/s) = 4.57865 5.69509 5.16711
#
# Compressibility (1/GPa) = 0.07566210
#
# Stress axis : x y z
#
# Youngs Moduli (GPa) = 31.09222 25.45675 71.57033
#
# Poissons Ratio (x) = -0.44057 0.74153
# Poissons Ratio (y) = -0.53810 0.84618
# Poissons Ratio (z) = 0.32214 0.30098
#
# Static dielectric constant tensor:
#      x y z
#    x 3.932470 0.000000 0.000000 
#    y 0.000000 3.779780 0.000000 
#    z 0.000000 0.000000 4.205910 
# 
# 
# High freq. dielectric constant tensor:
#      x y z
#    x 1.847610 0.000000 0.000000 
#    y 0.000000 1.844510 0.000000 
#    z 0.000000 0.000000 1.872440 
# 
# From -- ./inp_files/8712.got.cif
#   From: 2010.03.12/outbox.cif.g09.slc.cpg/sg41_5_cif.got.tgz:8712.got - 2010.04.14 01:55:53.
