data_PCOD8185060
_publ_section_title
;
Structure prediction by ZEFSAII (Michael W. Deem and Ramdas Pophale) SiO2 
 PCOD8185060
Probable space group: A B A 2
;
_chemical_formula_sum "Si O2"
_cell_formula_units_Z 48
_cell_length_a 8.174964
_cell_length_b 22.457708
_cell_length_c 11.883554
_cell_angle_alpha 90.000000
_cell_angle_beta 90.000000
_cell_angle_gamma 90.000000
_cell_volume 2181.713021
_symmetry_space_group_name_H-M "A B A 2"
_symmetry_group_IT_number 41
_symmetry_cell_setting 'orthorhombic'
loop_
_space_group_symop_operation_xyz
x,y,z
-x,-y,z
1/2-x,y,1/2+z
1/2+x,-y,1/2+z
x,1/2+y,1/2+z
-x,1/2-y,1/2+z
1/2-x,1/2+y,z
1/2+x,1/2-y,z
loop_
_atom_site_type_symbol
_atom_site_label
_atom_site_fract_x
_atom_site_fract_y
_atom_site_fract_z
Si Si1 0.222890 0.424035 0.140220
Si Si2 0.500000 0.500000 0.480319
Si Si3 0.733681 0.688374 0.999141
Si Si4 0.085169 0.689692 0.061849
Si Si5 0.226937 0.585400 0.448487
Si Si6 0.522134 0.144927 0.297064
Si Si7 0.500000 0.000000 0.584438
O O1 0.090145 0.451263 0.056244
O O2 0.304650 0.365747 0.083755
O O3 0.136783 0.410177 0.258713
O O4 0.365195 0.471108 0.165788
O O5 0.366979 0.537998 0.408512
O O6 0.687441 0.750254 0.057152
O O7 0.929592 0.690460 0.976119
O O8 0.626615 0.682593 0.886377
O O9 0.015951 0.685121 0.188673
O O10 0.200292 0.633759 0.034584
O O11 0.079027 0.550593 0.506875
O O12 0.150445 0.620189 0.342829
#
# Coordination Sequence:
#
# PCOD8185060 Si02
#       7
#     8   4   8   8   8   8   4
#     4  10  22  44  66 104 142 181 231 293 338 423
#     4  10  20  45  67  98 152 174 226 298 332 402
#     4  11  23  45  70 100 138 181 233 297 349 418
#     4  11  26  47  70 101 143 173 240 301 342 426
#     4  11  22  44  70 103 141 189 228 291 345 416
#     4  11  24  46  72 101 135 193 231 280 372 412
#     4  10  22  43  71  98 150 178 228 300 336 406
#
# _framework density 22.001061
#
# number of rings (size 3 to 8) (size 9 to 14) (size 15 to 20)
#    0.000    1.333    5.000    1.000    0.000    6.000 
#    3.000    1.667    0.000    0.000    0.000    0.000 
#    0.000    0.000    0.000    0.000    0.000    0.000 
#
# Total GULP energy -297549.185227 kJ/mol
# GULP energy per Si atom -12397.882718 kJ/mol
# Density = 2.195099 g / cm^3
# Si number density = 22.001061 Si / 1000 Ang^3
#
#
#
# Elastic Constant Matrix: (Units=GPa)
#
#
# Indices 1 2 3 4 5 6 
#
# 1 135.0721 56.6994 45.0745 0.0000 0.0000 0.0000
# 2 56.6994 122.6057 36.4338 0.0000 0.0000 0.0000
# 3 45.0745 36.4338 82.7510 0.0000 0.0000 0.0000
# 4 0.0000 0.0000 0.0000 21.9916 0.0000 0.0000
# 5 0.0000 0.0000 0.0000 0.0000 30.3106 0.0000
# 6 0.0000 0.0000 0.0000 0.0000 0.0000 54.4398
#
#
#
# Elastic Compliance Matrix: (Units=1/GPa)
#
#
# Indices 1 2 3 4 5 6 
#
# 1 0.010228 -0.003537 -0.004014 0.000000 0.000000 0.000000
# 2 -0.003537 0.010607 -0.002744 0.000000 0.000000 0.000000
# 3 -0.004014 -0.002744 0.015479 0.000000 0.000000 0.000000
# 4 0.000000 0.000000 0.000000 0.045472 0.000000 0.000000
# 5 0.000000 0.000000 0.000000 0.000000 0.032992 0.000000
# 6 0.000000 0.000000 0.000000 0.000000 0.000000 0.018369
#
#
# Mechanical properties :
#
#
# Convention : Reuss Voigt Hill
#
# Bulk Modulus (GPa) = 63.59337 68.53824 66.06581
# Shear Modulus (GPa) = 31.45124 34.82979 33.14052
#
# Velocity S-wave (km/s) = 3.78502 3.98313 3.88534
# Velocity P-wave (km/s) = 6.93320 7.23696 7.08671
#
# Compressibility (1/GPa) = 0.01572491
#
# Stress axis : x y z
#
# Youngs Moduli (GPa) = 97.77451 94.27520 64.60522
#
# Poissons Ratio (x) = 0.33346 0.25930
# Poissons Ratio (y) = 0.34584 0.17725
# Poissons Ratio (z) = 0.39243 0.25865
#
# Static dielectric constant tensor:
#      x y z
#    x 4.319310 0.000000 0.000000 
#    y 0.000000 4.136460 0.000000 
#    z 0.000000 0.000000 3.532440 
# 
# 
# High freq. dielectric constant tensor:
#      x y z
#    x 1.888190 0.000000 0.000000 
#    y 0.000000 1.882150 0.000000 
#    z 0.000000 0.000000 1.827550 
# 
# From -- ./inp_files/4516.got.cif
#   From: 2010.03.12/outbox.cif.g09.slc.cpg/sg41_3_cif.got.tgz:4516.got - 2010.04.14 01:55:53.
