data_PCOD8185973
_publ_section_title
;
Structure prediction by ZEFSAII (Michael W. Deem and Ramdas Pophale) SiO2 
 PCOD8185973
Probable space group: F M M 2
;
_chemical_formula_sum "Si O2"
_cell_formula_units_Z 128
_cell_length_a 17.979358
_cell_length_b 18.295444
_cell_length_c 21.977700
_cell_angle_alpha 90.000000
_cell_angle_beta 90.000000
_cell_angle_gamma 90.000000
_cell_volume 7229.352054
_symmetry_space_group_name_H-M "F M M 2"
_symmetry_group_IT_number 42
_symmetry_cell_setting 'orthorhombic'
loop_
_space_group_symop_operation_xyz
x,y,z
-x,-y,z
-x,y,z
x,-y,z
x,1/2+y,1/2+z
-x,1/2-y,1/2+z
-x,1/2+y,1/2+z
x,1/2-y,1/2+z
1/2+x,y,1/2+z
1/2-x,-y,1/2+z
1/2-x,y,1/2+z
1/2+x,-y,1/2+z
1/2+x,1/2+y,z
1/2-x,1/2-y,z
1/2-x,1/2+y,z
1/2+x,1/2-y,z
loop_
_atom_site_type_symbol
_atom_site_label
_atom_site_fract_x
_atom_site_fract_y
_atom_site_fract_z
Si Si1 0.306664 0.415482 0.317930
Si Si2 0.347916 0.915739 0.377815
Si Si3 0.584239 0.196607 0.869539
Si Si4 0.082287 0.670878 0.281742
Si Si5 0.313214 0.913789 0.674340
Si Si6 0.587354 0.300522 0.109484
Si Si7 0.189998 0.809053 0.675939
Si Si8 0.414163 0.811268 0.467582
O O1 0.320907 0.500000 0.329846
O O2 0.227161 0.391140 0.343839
O O3 0.366379 0.373914 0.358672
O O4 0.314380 0.397954 0.246493
O O5 0.413479 0.894212 0.331087
O O6 0.359750 0.873380 0.441087
O O7 0.350090 0.000000 0.393973
O O8 0.500000 0.169062 0.869670
O O9 0.598820 0.252801 0.814810
O O10 0.603817 0.234433 0.934228
O O11 0.142676 0.657586 0.230353
O O12 0.000000 0.670661 0.252928
O O13 0.384067 0.873545 0.643953
O O14 0.237038 0.877180 0.647555
O O15 0.315522 0.000000 0.659105
O O16 0.500000 0.290938 0.124476
O O17 0.633076 0.228490 0.128998
O O18 0.602541 0.306890 0.038366
O O19 0.250000 0.750000 0.699876
O O20 0.500000 0.832556 0.454831
#
# Coordination Sequence:
#
# PCOD8185973 Si02
#       8
#    16  16  16  16  16  16  16  16
#     4  10  20  34  53  78 109 145 178 217 271 329
#     4  10  20  34  51  76 111 142 175 219 268 324
#     4   9  18  33  51  76 107 136 174 225 269 316
#     4  10  19  29  50  80 103 135 179 219 266 318
#     4  10  21  37  55  79 115 150 181 221 277 331
#     4  10  21  38  59  83 109 142 188 233 275 323
#     4  10  19  33  53  76 107 144 180 222 273 316
#     4   9  20  37  56  78 105 140 179 223 273 317
#
# _framework density 17.705597999999998
#
# number of rings (size 3 to 8) (size 9 to 14) (size 15 to 20)
#    0.000    2.250    1.250    3.000    0.000    5.000 
#    6.750    2.500    0.000    1.125    0.000    1.750 
#    0.000    0.000    0.000    0.000    0.000    0.000 
#
# Total GULP energy -396695.175383 kJ/mol
# GULP energy per Si atom -12396.724231 kJ/mol
# Density = 1.766530 g / cm^3
# Si number density = 17.705598 Si / 1000 Ang^3
#
#
#
# Elastic Constant Matrix: (Units=GPa)
#
#
# Indices 1 2 3 4 5 6 
#
# 1 102.8342 53.3587 54.2824 0.0000 0.0000 0.0000
# 2 53.3587 88.5056 45.0994 0.0000 0.0000 0.0000
# 3 54.2824 45.0994 94.6321 0.0000 0.0000 0.0000
# 4 0.0000 0.0000 0.0000 17.8961 0.0000 0.0000
# 5 0.0000 0.0000 0.0000 0.0000 27.0514 0.0000
# 6 0.0000 0.0000 0.0000 0.0000 0.0000 25.1368
#
#
#
# Elastic Compliance Matrix: (Units=1/GPa)
#
#
# Indices 1 2 3 4 5 6 
#
# 1 0.016551 -0.006789 -0.006258 0.000000 0.000000 0.000000
# 2 -0.006789 0.017708 -0.004545 0.000000 0.000000 0.000000
# 3 -0.006258 -0.004545 0.016323 0.000000 0.000000 0.000000
# 4 0.000000 0.000000 0.000000 0.055878 0.000000 0.000000
# 5 0.000000 0.000000 0.000000 0.000000 0.036967 0.000000
# 6 0.000000 0.000000 0.000000 0.000000 0.000000 0.039782
#
#
# Mechanical properties :
#
#
# Convention : Reuss Voigt Hill
#
# Bulk Modulus (GPa) = 64.94693 65.71697 65.33195
# Shear Modulus (GPa) = 22.36891 22.89895 22.63393
#
# Velocity S-wave (km/s) = 3.55826 3.60017 3.57928
# Velocity P-wave (km/s) = 7.32413 7.38097 7.35260
#
# Compressibility (1/GPa) = 0.01539719
#
# Stress axis : x y z
#
# Youngs Moduli (GPa) = 60.42083 56.47290 61.26382
#
# Poissons Ratio (x) = 0.38341 0.38339
# Poissons Ratio (y) = 0.41021 0.27842
# Poissons Ratio (z) = 0.37812 0.25665
#
# Static dielectric constant tensor:
#      x y z
#    x 3.412270 0.000000 0.000000 
#    y 0.000000 3.222480 0.000000 
#    z 0.000000 0.000000 3.176610 
# 
# 
# High freq. dielectric constant tensor:
#      x y z
#    x 1.694260 0.000000 0.000000 
#    y 0.000000 1.675870 0.000000 
#    z 0.000000 0.000000 1.670660 
# 
# From -- ./inp_files/29992.got.cif
#   From: 2010.03.12/outbox.cif.g09.slc.cpg/sg42_15_cif.got.tgz:29992.got - 2010.04.14 02:04:31.
