data_PCOD8185515
_publ_section_title
;
Structure prediction by ZEFSAII (Michael W. Deem and Ramdas Pophale) SiO2 
 PCOD8185515
Probable space group: A B A 2
;
_chemical_formula_sum "Si O2"
_cell_formula_units_Z 60
_cell_length_a 11.204093
_cell_length_b 24.345777
_cell_length_c 9.548364
_cell_angle_alpha 90.000000
_cell_angle_beta 90.000000
_cell_angle_gamma 90.000000
_cell_volume 2604.529684
_symmetry_space_group_name_H-M "A B A 2"
_symmetry_group_IT_number 41
_symmetry_cell_setting 'orthorhombic'
loop_
_space_group_symop_operation_xyz
x,y,z
-x,-y,z
1/2-x,y,1/2+z
1/2+x,-y,1/2+z
x,1/2+y,1/2+z
-x,1/2-y,1/2+z
1/2-x,1/2+y,z
1/2+x,1/2-y,z
loop_
_atom_site_type_symbol
_atom_site_label
_atom_site_fract_x
_atom_site_fract_y
_atom_site_fract_z
Si Si1 0.000000 0.500000 0.542181
Si Si2 0.878335 0.234117 0.584668
Si Si3 0.812547 0.087414 0.949487
Si Si4 0.445973 0.819704 0.618577
Si Si5 0.141025 0.097541 0.101964
Si Si6 0.198404 0.741904 0.299586
Si Si7 0.876828 0.609448 0.155591
Si Si8 0.871670 0.379701 0.272311
O O1 0.906000 0.536809 0.452603
O O2 0.921471 0.460235 0.639830
O O3 0.781372 0.248904 0.464583
O O4 0.827570 0.260626 0.727783
O O5 0.894752 0.170041 0.597425
O O6 0.001482 0.264824 0.542461
O O7 0.786840 0.102448 0.787697
O O8 0.867592 0.143061 0.015960
O O9 0.686897 0.074435 0.030235
O O10 0.560506 0.854628 0.669707
O O11 0.368897 0.797131 0.747194
O O12 0.268943 0.097405 0.172813
O O13 0.148874 0.101899 0.932549
O O14 0.122624 0.686617 0.268014
O O15 0.008412 0.592033 0.209580
#
# Coordination Sequence:
#
# PCOD8185515 Si02
#       8
#     4   8   8   8   8   8   8   8
#     4  10  24  52  78  90 136 182 226 310 364 396
#     4  12  24  37  62  99 143 191 224 268 335 418
#     4  11  25  47  71  99 136 185 231 290 351 405
#     4  11  22  38  64  94 147 184 225 269 338 403
#     4  11  25  47  72 100 135 184 233 292 350 407
#     4  12  23  37  61  99 144 192 224 270 335 411
#     4  12  24  44  70 103 142 178 229 281 343 415
#     4  12  23  45  70 104 141 182 229 285 342 416
#
# _framework density 23.036788000000001
#
# number of rings (size 3 to 8) (size 9 to 14) (size 15 to 20)
#    0.000    0.533    8.000    0.800    0.000    2.133 
#    2.400    0.000    0.000    0.000    0.000    0.000 
#    0.000    0.000    0.000    0.000    0.000    0.000 
#
# Total GULP energy -371740.516552 kJ/mol
# GULP energy per Si atom -12391.350552 kJ/mol
# Density = 2.298436 g / cm^3
# Si number density = 23.036788 Si / 1000 Ang^3
#
#
#
# Elastic Constant Matrix: (Units=GPa)
#
#
# Indices 1 2 3 4 5 6 
#
# 1 104.5237 29.8997 31.7750 0.0000 0.0000 0.0000
# 2 29.8997 109.5187 26.1516 0.0000 0.0000 0.0000
# 3 31.7750 26.1516 76.8559 0.0000 0.0000 0.0000
# 4 0.0000 0.0000 0.0000 18.2958 0.0000 0.0000
# 5 0.0000 0.0000 0.0000 0.0000 33.3222 0.0000
# 6 0.0000 0.0000 0.0000 0.0000 0.0000 25.1130
#
#
#
# Elastic Compliance Matrix: (Units=1/GPa)
#
#
# Indices 1 2 3 4 5 6 
#
# 1 0.011394 -0.002161 -0.003975 0.000000 0.000000 0.000000
# 2 -0.002161 0.010348 -0.002628 0.000000 0.000000 0.000000
# 3 -0.003975 -0.002628 0.015549 0.000000 0.000000 0.000000
# 4 0.000000 0.000000 0.000000 0.054657 0.000000 0.000000
# 5 0.000000 0.000000 0.000000 0.000000 0.030010 0.000000
# 6 0.000000 0.000000 0.000000 0.000000 0.000000 0.039820
#
#
# Mechanical properties :
#
#
# Convention : Reuss Voigt Hill
#
# Bulk Modulus (GPa) = 50.60013 51.83898 51.21955
# Shear Modulus (GPa) = 26.89694 28.88434 27.89064
#
# Velocity S-wave (km/s) = 3.42067 3.54479 3.48329
# Velocity P-wave (km/s) = 6.13302 6.26942 6.20160
#
# Compressibility (1/GPa) = 0.01976280
#
# Stress axis : x y z
#
# Youngs Moduli (GPa) = 87.76586 96.63344 64.31307
#
# Poissons Ratio (x) = 0.20887 0.25566
# Poissons Ratio (y) = 0.18970 0.16899
# Poissons Ratio (z) = 0.34889 0.25391
#
# Static dielectric constant tensor:
#      x y z
#    x 4.412510 0.000000 0.000000 
#    y 0.000000 4.232660 0.000000 
#    z 0.000000 0.000000 4.096980 
# 
# 
# High freq. dielectric constant tensor:
#      x y z
#    x 1.914810 0.000000 0.000000 
#    y 0.000000 1.902200 0.000000 
#    z 0.000000 0.000000 1.891930 
# 
# From -- ./inp_files/2170.got.cif
#   From: 2010.03.12/outbox.cif.g09.slc.cpg/sg41_2_cif.got.tgz:2170.got - 2010.04.14 01:55:53.
