data_PCOD8185524
_publ_section_title
;
Structure prediction by ZEFSAII (Michael W. Deem and Ramdas Pophale) SiO2 
 PCOD8185524
Probable space group: A B A 2
;
_chemical_formula_sum "Si O2"
_cell_formula_units_Z 44
_cell_length_a 15.559106
_cell_length_b 24.660687
_cell_length_c 5.079818
_cell_angle_alpha 90.000000
_cell_angle_beta 90.000000
_cell_angle_gamma 90.000000
_cell_volume 1949.117242
_symmetry_space_group_name_H-M "A B A 2"
_symmetry_group_IT_number 41
_symmetry_cell_setting 'orthorhombic'
loop_
_space_group_symop_operation_xyz
x,y,z
-x,-y,z
1/2-x,y,1/2+z
1/2+x,-y,1/2+z
x,1/2+y,1/2+z
-x,1/2-y,1/2+z
1/2-x,1/2+y,z
1/2+x,1/2-y,z
loop_
_atom_site_type_symbol
_atom_site_label
_atom_site_fract_x
_atom_site_fract_y
_atom_site_fract_z
Si Si1 0.000000 0.500000 0.767370
Si Si2 0.345771 0.880186 0.488193
Si Si3 0.705303 0.738553 0.966277
Si Si4 0.455218 0.888622 0.984649
Si Si5 0.301958 0.993980 0.603140
Si Si6 0.028647 0.223631 0.553729
O O1 0.002555 0.553708 0.947432
O O2 0.907581 0.497263 0.606263
O O3 0.289531 0.826728 0.446305
O O4 0.418743 0.867842 0.705770
O O5 0.287342 0.928885 0.600776
O O6 0.385023 0.898330 0.209270
O O7 0.770161 0.761522 0.749934
O O8 0.613593 0.761806 0.889709
O O9 0.518207 0.840988 0.085302
O O10 0.252062 0.018547 0.349052
O O11 0.038684 0.250410 0.844248
#
# Coordination Sequence:
#
# PCOD8185524 Si02
#       6
#     4   8   8   8   8   8
#     4  10  26  44  70 100 136 182 240 278 344 414
#     4  11  21  38  64  95 131 165 215 282 349 385
#     4  12  23  36  59  95 131 166 211 272 336 399
#     4  11  22  41  66  95 127 178 221 278 324 405
#     4  11  23  41  64  97 135 174 224 283 343 400
#     4  12  22  42  64  90 128 176 217 263 330 409
#
# _framework density 22.574321000000001
#
# number of rings (size 3 to 8) (size 9 to 14) (size 15 to 20)
#    0.000    0.727    3.636    5.455    0.000    6.545 
#    0.000    1.818    0.000    0.000    0.000    0.000 
#    0.000    0.000    0.000    0.000    0.000    0.000 
#
# Total GULP energy -272565.086633 kJ/mol
# GULP energy per Si atom -12389.322120 kJ/mol
# Density = 2.252294 g / cm^3
# Si number density = 22.574321 Si / 1000 Ang^3
#
#
#
# Elastic Constant Matrix: (Units=GPa)
#
#
# Indices 1 2 3 4 5 6 
#
# 1 105.1698 -3.5099 43.8136 0.0000 0.0000 0.0000
# 2 -3.5099 69.9141 24.1349 0.0000 0.0000 0.0000
# 3 43.8136 24.1349 138.1668 0.0000 0.0000 0.0000
# 4 0.0000 0.0000 0.0000 17.8813 0.0000 0.0000
# 5 0.0000 0.0000 0.0000 0.0000 37.7609 0.0000
# 6 0.0000 0.0000 0.0000 0.0000 0.0000 30.6001
#
#
#
# Elastic Compliance Matrix: (Units=1/GPa)
#
#
# Indices 1 2 3 4 5 6 
#
# 1 0.011188 0.001901 -0.003880 0.000000 0.000000 0.000000
# 2 0.001901 0.015544 -0.003318 0.000000 0.000000 0.000000
# 3 -0.003880 -0.003318 0.009048 0.000000 0.000000 0.000000
# 4 0.000000 0.000000 0.000000 0.055924 0.000000 0.000000
# 5 0.000000 0.000000 0.000000 0.000000 0.026482 0.000000
# 6 0.000000 0.000000 0.000000 0.000000 0.000000 0.032680
#
#
# Mechanical properties :
#
#
# Convention : Reuss Voigt Hill
#
# Bulk Modulus (GPa) = 39.70449 49.12531 44.41490
# Shear Modulus (GPa) = 29.43677 33.83593 31.63635
#
# Velocity S-wave (km/s) = 3.61500 3.87572 3.74763
# Velocity P-wave (km/s) = 5.92038 6.46816 6.20032
#
# Compressibility (1/GPa) = 0.02518607
#
# Stress axis : x y z
#
# Youngs Moduli (GPa) = 89.37940 64.33294 110.52667
#
# Poissons Ratio (x) = -0.12230 0.42884
# Poissons Ratio (y) = -0.16992 0.36674
# Poissons Ratio (z) = 0.34679 0.21346
#
# Static dielectric constant tensor:
#      x y z
#    x 3.997160 0.000000 0.000000 
#    y 0.000000 3.776440 0.000000 
#    z 0.000000 0.000000 4.236390 
# 
# 
# High freq. dielectric constant tensor:
#      x y z
#    x 1.883790 0.000000 0.000000 
#    y 0.000000 1.854540 0.000000 
#    z 0.000000 0.000000 1.912430 
# 
# From -- ./inp_files/275.got.cif
#   From: 2010.03.12/outbox.cif.g09.slc.cpg/sg41_1_cif.got.tgz:275.got - 2010.04.14 01:55:53.
