data_PCOD8185187
_publ_section_title
;
Structure prediction by ZEFSAII (Michael W. Deem and Ramdas Pophale) SiO2 
 PCOD8185187
Probable space group: A B A 2
;
_chemical_formula_sum "Si O2"
_cell_formula_units_Z 52
_cell_length_a 11.845541
_cell_length_b 8.432342
_cell_length_c 25.119009
_cell_angle_alpha 90.000000
_cell_angle_beta 90.000000
_cell_angle_gamma 90.000000
_cell_volume 2509.028614
_symmetry_space_group_name_H-M "A B A 2"
_symmetry_group_IT_number 41
_symmetry_cell_setting 'orthorhombic'
loop_
_space_group_symop_operation_xyz
x,y,z
-x,-y,z
1/2-x,y,1/2+z
1/2+x,-y,1/2+z
x,1/2+y,1/2+z
-x,1/2-y,1/2+z
1/2-x,1/2+y,z
1/2+x,1/2-y,z
loop_
_atom_site_type_symbol
_atom_site_label
_atom_site_fract_x
_atom_site_fract_y
_atom_site_fract_z
Si Si1 0.759508 0.667876 0.655950
Si Si2 0.614044 0.931237 0.211445
Si Si3 0.094741 0.298730 0.404195
Si Si4 0.000000 0.500000 0.313394
Si Si5 0.100210 0.204601 0.988291
Si Si6 0.108806 0.580245 0.603574
Si Si7 0.294785 0.001404 0.943220
O O1 0.861360 0.763337 0.683716
O O2 0.717506 0.549234 0.701402
O O3 0.800156 0.565224 0.604150
O O4 0.656307 0.777638 0.638620
O O5 0.500000 0.000000 0.184359
O O6 0.597862 0.924398 0.275741
O O7 0.212083 0.394335 0.407933
O O8 0.040659 0.350305 0.348384
O O9 0.004750 0.344591 0.450578
O O10 0.123891 0.111124 0.406234
O O11 0.125438 0.392070 0.980580
O O12 0.218338 0.115924 0.978634
O O13 0.068139 0.153401 0.047578
O O14 0.000000 0.500000 0.631116
#
# Coordination Sequence:
#
# PCOD8185187 Si02
#       7
#     8   8   8   4   8   8   8
#     4  10  21  41  63  90 125 161 211 256 317 369
#     4   9  21  40  63  88 123 155 208 269 306 372
#     4  11  21  41  60  91 128 162 205 264 300 375
#     4  10  22  40  68  84 124 160 208 264 328 350
#     4  11  21  39  58  92 129 164 207 251 299 377
#     4  11  22  36  65  92 126 168 202 253 313 370
#     4  10  22  36  63  82 131 165 204 246 308 355
#
# _framework density 20.725152000000001
#
# number of rings (size 3 to 8) (size 9 to 14) (size 15 to 20)
#    0.462    1.231    1.538    3.231    0.000    2.462 
#    0.000    4.615    6.769    0.000    0.000    0.000 
#    0.000    0.000    0.000    0.000    0.000    0.000 
#
# Total GULP energy -322130.401699 kJ/mol
# GULP energy per Si atom -12389.630835 kJ/mol
# Density = 2.067798 g / cm^3
# Si number density = 20.725152 Si / 1000 Ang^3
#
#
#
# Elastic Constant Matrix: (Units=GPa)
#
#
# Indices 1 2 3 4 5 6 
#
# 1 88.2763 48.2233 39.4719 0.0000 0.0000 0.0000
# 2 48.2233 142.0152 53.7025 0.0000 0.0000 0.0000
# 3 39.4719 53.7025 119.1157 0.0000 0.0000 0.0000
# 4 0.0000 0.0000 0.0000 20.8592 0.0000 0.0000
# 5 0.0000 0.0000 0.0000 0.0000 29.3364 0.0000
# 6 0.0000 0.0000 0.0000 0.0000 0.0000 44.0612
#
#
#
# Elastic Compliance Matrix: (Units=1/GPa)
#
#
# Indices 1 2 3 4 5 6 
#
# 1 0.014851 -0.003836 -0.003192 0.000000 0.000000 0.000000
# 2 -0.003836 0.009479 -0.003003 0.000000 0.000000 0.000000
# 3 -0.003192 -0.003003 0.010807 0.000000 0.000000 0.000000
# 4 0.000000 0.000000 0.000000 0.047940 0.000000 0.000000
# 5 0.000000 0.000000 0.000000 0.000000 0.034087 0.000000
# 6 0.000000 0.000000 0.000000 0.000000 0.000000 0.022696
#
#
# Mechanical properties :
#
#
# Convention : Reuss Voigt Hill
#
# Bulk Modulus (GPa) = 66.32958 70.24472 68.28715
# Shear Modulus (GPa) = 30.31295 32.71866 31.51580
#
# Velocity S-wave (km/s) = 3.82857 3.97759 3.90379
# Velocity P-wave (km/s) = 7.18455 7.42038 7.30342
#
# Compressibility (1/GPa) = 0.01507623
#
# Stress axis : x y z
#
# Youngs Moduli (GPa) = 67.33715 105.49146 92.53595
#
# Poissons Ratio (x) = 0.40464 0.29535
# Poissons Ratio (y) = 0.25829 0.27785
# Poissons Ratio (z) = 0.21493 0.31676
#
# Static dielectric constant tensor:
#      x y z
#    x 3.860360 0.000000 0.000000 
#    y 0.000000 4.015820 0.000000 
#    z 0.000000 0.000000 3.340470 
# 
# 
# High freq. dielectric constant tensor:
#      x y z
#    x 1.818940 0.000000 0.000000 
#    y 0.000000 1.827460 0.000000 
#    z 0.000000 0.000000 1.771750 
# 
# From -- ./inp_files/12499.got.cif
#   From: 2010.03.12/outbox.cif.g09.slc.cpg/sg41_7_cif.got.tgz:12499.got - 2010.04.14 01:55:53.
