data_PCOD8185125
_publ_section_title
;
Structure prediction by ZEFSAII (Michael W. Deem and Ramdas Pophale) SiO2 
 PCOD8185125
Probable space group: A B A 2
;
_chemical_formula_sum "Si O2"
_cell_formula_units_Z 48
_cell_length_a 32.804664
_cell_length_b 4.940665
_cell_length_c 13.680440
_cell_angle_alpha 90.000000
_cell_angle_beta 90.000000
_cell_angle_gamma 90.000000
_cell_volume 2217.282694
_symmetry_space_group_name_H-M "A B A 2"
_symmetry_group_IT_number 41
_symmetry_cell_setting 'orthorhombic'
loop_
_space_group_symop_operation_xyz
x,y,z
-x,-y,z
1/2-x,y,1/2+z
1/2+x,-y,1/2+z
x,1/2+y,1/2+z
-x,1/2-y,1/2+z
1/2-x,1/2+y,z
1/2+x,1/2-y,z
loop_
_atom_site_type_symbol
_atom_site_label
_atom_site_fract_x
_atom_site_fract_y
_atom_site_fract_z
Si Si1 0.342746 0.525349 0.360940
Si Si2 0.897992 0.475115 0.357806
Si Si3 0.275285 0.298505 0.497525
Si Si4 0.953467 0.521165 0.540003
Si Si5 0.453382 0.971922 0.169765
Si Si6 0.275277 0.266927 0.727048
O O1 0.372538 0.764430 0.392919
O O2 0.316327 0.411105 0.450743
O O3 0.316246 0.653706 0.273778
O O4 0.369135 0.271848 0.326215
O O5 0.926199 0.418191 0.450580
O O6 0.925113 0.515359 0.263251
O O7 0.237925 0.496882 0.465060
O O8 0.282910 0.282853 0.612283
O O9 0.945306 0.325882 0.630384
O O10 0.000000 0.500000 0.503585
O O11 0.943014 0.818153 0.582243
O O12 0.500000 0.000000 0.204455
O O13 0.262161 0.568868 0.759498
#
# Coordination Sequence:
#
# PCOD8185125 Si02
#       6
#     8   8   8   8   8   8
#     4  12  24  37  59  90 125 158 191 248 313 361
#     4  12  25  39  60  94 129 160 195 248 312 365
#     4  10  21  39  61  83 112 156 206 249 292 353
#     4  10  22  42  66  89 119 163 209 249 292 354
#     4  10  22  42  66  89 119 163 209 249 292 354
#     4  10  21  39  61  83 112 156 206 249 292 353
#
# _framework density 21.648119000000001
#
# number of rings (size 3 to 8) (size 9 to 14) (size 15 to 20)
#    0.000    1.333    0.000    5.500    0.000    4.000 
#    0.000    6.667    0.000    0.000    0.000    0.000 
#    0.000    0.000    0.000    0.000    0.000    0.000 
#
# Total GULP energy -297559.323618 kJ/mol
# GULP energy per Si atom -12398.305151 kJ/mol
# Density = 2.159885 g / cm^3
# Si number density = 21.648119 Si / 1000 Ang^3
#
#
#
# Elastic Constant Matrix: (Units=GPa)
#
#
# Indices 1 2 3 4 5 6 
#
# 1 120.7719 42.5782 65.9946 0.0000 0.0000 0.0000
# 2 42.5782 116.7784 19.4454 0.0000 0.0000 0.0000
# 3 65.9946 19.4454 93.4044 0.0000 0.0000 0.0000
# 4 0.0000 0.0000 0.0000 19.6065 0.0000 0.0000
# 5 0.0000 0.0000 0.0000 0.0000 -8.9440 0.0000
# 6 0.0000 0.0000 0.0000 0.0000 0.0000 37.9381
#
#
#
# Elastic Compliance Matrix: (Units=1/GPa)
#
#
# Indices 1 2 3 4 5 6 
#
# 1 0.014978 -0.003832 -0.009785 0.000000 0.000000 0.000000
# 2 -0.003832 0.009851 0.000656 0.000000 0.000000 0.000000
# 3 -0.009785 0.000656 0.017483 0.000000 0.000000 0.000000
# 4 0.000000 0.000000 0.000000 0.051003 0.000000 0.000000
# 5 0.000000 0.000000 0.000000 0.000000 -0.111807 0.000000
# 6 0.000000 0.000000 0.000000 0.000000 0.000000 0.026359
#
#
# Mechanical properties :
#
#
# Convention : Reuss Voigt Hill
#
# Bulk Modulus (GPa) = 61.00703 65.22125 63.11414
# Shear Modulus (GPa) = 127.38469 23.24920 75.31694
#
# Velocity S-wave (km/s) = 7.67926 3.28069 5.90483
# Velocity P-wave (km/s) = 10.33782 6.67412 8.70099
#
# Compressibility (1/GPa) = 0.01639155
#
# Stress axis : x y z
#
# Youngs Moduli (GPa) = 66.76581 101.51279 57.19876
#
# Poissons Ratio (x) = 0.38896 0.55968
# Poissons Ratio (y) = 0.25582 -0.03755
# Poissons Ratio (z) = 0.65329 -0.06664
#
# Static dielectric constant tensor:
#      x y z
#    x 4.054750 0.000000 0.000000 
#    y 0.000000 4.077070 0.000000 
#    z 0.000000 0.000000 3.721680 
# 
# 
# High freq. dielectric constant tensor:
#      x y z
#    x 1.850000 0.000000 0.000000 
#    y 0.000000 1.872980 0.000000 
#    z 0.000000 0.000000 1.853060 
# 
# From -- ./inp_files/9257.got.cif
#   From: 2010.03.12/outbox.cif.g09.slc.cpg/sg41_5_cif.got.tgz:9257.got - 2010.04.14 01:55:53.
