data_PCOD8185552
_publ_section_title
;
Structure prediction by ZEFSAII (Michael W. Deem and Ramdas Pophale) SiO2 
 PCOD8185552
Probable space group: A B A 2
;
_chemical_formula_sum "Si O2"
_cell_formula_units_Z 48
_cell_length_a 10.082215
_cell_length_b 24.446109
_cell_length_c 9.049059
_cell_angle_alpha 90.000000
_cell_angle_beta 90.000000
_cell_angle_gamma 90.000000
_cell_volume 2230.329959
_symmetry_space_group_name_H-M "A B A 2"
_symmetry_group_IT_number 41
_symmetry_cell_setting 'orthorhombic'
loop_
_space_group_symop_operation_xyz
x,y,z
-x,-y,z
1/2-x,y,1/2+z
1/2+x,-y,1/2+z
x,1/2+y,1/2+z
-x,1/2-y,1/2+z
1/2-x,1/2+y,z
1/2+x,1/2-y,z
loop_
_atom_site_type_symbol
_atom_site_label
_atom_site_fract_x
_atom_site_fract_y
_atom_site_fract_z
Si Si1 0.342482 0.644127 0.227720
Si Si2 0.602465 0.317732 0.558611
Si Si3 0.855499 0.020260 0.436831
Si Si4 0.101424 0.306914 0.643953
Si Si5 0.830676 0.647230 0.965972
Si Si6 0.134412 0.522870 0.631156
O O1 0.349660 0.666132 0.394507
O O2 0.191771 0.647637 0.171792
O O3 0.444791 0.679814 0.127909
O O4 0.388605 0.581538 0.209295
O O5 0.627902 0.255829 0.606732
O O6 0.446422 0.330543 0.575258
O O7 0.838048 0.082623 0.477839
O O8 0.830642 0.018493 0.262594
O O9 0.751345 0.978920 0.512902
O O10 0.000000 0.000000 0.484949
O O11 0.184683 0.339141 0.522132
O O12 0.149520 0.325297 0.806216
O O13 0.000000 0.500000 0.554625
#
# Coordination Sequence:
#
# PCOD8185552 Si02
#       6
#     8   8   8   8   8   8
#     4  11  23  41  61  89 122 159 202 252 304 364
#     4  11  23  40  62  89 121 160 202 250 304 362
#     4  11  22  40  62  88 121 160 202 251 304 362
#     4  11  23  40  62  89 121 160 202 250 304 362
#     4  11  23  41  61  89 122 159 202 252 304 364
#     4  11  22  40  62  88 121 160 202 251 304 362
#
# _framework density 21.521481999999999
#
# number of rings (size 3 to 8) (size 9 to 14) (size 15 to 20)
#    0.000    1.000    0.000   10.000    0.000    4.667 
#    0.000    6.667    0.000    0.000    0.000    0.000 
#    0.000    0.000    0.000    0.000    0.000    0.000 
#
# Total GULP energy -297554.257976 kJ/mol
# GULP energy per Si atom -12398.094082 kJ/mol
# Density = 2.147250 g / cm^3
# Si number density = 21.521482 Si / 1000 Ang^3
#
#
#
# Elastic Constant Matrix: (Units=GPa)
#
#
# Indices 1 2 3 4 5 6 
#
# 1 78.6782 1.3744 33.7148 0.0000 0.0000 0.0000
# 2 1.3744 106.9111 12.7724 0.0000 0.0000 0.0000
# 3 33.7148 12.7724 51.7668 0.0000 0.0000 0.0000
# 4 0.0000 0.0000 0.0000 30.7763 0.0000 0.0000
# 5 0.0000 0.0000 0.0000 0.0000 39.9888 0.0000
# 6 0.0000 0.0000 0.0000 0.0000 0.0000 31.0756
#
#
#
# Elastic Compliance Matrix: (Units=1/GPa)
#
#
# Indices 1 2 3 4 5 6 
#
# 1 0.017776 0.001190 -0.011871 0.000000 0.000000 0.000000
# 2 0.001190 0.009717 -0.003172 0.000000 0.000000 0.000000
# 3 -0.011871 -0.003172 0.027831 0.000000 0.000000 0.000000
# 4 0.000000 0.000000 0.000000 0.032493 0.000000 0.000000
# 5 0.000000 0.000000 0.000000 0.000000 0.025007 0.000000
# 6 0.000000 0.000000 0.000000 0.000000 0.000000 0.032180
#
#
# Mechanical properties :
#
#
# Convention : Reuss Voigt Hill
#
# Bulk Modulus (GPa) = 36.20861 37.00883 36.60872
# Shear Modulus (GPa) = 27.48514 33.00111 30.24312
#
# Velocity S-wave (km/s) = 3.57753 3.92012 3.75274
# Velocity P-wave (km/s) = 5.82460 6.14193 5.98537
#
# Compressibility (1/GPa) = 0.02761774
#
# Stress axis : x y z
#
# Youngs Moduli (GPa) = 56.25556 102.90965 35.93071
#
# Poissons Ratio (x) = -0.12243 0.42652
# Poissons Ratio (y) = -0.06692 0.11398
# Poissons Ratio (z) = 0.66780 0.32646
#
# Static dielectric constant tensor:
#      x y z
#    x 4.308470 0.000000 0.000000 
#    y 0.000000 3.950970 0.000000 
#    z 0.000000 0.000000 3.728640 
# 
# 
# High freq. dielectric constant tensor:
#      x y z
#    x 1.858870 0.000000 0.000000 
#    y 0.000000 1.862080 0.000000 
#    z 0.000000 0.000000 1.831560 
# 
# From -- ./inp_files/2094.got.cif
#   From: 2010.03.12/outbox.cif.g09.slc.cpg/sg41_2_cif.got.tgz:2094.got - 2010.04.14 01:55:53.
