data_PCOD8185204
_publ_section_title
;
Structure prediction by ZEFSAII (Michael W. Deem and Ramdas Pophale) SiO2 
 PCOD8185204
Probable space group: A B A 2
;
_chemical_formula_sum "Si O2"
_cell_formula_units_Z 64
_cell_length_a 13.003049
_cell_length_b 21.977629
_cell_length_c 10.498141
_cell_angle_alpha 90.000000
_cell_angle_beta 90.000000
_cell_angle_gamma 90.000000
_cell_volume 3000.118703
_symmetry_space_group_name_H-M "A B A 2"
_symmetry_group_IT_number 41
_symmetry_cell_setting 'orthorhombic'
loop_
_space_group_symop_operation_xyz
x,y,z
-x,-y,z
1/2-x,y,1/2+z
1/2+x,-y,1/2+z
x,1/2+y,1/2+z
-x,1/2-y,1/2+z
1/2-x,1/2+y,z
1/2+x,1/2-y,z
loop_
_atom_site_type_symbol
_atom_site_label
_atom_site_fract_x
_atom_site_fract_y
_atom_site_fract_z
Si Si1 0.351594 0.881221 0.611790
Si Si2 0.474827 0.823247 0.404174
Si Si3 0.072907 0.557051 0.333085
Si Si4 0.749593 0.511783 0.958440
Si Si5 0.842222 0.732880 0.946544
Si Si6 0.800912 0.208366 0.723403
Si Si7 0.582426 0.104275 0.872820
Si Si8 0.073298 0.556862 0.057289
O O1 0.388606 0.828216 0.515313
O O2 0.322801 0.943899 0.541586
O O3 0.254737 0.855505 0.691713
O O4 0.438976 0.890554 0.721031
O O5 0.535099 0.887302 0.420172
O O6 0.552995 0.768506 0.421837
O O7 0.414355 0.810424 0.272550
O O8 0.184932 0.530521 0.363531
O O9 0.069767 0.589299 0.194296
O O10 0.000000 0.500000 0.351008
O O11 0.838429 0.548219 0.884761
O O12 0.808462 0.462531 0.043943
O O13 0.758757 0.747204 0.834292
O O14 0.863931 0.661246 0.940266
O O15 0.805843 0.747652 0.091721
O O16 0.471632 0.096653 0.941045
O O17 0.000000 0.500000 0.072045
#
# Coordination Sequence:
#
# PCOD8185204 Si02
#       8
#     8   8   8   8   8   8   8   8
#     4  11  21  40  68  95 130 175 221 269 324 403
#     4  12  26  44  66 101 137 173 226 278 342 400
#     4  11  23  41  64  93 129 172 215 272 330 396
#     4  11  20  41  64  98 127 173 217 268 328 398
#     4  11  25  43  74  98 132 182 220 284 338 402
#     4  11  23  46  72 100 134 177 233 272 339 416
#     4  10  21  41  67  98 126 171 222 268 328 394
#     4   9  21  39  64  95 126 167 216 270 329 386
#
# _framework density 21.332488999999999
#
# number of rings (size 3 to 8) (size 9 to 14) (size 15 to 20)
#    0.000    1.250    3.750    2.250    7.000    0.000 
#   13.500    0.000    0.000    0.000    0.000    0.000 
#    0.000    0.000    0.000    0.000    0.000    0.000 
#
# Total GULP energy -396553.584124 kJ/mol
# GULP energy per Si atom -12392.299504 kJ/mol
# Density = 2.128394 g / cm^3
# Si number density = 21.332489 Si / 1000 Ang^3
#
#
#
# Elastic Constant Matrix: (Units=GPa)
#
#
# Indices 1 2 3 4 5 6 
#
# 1 104.9615 34.1021 46.6649 0.0000 0.0000 0.0000
# 2 34.1021 39.5706 23.0553 0.0000 0.0000 0.0000
# 3 46.6649 23.0553 149.0237 0.0000 0.0000 0.0000
# 4 0.0000 0.0000 0.0000 17.8077 0.0000 0.0000
# 5 0.0000 0.0000 0.0000 0.0000 35.0005 0.0000
# 6 0.0000 0.0000 0.0000 0.0000 0.0000 39.1242
#
#
#
# Elastic Compliance Matrix: (Units=1/GPa)
#
#
# Indices 1 2 3 4 5 6 
#
# 1 0.014229 -0.010625 -0.002812 0.000000 0.000000 0.000000
# 2 -0.010625 0.035708 -0.002197 0.000000 0.000000 0.000000
# 3 -0.002812 -0.002197 0.007931 0.000000 0.000000 0.000000
# 4 0.000000 0.000000 0.000000 0.056155 0.000000 0.000000
# 5 0.000000 0.000000 0.000000 0.000000 0.028571 0.000000
# 6 0.000000 0.000000 0.000000 0.000000 0.000000 0.025560
#
#
# Mechanical properties :
#
#
# Convention : Reuss Voigt Hill
#
# Bulk Modulus (GPa) = 37.59379 55.68897 46.64138
# Shear Modulus (GPa) = 24.00509 31.03538 27.52024
#
# Velocity S-wave (km/s) = 3.35816 3.81838 3.59564
# Velocity P-wave (km/s) = 5.71816 6.75292 6.25697
#
# Compressibility (1/GPa) = 0.02660014
#
# Stress axis : x y z
#
# Youngs Moduli (GPa) = 70.27671 28.00500 126.08979
#
# Poissons Ratio (x) = 0.29754 0.35457
# Poissons Ratio (y) = 0.74666 0.27707
# Poissons Ratio (z) = 0.19762 0.06154
#
# Static dielectric constant tensor:
#      x y z
#    x 4.081390 0.000000 0.000000 
#    y 0.000000 3.511920 0.000000 
#    z 0.000000 0.000000 4.290710 
# 
# 
# High freq. dielectric constant tensor:
#      x y z
#    x 1.830910 0.000000 0.000000 
#    y 0.000000 1.802370 0.000000 
#    z 0.000000 0.000000 1.852510 
# 
# From -- ./inp_files/5193.got.cif
#   From: 2010.03.12/outbox.cif.g09.slc.cpg/sg41_3_cif.got.tgz:5193.got - 2010.04.14 01:55:53.
