data_PCOD8185523
_publ_section_title
;
Structure prediction by ZEFSAII (Michael W. Deem and Ramdas Pophale) SiO2 
 PCOD8185523
Probable space group: A B A 2
;
_chemical_formula_sum "Si O2"
_cell_formula_units_Z 36
_cell_length_a 14.313955
_cell_length_b 20.531714
_cell_length_c 5.107447
_cell_angle_alpha 90.000000
_cell_angle_beta 90.000000
_cell_angle_gamma 90.000000
_cell_volume 1501.027753
_symmetry_space_group_name_H-M "A B A 2"
_symmetry_group_IT_number 41
_symmetry_cell_setting 'orthorhombic'
loop_
_space_group_symop_operation_xyz
x,y,z
-x,-y,z
1/2-x,y,1/2+z
1/2+x,-y,1/2+z
x,1/2+y,1/2+z
-x,1/2-y,1/2+z
1/2-x,1/2+y,z
1/2+x,1/2-y,z
loop_
_atom_site_type_symbol
_atom_site_label
_atom_site_fract_x
_atom_site_fract_y
_atom_site_fract_z
Si Si1 0.991889 0.138345 0.912210
Si Si2 0.122912 0.335979 0.925575
Si Si3 0.805694 0.303904 0.361625
Si Si4 0.306442 0.476507 0.449664
Si Si5 0.500000 0.000000 0.170414
O O1 0.096969 0.161948 0.911667
O O2 0.934498 0.177906 0.692127
O O3 0.984897 0.061692 0.855791
O O4 0.951077 0.151288 0.196824
O O5 0.186570 0.274280 0.863978
O O6 0.190021 0.397984 0.959861
O O7 0.733883 0.327098 0.584043
O O8 0.263923 0.500872 0.176309
O O9 0.408980 0.508138 0.485656
#
# Coordination Sequence:
#
# PCOD8185523 Si02
#       5
#     8   8   8   8   4
#     4  11  24  42  65  92 129 176 218 265 331 398
#     4  11  22  42  66  93 126 168 221 271 328 396
#     4  12  24  40  65  97 131 163 209 274 337 399
#     4  11  23  40  65  94 126 170 220 270 325 388
#     4  10  26  44  66  96 136 178 224 276 326 398
#
# _framework density 23.983567000000001
#
# number of rings (size 3 to 8) (size 9 to 14) (size 15 to 20)
#    0.000    0.889    0.000    8.000    0.000    9.778 
#    0.000    0.000    0.000    0.000    0.000    0.000 
#    0.000    0.000    0.000    0.000    0.000    0.000 
#
# Total GULP energy -223356.784390 kJ/mol
# GULP energy per Si atom -12408.710244 kJ/mol
# Density = 2.392898 g / cm^3
# Si number density = 23.983567 Si / 1000 Ang^3
#
#
#
# Elastic Constant Matrix: (Units=GPa)
#
#
# Indices 1 2 3 4 5 6 
#
# 1 111.7571 -5.1096 34.9178 0.0000 0.0000 0.0000
# 2 -5.1096 23.8408 10.2819 0.0000 0.0000 0.0000
# 3 34.9178 10.2819 101.4566 0.0000 0.0000 0.0000
# 4 0.0000 0.0000 0.0000 10.2601 0.0000 0.0000
# 5 0.0000 0.0000 0.0000 0.0000 49.4113 0.0000
# 6 0.0000 0.0000 0.0000 0.0000 0.0000 40.7946
#
#
#
# Elastic Compliance Matrix: (Units=1/GPa)
#
#
# Indices 1 2 3 4 5 6 
#
# 1 0.010367 0.003933 -0.003967 0.000000 0.000000 0.000000
# 2 0.003933 0.045354 -0.005950 0.000000 0.000000 0.000000
# 3 -0.003967 -0.005950 0.011825 0.000000 0.000000 0.000000
# 4 0.000000 0.000000 0.000000 0.097465 0.000000 0.000000
# 5 0.000000 0.000000 0.000000 0.000000 0.020238 0.000000
# 6 0.000000 0.000000 0.000000 0.000000 0.000000 0.024513
#
#
# Mechanical properties :
#
#
# Convention : Reuss Voigt Hill
#
# Bulk Modulus (GPa) = 17.99277 35.24830 26.62054
# Shear Modulus (GPa) = 20.81124 33.22417 27.01770
#
# Velocity S-wave (km/s) = 2.94892 3.72598 3.35999
# Velocity P-wave (km/s) = 4.37187 5.76536 5.11628
#
# Compressibility (1/GPa) = 0.05557788
#
# Stress axis : x y z
#
# Youngs Moduli (GPa) = 96.45910 22.04896 84.57001
#
# Poissons Ratio (x) = -0.08671 0.33545
# Poissons Ratio (y) = -0.37933 0.50317
# Poissons Ratio (z) = 0.38261 0.13118
#
# Static dielectric constant tensor:
#      x y z
#    x 4.367630 0.000000 0.000000 
#    y 0.000000 4.294580 0.000000 
#    z 0.000000 0.000000 4.615540 
# 
# 
# High freq. dielectric constant tensor:
#      x y z
#    x 1.965700 0.000000 0.000000 
#    y 0.000000 1.938140 0.000000 
#    z 0.000000 0.000000 1.965530 
# 
# From -- ./inp_files/105.got.cif
#   From: 2010.03.12/outbox.cif.g09.slc.cpg/sg41_1_cif.got.tgz:105.got - 2010.04.14 01:55:53.
