data_PCOD8185351
_publ_section_title
;
Structure prediction by ZEFSAII (Michael W. Deem and Ramdas Pophale) SiO2 
 PCOD8185351
Probable space group: A B A 2
;
_chemical_formula_sum "Si O2"
_cell_formula_units_Z 48
_cell_length_a 9.320994
_cell_length_b 13.848701
_cell_length_c 16.636530
_cell_angle_alpha 90.000000
_cell_angle_beta 90.000000
_cell_angle_gamma 90.000000
_cell_volume 2147.504164
_symmetry_space_group_name_H-M "A B A 2"
_symmetry_group_IT_number 41
_symmetry_cell_setting 'orthorhombic'
loop_
_space_group_symop_operation_xyz
x,y,z
-x,-y,z
1/2-x,y,1/2+z
1/2+x,-y,1/2+z
x,1/2+y,1/2+z
-x,1/2-y,1/2+z
1/2-x,1/2+y,z
1/2+x,1/2-y,z
loop_
_atom_site_type_symbol
_atom_site_label
_atom_site_fract_x
_atom_site_fract_y
_atom_site_fract_z
Si Si1 0.298011 0.166392 0.286550
Si Si2 0.000000 0.000000 0.187832
Si Si3 0.153464 0.181708 0.122569
Si Si4 0.063690 0.198149 0.530977
Si Si5 0.500000 0.000000 0.951884
Si Si6 0.582900 0.215514 0.366306
Si Si7 0.278232 0.962892 0.817619
O O1 0.242806 0.208681 0.202182
O O2 0.440052 0.221643 0.313267
O O3 0.170049 0.186507 0.349774
O O4 0.322297 0.051369 0.287626
O O5 0.082011 0.075884 0.131105
O O6 0.890068 0.059397 0.245396
O O7 0.268996 0.183894 0.051070
O O8 0.030608 0.261432 0.105482
O O9 0.047365 0.279863 0.460983
O O10 0.001114 0.094450 0.507589
O O11 0.357939 0.992732 0.898688
O O12 0.676785 0.125817 0.337612
#
# Coordination Sequence:
#
# PCOD8185351 Si02
#       7
#     8   4   8   8   4   8   8
#     4  11  24  45  70 102 137 184 238 291 344 426
#     4   9  24  46  70 100 145 184 234 296 359 414
#     4  11  26  47  67 105 143 190 233 288 368 420
#     4  12  26  45  70 104 146 186 231 294 363 425
#     4  11  22  44  68 102 143 180 230 292 357 422
#     4  12  24  43  74 103 136 183 240 290 349 423
#     4  10  22  42  73 102 134 180 239 299 342 414
#
# _framework density 22.351528999999999
#
# number of rings (size 3 to 8) (size 9 to 14) (size 15 to 20)
#    0.000    1.000    1.667    4.500    7.000    2.667 
#    9.000    0.000    0.000    0.000    0.000    0.000 
#    0.000    0.000    0.000    0.000    0.000    0.000 
#
# Total GULP energy -297614.936259 kJ/mol
# GULP energy per Si atom -12400.622344 kJ/mol
# Density = 2.230066 g / cm^3
# Si number density = 22.351529 Si / 1000 Ang^3
#
#
#
# Elastic Constant Matrix: (Units=GPa)
#
#
# Indices 1 2 3 4 5 6 
#
# 1 142.3132 62.8938 55.4059 0.0000 0.0000 0.0000
# 2 62.8938 109.2714 54.0767 0.0000 0.0000 0.0000
# 3 55.4059 54.0767 102.6734 0.0000 0.0000 0.0000
# 4 0.0000 0.0000 0.0000 37.3647 0.0000 0.0000
# 5 0.0000 0.0000 0.0000 0.0000 41.9629 0.0000
# 6 0.0000 0.0000 0.0000 0.0000 0.0000 46.0110
#
#
#
# Elastic Compliance Matrix: (Units=1/GPa)
#
#
# Indices 1 2 3 4 5 6 
#
# 1 0.010168 -0.004243 -0.003252 0.000000 0.000000 0.000000
# 2 -0.004243 0.014148 -0.005162 0.000000 0.000000 0.000000
# 3 -0.003252 -0.005162 0.014213 0.000000 0.000000 0.000000
# 4 0.000000 0.000000 0.000000 0.026763 0.000000 0.000000
# 5 0.000000 0.000000 0.000000 0.000000 0.023831 0.000000
# 6 0.000000 0.000000 0.000000 0.000000 0.000000 0.021734
#
#
# Mechanical properties :
#
#
# Convention : Reuss Voigt Hill
#
# Bulk Modulus (GPa) = 75.67077 77.66785 76.66931
# Shear Modulus (GPa) = 35.56760 37.19316 36.38038
#
# Velocity S-wave (km/s) = 3.99342 4.08365 4.03879
# Velocity P-wave (km/s) = 7.42910 7.55372 7.49167
#
# Compressibility (1/GPa) = 0.01321514
#
# Stress axis : x y z
#
# Youngs Moduli (GPa) = 98.34677 70.67984 70.35580
#
# Poissons Ratio (x) = 0.29989 0.22882
# Poissons Ratio (y) = 0.41728 0.36318
# Poissons Ratio (z) = 0.31986 0.36485
#
# Static dielectric constant tensor:
#      x y z
#    x 4.134740 0.000000 0.000000 
#    y 0.000000 4.059270 0.000000 
#    z 0.000000 0.000000 4.029590 
# 
# 
# High freq. dielectric constant tensor:
#      x y z
#    x 1.890470 0.000000 0.000000 
#    y 0.000000 1.882200 0.000000 
#    z 0.000000 0.000000 1.878250 
# 
# From -- ./inp_files/9679.got.cif
#   From: 2010.03.12/outbox.cif.g09.slc.cpg/sg41_5_cif.got.tgz:9679.got - 2010.04.14 01:55:53.
