data_PCOD8185624
_publ_section_title
;
Structure prediction by ZEFSAII (Michael W. Deem and Ramdas Pophale) SiO2 
 PCOD8185624
Probable space group: A B A 2
;
_chemical_formula_sum "Si O2"
_cell_formula_units_Z 64
_cell_length_a 10.779984
_cell_length_b 27.722894
_cell_length_c 9.788397
_cell_angle_alpha 90.000000
_cell_angle_beta 90.000000
_cell_angle_gamma 90.000000
_cell_volume 2925.285483
_symmetry_space_group_name_H-M "A B A 2"
_symmetry_group_IT_number 41
_symmetry_cell_setting 'orthorhombic'
loop_
_space_group_symop_operation_xyz
x,y,z
-x,-y,z
1/2-x,y,1/2+z
1/2+x,-y,1/2+z
x,1/2+y,1/2+z
-x,1/2-y,1/2+z
1/2-x,1/2+y,z
1/2+x,1/2-y,z
loop_
_atom_site_type_symbol
_atom_site_label
_atom_site_fract_x
_atom_site_fract_y
_atom_site_fract_z
Si Si1 0.504232 0.814695 0.414420
Si Si2 0.963655 0.621658 0.886533
Si Si3 0.854590 0.374817 0.630347
Si Si4 0.639537 0.224692 0.868689
Si Si5 0.328317 0.757549 0.575101
Si Si6 0.864067 0.019075 0.384521
Si Si7 0.859816 0.984248 0.078028
Si Si8 0.083966 0.156242 0.640244
O O1 0.606247 0.837470 0.514048
O O2 0.522201 0.759913 0.356498
O O3 0.381724 0.806986 0.504806
O O4 0.496546 0.846894 0.275886
O O5 0.883629 0.669554 0.902829
O O6 0.871177 0.576827 0.873277
O O7 0.052445 0.624815 0.757172
O O8 0.041175 0.617426 0.027561
O O9 0.849625 0.427118 0.561521
O O10 0.722486 0.357486 0.687896
O O11 0.714303 0.227622 0.726634
O O12 0.707477 0.253654 0.989085
O O13 0.417850 0.710451 0.575650
O O14 0.834477 0.997937 0.235348
O O15 0.749373 0.006847 0.484567
O O16 0.000000 0.000000 0.435868
O O17 0.000000 0.000000 0.033011
#
# Coordination Sequence:
#
# PCOD8185624 Si02
#       8
#     8   8   8   8   8   8   8   8
#     4  11  24  42  62 100 141 175 234 284 342 422
#     4  12  24  44  70  98 142 182 231 297 371 421
#     4  12  23  45  73  97 134 186 239 293 356 431
#     4  11  25  39  64  96 135 185 222 281 342 420
#     4  11  24  41  62  93 142 184 229 283 338 420
#     4  11  25  50  74 109 143 183 241 313 370 440
#     4  11  26  50  77 104 144 186 244 309 377 442
#     4  11  25  39  70 103 132 190 243 290 352 436
#
# _framework density 21.878205999999999
#
# number of rings (size 3 to 8) (size 9 to 14) (size 15 to 20)
#    0.000    0.750    6.250    1.500    5.250    2.500 
#    2.250    0.000    0.000    0.000    0.000    0.000 
#    0.000    0.000    0.000    0.000    0.000    0.000 
#
# Total GULP energy -396524.320678 kJ/mol
# GULP energy per Si atom -12391.385021 kJ/mol
# Density = 2.182841 g / cm^3
# Si number density = 21.878206 Si / 1000 Ang^3
#
#
#
# Elastic Constant Matrix: (Units=GPa)
#
#
# Indices 1 2 3 4 5 6 
#
# 1 83.8840 24.2421 49.0220 0.0000 0.0000 0.0000
# 2 24.2421 117.1919 31.2824 0.0000 0.0000 0.0000
# 3 49.0220 31.2824 118.5377 0.0000 0.0000 0.0000
# 4 0.0000 0.0000 0.0000 28.9690 0.0000 0.0000
# 5 0.0000 0.0000 0.0000 0.0000 39.1622 0.0000
# 6 0.0000 0.0000 0.0000 0.0000 0.0000 35.2520
#
#
#
# Elastic Compliance Matrix: (Units=1/GPa)
#
#
# Indices 1 2 3 4 5 6 
#
# 1 0.016016 -0.001662 -0.006185 0.000000 0.000000 0.000000
# 2 -0.001662 0.009352 -0.001781 0.000000 0.000000 0.000000
# 3 -0.006185 -0.001781 0.011464 0.000000 0.000000 0.000000
# 4 0.000000 0.000000 0.000000 0.034520 0.000000 0.000000
# 5 0.000000 0.000000 0.000000 0.000000 0.025535 0.000000
# 6 0.000000 0.000000 0.000000 0.000000 0.000000 0.028367
#
#
# Mechanical properties :
#
#
# Convention : Reuss Voigt Hill
#
# Bulk Modulus (GPa) = 56.89352 58.74516 57.81934
# Shear Modulus (GPa) = 33.25176 35.01444 34.13310
#
# Velocity S-wave (km/s) = 3.90276 4.00487 3.95415
# Velocity P-wave (km/s) = 6.80954 6.94943 6.87984
#
# Compressibility (1/GPa) = 0.01757670
#
# Stress axis : x y z
#
# Youngs Moduli (GPa) = 62.43749 106.92719 87.23062
#
# Poissons Ratio (x) = 0.17772 0.53951
# Poissons Ratio (y) = 0.10378 0.15533
# Poissons Ratio (z) = 0.38617 0.19040
#
# Static dielectric constant tensor:
#      x y z
#    x 3.780600 0.000000 0.000000 
#    y 0.000000 4.053820 0.000000 
#    z 0.000000 0.000000 4.136640 
# 
# 
# High freq. dielectric constant tensor:
#      x y z
#    x 1.843410 0.000000 0.000000 
#    y 0.000000 1.860320 0.000000 
#    z 0.000000 0.000000 1.875560 
# 
# From -- ./inp_files/2215.got.cif
#   From: 2010.03.12/outbox.cif.g09.slc.cpg/sg41_2_cif.got.tgz:2215.got - 2010.04.14 01:55:53.
