data_PCOD8185088
_publ_section_title
;
Structure prediction by ZEFSAII (Michael W. Deem and Ramdas Pophale) SiO2 
 PCOD8185088
Probable space group: A B A 2
;
_chemical_formula_sum "Si O2"
_cell_formula_units_Z 48
_cell_length_a 10.123037
_cell_length_b 24.672826
_cell_length_c 8.744799
_cell_angle_alpha 90.000000
_cell_angle_beta 90.000000
_cell_angle_gamma 90.000000
_cell_volume 2184.135370
_symmetry_space_group_name_H-M "A B A 2"
_symmetry_group_IT_number 41
_symmetry_cell_setting 'orthorhombic'
loop_
_space_group_symop_operation_xyz
x,y,z
-x,-y,z
1/2-x,y,1/2+z
1/2+x,-y,1/2+z
x,1/2+y,1/2+z
-x,1/2-y,1/2+z
1/2-x,1/2+y,z
1/2+x,1/2-y,z
loop_
_atom_site_type_symbol
_atom_site_label
_atom_site_fract_x
_atom_site_fract_y
_atom_site_fract_z
Si Si1 0.377769 0.574304 0.844160
Si Si2 0.341927 0.123246 0.021962
Si Si3 0.355284 0.286534 0.634945
Si Si4 0.833662 0.046818 0.798634
Si Si5 0.384219 0.404796 0.493502
Si Si6 0.892920 0.253750 0.974877
O O1 0.360475 0.615671 0.703061
O O2 0.532343 0.566810 0.882602
O O3 0.306851 0.516345 0.823656
O O4 0.303173 0.601290 0.985442
O O5 0.462805 0.090255 0.939011
O O6 0.350381 0.184127 0.960608
O O7 0.374356 0.348179 0.584048
O O8 0.457673 0.248899 0.539335
O O9 0.204503 0.272079 0.599788
O O10 0.381844 0.278373 0.815180
O O11 0.848742 0.049314 0.616206
O O12 0.713876 0.085905 0.851822
#
# Coordination Sequence:
#
# PCOD8185088 Si02
#       6
#     8   8   8   8   8   8
#     4  10  21  38  59  86 117 153 194 241 294 354
#     4  10  22  39  59  86 117 152 195 243 296 354
#     4  11  23  39  61  89 121 160 205 254 308 369
#     4  10  21  37  59  85 118 155 194 240 293 351
#     4  10  22  39  58  85 118 154 196 242 293 352
#     4  11  23  40  62  89 121 160 204 254 310 370
#
# _framework density 21.976659000000001
#
# number of rings (size 3 to 8) (size 9 to 14) (size 15 to 20)
#    0.000    1.667    0.000    4.000    0.000    8.667 
#    0.000    0.000    0.000    0.000    0.000    0.000 
#    0.000    0.000    0.000    0.000    0.000    0.000 
#
# Total GULP energy -297506.674871 kJ/mol
# GULP energy per Si atom -12396.111453 kJ/mol
# Density = 2.192664 g / cm^3
# Si number density = 21.976659 Si / 1000 Ang^3
#
#
#
# Elastic Constant Matrix: (Units=GPa)
#
#
# Indices 1 2 3 4 5 6 
#
# 1 85.4791 2.2107 11.4728 0.0000 0.0000 0.0000
# 2 2.2107 47.4254 0.2931 0.0000 0.0000 0.0000
# 3 11.4728 0.2931 42.0107 0.0000 0.0000 0.0000
# 4 0.0000 0.0000 0.0000 29.5732 0.0000 0.0000
# 5 0.0000 0.0000 0.0000 0.0000 34.8258 0.0000
# 6 0.0000 0.0000 0.0000 0.0000 0.0000 33.0789
#
#
#
# Elastic Compliance Matrix: (Units=1/GPa)
#
#
# Indices 1 2 3 4 5 6 
#
# 1 0.012158 -0.000546 -0.003316 0.000000 0.000000 0.000000
# 2 -0.000546 0.021111 0.000002 0.000000 0.000000 0.000000
# 3 -0.003316 0.000002 0.024709 0.000000 0.000000 0.000000
# 4 0.000000 0.000000 0.000000 0.033814 0.000000 0.000000
# 5 0.000000 0.000000 0.000000 0.000000 0.028714 0.000000
# 6 0.000000 0.000000 0.000000 0.000000 0.000000 0.030231
#
#
# Mechanical properties :
#
#
# Convention : Reuss Voigt Hill
#
# Bulk Modulus (GPa) = 19.89782 22.54093 21.21938
# Shear Modulus (GPa) = 28.53691 30.22483 29.38087
#
# Velocity S-wave (km/s) = 3.60739 3.71255 3.66035
# Velocity P-wave (km/s) = 5.14050 5.35316 5.24791
#
# Compressibility (1/GPa) = 0.05025675
#
# Stress axis : x y z
#
# Youngs Moduli (GPa) = 82.25026 47.36827 40.47083
#
# Poissons Ratio (x) = 0.02587 0.13422
# Poissons Ratio (y) = 0.04493 -0.00008
# Poissons Ratio (z) = 0.27278 -0.00009
#
# Static dielectric constant tensor:
#      x y z
#    x 4.455490 0.000000 0.000000 
#    y 0.000000 3.942360 0.000000 
#    z 0.000000 0.000000 3.615580 
# 
# 
# High freq. dielectric constant tensor:
#      x y z
#    x 1.880500 0.000000 0.000000 
#    y 0.000000 1.868140 0.000000 
#    z 0.000000 0.000000 1.840790 
# 
# From -- ./inp_files/1780.got.cif
#   From: 2010.03.12/outbox.cif.g09.slc.cpg/sg41_1_cif.got.tgz:1780.got - 2010.04.14 01:55:53.
