data_PCOD8185874
_publ_section_title
;
Structure prediction by ZEFSAII (Michael W. Deem and Ramdas Pophale) SiO2 
 PCOD8185874
Probable space group: F M M 2
;
_chemical_formula_sum "Si O2"
_cell_formula_units_Z 96
_cell_length_a 19.996522
_cell_length_b 30.919750
_cell_length_c 8.244858
_cell_angle_alpha 90.000000
_cell_angle_beta 90.000000
_cell_angle_gamma 90.000000
_cell_volume 5097.692320
_symmetry_space_group_name_H-M "F M M 2"
_symmetry_group_IT_number 42
_symmetry_cell_setting 'orthorhombic'
loop_
_space_group_symop_operation_xyz
x,y,z
-x,-y,z
-x,y,z
x,-y,z
x,1/2+y,1/2+z
-x,1/2-y,1/2+z
-x,1/2+y,1/2+z
x,1/2-y,1/2+z
1/2+x,y,1/2+z
1/2-x,-y,1/2+z
1/2-x,y,1/2+z
1/2+x,-y,1/2+z
1/2+x,1/2+y,z
1/2-x,1/2-y,z
1/2-x,1/2+y,z
1/2+x,1/2-y,z
loop_
_atom_site_type_symbol
_atom_site_label
_atom_site_fract_x
_atom_site_fract_y
_atom_site_fract_z
Si Si1 0.079370 0.287886 0.978190
Si Si2 0.422384 0.385834 0.043075
Si Si3 0.837377 0.358956 0.822502
Si Si4 0.667688 0.051082 0.404404
Si Si5 0.077924 0.695321 0.343985
Si Si6 0.228220 0.600805 0.120778
O O1 0.127458 0.312417 0.849647
O O2 0.093722 0.237439 0.950650
O O3 0.000000 0.298110 0.948334
O O4 0.103738 0.299827 0.159610
O O5 0.500000 0.380088 0.065094
O O6 0.390700 0.387134 0.222300
O O7 0.405550 0.430498 0.951189
O O8 0.390198 0.345987 0.937113
O O9 0.766762 0.360920 0.722448
O O10 0.825196 0.378698 0.999241
O O11 0.719064 0.070381 0.532716
O O12 0.686110 0.067818 0.227910
O O13 0.666781 0.000000 0.410565
O O14 0.000000 0.686958 0.332456
#
# Coordination Sequence:
#
# PCOD8185874 Si02
#       6
#    16  16  16  16  16  16
#     4  10  18  30  53  81 106 135 173 214 259 308
#     4  10  20  34  54  80 108 137 170 214 270 316
#     4  10  19  34  55  75 106 139 174 220 257 304
#     4  10  19  34  57  78 102 134 172 218 259 312
#     4   9  18  31  50  79 109 137 172 212 254 312
#     4   9  20  35  53  79 103 136 181 216 256 303
#
# _framework density 18.832051
#
# number of rings (size 3 to 8) (size 9 to 14) (size 15 to 20)
#    0.000    2.333    0.000    3.000    0.000    3.000 
#    0.000    1.667    0.000   34.000    0.000    0.000 
#    0.000    0.000    0.000    0.000    0.000    0.000 
#
# Total GULP energy -297418.918316 kJ/mol
# GULP energy per Si atom -12392.454930 kJ/mol
# Density = 1.878919 g / cm^3
# Si number density = 18.832051 Si / 1000 Ang^3
#
#
#
# Elastic Constant Matrix: (Units=GPa)
#
#
# Indices 1 2 3 4 5 6 
#
# 1 48.0211 43.4307 32.1604 0.0001 -0.0003 0.0000
# 2 43.4307 92.9424 35.0294 0.0006 -0.0018 -0.0003
# 3 32.1604 35.0294 103.5913 0.0014 -0.0033 -0.0004
# 4 0.0001 0.0006 0.0014 21.2173 -0.0009 -0.0002
# 5 -0.0003 -0.0018 -0.0033 -0.0009 29.8815 0.0003
# 6 0.0000 -0.0003 -0.0004 -0.0002 0.0003 26.1248
#
#
#
# Elastic Compliance Matrix: (Units=1/GPa)
#
#
# Indices 1 2 3 4 5 6 
#
# 1 0.040052 -0.016078 -0.006997 0.000001 -0.000001 0.000000
# 2 -0.016078 0.018785 -0.001361 0.000000 0.000001 0.000000
# 3 -0.006997 -0.001361 0.012286 -0.000001 0.000001 0.000000
# 4 0.000001 0.000000 -0.000001 0.047131 0.000001 0.000000
# 5 -0.000001 0.000001 0.000001 0.000001 0.033466 0.000000
# 6 0.000000 0.000000 0.000000 0.000000 0.000000 0.038278
#
#
# Mechanical properties :
#
#
# Convention : Reuss Voigt Hill
#
# Bulk Modulus (GPa) = 44.94349 51.75511 48.34930
# Shear Modulus (GPa) = 20.30147 24.37367 22.33757
#
# Velocity S-wave (km/s) = 3.28689 3.60149 3.44778
# Velocity P-wave (km/s) = 6.19049 6.69600 6.44820
#
# Compressibility (1/GPa) = 0.02225016
#
# Stress axis : x y z
#
# Youngs Moduli (GPa) = 24.96757 53.23280 81.39473
#
# Poissons Ratio (x) = 0.85590 0.56955
# Poissons Ratio (y) = 0.40144 0.11075
# Poissons Ratio (z) = 0.17471 0.07243
#
# Static dielectric constant tensor:
#      x y z
#    x 3.362470 0.000000 0.000000 
#    y 0.000000 3.337360 0.000000 
#    z 0.000000 0.000000 3.753150 
# 
# 
# High freq. dielectric constant tensor:
#      x y z
#    x 1.715060 0.000000 0.000000 
#    y 0.000000 1.713540 0.000000 
#    z 0.000000 0.000000 1.750200 
# 
# From -- ./inp_files/4162.got.cif
#   From: 2010.03.12/outbox.cif.g09.slc.cpg/sg42_3_cif.got.tgz:4162.got - 2010.04.14 02:04:31.
