data_PCOD8185574
_publ_section_title
;
Structure prediction by ZEFSAII (Michael W. Deem and Ramdas Pophale) SiO2 
 PCOD8185574
Probable space group: A B A 2
;
_chemical_formula_sum "Si O2"
_cell_formula_units_Z 60
_cell_length_a 29.686769
_cell_length_b 11.828542
_cell_length_c 7.740482
_cell_angle_alpha 90.000000
_cell_angle_beta 90.000000
_cell_angle_gamma 90.000000
_cell_volume 2718.079496
_symmetry_space_group_name_H-M "A B A 2"
_symmetry_group_IT_number 41
_symmetry_cell_setting 'orthorhombic'
loop_
_space_group_symop_operation_xyz
x,y,z
-x,-y,z
1/2-x,y,1/2+z
1/2+x,-y,1/2+z
x,1/2+y,1/2+z
-x,1/2-y,1/2+z
1/2-x,1/2+y,z
1/2+x,1/2-y,z
loop_
_atom_site_type_symbol
_atom_site_label
_atom_site_fract_x
_atom_site_fract_y
_atom_site_fract_z
Si Si1 0.346870 0.513820 0.857410
Si Si2 0.926742 0.667326 0.069352
Si Si3 0.811078 0.848255 0.402274
Si Si4 0.071338 0.668958 0.272048
Si Si5 0.500000 0.000000 0.145710
Si Si6 0.395237 0.800163 0.457360
Si Si7 0.283774 0.191686 0.529547
Si Si8 0.329863 0.913622 0.004763
O O1 0.382467 0.598736 0.771299
O O2 0.372816 0.424532 0.983096
O O3 0.321220 0.447170 0.704833
O O4 0.308270 0.581470 0.955553
O O5 0.965866 0.575756 0.033234
O O6 0.921411 0.699818 0.272665
O O7 0.881973 0.616845 0.984968
O O8 0.937574 0.778106 0.959763
O O9 0.856608 0.793544 0.468949
O O10 0.769834 0.823583 0.532158
O O11 0.798942 0.791084 0.223909
O O12 0.817792 0.982403 0.380506
O O13 0.029404 0.584802 0.259904
O O14 0.072044 0.763239 0.116365
O O15 0.299513 0.308342 0.439452
#
# Coordination Sequence:
#
# PCOD8185574 Si02
#       8
#     8   8   8   8   4   8   8   8
#     4  11  22  46  68  99 137 177 241 289 345 425
#     4  11  25  49  72 105 143 182 241 291 358 436
#     4  12  25  42  69  99 141 187 240 290 350 414
#     4  12  25  47  75 102 144 189 227 301 364 418
#     4  12  26  48  72 110 150 172 238 312 342 440
#     4  11  24  48  74 103 142 195 239 288 359 430
#     4  12  27  41  66 104 137 187 238 294 347 421
#     4  11  23  47  67  93 143 180 230 297 346 415
#
# _framework density 22.07441
#
# number of rings (size 3 to 8) (size 9 to 14) (size 15 to 20)
#    0.000    0.533    8.000    0.800    5.600    1.067 
#    2.400    1.333    0.000    0.000    0.000    0.000 
#    0.000    0.000    0.000    0.000    0.000    0.000 
#
# Total GULP energy -371945.650892 kJ/mol
# GULP energy per Si atom -12398.188363 kJ/mol
# Density = 2.202417 g / cm^3
# Si number density = 22.074410 Si / 1000 Ang^3
#
#
#
# Elastic Constant Matrix: (Units=GPa)
#
#
# Indices 1 2 3 4 5 6 
#
# 1 82.3106 28.4497 26.7100 0.0000 0.0000 0.0000
# 2 28.4497 135.3022 41.7825 0.0000 0.0000 0.0000
# 3 26.7100 41.7825 55.2372 0.0000 0.0000 0.0000
# 4 0.0000 0.0000 0.0000 38.0215 0.0000 0.0000
# 5 0.0000 0.0000 0.0000 0.0000 6.3028 0.0000
# 6 0.0000 0.0000 0.0000 0.0000 0.0000 35.8186
#
#
#
# Elastic Compliance Matrix: (Units=1/GPa)
#
#
# Indices 1 2 3 4 5 6 
#
# 1 0.014548 -0.001157 -0.006160 0.000000 0.000000 0.000000
# 2 -0.001157 0.009735 -0.006805 0.000000 0.000000 0.000000
# 3 -0.006160 -0.006805 0.026229 0.000000 0.000000 0.000000
# 4 0.000000 0.000000 0.000000 0.026301 0.000000 0.000000
# 5 0.000000 0.000000 0.000000 0.000000 0.158660 0.000000
# 6 0.000000 0.000000 0.000000 0.000000 0.000000 0.027918
#
#
# Mechanical properties :
#
#
# Convention : Reuss Voigt Hill
#
# Bulk Modulus (GPa) = 44.90250 51.85939 48.38094
# Shear Modulus (GPa) = 16.71919 27.75577 22.23748
#
# Velocity S-wave (km/s) = 2.75508 3.54979 3.17738
# Velocity P-wave (km/s) = 5.52324 6.35180 5.95196
#
# Compressibility (1/GPa) = 0.02227048
#
# Stress axis : x y z
#
# Youngs Moduli (GPa) = 68.73930 102.71728 38.12512
#
# Poissons Ratio (x) = 0.11882 0.23483
# Poissons Ratio (y) = 0.07952 0.25943
# Poissons Ratio (z) = 0.42340 0.69896
#
# Static dielectric constant tensor:
#      x y z
#    x 4.419550 0.000000 0.000000 
#    y 0.000000 4.290740 0.000000 
#    z 0.000000 0.000000 3.852770 
# 
# 
# High freq. dielectric constant tensor:
#      x y z
#    x 1.865820 0.000000 0.000000 
#    y 0.000000 1.887680 0.000000 
#    z 0.000000 0.000000 1.849220 
# 
# From -- ./inp_files/3817.got.cif
#   From: 2010.03.12/outbox.cif.g09.slc.cpg/sg41_2_cif.got.tgz:3817.got - 2010.04.14 01:55:53.
