data_PCOD8185435
_publ_section_title
;
Structure prediction by ZEFSAII (Michael W. Deem and Ramdas Pophale) SiO2 
 PCOD8185435
Probable space group: A B A 2
;
_chemical_formula_sum "Si O2"
_cell_formula_units_Z 60
_cell_length_a 25.902093
_cell_length_b 12.149294
_cell_length_c 9.193093
_cell_angle_alpha 90.000000
_cell_angle_beta 90.000000
_cell_angle_gamma 90.000000
_cell_volume 2892.994138
_symmetry_space_group_name_H-M "A B A 2"
_symmetry_group_IT_number 41
_symmetry_cell_setting 'orthorhombic'
loop_
_space_group_symop_operation_xyz
x,y,z
-x,-y,z
1/2-x,y,1/2+z
1/2+x,-y,1/2+z
x,1/2+y,1/2+z
-x,1/2-y,1/2+z
1/2-x,1/2+y,z
1/2+x,1/2-y,z
loop_
_atom_site_type_symbol
_atom_site_label
_atom_site_fract_x
_atom_site_fract_y
_atom_site_fract_z
Si Si1 0.263851 0.440296 0.859040
Si Si2 0.500000 0.000000 0.460371
Si Si3 0.157977 0.539084 0.786666
Si Si4 0.251688 0.791432 0.600914
Si Si5 0.077744 0.658198 0.309806
Si Si6 0.920867 0.126581 0.160972
Si Si7 0.855171 0.810393 0.557410
Si Si8 0.176955 0.632404 0.476772
O O1 0.203006 0.466273 0.856398
O O2 0.276514 0.344666 0.741035
O O3 0.299548 0.549416 0.854221
O O4 0.278098 0.392560 0.016716
O O5 0.531948 0.922919 0.351351
O O6 0.465630 0.924706 0.563981
O O7 0.107184 0.467300 0.755199
O O8 0.180902 0.589563 0.640833
O O9 0.143943 0.636647 0.898589
O O10 0.297673 0.702541 0.629350
O O11 0.211038 0.742510 0.484239
O O12 0.056338 0.781704 0.274389
O O13 0.110041 0.615619 0.168084
O O14 0.117972 0.662776 0.443307
O O15 0.880549 0.187500 0.051984
#
# Coordination Sequence:
#
# PCOD8185435 Si02
#       8
#     8   4   8   8   8   8   8   8
#     4  12  24  36  62  99 139 193 228 266 339 410
#     4  12  24  54  76 100 136 180 228 316 356 408
#     4  12  22  42  68 100 140 190 225 280 349 407
#     4  12  23  38  62  96 146 182 226 277 330 414
#     4  10  26  49  72 103 138 175 237 294 347 424
#     4  10  24  47  72 101 137 170 234 291 352 410
#     4  10  23  44  65 103 140 175 233 283 335 432
#     4  12  24  41  66 103 140 188 228 278 344 417
#
# _framework density 20.739757999999998
#
# number of rings (size 3 to 8) (size 9 to 14) (size 15 to 20)
#    0.800    0.000    5.333    2.400    3.733    1.067 
#    2.400    0.000    0.000    0.000    0.000    0.000 
#    0.000    0.000    0.000    0.000    0.000    0.000 
#
# Total GULP energy -371753.274460 kJ/mol
# GULP energy per Si atom -12391.775815 kJ/mol
# Density = 2.069255 g / cm^3
# Si number density = 20.739758 Si / 1000 Ang^3
#
#
#
# Elastic Constant Matrix: (Units=GPa)
#
#
# Indices 1 2 3 4 5 6 
#
# 1 89.2144 38.2995 37.3301 0.0000 0.0000 0.0000
# 2 38.2995 101.3772 52.6832 0.0000 0.0000 0.0000
# 3 37.3301 52.6832 96.3941 0.0000 0.0000 0.0000
# 4 0.0000 0.0000 0.0000 47.2546 0.0000 0.0000
# 5 0.0000 0.0000 0.0000 0.0000 35.8137 0.0000
# 6 0.0000 0.0000 0.0000 0.0000 0.0000 33.0826
#
#
#
# Elastic Compliance Matrix: (Units=1/GPa)
#
#
# Indices 1 2 3 4 5 6 
#
# 1 0.014216 -0.003505 -0.003590 0.000000 0.000000 0.000000
# 2 -0.003505 0.014641 -0.006645 0.000000 0.000000 0.000000
# 3 -0.003590 -0.006645 0.015396 0.000000 0.000000 0.000000
# 4 0.000000 0.000000 0.000000 0.021162 0.000000 0.000000
# 5 0.000000 0.000000 0.000000 0.000000 0.027922 0.000000
# 6 0.000000 0.000000 0.000000 0.000000 0.000000 0.030227
#
#
# Mechanical properties :
#
#
# Convention : Reuss Voigt Hill
#
# Bulk Modulus (GPa) = 59.61573 60.40126 60.00849
# Shear Modulus (GPa) = 31.92141 33.80839 32.86490
#
# Velocity S-wave (km/s) = 3.92744 4.04186 3.98506
# Velocity P-wave (km/s) = 7.02663 7.13924 7.08316
#
# Compressibility (1/GPa) = 0.01677410
#
# Stress axis : x y z
#
# Youngs Moduli (GPa) = 70.34482 68.29915 64.95295
#
# Poissons Ratio (x) = 0.23940 0.23315
# Poissons Ratio (y) = 0.24657 0.43159
# Poissons Ratio (z) = 0.25250 0.45383
#
# Static dielectric constant tensor:
#      x y z
#    x 3.483240 0.000000 0.000000 
#    y 0.000000 3.889500 0.000000 
#    z 0.000000 0.000000 3.650840 
# 
# 
# High freq. dielectric constant tensor:
#      x y z
#    x 1.790190 0.000000 0.000000 
#    y 0.000000 1.819700 0.000000 
#    z 0.000000 0.000000 1.812610 
# 
# From -- ./inp_files/3819.got.cif
#   From: 2010.03.12/outbox.cif.g09.slc.cpg/sg41_2_cif.got.tgz:3819.got - 2010.04.14 01:55:53.
