data_PCOD8185777
_publ_section_title
;
Structure prediction by ZEFSAII (Michael W. Deem and Ramdas Pophale) SiO2 
 PCOD8185777
Probable space group: F M M 2
;
_chemical_formula_sum "Si O2"
_cell_formula_units_Z 88
_cell_length_a 13.374063
_cell_length_b 22.586280
_cell_length_c 17.945763
_cell_angle_alpha 90.000000
_cell_angle_beta 90.000000
_cell_angle_gamma 90.000000
_cell_volume 5420.882581
_symmetry_space_group_name_H-M "F M M 2"
_symmetry_group_IT_number 42
_symmetry_cell_setting 'orthorhombic'
loop_
_space_group_symop_operation_xyz
x,y,z
-x,-y,z
-x,y,z
x,-y,z
x,1/2+y,1/2+z
-x,1/2-y,1/2+z
-x,1/2+y,1/2+z
x,1/2-y,1/2+z
1/2+x,y,1/2+z
1/2-x,-y,1/2+z
1/2-x,y,1/2+z
1/2+x,-y,1/2+z
1/2+x,1/2+y,z
1/2-x,1/2-y,z
1/2-x,1/2+y,z
1/2+x,1/2-y,z
loop_
_atom_site_type_symbol
_atom_site_label
_atom_site_fract_x
_atom_site_fract_y
_atom_site_fract_z
Si Si1 0.881645 0.434110 0.347470
Si Si2 0.718523 0.315731 0.117861
Si Si3 0.118834 0.341299 0.469128
Si Si4 0.612861 0.146554 0.213667
Si Si5 0.888674 0.219219 0.263513
Si Si6 0.250000 0.250000 0.883621
O O1 0.834715 0.500000 0.350272
O O2 0.850472 0.399239 0.422219
O O3 0.844628 0.400795 0.273024
O O4 0.000000 0.437226 0.343891
O O5 0.750000 0.250000 0.091852
O O6 0.817255 0.353216 0.140352
O O7 0.645995 0.313440 0.189001
O O8 0.660204 0.349759 0.052648
O O9 0.170820 0.284187 0.434007
O O10 0.000000 0.330498 0.469919
O O11 0.500000 0.131301 0.188006
O O12 0.615699 0.210128 0.253376
O O13 0.814072 0.204555 0.331692
O O14 0.000000 0.197687 0.283095
#
# Coordination Sequence:
#
# PCOD8185777 Si02
#       6
#    16  16  16  16  16   8
#     4   9  17  31  51  71  93 126 165 204 242 277
#     4  10  18  31  44  68 100 130 156 191 240 301
#     4  11  21  32  46  70 103 132 159 199 243 290
#     4   9  16  29  48  68  91 121 160 201 236 277
#     4  10  17  28  45  65  93 127 154 190 237 282
#     4  12  18  30  46  68  96 126 162 198 238 290
#
# _framework density 16.233519000000001
#
# number of rings (size 3 to 8) (size 9 to 14) (size 15 to 20)
#    0.000    2.000    5.455    1.091    0.000    0.727 
#    0.000    0.909    0.000    0.000    0.000    0.000 
#    0.000   21.818    0.000    0.000    0.000    0.000 
#
# Total GULP energy -272720.916808 kJ/mol
# GULP energy per Si atom -12396.405309 kJ/mol
# Density = 1.619657 g / cm^3
# Si number density = 16.233519 Si / 1000 Ang^3
#
#
#
# Elastic Constant Matrix: (Units=GPa)
#
#
# Indices 1 2 3 4 5 6 
#
# 1 105.3966 25.4732 56.1733 0.0000 0.0000 0.0000
# 2 25.4732 71.9711 46.4602 0.0000 0.0000 0.0000
# 3 56.1733 46.4602 115.9653 0.0000 0.0000 0.0000
# 4 0.0000 0.0000 0.0000 14.8818 0.0000 0.0000
# 5 0.0000 0.0000 0.0000 0.0000 31.8648 0.0000
# 6 0.0000 0.0000 0.0000 0.0000 0.0000 10.8772
#
#
#
# Elastic Compliance Matrix: (Units=1/GPa)
#
#
# Indices 1 2 3 4 5 6 
#
# 1 0.012817 -0.000713 -0.005923 0.000000 0.000000 0.000000
# 2 -0.000713 0.018781 -0.007179 0.000000 0.000000 0.000000
# 3 -0.005923 -0.007179 0.014369 0.000000 0.000000 0.000000
# 4 0.000000 0.000000 0.000000 0.067196 0.000000 0.000000
# 5 0.000000 0.000000 0.000000 0.000000 0.031383 0.000000
# 6 0.000000 0.000000 0.000000 0.000000 0.000000 0.091935
#
#
# Mechanical properties :
#
#
# Convention : Reuss Voigt Hill
#
# Bulk Modulus (GPa) = 54.53507 61.06070 57.79788
# Shear Modulus (GPa) = 18.50323 22.53985 20.52154
#
# Velocity S-wave (km/s) = 3.37978 3.73027 3.55934
# Velocity P-wave (km/s) = 6.99268 7.49992 7.25074
#
# Compressibility (1/GPa) = 0.01833683
#
# Stress axis : x y z
#
# Youngs Moduli (GPa) = 78.02133 53.24467 69.59649
#
# Poissons Ratio (x) = 0.03796 0.41221
# Poissons Ratio (y) = 0.05563 0.49964
# Poissons Ratio (z) = 0.46211 0.38225
#
# Static dielectric constant tensor:
#      x y z
#    x 3.272600 0.000000 0.000000 
#    y 0.000000 2.934070 0.000000 
#    z 0.000000 0.000000 3.094490 
# 
# 
# High freq. dielectric constant tensor:
#      x y z
#    x 1.625270 0.000000 0.000000 
#    y 0.000000 1.575600 0.000000 
#    z 0.000000 0.000000 1.625270 
# 
# From -- ./inp_files/20039.got.cif
#   From: 2010.03.12/outbox.cif.g09.slc.cpg/sg42_11_cif.got.tgz:20039.got - 2010.04.14 02:04:31.
