data_PCOD8185679
_publ_section_title
;
Structure prediction by ZEFSAII (Michael W. Deem and Ramdas Pophale) SiO2 
 PCOD8185679
Probable space group: A B A 2
;
_chemical_formula_sum "Si O2"
_cell_formula_units_Z 48
_cell_length_a 12.093204
_cell_length_b 11.580305
_cell_length_c 13.423420
_cell_angle_alpha 90.000000
_cell_angle_beta 90.000000
_cell_angle_gamma 90.000000
_cell_volume 1879.855883
_symmetry_space_group_name_H-M "A B A 2"
_symmetry_group_IT_number 41
_symmetry_cell_setting 'orthorhombic'
loop_
_space_group_symop_operation_xyz
x,y,z
-x,-y,z
1/2-x,y,1/2+z
1/2+x,-y,1/2+z
x,1/2+y,1/2+z
-x,1/2-y,1/2+z
1/2-x,1/2+y,z
1/2+x,1/2-y,z
loop_
_atom_site_type_symbol
_atom_site_label
_atom_site_fract_x
_atom_site_fract_y
_atom_site_fract_z
Si Si1 0.173942 0.732019 0.428750
Si Si2 0.299498 0.944629 0.370806
Si Si3 0.431917 0.899922 0.075087
Si Si4 0.508252 0.168193 0.282173
Si Si5 0.281563 0.039127 0.571246
Si Si6 0.103114 0.080252 0.274658
O O1 0.244402 0.818125 0.360976
O O2 0.086204 0.802239 0.494440
O O3 0.245880 0.656504 0.507843
O O4 0.104053 0.655232 0.347870
O O5 0.410591 0.939091 0.306734
O O6 0.336026 0.958492 0.486119
O O7 0.212014 0.044661 0.338313
O O8 0.508584 0.847228 0.163681
O O9 0.500000 0.000000 0.018890
O O10 0.320463 0.964364 0.114963
O O11 0.567756 0.290604 0.302572
O O12 0.367206 0.068378 0.658044
O O13 0.000000 0.000000 0.300137
#
# Coordination Sequence:
#
# PCOD8185679 Si02
#       6
#     8   8   8   8   8   8
#     4  11  26  46  72 106 141 197 241 301 372 442
#     4  11  26  44  72 106 142 194 243 307 364 442
#     4  11  27  47  73 106 145 193 245 313 371 443
#     4  12  26  46  74 107 147 189 249 300 376 440
#     4  11  26  48  71 104 147 188 252 300 375 439
#     4  12  25  49  72 104 147 197 243 309 372 445
#
# _framework density 25.533873
#
# number of rings (size 3 to 8) (size 9 to 14) (size 15 to 20)
#    0.000    0.667    5.000    1.000   11.667    1.333 
#    3.000    0.000    0.000    0.000    0.000    0.000 
#    0.000    0.000    0.000    0.000    0.000    0.000 
#
# Total GULP energy -297424.061447 kJ/mol
# GULP energy per Si atom -12392.669227 kJ/mol
# Density = 2.547576 g / cm^3
# Si number density = 25.533873 Si / 1000 Ang^3
#
#
#
# Elastic Constant Matrix: (Units=GPa)
#
#
# Indices 1 2 3 4 5 6 
#
# 1 53.8152 -13.1580 24.4286 0.0000 0.0000 0.0000
# 2 -13.1580 73.3219 -5.6589 0.0000 0.0000 0.0000
# 3 24.4286 -5.6589 105.2746 0.0000 0.0000 0.0000
# 4 0.0000 0.0000 0.0000 46.0926 0.0000 0.0000
# 5 0.0000 0.0000 0.0000 0.0000 32.1226 0.0000
# 6 0.0000 0.0000 0.0000 0.0000 0.0000 42.1852
#
#
#
# Elastic Compliance Matrix: (Units=1/GPa)
#
#
# Indices 1 2 3 4 5 6 
#
# 1 0.021633 0.003509 -0.004831 0.000000 0.000000 0.000000
# 2 0.003509 0.014265 -0.000048 0.000000 0.000000 0.000000
# 3 -0.004831 -0.000048 0.010617 0.000000 0.000000 0.000000
# 4 0.000000 0.000000 0.000000 0.021695 0.000000 0.000000
# 5 0.000000 0.000000 0.000000 0.000000 0.031131 0.000000
# 6 0.000000 0.000000 0.000000 0.000000 0.000000 0.023705
#
#
# Mechanical properties :
#
#
# Convention : Reuss Voigt Hill
#
# Bulk Modulus (GPa) = 22.84343 27.07059 24.95701
# Shear Modulus (GPa) = 35.61821 39.20008 37.40914
#
# Velocity S-wave (km/s) = 3.73894 3.92244 3.83179
# Velocity P-wave (km/s) = 5.25408 5.58022 5.41960
#
# Compressibility (1/GPa) = 0.04377627
#
# Stress axis : x y z
#
# Youngs Moduli (GPa) = 46.22519 70.10369 94.18421
#
# Poissons Ratio (x) = -0.24602 0.45503
# Poissons Ratio (y) = -0.16222 0.00448
# Poissons Ratio (z) = 0.22333 0.00333
#
# Static dielectric constant tensor:
#      x y z
#    x 4.411010 0.000000 0.000000 
#    y 0.000000 4.902980 0.000000 
#    z 0.000000 0.000000 4.490150 
# 
# 
# High freq. dielectric constant tensor:
#      x y z
#    x 2.002830 0.000000 0.000000 
#    y 0.000000 2.047690 0.000000 
#    z 0.000000 0.000000 2.026670 
# 
# From -- ./inp_files/8356.got.cif
#   From: 2010.03.12/outbox.cif.g09.slc.cpg/sg41_5_cif.got.tgz:8356.got - 2010.04.14 01:55:53.
