data_PCOD8185277
_publ_section_title
;
Structure prediction by ZEFSAII (Michael W. Deem and Ramdas Pophale) SiO2 
 PCOD8185277
Probable space group: A B A 2
;
_chemical_formula_sum "Si O2"
_cell_formula_units_Z 40
_cell_length_a 10.352136
_cell_length_b 19.332100
_cell_length_c 8.765421
_cell_angle_alpha 90.000000
_cell_angle_beta 90.000000
_cell_angle_gamma 90.000000
_cell_volume 1754.210805
_symmetry_space_group_name_H-M "A B A 2"
_symmetry_group_IT_number 41
_symmetry_cell_setting 'orthorhombic'
loop_
_space_group_symop_operation_xyz
x,y,z
-x,-y,z
1/2-x,y,1/2+z
1/2+x,-y,1/2+z
x,1/2+y,1/2+z
-x,1/2-y,1/2+z
1/2-x,1/2+y,z
1/2+x,1/2-y,z
loop_
_atom_site_type_symbol
_atom_site_label
_atom_site_fract_x
_atom_site_fract_y
_atom_site_fract_z
Si Si1 0.566683 0.573270 0.457310
Si Si2 0.867354 0.797614 0.869817
Si Si3 0.409340 0.206966 0.015011
Si Si4 0.231706 0.465202 0.698585
Si Si5 0.123901 0.044869 0.950809
O O1 0.500000 0.500000 0.484156
O O2 0.454162 0.628799 0.483541
O O3 0.677148 0.582050 0.590028
O O4 0.620832 0.582082 0.282389
O O5 0.880362 0.780514 0.692327
O O6 0.897852 0.877398 0.901469
O O7 0.722826 0.777518 0.923050
O O8 0.975153 0.756701 0.963962
O O9 0.184698 0.536047 0.617699
O O10 0.291374 0.498976 0.843708
O O11 0.000000 0.000000 0.958257
#
# Coordination Sequence:
#
# PCOD8185277 Si02
#       5
#     8   8   8   8   8
#     4  11  23  42  68 100 137 182 232 292 355 423
#     4  12  27  48  71 103 142 189 239 296 360 432
#     4  12  28  48  73 101 143 189 240 297 362 434
#     4  10  22  38  65 101 134 170 228 288 344 410
#     4  11  22  40  67  97 132 174 222 277 338 409
#
# _framework density 22.802275999999999
#
# number of rings (size 3 to 8) (size 9 to 14) (size 15 to 20)
#    0.000    0.800    0.000    8.400    0.000   11.200 
#    0.000    0.000    0.000    0.000    0.000    0.000 
#    0.000    0.000    0.000    0.000    0.000    0.000 
#
# Total GULP energy -247819.900554 kJ/mol
# GULP energy per Si atom -12390.995028 kJ/mol
# Density = 2.275038 g / cm^3
# Si number density = 22.802276 Si / 1000 Ang^3
#
#
#
# Elastic Constant Matrix: (Units=GPa)
#
#
# Indices 1 2 3 4 5 6 
#
# 1 153.6225 39.0853 63.4069 0.0000 0.0000 0.0000
# 2 39.0853 50.2526 7.0108 0.0000 0.0000 0.0000
# 3 63.4069 7.0108 161.2019 0.0000 0.0000 0.0000
# 4 0.0000 0.0000 0.0000 28.4744 0.0000 0.0000
# 5 0.0000 0.0000 0.0000 0.0000 28.8169 0.0000
# 6 0.0000 0.0000 0.0000 0.0000 0.0000 48.8242
#
#
#
# Elastic Compliance Matrix: (Units=1/GPa)
#
#
# Indices 1 2 3 4 5 6 
#
# 1 0.009779 -0.007112 -0.003537 0.000000 0.000000 0.000000
# 2 -0.007112 0.025194 0.001702 0.000000 0.000000 0.000000
# 3 -0.003537 0.001702 0.007521 0.000000 0.000000 0.000000
# 4 0.000000 0.000000 0.000000 0.035119 0.000000 0.000000
# 5 0.000000 0.000000 0.000000 0.000000 0.034702 0.000000
# 6 0.000000 0.000000 0.000000 0.000000 0.000000 0.020482
#
#
# Mechanical properties :
#
#
# Convention : Reuss Voigt Hill
#
# Bulk Modulus (GPa) = 40.65330 64.89811 52.77571
# Shear Modulus (GPa) = 31.46815 38.26139 34.86477
#
# Velocity S-wave (km/s) = 3.71892 4.10074 3.91449
# Velocity P-wave (km/s) = 6.02560 7.13754 6.60501
#
# Compressibility (1/GPa) = 0.02459825
#
# Stress axis : x y z
#
# Youngs Moduli (GPa) = 102.26049 39.69220 132.96695
#
# Poissons Ratio (x) = 0.28231 0.47032
# Poissons Ratio (y) = 0.72731 -0.22629
# Poissons Ratio (z) = 0.36171 -0.06755
#
# Static dielectric constant tensor:
#      x y z
#    x 4.511160 0.000000 0.000000 
#    y 0.000000 4.170170 0.000000 
#    z 0.000000 0.000000 4.551710 
# 
# 
# High freq. dielectric constant tensor:
#      x y z
#    x 1.924700 0.000000 0.000000 
#    y 0.000000 1.881710 0.000000 
#    z 0.000000 0.000000 1.926490 
# 
# From -- ./inp_files/2002.got.cif
#   From: 2010.03.12/outbox.cif.g09.slc.cpg/sg41_2_cif.got.tgz:2002.got - 2010.04.14 01:55:53.
