data_PCOD8185016
_publ_section_title
;
Structure prediction by ZEFSAII (Michael W. Deem and Ramdas Pophale) SiO2 
 PCOD8185016
Probable space group: A B A 2
;
_chemical_formula_sum "Si O2"
_cell_formula_units_Z 64
_cell_length_a 10.533635
_cell_length_b 9.478111
_cell_length_c 26.556443
_cell_angle_alpha 90.000000
_cell_angle_beta 90.000000
_cell_angle_gamma 90.000000
_cell_volume 2651.367697
_symmetry_space_group_name_H-M "A B A 2"
_symmetry_group_IT_number 41
_symmetry_cell_setting 'orthorhombic'
loop_
_space_group_symop_operation_xyz
x,y,z
-x,-y,z
1/2-x,y,1/2+z
1/2+x,-y,1/2+z
x,1/2+y,1/2+z
-x,1/2-y,1/2+z
1/2-x,1/2+y,z
1/2+x,1/2-y,z
loop_
_atom_site_type_symbol
_atom_site_label
_atom_site_fract_x
_atom_site_fract_y
_atom_site_fract_z
Si Si1 0.336669 0.629711 0.425990
Si Si2 0.896915 0.598424 0.782664
Si Si3 0.244952 0.935367 0.099549
Si Si4 0.084150 0.181942 0.086453
Si Si5 0.613711 0.181754 0.888978
Si Si6 0.589917 0.882201 0.032690
Si Si7 0.520562 0.274402 0.693525
Si Si8 0.697442 0.011980 0.207455
O O1 0.206068 0.697421 0.408222
O O2 0.467067 0.706379 0.406734
O O3 0.335727 0.468683 0.408029
O O4 0.316486 0.648314 0.486603
O O5 0.863490 0.701360 0.828482
O O6 0.774640 0.518518 0.759555
O O7 0.000000 0.500000 0.810395
O O8 0.977456 0.658325 0.736254
O O9 0.118293 0.014976 0.077560
O O10 0.358444 0.040725 0.083412
O O11 0.283122 0.776989 0.080592
O O12 0.221809 0.931954 0.159544
O O13 0.019790 0.207467 0.140550
O O14 0.980904 0.235786 0.046690
O O15 0.500000 0.000000 0.007234
O O16 0.659270 0.350356 0.694086
O O17 0.423756 0.390850 0.712659
#
# Coordination Sequence:
#
# PCOD8185016 Si02
#       8
#     8   8   8   8   8   8   8   8
#     4  11  25  50  74 106 139 187 236 307 359 427
#     4  12  26  41  71  97 132 176 231 281 342 408
#     4  10  21  36  63  96 129 175 222 265 331 406
#     4  10  21  39  64  96 136 180 221 272 338 414
#     4  11  27  48  75 103 142 181 245 301 366 422
#     4  10  20  40  70  93 136 181 221 277 356 407
#     4  10  23  41  61  94 136 177 220 264 341 404
#     4  10  23  41  61  92 136 177 214 273 329 410
#
# _framework density 24.138484999999999
#
# number of rings (size 3 to 8) (size 9 to 14) (size 15 to 20)
#    0.000    1.500    3.750    0.750   10.500    0.500 
#    0.000    0.625    2.750    0.000    0.000    0.000 
#    0.000    0.000    0.000    0.000    0.000    0.000 
#
# Total GULP energy -396446.906994 kJ/mol
# GULP energy per Si atom -12388.965844 kJ/mol
# Density = 2.408355 g / cm^3
# Si number density = 24.138485 Si / 1000 Ang^3
#
#
#
# Elastic Constant Matrix: (Units=GPa)
#
#
# Indices 1 2 3 4 5 6 
#
# 1 47.7002 -9.7868 3.5706 0.0000 0.0000 0.0000
# 2 -9.7868 48.3422 12.6103 0.0000 0.0000 0.0000
# 3 3.5706 12.6103 122.1888 0.0000 0.0000 0.0000
# 4 0.0000 0.0000 0.0000 24.0489 0.0000 0.0000
# 5 0.0000 0.0000 0.0000 0.0000 13.6427 0.0000
# 6 0.0000 0.0000 0.0000 0.0000 0.0000 31.6630
#
#
#
# Elastic Compliance Matrix: (Units=1/GPa)
#
#
# Indices 1 2 3 4 5 6 
#
# 1 0.022025 0.004755 -0.001134 0.000000 0.000000 0.000000
# 2 0.004755 0.022285 -0.002439 0.000000 0.000000 0.000000
# 3 -0.001134 -0.002439 0.008469 0.000000 0.000000 0.000000
# 4 0.000000 0.000000 0.000000 0.041582 0.000000 0.000000
# 5 0.000000 0.000000 0.000000 0.000000 0.073299 0.000000
# 6 0.000000 0.000000 0.000000 0.000000 0.000000 0.031583
#
#
# Mechanical properties :
#
#
# Convention : Reuss Voigt Hill
#
# Bulk Modulus (GPa) = 18.13515 25.66882 21.90199
# Shear Modulus (GPa) = 23.22780 27.99339 25.61059
#
# Velocity S-wave (km/s) = 3.10542 3.40913 3.26081
# Velocity P-wave (km/s) = 4.51524 5.11403 4.82394
#
# Compressibility (1/GPa) = 0.05514154
#
# Stress axis : x y z
#
# Youngs Moduli (GPa) = 45.40350 44.87403 118.07918
#
# Poissons Ratio (x) = -0.21337 0.13394
# Poissons Ratio (y) = -0.21588 0.28797
# Poissons Ratio (z) = 0.05150 0.10944
#
# Static dielectric constant tensor:
#      x y z
#    x 4.550630 0.000000 0.000000 
#    y 0.000000 4.670140 0.000000 
#    z 0.000000 0.000000 4.183740 
# 
# 
# High freq. dielectric constant tensor:
#      x y z
#    x 1.968750 0.000000 0.000000 
#    y 0.000000 1.957520 0.000000 
#    z 0.000000 0.000000 1.949000 
# 
# From -- ./inp_files/12160.got.cif
#   From: 2010.03.12/outbox.cif.g09.slc.cpg/sg41_7_cif.got.tgz:12160.got - 2010.04.14 01:55:53.
