data_PCOD8185968
_publ_section_title
;
Structure prediction by ZEFSAII (Michael W. Deem and Ramdas Pophale) SiO2 
 PCOD8185968
Probable space group: F M M 2
;
_chemical_formula_sum "Si O2"
_cell_formula_units_Z 96
_cell_length_a 9.018104
_cell_length_b 26.127646
_cell_length_c 22.821795
_cell_angle_alpha 90.000000
_cell_angle_beta 90.000000
_cell_angle_gamma 90.000000
_cell_volume 5377.313077
_symmetry_space_group_name_H-M "F M M 2"
_symmetry_group_IT_number 42
_symmetry_cell_setting 'orthorhombic'
loop_
_space_group_symop_operation_xyz
x,y,z
-x,-y,z
-x,y,z
x,-y,z
x,1/2+y,1/2+z
-x,1/2-y,1/2+z
-x,1/2+y,1/2+z
x,1/2-y,1/2+z
1/2+x,y,1/2+z
1/2-x,-y,1/2+z
1/2-x,y,1/2+z
1/2+x,-y,1/2+z
1/2+x,1/2+y,z
1/2-x,1/2-y,z
1/2-x,1/2+y,z
1/2+x,1/2-y,z
loop_
_atom_site_type_symbol
_atom_site_label
_atom_site_fract_x
_atom_site_fract_y
_atom_site_fract_z
Si Si1 0.328312 0.803166 0.665900
Si Si2 0.327218 0.058497 0.492187
Si Si3 0.162008 0.705051 0.988422
Si Si4 0.836000 0.379651 0.083974
Si Si5 0.174712 0.857886 0.898955
Si Si6 0.171533 0.303048 0.802680
O O1 0.500000 0.798469 0.647674
O O2 0.250000 0.750000 0.647450
O O3 0.257680 0.852974 0.635194
O O4 0.307610 0.813744 0.734247
O O5 0.500000 0.068353 0.503261
O O6 0.247252 0.072473 0.553725
O O7 0.275744 0.091354 0.435214
O O8 0.290757 0.000000 0.476970
O O9 0.250000 0.750000 0.022168
O O10 0.267732 0.691366 0.934177
O O11 0.000000 0.722603 0.965955
O O12 0.142145 0.659274 0.031917
O O13 0.000000 0.396007 0.107348
O O14 0.254346 0.851992 0.835801
O O15 0.000000 0.856488 0.889629
O O16 0.250000 0.250000 0.820427
O O17 0.000000 0.299080 0.820056
#
# Coordination Sequence:
#
# PCOD8185968 Si02
#       6
#    16  16  16  16  16  16
#     4  10  20  33  50  72 101 137 172 205 242 288
#     4   9  19  36  56  76  98 126 161 204 256 307
#     4  10  19  29  42  64  95 127 157 192 236 287
#     4  10  20  32  49  73  99 128 163 203 246 294
#     4  10  19  31  49  71  95 125 161 201 245 293
#     4  10  20  33  49  71 101 136 171 203 239 285
#
# _framework density 17.852782000000001
#
# number of rings (size 3 to 8) (size 9 to 14) (size 15 to 20)
#    0.000    2.167    0.000    3.500    0.000    6.333 
#    0.000    0.000    0.000    1.000    0.000    4.667 
#    0.000    0.000    0.000    0.000    0.000    0.000 
#
# Total GULP energy -297460.342164 kJ/mol
# GULP energy per Si atom -12394.180923 kJ/mol
# Density = 1.781215 g / cm^3
# Si number density = 17.852782 Si / 1000 Ang^3
#
#
#
# Elastic Constant Matrix: (Units=GPa)
#
#
# Indices 1 2 3 4 5 6 
#
# 1 122.3340 53.2506 50.1259 0.0000 0.0000 0.0000
# 2 53.2506 86.1990 36.9328 0.0000 0.0000 0.0000
# 3 50.1259 36.9328 76.7733 0.0000 0.0000 0.0000
# 4 0.0000 0.0000 0.0000 25.1539 0.0000 0.0000
# 5 0.0000 0.0000 0.0000 0.0000 27.6869 0.0000
# 6 0.0000 0.0000 0.0000 0.0000 0.0000 22.6326
#
#
#
# Elastic Compliance Matrix: (Units=1/GPa)
#
#
# Indices 1 2 3 4 5 6 
#
# 1 0.012953 -0.005515 -0.005804 0.000000 0.000000 0.000000
# 2 -0.005515 0.016961 -0.004559 0.000000 0.000000 0.000000
# 3 -0.005804 -0.004559 0.019008 0.000000 0.000000 0.000000
# 4 0.000000 0.000000 0.000000 0.039755 0.000000 0.000000
# 5 0.000000 0.000000 0.000000 0.000000 0.036118 0.000000
# 6 0.000000 0.000000 0.000000 0.000000 0.000000 0.044184
#
#
# Mechanical properties :
#
#
# Convention : Reuss Voigt Hill
#
# Bulk Modulus (GPa) = 58.25233 62.88055 60.56644
# Shear Modulus (GPa) = 24.21802 24.76116 24.48959
#
# Velocity S-wave (km/s) = 3.68712 3.72824 3.70774
# Velocity P-wave (km/s) = 7.12928 7.33697 7.23387
#
# Compressibility (1/GPa) = 0.01716670
#
# Stress axis : x y z
#
# Youngs Moduli (GPa) = 77.20044 58.95770 52.60981
#
# Poissons Ratio (x) = 0.32517 0.30535
# Poissons Ratio (y) = 0.42578 0.23982
# Poissons Ratio (z) = 0.44808 0.26876
#
# Static dielectric constant tensor:
#      x y z
#    x 3.744050 0.000000 0.000000 
#    y 0.000000 3.258830 0.000000 
#    z 0.000000 0.000000 3.314640 
# 
# 
# High freq. dielectric constant tensor:
#      x y z
#    x 1.710010 0.000000 0.000000 
#    y 0.000000 1.658190 0.000000 
#    z 0.000000 0.000000 1.683380 
# 
# From -- ./inp_files/23678.got.cif
#   From: 2010.03.12/outbox.cif.g09.slc.cpg/sg42_12_cif.got.tgz:23678.got - 2010.04.14 02:04:31.
