data_PCOD8185484
_publ_section_title
;
Structure prediction by ZEFSAII (Michael W. Deem and Ramdas Pophale) SiO2 
 PCOD8185484
Probable space group: A B A 2
;
_chemical_formula_sum "Si O2"
_cell_formula_units_Z 32
_cell_length_a 10.816595
_cell_length_b 12.095966
_cell_length_c 8.548098
_cell_angle_alpha 90.000000
_cell_angle_beta 90.000000
_cell_angle_gamma 90.000000
_cell_volume 1118.408912
_symmetry_space_group_name_H-M "A B A 2"
_symmetry_group_IT_number 41
_symmetry_cell_setting 'orthorhombic'
loop_
_space_group_symop_operation_xyz
x,y,z
-x,-y,z
1/2-x,y,1/2+z
1/2+x,-y,1/2+z
x,1/2+y,1/2+z
-x,1/2-y,1/2+z
1/2-x,1/2+y,z
1/2+x,1/2-y,z
loop_
_atom_site_type_symbol
_atom_site_label
_atom_site_fract_x
_atom_site_fract_y
_atom_site_fract_z
Si Si1 0.649105 0.002092 0.200180
Si Si2 0.281240 0.143956 0.933575
Si Si3 0.658535 0.681592 0.149839
Si Si4 0.477007 0.799967 0.347708
O O1 0.778547 0.068808 0.202766
O O2 0.536961 0.090586 0.233045
O O3 0.664849 0.915242 0.346659
O O4 0.637638 0.947017 0.029783
O O5 0.369068 0.209251 0.809358
O O6 0.242355 0.235759 0.065086
O O7 0.607267 0.739823 0.308887
O O8 0.542231 0.663205 0.029277
#
# Coordination Sequence:
#
# PCOD8185484 Si02
#       4
#     8   8   8   8
#     4  12  22  46  72  98 136 190 226 282 344 402
#     4  10  24  43  68 100 134 179 232 278 338 413
#     4  10  25  44  68 101 140 177 227 288 340 408
#     4  10  25  44  68 101 140 177 227 288 340 408
#
# _framework density 28.612078
#
# number of rings (size 3 to 8) (size 9 to 14) (size 15 to 20)
#    1.500    0.000    2.500    1.500    3.500    4.000 
#    4.500    2.500    0.000    0.000    0.000    0.000 
#    0.000    0.000    0.000    0.000    0.000    0.000 
#
# Total GULP energy -198220.251475 kJ/mol
# GULP energy per Si atom -12388.765717 kJ/mol
# Density = 2.854696 g / cm^3
# Si number density = 28.612078 Si / 1000 Ang^3
#
#
#
# Elastic Constant Matrix: (Units=GPa)
#
#
# Indices 1 2 3 4 5 6 
#
# 1 86.6422 27.1568 16.8962 0.0000 0.0000 0.0000
# 2 27.1568 161.9230 36.1676 0.0000 0.0000 0.0000
# 3 16.8962 36.1676 104.6869 0.0000 0.0000 0.0000
# 4 0.0000 0.0000 0.0000 30.0561 0.0000 0.0000
# 5 0.0000 0.0000 0.0000 0.0000 56.4360 0.0000
# 6 0.0000 0.0000 0.0000 0.0000 0.0000 41.2077
#
#
#
# Elastic Compliance Matrix: (Units=1/GPa)
#
#
# Indices 1 2 3 4 5 6 
#
# 1 0.012365 -0.001764 -0.001386 0.000000 0.000000 0.000000
# 2 -0.001764 0.006944 -0.002114 0.000000 0.000000 0.000000
# 3 -0.001386 -0.002114 0.010506 0.000000 0.000000 0.000000
# 4 0.000000 0.000000 0.000000 0.033271 0.000000 0.000000
# 5 0.000000 0.000000 0.000000 0.000000 0.017719 0.000000
# 6 0.000000 0.000000 0.000000 0.000000 0.000000 0.024267
#
#
# Mechanical properties :
#
#
# Convention : Reuss Voigt Hill
#
# Bulk Modulus (GPa) = 51.85078 57.07703 54.46391
# Shear Modulus (GPa) = 40.97322 43.74206 42.35764
#
# Velocity S-wave (km/s) = 3.78832 3.91423 3.85179
# Velocity P-wave (km/s) = 6.10708 6.35768 6.23364
#
# Compressibility (1/GPa) = 0.01928611
#
# Stress axis : x y z
#
# Youngs Moduli (GPa) = 80.87351 144.01125 95.17950
#
# Poissons Ratio (x) = 0.25406 0.13194
# Poissons Ratio (y) = 0.14267 0.20124
# Poissons Ratio (z) = 0.11211 0.30448
#
# Static dielectric constant tensor:
#      x y z
#    x 4.942230 0.000000 0.000000 
#    y 0.000000 5.631160 0.000000 
#    z 0.000000 0.000000 4.976600 
# 
# 
# High freq. dielectric constant tensor:
#      x y z
#    x 2.161620 0.000000 0.000000 
#    y 0.000000 2.191940 0.000000 
#    z 0.000000 0.000000 2.151040 
# 
# From -- ./inp_files/2301.got.cif
#   From: 2010.03.12/outbox.cif.g09.slc.cpg/sg41_2_cif.got.tgz:2301.got - 2010.04.14 01:55:53.
