data_PCOD8185895
_publ_section_title
;
Structure prediction by ZEFSAII (Michael W. Deem and Ramdas Pophale) SiO2 
 PCOD8185895
Probable space group: F M M 2
;
_chemical_formula_sum "Si O2"
_cell_formula_units_Z 128
_cell_length_a 19.672601
_cell_length_b 19.300766
_cell_length_c 18.990351
_cell_angle_alpha 90.000000
_cell_angle_beta 90.000000
_cell_angle_gamma 90.000000
_cell_volume 7210.565412
_symmetry_space_group_name_H-M "F M M 2"
_symmetry_group_IT_number 42
_symmetry_cell_setting 'orthorhombic'
loop_
_space_group_symop_operation_xyz
x,y,z
-x,-y,z
-x,y,z
x,-y,z
x,1/2+y,1/2+z
-x,1/2-y,1/2+z
-x,1/2+y,1/2+z
x,1/2-y,1/2+z
1/2+x,y,1/2+z
1/2-x,-y,1/2+z
1/2-x,y,1/2+z
1/2+x,-y,1/2+z
1/2+x,1/2+y,z
1/2-x,1/2-y,z
1/2-x,1/2+y,z
1/2+x,1/2-y,z
loop_
_atom_site_type_symbol
_atom_site_label
_atom_site_fract_x
_atom_site_fract_y
_atom_site_fract_z
Si Si1 0.420853 0.655883 0.607630
Si Si2 0.309029 0.575621 0.360341
Si Si3 0.815842 0.578721 0.198914
Si Si4 0.164604 0.576644 0.697245
Si Si5 0.707432 0.681051 0.825981
Si Si6 0.574486 0.872360 0.947739
Si Si7 0.574477 0.746651 0.842186
Si Si8 0.921828 0.794976 0.185064
O O1 0.500000 0.640959 0.625551
O O2 0.374473 0.597420 0.643596
O O3 0.405470 0.653019 0.525117
O O4 0.399601 0.731807 0.634967
O O5 0.274398 0.500000 0.364534
O O6 0.335480 0.588875 0.281400
O O7 0.253880 0.634999 0.378551
O O8 0.370080 0.575405 0.416638
O O9 0.829358 0.500000 0.226327
O O10 0.740529 0.581643 0.164834
O O11 0.815907 0.634913 0.260441
O O12 0.134261 0.500000 0.680866
O O13 0.119437 0.636534 0.662181
O O14 0.750000 0.750000 0.803778
O O15 0.636612 0.697578 0.865823
O O16 0.500000 0.908679 0.949118
O O17 0.571131 0.806966 0.897713
O O18 0.500000 0.709165 0.839591
O O19 0.593993 0.775335 0.765416
O O20 0.000000 0.813751 0.174359
#
# Coordination Sequence:
#
# PCOD8185895 Si02
#       8
#    16  16  16  16  16  16  16  16
#     4  10  22  36  54  79 111 147 186 225 270 323
#     4  10  20  33  51  79 112 142 175 220 272 325
#     4  10  21  34  50  75 108 144 181 222 266 317
#     4   9  18  32  51  79 109 139 177 224 275 323
#     4  11  18  32  57  79 105 138 185 228 272 314
#     4  10  20  36  54  80 113 144 177 221 276 332
#     4  10  18  31  54  78 104 139 182 228 269 311
#     4  10  18  32  53  80 109 139 182 231 268 316
#
# _framework density 17.751729000000001
#
# number of rings (size 3 to 8) (size 9 to 14) (size 15 to 20)
#    0.000    2.000    3.750    1.875    0.000    1.250 
#    0.000    5.000    0.000    1.125    0.000    0.875 
#    0.000    6.000    0.000    0.000    0.000    0.000 
#
# Total GULP energy -396563.052641 kJ/mol
# GULP energy per Si atom -12392.595395 kJ/mol
# Density = 1.771132 g / cm^3
# Si number density = 17.751729 Si / 1000 Ang^3
#
#
#
# Elastic Constant Matrix: (Units=GPa)
#
#
# Indices 1 2 3 4 5 6 
#
# 1 101.4238 57.0516 27.2138 0.0000 0.0000 0.0000
# 2 57.0516 112.3223 23.0918 0.0000 0.0000 0.0000
# 3 27.2138 23.0918 67.0948 0.0000 0.0000 0.0000
# 4 0.0000 0.0000 0.0000 13.3489 0.0000 0.0000
# 5 0.0000 0.0000 0.0000 0.0000 21.5298 0.0000
# 6 0.0000 0.0000 0.0000 0.0000 0.0000 30.6806
#
#
#
# Elastic Compliance Matrix: (Units=1/GPa)
#
#
# Indices 1 2 3 4 5 6 
#
# 1 0.014577 -0.006660 -0.003620 0.000000 0.000000 0.000000
# 2 -0.006660 0.012624 -0.001643 0.000000 0.000000 0.000000
# 3 -0.003620 -0.001643 0.016938 0.000000 0.000000 0.000000
# 4 0.000000 0.000000 0.000000 0.074913 0.000000 0.000000
# 5 0.000000 0.000000 0.000000 0.000000 0.046447 0.000000
# 6 0.000000 0.000000 0.000000 0.000000 0.000000 0.032594
#
#
# Mechanical properties :
#
#
# Convention : Reuss Voigt Hill
#
# Bulk Modulus (GPa) = 49.28104 55.06169 52.17136
# Shear Modulus (GPa) = 21.86230 24.67744 23.26987
#
# Velocity S-wave (km/s) = 3.51316 3.73251 3.62450
# Velocity P-wave (km/s) = 6.65417 7.04702 6.85341
#
# Compressibility (1/GPa) = 0.02029178
#
# Stress axis : x y z
#
# Youngs Moduli (GPa) = 68.59987 79.21707 59.03765
#
# Poissons Ratio (x) = 0.52758 0.21374
# Poissons Ratio (y) = 0.45687 0.09702
# Poissons Ratio (z) = 0.24836 0.13018
#
# Static dielectric constant tensor:
#      x y z
#    x 3.734320 0.000000 0.000000 
#    y 0.000000 3.361020 0.000000 
#    z 0.000000 0.000000 3.026760 
# 
# 
# High freq. dielectric constant tensor:
#      x y z
#    x 1.697110 0.000000 0.000000 
#    y 0.000000 1.688260 0.000000 
#    z 0.000000 0.000000 1.644140 
# 
# From -- ./inp_files/21967.got.cif
#   From: 2010.03.12/outbox.cif.g09.slc.cpg/sg42_11_cif.got.tgz:21967.got - 2010.04.14 02:04:31.
