data_PCOD8185997
_publ_section_title
;
Structure prediction by ZEFSAII (Michael W. Deem and Ramdas Pophale) SiO2 
 PCOD8185997
Probable space group: F M M 2
;
_chemical_formula_sum "Si O2"
_cell_formula_units_Z 128
_cell_length_a 9.705763
_cell_length_b 29.225670
_cell_length_c 24.903085
_cell_angle_alpha 90.000000
_cell_angle_beta 90.000000
_cell_angle_gamma 90.000000
_cell_volume 7063.945004
_symmetry_space_group_name_H-M "F M M 2"
_symmetry_group_IT_number 42
_symmetry_cell_setting 'orthorhombic'
loop_
_space_group_symop_operation_xyz
x,y,z
-x,-y,z
-x,y,z
x,-y,z
x,1/2+y,1/2+z
-x,1/2-y,1/2+z
-x,1/2+y,1/2+z
x,1/2-y,1/2+z
1/2+x,y,1/2+z
1/2-x,-y,1/2+z
1/2-x,y,1/2+z
1/2+x,-y,1/2+z
1/2+x,1/2+y,z
1/2-x,1/2-y,z
1/2-x,1/2+y,z
1/2+x,1/2-y,z
loop_
_atom_site_type_symbol
_atom_site_label
_atom_site_fract_x
_atom_site_fract_y
_atom_site_fract_z
Si Si1 0.844349 0.931694 0.290840
Si Si2 0.836284 0.796710 0.029946
Si Si3 0.843211 0.789504 0.218047
Si Si4 0.653715 0.170212 0.827776
Si Si5 0.163730 0.550263 0.671589
Si Si6 0.159517 0.352171 0.423489
Si Si7 0.659164 0.857920 0.626831
Si Si8 0.157649 0.549465 0.388364
O O1 0.842070 0.877817 0.297981
O O2 0.782636 0.944290 0.232549
O O3 0.749065 0.954598 0.335367
O O4 0.000000 0.950725 0.297220
O O5 0.750000 0.750000 0.025944
O O6 0.802472 0.828624 0.979181
O O7 0.000000 0.785540 0.034354
O O8 0.776901 0.826178 0.080127
O O9 0.750000 0.750000 0.192623
O O10 0.804897 0.794770 0.280769
O O11 0.816420 0.835631 0.184943
O O12 0.000000 0.773925 0.211038
O O13 0.500000 0.180244 0.849847
O O14 0.758458 0.174224 0.876918
O O15 0.207044 0.500000 0.649416
O O16 0.222869 0.590501 0.632373
O O17 0.000000 0.555978 0.673462
O O18 0.200481 0.406563 0.424965
O O19 0.000000 0.345937 0.409947
O O20 0.500000 0.862171 0.611534
O O21 0.174742 0.500000 0.418968
O O22 0.000000 0.556206 0.370260
#
# Coordination Sequence:
#
# PCOD8185997 Si02
#       8
#    16  16  16  16  16  16  16  16
#     4   9  15  26  45  70  98 129 164 198 232 277
#     4  10  21  37  57  75  94 125 167 210 251 292
#     4  10  19  31  48  71  99 128 159 195 243 297
#     4   9  17  30  48  70  99 132 159 194 244 292
#     4   9  15  24  44  74 103 129 158 195 241 289
#     4   9  19  34  50  71  98 128 163 203 244 286
#     4   9  17  32  50  70 100 130 158 201 249 291
#     4   9  17  29  45  67  99 135 164 192 234 287
#
# _framework density 18.120186
#
# number of rings (size 3 to 8) (size 9 to 14) (size 15 to 20)
#    0.000    2.750    1.250    0.750    0.000    2.250 
#    0.000    3.125    0.000    4.500    0.000    0.000 
#    0.000    1.000    0.000    0.000    0.000    0.000 
#
# Total GULP energy -396485.078052 kJ/mol
# GULP energy per Si atom -12390.158689 kJ/mol
# Density = 1.807894 g / cm^3
# Si number density = 18.120186 Si / 1000 Ang^3
#
#
#
# Elastic Constant Matrix: (Units=GPa)
#
#
# Indices 1 2 3 4 5 6 
#
# 1 43.1670 40.2963 38.4062 0.0000 0.0000 0.0000
# 2 40.2963 130.3506 57.6449 0.0000 0.0000 0.0000
# 3 38.4062 57.6449 98.6820 0.0000 0.0000 0.0000
# 4 0.0000 0.0000 0.0000 15.8885 0.0000 0.0000
# 5 0.0000 0.0000 0.0000 0.0000 16.5098 0.0000
# 6 0.0000 0.0000 0.0000 0.0000 0.0000 19.4344
#
#
#
# Elastic Compliance Matrix: (Units=1/GPa)
#
#
# Indices 1 2 3 4 5 6 
#
# 1 0.040129 -0.007414 -0.011287 0.000000 0.000000 0.000000
# 2 -0.007414 0.011713 -0.003957 0.000000 0.000000 0.000000
# 3 -0.011287 -0.003957 0.016838 0.000000 0.000000 0.000000
# 4 0.000000 0.000000 0.000000 0.062938 0.000000 0.000000
# 5 0.000000 0.000000 0.000000 0.000000 0.060570 0.000000
# 6 0.000000 0.000000 0.000000 0.000000 0.000000 0.051455
#
#
# Mechanical properties :
#
#
# Convention : Reuss Voigt Hill
#
# Bulk Modulus (GPa) = 42.80015 60.54383 51.67199
# Shear Modulus (GPa) = 16.84933 19.42336 18.13635
#
# Velocity S-wave (km/s) = 3.05268 3.27757 3.16712
# Velocity P-wave (km/s) = 6.00804 6.91435 6.47706
#
# Compressibility (1/GPa) = 0.02336440
#
# Stress axis : x y z
#
# Youngs Moduli (GPa) = 24.91969 85.37229 59.39018
#
# Poissons Ratio (x) = 0.63294 0.67034
# Poissons Ratio (y) = 0.18475 0.23500
# Poissons Ratio (z) = 0.28127 0.33781
#
# Static dielectric constant tensor:
#      x y z
#    x 3.129120 0.000000 0.000000 
#    y 0.000000 3.611950 0.000000 
#    z 0.000000 0.000000 3.221660 
# 
# 
# High freq. dielectric constant tensor:
#      x y z
#    x 1.665890 0.000000 0.000000 
#    y 0.000000 1.718470 0.000000 
#    z 0.000000 0.000000 1.680550 
# 
# From -- ./inp_files/29111.got.cif
#   From: 2010.03.12/outbox.cif.g09.slc.cpg/sg42_15_cif.got.tgz:29111.got - 2010.04.14 02:04:31.
