data_PCOD8185575
_publ_section_title
;
Structure prediction by ZEFSAII (Michael W. Deem and Ramdas Pophale) SiO2 
 PCOD8185575
Probable space group: A B A 2
;
_chemical_formula_sum "Si O2"
_cell_formula_units_Z 64
_cell_length_a 29.860962
_cell_length_b 9.266402
_cell_length_c 11.065674
_cell_angle_alpha 90.000000
_cell_angle_beta 90.000000
_cell_angle_gamma 90.000000
_cell_volume 3061.912695
_symmetry_space_group_name_H-M "A B A 2"
_symmetry_group_IT_number 41
_symmetry_cell_setting 'orthorhombic'
loop_
_space_group_symop_operation_xyz
x,y,z
-x,-y,z
1/2-x,y,1/2+z
1/2+x,-y,1/2+z
x,1/2+y,1/2+z
-x,1/2-y,1/2+z
1/2-x,1/2+y,z
1/2+x,1/2-y,z
loop_
_atom_site_type_symbol
_atom_site_label
_atom_site_fract_x
_atom_site_fract_y
_atom_site_fract_z
Si Si1 0.616353 0.157613 0.072650
Si Si2 0.955418 0.344612 0.709231
Si Si3 0.209118 0.332024 0.211121
Si Si4 0.677613 0.373963 0.401605
Si Si5 0.946839 0.155968 0.161324
Si Si6 0.585062 0.857442 0.963133
Si Si7 0.786553 0.358911 0.161106
Si Si8 0.142770 0.822613 0.314224
O O1 0.576455 0.228615 0.147470
O O2 0.659599 0.158932 0.157715
O O3 0.597989 0.999505 0.039762
O O4 0.631454 0.237977 0.948618
O O5 0.951591 0.487815 0.627357
O O6 0.006453 0.287476 0.719099
O O7 0.942836 0.395042 0.844130
O O8 0.210173 0.237154 0.333795
O O9 0.227026 0.494969 0.234238
O O10 0.245052 0.245816 0.129799
O O11 0.631790 0.284718 0.422693
O O12 0.697123 0.417929 0.531500
O O13 0.665499 0.518512 0.324768
O O14 0.942668 0.243213 0.038141
O O15 0.904401 0.178680 0.246571
O O16 0.824014 0.279028 0.240185
#
# Coordination Sequence:
#
# PCOD8185575 Si02
#       8
#     8   8   8   8   8   8   8   8
#     4  11  23  45  70  96 133 182 226 276 342 402
#     4  11  25  42  65 102 137 177 226 280 343 401
#     4  12  25  44  69  99 133 176 226 281 342 403
#     4  11  23  46  70  94 135 177 225 280 336 399
#     4  11  23  41  68  99 133 178 222 280 342 396
#     4  11  22  46  70  92 138 176 227 279 333 402
#     4  12  27  45  66 103 135 176 230 282 341 407
#     4  11  22  46  69  95 136 178 228 278 334 408
#
# _framework density 20.901966999999999
#
# number of rings (size 3 to 8) (size 9 to 14) (size 15 to 20)
#    0.000    0.750    7.500    0.750    3.500    2.500 
#    4.500    0.000    0.000    0.000    0.000    0.000 
#    0.000    0.000    0.000    0.000    0.000    0.000 
#
# Total GULP energy -396563.699476 kJ/mol
# GULP energy per Si atom -12392.615609 kJ/mol
# Density = 2.085439 g / cm^3
# Si number density = 20.901967 Si / 1000 Ang^3
#
#
#
# Elastic Constant Matrix: (Units=GPa)
#
#
# Indices 1 2 3 4 5 6 
#
# 1 113.1694 63.9070 27.6155 0.0000 0.0000 0.0000
# 2 63.9070 122.1578 54.5455 0.0000 0.0000 0.0000
# 3 27.6155 54.5455 89.3046 0.0000 0.0000 0.0000
# 4 0.0000 0.0000 0.0000 19.1296 0.0000 0.0000
# 5 0.0000 0.0000 0.0000 0.0000 29.4405 0.0000
# 6 0.0000 0.0000 0.0000 0.0000 0.0000 35.3454
#
#
#
# Elastic Compliance Matrix: (Units=1/GPa)
#
#
# Indices 1 2 3 4 5 6 
#
# 1 0.012543 -0.006641 0.000178 0.000000 0.000000 0.000000
# 2 -0.006641 0.014772 -0.006969 0.000000 0.000000 0.000000
# 3 0.000178 -0.006969 0.015399 0.000000 0.000000 0.000000
# 4 0.000000 0.000000 0.000000 0.052275 0.000000 0.000000
# 5 0.000000 0.000000 0.000000 0.000000 0.033967 0.000000
# 6 0.000000 0.000000 0.000000 0.000000 0.000000 0.028292
#
#
# Mechanical properties :
#
#
# Convention : Reuss Voigt Hill
#
# Bulk Modulus (GPa) = 63.09331 68.52977 65.81154
# Shear Modulus (GPa) = 26.39951 28.68736 27.54344
#
# Velocity S-wave (km/s) = 3.55775 3.70871 3.63401
# Velocity P-wave (km/s) = 6.86496 7.15519 7.01158
#
# Compressibility (1/GPa) = 0.01584954
#
# Stress axis : x y z
#
# Youngs Moduli (GPa) = 79.72334 67.69397 64.93844
#
# Poissons Ratio (x) = 0.44958 -0.01154
# Poissons Ratio (y) = 0.52948 0.45255
# Poissons Ratio (z) = -0.01417 0.47176
#
# Static dielectric constant tensor:
#      x y z
#    x 4.140750 0.000000 0.000000 
#    y 0.000000 3.817190 0.000000 
#    z 0.000000 0.000000 3.802060 
# 
# 
# High freq. dielectric constant tensor:
#      x y z
#    x 1.839620 0.000000 0.000000 
#    y 0.000000 1.810710 0.000000 
#    z 0.000000 0.000000 1.813020 
# 
# From -- ./inp_files/6659.got.cif
#   From: 2010.03.12/outbox.cif.g09.slc.cpg/sg41_4_cif.got.tgz:6659.got - 2010.04.14 01:55:53.
