data_PCOD8185704
_publ_section_title
;
Structure prediction by ZEFSAII (Michael W. Deem and Ramdas Pophale) SiO2 
 PCOD8185704
Probable space group: A B A 2
;
_chemical_formula_sum "Si O2"
_cell_formula_units_Z 44
_cell_length_a 12.672927
_cell_length_b 28.061878
_cell_length_c 5.132117
_cell_angle_alpha 90.000000
_cell_angle_beta 90.000000
_cell_angle_gamma 90.000000
_cell_volume 1825.114914
_symmetry_space_group_name_H-M "A B A 2"
_symmetry_group_IT_number 41
_symmetry_cell_setting 'orthorhombic'
loop_
_space_group_symop_operation_xyz
x,y,z
-x,-y,z
1/2-x,y,1/2+z
1/2+x,-y,1/2+z
x,1/2+y,1/2+z
-x,1/2-y,1/2+z
1/2-x,1/2+y,z
1/2+x,1/2-y,z
loop_
_atom_site_type_symbol
_atom_site_label
_atom_site_fract_x
_atom_site_fract_y
_atom_site_fract_z
Si Si1 0.313939 0.554797 0.620490
Si Si2 0.816247 0.244359 0.038533
Si Si3 0.500000 0.000000 0.342055
Si Si4 0.448471 0.345937 0.076966
Si Si5 0.681320 0.563793 0.012582
Si Si6 0.088972 0.651654 0.074900
O O1 0.258179 0.536279 0.359192
O O2 0.431239 0.533830 0.652909
O O3 0.320060 0.612034 0.599923
O O4 0.776228 0.235023 0.746414
O O5 0.911280 0.208575 0.100057
O O6 0.855652 0.297781 0.061775
O O7 0.574278 0.032410 0.527885
O O8 0.348162 0.380747 0.051502
O O9 0.518273 0.352328 0.826161
O O10 0.517345 0.359389 0.326171
O O11 0.734013 0.551713 0.734567
#
# Coordination Sequence:
#
# PCOD8185704 Si02
#       6
#     8   8   4   8   8   8
#     4  12  27  48  74 107 144 190 241 302 367 435
#     4  12  24  42  68 104 144 188 242 296 354 438
#     4  12  28  50  76 108 148 190 252 302 376 438
#     4  12  24  45  71 103 143 191 241 295 362 433
#     4  12  27  48  74 107 144 190 241 302 367 435
#     4  12  24  45  71 103 143 191 241 295 362 433
#
# _framework density 24.108072
#
# number of rings (size 3 to 8) (size 9 to 14) (size 15 to 20)
#    0.000    0.000    1.818    8.727    0.000    1.455 
#    0.000    0.000    0.000    0.000    0.000    0.000 
#    0.000    0.000    0.000    0.000    0.000    0.000 
#
# Total GULP energy -273007.275385 kJ/mol
# GULP energy per Si atom -12409.421608 kJ/mol
# Density = 2.405320 g / cm^3
# Si number density = 24.108072 Si / 1000 Ang^3
#
#
#
# Elastic Constant Matrix: (Units=GPa)
#
#
# Indices 1 2 3 4 5 6 
#
# 1 92.0932 20.3475 40.7034 0.0000 0.0000 0.0000
# 2 20.3475 93.5120 14.4871 0.0000 0.0000 0.0000
# 3 40.7034 14.4871 159.1833 0.0000 0.0000 0.0000
# 4 0.0000 0.0000 0.0000 28.5491 0.0000 0.0000
# 5 0.0000 0.0000 0.0000 0.0000 35.0266 0.0000
# 6 0.0000 0.0000 0.0000 0.0000 0.0000 98.3284
#
#
#
# Elastic Compliance Matrix: (Units=1/GPa)
#
#
# Indices 1 2 3 4 5 6 
#
# 1 0.012710 -0.002294 -0.003041 0.000000 0.000000 0.000000
# 2 -0.002294 0.011261 -0.000438 0.000000 0.000000 0.000000
# 3 -0.003041 -0.000438 0.007100 0.000000 0.000000 0.000000
# 4 0.000000 0.000000 0.000000 0.035027 0.000000 0.000000
# 5 0.000000 0.000000 0.000000 0.000000 0.028550 0.000000
# 6 0.000000 0.000000 0.000000 0.000000 0.000000 0.010170
#
#
# Mechanical properties :
#
#
# Convention : Reuss Voigt Hill
#
# Bulk Modulus (GPa) = 51.22200 55.09607 53.15903
# Shear Modulus (GPa) = 40.69279 50.33088 45.51183
#
# Velocity S-wave (km/s) = 4.11290 4.57411 4.34963
# Velocity P-wave (km/s) = 6.62175 7.12742 6.87923
#
# Compressibility (1/GPa) = 0.01952286
#
# Stress axis : x y z
#
# Youngs Moduli (GPa) = 78.68085 88.80261 140.85414
#
# Poissons Ratio (x) = 0.20375 0.42834
# Poissons Ratio (y) = 0.18052 0.06172
# Poissons Ratio (z) = 0.23927 0.03891
#
# Static dielectric constant tensor:
#      x y z
#    x 4.343130 0.000000 0.000000 
#    y 0.000000 4.357890 0.000000 
#    z 0.000000 0.000000 4.433050 
# 
# 
# High freq. dielectric constant tensor:
#      x y z
#    x 1.960800 0.000000 0.000000 
#    y 0.000000 1.986420 0.000000 
#    z 0.000000 0.000000 1.965600 
# 
# From -- ./inp_files/280.got.cif
#   From: 2010.03.12/outbox.cif.g09.slc.cpg/sg41_1_cif.got.tgz:280.got - 2010.04.14 01:55:53.
