data_PCOD8185027
_publ_section_title
;
Structure prediction by ZEFSAII (Michael W. Deem and Ramdas Pophale) SiO2 
 PCOD8185027
Probable space group: A B A 2
;
_chemical_formula_sum "Si O2"
_cell_formula_units_Z 40
_cell_length_a 5.040063
_cell_length_b 13.866161
_cell_length_c 26.415617
_cell_angle_alpha 90.000000
_cell_angle_beta 90.000000
_cell_angle_gamma 90.000000
_cell_volume 1846.090395
_symmetry_space_group_name_H-M "A B A 2"
_symmetry_group_IT_number 41
_symmetry_cell_setting 'orthorhombic'
loop_
_space_group_symop_operation_xyz
x,y,z
-x,-y,z
1/2-x,y,1/2+z
1/2+x,-y,1/2+z
x,1/2+y,1/2+z
-x,1/2-y,1/2+z
1/2-x,1/2+y,z
1/2+x,1/2-y,z
loop_
_atom_site_type_symbol
_atom_site_label
_atom_site_fract_x
_atom_site_fract_y
_atom_site_fract_z
Si Si1 0.766090 0.060701 0.682790
Si Si2 0.755468 0.063857 0.367725
Si Si3 0.198511 0.813250 0.273886
Si Si4 0.175617 0.313863 0.461019
Si Si5 0.000000 0.500000 0.523364
Si Si6 0.000000 0.000000 0.587721
O O1 0.706369 0.156121 0.714919
O O2 0.880747 0.083587 0.625831
O O3 0.500000 0.000000 0.677533
O O4 0.000000 0.000000 0.711517
O O5 0.811214 0.093883 0.309978
O O6 0.701518 0.158419 0.401890
O O7 0.500000 0.000000 0.370231
O O8 0.000000 0.000000 0.388717
O O9 0.445379 0.748378 0.287025
O O10 0.454119 0.264752 0.475024
O O11 0.120935 0.412815 0.490891
O O12 0.748709 0.459988 0.555506
#
# Coordination Sequence:
#
# PCOD8185027 Si02
#       6
#     8   8   8   8   4   4
#     4  10  20  41  65  90 119 178 218 270 325 402
#     4  12  24  43  68  99 133 184 229 268 342 413
#     4  12  24  39  62  99 140 173 215 279 336 403
#     4  12  26  45  70 104 140 176 230 288 341 417
#     4  12  24  46  71 100 133 186 228 282 370 396
#     4  10  22  42  73  88 129 174 228 282 338 418
#
# _framework density 21.667408999999999
#
# number of rings (size 3 to 8) (size 9 to 14) (size 15 to 20)
#    0.600    0.000    2.000    7.200    1.400    0.000 
#    0.000    6.000    0.000    0.000    0.000    0.000 
#    0.000    0.000    0.000    0.000    0.000    0.000 
#
# Total GULP energy -247881.586345 kJ/mol
# GULP energy per Si atom -12394.079317 kJ/mol
# Density = 2.161809 g / cm^3
# Si number density = 21.667409 Si / 1000 Ang^3
#
#
#
# Elastic Constant Matrix: (Units=GPa)
#
#
# Indices 1 2 3 4 5 6 
#
# 1 178.4683 46.1192 37.2824 0.0000 0.0000 0.0000
# 2 46.1192 84.0543 31.3775 0.0000 0.0000 0.0000
# 3 37.2824 31.3775 98.3859 0.0000 0.0000 0.0000
# 4 0.0000 0.0000 0.0000 23.6894 0.0000 0.0000
# 5 0.0000 0.0000 0.0000 0.0000 25.0844 0.0000
# 6 0.0000 0.0000 0.0000 0.0000 0.0000 27.1904
#
#
#
# Elastic Compliance Matrix: (Units=1/GPa)
#
#
# Indices 1 2 3 4 5 6 
#
# 1 0.006733 -0.003112 -0.001559 0.000000 0.000000 0.000000
# 2 -0.003112 0.014944 -0.003586 0.000000 0.000000 0.000000
# 3 -0.001559 -0.003586 0.011899 0.000000 0.000000 0.000000
# 4 0.000000 0.000000 0.000000 0.042213 0.000000 0.000000
# 5 0.000000 0.000000 0.000000 0.000000 0.039865 0.000000
# 6 0.000000 0.000000 0.000000 0.000000 0.000000 0.036778
#
#
# Mechanical properties :
#
#
# Convention : Reuss Voigt Hill
#
# Bulk Modulus (GPa) = 58.61693 65.60740 62.11216
# Shear Modulus (GPa) = 28.63136 31.60146 30.11641
#
# Velocity S-wave (km/s) = 3.63905 3.82315 3.73224
# Velocity P-wave (km/s) = 6.69094 7.05929 6.87758
#
# Compressibility (1/GPa) = 0.01705992
#
# Stress axis : x y z
#
# Youngs Moduli (GPa) = 148.51790 66.91801 84.04380
#
# Poissons Ratio (x) = 0.20828 0.13101
# Poissons Ratio (y) = 0.46226 0.30142
# Poissons Ratio (z) = 0.23152 0.24000
#
# Static dielectric constant tensor:
#      x y z
#    x 4.143200 0.000000 0.000000 
#    y 0.000000 3.698720 0.000000 
#    z 0.000000 0.000000 4.143530 
# 
# 
# High freq. dielectric constant tensor:
#      x y z
#    x 1.882760 0.000000 0.000000 
#    y 0.000000 1.822440 0.000000 
#    z 0.000000 0.000000 1.852980 
# 
# From -- ./inp_files/12361.got.cif
#   From: 2010.03.12/outbox.cif.g09.slc.cpg/sg41_7_cif.got.tgz:12361.got - 2010.04.14 01:55:53.
