data_PCOD8185048
_publ_section_title
;
Structure prediction by ZEFSAII (Michael W. Deem and Ramdas Pophale) SiO2 
 PCOD8185048
Probable space group: A B A 2
;
_chemical_formula_sum "Si O2"
_cell_formula_units_Z 64
_cell_length_a 14.815175
_cell_length_b 8.848770
_cell_length_c 21.690945
_cell_angle_alpha 90.000000
_cell_angle_beta 90.000000
_cell_angle_gamma 90.000000
_cell_volume 2843.597776
_symmetry_space_group_name_H-M "A B A 2"
_symmetry_group_IT_number 41
_symmetry_cell_setting 'orthorhombic'
loop_
_space_group_symop_operation_xyz
x,y,z
-x,-y,z
1/2-x,y,1/2+z
1/2+x,-y,1/2+z
x,1/2+y,1/2+z
-x,1/2-y,1/2+z
1/2-x,1/2+y,z
1/2+x,1/2-y,z
loop_
_atom_site_type_symbol
_atom_site_label
_atom_site_fract_x
_atom_site_fract_y
_atom_site_fract_z
Si Si1 0.806228 0.897256 0.804110
Si Si2 0.457017 0.276987 0.264119
Si Si3 0.695945 0.156036 0.524763
Si Si4 0.349193 0.656929 0.083625
Si Si5 0.011229 0.177836 0.529338
Si Si6 0.370405 0.590327 0.222989
Si Si7 0.705442 0.686736 0.884125
Si Si8 0.517007 0.828498 0.892211
O O1 0.885689 0.859776 0.753244
O O2 0.714135 0.896711 0.766681
O O3 0.793911 0.762755 0.854393
O O4 0.826481 0.048444 0.841393
O O5 0.415288 0.430958 0.238351
O O6 0.558007 0.271607 0.235733
O O7 0.463938 0.246811 0.337846
O O8 0.778848 0.211032 0.566783
O O9 0.615188 0.274453 0.537271
O O10 0.728771 0.140553 0.454139
O O11 0.665308 0.988016 0.541215
O O12 0.449856 0.723207 0.074849
O O13 0.337384 0.602527 0.153320
O O14 0.980133 0.217767 0.459491
O O15 0.000000 0.000000 0.543465
O O16 0.624041 0.805426 0.887276
O O17 0.500000 0.000000 0.877481
#
# Coordination Sequence:
#
# PCOD8185048 Si02
#       8
#     8   8   8   8   8   8   8   8
#     4  12  24  43  70 105 138 178 231 288 353 424
#     4  11  23  43  70  96 135 181 225 286 350 412
#     4  11  26  45  68 105 137 183 234 294 350 423
#     4  12  27  46  71  97 142 187 240 281 351 414
#     4  10  24  44  71 104 136 180 228 290 354 416
#     4  11  26  45  68  99 135 191 232 281 346 411
#     4  11  24  42  69 105 141 174 230 289 362 419
#     4  10  20  42  70  99 139 173 223 284 357 415
#
# _framework density 22.506699999999999
#
# number of rings (size 3 to 8) (size 9 to 14) (size 15 to 20)
#    0.000    1.000    3.750    1.875    8.750    1.500 
#    0.000    1.250    0.000    0.000    0.000    0.000 
#    0.000    0.000    0.000    0.000    0.000    0.000 
#
# Total GULP energy -396612.330616 kJ/mol
# GULP energy per Si atom -12394.135332 kJ/mol
# Density = 2.245547 g / cm^3
# Si number density = 22.506700 Si / 1000 Ang^3
#
#
#
# Elastic Constant Matrix: (Units=GPa)
#
#
# Indices 1 2 3 4 5 6 
#
# 1 83.2368 8.7779 19.1335 0.0000 0.0000 0.0000
# 2 8.7779 66.5642 10.4959 0.0000 0.0000 0.0000
# 3 19.1335 10.4959 108.0283 0.0000 0.0000 0.0000
# 4 0.0000 0.0000 0.0000 22.5896 0.0000 0.0000
# 5 0.0000 0.0000 0.0000 0.0000 64.8254 0.0000
# 6 0.0000 0.0000 0.0000 0.0000 0.0000 30.2228
#
#
#
# Elastic Compliance Matrix: (Units=1/GPa)
#
#
# Indices 1 2 3 4 5 6 
#
# 1 0.012639 -0.001334 -0.002109 0.000000 0.000000 0.000000
# 2 -0.001334 0.015398 -0.001260 0.000000 0.000000 0.000000
# 3 -0.002109 -0.001260 0.009753 0.000000 0.000000 0.000000
# 4 0.000000 0.000000 0.000000 0.044268 0.000000 0.000000
# 5 0.000000 0.000000 0.000000 0.000000 0.015426 0.000000
# 6 0.000000 0.000000 0.000000 0.000000 0.000000 0.033088
#
#
# Mechanical properties :
#
#
# Convention : Reuss Voigt Hill
#
# Bulk Modulus (GPa) = 35.23116 37.18266 36.20691
# Shear Modulus (GPa) = 33.45850 38.15569 35.80709
#
# Velocity S-wave (km/s) = 3.85983 4.12187 3.99300
# Velocity P-wave (km/s) = 5.96255 6.26176 6.11399
#
# Compressibility (1/GPa) = 0.02838397
#
# Stress axis : x y z
#
# Youngs Moduli (GPa) = 79.11762 64.94488 102.53504
#
# Poissons Ratio (x) = 0.08665 0.21625
# Poissons Ratio (y) = 0.10556 0.12916
# Poissons Ratio (z) = 0.16686 0.08181
#
# Static dielectric constant tensor:
#      x y z
#    x 4.165250 0.000000 0.000000 
#    y 0.000000 3.839030 0.000000 
#    z 0.000000 0.000000 4.228100 
# 
# 
# High freq. dielectric constant tensor:
#      x y z
#    x 1.903160 0.000000 0.000000 
#    y 0.000000 1.875660 0.000000 
#    z 0.000000 0.000000 1.884480 
# 
# From -- ./inp_files/12255.got.cif
#   From: 2010.03.12/outbox.cif.g09.slc.cpg/sg41_7_cif.got.tgz:12255.got - 2010.04.14 01:55:53.
