data_PCOD8185956
_publ_section_title
;
Structure prediction by ZEFSAII (Michael W. Deem and Ramdas Pophale) SiO2 
 PCOD8185956
Probable space group: F M M 2
;
_chemical_formula_sum "Si O2"
_cell_formula_units_Z 96
_cell_length_a 18.878501
_cell_length_b 23.011772
_cell_length_c 11.337267
_cell_angle_alpha 90.000000
_cell_angle_beta 90.000000
_cell_angle_gamma 90.000000
_cell_volume 4925.223515
_symmetry_space_group_name_H-M "F M M 2"
_symmetry_group_IT_number 42
_symmetry_cell_setting 'orthorhombic'
loop_
_space_group_symop_operation_xyz
x,y,z
-x,-y,z
-x,y,z
x,-y,z
x,1/2+y,1/2+z
-x,1/2-y,1/2+z
-x,1/2+y,1/2+z
x,1/2-y,1/2+z
1/2+x,y,1/2+z
1/2-x,-y,1/2+z
1/2-x,y,1/2+z
1/2+x,-y,1/2+z
1/2+x,1/2+y,z
1/2-x,1/2-y,z
1/2-x,1/2+y,z
1/2+x,1/2-y,z
loop_
_atom_site_type_symbol
_atom_site_label
_atom_site_fract_x
_atom_site_fract_y
_atom_site_fract_z
Si Si1 0.371467 0.934487 0.128410
Si Si2 0.286191 0.436456 0.037125
Si Si3 0.683870 0.358042 0.823928
Si Si4 0.919017 0.846901 0.442621
Si Si5 0.169371 0.347042 0.710619
Si Si6 0.167206 0.763426 0.006565
O O1 0.291173 0.940604 0.090184
O O2 0.373913 0.892610 0.244291
O O3 0.401573 0.000000 0.153735
O O4 0.415771 0.904501 0.023531
O O5 0.318364 0.500000 0.014328
O O6 0.336389 0.404514 0.130644
O O7 0.281184 0.402942 0.914772
O O8 0.749660 0.333900 0.748306
O O9 0.646990 0.304852 0.894834
O O10 0.884419 0.857814 0.316058
O O11 0.877027 0.795333 0.506128
O O12 0.000000 0.828804 0.424023
O O13 0.146487 0.292490 0.630684
O O14 0.250000 0.750000 0.998062
#
# Coordination Sequence:
#
# PCOD8185956 Si02
#       6
#    16  16  16  16  16  16
#     4  10  21  37  58  87 122 158 198 243 300 360
#     4   9  17  32  60  92 119 146 190 251 297 342
#     4  10  18  35  61  92 120 150 193 251 305 349
#     4  12  26  41  58  85 121 163 204 247 304 372
#     4  10  21  36  55  87 119 154 198 244 302 358
#     4  11  22  37  62  88 119 156 203 253 306 358
#
# _framework density 19.491501
#
# number of rings (size 3 to 8) (size 9 to 14) (size 15 to 20)
#    0.000    1.667    3.333    2.500    4.667    2.333 
#    0.000    0.000    0.000    1.000    0.000    0.000 
#    0.000    0.000    0.000    0.000    0.000    0.000 
#
# Total GULP energy -297570.287804 kJ/mol
# GULP energy per Si atom -12398.761992 kJ/mol
# Density = 1.944714 g / cm^3
# Si number density = 19.491501 Si / 1000 Ang^3
#
#
#
# Elastic Constant Matrix: (Units=GPa)
#
#
# Indices 1 2 3 4 5 6 
#
# 1 64.2527 21.1832 13.7312 0.0000 0.0000 0.0000
# 2 21.1832 106.8469 33.2573 0.0000 0.0000 0.0000
# 3 13.7312 33.2573 102.4464 0.0000 0.0000 0.0000
# 4 0.0000 0.0000 0.0000 26.0916 0.0000 0.0000
# 5 0.0000 0.0000 0.0000 0.0000 3.6901 0.0000
# 6 0.0000 0.0000 0.0000 0.0000 0.0000 11.9277
#
#
#
# Elastic Compliance Matrix: (Units=1/GPa)
#
#
# Indices 1 2 3 4 5 6 
#
# 1 0.016807 -0.002927 -0.001303 0.000000 0.000000 0.000000
# 2 -0.002927 0.010921 -0.003153 0.000000 0.000000 0.000000
# 3 -0.001303 -0.003153 0.010959 0.000000 0.000000 0.000000
# 4 0.000000 0.000000 0.000000 0.038326 0.000000 0.000000
# 5 0.000000 0.000000 0.000000 0.000000 0.270999 0.000000
# 6 0.000000 0.000000 0.000000 0.000000 0.000000 0.083839
#
#
# Mechanical properties :
#
#
# Convention : Reuss Voigt Hill
#
# Bulk Modulus (GPa) = 41.80153 45.54326 43.67239
# Shear Modulus (GPa) = 10.99894 22.03348 16.51621
#
# Velocity S-wave (km/s) = 2.37806 3.36581 2.91409
# Velocity P-wave (km/s) = 5.38821 6.20656 5.81181
#
# Compressibility (1/GPa) = 0.02392257
#
# Stress axis : x y z
#
# Youngs Moduli (GPa) = 59.49973 91.56828 91.24632
#
# Poissons Ratio (x) = 0.26799 0.11886
# Poissons Ratio (y) = 0.17413 0.28770
# Poissons Ratio (z) = 0.07750 0.28871
#
# Static dielectric constant tensor:
#      x y z
#    x 3.004990 0.000000 0.000000 
#    y 0.000000 4.056610 0.000000 
#    z 0.000000 0.000000 3.818330 
# 
# 
# High freq. dielectric constant tensor:
#      x y z
#    x 1.696990 0.000000 0.000000 
#    y 0.000000 1.775950 0.000000 
#    z 0.000000 0.000000 1.776960 
# 
# From -- ./inp_files/8809.got.cif
#   From: 2010.03.12/outbox.cif.g09.slc.cpg/sg42_5_cif.got.tgz:8809.got - 2010.04.14 02:04:31.
