data_PCOD8185887
_publ_section_title
;
Structure prediction by ZEFSAII (Michael W. Deem and Ramdas Pophale) SiO2 
 PCOD8185887
Probable space group: F M M 2
;
_chemical_formula_sum "Si O2"
_cell_formula_units_Z 128
_cell_length_a 16.456542
_cell_length_b 17.828003
_cell_length_c 22.366767
_cell_angle_alpha 90.000000
_cell_angle_beta 90.000000
_cell_angle_gamma 90.000000
_cell_volume 6562.124936
_symmetry_space_group_name_H-M "F M M 2"
_symmetry_group_IT_number 42
_symmetry_cell_setting 'orthorhombic'
loop_
_space_group_symop_operation_xyz
x,y,z
-x,-y,z
-x,y,z
x,-y,z
x,1/2+y,1/2+z
-x,1/2-y,1/2+z
-x,1/2+y,1/2+z
x,1/2-y,1/2+z
1/2+x,y,1/2+z
1/2-x,-y,1/2+z
1/2-x,y,1/2+z
1/2+x,-y,1/2+z
1/2+x,1/2+y,z
1/2-x,1/2-y,z
1/2-x,1/2+y,z
1/2+x,1/2-y,z
loop_
_atom_site_type_symbol
_atom_site_label
_atom_site_fract_x
_atom_site_fract_y
_atom_site_fract_z
Si Si1 0.878355 0.658817 0.220160
Si Si2 0.838432 0.777412 0.420670
Si Si3 0.592918 0.316301 0.165845
Si Si4 0.735216 0.584699 0.372474
Si Si5 0.090202 0.850761 0.855898
Si Si6 0.589475 0.081005 0.104423
Si Si7 0.902594 0.231051 0.549998
Si Si8 0.286205 0.913672 0.733627
O O1 0.896421 0.745606 0.209198
O O2 0.910658 0.638333 0.285179
O O3 0.922983 0.604970 0.173353
O O4 0.783350 0.642621 0.212232
O O5 0.750000 0.750000 0.402479
O O6 0.829856 0.867109 0.411666
O O7 0.900349 0.736975 0.374744
O O8 0.862732 0.750671 0.486798
O O9 0.500000 0.340209 0.161183
O O10 0.624376 0.293360 0.099010
O O11 0.636326 0.387900 0.195188
O O12 0.724009 0.500000 0.394233
O O13 0.831585 0.604431 0.382289
O O14 0.704938 0.595541 0.304651
O O15 0.000000 0.878461 0.878658
O O16 0.500000 0.070711 0.077194
O O17 0.633063 0.149323 0.069535
O O18 0.635605 0.000000 0.098618
O O19 0.000000 0.228516 0.545465
O O20 0.266641 0.000000 0.717686
#
# Coordination Sequence:
#
# PCOD8185887 Si02
#       8
#    16  16  16  16  16  16  16  16
#     4  10  18  31  50  77 105 133 171 213 260 309
#     4  10  20  34  53  75 100 135 178 222 265 308
#     4  10  20  34  54  77 103 137 175 216 260 308
#     4   9  20  36  52  77 111 141 172 214 263 315
#     4  10  19  32  54  79 103 137 179 220 263 310
#     4   9  17  29  46  72 105 133 160 203 258 314
#     4   9  19  34  51  73 100 133 176 221 261 305
#     4  10  20  34  53  78 110 142 169 206 258 315
#
# _framework density 19.505877000000002
#
# number of rings (size 3 to 8) (size 9 to 14) (size 15 to 20)
#    0.000    2.375    0.000    3.750    0.000    5.500 
#    0.000    0.625    0.000    7.125    0.000    3.500 
#    0.000    0.000    0.000    0.000    0.000    0.000 
#
# Total GULP energy -396436.039934 kJ/mol
# GULP energy per Si atom -12388.626248 kJ/mol
# Density = 1.946148 g / cm^3
# Si number density = 19.505877 Si / 1000 Ang^3
#
#
#
# Elastic Constant Matrix: (Units=GPa)
#
#
# Indices 1 2 3 4 5 6 
#
# 1 65.9543 21.5690 27.5065 0.0000 0.0000 0.0000
# 2 21.5690 76.2107 21.4431 0.0000 0.0000 0.0000
# 3 27.5065 21.4431 59.7742 0.0000 0.0000 0.0000
# 4 0.0000 0.0000 0.0000 19.8586 0.0000 0.0000
# 5 0.0000 0.0000 0.0000 0.0000 27.4597 0.0000
# 6 0.0000 0.0000 0.0000 0.0000 0.0000 21.9362
#
#
#
# Elastic Compliance Matrix: (Units=1/GPa)
#
#
# Indices 1 2 3 4 5 6 
#
# 1 0.019494 -0.003329 -0.007776 0.000000 0.000000 0.000000
# 2 -0.003329 0.015163 -0.003908 0.000000 0.000000 0.000000
# 3 -0.007776 -0.003908 0.021710 0.000000 0.000000 0.000000
# 4 0.000000 0.000000 0.000000 0.050356 0.000000 0.000000
# 5 0.000000 0.000000 0.000000 0.000000 0.036417 0.000000
# 6 0.000000 0.000000 0.000000 0.000000 0.000000 0.045587
#
#
# Mechanical properties :
#
#
# Convention : Reuss Voigt Hill
#
# Bulk Modulus (GPa) = 37.96379 38.10850 38.03615
# Shear Modulus (GPa) = 21.97485 22.61229 22.29357
#
# Velocity S-wave (km/s) = 3.36009 3.40848 3.38437
# Velocity P-wave (km/s) = 5.87866 5.92196 5.90035
#
# Compressibility (1/GPa) = 0.02634089
#
# Stress axis : x y z
#
# Youngs Moduli (GPa) = 51.29825 65.94924 46.06205
#
# Poissons Ratio (x) = 0.21955 0.35819
# Poissons Ratio (y) = 0.17078 0.17999
# Poissons Ratio (z) = 0.39891 0.25770
#
# Static dielectric constant tensor:
#      x y z
#    x 3.513100 0.000000 0.000000 
#    y 0.000000 3.668360 0.000000 
#    z 0.000000 0.000000 3.405810 
# 
# 
# High freq. dielectric constant tensor:
#      x y z
#    x 1.746790 0.000000 0.000000 
#    y 0.000000 1.749950 0.000000 
#    z 0.000000 0.000000 1.745550 
# 
# From -- ./inp_files/29998.got.cif
#   From: 2010.03.12/outbox.cif.g09.slc.cpg/sg42_15_cif.got.tgz:29998.got - 2010.04.14 02:04:31.
