data_PCOD8185293
_publ_section_title
;
Structure prediction by ZEFSAII (Michael W. Deem and Ramdas Pophale) SiO2 
 PCOD8185293
Probable space group: A B A 2
;
_chemical_formula_sum "Si O2"
_cell_formula_units_Z 64
_cell_length_a 15.818594
_cell_length_b 24.072237
_cell_length_c 7.834269
_cell_angle_alpha 90.000000
_cell_angle_beta 90.000000
_cell_angle_gamma 90.000000
_cell_volume 2983.203018
_symmetry_space_group_name_H-M "A B A 2"
_symmetry_group_IT_number 41
_symmetry_cell_setting 'orthorhombic'
loop_
_space_group_symop_operation_xyz
x,y,z
-x,-y,z
1/2-x,y,1/2+z
1/2+x,-y,1/2+z
x,1/2+y,1/2+z
-x,1/2-y,1/2+z
1/2-x,1/2+y,z
1/2+x,1/2-y,z
loop_
_atom_site_type_symbol
_atom_site_label
_atom_site_fract_x
_atom_site_fract_y
_atom_site_fract_z
Si Si1 0.625339 0.540191 0.397600
Si Si2 0.561609 0.418200 0.415433
Si Si3 0.078770 0.183461 0.189417
Si Si4 0.232811 0.908914 0.101437
Si Si5 0.727211 0.786575 0.458667
Si Si6 0.518880 0.217416 0.356217
Si Si7 0.374718 0.169281 0.154905
Si Si8 0.798365 0.673977 0.335974
O O1 0.611092 0.474810 0.384357
O O2 0.538503 0.572845 0.429676
O O3 0.687156 0.551823 0.557513
O O4 0.665409 0.559526 0.218308
O O5 0.582639 0.380175 0.249534
O O6 0.595210 0.391807 0.594472
O O7 0.036665 0.216185 0.350831
O O8 0.170903 0.208362 0.133312
O O9 0.016489 0.191681 0.028964
O O10 0.256952 0.846138 0.160756
O O11 0.193105 0.887326 0.925279
O O12 0.685993 0.829115 0.321609
O O13 0.823113 0.805534 0.494687
O O14 0.734018 0.722376 0.401983
O O15 0.455493 0.206721 0.198262
O O16 0.606755 0.191017 0.305453
#
# Coordination Sequence:
#
# PCOD8185293 Si02
#       8
#     8   8   8   8   8   8   8   8
#     4  10  24  43  64  89 117 159 218 270 313 358
#     4  11  23  43  64  87 125 165 207 266 317 368
#     4  11  23  37  60  90 128 168 203 248 313 381
#     4  10  22  39  64  89 114 158 207 257 310 359
#     4  11  23  38  58  95 130 165 202 245 311 393
#     4  11  22  36  58  91 123 161 204 245 305 388
#     4  11  23  38  60  87 124 165 203 248 313 383
#     4  11  20  36  60  87 123 154 196 253 304 364
#
# _framework density 21.453451000000001
#
# number of rings (size 3 to 8) (size 9 to 14) (size 15 to 20)
#    0.000    1.250    0.000    6.750    0.000    8.000 
#    0.000    3.750    0.000   13.500    0.000    0.000 
#    0.000    0.000    0.000    0.000    0.000    0.000 
#
# Total GULP energy -396528.961950 kJ/mol
# GULP energy per Si atom -12391.530061 kJ/mol
# Density = 2.140462 g / cm^3
# Si number density = 21.453451 Si / 1000 Ang^3
#
#
#
# Elastic Constant Matrix: (Units=GPa)
#
#
# Indices 1 2 3 4 5 6 
#
# 1 130.3090 64.7741 41.3333 0.0000 0.0000 0.0000
# 2 64.7741 137.7940 53.7029 0.0000 0.0000 0.0000
# 3 41.3333 53.7029 76.5705 0.0000 0.0000 0.0000
# 4 0.0000 0.0000 0.0000 34.4573 0.0000 0.0000
# 5 0.0000 0.0000 0.0000 0.0000 42.9463 0.0000
# 6 0.0000 0.0000 0.0000 0.0000 0.0000 30.9104
#
#
#
# Elastic Compliance Matrix: (Units=1/GPa)
#
#
# Indices 1 2 3 4 5 6 
#
# 1 0.010503 -0.003754 -0.003037 0.000000 0.000000 0.000000
# 2 -0.003754 0.011329 -0.005919 0.000000 0.000000 0.000000
# 3 -0.003037 -0.005919 0.018851 0.000000 0.000000 0.000000
# 4 0.000000 0.000000 0.000000 0.029021 0.000000 0.000000
# 5 0.000000 0.000000 0.000000 0.000000 0.023285 0.000000
# 6 0.000000 0.000000 0.000000 0.000000 0.000000 0.032352
#
#
# Mechanical properties :
#
#
# Convention : Reuss Voigt Hill
#
# Bulk Modulus (GPa) = 65.51862 73.81046 69.66454
# Shear Modulus (GPa) = 32.08258 33.98702 33.03480
#
# Velocity S-wave (km/s) = 3.87130 3.98455 3.92833
# Velocity P-wave (km/s) = 7.11258 7.45979 7.28825
#
# Compressibility (1/GPa) = 0.01526284
#
# Stress axis : x y z
#
# Youngs Moduli (GPa) = 95.20800 88.27193 53.04859
#
# Poissons Ratio (x) = 0.33135 0.16111
# Poissons Ratio (y) = 0.35739 0.31400
# Poissons Ratio (z) = 0.28915 0.52249
#
# Static dielectric constant tensor:
#      x y z
#    x 4.083040 0.000000 0.000000 
#    y 0.000000 3.729710 0.000000 
#    z 0.000000 0.000000 4.059270 
# 
# 
# High freq. dielectric constant tensor:
#      x y z
#    x 1.859100 0.000000 0.000000 
#    y 0.000000 1.824080 0.000000 
#    z 0.000000 0.000000 1.857450 
# 
# From -- ./inp_files/3248.got.cif
#   From: 2010.03.12/outbox.cif.g09.slc.cpg/sg41_2_cif.got.tgz:3248.got - 2010.04.14 01:55:53.
