data_PCOD8185914
_publ_section_title
;
Structure prediction by ZEFSAII (Michael W. Deem and Ramdas Pophale) SiO2 
 PCOD8185914
Probable space group: F M M 2
;
_chemical_formula_sum "Si O2"
_cell_formula_units_Z 104
_cell_length_a 21.574117
_cell_length_b 25.567722
_cell_length_c 10.357671
_cell_angle_alpha 90.000000
_cell_angle_beta 90.000000
_cell_angle_gamma 90.000000
_cell_volume 5713.301949
_symmetry_space_group_name_H-M "F M M 2"
_symmetry_group_IT_number 42
_symmetry_cell_setting 'orthorhombic'
loop_
_space_group_symop_operation_xyz
x,y,z
-x,-y,z
-x,y,z
x,-y,z
x,1/2+y,1/2+z
-x,1/2-y,1/2+z
-x,1/2+y,1/2+z
x,1/2-y,1/2+z
1/2+x,y,1/2+z
1/2-x,-y,1/2+z
1/2-x,y,1/2+z
1/2+x,-y,1/2+z
1/2+x,1/2+y,z
1/2-x,1/2-y,z
1/2-x,1/2+y,z
1/2+x,1/2-y,z
loop_
_atom_site_type_symbol
_atom_site_label
_atom_site_fract_x
_atom_site_fract_y
_atom_site_fract_z
Si Si1 0.125543 0.901380 0.638700
Si Si2 0.235633 0.441135 0.296605
Si Si3 0.571471 0.000000 0.713816
Si Si4 0.926321 0.794503 0.330814
Si Si5 0.568620 0.000000 0.252529
Si Si6 0.834272 0.000000 0.979387
Si Si7 0.573036 0.209907 0.124820
Si Si8 0.130568 0.904088 0.338873
O O1 0.189292 0.905447 0.716181
O O2 0.095724 0.846042 0.674975
O O3 0.140222 0.904295 0.489722
O O4 0.078091 0.948040 0.668086
O O5 0.240083 0.500000 0.234163
O O6 0.209339 0.448825 0.445949
O O7 0.301692 0.414142 0.281305
O O8 0.627740 0.000000 0.610317
O O9 0.581217 0.051613 0.798821
O O10 0.500000 0.000000 0.660624
O O11 0.905778 0.778170 0.476824
O O12 0.901337 0.752798 0.226073
O O13 0.895310 0.849009 0.289181
O O14 0.000000 0.801340 0.324747
O O15 0.614276 0.000000 0.369921
O O16 0.500000 0.000000 0.309079
O O17 0.500000 0.210005 0.131339
#
# Coordination Sequence:
#
# PCOD8185914 Si02
#       8
#    16  16   8  16   8   8  16  16
#     4  10  20  35  56  84 106 141 193 231 274 332
#     4   9  20  36  56  77 109 152 193 226 269 330
#     4  12  23  34  52  85 123 150 179 233 302 346
#     4   9  19  38  58  83 112 146 189 236 288 344
#     4  10  18  32  53  80 111 140 178 228 274 327
#     4   8  20  36  49  73 115 152 181 219 264 351
#     4   9  18  36  59  82 112 145 183 232 287 342
#     4  11  22  34  57  82 113 147 186 236 282 341
#
# _framework density 18.203133999999999
#
# number of rings (size 3 to 8) (size 9 to 14) (size 15 to 20)
#    0.462    1.846    1.538    1.615    2.154    2.462 
#    5.538    0.769    0.000    3.692    0.000    0.000 
#    0.000    0.000    0.000    0.000    0.000    0.000 
#
# Total GULP energy -322155.155717 kJ/mol
# GULP energy per Si atom -12390.582912 kJ/mol
# Density = 1.816170 g / cm^3
# Si number density = 18.203134 Si / 1000 Ang^3
#
#
#
# Elastic Constant Matrix: (Units=GPa)
#
#
# Indices 1 2 3 4 5 6 
#
# 1 59.5256 29.5203 11.8228 0.0000 0.0000 -0.0001
# 2 29.5203 141.9696 57.4663 0.0000 0.0000 -0.0001
# 3 11.8228 57.4663 60.6982 0.0000 -0.0001 0.0010
# 4 0.0000 0.0000 0.0000 15.9117 0.0000 -0.0005
# 5 0.0000 0.0000 -0.0001 0.0000 11.6210 -0.0005
# 6 -0.0001 -0.0001 0.0010 -0.0005 -0.0005 -163.7849
#
#
#
# Elastic Compliance Matrix: (Units=1/GPa)
#
#
# Indices 1 2 3 4 5 6 
#
# 1 0.018731 -0.003920 0.000063 0.000000 0.000000 0.000000
# 2 -0.003920 0.012241 -0.010825 0.000000 0.000000 0.000000
# 3 0.000063 -0.010825 0.026712 0.000000 0.000000 0.000000
# 4 0.000000 0.000000 0.000000 0.062847 0.000000 0.000000
# 5 0.000000 0.000000 0.000000 0.000000 0.086051 0.000000
# 6 0.000000 0.000000 0.000000 0.000000 0.000000 -0.006106
#
#
# Mechanical properties :
#
#
# Convention : Reuss Voigt Hill
#
# Bulk Modulus (GPa) = 35.31276 51.09025 43.20150
# Shear Modulus (GPa) = 20.89592 -16.35817 2.26887
#
# Velocity S-wave (km/s) = 3.39179 -3.00099 1.11764
# Velocity P-wave (km/s) = 5.89749 4.01494 5.04480
#
# Compressibility (1/GPa) = 0.02831838
#
# Stress axis : x y z
#
# Youngs Moduli (GPa) = 53.38693 81.69352 37.43675
#
# Poissons Ratio (x) = 0.32027 -0.00237
# Poissons Ratio (y) = 0.20930 0.40527
# Poissons Ratio (z) = -0.00337 0.88437
#
# Static dielectric constant tensor:
#      x y z
#    x 3.602360 0.000000 0.000000 
#    y 0.000000 3.686110 0.000000 
#    z 0.000000 0.000000 3.465080 
# 
# 
# High freq. dielectric constant tensor:
#      x y z
#    x 1.706420 0.000000 0.000000 
#    y 0.000000 1.693710 0.000000 
#    z 0.000000 0.000000 1.701920 
# 
# From -- ./inp_files/4277.got.cif
#   From: 2010.03.12/outbox.cif.g09.slc.cpg/sg42_3_cif.got.tgz:4277.got - 2010.04.14 02:04:31.
