data_PCOD8185071
_publ_section_title
;
Structure prediction by ZEFSAII (Michael W. Deem and Ramdas Pophale) SiO2 
 PCOD8185071
Probable space group: A B A 2
;
_chemical_formula_sum "Si O2"
_cell_formula_units_Z 56
_cell_length_a 16.516916
_cell_length_b 5.235695
_cell_length_c 29.847952
_cell_angle_alpha 90.000000
_cell_angle_beta 90.000000
_cell_angle_gamma 90.000000
_cell_volume 2581.177299
_symmetry_space_group_name_H-M "A B A 2"
_symmetry_group_IT_number 41
_symmetry_cell_setting 'orthorhombic'
loop_
_space_group_symop_operation_xyz
x,y,z
-x,-y,z
1/2-x,y,1/2+z
1/2+x,-y,1/2+z
x,1/2+y,1/2+z
-x,1/2-y,1/2+z
1/2-x,1/2+y,z
1/2+x,1/2-y,z
loop_
_atom_site_type_symbol
_atom_site_label
_atom_site_fract_x
_atom_site_fract_y
_atom_site_fract_z
Si Si1 0.206221 0.802356 0.666290
Si Si2 0.225156 0.773731 0.069550
Si Si3 0.201342 0.688427 0.895713
Si Si4 0.048653 0.248578 0.455648
Si Si5 0.055410 0.750410 0.723225
Si Si6 0.452671 0.248883 0.060979
Si Si7 0.802496 0.796525 0.293281
O O1 0.253762 0.558751 0.687004
O O2 0.215599 0.805970 0.612505
O O3 0.111472 0.786350 0.679014
O O4 0.256601 0.530399 0.040812
O O5 0.133169 0.753830 0.086011
O O6 0.229531 0.399151 0.904582
O O7 0.132252 0.756670 0.930366
O O8 0.169834 0.713206 0.844950
O O9 0.066402 0.241160 0.508428
O O10 0.000000 0.500000 0.442120
O O11 0.000000 0.000000 0.440166
O O12 0.114660 0.717255 0.765505
O O13 0.000000 0.500000 0.717395
O O14 0.000000 0.000000 0.729819
O O15 0.500000 0.500000 0.075618
O O16 0.500000 0.000000 0.077316
O O17 0.745461 0.555969 0.281864
#
# Coordination Sequence:
#
# PCOD8185071 Si02
#       7
#     8   8   8   8   8   8   8
#     4  10  21  41  60  80 112 148 184 226 284 342
#     4  10  21  38  59  83 109 146 187 228 284 340
#     4  10  21  36  57  86 115 150 195 233 271 328
#     4  10  21  36  56  82 118 154 184 231 289 330
#     4  12  24  38  60  89 114 145 190 237 280 335
#     4  10  21  38  58  84 114 148 190 235 280 332
#     4  10  21  39  60  82 116 155 188 230 280 331
#
# _framework density 21.695523999999999
#
# number of rings (size 3 to 8) (size 9 to 14) (size 15 to 20)
#    0.000    1.714    0.000    4.286    0.000    2.286 
#    0.000   17.143    0.000    0.000    0.000    0.000 
#    0.000    0.000    0.000    0.000    0.000    0.000 
#
# Total GULP energy -347139.699477 kJ/mol
# GULP energy per Si atom -12397.846410 kJ/mol
# Density = 2.164614 g / cm^3
# Si number density = 21.695524 Si / 1000 Ang^3
#
#
#
# Elastic Constant Matrix: (Units=GPa)
#
#
# Indices 1 2 3 4 5 6 
#
# 1 130.7401 66.6788 12.9844 0.0000 0.0000 0.0000
# 2 66.6788 200.6257 1.6320 0.0000 0.0000 0.0000
# 3 12.9844 1.6320 28.8692 0.0000 0.0000 0.0000
# 4 0.0000 0.0000 0.0000 30.6002 0.0000 0.0000
# 5 0.0000 0.0000 0.0000 0.0000 35.8227 0.0000
# 6 0.0000 0.0000 0.0000 0.0000 0.0000 44.5939
#
#
#
# Elastic Compliance Matrix: (Units=1/GPa)
#
#
# Indices 1 2 3 4 5 6 
#
# 1 0.009689 -0.003186 -0.004177 0.000000 0.000000 0.000000
# 2 -0.003186 0.006034 0.001092 0.000000 0.000000 0.000000
# 3 -0.004177 0.001092 0.036456 0.000000 0.000000 0.000000
# 4 0.000000 0.000000 0.000000 0.032680 0.000000 0.000000
# 5 0.000000 0.000000 0.000000 0.000000 0.027915 0.000000
# 6 0.000000 0.000000 0.000000 0.000000 0.000000 0.022425
#
#
# Mechanical properties :
#
#
# Convention : Reuss Voigt Hill
#
# Bulk Modulus (GPa) = 25.22971 58.09169 41.66070
# Shear Modulus (GPa) = 31.06481 40.79936 35.93209
#
# Velocity S-wave (km/s) = 3.78809 4.34123 4.07406
# Velocity P-wave (km/s) = 5.54861 7.20849 6.43232
#
# Compressibility (1/GPa) = 0.03963581
#
# Stress axis : x y z
#
# Youngs Moduli (GPa) = 103.21443 165.71593 27.43018
#
# Poissons Ratio (x) = 0.52798 0.11459
# Poissons Ratio (y) = 0.32885 -0.02995
# Poissons Ratio (z) = 0.43118 -0.18094
#
# Static dielectric constant tensor:
#      x y z
#    x 3.817620 0.000000 0.000000 
#    y 0.000000 5.033140 0.000000 
#    z 0.000000 0.000000 3.705000 
# 
# 
# High freq. dielectric constant tensor:
#      x y z
#    x 1.851680 0.000000 0.000000 
#    y 0.000000 1.888640 0.000000 
#    z 0.000000 0.000000 1.831580 
# 
# From -- ./inp_files/12733.got.cif
#   From: 2010.03.12/outbox.cif.g09.slc.cpg/sg41_7_cif.got.tgz:12733.got - 2010.04.14 01:55:53.
