data_PCOD8185084
_publ_section_title
;
Structure prediction by ZEFSAII (Michael W. Deem and Ramdas Pophale) SiO2 
 PCOD8185084
Probable space group: A B A 2
;
_chemical_formula_sum "Si O2"
_cell_formula_units_Z 56
_cell_length_a 4.951182
_cell_length_b 17.325745
_cell_length_c 31.528161
_cell_angle_alpha 90.000000
_cell_angle_beta 90.000000
_cell_angle_gamma 90.000000
_cell_volume 2704.577611
_symmetry_space_group_name_H-M "A B A 2"
_symmetry_group_IT_number 41
_symmetry_cell_setting 'orthorhombic'
loop_
_space_group_symop_operation_xyz
x,y,z
-x,-y,z
1/2-x,y,1/2+z
1/2+x,-y,1/2+z
x,1/2+y,1/2+z
-x,1/2-y,1/2+z
1/2-x,1/2+y,z
1/2+x,1/2-y,z
loop_
_atom_site_type_symbol
_atom_site_label
_atom_site_fract_x
_atom_site_fract_y
_atom_site_fract_z
Si Si1 0.500291 0.411112 0.394530
Si Si2 0.003506 0.590024 0.339964
Si Si3 0.500291 0.911112 0.625615
Si Si4 0.236658 0.202038 0.059330
Si Si5 0.236657 0.202038 0.460815
Si Si6 0.496495 0.090024 0.180182
Si Si7 0.521520 0.696544 0.760073
O O1 0.500000 0.500000 0.406967
O O2 0.696562 0.390255 0.355490
O O3 0.611526 0.369906 0.436293
O O4 0.200840 0.389336 0.378568
O O5 0.928359 0.642950 0.300543
O O6 0.000000 0.500000 0.326668
O O7 0.611527 0.869906 0.583852
O O8 0.200841 0.889336 0.641577
O O9 0.696563 0.890255 0.664655
O O10 0.500000 0.000000 0.613179
O O11 0.542305 0.225325 0.071133
O O12 0.250001 0.180026 0.010073
O O13 0.542304 0.225324 0.449012
O O14 0.571641 0.142950 0.219602
O O15 0.500000 0.000000 0.193477
O O16 0.722177 0.768945 0.760073
#
# Coordination Sequence:
#
# PCOD8185084 Si02
#       7
#     8   8   8   8   8   8   8
#     4  10  21  38  60  85 111 148 195 235 278 336
#     4  10  22  40  59  80 114 153 187 231 289 342
#     4  10  21  38  60  85 111 148 195 235 278 336
#     4  10  21  37  57  83 116 151 185 227 284 341
#     4  10  21  37  57  83 116 151 185 227 284 341
#     4  10  22  40  59  80 114 153 187 231 289 342
#     4  12  25  38  57  88 116 144 192 240 283 338
#
# _framework density 20.705634
#
# number of rings (size 3 to 8) (size 9 to 14) (size 15 to 20)
#    0.000    1.714    0.000    3.857    0.000    6.857 
#    0.000   14.286    0.000    0.000    0.000    0.000 
#    0.000    0.000    0.000    0.000    0.000    0.000 
#
# Total GULP energy -347110.102283 kJ/mol
# GULP energy per Si atom -12396.789367 kJ/mol
# Density = 2.065851 g / cm^3
# Si number density = 20.705634 Si / 1000 Ang^3
#
#
#
# Elastic Constant Matrix: (Units=GPa)
#
#
# Indices 1 2 3 4 5 6 
#
# 1 88.0794 27.9246 24.0689 0.0000 0.0000 0.0000
# 2 27.9246 85.2298 71.1803 0.0000 0.0000 0.0000
# 3 24.0689 71.1803 101.5241 0.0000 0.0000 0.0000
# 4 0.0000 0.0000 0.0000 15.5306 0.0000 0.0000
# 5 0.0000 0.0000 0.0000 0.0000 23.2242 0.0000
# 6 0.0000 0.0000 0.0000 0.0000 0.0000 32.0084
#
#
#
# Elastic Compliance Matrix: (Units=1/GPa)
#
#
# Indices 1 2 3 4 5 6 
#
# 1 0.012672 -0.003964 -0.000225 0.000000 0.000000 0.000000
# 2 -0.003964 0.029549 -0.019778 0.000000 0.000000 0.000000
# 3 -0.000225 -0.019778 0.023770 0.000000 0.000000 0.000000
# 4 0.000000 0.000000 0.000000 0.064389 0.000000 0.000000
# 5 0.000000 0.000000 0.000000 0.000000 0.043058 0.000000
# 6 0.000000 0.000000 0.000000 0.000000 0.000000 0.031242
#
#
# Mechanical properties :
#
#
# Convention : Reuss Voigt Hill
#
# Bulk Modulus (GPa) = 55.37891 57.90897 56.64394
# Shear Modulus (GPa) = 19.33248 24.26327 21.79788
#
# Velocity S-wave (km/s) = 3.05894 3.42690 3.24813
# Velocity P-wave (km/s) = 6.26738 6.60959 6.44075
#
# Compressibility (1/GPa) = 0.01805742
#
# Stress axis : x y z
#
# Youngs Moduli (GPa) = 78.91697 33.84188 42.07027
#
# Poissons Ratio (x) = 0.13414 0.00947
# Poissons Ratio (y) = 0.31280 0.83206
# Poissons Ratio (z) = 0.01776 0.66932
#
# Static dielectric constant tensor:
#      x y z
#    x 4.053940 0.000000 0.000000 
#    y 0.000000 3.625310 0.000000 
#    z 0.000000 0.000000 3.527250 
# 
# 
# High freq. dielectric constant tensor:
#      x y z
#    x 1.833540 0.000000 0.000000 
#    y 0.000000 1.802730 0.000000 
#    z 0.000000 0.000000 1.802940 
# 
# From -- ./inp_files/12627.got.cif
#   From: 2010.03.12/outbox.cif.g09.slc.cpg/sg41_7_cif.got.tgz:12627.got - 2010.04.14 01:55:53.
