data_PCOD8185567
_publ_section_title
;
Structure prediction by ZEFSAII (Michael W. Deem and Ramdas Pophale) SiO2 
 PCOD8185567
Probable space group: A B A 2
;
_chemical_formula_sum "Si O2"
_cell_formula_units_Z 56
_cell_length_a 13.861468
_cell_length_b 18.744352
_cell_length_c 8.971921
_cell_angle_alpha 90.000000
_cell_angle_beta 90.000000
_cell_angle_gamma 90.000000
_cell_volume 2331.122514
_symmetry_space_group_name_H-M "A B A 2"
_symmetry_group_IT_number 41
_symmetry_cell_setting 'orthorhombic'
loop_
_space_group_symop_operation_xyz
x,y,z
-x,-y,z
1/2-x,y,1/2+z
1/2+x,-y,1/2+z
x,1/2+y,1/2+z
-x,1/2-y,1/2+z
1/2-x,1/2+y,z
1/2+x,1/2-y,z
loop_
_atom_site_type_symbol
_atom_site_label
_atom_site_fract_x
_atom_site_fract_y
_atom_site_fract_z
Si Si1 0.363115 0.949035 0.382850
Si Si2 0.862399 0.930256 0.381610
Si Si3 0.670580 0.074342 0.730805
Si Si4 0.774611 0.858120 0.654483
Si Si5 0.899742 0.281198 0.597971
Si Si6 0.069264 0.106336 0.863837
Si Si7 0.975073 0.674418 0.857574
O O1 0.341168 0.938668 0.556185
O O2 0.282292 0.916836 0.274573
O O3 0.459069 0.910069 0.323706
O O4 0.369115 0.033753 0.359719
O O5 0.796211 0.915221 0.525250
O O6 0.812090 0.892786 0.244252
O O7 0.966052 0.894909 0.413134
O O8 0.874180 0.013035 0.338756
O O9 0.616697 0.148274 0.763900
O O10 0.719546 0.784233 0.603935
O O11 0.873310 0.841798 0.746881
O O12 0.931685 0.356624 0.524293
O O13 0.936220 0.215584 0.500852
O O14 0.953878 0.275496 0.758012
#
# Coordination Sequence:
#
# PCOD8185567 Si02
#       7
#     8   8   8   8   8   8   8
#     4  11  25  42  77 106 148 182 246 307 381 436
#     4  11  23  41  74 105 142 190 244 305 371 452
#     4  12  23  47  69 112 145 189 240 315 377 438
#     4  11  22  43  74 104 141 191 247 299 364 446
#     4  11  24  50  69 103 141 202 248 297 360 452
#     4  11  23  45  75 102 148 199 235 303 371 448
#     4  11  27  45  72 100 145 192 252 300 367 436
#
# _framework density 24.022763000000001
#
# number of rings (size 3 to 8) (size 9 to 14) (size 15 to 20)
#    0.000    0.857    4.286    3.000    4.000    1.143 
#    7.714    0.000    0.000    0.000    0.000    0.000 
#    0.000    0.000    0.000    0.000    0.000    0.000 
#
# Total GULP energy -347055.749435 kJ/mol
# GULP energy per Si atom -12394.848194 kJ/mol
# Density = 2.396809 g / cm^3
# Si number density = 24.022763 Si / 1000 Ang^3
#
#
#
# Elastic Constant Matrix: (Units=GPa)
#
#
# Indices 1 2 3 4 5 6 
#
# 1 167.6922 47.0502 53.7505 0.0000 0.0000 0.0000
# 2 47.0502 37.9585 19.9563 0.0000 0.0000 0.0000
# 3 53.7505 19.9563 94.7008 0.0000 0.0000 0.0000
# 4 0.0000 0.0000 0.0000 28.7912 0.0000 0.0000
# 5 0.0000 0.0000 0.0000 0.0000 41.3912 0.0000
# 6 0.0000 0.0000 0.0000 0.0000 0.0000 32.4007
#
#
#
# Elastic Compliance Matrix: (Units=1/GPa)
#
#
# Indices 1 2 3 4 5 6 
#
# 1 0.010063 -0.010650 -0.003467 0.000000 0.000000 0.000000
# 2 -0.010650 0.040899 -0.002574 0.000000 0.000000 0.000000
# 3 -0.003467 -0.002574 0.013070 0.000000 0.000000 0.000000
# 4 0.000000 0.000000 0.000000 0.034733 0.000000 0.000000
# 5 0.000000 0.000000 0.000000 0.000000 0.024160 0.000000
# 6 0.000000 0.000000 0.000000 0.000000 0.000000 0.030863
#
#
# Mechanical properties :
#
#
# Convention : Reuss Voigt Hill
#
# Bulk Modulus (GPa) = 32.62720 60.20729 46.41724
# Shear Modulus (GPa) = 25.33106 32.48961 28.91034
#
# Velocity S-wave (km/s) = 3.25077 3.68156 3.47285
# Velocity P-wave (km/s) = 5.26320 6.57182 5.95357
#
# Compressibility (1/GPa) = 0.03064927
#
# Stress axis : x y z
#
# Youngs Moduli (GPa) = 99.37568 24.45056 76.51209
#
# Poissons Ratio (x) = 0.26040 0.26528
# Poissons Ratio (y) = 1.05837 0.19692
# Poissons Ratio (z) = 0.34455 0.06293
#
# Static dielectric constant tensor:
#      x y z
#    x 4.660550 0.000000 0.000000 
#    y 0.000000 4.151770 0.000000 
#    z 0.000000 0.000000 4.299840 
# 
# 
# High freq. dielectric constant tensor:
#      x y z
#    x 1.972130 0.000000 0.000000 
#    y 0.000000 1.924010 0.000000 
#    z 0.000000 0.000000 1.956010 
# 
# From -- ./inp_files/2697.got.cif
#   From: 2010.03.12/outbox.cif.g09.slc.cpg/sg41_2_cif.got.tgz:2697.got - 2010.04.14 01:55:53.
