data_PCOD8185765
_publ_section_title
;
Structure prediction by ZEFSAII (Michael W. Deem and Ramdas Pophale) SiO2 
 PCOD8185765
Probable space group: F M M 2
;
_chemical_formula_sum "Si O2"
_cell_formula_units_Z 96
_cell_length_a 19.663884
_cell_length_b 8.716277
_cell_length_c 31.170966
_cell_angle_alpha 90.000000
_cell_angle_beta 90.000000
_cell_angle_gamma 90.000000
_cell_volume 5342.574520
_symmetry_space_group_name_H-M "F M M 2"
_symmetry_group_IT_number 42
_symmetry_cell_setting 'orthorhombic'
loop_
_space_group_symop_operation_xyz
x,y,z
-x,-y,z
-x,y,z
x,-y,z
x,1/2+y,1/2+z
-x,1/2-y,1/2+z
-x,1/2+y,1/2+z
x,1/2-y,1/2+z
1/2+x,y,1/2+z
1/2-x,-y,1/2+z
1/2-x,y,1/2+z
1/2+x,-y,1/2+z
1/2+x,1/2+y,z
1/2-x,1/2-y,z
1/2-x,1/2+y,z
1/2+x,1/2-y,z
loop_
_atom_site_type_symbol
_atom_site_label
_atom_site_fract_x
_atom_site_fract_y
_atom_site_fract_z
Si Si1 0.425057 0.818303 0.112340
Si Si2 0.323987 0.321173 0.447583
Si Si3 0.174595 0.681610 0.363991
Si Si4 0.175820 0.680218 0.777370
Si Si5 0.676256 0.179296 0.041729
Si Si6 0.920657 0.322381 0.209206
O O1 0.500000 0.749071 0.103613
O O2 0.373188 0.747291 0.077580
O O3 0.401573 0.777247 0.160457
O O4 0.428739 0.000000 0.107279
O O5 0.318871 0.500000 0.437038
O O6 0.250000 0.250000 0.451059
O O7 0.363653 0.239085 0.407715
O O8 0.357258 0.290843 0.494433
O O9 0.174682 0.500000 0.362052
O O10 0.250000 0.750000 0.365963
O O11 0.141589 0.748107 0.320488
O O12 0.184335 0.500000 0.783398
O O13 0.250000 0.750000 0.767873
O O14 0.125052 0.715013 0.738739
O O15 0.750000 0.250000 0.047048
O O16 0.685102 0.000000 0.049431
O O17 0.903573 0.500000 0.218278
O O18 0.000000 0.290212 0.218041
#
# Coordination Sequence:
#
# PCOD8185765 Si02
#       6
#    16  16  16  16  16  16
#     4   8  15  30  51  71  92 123 161 195 230 279
#     4   9  15  24  39  62  92 123 154 190 232 278
#     4  10  17  27  44  66  93 124 158 194 236 285
#     4  11  21  33  50  73 101 128 160 202 245 289
#     4   9  17  28  45  70  97 124 156 194 235 276
#     4   9  18  34  54  73  96 128 164 200 242 293
#
# _framework density 17.968864
#
# number of rings (size 3 to 8) (size 9 to 14) (size 15 to 20)
#    0.000    2.667    0.000    6.500    0.000    1.667 
#    0.000    2.500    0.000    2.500    0.000    2.333 
#    0.000    0.000    0.000    0.000    0.000    0.000 
#
# Total GULP energy -297386.468178 kJ/mol
# GULP energy per Si atom -12391.102841 kJ/mol
# Density = 1.792797 g / cm^3
# Si number density = 17.968864 Si / 1000 Ang^3
#
#
#
# Elastic Constant Matrix: (Units=GPa)
#
#
# Indices 1 2 3 4 5 6 
#
# 1 55.1538 28.1849 62.8912 0.0000 0.0000 0.0000
# 2 28.1849 104.7078 57.3574 0.0000 0.0000 0.0000
# 3 62.8912 57.3574 169.9654 0.0000 0.0000 0.0000
# 4 0.0000 0.0000 0.0000 15.9960 0.0000 0.0000
# 5 0.0000 0.0000 0.0000 0.0000 4.0867 0.0000
# 6 0.0000 0.0000 0.0000 0.0000 0.0000 16.2593
#
#
#
# Elastic Compliance Matrix: (Units=1/GPa)
#
#
# Indices 1 2 3 4 5 6 
#
# 1 0.031934 -0.002605 -0.010937 0.000000 0.000000 0.000000
# 2 -0.002605 0.011929 -0.003062 0.000000 0.000000 0.000000
# 3 -0.010937 -0.003062 0.010964 0.000000 0.000000 0.000000
# 4 0.000000 0.000000 0.000000 0.062516 0.000000 0.000000
# 5 0.000000 0.000000 0.000000 0.000000 0.244697 0.000000
# 6 0.000000 0.000000 0.000000 0.000000 0.000000 0.061503
#
#
# Mechanical properties :
#
#
# Convention : Reuss Voigt Hill
#
# Bulk Modulus (GPa) = 46.25542 69.63266 57.94404
# Shear Modulus (GPa) = 10.77688 19.36131 15.06910
#
# Velocity S-wave (km/s) = 2.45164 3.28608 2.89904
# Velocity P-wave (km/s) = 5.81480 7.29614 6.59718
#
# Compressibility (1/GPa) = 0.02161909
#
# Stress axis : x y z
#
# Youngs Moduli (GPa) = 31.31478 83.83174 91.20876
#
# Poissons Ratio (x) = 0.21834 0.99758
# Poissons Ratio (y) = 0.08156 0.27926
# Poissons Ratio (z) = 0.34250 0.25667
#
# Static dielectric constant tensor:
#      x y z
#    x 3.023390 0.000000 0.000000 
#    y 0.000000 3.193440 0.000000 
#    z 0.000000 0.000000 4.377500 
# 
# 
# High freq. dielectric constant tensor:
#      x y z
#    x 1.641650 0.000000 0.000000 
#    y 0.000000 1.687140 0.000000 
#    z 0.000000 0.000000 1.723520 
# 
# From -- ./inp_files/33180.got.cif
#   From: 2010.03.12/outbox.cif.g09.slc.cpg/sg42_17_cif.got.tgz:33180.got - 2010.04.14 02:04:31.
