data_PCOD8185649
_publ_section_title
;
Structure prediction by ZEFSAII (Michael W. Deem and Ramdas Pophale) SiO2 
 PCOD8185649
Probable space group: A B A 2
;
_chemical_formula_sum "Si O2"
_cell_formula_units_Z 32
_cell_length_a 9.610965
_cell_length_b 9.033396
_cell_length_c 16.847987
_cell_angle_alpha 90.000000
_cell_angle_beta 90.000000
_cell_angle_gamma 90.000000
_cell_volume 1462.736382
_symmetry_space_group_name_H-M "A B A 2"
_symmetry_group_IT_number 41
_symmetry_cell_setting 'orthorhombic'
loop_
_space_group_symop_operation_xyz
x,y,z
-x,-y,z
1/2-x,y,1/2+z
1/2+x,-y,1/2+z
x,1/2+y,1/2+z
-x,1/2-y,1/2+z
1/2-x,1/2+y,z
1/2+x,1/2-y,z
loop_
_atom_site_type_symbol
_atom_site_label
_atom_site_fract_x
_atom_site_fract_y
_atom_site_fract_z
Si Si1 0.375382 0.896643 0.251830
Si Si2 0.141064 0.084581 0.171738
Si Si3 0.096413 0.816680 0.933203
Si Si4 0.304706 0.106549 0.496573
O O1 0.392992 0.732633 0.219038
O O2 0.382276 0.880494 0.345921
O O3 0.500000 0.000000 0.220665
O O4 0.233072 0.974514 0.225193
O O5 0.213900 0.136767 0.090175
O O6 0.000000 0.000000 0.150236
O O7 0.167090 0.658077 0.949011
O O8 0.935042 0.807191 0.957008
O O9 0.177825 0.930791 0.989913
#
# Coordination Sequence:
#
# PCOD8185649 Si02
#       4
#     8   8   8   8
#     4  12  26  45  71 101 139 181 229 284 343 406
#     4  12  26  45  71 101 139 181 229 284 343 406
#     4  11  24  46  68  97 136 175 228 279 335 407
#     4  11  24  46  68  97 136 175 228 279 335 407
#
# _framework density 21.876806999999999
#
# number of rings (size 3 to 8) (size 9 to 14) (size 15 to 20)
#    0.000    0.500    5.000    4.500    7.000    1.000 
#    0.000    0.000    0.000    0.000    0.000    0.000 
#    0.000    0.000    0.000    0.000    0.000    0.000 
#
# Total GULP energy -198457.453788 kJ/mol
# GULP energy per Si atom -12403.590862 kJ/mol
# Density = 2.182701 g / cm^3
# Si number density = 21.876807 Si / 1000 Ang^3
#
#
#
# Elastic Constant Matrix: (Units=GPa)
#
#
# Indices 1 2 3 4 5 6 
#
# 1 46.2098 23.6116 27.5313 0.0000 0.0000 0.0000
# 2 23.6116 87.6594 8.8315 0.0000 0.0000 0.0000
# 3 27.5313 8.8315 122.3268 0.0000 0.0000 0.0000
# 4 0.0000 0.0000 0.0000 30.6259 0.0000 0.0000
# 5 0.0000 0.0000 0.0000 0.0000 26.7741 0.0000
# 6 0.0000 0.0000 0.0000 0.0000 0.0000 41.3852
#
#
#
# Elastic Compliance Matrix: (Units=1/GPa)
#
#
# Indices 1 2 3 4 5 6 
#
# 1 0.028868 -0.007173 -0.005979 0.000000 0.000000 0.000000
# 2 -0.007173 0.013274 0.000656 0.000000 0.000000 0.000000
# 3 -0.005979 0.000656 0.009473 0.000000 0.000000 0.000000
# 4 0.000000 0.000000 0.000000 0.032652 0.000000 0.000000
# 5 0.000000 0.000000 0.000000 0.000000 0.037349 0.000000
# 6 0.000000 0.000000 0.000000 0.000000 0.000000 0.024163
#
#
# Mechanical properties :
#
#
# Convention : Reuss Voigt Hill
#
# Bulk Modulus (GPa) = 37.56272 41.79387 39.67829
# Shear Modulus (GPa) = 27.83230 32.83848 30.33539
#
# Velocity S-wave (km/s) = 3.57070 3.87856 3.72781
# Velocity P-wave (km/s) = 5.84870 6.26125 6.05849
#
# Compressibility (1/GPa) = 0.02662214
#
# Stress axis : x y z
#
# Youngs Moduli (GPa) = 34.64012 75.33579 105.56119
#
# Poissons Ratio (x) = 0.54042 0.63118
# Poissons Ratio (y) = 0.24849 -0.06927
# Poissons Ratio (z) = 0.20712 -0.04943
#
# Static dielectric constant tensor:
#      x y z
#    x 4.488070 0.000000 0.000000 
#    y 0.000000 3.897260 0.000000 
#    z 0.000000 0.000000 3.962480 
# 
# 
# High freq. dielectric constant tensor:
#      x y z
#    x 1.856850 0.000000 0.000000 
#    y 0.000000 1.866090 0.000000 
#    z 0.000000 0.000000 1.875280 
# 
# From -- ./inp_files/1894.got.cif
#   From: 2010.03.12/outbox.cif.g09.slc.cpg/sg41_1_cif.got.tgz:1894.got - 2010.04.14 01:55:53.
