data_PCOD8185693
_publ_section_title
;
Structure prediction by ZEFSAII (Michael W. Deem and Ramdas Pophale) SiO2 
 PCOD8185693
Probable space group: A B A 2
;
_chemical_formula_sum "Si O2"
_cell_formula_units_Z 40
_cell_length_a 9.306884
_cell_length_b 9.415757
_cell_length_c 19.913304
_cell_angle_alpha 90.000000
_cell_angle_beta 90.000000
_cell_angle_gamma 90.000000
_cell_volume 1745.029875
_symmetry_space_group_name_H-M "A B A 2"
_symmetry_group_IT_number 41
_symmetry_cell_setting 'orthorhombic'
loop_
_space_group_symop_operation_xyz
x,y,z
-x,-y,z
1/2-x,y,1/2+z
1/2+x,-y,1/2+z
x,1/2+y,1/2+z
-x,1/2-y,1/2+z
1/2-x,1/2+y,z
1/2+x,1/2-y,z
loop_
_atom_site_type_symbol
_atom_site_label
_atom_site_fract_x
_atom_site_fract_y
_atom_site_fract_z
Si Si1 0.078367 0.796809 0.250000
Si Si2 0.797137 0.427635 0.799723
Si Si3 0.257804 0.766539 0.525860
Si Si4 0.339756 0.025452 0.435988
Si Si5 0.502876 0.661333 0.614442
O O1 0.156315 0.657944 0.278165
O O2 0.034031 0.771063 0.173491
O O3 0.937825 0.827252 0.295708
O O4 0.182153 0.934835 0.251976
O O5 0.774713 0.483318 0.875427
O O6 0.171150 0.679471 0.469829
O O7 0.395120 0.678862 0.551812
O O8 0.161610 0.798730 0.590667
O O9 0.305309 0.913210 0.493381
O O10 0.500000 0.000000 0.408019
O O11 0.500000 0.500000 0.640771
#
# Coordination Sequence:
#
# PCOD8185693 Si02
#       5
#     8   8   8   8   8
#     4  11  28  49  75 111 152 204 257 320 383 460
#     4  11  28  49  75 111 154 201 263 315 385 455
#     4  12  26  48  76 112 148 202 247 317 387 454
#     4  12  27  47  78 109 155 198 257 316 383 455
#     4  12  27  47  78 109 155 197 256 316 386 456
#
# _framework density 22.922242000000001
#
# number of rings (size 3 to 8) (size 9 to 14) (size 15 to 20)
#    0.000    0.400    4.000    2.400   11.200    6.400 
#    0.000    0.000    0.000    0.000    0.000    0.000 
#    0.000    0.000    0.000    0.000    0.000    0.000 
#
# Total GULP energy -248167.757371 kJ/mol
# GULP energy per Si atom -12408.387869 kJ/mol
# Density = 2.287007 g / cm^3
# Si number density = 22.922242 Si / 1000 Ang^3
#
#
#
# Elastic Constant Matrix: (Units=GPa)
#
#
# Indices 1 2 3 4 5 6 
#
# 1 110.8523 40.9062 52.4385 0.0000 0.0000 0.0000
# 2 40.9062 116.0790 53.6125 0.0000 0.0000 0.0000
# 3 52.4385 53.6125 117.8213 0.0000 0.0000 0.0000
# 4 0.0000 0.0000 0.0000 36.8284 0.0000 0.0000
# 5 0.0000 0.0000 0.0000 0.0000 46.3173 0.0000
# 6 0.0000 0.0000 0.0000 0.0000 0.0000 47.6920
#
#
#
# Elastic Compliance Matrix: (Units=1/GPa)
#
#
# Indices 1 2 3 4 5 6 
#
# 1 0.011856 -0.002204 -0.004274 0.000000 0.000000 0.000000
# 2 -0.002204 0.011317 -0.004169 0.000000 0.000000 0.000000
# 3 -0.004274 -0.004169 0.012286 0.000000 0.000000 0.000000
# 4 0.000000 0.000000 0.000000 0.027153 0.000000 0.000000
# 5 0.000000 0.000000 0.000000 0.000000 0.021590 0.000000
# 6 0.000000 0.000000 0.000000 0.000000 0.000000 0.020968
#
#
# Mechanical properties :
#
#
# Convention : Reuss Voigt Hill
#
# Bulk Modulus (GPa) = 70.58995 70.96301 70.77648
# Shear Modulus (GPa) = 38.11395 39.35389 38.73392
#
# Velocity S-wave (km/s) = 4.08211 4.14798 4.11517
# Velocity P-wave (km/s) = 7.28563 7.34618 7.31596
#
# Compressibility (1/GPa) = 0.01416632
#
# Stress axis : x y z
#
# Youngs Moduli (GPa) = 84.34470 88.36369 81.39088
#
# Poissons Ratio (x) = 0.19477 0.34785
# Poissons Ratio (y) = 0.18591 0.33928
# Poissons Ratio (z) = 0.36047 0.36835
#
# Static dielectric constant tensor:
#      x y z
#    x 4.270950 0.000000 0.000000 
#    y 0.000000 4.165750 0.000000 
#    z 0.000000 0.000000 3.891930 
# 
# 
# High freq. dielectric constant tensor:
#      x y z
#    x 1.916910 0.000000 0.000000 
#    y 0.000000 1.917330 0.000000 
#    z 0.000000 0.000000 1.901560 
# 
# From -- ./inp_files/11919.got.cif
#   From: 2010.03.12/outbox.cif.g09.slc.cpg/sg41_6_cif.got.tgz:11919.got - 2010.04.14 01:55:53.
