data_PCOD8185442
_publ_section_title
;
Structure prediction by ZEFSAII (Michael W. Deem and Ramdas Pophale) SiO2 
 PCOD8185442
Probable space group: A B A 2
;
_chemical_formula_sum "Si O2"
_cell_formula_units_Z 48
_cell_length_a 14.393798
_cell_length_b 8.855676
_cell_length_c 16.965851
_cell_angle_alpha 90.000000
_cell_angle_beta 90.000000
_cell_angle_gamma 90.000000
_cell_volume 2162.582931
_symmetry_space_group_name_H-M "A B A 2"
_symmetry_group_IT_number 41
_symmetry_cell_setting 'orthorhombic'
loop_
_space_group_symop_operation_xyz
x,y,z
-x,-y,z
1/2-x,y,1/2+z
1/2+x,-y,1/2+z
x,1/2+y,1/2+z
-x,1/2-y,1/2+z
1/2-x,1/2+y,z
1/2+x,1/2-y,z
loop_
_atom_site_type_symbol
_atom_site_label
_atom_site_fract_x
_atom_site_fract_y
_atom_site_fract_z
Si Si1 0.000000 0.000000 0.557461
Si Si2 0.344062 0.679897 0.924452
Si Si3 0.134754 0.096022 0.262695
Si Si4 0.849077 0.962529 0.438360
Si Si5 0.178590 0.247432 0.750145
Si Si6 0.515480 0.725947 0.147014
Si Si7 0.000000 0.000000 0.017440
O O1 0.043500 0.865104 0.610601
O O2 0.922359 0.915919 0.504770
O O3 0.250564 0.606623 0.959172
O O4 0.348884 0.660278 0.830380
O O5 0.345168 0.856815 0.941313
O O6 0.428341 0.589389 0.962914
O O7 0.114092 0.110940 0.356177
O O8 0.214939 0.207540 0.231081
O O9 0.042340 0.135624 0.213859
O O10 0.170163 0.927225 0.251091
O O11 0.106603 0.193586 0.683783
O O12 0.550104 0.616312 0.076960
#
# Coordination Sequence:
#
# PCOD8185442 Si02
#       7
#     4   8   8   8   8   8   4
#     4  12  28  42  64 106 138 176 222 278 346 396
#     4  10  24  44  70  98 131 178 230 273 330 399
#     4  10  23  44  71  94 131 176 227 270 332 396
#     4  10  24  45  69  97 132 180 225 277 329 399
#     4  10  23  45  67  97 129 178 223 275 326 399
#     4  12  26  43  66 100 139 177 218 276 344 397
#     4  12  24  44  66 102 138 178 220 276 344 398
#
# _framework density 22.195681
#
# number of rings (size 3 to 8) (size 9 to 14) (size 15 to 20)
#    0.000    1.333    3.333    0.000    9.333    3.333 
#    6.000    0.000    0.000    0.000    0.000    0.000 
#    0.000    0.000    0.000    0.000    0.000    0.000 
#
# Total GULP energy -297503.677978 kJ/mol
# GULP energy per Si atom -12395.986582 kJ/mol
# Density = 2.214516 g / cm^3
# Si number density = 22.195681 Si / 1000 Ang^3
#
#
#
# Elastic Constant Matrix: (Units=GPa)
#
#
# Indices 1 2 3 4 5 6 
#
# 1 88.7410 47.3153 47.4364 0.0000 0.0000 0.0000
# 2 47.3153 99.0144 42.4945 0.0000 0.0000 0.0000
# 3 47.4364 42.4945 92.1147 0.0000 0.0000 0.0000
# 4 0.0000 0.0000 0.0000 29.3887 0.0000 0.0000
# 5 0.0000 0.0000 0.0000 0.0000 17.4444 0.0000
# 6 0.0000 0.0000 0.0000 0.0000 0.0000 36.5373
#
#
#
# Elastic Compliance Matrix: (Units=1/GPa)
#
#
# Indices 1 2 3 4 5 6 
#
# 1 0.017804 -0.005702 -0.006538 0.000000 0.000000 0.000000
# 2 -0.005702 0.014419 -0.003715 0.000000 0.000000 0.000000
# 3 -0.006538 -0.003715 0.015937 0.000000 0.000000 0.000000
# 4 0.000000 0.000000 0.000000 0.034027 0.000000 0.000000
# 5 0.000000 0.000000 0.000000 0.000000 0.057325 0.000000
# 6 0.000000 0.000000 0.000000 0.000000 0.000000 0.027369
#
#
# Mechanical properties :
#
#
# Convention : Reuss Voigt Hill
#
# Bulk Modulus (GPa) = 61.54253 61.59582 61.56918
# Shear Modulus (GPa) = 24.48493 26.18235 25.33364
#
# Velocity S-wave (km/s) = 3.32496 3.43828 3.38209
# Velocity P-wave (km/s) = 6.52134 6.60105 6.56132
#
# Compressibility (1/GPa) = 0.01624893
#
# Stress axis : x y z
#
# Youngs Moduli (GPa) = 56.16789 69.35400 62.74718
#
# Poissons Ratio (x) = 0.39544 0.41025
# Poissons Ratio (y) = 0.32026 0.23313
# Poissons Ratio (z) = 0.36723 0.25768
#
# Static dielectric constant tensor:
#      x y z
#    x 3.951460 0.000000 0.000000 
#    y 0.000000 4.064180 0.000000 
#    z 0.000000 0.000000 4.371230 
# 
# 
# High freq. dielectric constant tensor:
#      x y z
#    x 1.861580 0.000000 0.000000 
#    y 0.000000 1.886150 0.000000 
#    z 0.000000 0.000000 1.881630 
# 
# From -- ./inp_files/10322.got.cif
#   From: 2010.03.12/outbox.cif.g09.slc.cpg/sg41_6_cif.got.tgz:10322.got - 2010.04.14 01:55:53.
