data_PCOD8185901
_publ_section_title
;
Structure prediction by ZEFSAII (Michael W. Deem and Ramdas Pophale) SiO2 
 PCOD8185901
Probable space group: F M M 2
;
_chemical_formula_sum "Si O2"
_cell_formula_units_Z 96
_cell_length_a 18.487326
_cell_length_b 10.110932
_cell_length_c 28.292668
_cell_angle_alpha 90.000000
_cell_angle_beta 90.000000
_cell_angle_gamma 90.000000
_cell_volume 5288.581391
_symmetry_space_group_name_H-M "F M M 2"
_symmetry_group_IT_number 42
_symmetry_cell_setting 'orthorhombic'
loop_
_space_group_symop_operation_xyz
x,y,z
-x,-y,z
-x,y,z
x,-y,z
x,1/2+y,1/2+z
-x,1/2-y,1/2+z
-x,1/2+y,1/2+z
x,1/2-y,1/2+z
1/2+x,y,1/2+z
1/2-x,-y,1/2+z
1/2-x,y,1/2+z
1/2+x,-y,1/2+z
1/2+x,1/2+y,z
1/2-x,1/2-y,z
1/2-x,1/2+y,z
1/2+x,1/2-y,z
loop_
_atom_site_type_symbol
_atom_site_label
_atom_site_fract_x
_atom_site_fract_y
_atom_site_fract_z
Si Si1 0.329998 0.000000 0.954708
Si Si2 0.415757 0.000000 0.051534
Si Si3 0.915668 0.267624 0.604092
Si Si4 0.184091 0.150940 0.293087
Si Si5 0.914637 0.000000 0.038428
Si Si6 0.659046 0.000000 0.439106
Si Si7 0.818156 0.846982 0.188866
Si Si8 0.335902 0.762255 0.889901
O O1 0.242963 0.000000 0.954288
O O2 0.359709 0.871312 0.927940
O O3 0.362180 0.000000 0.007103
O O4 0.397320 0.876123 0.084314
O O5 0.500000 0.000000 0.034995
O O6 0.885721 0.371093 0.565648
O O7 0.878549 0.292888 0.653951
O O8 0.000000 0.288041 0.612962
O O9 0.250000 0.250000 0.290019
O O10 0.146260 0.159095 0.241656
O O11 0.134065 0.197665 0.337520
O O12 0.210404 0.000000 0.303165
O O13 0.885969 0.000000 0.986180
O O14 0.000000 0.000000 0.035805
O O15 0.633540 0.876569 0.407568
O O16 0.750000 0.750000 0.183956
O O17 0.796165 0.000000 0.177615
O O18 0.250000 0.750000 0.885969
#
# Coordination Sequence:
#
# PCOD8185901 Si02
#       8
#     8   8  16  16   8   8  16  16
#     4  10  18  32  51  72 102 134 167 212 255 300
#     4  10  22  36  53  76 104 140 179 218 263 312
#     4  10  21  38  57  76 102 143 183 214 260 321
#     4   9  17  30  49  75 106 136 166 204 254 311
#     4  10  20  36  55  74  98 136 183 216 253 316
#     4  10  20  30  49  78 102 132 171 212 259 296
#     4  10  21  35  55  83 109 135 172 221 268 309
#     4   9  17  29  47  74 104 134 166 204 250 308
#
# _framework density 18.152315999999999
#
# number of rings (size 3 to 8) (size 9 to 14) (size 15 to 20)
#    0.000    2.333    1.667    1.000    4.667    1.333 
#    0.000    0.000    0.000    2.000    0.000    0.000 
#    0.000    0.000    0.000    0.000    0.000    0.000 
#
# Total GULP energy -297427.822279 kJ/mol
# GULP energy per Si atom -12392.825928 kJ/mol
# Density = 1.811100 g / cm^3
# Si number density = 18.152316 Si / 1000 Ang^3
#
#
#
# Elastic Constant Matrix: (Units=GPa)
#
#
# Indices 1 2 3 4 5 6 
#
# 1 23.4807 28.6883 37.6843 0.0000 0.0000 0.0000
# 2 28.6883 173.5783 85.4951 0.0000 0.0000 0.0000
# 3 37.6843 85.4951 169.9024 0.0000 0.0000 0.0000
# 4 0.0000 0.0000 0.0000 31.9583 0.0000 0.0000
# 5 0.0000 0.0000 0.0000 0.0000 -0.5248 0.0000
# 6 0.0000 0.0000 0.0000 0.0000 0.0000 8.6055
#
#
#
# Elastic Compliance Matrix: (Units=1/GPa)
#
#
# Indices 1 2 3 4 5 6 
#
# 1 0.069455 -0.005174 -0.012802 0.000000 0.000000 0.000000
# 2 -0.005174 0.008045 -0.002901 0.000000 0.000000 0.000000
# 3 -0.012802 -0.002901 0.010185 0.000000 0.000000 0.000000
# 4 0.000000 0.000000 0.000000 0.031291 0.000000 0.000000
# 5 0.000000 0.000000 0.000000 0.000000 -1.905322 0.000000
# 6 0.000000 0.000000 0.000000 0.000000 0.000000 0.116205
#
#
# Mechanical properties :
#
#
# Convention : Reuss Voigt Hill
#
# Bulk Modulus (GPa) = 21.77113 74.52188 48.14651
# Shear Modulus (GPa) = -3.09966 22.34735 9.62384
#
# Velocity S-wave (km/s) = -1.30816 3.51251 2.30504
# Velocity P-wave (km/s) = 3.12056 7.58901 5.80220
#
# Compressibility (1/GPa) = 0.04593239
#
# Stress axis : x y z
#
# Youngs Moduli (GPa) = 14.39780 124.30233 98.18618
#
# Poissons Ratio (x) = 0.64313 1.25694
# Poissons Ratio (y) = 0.07449 0.28480
# Poissons Ratio (z) = 0.18432 0.36056
#
# Static dielectric constant tensor:
#      x y z
#    x 2.832990 0.000000 0.000000 
#    y 0.000000 3.032600 0.000000 
#    z 0.000000 0.000000 3.796030 
# 
# 
# High freq. dielectric constant tensor:
#      x y z
#    x 1.641680 0.000000 0.000000 
#    y 0.000000 1.730210 0.000000 
#    z 0.000000 0.000000 1.724720 
# 
# From -- ./inp_files/30483.got.cif
#   From: 2010.03.12/outbox.cif.g09.slc.cpg/sg42_16_cif.got.tgz:30483.got - 2010.04.14 02:04:31.
