data_PCOD8185762
_publ_section_title
;
Structure prediction by ZEFSAII (Michael W. Deem and Ramdas Pophale) SiO2 
 PCOD8185762
Probable space group: F M M 2
;
_chemical_formula_sum "Si O2"
_cell_formula_units_Z 96
_cell_length_a 19.702176
_cell_length_b 8.766806
_cell_length_c 31.227216
_cell_angle_alpha 90.000000
_cell_angle_beta 90.000000
_cell_angle_gamma 90.000000
_cell_volume 5393.725717
_symmetry_space_group_name_H-M "F M M 2"
_symmetry_group_IT_number 42
_symmetry_cell_setting 'orthorhombic'
loop_
_space_group_symop_operation_xyz
x,y,z
-x,-y,z
-x,y,z
x,-y,z
x,1/2+y,1/2+z
-x,1/2-y,1/2+z
-x,1/2+y,1/2+z
x,1/2-y,1/2+z
1/2+x,y,1/2+z
1/2-x,-y,1/2+z
1/2-x,y,1/2+z
1/2+x,-y,1/2+z
1/2+x,1/2+y,z
1/2-x,1/2-y,z
1/2-x,1/2+y,z
1/2+x,1/2-y,z
loop_
_atom_site_type_symbol
_atom_site_label
_atom_site_fract_x
_atom_site_fract_y
_atom_site_fract_z
Si Si1 0.675631 0.817986 0.004050
Si Si2 0.176941 0.323351 0.740285
Si Si3 0.424935 0.181094 0.077235
Si Si4 0.825270 0.318679 0.417696
Si Si5 0.578807 0.823635 0.173035
Si Si6 0.176345 0.821646 0.334463
O O1 0.750000 0.750000 0.011341
O O2 0.629364 0.758267 0.043053
O O3 0.679651 0.000000 0.001433
O O4 0.641225 0.751683 0.960553
O O5 0.190207 0.500000 0.734818
O O6 0.250000 0.250000 0.732717
O O7 0.122976 0.271460 0.705744
O O8 0.144379 0.289598 0.787564
O O9 0.500000 0.245160 0.065874
O O10 0.403828 0.233653 0.124963
O O11 0.427833 0.000000 0.076369
O O12 0.824719 0.500000 0.420364
O O13 0.750000 0.250000 0.415837
O O14 0.863369 0.261800 0.374001
O O15 0.500000 0.795128 0.183037
O O16 0.597585 0.000000 0.178393
O O17 0.250000 0.750000 0.331696
O O18 0.180699 0.000000 0.344970
#
# Coordination Sequence:
#
# PCOD8185762 Si02
#       6
#    16  16  16  16  16  16
#     4  10  18  29  47  70  97 124 154 194 235 277
#     4  10  20  32  49  74 102 129 161 202 244 287
#     4   8  16  32  52  71  91 122 162 197 232 280
#     4  10  17  26  42  65  94 124 155 190 230 279
#     4   9  18  34  54  73  96 128 164 200 242 293
#     4   9  16  27  43  65  93 124 157 192 232 278
#
# _framework density 17.798456999999999
#
# number of rings (size 3 to 8) (size 9 to 14) (size 15 to 20)
#    0.000    2.667    0.000    6.000    0.000    3.000 
#    0.000    3.333    0.000    5.000    0.000    2.333 
#    0.000    0.000    0.000    0.000    0.000    0.000 
#
# Total GULP energy -297374.685833 kJ/mol
# GULP energy per Si atom -12390.611910 kJ/mol
# Density = 1.775795 g / cm^3
# Si number density = 17.798457 Si / 1000 Ang^3
#
#
#
# Elastic Constant Matrix: (Units=GPa)
#
#
# Indices 1 2 3 4 5 6 
#
# 1 54.9584 29.8417 68.8879 0.0000 0.0000 0.0000
# 2 29.8417 91.1762 62.1834 0.0000 0.0000 0.0000
# 3 68.8879 62.1834 185.3074 0.0000 0.0000 0.0000
# 4 0.0000 0.0000 0.0000 18.6067 0.0000 0.0000
# 5 0.0000 0.0000 0.0000 0.0000 -0.7537 0.0000
# 6 0.0000 0.0000 0.0000 0.0000 0.0000 18.4867
#
#
#
# Elastic Compliance Matrix: (Units=1/GPa)
#
#
# Indices 1 2 3 4 5 6 
#
# 1 0.034836 -0.003332 -0.011832 0.000000 0.000000 0.000000
# 2 -0.003332 0.014542 -0.003641 0.000000 0.000000 0.000000
# 3 -0.011832 -0.003641 0.011017 0.000000 0.000000 0.000000
# 4 0.000000 0.000000 0.000000 0.053744 0.000000 0.000000
# 5 0.000000 0.000000 0.000000 0.000000 -1.326859 0.000000
# 6 0.000000 0.000000 0.000000 0.000000 0.000000 0.054093
#
#
# Mechanical properties :
#
#
# Convention : Reuss Voigt Hill
#
# Bulk Modulus (GPa) = 43.89058 72.58534 58.23796
# Shear Modulus (GPa) = -4.49066 18.63655 7.07295
#
# Velocity S-wave (km/s) = -1.59014 3.23938 1.99563
# Velocity P-wave (km/s) = 4.61973 7.40688 6.17267
#
# Compressibility (1/GPa) = 0.02278393
#
# Stress axis : x y z
#
# Youngs Moduli (GPa) = 28.70614 68.76840 90.77039
#
# Poissons Ratio (x) = 0.22914 1.07400
# Poissons Ratio (y) = 0.09565 0.33050
# Poissons Ratio (z) = 0.33965 0.25039
#
# Static dielectric constant tensor:
#      x y z
#    x 2.974810 0.000000 0.000000 
#    y 0.000000 3.213640 0.000000 
#    z 0.000000 0.000000 4.516080 
# 
# 
# High freq. dielectric constant tensor:
#      x y z
#    x 1.635590 0.000000 0.000000 
#    y 0.000000 1.686480 0.000000 
#    z 0.000000 0.000000 1.716740 
# 
# From -- ./inp_files/31613.got.cif
#   From: 2010.03.12/outbox.cif.g09.slc.cpg/sg42_16_cif.got.tgz:31613.got - 2010.04.14 02:04:31.
