data_PCOD8185674
_publ_section_title
;
Structure prediction by ZEFSAII (Michael W. Deem and Ramdas Pophale) SiO2 
 PCOD8185674
Probable space group: A B A 2
;
_chemical_formula_sum "Si O2"
_cell_formula_units_Z 64
_cell_length_a 14.512951
_cell_length_b 8.732206
_cell_length_c 22.529828
_cell_angle_alpha 90.000000
_cell_angle_beta 90.000000
_cell_angle_gamma 90.000000
_cell_volume 2855.206855
_symmetry_space_group_name_H-M "A B A 2"
_symmetry_group_IT_number 41
_symmetry_cell_setting 'orthorhombic'
loop_
_space_group_symop_operation_xyz
x,y,z
-x,-y,z
1/2-x,y,1/2+z
1/2+x,-y,1/2+z
x,1/2+y,1/2+z
-x,1/2-y,1/2+z
1/2-x,1/2+y,z
1/2+x,1/2-y,z
loop_
_atom_site_type_symbol
_atom_site_label
_atom_site_fract_x
_atom_site_fract_y
_atom_site_fract_z
Si Si1 0.674830 0.727019 0.273730
Si Si2 0.143254 0.637565 0.036830
Si Si3 0.438286 0.636332 0.130326
Si Si4 0.996521 0.323833 0.328539
Si Si5 0.002386 0.174635 0.962375
Si Si6 0.664600 0.706767 0.522116
Si Si7 0.925144 0.870597 0.667150
Si Si8 0.138381 0.125952 0.255075
O O1 0.612258 0.783507 0.328482
O O2 0.648232 0.836585 0.218075
O O3 0.782900 0.760063 0.279934
O O4 0.658419 0.545890 0.274531
O O5 0.162732 0.473191 0.009068
O O6 0.229567 0.746533 0.025340
O O7 0.128015 0.600037 0.105824
O O8 0.055056 0.718142 0.007448
O O9 0.500000 0.500000 0.101352
O O10 0.387881 0.737930 0.081392
O O11 0.519458 0.716722 0.164626
O O12 0.365606 0.606413 0.183297
O O13 0.034829 0.304553 0.395462
O O14 0.047190 0.204360 0.283958
O O15 0.000000 0.500000 0.307013
O O16 0.000000 0.000000 0.983005
O O17 0.110004 0.221408 0.966671
O O18 0.000000 0.000000 0.682786
#
# Coordination Sequence:
#
# PCOD8185674 Si02
#       8
#     8   8   8   8   8   8   8   8
#     4  12  26  42  68 100 138 178 225 277 334 402
#     4  12  26  43  67 102 135 180 224 275 337 398
#     4  12  23  41  69  98 137 179 221 271 332 395
#     4  11  25  47  72  96 128 173 224 284 345 404
#     4  11  25  47  72  96 128 173 224 284 345 404
#     4  12  26  42  68 100 138 178 225 277 334 402
#     4  12  23  41  69  98 137 179 221 271 332 395
#     4  12  26  43  67 102 135 180 224 275 337 398
#
# _framework density 22.415189000000002
#
# number of rings (size 3 to 8) (size 9 to 14) (size 15 to 20)
#    0.000    0.250    5.000    3.750    3.500    5.000 
#    0.000    0.000    0.000    0.000    0.000    0.000 
#    0.000    0.000    0.000    0.000    0.000    0.000 
#
# Total GULP energy -396472.622997 kJ/mol
# GULP energy per Si atom -12389.769469 kJ/mol
# Density = 2.236417 g / cm^3
# Si number density = 22.415189 Si / 1000 Ang^3
#
#
#
# Elastic Constant Matrix: (Units=GPa)
#
#
# Indices 1 2 3 4 5 6 
#
# 1 92.7477 18.1139 11.6048 0.0000 0.0000 0.0000
# 2 18.1139 140.6228 24.7278 0.0000 0.0000 0.0000
# 3 11.6048 24.7278 81.4077 0.0000 0.0000 0.0000
# 4 0.0000 0.0000 0.0000 23.6675 0.0000 0.0000
# 5 0.0000 0.0000 0.0000 0.0000 4.7544 0.0000
# 6 0.0000 0.0000 0.0000 0.0000 0.0000 44.8386
#
#
#
# Elastic Compliance Matrix: (Units=1/GPa)
#
#
# Indices 1 2 3 4 5 6 
#
# 1 0.011174 -0.001225 -0.001221 0.000000 0.000000 0.000000
# 2 -0.001225 0.007647 -0.002148 0.000000 0.000000 0.000000
# 3 -0.001221 -0.002148 0.013110 0.000000 0.000000 0.000000
# 4 0.000000 0.000000 0.000000 0.042252 0.000000 0.000000
# 5 0.000000 0.000000 0.000000 0.000000 0.210332 0.000000
# 6 0.000000 0.000000 0.000000 0.000000 0.000000 0.022302
#
#
# Mechanical properties :
#
#
# Convention : Reuss Voigt Hill
#
# Bulk Modulus (GPa) = 43.96826 47.07458 45.52142
# Shear Modulus (GPa) = 15.45186 32.00754 23.72970
#
# Velocity S-wave (km/s) = 2.62839 3.78291 3.25721
# Velocity P-wave (km/s) = 5.37301 6.33461 5.87352
#
# Compressibility (1/GPa) = 0.02274368
#
# Stress axis : x y z
#
# Youngs Moduli (GPa) = 89.49444 130.77520 76.27544
#
# Poissons Ratio (x) = 0.16015 0.09312
# Poissons Ratio (y) = 0.10960 0.16385
# Poissons Ratio (z) = 0.10926 0.28092
#
# Static dielectric constant tensor:
#      x y z
#    x 4.190280 0.000000 0.000000 
#    y 0.000000 4.077560 0.000000 
#    z 0.000000 0.000000 3.982490 
# 
# 
# High freq. dielectric constant tensor:
#      x y z
#    x 1.886640 0.000000 0.000000 
#    y 0.000000 1.902730 0.000000 
#    z 0.000000 0.000000 1.873010 
# 
# From -- ./inp_files/12244.got.cif
#   From: 2010.03.12/outbox.cif.g09.slc.cpg/sg41_7_cif.got.tgz:12244.got - 2010.04.14 01:55:53.
