data_PCOD8185888
_publ_section_title
;
Structure prediction by ZEFSAII (Michael W. Deem and Ramdas Pophale) SiO2 
 PCOD8185888
Probable space group: F M M 2
;
_chemical_formula_sum "Si O2"
_cell_formula_units_Z 96
_cell_length_a 18.943173
_cell_length_b 8.678446
_cell_length_c 31.232552
_cell_angle_alpha 90.000000
_cell_angle_beta 90.000000
_cell_angle_gamma 90.000000
_cell_volume 5134.547344
_symmetry_space_group_name_H-M "F M M 2"
_symmetry_group_IT_number 42
_symmetry_cell_setting 'orthorhombic'
loop_
_space_group_symop_operation_xyz
x,y,z
-x,-y,z
-x,y,z
x,-y,z
x,1/2+y,1/2+z
-x,1/2-y,1/2+z
-x,1/2+y,1/2+z
x,1/2-y,1/2+z
1/2+x,y,1/2+z
1/2-x,-y,1/2+z
1/2-x,y,1/2+z
1/2+x,-y,1/2+z
1/2+x,1/2+y,z
1/2-x,1/2-y,z
1/2-x,1/2+y,z
1/2+x,1/2-y,z
loop_
_atom_site_type_symbol
_atom_site_label
_atom_site_fract_x
_atom_site_fract_y
_atom_site_fract_z
Si Si1 0.416925 0.322815 0.730820
Si Si2 0.827069 0.319041 0.657618
Si Si3 0.080597 0.181095 0.904683
Si Si4 0.916176 0.173104 0.317840
Si Si5 0.672466 0.317337 0.984986
Si Si6 0.828241 0.317030 0.071327
O O1 0.500000 0.293013 0.726237
O O2 0.397205 0.500000 0.722639
O O3 0.377903 0.215356 0.697035
O O4 0.389990 0.275928 0.778072
O O5 0.819352 0.500000 0.650764
O O6 0.750000 0.250000 0.666803
O O7 0.863642 0.244436 0.615149
O O8 0.113565 0.259381 0.862329
O O9 0.124954 0.236930 0.945403
O O10 0.000000 0.232837 0.912283
O O11 0.086019 0.000000 0.897938
O O12 0.000000 0.178105 0.319901
O O13 0.887858 0.000000 0.311724
O O14 0.676804 0.500000 0.989040
O O15 0.750000 0.250000 0.977982
O O16 0.635786 0.248905 0.028112
O O17 0.828901 0.500000 0.070461
O O18 0.750000 0.250000 0.071799
#
# Coordination Sequence:
#
# PCOD8185888 Si02
#       6
#    16  16  16  16  16  16
#     4  10  20  35  55  78 105 136 171 211 255 303
#     4  11  21  35  55  78 105 135 171 212 255 304
#     4   9  18  33  52  73  98 130 167 206 249 297
#     4   9  17  30  50  75 101 131 168 207 249 300
#     4  10  19  32  51  74 100 130 165 206 250 298
#     4  10  18  31  51  73  99 132 170 207 247 299
#
# _framework density 18.696876
#
# number of rings (size 3 to 8) (size 9 to 14) (size 15 to 20)
#    0.000    2.167    0.000    6.500    0.000    4.333 
#    0.000    1.667    0.000    5.000    0.000    0.000 
#    0.000    0.000    0.000    0.000    0.000    0.000 
#
# Total GULP energy -297567.712301 kJ/mol
# GULP energy per Si atom -12398.654679 kJ/mol
# Density = 1.865432 g / cm^3
# Si number density = 18.696876 Si / 1000 Ang^3
#
#
#
# Elastic Constant Matrix: (Units=GPa)
#
#
# Indices 1 2 3 4 5 6 
#
# 1 39.3073 25.1041 45.1451 0.0000 0.0000 0.0000
# 2 25.1041 114.0416 57.5360 0.0000 0.0000 0.0000
# 3 45.1451 57.5360 176.2648 0.0000 0.0000 0.0000
# 4 0.0000 0.0000 0.0000 38.0766 0.0000 0.0000
# 5 0.0000 0.0000 0.0000 0.0000 30.7908 0.0000
# 6 0.0000 0.0000 0.0000 0.0000 0.0000 20.8666
#
#
#
# Elastic Compliance Matrix: (Units=1/GPa)
#
#
# Indices 1 2 3 4 5 6 
#
# 1 0.037571 -0.004089 -0.008288 0.000000 0.000000 0.000000
# 2 -0.004089 0.010943 -0.002525 0.000000 0.000000 0.000000
# 3 -0.008288 -0.002525 0.008620 0.000000 0.000000 0.000000
# 4 0.000000 0.000000 0.000000 0.026263 0.000000 0.000000
# 5 0.000000 0.000000 0.000000 0.000000 0.032477 0.000000
# 6 0.000000 0.000000 0.000000 0.000000 0.000000 0.047924
#
#
# Mechanical properties :
#
#
# Convention : Reuss Voigt Hill
#
# Bulk Modulus (GPa) = 36.58932 65.02047 50.80490
# Shear Modulus (GPa) = 24.66571 31.40203 28.03387
#
# Velocity S-wave (km/s) = 3.63608 4.10266 3.87639
# Velocity P-wave (km/s) = 6.10248 7.56928 6.87511
#
# Compressibility (1/GPa) = 0.02733038
#
# Stress axis : x y z
#
# Youngs Moduli (GPa) = 26.61626 91.38645 116.00847
#
# Poissons Ratio (x) = 0.37369 0.96147
# Poissons Ratio (y) = 0.10884 0.29287
# Poissons Ratio (z) = 0.22059 0.23071
#
# Static dielectric constant tensor:
#      x y z
#    x 2.994740 0.000000 0.000000 
#    y 0.000000 3.506540 0.000000 
#    z 0.000000 0.000000 4.098530 
# 
# 
# High freq. dielectric constant tensor:
#      x y z
#    x 1.673640 0.000000 0.000000 
#    y 0.000000 1.740650 0.000000 
#    z 0.000000 0.000000 1.750890 
# 
# From -- ./inp_files/28045.got.cif
#   From: 2010.03.12/outbox.cif.g09.slc.cpg/sg42_15_cif.got.tgz:28045.got - 2010.04.14 02:04:31.
