data_PCOD8185395
_publ_section_title
;
Structure prediction by ZEFSAII (Michael W. Deem and Ramdas Pophale) SiO2 
 PCOD8185395
Probable space group: A B A 2
;
_chemical_formula_sum "Si O2"
_cell_formula_units_Z 48
_cell_length_a 11.460638
_cell_length_b 21.883796
_cell_length_c 10.192065
_cell_angle_alpha 90.000000
_cell_angle_beta 90.000000
_cell_angle_gamma 90.000000
_cell_volume 2556.192977
_symmetry_space_group_name_H-M "A B A 2"
_symmetry_group_IT_number 41
_symmetry_cell_setting 'orthorhombic'
loop_
_space_group_symop_operation_xyz
x,y,z
-x,-y,z
1/2-x,y,1/2+z
1/2+x,-y,1/2+z
x,1/2+y,1/2+z
-x,1/2-y,1/2+z
1/2-x,1/2+y,z
1/2+x,1/2-y,z
loop_
_atom_site_type_symbol
_atom_site_label
_atom_site_fract_x
_atom_site_fract_y
_atom_site_fract_z
Si Si1 0.655690 0.560120 0.397510
Si Si2 0.205251 0.744136 0.671047
Si Si3 0.035390 0.648924 0.601801
Si Si4 0.101991 0.076528 0.340171
Si Si5 0.271814 0.875946 0.637883
Si Si6 0.775837 0.320527 0.419486
O O1 0.522512 0.581910 0.412039
O O2 0.660867 0.488657 0.364234
O O3 0.721085 0.592717 0.278459
O O4 0.719284 0.576587 0.533366
O O5 0.077687 0.710701 0.680077
O O6 0.189802 0.816892 0.659552
O O7 0.270908 0.720207 0.540511
O O8 0.285088 0.723828 0.794073
O O9 0.081249 0.589902 0.684885
O O10 0.097079 0.650346 0.457879
O O11 0.897153 0.647461 0.586096
O O12 0.186757 0.124984 0.403194
#
# Coordination Sequence:
#
# PCOD8185395 Si02
#       6
#     8   8   8   8   8   8
#     4  10  23  36  60  83 118 155 187 245 286 351
#     4   9  19  35  55  85 112 147 190 229 288 340
#     4   8  20  37  59  81 112 156 189 238 290 340
#     4   9  19  41  59  79 114 157 196 227 302 338
#     4  11  21  40  55  90 117 152 192 238 298 344
#     4   9  18  37  59  82 107 156 188 237 277 351
#
# _framework density 18.777925
#
# number of rings (size 3 to 8) (size 9 to 14) (size 15 to 20)
#    1.000    1.667    0.000    1.000    2.333    1.333 
#   12.000    0.000    0.000    0.000    0.000    0.000 
#    0.000    0.000    0.000    0.000    0.000    0.000 
#
# Total GULP energy -297371.140750 kJ/mol
# GULP energy per Si atom -12390.464198 kJ/mol
# Density = 1.873519 g / cm^3
# Si number density = 18.777925 Si / 1000 Ang^3
#
#
#
# Elastic Constant Matrix: (Units=GPa)
#
#
# Indices 1 2 3 4 5 6 
#
# 1 53.1709 27.1095 18.3242 0.0000 0.0000 0.0000
# 2 27.1095 119.6683 27.8438 0.0000 0.0000 0.0000
# 3 18.3242 27.8438 77.6758 0.0000 0.0000 0.0000
# 4 0.0000 0.0000 0.0000 25.0586 0.0000 0.0000
# 5 0.0000 0.0000 0.0000 0.0000 20.9140 0.0000
# 6 0.0000 0.0000 0.0000 0.0000 0.0000 22.2270
#
#
#
# Elastic Compliance Matrix: (Units=1/GPa)
#
#
# Indices 1 2 3 4 5 6 
#
# 1 0.022222 -0.004161 -0.003750 0.000000 0.000000 0.000000
# 2 -0.004161 0.009896 -0.002566 0.000000 0.000000 0.000000
# 3 -0.003750 -0.002566 0.014678 0.000000 0.000000 0.000000
# 4 0.000000 0.000000 0.000000 0.039906 0.000000 0.000000
# 5 0.000000 0.000000 0.000000 0.000000 0.047815 0.000000
# 6 0.000000 0.000000 0.000000 0.000000 0.000000 0.044990
#
#
# Mechanical properties :
#
#
# Convention : Reuss Voigt Hill
#
# Bulk Modulus (GPa) = 38.69821 44.11888 41.40855
# Shear Modulus (GPa) = 23.91470 25.45577 24.68523
#
# Velocity S-wave (km/s) = 3.57256 3.68587 3.62966
# Velocity P-wave (km/s) = 6.13764 6.45448 6.29805
#
# Compressibility (1/GPa) = 0.02584099
#
# Stress axis : x y z
#
# Youngs Moduli (GPa) = 45.00143 101.04975 68.12695
#
# Poissons Ratio (x) = 0.42051 0.25551
# Poissons Ratio (y) = 0.18727 0.17479
# Poissons Ratio (z) = 0.16878 0.25926
#
# Static dielectric constant tensor:
#      x y z
#    x 3.214390 0.000000 0.000000 
#    y 0.000000 3.475630 0.000000 
#    z 0.000000 0.000000 3.401660 
# 
# 
# High freq. dielectric constant tensor:
#      x y z
#    x 1.709980 0.000000 0.000000 
#    y 0.000000 1.732910 0.000000 
#    z 0.000000 0.000000 1.725500 
# 
# From -- ./inp_files/5035.got.cif
#   From: 2010.03.12/outbox.cif.g09.slc.cpg/sg41_3_cif.got.tgz:5035.got - 2010.04.14 01:55:53.
