data_PCOD8185648
_publ_section_title
;
Structure prediction by ZEFSAII (Michael W. Deem and Ramdas Pophale) SiO2 
 PCOD8185648
Probable space group: A B A 2
;
_chemical_formula_sum "Si O2"
_cell_formula_units_Z 64
_cell_length_a 8.893571
_cell_length_b 26.507167
_cell_length_c 12.568716
_cell_angle_alpha 90.000000
_cell_angle_beta 90.000000
_cell_angle_gamma 90.000000
_cell_volume 2962.991488
_symmetry_space_group_name_H-M "A B A 2"
_symmetry_group_IT_number 41
_symmetry_cell_setting 'orthorhombic'
loop_
_space_group_symop_operation_xyz
x,y,z
-x,-y,z
1/2-x,y,1/2+z
1/2+x,-y,1/2+z
x,1/2+y,1/2+z
-x,1/2-y,1/2+z
1/2-x,1/2+y,z
1/2+x,1/2-y,z
loop_
_atom_site_type_symbol
_atom_site_label
_atom_site_fract_x
_atom_site_fract_y
_atom_site_fract_z
Si Si1 0.615540 0.870595 0.077080
Si Si2 0.131057 0.388695 0.228828
Si Si3 0.245090 0.811195 0.397375
Si Si4 0.385791 0.129203 0.723688
Si Si5 0.595459 0.447691 0.397709
Si Si6 0.956645 0.945545 0.903964
Si Si7 0.604571 0.295207 0.398276
Si Si8 0.629940 0.121532 0.572204
O O1 0.487292 0.856188 0.160906
O O2 0.757297 0.890019 0.144112
O O3 0.552162 0.915770 0.002271
O O4 0.658533 0.821155 0.008200
O O5 0.213894 0.350149 0.305907
O O6 0.041100 0.432147 0.292946
O O7 0.253841 0.411783 0.144929
O O8 0.346002 0.761857 0.389910
O O9 0.272654 0.837279 0.510482
O O10 0.073594 0.796124 0.388113
O O11 0.453414 0.082191 0.791731
O O12 0.322647 0.172743 0.801517
O O13 0.521647 0.151272 0.653486
O O14 0.500000 0.500000 0.401081
O O15 0.777073 0.447754 0.391994
O O16 0.019236 0.909347 0.995544
O O17 0.000000 0.000000 0.943037
#
# Coordination Sequence:
#
# PCOD8185648 Si02
#       8
#     8   8   8   8   8   8   8   8
#     4  11  24  46  68  94 134 184 223 276 341 402
#     4  11  24  46  69  94 139 179 228 280 337 403
#     4  11  26  42  67 103 135 177 225 285 335 407
#     4  11  24  46  68  94 134 184 223 276 341 402
#     4  11  26  44  67 101 137 173 229 283 338 407
#     4  11  26  44  67 101 135 175 227 283 341 404
#     4  11  26  42  67 101 137 175 227 282 341 399
#     4  11  24  46  69  94 139 179 228 280 337 403
#
# _framework density 21.599792999999998
#
# number of rings (size 3 to 8) (size 9 to 14) (size 15 to 20)
#    0.000    1.000    5.000    0.000    7.000    3.000 
#    0.000    0.000    0.000    0.000    0.000    0.000 
#    0.000    0.000    0.000    0.000    0.000    0.000 
#
# Total GULP energy -396587.775918 kJ/mol
# GULP energy per Si atom -12393.367997 kJ/mol
# Density = 2.155063 g / cm^3
# Si number density = 21.599793 Si / 1000 Ang^3
#
#
#
# Elastic Constant Matrix: (Units=GPa)
#
#
# Indices 1 2 3 4 5 6 
#
# 1 115.2875 32.6776 50.0425 0.0000 0.0000 0.0000
# 2 32.6776 89.2037 16.5303 0.0000 0.0000 0.0000
# 3 50.0425 16.5303 106.9097 0.0000 0.0000 0.0000
# 4 0.0000 0.0000 0.0000 4.1535 0.0000 0.0000
# 5 0.0000 0.0000 0.0000 0.0000 29.3394 0.0000
# 6 0.0000 0.0000 0.0000 0.0000 0.0000 38.6400
#
#
#
# Elastic Compliance Matrix: (Units=1/GPa)
#
#
# Indices 1 2 3 4 5 6 
#
# 1 0.011808 -0.003399 -0.005002 0.000000 0.000000 0.000000
# 2 -0.003399 0.012519 -0.000345 0.000000 0.000000 0.000000
# 3 -0.005002 -0.000345 0.011748 0.000000 0.000000 0.000000
# 4 0.000000 0.000000 0.000000 0.240763 0.000000 0.000000
# 5 0.000000 0.000000 0.000000 0.000000 0.034084 0.000000
# 6 0.000000 0.000000 0.000000 0.000000 0.000000 0.025880
#
#
# Mechanical properties :
#
#
# Convention : Reuss Voigt Hill
#
# Bulk Modulus (GPa) = 53.80649 56.65575 55.23112
# Shear Modulus (GPa) = 13.87006 28.56993 21.22000
#
# Velocity S-wave (km/s) = 2.53679 3.64083 3.13775
# Velocity P-wave (km/s) = 5.79182 6.63030 6.22519
#
# Compressibility (1/GPa) = 0.01858512
#
# Stress axis : x y z
#
# Youngs Moduli (GPa) = 84.68488 79.87684 85.11903
#
# Poissons Ratio (x) = 0.27149 0.42575
# Poissons Ratio (y) = 0.28783 0.02935
# Poissons Ratio (z) = 0.42358 0.02754
#
# Static dielectric constant tensor:
#      x y z
#    x 4.269160 0.000000 0.000000 
#    y 0.000000 3.734410 0.000000 
#    z 0.000000 0.000000 4.270870 
# 
# 
# High freq. dielectric constant tensor:
#      x y z
#    x 1.870380 0.000000 0.000000 
#    y 0.000000 1.814310 0.000000 
#    z 0.000000 0.000000 1.874160 
# 
# From -- ./inp_files/4644.got.cif
#   From: 2010.03.12/outbox.cif.g09.slc.cpg/sg41_3_cif.got.tgz:4644.got - 2010.04.14 01:55:53.
