data_PCOD8185133
_publ_section_title
;
Structure prediction by ZEFSAII (Michael W. Deem and Ramdas Pophale) SiO2 
 PCOD8185133
Probable space group: A B A 2
;
_chemical_formula_sum "Si O2"
_cell_formula_units_Z 64
_cell_length_a 13.830193
_cell_length_b 22.279520
_cell_length_c 9.134168
_cell_angle_alpha 90.000000
_cell_angle_beta 90.000000
_cell_angle_gamma 90.000000
_cell_volume 2814.511748
_symmetry_space_group_name_H-M "A B A 2"
_symmetry_group_IT_number 41
_symmetry_cell_setting 'orthorhombic'
loop_
_space_group_symop_operation_xyz
x,y,z
-x,-y,z
1/2-x,y,1/2+z
1/2+x,-y,1/2+z
x,1/2+y,1/2+z
-x,1/2-y,1/2+z
1/2-x,1/2+y,z
1/2+x,1/2-y,z
loop_
_atom_site_type_symbol
_atom_site_label
_atom_site_fract_x
_atom_site_fract_y
_atom_site_fract_z
Si Si1 0.837511 0.911515 0.096950
Si Si2 0.559775 0.127988 0.282832
Si Si3 0.133672 0.462357 0.676398
Si Si4 0.350922 0.752816 0.765945
Si Si5 0.184037 0.803455 0.567947
Si Si6 0.982759 0.655493 0.600939
Si Si7 0.759593 0.579107 0.423446
Si Si8 0.646832 0.387281 0.765102
O O1 0.729547 0.912182 0.160023
O O2 0.902788 0.852919 0.139241
O O3 0.900636 0.968644 0.160110
O O4 0.823135 0.911355 0.923443
O O5 0.589589 0.171914 0.150541
O O6 0.532043 0.167952 0.427353
O O7 0.647383 0.081958 0.315268
O O8 0.463593 0.090388 0.233536
O O9 0.062088 0.410383 0.626818
O O10 0.223923 0.462955 0.562719
O O11 0.167706 0.447608 0.840046
O O12 0.252563 0.774716 0.690274
O O13 0.439727 0.791811 0.700298
O O14 0.363003 0.683442 0.735259
O O15 0.349157 0.757425 0.942603
O O16 0.242263 0.853920 0.480130
#
# Coordination Sequence:
#
# PCOD8185133 Si02
#       8
#     8   8   8   8   8   8   8   8
#     4  11  25  46  62  90 135 176 218 260 330 404
#     4  10  21  39  62  92 133 157 214 266 320 390
#     4  11  20  38  68  96 123 166 209 274 326 384
#     4  12  22  38  66  95 129 169 219 272 320 390
#     4  12  19  38  64  98 126 154 214 279 322 375
#     4  10  21  41  66  96 122 169 224 271 329 377
#     4  11  18  36  66  95 124 153 213 268 327 377
#     4  11  27  44  60  90 134 184 213 259 329 393
#
# _framework density 22.739291000000001
#
# number of rings (size 3 to 8) (size 9 to 14) (size 15 to 20)
#    0.000    1.000    6.250    1.875    0.000    4.000 
#    0.000    1.875    0.000    0.000    0.000    0.000 
#    0.000    0.000    0.000    0.000    0.000    0.000 
#
# Total GULP energy -396551.116500 kJ/mol
# GULP energy per Si atom -12392.222391 kJ/mol
# Density = 2.268754 g / cm^3
# Si number density = 22.739291 Si / 1000 Ang^3
#
#
#
# Elastic Constant Matrix: (Units=GPa)
#
#
# Indices 1 2 3 4 5 6 
#
# 1 85.9215 2.6909 23.5667 0.0000 0.0000 0.0000
# 2 2.6909 75.2284 3.2434 0.0000 0.0000 0.0000
# 3 23.5667 3.2434 88.0756 0.0000 0.0000 0.0000
# 4 0.0000 0.0000 0.0000 27.9335 0.0000 0.0000
# 5 0.0000 0.0000 0.0000 0.0000 32.3116 0.0000
# 6 0.0000 0.0000 0.0000 0.0000 0.0000 21.8009
#
#
#
# Elastic Compliance Matrix: (Units=1/GPa)
#
#
# Indices 1 2 3 4 5 6 
#
# 1 0.012567 -0.000305 -0.003351 0.000000 0.000000 0.000000
# 2 -0.000305 0.013321 -0.000409 0.000000 0.000000 0.000000
# 3 -0.003351 -0.000409 0.012266 0.000000 0.000000 0.000000
# 4 0.000000 0.000000 0.000000 0.035799 0.000000 0.000000
# 5 0.000000 0.000000 0.000000 0.000000 0.030949 0.000000
# 6 0.000000 0.000000 0.000000 0.000000 0.000000 0.045870
#
#
# Mechanical properties :
#
#
# Convention : Reuss Voigt Hill
#
# Bulk Modulus (GPa) = 33.30717 34.24750 33.77734
# Shear Modulus (GPa) = 29.60143 31.05750 30.32947
#
# Velocity S-wave (km/s) = 3.61193 3.69969 3.65607
# Velocity P-wave (km/s) = 5.66338 5.77442 5.71917
#
# Compressibility (1/GPa) = 0.03002356
#
# Stress axis : x y z
#
# Youngs Moduli (GPa) = 79.57145 75.06723 81.52819
#
# Poissons Ratio (x) = 0.02290 0.27324
# Poissons Ratio (y) = 0.02427 0.03334
# Poissons Ratio (z) = 0.26668 0.03070
#
# Static dielectric constant tensor:
#      x y z
#    x 4.480030 0.000000 0.000000 
#    y 0.000000 4.043890 0.000000 
#    z 0.000000 0.000000 4.162480 
# 
# 
# High freq. dielectric constant tensor:
#      x y z
#    x 1.902660 0.000000 0.000000 
#    y 0.000000 1.881350 0.000000 
#    z 0.000000 0.000000 1.894630 
# 
# From -- ./inp_files/2787.got.cif
#   From: 2010.03.12/outbox.cif.g09.slc.cpg/sg41_2_cif.got.tgz:2787.got - 2010.04.14 01:55:53.
