data_PCOD8185827
_publ_section_title
;
Structure prediction by ZEFSAII (Michael W. Deem and Ramdas Pophale) SiO2 
 PCOD8185827
Probable space group: F M M 2
;
_chemical_formula_sum "Si O2"
_cell_formula_units_Z 112
_cell_length_a 9.559185
_cell_length_b 28.720985
_cell_length_c 25.664377
_cell_angle_alpha 90.000000
_cell_angle_beta 90.000000
_cell_angle_gamma 90.000000
_cell_volume 7046.134405
_symmetry_space_group_name_H-M "F M M 2"
_symmetry_group_IT_number 42
_symmetry_cell_setting 'orthorhombic'
loop_
_space_group_symop_operation_xyz
x,y,z
-x,-y,z
-x,y,z
x,-y,z
x,1/2+y,1/2+z
-x,1/2-y,1/2+z
-x,1/2+y,1/2+z
x,1/2-y,1/2+z
1/2+x,y,1/2+z
1/2-x,-y,1/2+z
1/2-x,y,1/2+z
1/2+x,-y,1/2+z
1/2+x,1/2+y,z
1/2-x,1/2-y,z
1/2-x,1/2+y,z
1/2+x,1/2-y,z
loop_
_atom_site_type_symbol
_atom_site_label
_atom_site_fract_x
_atom_site_fract_y
_atom_site_fract_z
Si Si1 0.662386 0.293872 0.553840
Si Si2 0.833493 0.391769 0.093508
Si Si3 0.165951 0.448415 0.190366
Si Si4 0.836853 0.554064 0.307677
Si Si5 0.166564 0.447574 0.994731
Si Si6 0.339376 0.793530 0.933030
Si Si7 0.164500 0.606408 0.892997
O O1 0.500000 0.283115 0.563157
O O2 0.750000 0.250000 0.574055
O O3 0.713829 0.338337 0.587003
O O4 0.692965 0.304546 0.493342
O O5 0.773898 0.411879 0.148052
O O6 0.000000 0.394414 0.091809
O O7 0.772631 0.422415 0.046001
O O8 0.225061 0.500000 0.177664
O O9 0.208821 0.433557 0.248614
O O10 0.000000 0.450288 0.186596
O O11 0.804373 0.500000 0.319744
O O12 0.745821 0.587583 0.343311
O O13 0.000000 0.564506 0.316711
O O14 0.224819 0.500000 0.993241
O O15 0.220135 0.420839 0.943658
O O16 0.000000 0.446849 0.996139
O O17 0.500000 0.779752 0.925707
O O18 0.250000 0.750000 0.912341
O O19 0.301344 0.839006 0.899525
O O20 0.000000 0.598015 0.884963
#
# Coordination Sequence:
#
# PCOD8185827 Si02
#       7
#    16  16  16  16  16  16  16
#     4   9  16  27  43  64  90 115 142 177 217 263
#     4   9  14  23  41  64  88 113 142 179 220 258
#     4   8  14  25  42  64  88 115 149 185 217 252
#     4   9  18  31  45  64  91 121 154 188 218 257
#     4   9  15  22  36  62  92 115 136 170 218 265
#     4   9  17  29  44  64  91 117 146 183 221 266
#     4  10  18  29  45  67  92 117 147 184 224 267
#
# _framework density 15.895241
#
# number of rings (size 3 to 8) (size 9 to 14) (size 15 to 20)
#    0.000    3.000    1.429    1.714    0.000    3.143 
#    0.000    0.000    0.000    1.714    0.000    4.000 
#    0.000    3.429    0.000    0.000    0.000    0.000 
#
# Total GULP energy -347104.629417 kJ/mol
# GULP energy per Si atom -12396.593908 kJ/mol
# Density = 1.585906 g / cm^3
# Si number density = 15.895241 Si / 1000 Ang^3
#
#
#
# Elastic Constant Matrix: (Units=GPa)
#
#
# Indices 1 2 3 4 5 6 
#
# 1 32.8300 46.7701 34.3676 0.0000 0.0000 0.0000
# 2 46.7701 145.7461 81.4506 0.0000 0.0000 0.0000
# 3 34.3676 81.4506 116.0635 0.0000 0.0000 0.0000
# 4 0.0000 0.0000 0.0000 24.9164 0.0000 0.0000
# 5 0.0000 0.0000 0.0000 0.0000 16.6788 0.0000
# 6 0.0000 0.0000 0.0000 0.0000 0.0000 23.0012
#
#
#
# Elastic Compliance Matrix: (Units=1/GPa)
#
#
# Indices 1 2 3 4 5 6 
#
# 1 0.059308 -0.015165 -0.006919 0.000000 0.000000 0.000000
# 2 -0.015165 0.015166 -0.006153 0.000000 0.000000 0.000000
# 3 -0.006919 -0.006153 0.014983 0.000000 0.000000 0.000000
# 4 0.000000 0.000000 0.000000 0.040134 0.000000 0.000000
# 5 0.000000 0.000000 0.000000 0.000000 0.059956 0.000000
# 6 0.000000 0.000000 0.000000 0.000000 0.000000 0.043476
#
#
# Mechanical properties :
#
#
# Convention : Reuss Voigt Hill
#
# Bulk Modulus (GPa) = 30.31903 68.86846 49.59375
# Shear Modulus (GPa) = 16.63942 21.72270 19.18106
#
# Velocity S-wave (km/s) = 3.23897 3.70079 3.47755
# Velocity P-wave (km/s) = 5.75357 7.85377 6.88423
#
# Compressibility (1/GPa) = 0.03298258
#
# Stress axis : x y z
#
# Youngs Moduli (GPa) = 16.86123 65.93598 66.74397
#
# Poissons Ratio (x) = 0.99993 0.46181
# Poissons Ratio (y) = 0.25570 0.41066
# Poissons Ratio (z) = 0.11666 0.40569
#
# Static dielectric constant tensor:
#      x y z
#    x 2.603290 0.000000 0.000000 
#    y 0.000000 3.162600 0.000000 
#    z 0.000000 0.000000 3.056530 
# 
# 
# High freq. dielectric constant tensor:
#      x y z
#    x 1.564240 0.000000 0.000000 
#    y 0.000000 1.616070 0.000000 
#    z 0.000000 0.000000 1.599300 
# 
# From -- ./inp_files/24555.got.cif
#   From: 2010.03.12/outbox.cif.g09.slc.cpg/sg42_13_cif.got.tgz:24555.got - 2010.04.14 02:04:31.
