data_PCOD8185995
_publ_section_title
;
Structure prediction by ZEFSAII (Michael W. Deem and Ramdas Pophale) SiO2 
 PCOD8185995
Probable space group: F M M 2
;
_chemical_formula_sum "Si O2"
_cell_formula_units_Z 96
_cell_length_a 28.162584
_cell_length_b 7.888897
_cell_length_c 25.071280
_cell_angle_alpha 90.000000
_cell_angle_beta 90.000000
_cell_angle_gamma 90.000000
_cell_volume 5570.129511
_symmetry_space_group_name_H-M "F M M 2"
_symmetry_group_IT_number 42
_symmetry_cell_setting 'orthorhombic'
loop_
_space_group_symop_operation_xyz
x,y,z
-x,-y,z
-x,y,z
x,-y,z
x,1/2+y,1/2+z
-x,1/2-y,1/2+z
-x,1/2+y,1/2+z
x,1/2-y,1/2+z
1/2+x,y,1/2+z
1/2-x,-y,1/2+z
1/2-x,y,1/2+z
1/2+x,-y,1/2+z
1/2+x,1/2+y,z
1/2-x,1/2-y,z
1/2-x,1/2+y,z
1/2+x,1/2-y,z
loop_
_atom_site_type_symbol
_atom_site_label
_atom_site_fract_x
_atom_site_fract_y
_atom_site_fract_z
Si Si1 0.803554 0.803730 0.398390
Si Si2 0.553011 0.500000 0.715737
Si Si3 0.804335 0.691368 0.287093
Si Si4 0.383439 0.189510 0.590805
Si Si5 0.052940 0.000000 0.589159
Si Si6 0.616636 0.310747 0.213739
Si Si7 0.195532 0.302440 0.015586
O O1 0.750000 0.750000 0.405487
O O2 0.825644 0.705695 0.347554
O O3 0.826292 0.762547 0.456302
O O4 0.807261 0.000000 0.384171
O O5 0.500000 0.500000 0.740293
O O6 0.549883 0.500000 0.652456
O O7 0.579774 0.670037 0.735713
O O8 0.808197 0.500000 0.267173
O O9 0.750000 0.750000 0.286564
O O10 0.834625 0.804618 0.246771
O O11 0.420482 0.329846 0.569103
O O12 0.370967 0.226779 0.652291
O O13 0.334696 0.198013 0.558106
O O14 0.405169 0.000000 0.584342
O O15 0.000000 0.000000 0.564552
O O16 0.594693 0.500000 0.220192
O O17 0.190758 0.500000 0.028209
O O18 0.250000 0.250000 0.021045
#
# Coordination Sequence:
#
# PCOD8185995 Si02
#       7
#    16   8  16  16   8  16  16
#     4   9  17  29  45  67  95 129 169 212 247 283
#     4   9  18  34  54  76  99 128 164 208 255 294
#     4  11  20  31  48  70 101 138 171 208 246 291
#     4  10  20  33  51  74 104 134 166 205 247 300
#     4   9  18  34  54  74 101 128 162 212 253 292
#     4  10  20  34  50  74 105 133 166 206 246 300
#     4  10  19  31  48  70 103 138 170 208 246 289
#
# _framework density 17.234787000000001
#
# number of rings (size 3 to 8) (size 9 to 14) (size 15 to 20)
#    0.000    2.167    1.667    3.500    0.000    3.333 
#    0.000    3.333    0.000    0.000    0.000    1.167 
#    0.000    0.000    0.000    0.000    0.000    0.000 
#
# Total GULP energy -297462.258153 kJ/mol
# GULP energy per Si atom -12394.260756 kJ/mol
# Density = 1.719556 g / cm^3
# Si number density = 17.234787 Si / 1000 Ang^3
#
#
#
# Elastic Constant Matrix: (Units=GPa)
#
#
# Indices 1 2 3 4 5 6 
#
# 1 86.8506 42.3265 37.9960 -0.0001 0.0001 0.0005
# 2 42.3265 118.4315 33.4423 -0.0002 0.0001 0.0004
# 3 37.9960 33.4423 67.2385 0.0000 0.0000 0.0002
# 4 -0.0001 -0.0002 0.0000 22.8268 0.0000 0.0001
# 5 0.0001 0.0001 0.0000 0.0000 1.7155 -0.0002
# 6 0.0005 0.0004 0.0002 0.0001 -0.0002 19.6577
#
#
#
# Elastic Compliance Matrix: (Units=1/GPa)
#
#
# Indices 1 2 3 4 5 6 
#
# 1 0.016670 -0.003837 -0.007512 0.000000 -0.000001 0.000000
# 2 -0.003837 0.010706 -0.003157 0.000000 0.000000 0.000000
# 3 -0.007512 -0.003157 0.020688 0.000000 0.000001 0.000000
# 4 0.000000 0.000000 0.000000 0.043808 0.000001 0.000000
# 5 -0.000001 0.000000 0.000001 0.000001 0.582915 0.000004
# 6 0.000000 0.000000 0.000000 0.000000 0.000004 0.050871
#
#
# Mechanical properties :
#
#
# Convention : Reuss Voigt Hill
#
# Bulk Modulus (GPa) = 52.48516 55.56110 54.02313
# Shear Modulus (GPa) = 6.57013 19.42373 12.99693
#
# Velocity S-wave (km/s) = 1.95459 3.36073 2.74909
# Velocity P-wave (km/s) = 5.96767 6.88238 6.44128
#
# Compressibility (1/GPa) = 0.01905300
#
# Stress axis : x y z
#
# Youngs Moduli (GPa) = 59.98736 93.40284 48.33816
#
# Poissons Ratio (x) = 0.35835 0.36312
# Poissons Ratio (y) = 0.23015 0.15260
# Poissons Ratio (z) = 0.45063 0.29487
#
# Static dielectric constant tensor:
#      x y z
#    x 3.012870 0.000000 0.000000 
#    y 0.000000 3.467470 0.000000 
#    z 0.000000 0.000000 3.369990 
# 
# 
# High freq. dielectric constant tensor:
#      x y z
#    x 1.622800 0.000000 0.000000 
#    y 0.000000 1.687960 0.000000 
#    z 0.000000 0.000000 1.652010 
# 
# From -- ./inp_files/28215.got.cif
#   From: 2010.03.12/outbox.cif.g09.slc.cpg/sg42_15_cif.got.tgz:28215.got - 2010.04.14 02:04:31.
