data_PCOD8185159
_publ_section_title
;
Structure prediction by ZEFSAII (Michael W. Deem and Ramdas Pophale) SiO2 
 PCOD8185159
Probable space group: A B A 2
;
_chemical_formula_sum "Si O2"
_cell_formula_units_Z 52
_cell_length_a 16.685478
_cell_length_b 9.243263
_cell_length_c 15.930678
_cell_angle_alpha 90.000000
_cell_angle_beta 90.000000
_cell_angle_gamma 90.000000
_cell_volume 2456.960771
_symmetry_space_group_name_H-M "A B A 2"
_symmetry_group_IT_number 41
_symmetry_cell_setting 'orthorhombic'
loop_
_space_group_symop_operation_xyz
x,y,z
-x,-y,z
1/2-x,y,1/2+z
1/2+x,-y,1/2+z
x,1/2+y,1/2+z
-x,1/2-y,1/2+z
1/2-x,1/2+y,z
1/2+x,1/2-y,z
loop_
_atom_site_type_symbol
_atom_site_label
_atom_site_fract_x
_atom_site_fract_y
_atom_site_fract_z
Si Si1 0.726324 0.937333 0.614250
Si Si2 0.019920 0.741509 0.507557
Si Si3 0.165978 0.503649 0.794113
Si Si4 0.315854 0.318581 0.822906
Si Si5 0.000000 0.000000 0.382142
Si Si6 0.885657 0.037223 0.981173
Si Si7 0.353731 0.348662 0.636930
O O1 0.671842 0.984202 0.693645
O O2 0.695517 0.019965 0.532441
O O3 0.819094 0.988742 0.621078
O O4 0.716389 0.763947 0.607085
O O5 0.991859 0.859668 0.440420
O O6 0.078471 0.622847 0.466234
O O7 0.063338 0.819211 0.587381
O O8 0.942226 0.647845 0.534359
O O9 0.225598 0.377890 0.823139
O O10 0.194961 0.649103 0.841130
O O11 0.075517 0.472405 0.821847
O O12 0.370329 0.395961 0.890781
O O13 0.366252 0.335969 0.736518
#
# Coordination Sequence:
#
# PCOD8185159 Si02
#       7
#     8   8   8   8   4   8   8
#     4   9  20  37  61  88 117 163 206 255 309 382
#     4  10  23  40  58  89 125 162 206 262 325 382
#     4  10  23  39  61  91 127 164 213 263 324 381
#     4  10  21  40  63  93 123 167 215 264 313 393
#     4  12  24  40  60  94 128 162 216 270 324 378
#     4  10  21  40  63  88 121 165 211 254 328 382
#     4   9  20  39  61  87 125 160 208 257 316 381
#
# _framework density 21.164358
#
# number of rings (size 3 to 8) (size 9 to 14) (size 15 to 20)
#    0.000    2.154    1.538    0.000    4.308    6.154 
#    0.000    1.538    0.000    0.000    0.000    0.000 
#    0.000    0.000    0.000    0.000    0.000    0.000 
#
# Total GULP energy -322219.217609 kJ/mol
# GULP energy per Si atom -12393.046831 kJ/mol
# Density = 2.111619 g / cm^3
# Si number density = 21.164358 Si / 1000 Ang^3
#
#
#
# Elastic Constant Matrix: (Units=GPa)
#
#
# Indices 1 2 3 4 5 6 
#
# 1 71.8212 6.0594 29.5390 0.0000 0.0000 0.0000
# 2 6.0594 65.0795 19.9923 0.0000 0.0000 0.0000
# 3 29.5390 19.9923 93.0861 0.0000 0.0000 0.0000
# 4 0.0000 0.0000 0.0000 30.3345 0.0000 0.0000
# 5 0.0000 0.0000 0.0000 0.0000 27.9429 0.0000
# 6 0.0000 0.0000 0.0000 0.0000 0.0000 29.0014
#
#
#
# Elastic Compliance Matrix: (Units=1/GPa)
#
#
# Indices 1 2 3 4 5 6 
#
# 1 0.016014 0.000075 -0.005098 0.000000 0.000000 0.000000
# 2 0.000075 0.016452 -0.003557 0.000000 0.000000 0.000000
# 3 -0.005098 -0.003557 0.013124 0.000000 0.000000 0.000000
# 4 0.000000 0.000000 0.000000 0.032966 0.000000 0.000000
# 5 0.000000 0.000000 0.000000 0.000000 0.035787 0.000000
# 6 0.000000 0.000000 0.000000 0.000000 0.000000 0.034481
#
#
# Mechanical properties :
#
#
# Convention : Reuss Voigt Hill
#
# Bulk Modulus (GPa) = 35.17414 37.90758 36.54086
# Shear Modulus (GPa) = 28.49646 29.08216 28.78931
#
# Velocity S-wave (km/s) = 3.67336 3.71092 3.69219
# Velocity P-wave (km/s) = 5.88618 6.02588 5.95643
#
# Compressibility (1/GPa) = 0.02842997
#
# Stress axis : x y z
#
# Youngs Moduli (GPa) = 62.44628 60.78440 76.19401
#
# Poissons Ratio (x) = -0.00456 0.38842
# Poissons Ratio (y) = -0.00469 0.27103
# Poissons Ratio (z) = 0.31834 0.21622
#
# Static dielectric constant tensor:
#      x y z
#    x 3.591650 0.000000 0.000000 
#    y 0.000000 4.073600 0.000000 
#    z 0.000000 0.000000 3.745760 
# 
# 
# High freq. dielectric constant tensor:
#      x y z
#    x 1.810910 0.000000 0.000000 
#    y 0.000000 1.843760 0.000000 
#    z 0.000000 0.000000 1.821720 
# 
# From -- ./inp_files/10568.got.cif
#   From: 2010.03.12/outbox.cif.g09.slc.cpg/sg41_6_cif.got.tgz:10568.got - 2010.04.14 01:55:53.
