data_PCOD8185177
_publ_section_title
;
Structure prediction by ZEFSAII (Michael W. Deem and Ramdas Pophale) SiO2 
 PCOD8185177
Probable space group: A B A 2
;
_chemical_formula_sum "Si O2"
_cell_formula_units_Z 64
_cell_length_a 30.320464
_cell_length_b 8.118526
_cell_length_c 12.133629
_cell_angle_alpha 90.000000
_cell_angle_beta 90.000000
_cell_angle_gamma 90.000000
_cell_volume 2986.783481
_symmetry_space_group_name_H-M "A B A 2"
_symmetry_group_IT_number 41
_symmetry_cell_setting 'orthorhombic'
loop_
_space_group_symop_operation_xyz
x,y,z
-x,-y,z
1/2-x,y,1/2+z
1/2+x,-y,1/2+z
x,1/2+y,1/2+z
-x,1/2-y,1/2+z
1/2-x,1/2+y,z
1/2+x,1/2-y,z
loop_
_atom_site_type_symbol
_atom_site_label
_atom_site_fract_x
_atom_site_fract_y
_atom_site_fract_z
Si Si1 0.804848 0.709570 0.781080
Si Si2 0.542067 0.611850 0.967580
Si Si3 0.735761 0.505381 0.655969
Si Si4 0.906222 0.173033 0.312128
Si Si5 0.395716 0.161173 0.541635
Si Si6 0.202961 0.202666 0.025851
Si Si7 0.521339 0.319407 0.668943
Si Si8 0.937723 0.811459 0.261800
O O1 0.776280 0.561007 0.732622
O O2 0.795692 0.880408 0.719441
O O3 0.856323 0.670209 0.768284
O O4 0.789908 0.721639 0.906671
O O5 0.500000 0.500000 0.933132
O O6 0.567022 0.678269 0.859455
O O7 0.577086 0.508386 0.038300
O O8 0.527935 0.767507 0.041871
O O9 0.705051 0.655051 0.618362
O O10 0.757774 0.425522 0.547438
O O11 0.909156 0.221352 0.440633
O O12 0.933598 0.306165 0.239846
O O13 0.925423 0.991208 0.303953
O O14 0.344336 0.115041 0.535884
O O15 0.407259 0.246948 0.658562
O O16 0.500000 0.500000 0.673683
O O17 0.488340 0.186341 0.722531
#
# Coordination Sequence:
#
# PCOD8185177 Si02
#       8
#     8   8   8   8   8   8   8   8
#     4  10  22  42  67  96 134 166 217 266 324 392
#     4  12  25  47  65  96 132 177 221 274 327 387
#     4  10  21  40  67  96 129 171 210 261 332 390
#     4  11  24  46  67  98 136 174 221 277 327 389
#     4  11  24  44  65  97 135 171 220 273 325 388
#     4  10  22  40  66  95 130 167 214 265 324 388
#     4  12  26  43  71  94 132 177 226 275 332 390
#     4  12  25  44  69  94 133 174 221 272 327 387
#
# _framework density 21.427734999999998
#
# number of rings (size 3 to 8) (size 9 to 14) (size 15 to 20)
#    0.000    1.000    2.500    3.750    1.750    3.000 
#    2.250    1.250    0.000    0.000    0.000    0.000 
#    0.000    0.000    0.000    0.000    0.000    0.000 
#
# Total GULP energy -396913.827632 kJ/mol
# GULP energy per Si atom -12403.557114 kJ/mol
# Density = 2.137896 g / cm^3
# Si number density = 21.427735 Si / 1000 Ang^3
#
#
#
# Elastic Constant Matrix: (Units=GPa)
#
#
# Indices 1 2 3 4 5 6 
#
# 1 99.5081 53.2072 38.6446 0.0000 0.0000 0.0000
# 2 53.2072 112.2463 36.4616 0.0000 0.0000 0.0000
# 3 38.6446 36.4616 117.7503 0.0000 0.0000 0.0000
# 4 0.0000 0.0000 0.0000 15.9105 0.0000 0.0000
# 5 0.0000 0.0000 0.0000 0.0000 12.3655 0.0000
# 6 0.0000 0.0000 0.0000 0.0000 0.0000 9.2607
#
#
#
# Elastic Compliance Matrix: (Units=1/GPa)
#
#
# Indices 1 2 3 4 5 6 
#
# 1 0.014290 -0.005838 -0.002882 0.000000 0.000000 0.000000
# 2 -0.005838 0.012290 -0.001890 0.000000 0.000000 0.000000
# 3 -0.002882 -0.001890 0.010024 0.000000 0.000000 0.000000
# 4 0.000000 0.000000 0.000000 0.062852 0.000000 0.000000
# 5 0.000000 0.000000 0.000000 0.000000 0.080870 0.000000
# 6 0.000000 0.000000 0.000000 0.000000 0.000000 0.107983
#
#
# Mechanical properties :
#
#
# Convention : Reuss Voigt Hill
#
# Bulk Modulus (GPa) = 65.00038 65.12571 65.06305
# Shear Modulus (GPa) = 15.89035 20.92009 18.40522
#
# Velocity S-wave (km/s) = 2.72615 3.12798 2.93395
# Velocity P-wave (km/s) = 6.34899 6.59582 6.47359
#
# Compressibility (1/GPa) = 0.01538453
#
# Stress axis : x y z
#
# Youngs Moduli (GPa) = 69.97833 81.36712 99.76398
#
# Poissons Ratio (x) = 0.47499 0.28755
# Poissons Ratio (y) = 0.40850 0.18853
# Poissons Ratio (z) = 0.20170 0.15377
#
# Static dielectric constant tensor:
#      x y z
#    x 3.904890 0.000000 0.000000 
#    y 0.000000 3.708450 0.000000 
#    z 0.000000 0.000000 4.058150 
# 
# 
# High freq. dielectric constant tensor:
#      x y z
#    x 1.841800 0.000000 0.000000 
#    y 0.000000 1.836560 0.000000 
#    z 0.000000 0.000000 1.857740 
# 
# From -- ./inp_files/6695.got.cif
#   From: 2010.03.12/outbox.cif.g09.slc.cpg/sg41_4_cif.got.tgz:6695.got - 2010.04.14 01:55:53.
