data_PCOD8185164
_publ_section_title
;
Structure prediction by ZEFSAII (Michael W. Deem and Ramdas Pophale) SiO2 
 PCOD8185164
Probable space group: A B A 2
;
_chemical_formula_sum "Si O2"
_cell_formula_units_Z 64
_cell_length_a 17.646309
_cell_length_b 13.379062
_cell_length_c 12.730810
_cell_angle_alpha 90.000000
_cell_angle_beta 90.000000
_cell_angle_gamma 90.000000
_cell_volume 3005.630455
_symmetry_space_group_name_H-M "A B A 2"
_symmetry_group_IT_number 41
_symmetry_cell_setting 'orthorhombic'
loop_
_space_group_symop_operation_xyz
x,y,z
-x,-y,z
1/2-x,y,1/2+z
1/2+x,-y,1/2+z
x,1/2+y,1/2+z
-x,1/2-y,1/2+z
1/2-x,1/2+y,z
1/2+x,1/2-y,z
loop_
_atom_site_type_symbol
_atom_site_label
_atom_site_fract_x
_atom_site_fract_y
_atom_site_fract_z
Si Si1 0.530003 0.613279 0.830770
Si Si2 0.169156 0.369497 0.485556
Si Si3 0.579891 0.709821 0.620456
Si Si4 0.952963 0.691177 0.887460
Si Si5 0.788868 0.646524 0.812132
Si Si6 0.748697 0.272953 0.634324
Si Si7 0.300971 0.520147 0.155632
Si Si8 0.546449 0.405850 0.222258
O O1 0.500000 0.500000 0.840823
O O2 0.595296 0.639927 0.914536
O O3 0.563927 0.630641 0.713862
O O4 0.462401 0.691011 0.858138
O O5 0.245304 0.374007 0.418210
O O6 0.181322 0.275366 0.564130
O O7 0.163060 0.471763 0.551300
O O8 0.546858 0.669372 0.511264
O O9 0.668823 0.730733 0.601953
O O10 0.534282 0.812295 0.644391
O O11 0.878035 0.647249 0.833016
O O12 0.021356 0.625958 0.839300
O O13 0.765368 0.751005 0.757906
O O14 0.761758 0.563580 0.726916
O O15 0.743033 0.392834 0.620627
O O16 0.365122 0.570198 0.228161
O O17 0.500000 0.500000 0.177416
#
# Coordination Sequence:
#
# PCOD8185164 Si02
#       8
#     8   8   8   8   8   8   8   8
#     4  11  27  44  66  99 140 182 226 282 344 415
#     4  11  24  42  68  99 130 178 221 280 339 403
#     4  10  22  42  65  96 134 175 219 279 338 395
#     4  11  24  42  69  98 132 181 222 281 340 403
#     4  11  22  43  66  96 135 167 226 277 336 404
#     4  10  22  43  67  94 134 170 218 285 334 399
#     4  10  24  41  66  97 128 175 222 274 330 411
#     4  10  21  40  64  96 129 167 222 272 328 399
#
# _framework density 21.293368999999998
#
# number of rings (size 3 to 8) (size 9 to 14) (size 15 to 20)
#    0.000    1.500    3.750    0.000    5.250    3.500 
#    0.000    0.000    0.000    0.000    0.000    0.000 
#    0.000    0.000    0.000    0.000    0.000    0.000 
#
# Total GULP energy -396751.740744 kJ/mol
# GULP energy per Si atom -12398.491898 kJ/mol
# Density = 2.124490 g / cm^3
# Si number density = 21.293369 Si / 1000 Ang^3
#
#
#
# Elastic Constant Matrix: (Units=GPa)
#
#
# Indices 1 2 3 4 5 6 
#
# 1 62.3871 38.8704 33.7600 0.0000 0.0000 0.0000
# 2 38.8704 125.6613 43.0171 0.0000 0.0000 0.0000
# 3 33.7600 43.0171 130.9465 0.0000 0.0000 0.0000
# 4 0.0000 0.0000 0.0000 22.4318 0.0000 0.0000
# 5 0.0000 0.0000 0.0000 0.0000 32.3598 0.0000
# 6 0.0000 0.0000 0.0000 0.0000 0.0000 29.5836
#
#
#
# Elastic Compliance Matrix: (Units=1/GPa)
#
#
# Indices 1 2 3 4 5 6 
#
# 1 0.021384 -0.005326 -0.003763 0.000000 0.000000 0.000000
# 2 -0.005326 0.010293 -0.002008 0.000000 0.000000 0.000000
# 3 -0.003763 -0.002008 0.009267 0.000000 0.000000 0.000000
# 4 0.000000 0.000000 0.000000 0.044580 0.000000 0.000000
# 5 0.000000 0.000000 0.000000 0.000000 0.030903 0.000000
# 6 0.000000 0.000000 0.000000 0.000000 0.000000 0.033803
#
#
# Mechanical properties :
#
#
# Convention : Reuss Voigt Hill
#
# Bulk Modulus (GPa) = 53.33919 61.14331 57.24125
# Shear Modulus (GPa) = 27.98406 30.43154 29.20780
#
# Velocity S-wave (km/s) = 3.62914 3.78452 3.70764
# Velocity P-wave (km/s) = 6.53184 6.91909 6.72825
#
# Compressibility (1/GPa) = 0.01874794
#
# Stress axis : x y z
#
# Youngs Moduli (GPa) = 46.76379 97.15429 107.91398
#
# Poissons Ratio (x) = 0.51748 0.40612
# Poissons Ratio (y) = 0.24908 0.21670
# Poissons Ratio (z) = 0.17599 0.19509
#
# Static dielectric constant tensor:
#      x y z
#    x 3.721640 0.000000 0.000000 
#    y 0.000000 3.998570 0.000000 
#    z 0.000000 0.000000 3.882910 
# 
# 
# High freq. dielectric constant tensor:
#      x y z
#    x 1.823980 0.000000 0.000000 
#    y 0.000000 1.834540 0.000000 
#    z 0.000000 0.000000 1.839910 
# 
# From -- ./inp_files/6023.got.cif
#   From: 2010.03.12/outbox.cif.g09.slc.cpg/sg41_4_cif.got.tgz:6023.got - 2010.04.14 01:55:53.
