data_PCOD8185280
_publ_section_title
;
Structure prediction by ZEFSAII (Michael W. Deem and Ramdas Pophale) SiO2 
 PCOD8185280
Probable space group: A B A 2
;
_chemical_formula_sum "Si O2"
_cell_formula_units_Z 52
_cell_length_a 16.574531
_cell_length_b 9.704924
_cell_length_c 15.539933
_cell_angle_alpha 90.000000
_cell_angle_beta 90.000000
_cell_angle_gamma 90.000000
_cell_volume 2499.669142
_symmetry_space_group_name_H-M "A B A 2"
_symmetry_group_IT_number 41
_symmetry_cell_setting 'orthorhombic'
loop_
_space_group_symop_operation_xyz
x,y,z
-x,-y,z
1/2-x,y,1/2+z
1/2+x,-y,1/2+z
x,1/2+y,1/2+z
-x,1/2-y,1/2+z
1/2-x,1/2+y,z
1/2+x,1/2-y,z
loop_
_atom_site_type_symbol
_atom_site_label
_atom_site_fract_x
_atom_site_fract_y
_atom_site_fract_z
Si Si1 0.708118 0.958327 0.586530
Si Si2 0.009826 0.845821 0.516944
Si Si3 0.173427 0.517394 0.779780
Si Si4 0.312746 0.325203 0.807966
Si Si5 0.000000 0.000000 0.354151
Si Si6 0.920500 0.090853 0.966009
Si Si7 0.332230 0.333832 0.611700
O O1 0.679064 0.012988 0.678877
O O2 0.642169 0.995752 0.516094
O O3 0.793144 0.033315 0.565273
O O4 0.726763 0.796000 0.593712
O O5 0.086795 0.785456 0.564911
O O6 0.018882 0.866671 0.413935
O O7 0.940231 0.728631 0.523624
O O8 0.000000 0.000000 0.559168
O O9 0.228376 0.403905 0.828177
O O10 0.207974 0.663636 0.811731
O O11 0.078356 0.516246 0.796453
O O12 0.381551 0.366042 0.875312
O O13 0.346746 0.361775 0.712791
O O14 0.000000 0.000000 0.947725
#
# Coordination Sequence:
#
# PCOD8185280 Si02
#       7
#     8   8   8   8   4   8   8
#     4  10  24  38  67  89 127 163 213 262 325 384
#     4  10  23  40  60  90 127 162 215 260 328 384
#     4  10  22  44  64  94 123 170 212 266 326 395
#     4  10  23  42  64  91 131 166 221 262 329 391
#     4  10  22  38  68  90 122 162 214 258 328 380
#     4  12  24  41  62  99 127 168 215 274 326 382
#     4  10  22  43  62  91 125 173 211 268 320 399
#
# _framework density 20.802752999999999
#
# number of rings (size 3 to 8) (size 9 to 14) (size 15 to 20)
#    0.462    1.231    3.077    0.000    5.385    3.077 
#    0.000    0.000    0.000    0.000    0.000    0.000 
#    0.000    0.000    0.000    0.000    0.000    0.000 
#
# Total GULP energy -322170.852324 kJ/mol
# GULP energy per Si atom -12391.186628 kJ/mol
# Density = 2.075540 g / cm^3
# Si number density = 20.802753 Si / 1000 Ang^3
#
#
#
# Elastic Constant Matrix: (Units=GPa)
#
#
# Indices 1 2 3 4 5 6 
#
# 1 107.2144 34.5053 38.6571 0.0000 0.0000 0.0000
# 2 34.5053 110.8240 21.9508 0.0000 0.0000 0.0000
# 3 38.6571 21.9508 66.5444 0.0000 0.0000 0.0000
# 4 0.0000 0.0000 0.0000 22.1720 0.0000 0.0000
# 5 0.0000 0.0000 0.0000 0.0000 34.1513 0.0000
# 6 0.0000 0.0000 0.0000 0.0000 0.0000 37.7441
#
#
#
# Elastic Compliance Matrix: (Units=1/GPa)
#
#
# Indices 1 2 3 4 5 6 
#
# 1 0.012471 -0.002619 -0.006380 0.000000 0.000000 0.000000
# 2 -0.002619 0.010204 -0.001845 0.000000 0.000000 0.000000
# 3 -0.006380 -0.001845 0.019343 0.000000 0.000000 0.000000
# 4 0.000000 0.000000 0.000000 0.045102 0.000000 0.000000
# 5 0.000000 0.000000 0.000000 0.000000 0.029281 0.000000
# 6 0.000000 0.000000 0.000000 0.000000 0.000000 0.026494
#
#
# Mechanical properties :
#
#
# Convention : Reuss Voigt Hill
#
# Bulk Modulus (GPa) = 49.19046 52.75658 50.97352
# Shear Modulus (GPa) = 29.17847 31.44478 30.31162
#
# Velocity S-wave (km/s) = 3.74923 3.89211 3.82133
# Velocity P-wave (km/s) = 6.51458 6.75377 6.63525
#
# Compressibility (1/GPa) = 0.02032915
#
# Stress axis : x y z
#
# Youngs Moduli (GPa) = 80.18915 97.99988 51.69938
#
# Poissons Ratio (x) = 0.25666 0.32987
# Poissons Ratio (y) = 0.21001 0.09536
# Poissons Ratio (z) = 0.51165 0.18077
#
# Static dielectric constant tensor:
#      x y z
#    x 3.580730 0.000000 0.000000 
#    y 0.000000 3.980810 0.000000 
#    z 0.000000 0.000000 3.610490 
# 
# 
# High freq. dielectric constant tensor:
#      x y z
#    x 1.803260 0.000000 0.000000 
#    y 0.000000 1.829420 0.000000 
#    z 0.000000 0.000000 1.803790 
# 
# From -- ./inp_files/10567.got.cif
#   From: 2010.03.12/outbox.cif.g09.slc.cpg/sg41_6_cif.got.tgz:10567.got - 2010.04.14 01:55:53.
