data_PCOD8185433
_publ_section_title
;
Structure prediction by ZEFSAII (Michael W. Deem and Ramdas Pophale) SiO2 
 PCOD8185433
Probable space group: A B A 2
;
_chemical_formula_sum "Si O2"
_cell_formula_units_Z 56
_cell_length_a 14.926228
_cell_length_b 8.592368
_cell_length_c 19.104708
_cell_angle_alpha 90.000000
_cell_angle_beta 90.000000
_cell_angle_gamma 90.000000
_cell_volume 2450.210206
_symmetry_space_group_name_H-M "A B A 2"
_symmetry_group_IT_number 41
_symmetry_cell_setting 'orthorhombic'
loop_
_space_group_symop_operation_xyz
x,y,z
-x,-y,z
1/2-x,y,1/2+z
1/2+x,-y,1/2+z
x,1/2+y,1/2+z
-x,1/2-y,1/2+z
1/2-x,1/2+y,z
1/2+x,1/2-y,z
loop_
_atom_site_type_symbol
_atom_site_label
_atom_site_fract_x
_atom_site_fract_y
_atom_site_fract_z
Si Si1 0.369296 0.819176 0.479280
Si Si2 0.742392 0.968886 0.227270
Si Si3 0.027492 0.826093 0.404599
Si Si4 0.155043 0.776527 0.639535
Si Si5 0.312003 0.675983 0.985440
Si Si6 0.964116 0.671114 0.621436
Si Si7 0.873174 0.205579 0.267826
O O1 0.448217 0.793594 0.422997
O O2 0.287592 0.707358 0.455959
O O3 0.406584 0.769850 0.555597
O O4 0.338321 0.997210 0.478117
O O5 0.815158 0.851328 0.195795
O O6 0.667031 0.879219 0.272634
O O7 0.692898 0.057205 0.163487
O O8 0.793174 0.082097 0.281902
O O9 0.117839 0.782875 0.444679
O O10 0.045322 0.814478 0.321338
O O11 0.000000 0.000000 0.426068
O O12 0.194413 0.732570 0.564841
O O13 0.047307 0.785813 0.635427
O O14 0.901541 0.668457 0.688650
O O15 0.000000 0.500000 0.602557
#
# Coordination Sequence:
#
# PCOD8185433 Si02
#       7
#     8   8   8   8   8   8   8
#     4  12  25  48  75 105 145 189 245 299 368 434
#     4  10  23  43  70 106 135 180 237 290 359 432
#     4  12  28  48  70 104 142 194 247 299 367 436
#     4  11  21  42  73 107 138 180 231 293 361 423
#     4  12  24  46  74 104 146 191 234 304 362 434
#     4  12  21  42  72 104 144 182 230 303 354 415
#     4  11  25  46  69 101 141 185 234 298 358 425
#
# _framework density 22.855181999999999
#
# number of rings (size 3 to 8) (size 9 to 14) (size 15 to 20)
#    0.000    0.571    4.286    4.286    0.000    4.000 
#    7.714    0.000    0.000    0.000    0.000    0.000 
#    0.000    0.000    0.000    0.000    0.000    0.000 
#
# Total GULP energy -347354.736457 kJ/mol
# GULP energy per Si atom -12405.526302 kJ/mol
# Density = 2.280316 g / cm^3
# Si number density = 22.855182 Si / 1000 Ang^3
#
#
#
# Elastic Constant Matrix: (Units=GPa)
#
#
# Indices 1 2 3 4 5 6 
#
# 1 161.5957 56.5559 44.2151 0.0000 0.0000 0.0000
# 2 56.5559 114.0597 39.4593 0.0000 0.0000 0.0000
# 3 44.2151 39.4593 89.1912 0.0000 0.0000 0.0000
# 4 0.0000 0.0000 0.0000 24.0513 0.0000 0.0000
# 5 0.0000 0.0000 0.0000 0.0000 35.8612 0.0000
# 6 0.0000 0.0000 0.0000 0.0000 0.0000 35.5058
#
#
#
# Elastic Compliance Matrix: (Units=1/GPa)
#
#
# Indices 1 2 3 4 5 6 
#
# 1 0.007968 -0.003051 -0.002600 0.000000 0.000000 0.000000
# 2 -0.003051 0.011520 -0.003584 0.000000 0.000000 0.000000
# 3 -0.002600 -0.003584 0.014086 0.000000 0.000000 0.000000
# 4 0.000000 0.000000 0.000000 0.041578 0.000000 0.000000
# 5 0.000000 0.000000 0.000000 0.000000 0.027885 0.000000
# 6 0.000000 0.000000 0.000000 0.000000 0.000000 0.028164
#
#
# Mechanical properties :
#
#
# Convention : Reuss Voigt Hill
#
# Bulk Modulus (GPa) = 66.20887 71.70081 68.95484
# Shear Modulus (GPa) = 32.31927 34.05809 33.18868
#
# Velocity S-wave (km/s) = 3.76452 3.86446 3.81482
# Velocity P-wave (km/s) = 6.92295 7.16603 7.04554
#
# Compressibility (1/GPa) = 0.01510372
#
# Stress axis : x y z
#
# Youngs Moduli (GPa) = 125.50951 86.80403 70.99070
#
# Poissons Ratio (x) = 0.26486 0.18457
# Poissons Ratio (y) = 0.38296 0.25444
# Poissons Ratio (z) = 0.32631 0.31111
#
# Static dielectric constant tensor:
#      x y z
#    x 4.458980 0.000000 0.000000 
#    y 0.000000 4.205960 0.000000 
#    z 0.000000 0.000000 3.933130 
# 
# 
# High freq. dielectric constant tensor:
#      x y z
#    x 1.921610 0.000000 0.000000 
#    y 0.000000 1.903600 0.000000 
#    z 0.000000 0.000000 1.887220 
# 
# From -- ./inp_files/11548.got.cif
#   From: 2010.03.12/outbox.cif.g09.slc.cpg/sg41_6_cif.got.tgz:11548.got - 2010.04.14 01:55:53.
