data_PCOD8185297
_publ_section_title
;
Structure prediction by ZEFSAII (Michael W. Deem and Ramdas Pophale) SiO2 
 PCOD8185297
Probable space group: A B A 2
;
_chemical_formula_sum "Si O2"
_cell_formula_units_Z 64
_cell_length_a 15.093166
_cell_length_b 11.158465
_cell_length_c 17.700480
_cell_angle_alpha 90.000000
_cell_angle_beta 90.000000
_cell_angle_gamma 90.000000
_cell_volume 2981.054032
_symmetry_space_group_name_H-M "A B A 2"
_symmetry_group_IT_number 41
_symmetry_cell_setting 'orthorhombic'
loop_
_space_group_symop_operation_xyz
x,y,z
-x,-y,z
1/2-x,y,1/2+z
1/2+x,-y,1/2+z
x,1/2+y,1/2+z
-x,1/2-y,1/2+z
1/2-x,1/2+y,z
1/2+x,1/2-y,z
loop_
_atom_site_type_symbol
_atom_site_label
_atom_site_fract_x
_atom_site_fract_y
_atom_site_fract_z
Si Si1 0.556294 0.380334 0.051800
Si Si2 0.347463 0.236069 0.256692
Si Si3 0.819883 0.335247 0.420161
Si Si4 0.896800 0.511054 0.808675
Si Si5 0.643879 0.032766 0.114131
Si Si6 0.796732 0.567328 0.950124
Si Si7 0.202982 0.102150 0.181929
Si Si8 0.519593 0.324314 0.638627
O O1 0.500000 0.500000 0.040710
O O2 0.638790 0.388238 0.110143
O O3 0.483325 0.290225 0.084471
O O4 0.591344 0.330839 0.971274
O O5 0.340874 0.152896 0.331399
O O6 0.350036 0.374571 0.273241
O O7 0.266886 0.216383 0.196892
O O8 0.441948 0.203704 0.220740
O O9 0.775506 0.460784 0.446220
O O10 0.767600 0.205482 0.428208
O O11 0.875703 0.515173 0.897498
O O12 0.851385 0.406185 0.760362
O O13 0.000000 0.500000 0.795292
O O14 0.580259 0.129082 0.154630
O O15 0.729129 0.007903 0.166369
O O16 0.584935 0.915788 0.096510
O O17 0.671824 0.086067 0.034558
#
# Coordination Sequence:
#
# PCOD8185297 Si02
#       8
#     8   8   8   8   8   8   8   8
#     4  12  25  42  68 101 140 180 233 296 354 414
#     4  10  23  43  66  99 135 183 230 287 352 421
#     4  11  24  46  69 102 141 184 232 289 350 427
#     4  11  24  41  68  98 140 179 230 289 352 418
#     4  10  22  39  68  95 125 180 221 284 339 414
#     4  11  23  45  71  99 137 180 238 280 351 423
#     4  11  22  41  66  95 135 179 232 282 347 416
#     4  10  22  42  65  98 132 172 235 280 346 411
#
# _framework density 21.468917000000001
#
# number of rings (size 3 to 8) (size 9 to 14) (size 15 to 20)
#    0.000    1.250    3.750    1.875    3.500    1.000 
#    4.500    0.000    0.000    0.000    0.000    0.000 
#    0.000    0.000    0.000    0.000    0.000    0.000 
#
# Total GULP energy -396452.522825 kJ/mol
# GULP energy per Si atom -12389.141338 kJ/mol
# Density = 2.142005 g / cm^3
# Si number density = 21.468917 Si / 1000 Ang^3
#
#
#
# Elastic Constant Matrix: (Units=GPa)
#
#
# Indices 1 2 3 4 5 6 
#
# 1 84.7438 6.6322 24.1015 0.0000 0.0000 0.0000
# 2 6.6322 80.2655 -2.0152 0.0000 0.0000 0.0000
# 3 24.1015 -2.0152 71.7685 0.0000 0.0000 0.0000
# 4 0.0000 0.0000 0.0000 10.5290 0.0000 0.0000
# 5 0.0000 0.0000 0.0000 0.0000 39.2942 0.0000
# 6 0.0000 0.0000 0.0000 0.0000 0.0000 29.0867
#
#
#
# Elastic Compliance Matrix: (Units=1/GPa)
#
#
# Indices 1 2 3 4 5 6 
#
# 1 0.013161 -0.001199 -0.004453 0.000000 0.000000 0.000000
# 2 -0.001199 0.012577 0.000756 0.000000 0.000000 0.000000
# 3 -0.004453 0.000756 0.015450 0.000000 0.000000 0.000000
# 4 0.000000 0.000000 0.000000 0.094975 0.000000 0.000000
# 5 0.000000 0.000000 0.000000 0.000000 0.025449 0.000000
# 6 0.000000 0.000000 0.000000 0.000000 0.000000 0.034380
#
#
# Mechanical properties :
#
#
# Convention : Reuss Voigt Hill
#
# Bulk Modulus (GPa) = 31.85278 32.69054 32.27166
# Shear Modulus (GPa) = 23.12134 29.65261 26.38697
#
# Velocity S-wave (km/s) = 3.28528 3.72047 3.50962
# Velocity P-wave (km/s) = 5.40922 5.80653 5.61139
#
# Compressibility (1/GPa) = 0.03139444
#
# Stress axis : x y z
#
# Youngs Moduli (GPa) = 75.98397 79.51193 64.72305
#
# Poissons Ratio (x) = 0.09536 0.28823
# Poissons Ratio (y) = 0.09112 -0.04892
# Poissons Ratio (z) = 0.33838 -0.06010
#
# Static dielectric constant tensor:
#      x y z
#    x 3.840970 0.000000 0.000000 
#    y 0.000000 4.048870 0.000000 
#    z 0.000000 0.000000 4.054060 
# 
# 
# High freq. dielectric constant tensor:
#      x y z
#    x 1.834690 0.000000 0.000000 
#    y 0.000000 1.850860 0.000000 
#    z 0.000000 0.000000 1.845340 
# 
# From -- ./inp_files/10434.got.cif
#   From: 2010.03.12/outbox.cif.g09.slc.cpg/sg41_6_cif.got.tgz:10434.got - 2010.04.14 01:55:53.
