data_PCOD8185103
_publ_section_title
;
Structure prediction by ZEFSAII (Michael W. Deem and Ramdas Pophale) SiO2 
 PCOD8185103
Probable space group: A B A 2
;
_chemical_formula_sum "Si O2"
_cell_formula_units_Z 64
_cell_length_a 26.254173
_cell_length_b 9.442636
_cell_length_c 13.987618
_cell_angle_alpha 90.000000
_cell_angle_beta 90.000000
_cell_angle_gamma 90.000000
_cell_volume 3467.650783
_symmetry_space_group_name_H-M "A B A 2"
_symmetry_group_IT_number 41
_symmetry_cell_setting 'orthorhombic'
loop_
_space_group_symop_operation_xyz
x,y,z
-x,-y,z
1/2-x,y,1/2+z
1/2+x,-y,1/2+z
x,1/2+y,1/2+z
-x,1/2-y,1/2+z
1/2-x,1/2+y,z
1/2+x,1/2-y,z
loop_
_atom_site_type_symbol
_atom_site_label
_atom_site_fract_x
_atom_site_fract_y
_atom_site_fract_z
Si Si1 0.389035 0.537446 0.389650
Si Si2 0.122449 0.550731 0.670875
Si Si3 0.803142 0.951906 0.538083
Si Si4 0.458584 0.612485 0.020964
Si Si5 0.699933 0.780226 0.541102
Si Si6 0.379905 0.216005 0.384593
Si Si7 0.877260 0.779793 0.668104
Si Si8 0.468703 0.135264 0.041396
O O1 0.383973 0.594398 0.281654
O O2 0.334234 0.560410 0.439209
O O3 0.403676 0.372690 0.389981
O O4 0.434340 0.616033 0.446233
O O5 0.067924 0.579468 0.622269
O O6 0.165660 0.649288 0.623988
O O7 0.137651 0.385657 0.658548
O O8 0.751914 0.863854 0.529539
O O9 0.836478 0.880411 0.619622
O O10 0.791406 0.114789 0.566629
O O11 0.500000 0.500000 0.993044
O O12 0.485316 0.761735 0.020526
O O13 0.416638 0.606402 0.937942
O O14 0.674335 0.789941 0.437104
O O15 0.374843 0.167429 0.276456
O O16 0.933546 0.806603 0.626764
O O17 0.500000 0.000000 0.076536
#
# Coordination Sequence:
#
# PCOD8185103 Si02
#       8
#     8   8   8   8   8   8   8   8
#     4   9  20  38  59  82 108 152 188 227 274 336
#     4  10  21  38  59  83 115 145 190 232 279 328
#     4  10  21  39  61  84 112 145 185 225 287 332
#     4  11  21  36  55  86 114 151 189 233 274 326
#     4  10  21  39  61  83 112 148 179 233 278 340
#     4   9  20  38  58  81 115 144 188 231 276 325
#     4  10  21  38  58  85 112 149 186 234 276 333
#     4  11  21  36  59  80 116 153 191 227 276 331
#
# _framework density 18.456299000000001
#
# number of rings (size 3 to 8) (size 9 to 14) (size 15 to 20)
#    0.000    2.000    2.500    0.750    1.750    3.000 
#    2.250    2.500    0.000    0.000    0.000    0.000 
#    0.000    0.000    0.000    0.000    0.000    0.000 
#
# Total GULP energy -396770.484483 kJ/mol
# GULP energy per Si atom -12399.077640 kJ/mol
# Density = 1.841429 g / cm^3
# Si number density = 18.456299 Si / 1000 Ang^3
#
#
#
# Elastic Constant Matrix: (Units=GPa)
#
#
# Indices 1 2 3 4 5 6 
#
# 1 97.0304 47.2442 43.0946 0.0000 0.0000 0.0000
# 2 47.2442 110.0546 42.4903 0.0000 0.0000 0.0000
# 3 43.0946 42.4903 144.3999 0.0000 0.0000 0.0000
# 4 0.0000 0.0000 0.0000 24.2084 0.0000 0.0000
# 5 0.0000 0.0000 0.0000 0.0000 12.3334 0.0000
# 6 0.0000 0.0000 0.0000 0.0000 0.0000 43.3191
#
#
#
# Elastic Compliance Matrix: (Units=1/GPa)
#
#
# Indices 1 2 3 4 5 6 
#
# 1 0.013904 -0.004926 -0.002700 0.000000 0.000000 0.000000
# 2 -0.004926 0.011996 -0.002060 0.000000 0.000000 0.000000
# 3 -0.002700 -0.002060 0.008337 0.000000 0.000000 0.000000
# 4 0.000000 0.000000 0.000000 0.041308 0.000000 0.000000
# 5 0.000000 0.000000 0.000000 0.000000 0.081081 0.000000
# 6 0.000000 0.000000 0.000000 0.000000 0.000000 0.023085
#
#
# Mechanical properties :
#
#
# Convention : Reuss Voigt Hill
#
# Bulk Modulus (GPa) = 67.27029 68.57146 67.92087
# Shear Modulus (GPa) = 24.50531 30.54921 27.52726
#
# Velocity S-wave (km/s) = 3.64778 4.07285 3.86616
# Velocity P-wave (km/s) = 7.36677 7.70400 7.53727
#
# Compressibility (1/GPa) = 0.01486540
#
# Stress axis : x y z
#
# Youngs Moduli (GPa) = 71.92314 83.35841 119.94626
#
# Poissons Ratio (x) = 0.41064 0.32384
# Poissons Ratio (y) = 0.35431 0.24707
# Poissons Ratio (z) = 0.19418 0.17170
#
# Static dielectric constant tensor:
#      x y z
#    x 3.476160 0.000000 0.000000 
#    y 0.000000 3.427560 0.000000 
#    z 0.000000 0.000000 3.425530 
# 
# 
# High freq. dielectric constant tensor:
#      x y z
#    x 1.722480 0.000000 0.000000 
#    y 0.000000 1.722070 0.000000 
#    z 0.000000 0.000000 1.712610 
# 
# From -- ./inp_files/9141.got.cif
#   From: 2010.03.12/outbox.cif.g09.slc.cpg/sg41_5_cif.got.tgz:9141.got - 2010.04.14 01:55:53.
