data_PCOD8185828
_publ_section_title
;
Structure prediction by ZEFSAII (Michael W. Deem and Ramdas Pophale) SiO2 
 PCOD8185828
Probable space group: F M M 2
;
_chemical_formula_sum "Si O2"
_cell_formula_units_Z 96
_cell_length_a 25.701290
_cell_length_b 22.430104
_cell_length_c 7.397916
_cell_angle_alpha 90.000000
_cell_angle_beta 90.000000
_cell_angle_gamma 90.000000
_cell_volume 4264.769907
_symmetry_space_group_name_H-M "F M M 2"
_symmetry_group_IT_number 42
_symmetry_cell_setting 'orthorhombic'
loop_
_space_group_symop_operation_xyz
x,y,z
-x,-y,z
-x,y,z
x,-y,z
x,1/2+y,1/2+z
-x,1/2-y,1/2+z
-x,1/2+y,1/2+z
x,1/2-y,1/2+z
1/2+x,y,1/2+z
1/2-x,-y,1/2+z
1/2-x,y,1/2+z
1/2+x,-y,1/2+z
1/2+x,1/2+y,z
1/2-x,1/2-y,z
1/2-x,1/2+y,z
1/2+x,1/2-y,z
loop_
_atom_site_type_symbol
_atom_site_label
_atom_site_fract_x
_atom_site_fract_y
_atom_site_fract_z
Si Si1 0.387832 0.319694 0.075480
Si Si2 0.711255 0.432466 0.464719
Si Si3 0.939705 0.794439 0.435979
Si Si4 0.149940 0.660578 0.140055
Si Si5 0.191219 0.260573 0.823846
Si Si6 0.824901 0.930820 0.059047
O O1 0.428991 0.324210 0.241502
O O2 0.333599 0.293019 0.149967
O O3 0.373462 0.387057 0.998532
O O4 0.415287 0.272509 0.935830
O O5 0.713037 0.500000 0.527804
O O6 0.674911 0.404499 0.624080
O O7 0.771245 0.410555 0.460699
O O8 0.684023 0.421681 0.273485
O O9 0.910895 0.835300 0.588386
O O10 0.000000 0.793627 0.484819
O O11 0.184230 0.698988 0.997291
O O12 0.162665 0.693643 0.333099
O O13 0.250000 0.250000 0.773785
O O14 0.839585 0.000000 0.017932
#
# Coordination Sequence:
#
# PCOD8185828 Si02
#       6
#    16  16  16  16  16  16
#     4  10  20  36  52  83 108 140 183 224 276 332
#     4  10  20  36  54  76 111 151 183 214 259 321
#     4  10  20  36  56  76 107 144 182 233 283 326
#     4  10  20  32  48  76 102 138 177 219 263 320
#     4  10  18  29  45  72 107 134 165 209 266 321
#     4  10  20  37  57  79 113 151 184 219 261 324
#
# _framework density 22.510007000000002
#
# number of rings (size 3 to 8) (size 9 to 14) (size 15 to 20)
#    0.000    2.000    3.333    2.000    0.000    2.667 
#    3.000    0.000    0.000    3.500    0.000    0.000 
#    0.000   10.667    0.000    0.000    0.000    0.000 
#
# Total GULP energy -297344.937716 kJ/mol
# GULP energy per Si atom -12389.372405 kJ/mol
# Density = 2.245877 g / cm^3
# Si number density = 22.510007 Si / 1000 Ang^3
#
#
#
# Elastic Constant Matrix: (Units=GPa)
#
#
# Indices 1 2 3 4 5 6 
#
# 1 157.7743 53.4663 9.3955 0.0038 -0.0010 -0.0012
# 2 53.4663 106.0261 9.1805 0.0026 -0.0009 -0.0026
# 3 9.3955 9.1805 33.3010 0.0199 -0.0081 -0.0076
# 4 0.0038 0.0026 0.0199 35.8601 -0.0066 -0.0060
# 5 -0.0010 -0.0009 -0.0081 -0.0066 20.8082 0.0014
# 6 -0.0012 -0.0026 -0.0076 -0.0060 0.0014 26.5308
#
#
#
# Elastic Compliance Matrix: (Units=1/GPa)
#
#
# Indices 1 2 3 4 5 6 
#
# 1 0.007686 -0.003778 -0.001127 0.000000 0.000000 0.000000
# 2 -0.003778 0.011520 -0.002110 0.000001 -0.000001 0.000000
# 3 -0.001127 -0.002110 0.030929 -0.000017 0.000012 0.000009
# 4 0.000000 0.000001 -0.000017 0.027886 0.000009 0.000006
# 5 0.000000 -0.000001 0.000012 0.000009 0.048058 -0.000003
# 6 0.000000 0.000000 0.000009 0.000006 -0.000003 0.037692
#
#
# Mechanical properties :
#
#
# Convention : Reuss Voigt Hill
#
# Bulk Modulus (GPa) = 27.69751 49.02068 38.35910
# Shear Modulus (GPa) = 26.33878 31.64376 28.99127
#
# Velocity S-wave (km/s) = 3.42437 3.75342 3.59266
# Velocity P-wave (km/s) = 5.28832 6.37250 5.85556
#
# Compressibility (1/GPa) = 0.03610432
#
# Stress axis : x y z
#
# Youngs Moduli (GPa) = 130.11380 86.80921 32.33247
#
# Poissons Ratio (x) = 0.32797 0.03643
# Poissons Ratio (y) = 0.49158 0.06821
# Poissons Ratio (z) = 0.14662 0.18315
#
# Static dielectric constant tensor:
#      x y z
#    x 3.780350 0.000000 -0.000010 
#    y 0.000000 4.369990 -0.000010 
#    z -0.000010 -0.000010 4.771090 
# 
# 
# High freq. dielectric constant tensor:
#      x y z
#    x 1.848670 0.000000 0.000000 
#    y 0.000000 1.876670 0.000000 
#    z 0.000000 0.000000 1.920720 
# 
# From -- ./inp_files/5260.got.cif
#   From: 2010.03.12/outbox.cif.g09.slc.cpg/sg42_3_cif.got.tgz:5260.got - 2010.04.14 02:04:31.
