data_PCOD8185067
_publ_section_title
;
Structure prediction by ZEFSAII (Michael W. Deem and Ramdas Pophale) SiO2 
 PCOD8185067
Probable space group: A B A 2
;
_chemical_formula_sum "Si O2"
_cell_formula_units_Z 56
_cell_length_a 16.536032
_cell_length_b 5.018103
_cell_length_c 33.280382
_cell_angle_alpha 90.000000
_cell_angle_beta 90.000000
_cell_angle_gamma 90.000000
_cell_volume 2761.589850
_symmetry_space_group_name_H-M "A B A 2"
_symmetry_group_IT_number 41
_symmetry_cell_setting 'orthorhombic'
loop_
_space_group_symop_operation_xyz
x,y,z
-x,-y,z
1/2-x,y,1/2+z
1/2+x,-y,1/2+z
x,1/2+y,1/2+z
-x,1/2-y,1/2+z
1/2-x,1/2+y,z
1/2+x,1/2-y,z
loop_
_atom_site_type_symbol
_atom_site_label
_atom_site_fract_x
_atom_site_fract_y
_atom_site_fract_z
Si Si1 0.905276 0.989988 0.255130
Si Si2 0.194624 0.116583 0.883009
Si Si3 0.553040 0.740030 0.533437
Si Si4 0.301867 0.131140 0.591272
Si Si5 0.198169 0.172919 0.181841
Si Si6 0.595644 0.987730 0.304219
Si Si7 0.054141 0.258156 0.942587
O O1 0.878650 0.283489 0.268879
O O2 0.872161 0.906789 0.212058
O O3 0.876500 0.778982 0.289278
O O4 0.000000 0.000000 0.250163
O O5 0.269372 0.320124 0.885136
O O6 0.141964 0.121575 0.842780
O O7 0.136355 0.199168 0.919220
O O8 0.500000 0.500000 0.551704
O O9 0.630664 0.785923 0.560163
O O10 0.580302 0.668314 0.488050
O O11 0.500000 0.000000 0.533578
O O12 0.226148 0.328407 0.584198
O O13 0.336141 0.151625 0.636595
O O14 0.226259 0.475314 0.189040
O O15 0.500000 0.000000 0.313694
O O16 0.000000 0.500000 0.924183
O O17 0.000000 0.000000 0.940723
#
# Coordination Sequence:
#
# PCOD8185067 Si02
#       7
#     8   8   8   8   8   8   8
#     4  10  21  37  57  81 107 144 193 236 277 331
#     4  12  25  38  58  90 117 144 192 241 283 336
#     4  10  21  38  61  88 113 147 194 235 277 335
#     4  10  21  37  57  84 118 154 188 229 288 346
#     4  10  21  36  55  80 112 149 184 224 282 339
#     4  10  22  39  57  78 111 151 187 229 287 342
#     4  10  22  41  62  83 115 155 188 226 286 347
#
# _framework density 20.278175000000001
#
# number of rings (size 3 to 8) (size 9 to 14) (size 15 to 20)
#    0.000    1.714    0.000    3.857    0.000    6.857 
#    0.000    2.143    0.000    0.000    0.000    0.000 
#    0.000    0.000    0.000    0.000    0.000    0.000 
#
# Total GULP energy -347195.619593 kJ/mol
# GULP energy per Si atom -12399.843557 kJ/mol
# Density = 2.023202 g / cm^3
# Si number density = 20.278175 Si / 1000 Ang^3
#
#
#
# Elastic Constant Matrix: (Units=GPa)
#
#
# Indices 1 2 3 4 5 6 
#
# 1 67.5077 25.0014 59.2702 0.0000 0.0000 0.0000
# 2 25.0014 98.8340 24.2456 0.0000 0.0000 0.0000
# 3 59.2702 24.2456 109.0235 0.0000 0.0000 0.0000
# 4 0.0000 0.0000 0.0000 31.6870 0.0000 0.0000
# 5 0.0000 0.0000 0.0000 0.0000 35.2933 0.0000
# 6 0.0000 0.0000 0.0000 0.0000 0.0000 37.2141
#
#
#
# Elastic Compliance Matrix: (Units=1/GPa)
#
#
# Indices 1 2 3 4 5 6 
#
# 1 0.029594 -0.003744 -0.015256 0.000000 0.000000 0.000000
# 2 -0.003744 0.011175 -0.000450 0.000000 0.000000 0.000000
# 3 -0.015256 -0.000450 0.017566 0.000000 0.000000 0.000000
# 4 0.000000 0.000000 0.000000 0.031559 0.000000 0.000000
# 5 0.000000 0.000000 0.000000 0.000000 0.028334 0.000000
# 6 0.000000 0.000000 0.000000 0.000000 0.000000 0.026872
#
#
# Mechanical properties :
#
#
# Convention : Reuss Voigt Hill
#
# Bulk Modulus (GPa) = 51.45058 54.71107 53.08083
# Shear Modulus (GPa) = 26.24966 31.96208 29.10587
#
# Velocity S-wave (km/s) = 3.60179 3.97442 3.79268
# Velocity P-wave (km/s) = 6.53641 6.93543 6.73887
#
# Compressibility (1/GPa) = 0.01943613
#
# Stress axis : x y z
#
# Youngs Moduli (GPa) = 33.79046 89.48232 56.92686
#
# Poissons Ratio (x) = 0.33499 0.86849
# Poissons Ratio (y) = 0.12650 0.02562
# Poissons Ratio (z) = 0.51551 0.04027
#
# Static dielectric constant tensor:
#      x y z
#    x 3.227990 0.000000 0.000000 
#    y 0.000000 4.079410 0.000000 
#    z 0.000000 0.000000 3.799500 
# 
# 
# High freq. dielectric constant tensor:
#      x y z
#    x 1.778920 0.000000 0.000000 
#    y 0.000000 1.816780 0.000000 
#    z 0.000000 0.000000 1.793500 
# 
# From -- ./inp_files/12734.got.cif
#   From: 2010.03.12/outbox.cif.g09.slc.cpg/sg41_7_cif.got.tgz:12734.got - 2010.04.14 01:55:53.
