data_PCOD8185650
_publ_section_title
;
Structure prediction by ZEFSAII (Michael W. Deem and Ramdas Pophale) SiO2 
 PCOD8185650
Probable space group: A B A 2
;
_chemical_formula_sum "Si O2"
_cell_formula_units_Z 52
_cell_length_a 10.830214
_cell_length_b 25.413824
_cell_length_c 8.863115
_cell_angle_alpha 90.000000
_cell_angle_beta 90.000000
_cell_angle_gamma 90.000000
_cell_volume 2439.458535
_symmetry_space_group_name_H-M "A B A 2"
_symmetry_group_IT_number 41
_symmetry_cell_setting 'orthorhombic'
loop_
_space_group_symop_operation_xyz
x,y,z
-x,-y,z
1/2-x,y,1/2+z
1/2+x,-y,1/2+z
x,1/2+y,1/2+z
-x,1/2-y,1/2+z
1/2-x,1/2+y,z
1/2+x,1/2-y,z
loop_
_atom_site_type_symbol
_atom_site_label
_atom_site_fract_x
_atom_site_fract_y
_atom_site_fract_z
Si Si1 0.630925 0.229610 0.780640
Si Si2 0.729941 0.545279 0.526816
Si Si3 0.360341 0.610738 0.200214
Si Si4 0.627808 0.108281 0.774608
Si Si5 0.666555 0.444367 0.896870
Si Si6 0.000000 0.500000 0.200677
Si Si7 0.625909 0.770497 0.621540
O O1 0.656576 0.168918 0.742940
O O2 0.500166 0.247745 0.706445
O O3 0.749901 0.257056 0.710810
O O4 0.624356 0.244191 0.957102
O O5 0.688540 0.596095 0.434131
O O6 0.828349 0.568260 0.644422
O O7 0.780276 0.503758 0.403023
O O8 0.614642 0.516729 0.601249
O O9 0.482060 0.600942 0.297444
O O10 0.249035 0.600351 0.316184
O O11 0.365345 0.666531 0.115791
O O12 0.355950 0.568103 0.069650
O O13 0.539446 0.449550 0.802977
#
# Coordination Sequence:
#
# PCOD8185650 Si02
#       7
#     8   8   8   8   8   4   8
#     4  11  24  46  70  99 133 174 224 282 340 403
#     4  12  23  43  65  95 132 170 215 265 320 387
#     4  11  25  43  66  96 129 171 217 266 326 389
#     4  11  25  43  66  96 129 171 217 266 326 389
#     4  12  23  43  65  95 132 170 215 265 320 387
#     4  12  24  40  64  92 128 172 214 258 316 372
#     4  11  24  46  70  99 133 174 224 282 340 403
#
# _framework density 21.316206000000001
#
# number of rings (size 3 to 8) (size 9 to 14) (size 15 to 20)
#    0.000    0.615    3.077    4.615    0.000    3.692 
#    5.538    0.000    0.000    0.000    0.000    0.000 
#    0.000    0.000    0.000    0.000    0.000    0.000 
#
# Total GULP energy -322313.104163 kJ/mol
# GULP energy per Si atom -12396.657852 kJ/mol
# Density = 2.126769 g / cm^3
# Si number density = 21.316206 Si / 1000 Ang^3
#
#
#
# Elastic Constant Matrix: (Units=GPa)
#
#
# Indices 1 2 3 4 5 6 
#
# 1 95.8713 21.8882 14.0669 0.0000 0.0000 0.0000
# 2 21.8882 70.2710 14.3801 0.0000 0.0000 0.0000
# 3 14.0669 14.3801 89.1741 0.0000 0.0000 0.0000
# 4 0.0000 0.0000 0.0000 34.6273 0.0000 0.0000
# 5 0.0000 0.0000 0.0000 0.0000 -29.0187 0.0000
# 6 0.0000 0.0000 0.0000 0.0000 0.0000 35.1749
#
#
#
# Elastic Compliance Matrix: (Units=1/GPa)
#
#
# Indices 1 2 3 4 5 6 
#
# 1 0.011365 -0.003281 -0.001264 0.000000 0.000000 0.000000
# 2 -0.003281 0.015664 -0.002008 0.000000 0.000000 0.000000
# 3 -0.001264 -0.002008 0.011737 0.000000 0.000000 0.000000
# 4 0.000000 0.000000 0.000000 0.028879 0.000000 0.000000
# 5 0.000000 0.000000 0.000000 0.000000 -0.034460 0.000000
# 6 0.000000 0.000000 0.000000 0.000000 0.000000 0.028429
#
#
# Mechanical properties :
#
#
# Convention : Reuss Voigt Hill
#
# Bulk Modulus (GPa) = 38.97215 39.55409 39.26312
# Shear Modulus (GPa) = 60.04280 21.82211 40.93245
#
# Velocity S-wave (km/s) = 5.31308 3.20305 4.38682
# Velocity P-wave (km/s) = 7.48071 5.68116 6.64216
#
# Compressibility (1/GPa) = 0.02565935
#
# Stress axis : x y z
#
# Youngs Moduli (GPa) = 87.98747 63.84183 85.19919
#
# Poissons Ratio (x) = 0.20950 0.10766
# Poissons Ratio (y) = 0.28873 0.17110
# Poissons Ratio (z) = 0.11119 0.12821
#
# Static dielectric constant tensor:
#      x y z
#    x 4.899430 0.000000 0.000000 
#    y 0.000000 4.037730 0.000000 
#    z 0.000000 0.000000 3.894160 
# 
# 
# High freq. dielectric constant tensor:
#      x y z
#    x 1.850930 0.000000 0.000000 
#    y 0.000000 1.837290 0.000000 
#    z 0.000000 0.000000 1.848100 
# 
# From -- ./inp_files/2138.got.cif
#   From: 2010.03.12/outbox.cif.g09.slc.cpg/sg41_2_cif.got.tgz:2138.got - 2010.04.14 01:55:53.
