data_PCOD8185658
_publ_section_title
;
Structure prediction by ZEFSAII (Michael W. Deem and Ramdas Pophale) SiO2 
 PCOD8185658
Probable space group: A B A 2
;
_chemical_formula_sum "Si O2"
_cell_formula_units_Z 40
_cell_length_a 7.268539
_cell_length_b 19.009351
_cell_length_c 11.509932
_cell_angle_alpha 90.000000
_cell_angle_beta 90.000000
_cell_angle_gamma 90.000000
_cell_volume 1590.329711
_symmetry_space_group_name_H-M "A B A 2"
_symmetry_group_IT_number 41
_symmetry_cell_setting 'orthorhombic'
loop_
_space_group_symop_operation_xyz
x,y,z
-x,-y,z
1/2-x,y,1/2+z
1/2+x,-y,1/2+z
x,1/2+y,1/2+z
-x,1/2-y,1/2+z
1/2-x,1/2+y,z
1/2+x,1/2-y,z
loop_
_atom_site_type_symbol
_atom_site_label
_atom_site_fract_x
_atom_site_fract_y
_atom_site_fract_z
Si Si1 0.658152 0.049697 0.021280
Si Si2 0.440254 0.165687 0.623012
Si Si3 0.692867 0.966408 0.742331
Si Si4 0.000201 0.400798 0.382829
Si Si5 0.855603 0.174445 0.664463
O O1 0.567816 0.124670 0.059829
O O2 0.500000 0.000000 0.968527
O O3 0.740404 0.016269 0.138701
O O4 0.812041 0.059729 0.922387
O O5 0.318593 0.114132 0.700526
O O6 0.419111 0.142809 0.489670
O O7 0.641975 0.156684 0.674019
O O8 0.371354 0.244672 0.632150
O O9 0.500000 0.000000 0.787524
O O10 0.850454 0.959622 0.842261
O O11 0.045482 0.343691 0.284413
#
# Coordination Sequence:
#
# PCOD8185658 Si02
#       5
#     8   8   8   8   8
#     4  11  25  50  81 120 162 208 272 340 405 494
#     4  11  27  49  76 115 162 210 281 331 407 493
#     4  12  24  50  79 121 165 210 268 345 398 493
#     4  11  26  50  85 116 160 218 269 330 427 466
#     4  11  24  47  78 114 165 211 269 339 399 495
#
# _framework density 25.152018000000002
#
# number of rings (size 3 to 8) (size 9 to 14) (size 15 to 20)
#    0.000    0.800    6.000    1.200    0.000    9.600 
#    7.200    0.000    4.400    0.000    0.000    0.000 
#    0.000    0.000    0.000    0.000    0.000    0.000 
#
# Total GULP energy -247948.850282 kJ/mol
# GULP energy per Si atom -12397.442514 kJ/mol
# Density = 2.509477 g / cm^3
# Si number density = 25.152018 Si / 1000 Ang^3
#
#
#
# Elastic Constant Matrix: (Units=GPa)
#
#
# Indices 1 2 3 4 5 6 
#
# 1 131.5560 47.0277 59.5803 0.0000 0.0000 0.0000
# 2 47.0277 209.3652 59.5543 0.0000 0.0000 0.0000
# 3 59.5803 59.5543 131.3179 0.0000 0.0000 0.0000
# 4 0.0000 0.0000 0.0000 42.1661 0.0000 0.0000
# 5 0.0000 0.0000 0.0000 0.0000 37.4961 0.0000
# 6 0.0000 0.0000 0.0000 0.0000 0.0000 44.4623
#
#
#
# Elastic Compliance Matrix: (Units=1/GPa)
#
#
# Indices 1 2 3 4 5 6 
#
# 1 0.009772 -0.001072 -0.003948 0.000000 0.000000 0.000000
# 2 -0.001072 0.005601 -0.002054 0.000000 0.000000 0.000000
# 3 -0.003948 -0.002054 0.010338 0.000000 0.000000 0.000000
# 4 0.000000 0.000000 0.000000 0.023716 0.000000 0.000000
# 5 0.000000 0.000000 0.000000 0.000000 0.026669 0.000000
# 6 0.000000 0.000000 0.000000 0.000000 0.000000 0.022491
#
#
# Mechanical properties :
#
#
# Convention : Reuss Voigt Hill
#
# Bulk Modulus (GPa) = 86.47387 89.39596 87.93492
# Shear Modulus (GPa) = 42.88548 45.23002 44.05775
#
# Velocity S-wave (km/s) = 4.13371 4.24520 4.18982
# Velocity P-wave (km/s) = 7.56561 7.72323 7.64483
#
# Compressibility (1/GPa) = 0.01156419
#
# Stress axis : x y z
#
# Youngs Moduli (GPa) = 102.32873 178.52689 96.73405
#
# Poissons Ratio (x) = 0.19141 0.38187
# Poissons Ratio (y) = 0.10972 0.19868
# Poissons Ratio (z) = 0.40395 0.36667
#
# Static dielectric constant tensor:
#      x y z
#    x 4.806650 0.000000 0.000000 
#    y 0.000000 5.414410 0.000000 
#    z 0.000000 0.000000 4.506920 
# 
# 
# High freq. dielectric constant tensor:
#      x y z
#    x 2.014190 0.000000 0.000000 
#    y 0.000000 2.023990 0.000000 
#    z 0.000000 0.000000 2.010440 
# 
# From -- ./inp_files/4364.got.cif
#   From: 2010.03.12/outbox.cif.g09.slc.cpg/sg41_3_cif.got.tgz:4364.got - 2010.04.14 01:55:53.
