data_PCOD8185224
_publ_section_title
;
Structure prediction by ZEFSAII (Michael W. Deem and Ramdas Pophale) SiO2 
 PCOD8185224
Probable space group: A B A 2
;
_chemical_formula_sum "Si O2"
_cell_formula_units_Z 36
_cell_length_a 4.957667
_cell_length_b 12.822486
_cell_length_c 22.638001
_cell_angle_alpha 90.000000
_cell_angle_beta 90.000000
_cell_angle_gamma 90.000000
_cell_volume 1439.089024
_symmetry_space_group_name_H-M "A B A 2"
_symmetry_group_IT_number 41
_symmetry_cell_setting 'orthorhombic'
loop_
_space_group_symop_operation_xyz
x,y,z
-x,-y,z
1/2-x,y,1/2+z
1/2+x,-y,1/2+z
x,1/2+y,1/2+z
-x,1/2-y,1/2+z
1/2-x,1/2+y,z
1/2+x,1/2-y,z
loop_
_atom_site_type_symbol
_atom_site_label
_atom_site_fract_x
_atom_site_fract_y
_atom_site_fract_z
Si Si1 0.732172 0.681243 0.367570
Si Si2 0.557608 0.814772 0.156377
Si Si3 0.425763 0.182602 0.019731
Si Si4 0.731702 0.065061 0.254809
Si Si5 0.000000 0.000000 0.439859
O O1 0.511635 0.766736 0.386472
O O2 0.700038 0.662973 0.296876
O O3 0.698455 0.568551 0.398842
O O4 0.869005 0.786912 0.170724
O O5 0.558402 0.848361 0.088298
O O6 0.431113 0.906247 0.195024
O O7 0.221767 0.275505 0.003096
O O8 0.342551 0.080538 0.982532
O O9 0.500000 0.000000 0.290260
O O10 0.000000 0.000000 0.239307
#
# Coordination Sequence:
#
# PCOD8185224 Si02
#       5
#     8   8   8   8   4
#     4  12  27  46  71 102 141 185 234 292 354 419
#     4  10  21  42  67  96 138 180 225 284 352 416
#     4  10  24  45  68 102 137 179 231 284 348 415
#     4  12  24  42  69 104 141 182 238 289 354 425
#     4  12  26  46  74 102 138 188 236 294 346 422
#
# _framework density 25.015827999999999
#
# number of rings (size 3 to 8) (size 9 to 14) (size 15 to 20)
#    0.000    0.889    1.111    5.333    1.556    2.667 
#    0.000    0.000    0.000    0.000    0.000    0.000 
#    0.000    0.000    0.000    0.000    0.000    0.000 
#
# Total GULP energy -223131.240731 kJ/mol
# GULP energy per Si atom -12396.180041 kJ/mol
# Density = 2.495889 g / cm^3
# Si number density = 25.015828 Si / 1000 Ang^3
#
#
#
# Elastic Constant Matrix: (Units=GPa)
#
#
# Indices 1 2 3 4 5 6 
#
# 1 96.9075 21.0448 24.8309 0.0000 0.0000 0.0000
# 2 21.0448 120.8996 60.2164 0.0000 0.0000 0.0000
# 3 24.8309 60.2164 103.9406 0.0000 0.0000 0.0000
# 4 0.0000 0.0000 0.0000 19.8588 0.0000 0.0000
# 5 0.0000 0.0000 0.0000 0.0000 23.9129 0.0000
# 6 0.0000 0.0000 0.0000 0.0000 0.0000 28.4260
#
#
#
# Elastic Compliance Matrix: (Units=1/GPa)
#
#
# Indices 1 2 3 4 5 6 
#
# 1 0.011055 -0.000856 -0.002145 0.000000 0.000000 0.000000
# 2 -0.000856 0.011692 -0.006569 0.000000 0.000000 0.000000
# 3 -0.002145 -0.006569 0.013939 0.000000 0.000000 0.000000
# 4 0.000000 0.000000 0.000000 0.050355 0.000000 0.000000
# 5 0.000000 0.000000 0.000000 0.000000 0.041818 0.000000
# 6 0.000000 0.000000 0.000000 0.000000 0.000000 0.035179
#
#
# Mechanical properties :
#
#
# Convention : Reuss Voigt Hill
#
# Bulk Modulus (GPa) = 56.99431 59.32576 58.16004
# Shear Modulus (GPa) = 26.45113 28.81659 27.63386
#
# Velocity S-wave (km/s) = 3.25526 3.39770 3.32724
# Velocity P-wave (km/s) = 6.07961 6.25773 6.16932
#
# Compressibility (1/GPa) = 0.01754561
#
# Stress axis : x y z
#
# Youngs Moduli (GPa) = 90.45994 85.52667 71.74047
#
# Poissons Ratio (x) = 0.07320 0.15389
# Poissons Ratio (y) = 0.07742 0.47128
# Poissons Ratio (z) = 0.19404 0.56185
#
# Static dielectric constant tensor:
#      x y z
#    x 4.539870 0.000000 0.000000 
#    y 0.000000 4.400620 0.000000 
#    z 0.000000 0.000000 4.674550 
# 
# 
# High freq. dielectric constant tensor:
#      x y z
#    x 1.997520 0.000000 0.000000 
#    y 0.000000 1.990390 0.000000 
#    z 0.000000 0.000000 2.018180 
# 
# From -- ./inp_files/11799.got.cif
#   From: 2010.03.12/outbox.cif.g09.slc.cpg/sg41_6_cif.got.tgz:11799.got - 2010.04.14 01:55:53.
