data_PCOD8185974
_publ_section_title
;
Structure prediction by ZEFSAII (Michael W. Deem and Ramdas Pophale) SiO2 
 PCOD8185974
Probable space group: F M M 2
;
_chemical_formula_sum "Si O2"
_cell_formula_units_Z 96
_cell_length_a 8.902482
_cell_length_b 26.580992
_cell_length_c 22.810665
_cell_angle_alpha 90.000000
_cell_angle_beta 90.000000
_cell_angle_gamma 90.000000
_cell_volume 5397.842836
_symmetry_space_group_name_H-M "F M M 2"
_symmetry_group_IT_number 42
_symmetry_cell_setting 'orthorhombic'
loop_
_space_group_symop_operation_xyz
x,y,z
-x,-y,z
-x,y,z
x,-y,z
x,1/2+y,1/2+z
-x,1/2-y,1/2+z
-x,1/2+y,1/2+z
x,1/2-y,1/2+z
1/2+x,y,1/2+z
1/2-x,-y,1/2+z
1/2-x,y,1/2+z
1/2+x,-y,1/2+z
1/2+x,1/2+y,z
1/2-x,1/2-y,z
1/2-x,1/2+y,z
1/2+x,1/2-y,z
loop_
_atom_site_type_symbol
_atom_site_label
_atom_site_fract_x
_atom_site_fract_y
_atom_site_fract_z
Si Si1 0.678369 0.557663 0.425200
Si Si2 0.163362 0.204160 0.429127
Si Si3 0.677834 0.637055 0.841211
Si Si4 0.673514 0.198061 0.609402
Si Si5 0.163493 0.623831 0.027787
Si Si6 0.824078 0.302636 0.745804
O O1 0.500000 0.565699 0.419825
O O2 0.726338 0.500000 0.419191
O O3 0.755659 0.586895 0.371249
O O4 0.731565 0.576608 0.490502
O O5 0.250000 0.250000 0.459371
O O6 0.274121 0.185373 0.378545
O O7 0.135750 0.164321 0.478391
O O8 0.000000 0.218976 0.402562
O O9 0.500000 0.631458 0.836717
O O10 0.747940 0.648891 0.777248
O O11 0.500000 0.204538 0.594921
O O12 0.750000 0.250000 0.587825
O O13 0.729598 0.147206 0.577145
O O14 0.706537 0.188966 0.677329
O O15 0.000000 0.610149 0.055759
O O16 0.750000 0.250000 0.766317
O O17 0.000000 0.300806 0.760296
#
# Coordination Sequence:
#
# PCOD8185974 Si02
#       6
#    16  16  16  16  16  16
#     4   9  19  37  58  77  98 127 162 203 255 307
#     4  10  19  30  44  66  97 131 163 197 241 292
#     4  11  21  32  49  73  99 128 163 204 248 294
#     4  10  20  32  49  72 101 137 172 205 241 285
#     4   9  18  31  49  72  97 126 161 200 243 294
#     4  10  20  34  50  71 101 137 174 207 244 291
#
# _framework density 17.784882
#
# number of rings (size 3 to 8) (size 9 to 14) (size 15 to 20)
#    0.000    2.167    0.000    5.000    0.000    7.000 
#    0.000    0.000    0.000    1.000    0.000    4.667 
#    0.000    0.000    0.000    0.000    0.000    0.000 
#
# Total GULP energy -297403.733279 kJ/mol
# GULP energy per Si atom -12391.822220 kJ/mol
# Density = 1.774440 g / cm^3
# Si number density = 17.784882 Si / 1000 Ang^3
#
#
#
# Elastic Constant Matrix: (Units=GPa)
#
#
# Indices 1 2 3 4 5 6 
#
# 1 108.8933 59.4980 48.6064 0.0000 0.0000 0.0000
# 2 59.4980 101.1967 43.4198 0.0000 0.0000 0.0000
# 3 48.6064 43.4198 79.0873 0.0000 0.0000 0.0000
# 4 0.0000 0.0000 0.0000 31.3739 0.0000 0.0000
# 5 0.0000 0.0000 0.0000 0.0000 29.7885 0.0000
# 6 0.0000 0.0000 0.0000 0.0000 0.0000 21.4105
#
#
#
# Elastic Compliance Matrix: (Units=1/GPa)
#
#
# Indices 1 2 3 4 5 6 
#
# 1 0.015360 -0.006515 -0.005863 0.000000 0.000000 0.000000
# 2 -0.006515 0.015690 -0.004610 0.000000 0.000000 0.000000
# 3 -0.005863 -0.004610 0.018779 0.000000 0.000000 0.000000
# 4 0.000000 0.000000 0.000000 0.031874 0.000000 0.000000
# 5 0.000000 0.000000 0.000000 0.000000 0.033570 0.000000
# 6 0.000000 0.000000 0.000000 0.000000 0.000000 0.046706
#
#
# Mechanical properties :
#
#
# Convention : Reuss Voigt Hill
#
# Bulk Modulus (GPa) = 63.08257 65.80287 64.44272
# Shear Modulus (GPa) = 24.84590 25.69145 25.26867
#
# Velocity S-wave (km/s) = 3.74173 3.80487 3.77343
# Velocity P-wave (km/s) = 7.36303 7.50882 7.43628
#
# Compressibility (1/GPa) = 0.01585224
#
# Stress axis : x y z
#
# Youngs Moduli (GPa) = 65.10246 63.73361 53.25165
#
# Poissons Ratio (x) = 0.41524 0.31224
# Poissons Ratio (y) = 0.42416 0.24549
# Poissons Ratio (z) = 0.38172 0.29381
#
# Static dielectric constant tensor:
#      x y z
#    x 3.355880 0.000000 0.000000 
#    y 0.000000 1.939600 0.000000 
#    z 0.000000 0.000000 3.436440 
# 
# 
# High freq. dielectric constant tensor:
#      x y z
#    x 1.697530 0.000000 0.000000 
#    y 0.000000 1.662100 0.000000 
#    z 0.000000 0.000000 1.679910 
# 
# From -- ./inp_files/23737.got.cif
#   From: 2010.03.12/outbox.cif.g09.slc.cpg/sg42_12_cif.got.tgz:23737.got - 2010.04.14 02:04:31.
