data_PCOD8185940
_publ_section_title
;
Structure prediction by ZEFSAII (Michael W. Deem and Ramdas Pophale) SiO2 
 PCOD8185940
Probable space group: F M M 2
;
_chemical_formula_sum "Si O2"
_cell_formula_units_Z 104
_cell_length_a 9.648060
_cell_length_b 22.642856
_cell_length_c 24.731870
_cell_angle_alpha 90.000000
_cell_angle_beta 90.000000
_cell_angle_gamma 90.000000
_cell_volume 5402.915250
_symmetry_space_group_name_H-M "F M M 2"
_symmetry_group_IT_number 42
_symmetry_cell_setting 'orthorhombic'
loop_
_space_group_symop_operation_xyz
x,y,z
-x,-y,z
-x,y,z
x,-y,z
x,1/2+y,1/2+z
-x,1/2-y,1/2+z
-x,1/2+y,1/2+z
x,1/2-y,1/2+z
1/2+x,y,1/2+z
1/2-x,-y,1/2+z
1/2-x,y,1/2+z
1/2+x,-y,1/2+z
1/2+x,1/2+y,z
1/2-x,1/2-y,z
1/2-x,1/2+y,z
1/2+x,1/2-y,z
loop_
_atom_site_type_symbol
_atom_site_label
_atom_site_fract_x
_atom_site_fract_y
_atom_site_fract_z
Si Si1 0.748961 0.000000 0.363120
Si Si2 0.162930 0.000000 0.987738
Si Si3 0.652835 0.802347 0.940052
Si Si4 0.835843 0.372776 0.236095
Si Si5 0.348225 0.000000 0.247522
Si Si6 0.162358 0.308237 0.126961
Si Si7 0.654773 0.103911 0.033547
Si Si8 0.657329 0.127359 0.837154
O O1 0.681753 0.000000 0.422760
O O2 0.639813 0.000000 0.313419
O O3 0.839988 0.941267 0.354956
O O4 0.232446 0.944108 0.016650
O O5 0.000000 0.000000 0.000540
O O6 0.500000 0.776679 0.928878
O O7 0.750000 0.750000 0.958941
O O8 0.711704 0.833863 0.886918
O O9 0.646498 0.848428 0.987441
O O10 0.777287 0.439820 0.225450
O O11 0.799591 0.329533 0.187204
O O12 0.756339 0.350940 0.289067
O O13 0.000000 0.374633 0.247960
O O14 0.500000 0.000000 0.222441
O O15 0.250000 0.250000 0.112808
O O16 0.202593 0.362585 0.088003
O O17 0.000000 0.292763 0.121083
O O18 0.500000 0.075808 0.041247
O O19 0.500000 0.142381 0.821114
#
# Coordination Sequence:
#
# PCOD8185940 Si02
#       8
#     8   8  16  16   8  16  16  16
#     4  10  18  34  55  81 118 150 188 225 285 349
#     4  12  24  36  59  94 123 150 189 238 293 346
#     4  10  21  36  54  79 110 149 192 237 287 342
#     4   9  19  35  56  84 113 146 190 239 291 345
#     4   8  15  30  52  77 111 144 177 225 276 337
#     4  10  22  40  63  85 111 155 203 246 294 345
#     4  10  22  41  61  83 115 155 195 236 291 351
#     4  10  20  34  56  84 114 151 192 234 288 348
#
# _framework density 19.248867000000001
#
# number of rings (size 3 to 8) (size 9 to 14) (size 15 to 20)
#    0.000    2.154    1.538    1.154    0.000    4.923 
#    0.000    5.385    0.000    0.000    0.000    0.000 
#    0.000    0.000    0.000    0.000    0.000    0.000 
#
# Total GULP energy -322235.669989 kJ/mol
# GULP energy per Si atom -12393.679615 kJ/mol
# Density = 1.920506 g / cm^3
# Si number density = 19.248867 Si / 1000 Ang^3
#
#
#
# Elastic Constant Matrix: (Units=GPa)
#
#
# Indices 1 2 3 4 5 6 
#
# 1 83.6170 44.4052 40.6015 0.0000 0.0000 0.0000
# 2 44.4052 80.8958 31.2518 0.0000 0.0000 0.0000
# 3 40.6015 31.2518 95.7886 0.0000 0.0000 0.0000
# 4 0.0000 0.0000 0.0000 40.2755 0.0000 0.0000
# 5 0.0000 0.0000 0.0000 0.0000 22.3152 0.0000
# 6 0.0000 0.0000 0.0000 0.0000 0.0000 19.5347
#
#
#
# Elastic Compliance Matrix: (Units=1/GPa)
#
#
# Indices 1 2 3 4 5 6 
#
# 1 0.018984 -0.008367 -0.005317 0.000000 0.000000 0.000000
# 2 -0.008367 0.017832 -0.002271 0.000000 0.000000 0.000000
# 3 -0.005317 -0.002271 0.013434 0.000000 0.000000 0.000000
# 4 0.000000 0.000000 0.000000 0.024829 0.000000 0.000000
# 5 0.000000 0.000000 0.000000 0.000000 0.044813 0.000000
# 6 0.000000 0.000000 0.000000 0.000000 0.000000 0.051191
#
#
# Mechanical properties :
#
#
# Convention : Reuss Voigt Hill
#
# Bulk Modulus (GPa) = 54.52538 54.75760 54.64149
# Shear Modulus (GPa) = 23.91127 26.02795 24.96961
#
# Velocity S-wave (km/s) = 3.52833 3.68119 3.60557
# Velocity P-wave (km/s) = 6.70723 6.82475 6.76624
#
# Compressibility (1/GPa) = 0.01834008
#
# Stress axis : x y z
#
# Youngs Moduli (GPa) = 52.67536 56.07995 74.43562
#
# Poissons Ratio (x) = 0.46920 0.39578
# Poissons Ratio (y) = 0.44072 0.16907
# Poissons Ratio (z) = 0.28008 0.12738
#
# Static dielectric constant tensor:
#      x y z
#    x 3.421420 0.000000 0.000000 
#    y 0.000000 3.442200 0.000000 
#    z 0.000000 0.000000 3.596340 
# 
# 
# High freq. dielectric constant tensor:
#      x y z
#    x 1.734200 0.000000 0.000000 
#    y 0.000000 1.749590 0.000000 
#    z 0.000000 0.000000 1.751860 
# 
# From -- ./inp_files/31601.got.cif
#   From: 2010.03.12/outbox.cif.g09.slc.cpg/sg42_16_cif.got.tgz:31601.got - 2010.04.14 02:04:31.
