data_PCOD8185260
_publ_section_title
;
Structure prediction by ZEFSAII (Michael W. Deem and Ramdas Pophale) SiO2 
 PCOD8185260
Probable space group: A B A 2
;
_chemical_formula_sum "Si O2"
_cell_formula_units_Z 44
_cell_length_a 13.032875
_cell_length_b 18.125677
_cell_length_c 8.550575
_cell_angle_alpha 90.000000
_cell_angle_beta 90.000000
_cell_angle_gamma 90.000000
_cell_volume 2019.899619
_symmetry_space_group_name_H-M "A B A 2"
_symmetry_group_IT_number 41
_symmetry_cell_setting 'orthorhombic'
loop_
_space_group_symop_operation_xyz
x,y,z
-x,-y,z
1/2-x,y,1/2+z
1/2+x,-y,1/2+z
x,1/2+y,1/2+z
-x,1/2-y,1/2+z
1/2-x,1/2+y,z
1/2+x,1/2-y,z
loop_
_atom_site_type_symbol
_atom_site_label
_atom_site_fract_x
_atom_site_fract_y
_atom_site_fract_z
Si Si1 0.351026 0.880673 0.182030
Si Si2 0.552048 0.874394 0.389318
Si Si3 0.839591 0.285479 0.609390
Si Si4 0.000000 0.500000 0.623648
Si Si5 0.330167 0.461176 0.362036
Si Si6 0.226553 0.625709 0.876455
O O1 0.458517 0.874424 0.271520
O O2 0.312517 0.798726 0.144253
O O3 0.271646 0.922406 0.294240
O O4 0.368622 0.920678 0.017783
O O5 0.560836 0.798577 0.495582
O O6 0.659593 0.882695 0.295613
O O7 0.553280 0.940898 0.512859
O O8 0.855268 0.331549 0.768772
O O9 0.739499 0.323561 0.530271
O O10 0.915992 0.542180 0.728412
O O11 0.313514 0.544715 0.416246
#
# Coordination Sequence:
#
# PCOD8185260 Si02
#       6
#     8   8   8   4   8   8
#     4  12  25  45  71 107 141 186 239 298 362 419
#     4  10  24  44  69  98 148 182 237 292 353 424
#     4  10  23  44  67 100 138 186 228 295 349 428
#     4  12  24  46  70 112 144 182 246 294 350 428
#     4  12  25  43  74 105 139 189 240 295 353 429
#     4  10  21  46  68  95 137 185 230 282 355 419
#
# _framework density 21.783262000000001
#
# number of rings (size 3 to 8) (size 9 to 14) (size 15 to 20)
#    1.091    0.000    1.818    5.455    0.000    5.091 
#    6.545    0.000    0.000    0.000    0.000    0.000 
#    0.000    0.000    0.000    0.000    0.000    0.000 
#
# Total GULP energy -272554.848367 kJ/mol
# GULP energy per Si atom -12388.856744 kJ/mol
# Density = 2.173368 g / cm^3
# Si number density = 21.783262 Si / 1000 Ang^3
#
#
#
# Elastic Constant Matrix: (Units=GPa)
#
#
# Indices 1 2 3 4 5 6 
#
# 1 63.6573 9.9317 20.3892 0.0000 0.0000 0.0000
# 2 9.9317 154.9410 55.0826 0.0000 0.0000 0.0000
# 3 20.3892 55.0826 112.0395 0.0000 0.0000 0.0000
# 4 0.0000 0.0000 0.0000 33.3797 0.0000 0.0000
# 5 0.0000 0.0000 0.0000 0.0000 33.4616 0.0000
# 6 0.0000 0.0000 0.0000 0.0000 0.0000 10.4273
#
#
#
# Elastic Compliance Matrix: (Units=1/GPa)
#
#
# Indices 1 2 3 4 5 6 
#
# 1 0.016681 0.000012 -0.003042 0.000000 0.000000 0.000000
# 2 0.000012 0.007821 -0.003847 0.000000 0.000000 0.000000
# 3 -0.003042 -0.003847 0.011370 0.000000 0.000000 0.000000
# 4 0.000000 0.000000 0.000000 0.029958 0.000000 0.000000
# 5 0.000000 0.000000 0.000000 0.000000 0.029885 0.000000
# 6 0.000000 0.000000 0.000000 0.000000 0.000000 0.095902
#
#
# Mechanical properties :
#
#
# Convention : Reuss Voigt Hill
#
# Bulk Modulus (GPa) = 45.20974 55.71608 50.46291
# Shear Modulus (GPa) = 23.50232 31.80270 27.65251
#
# Velocity S-wave (km/s) = 3.28825 3.82509 3.56678
# Velocity P-wave (km/s) = 5.93432 6.71873 6.33867
#
# Compressibility (1/GPa) = 0.02211913
#
# Stress axis : x y z
#
# Youngs Moduli (GPa) = 59.94677 127.86032 87.94759
#
# Poissons Ratio (x) = -0.00154 0.26751
# Poissons Ratio (y) = -0.00072 0.33836
# Poissons Ratio (z) = 0.18234 0.49192
#
# Static dielectric constant tensor:
#      x y z
#    x 3.752930 0.000000 0.000000 
#    y 0.000000 4.002450 0.000000 
#    z 0.000000 0.000000 3.987640 
# 
# 
# High freq. dielectric constant tensor:
#      x y z
#    x 1.839180 0.000000 0.000000 
#    y 0.000000 1.862720 0.000000 
#    z 0.000000 0.000000 1.866680 
# 
# From -- ./inp_files/2488.got.cif
#   From: 2010.03.12/outbox.cif.g09.slc.cpg/sg41_2_cif.got.tgz:2488.got - 2010.04.14 01:55:53.
