data_PCOD8185383
_publ_section_title
;
Structure prediction by ZEFSAII (Michael W. Deem and Ramdas Pophale) SiO2 
 PCOD8185383
Probable space group: A B A 2
;
_chemical_formula_sum "Si O2"
_cell_formula_units_Z 56
_cell_length_a 14.555236
_cell_length_b 12.156157
_cell_length_c 14.770874
_cell_angle_alpha 90.000000
_cell_angle_beta 90.000000
_cell_angle_gamma 90.000000
_cell_volume 2613.495433
_symmetry_space_group_name_H-M "A B A 2"
_symmetry_group_IT_number 41
_symmetry_cell_setting 'orthorhombic'
loop_
_space_group_symop_operation_xyz
x,y,z
-x,-y,z
1/2-x,y,1/2+z
1/2+x,-y,1/2+z
x,1/2+y,1/2+z
-x,1/2-y,1/2+z
1/2-x,1/2+y,z
1/2+x,1/2-y,z
loop_
_atom_site_type_symbol
_atom_site_label
_atom_site_fract_x
_atom_site_fract_y
_atom_site_fract_z
Si Si1 0.513589 0.821585 0.625000
Si Si2 0.139117 0.723523 0.781417
Si Si3 0.291454 0.930194 0.386888
Si Si4 0.355679 0.485609 0.088524
Si Si5 0.714153 0.416757 0.719826
Si Si6 0.436905 0.104256 0.085012
Si Si7 0.107940 0.023583 0.406321
O O1 0.549053 0.764177 0.718794
O O2 0.421510 0.894736 0.635877
O O3 0.493726 0.715542 0.562086
O O4 0.593053 0.896672 0.582038
O O5 0.156392 0.822480 0.850368
O O6 0.231896 0.699844 0.725006
O O7 0.127241 0.605125 0.826066
O O8 0.332057 0.952830 0.486001
O O9 0.311097 0.029129 0.316775
O O10 0.179043 0.920430 0.395226
O O11 0.267145 0.495978 0.154038
O O12 0.619003 0.379300 0.676496
O O13 0.500000 0.000000 0.099660
O O14 0.368014 0.082685 0.001251
O O15 0.000000 0.000000 0.406188
#
# Coordination Sequence:
#
# PCOD8185383 Si02
#       7
#     8   8   8   8   8   8   8
#     4  10  23  42  70  94 134 179 230 291 355 421
#     4  10  23  40  66 103 125 179 232 284 359 412
#     4  11  22  44  66 102 137 179 237 294 342 430
#     4  10  22  45  70  95 135 184 232 289 361 425
#     4  10  23  40  64  96 133 174 230 284 349 419
#     4  11  22  43  59  98 131 177 222 283 348 413
#     4  10  23  41  64  93 139 175 229 280 352 420
#
# _framework density 21.427243000000001
#
# number of rings (size 3 to 8) (size 9 to 14) (size 15 to 20)
#    0.000    1.714    1.429    1.714    8.000    0.000 
#   20.571    0.000    0.000    0.000    0.000    0.000 
#    0.000    0.000    0.000    0.000    0.000    0.000 
#
# Total GULP energy -346900.036510 kJ/mol
# GULP energy per Si atom -12389.287018 kJ/mol
# Density = 2.137847 g / cm^3
# Si number density = 21.427243 Si / 1000 Ang^3
#
#
#
# Elastic Constant Matrix: (Units=GPa)
#
#
# Indices 1 2 3 4 5 6 
#
# 1 92.0539 33.6328 33.9025 0.0000 0.0000 0.0000
# 2 33.6328 101.0860 21.3971 0.0000 0.0000 0.0000
# 3 33.9025 21.3971 100.5927 0.0000 0.0000 0.0000
# 4 0.0000 0.0000 0.0000 33.7833 0.0000 0.0000
# 5 0.0000 0.0000 0.0000 0.0000 -17.2414 0.0000
# 6 0.0000 0.0000 0.0000 0.0000 0.0000 22.1156
#
#
#
# Elastic Compliance Matrix: (Units=1/GPa)
#
#
# Indices 1 2 3 4 5 6 
#
# 1 0.013625 -0.003729 -0.003799 0.000000 0.000000 0.000000
# 2 -0.003729 0.011380 -0.001164 0.000000 0.000000 0.000000
# 3 -0.003799 -0.001164 0.011469 0.000000 0.000000 0.000000
# 4 0.000000 0.000000 0.000000 0.029600 0.000000 0.000000
# 5 0.000000 0.000000 0.000000 0.000000 -0.058000 0.000000
# 6 0.000000 0.000000 0.000000 0.000000 0.000000 0.045217
#
#
# Mechanical properties :
#
#
# Convention : Reuss Voigt Hill
#
# Bulk Modulus (GPa) = 52.38301 52.39973 52.39137
# Shear Modulus (GPa) = 64.90395 21.38484 43.14440
#
# Velocity S-wave (km/s) = 5.50964 3.16257 4.49211
# Velocity P-wave (km/s) = 8.06070 6.15172 7.17002
#
# Compressibility (1/GPa) = 0.01909016
#
# Stress axis : x y z
#
# Youngs Moduli (GPa) = 73.39626 87.87648 87.19241
#
# Poissons Ratio (x) = 0.32770 0.33122
# Poissons Ratio (y) = 0.27370 0.10147
# Poissons Ratio (z) = 0.27881 0.10227
#
# Static dielectric constant tensor:
#      x y z
#    x 4.179330 0.000000 0.000000 
#    y 0.000000 3.722780 0.000000 
#    z 0.000000 0.000000 4.300250 
# 
# 
# High freq. dielectric constant tensor:
#      x y z
#    x 1.846640 0.000000 0.000000 
#    y 0.000000 1.828250 0.000000 
#    z 0.000000 0.000000 1.847000 
# 
# From -- ./inp_files/8376.got.cif
#   From: 2010.03.12/outbox.cif.g09.slc.cpg/sg41_5_cif.got.tgz:8376.got - 2010.04.14 01:55:53.
