data_PCOD8185620
_publ_section_title
;
Structure prediction by ZEFSAII (Michael W. Deem and Ramdas Pophale) SiO2 
 PCOD8185620
Probable space group: A B A 2
;
_chemical_formula_sum "Si O2"
_cell_formula_units_Z 64
_cell_length_a 27.555883
_cell_length_b 8.855637
_cell_length_c 11.811646
_cell_angle_alpha 90.000000
_cell_angle_beta 90.000000
_cell_angle_gamma 90.000000
_cell_volume 2882.335699
_symmetry_space_group_name_H-M "A B A 2"
_symmetry_group_IT_number 41
_symmetry_cell_setting 'orthorhombic'
loop_
_space_group_symop_operation_xyz
x,y,z
-x,-y,z
1/2-x,y,1/2+z
1/2+x,-y,1/2+z
x,1/2+y,1/2+z
-x,1/2-y,1/2+z
1/2-x,1/2+y,z
1/2+x,1/2-y,z
loop_
_atom_site_type_symbol
_atom_site_label
_atom_site_fract_x
_atom_site_fract_y
_atom_site_fract_z
Si Si1 0.401764 0.932354 0.587310
Si Si2 0.950509 0.573003 0.822758
Si Si3 0.135504 0.973457 0.730068
Si Si4 0.769031 0.848898 0.690404
Si Si5 0.792097 0.562321 0.557118
Si Si6 0.689588 0.766582 0.857566
Si Si7 0.890348 0.401756 0.000824
Si Si8 0.950876 0.416631 0.387908
O O1 0.413072 0.930597 0.719707
O O2 0.347391 0.994782 0.569822
O O3 0.407564 0.760861 0.544602
O O4 0.438380 0.040526 0.517974
O O5 0.958534 0.738879 0.873470
O O6 0.000000 0.500000 0.778217
O O7 0.931671 0.465576 0.921444
O O8 0.151325 0.805674 0.767807
O O9 0.182216 0.080180 0.739020
O O10 0.116547 0.977142 0.601481
O O11 0.093605 0.029540 0.811995
O O12 0.781050 0.679043 0.657754
O O13 0.730331 0.857681 0.791272
O O14 0.746485 0.928389 0.577665
O O15 0.785619 0.634463 0.432935
O O16 0.661305 0.883697 0.938075
O O17 0.000000 0.500000 0.349011
#
# Coordination Sequence:
#
# PCOD8185620 Si02
#       8
#     8   8   8   8   8   8   8   8
#     4  11  23  50  71 101 147 184 236 304 356 425
#     4  12  27  45  74 108 132 184 241 296 364 432
#     4  12  24  47  72 104 144 190 237 295 363 423
#     4  12  24  43  66 108 140 189 236 286 356 426
#     4  11  24  42  68 101 144 185 236 291 348 426
#     4  11  25  44  71 100 147 189 232 296 355 423
#     4  11  24  47  70 103 144 182 238 297 347 434
#     4  12  26  50  75 102 145 190 238 308 366 423
#
# _framework density 22.204212999999999
#
# number of rings (size 3 to 8) (size 9 to 14) (size 15 to 20)
#    0.000    0.500    7.500    1.875    1.750    2.500 
#    6.750    0.000    0.000    0.000    0.000    0.000 
#    0.000    0.000    0.000    0.000    0.000    0.000 
#
# Total GULP energy -396933.926545 kJ/mol
# GULP energy per Si atom -12404.185205 kJ/mol
# Density = 2.215368 g / cm^3
# Si number density = 22.204213 Si / 1000 Ang^3
#
#
#
# Elastic Constant Matrix: (Units=GPa)
#
#
# Indices 1 2 3 4 5 6 
#
# 1 111.0397 33.3821 22.1883 0.0000 0.0000 0.0000
# 2 33.3821 56.5697 20.6626 0.0000 0.0000 0.0000
# 3 22.1883 20.6626 103.4488 0.0000 0.0000 0.0000
# 4 0.0000 0.0000 0.0000 24.9404 0.0000 0.0000
# 5 0.0000 0.0000 0.0000 0.0000 38.7791 0.0000
# 6 0.0000 0.0000 0.0000 0.0000 0.0000 28.6463
#
#
#
# Elastic Compliance Matrix: (Units=1/GPa)
#
#
# Indices 1 2 3 4 5 6 
#
# 1 0.011074 -0.006113 -0.001154 0.000000 0.000000 0.000000
# 2 -0.006113 0.022443 -0.003172 0.000000 0.000000 0.000000
# 3 -0.001154 -0.003172 0.010548 0.000000 0.000000 0.000000
# 4 0.000000 0.000000 0.000000 0.040096 0.000000 0.000000
# 5 0.000000 0.000000 0.000000 0.000000 0.025787 0.000000
# 6 0.000000 0.000000 0.000000 0.000000 0.000000 0.034908
#
#
# Mechanical properties :
#
#
# Convention : Reuss Voigt Hill
#
# Bulk Modulus (GPa) = 43.12768 47.05824 45.09296
# Shear Modulus (GPa) = 28.82447 31.46151 30.14299
#
# Velocity S-wave (km/s) = 3.60690 3.76828 3.68847
# Velocity P-wave (km/s) = 6.06726 6.33819 6.20420
#
# Compressibility (1/GPa) = 0.02318696
#
# Stress axis : x y z
#
# Youngs Moduli (GPa) = 90.29896 44.55668 94.80786
#
# Poissons Ratio (x) = 0.27239 0.10943
# Poissons Ratio (y) = 0.55204 0.30068
# Poissons Ratio (z) = 0.10422 0.14131
#
# Static dielectric constant tensor:
#      x y z
#    x 4.088730 0.000000 0.000000 
#    y 0.000000 4.041090 0.000000 
#    z 0.000000 0.000000 4.175720 
# 
# 
# High freq. dielectric constant tensor:
#      x y z
#    x 1.881770 0.000000 0.000000 
#    y 0.000000 1.865430 0.000000 
#    z 0.000000 0.000000 1.884480 
# 
# From -- ./inp_files/6673.got.cif
#   From: 2010.03.12/outbox.cif.g09.slc.cpg/sg41_4_cif.got.tgz:6673.got - 2010.04.14 01:55:53.
