data_PCOD8185318
_publ_section_title
;
Structure prediction by ZEFSAII (Michael W. Deem and Ramdas Pophale) SiO2 
 PCOD8185318
Probable space group: A B A 2
;
_chemical_formula_sum "Si O2"
_cell_formula_units_Z 64
_cell_length_a 16.620541
_cell_length_b 15.060382
_cell_length_c 11.422687
_cell_angle_alpha 90.000000
_cell_angle_beta 90.000000
_cell_angle_gamma 90.000000
_cell_volume 2859.232162
_symmetry_space_group_name_H-M "A B A 2"
_symmetry_group_IT_number 41
_symmetry_cell_setting 'orthorhombic'
loop_
_space_group_symop_operation_xyz
x,y,z
-x,-y,z
1/2-x,y,1/2+z
1/2+x,-y,1/2+z
x,1/2+y,1/2+z
-x,1/2-y,1/2+z
1/2-x,1/2+y,z
1/2+x,1/2-y,z
loop_
_atom_site_type_symbol
_atom_site_label
_atom_site_fract_x
_atom_site_fract_y
_atom_site_fract_z
Si Si1 0.812445 0.131040 0.164570
Si Si2 0.847021 0.422224 0.400544
Si Si3 0.860043 0.083262 0.734272
Si Si4 0.576372 0.559687 0.492465
Si Si5 0.353591 0.272040 0.379760
Si Si6 0.674074 0.716421 0.932281
Si Si7 0.090977 0.527659 0.653239
Si Si8 0.660689 0.907139 0.876930
O O1 0.724609 0.086263 0.165502
O O2 0.823117 0.216174 0.246737
O O3 0.870284 0.056647 0.217980
O O4 0.851127 0.154820 0.039699
O O5 0.879947 0.497022 0.312927
O O6 0.892411 0.326634 0.388591
O O7 0.860222 0.450511 0.534915
O O8 0.756139 0.405874 0.358050
O O9 0.926171 0.083093 0.630926
O O10 0.860448 0.170927 0.814930
O O11 0.500000 0.500000 0.453744
O O12 0.582670 0.653700 0.423792
O O13 0.648647 0.493220 0.458832
O O14 0.270915 0.280486 0.452637
O O15 0.637182 0.815155 0.942141
O O16 0.108708 0.599666 0.755252
O O17 0.000000 0.500000 0.625372
#
# Coordination Sequence:
#
# PCOD8185318 Si02
#       8
#     8   8   8   8   8   8   8   8
#     4  11  20  42  67  92 134 177 223 287 336 417
#     4  11  24  42  72  99 132 177 232 292 348 420
#     4  11  22  41  66  98 132 174 230 285 345 409
#     4  12  25  44  63  93 140 182 221 286 357 420
#     4  10  23  39  67 100 129 174 231 285 342 415
#     4  10  22  40  68 101 131 170 233 292 339 407
#     4  12  25  44  67  99 139 186 231 291 363 427
#     4  11  24  42  71 100 128 183 237 278 346 431
#
# _framework density 22.38363
#
# number of rings (size 3 to 8) (size 9 to 14) (size 15 to 20)
#    0.000    1.000    5.000    1.875    3.500    2.500 
#    2.250    0.000    0.000    0.000    0.000    0.000 
#    0.000    0.000    0.000    0.000    0.000    0.000 
#
# Total GULP energy -396448.089819 kJ/mol
# GULP energy per Si atom -12389.002807 kJ/mol
# Density = 2.233268 g / cm^3
# Si number density = 22.383630 Si / 1000 Ang^3
#
#
#
# Elastic Constant Matrix: (Units=GPa)
#
#
# Indices 1 2 3 4 5 6 
#
# 1 50.2708 13.7555 16.3466 0.0000 0.0000 0.0000
# 2 13.7555 137.2891 36.8030 0.0000 0.0000 0.0000
# 3 16.3466 36.8030 112.4461 0.0000 0.0000 0.0000
# 4 0.0000 0.0000 0.0000 21.5836 0.0000 0.0000
# 5 0.0000 0.0000 0.0000 0.0000 20.4808 0.0000
# 6 0.0000 0.0000 0.0000 0.0000 0.0000 18.0114
#
#
#
# Elastic Compliance Matrix: (Units=1/GPa)
#
#
# Indices 1 2 3 4 5 6 
#
# 1 0.021128 -0.001418 -0.002607 0.000000 0.000000 0.000000
# 2 -0.001418 0.008080 -0.002438 0.000000 0.000000 0.000000
# 3 -0.002607 -0.002438 0.010070 0.000000 0.000000 0.000000
# 4 0.000000 0.000000 0.000000 0.046331 0.000000 0.000000
# 5 0.000000 0.000000 0.000000 0.000000 0.048826 0.000000
# 6 0.000000 0.000000 0.000000 0.000000 0.000000 0.055520
#
#
# Mechanical properties :
#
#
# Convention : Reuss Voigt Hill
#
# Bulk Modulus (GPa) = 37.94960 48.20179 43.07569
# Shear Modulus (GPa) = 23.62203 27.55522 25.58862
#
# Velocity S-wave (km/s) = 3.25210 3.51243 3.38477
# Velocity P-wave (km/s) = 5.57607 6.16690 5.87891
#
# Compressibility (1/GPa) = 0.02635074
#
# Stress axis : x y z
#
# Youngs Moduli (GPa) = 47.33036 123.76859 99.30269
#
# Poissons Ratio (x) = 0.17550 0.25892
# Poissons Ratio (y) = 0.06711 0.24213
# Poissons Ratio (z) = 0.12341 0.30178
#
# Static dielectric constant tensor:
#      x y z
#    x 3.672170 0.000000 0.000000 
#    y 0.000000 4.339820 0.000000 
#    z 0.000000 0.000000 3.863960 
# 
# 
# High freq. dielectric constant tensor:
#      x y z
#    x 1.841440 0.000000 0.000000 
#    y 0.000000 1.893890 0.000000 
#    z 0.000000 0.000000 1.889470 
# 
# From -- ./inp_files/6022.got.cif
#   From: 2010.03.12/outbox.cif.g09.slc.cpg/sg41_4_cif.got.tgz:6022.got - 2010.04.14 01:55:53.
