data_PCOD8185584
_publ_section_title
;
Structure prediction by ZEFSAII (Michael W. Deem and Ramdas Pophale) SiO2 
 PCOD8185584
Probable space group: A B A 2
;
_chemical_formula_sum "Si O2"
_cell_formula_units_Z 64
_cell_length_a 12.251750
_cell_length_b 14.019165
_cell_length_c 17.862484
_cell_angle_alpha 90.000000
_cell_angle_beta 90.000000
_cell_angle_gamma 90.000000
_cell_volume 3068.047834
_symmetry_space_group_name_H-M "A B A 2"
_symmetry_group_IT_number 41
_symmetry_cell_setting 'orthorhombic'
loop_
_space_group_symop_operation_xyz
x,y,z
-x,-y,z
1/2-x,y,1/2+z
1/2+x,-y,1/2+z
x,1/2+y,1/2+z
-x,1/2-y,1/2+z
1/2-x,1/2+y,z
1/2+x,1/2-y,z
loop_
_atom_site_type_symbol
_atom_site_label
_atom_site_fract_x
_atom_site_fract_y
_atom_site_fract_z
Si Si1 0.731554 0.415386 0.816560
Si Si2 0.897765 0.569076 0.397543
Si Si3 0.731554 0.415386 0.146007
Si Si4 0.472503 0.222282 0.647078
Si Si5 0.897765 0.069075 0.065024
Si Si6 0.545306 0.397812 0.393179
Si Si7 0.527496 0.277718 0.815489
Si Si8 0.454694 0.102189 0.069387
O O1 0.701677 0.512094 0.860320
O O2 0.749999 0.444715 0.731283
O O3 0.841105 0.374256 0.852586
O O4 0.640479 0.333813 0.822496
O O5 0.863732 0.601778 0.481283
O O6 0.926976 0.660330 0.347516
O O7 0.000000 0.500000 0.401875
O O8 0.640480 0.333812 0.140071
O O9 0.701676 0.512093 0.102248
O O10 0.841104 0.374256 0.109979
O O11 0.573023 0.160329 0.615052
O O12 0.500000 0.250001 0.731283
O O13 0.460168 0.317544 0.596985
O O14 0.000000 0.000000 0.060689
O O15 0.500000 0.500000 0.367241
O O16 0.460168 0.317544 0.365581
O O17 0.561931 0.392851 0.481283
O O18 0.500000 0.000000 0.095325
#
# Coordination Sequence:
#
# PCOD8185584 Si02
#       8
#     8   8   8   8   8   8   8   8
#     4  11  23  41  68  99 131 175 218 281 340 401
#     4   9  20  39  65  94 126 167 218 271 329 397
#     4  11  23  41  68  99 131 175 218 281 340 401
#     4  11  23  41  68 100 132 174 225 272 331 400
#     4   9  20  39  65  94 126 167 218 271 329 397
#     4  11  26  45  65  95 137 177 222 280 339 399
#     4  11  23  41  68 100 132 174 225 272 331 400
#     4  11  26  45  65  95 137 177 222 280 339 399
#
# _framework density 20.860168999999999
#
# number of rings (size 3 to 8) (size 9 to 14) (size 15 to 20)
#    0.000    1.500    2.500    1.500    3.500    5.000 
#    0.000    2.500    0.000    0.000    0.000    0.000 
#    0.000    0.000    0.000    0.000    0.000    0.000 
#
# Total GULP energy -396937.411492 kJ/mol
# GULP energy per Si atom -12404.294109 kJ/mol
# Density = 2.081269 g / cm^3
# Si number density = 20.860169 Si / 1000 Ang^3
#
#
#
# Elastic Constant Matrix: (Units=GPa)
#
#
# Indices 1 2 3 4 5 6 
#
# 1 87.1600 40.2647 45.8784 0.0000 0.0000 0.0000
# 2 40.2647 136.4325 68.3247 0.0000 0.0000 0.0000
# 3 45.8784 68.3247 159.3897 0.0000 0.0000 0.0000
# 4 0.0000 0.0000 0.0000 45.1965 0.0000 0.0000
# 5 0.0000 0.0000 0.0000 0.0000 33.9011 0.0000
# 6 0.0000 0.0000 0.0000 0.0000 0.0000 30.5543
#
#
#
# Elastic Compliance Matrix: (Units=1/GPa)
#
#
# Indices 1 2 3 4 5 6 
#
# 1 0.014287 -0.002747 -0.002935 0.000000 0.000000 0.000000
# 2 -0.002747 0.009861 -0.003437 0.000000 0.000000 0.000000
# 3 -0.002935 -0.003437 0.008592 0.000000 0.000000 0.000000
# 4 0.000000 0.000000 0.000000 0.022126 0.000000 0.000000
# 5 0.000000 0.000000 0.000000 0.000000 0.029498 0.000000
# 6 0.000000 0.000000 0.000000 0.000000 0.000000 0.032729
#
#
# Mechanical properties :
#
#
# Convention : Reuss Voigt Hill
#
# Bulk Modulus (GPa) = 68.94792 76.87975 72.91383
# Shear Modulus (GPa) = 35.67284 37.16465 36.41875
#
# Velocity S-wave (km/s) = 4.13981 4.22549 4.18287
# Velocity P-wave (km/s) = 7.48164 7.79366 7.63924
#
# Compressibility (1/GPa) = 0.01450370
#
# Stress axis : x y z
#
# Youngs Moduli (GPa) = 69.99447 101.40695 116.38927
#
# Poissons Ratio (x) = 0.27853 0.34159
# Poissons Ratio (y) = 0.19225 0.39998
# Poissons Ratio (z) = 0.20543 0.34849
#
# Static dielectric constant tensor:
#      x y z
#    x 3.663940 0.000000 0.000000 
#    y 0.000000 3.958810 0.000000 
#    z 0.000000 0.000000 4.016260 
# 
# 
# High freq. dielectric constant tensor:
#      x y z
#    x 1.805430 0.000000 0.000000 
#    y 0.000000 1.823510 0.000000 
#    z 0.000000 0.000000 1.834840 
# 
# From -- ./inp_files/10128.got.cif
#   From: 2010.03.12/outbox.cif.g09.slc.cpg/sg41_6_cif.got.tgz:10128.got - 2010.04.14 01:55:53.
