data_PCOD8185546
_publ_section_title
;
Structure prediction by ZEFSAII (Michael W. Deem and Ramdas Pophale) SiO2 
 PCOD8185546
Probable space group: A B A 2
;
_chemical_formula_sum "Si O2"
_cell_formula_units_Z 64
_cell_length_a 11.084511
_cell_length_b 29.534101
_cell_length_c 9.405080
_cell_angle_alpha 90.000000
_cell_angle_beta 90.000000
_cell_angle_gamma 90.000000
_cell_volume 3078.951079
_symmetry_space_group_name_H-M "A B A 2"
_symmetry_group_IT_number 41
_symmetry_cell_setting 'orthorhombic'
loop_
_space_group_symop_operation_xyz
x,y,z
-x,-y,z
1/2-x,y,1/2+z
1/2+x,-y,1/2+z
x,1/2+y,1/2+z
-x,1/2-y,1/2+z
1/2-x,1/2+y,z
1/2+x,1/2-y,z
loop_
_atom_site_type_symbol
_atom_site_label
_atom_site_fract_x
_atom_site_fract_y
_atom_site_fract_z
Si Si1 0.985408 0.653371 0.112410
Si Si2 0.148632 0.542494 0.418485
Si Si3 0.693122 0.912376 0.136131
Si Si4 0.881664 0.562594 0.465998
Si Si5 0.747342 0.114550 0.716177
Si Si6 0.161543 0.676871 0.628532
Si Si7 0.861297 0.788254 0.813946
Si Si8 0.560490 0.186604 0.817082
O O1 0.059736 0.606955 0.114221
O O2 0.026231 0.686735 0.238901
O O3 0.844448 0.642337 0.124595
O O4 0.012754 0.676216 0.960786
O O5 0.263743 0.562914 0.496055
O O6 0.182402 0.548936 0.254739
O O7 0.140128 0.490606 0.460440
O O8 0.026298 0.570264 0.457862
O O9 0.787378 0.872350 0.172253
O O10 0.815920 0.584607 0.332082
O O11 0.832852 0.582908 0.613690
O O12 0.666636 0.150725 0.798047
O O13 0.167593 0.685605 0.460371
O O14 0.245298 0.712533 0.711331
O O15 0.024840 0.683088 0.679714
O O16 0.889271 0.736414 0.840986
#
# Coordination Sequence:
#
# PCOD8185546 Si02
#       8
#     8   8   8   8   8   8   8   8
#     4  11  24  45  64  99 134 176 226 279 334 410
#     4  11  23  42  72  97 130 174 216 281 333 409
#     4  11  21  42  70  94 129 171 220 270 341 397
#     4  11  25  45  65 100 136 169 224 272 341 409
#     4  12  25  44  68  94 137 178 216 277 341 408
#     4  11  24  43  66  99 130 175 225 287 331 407
#     4  11  26  42  67  95 138 173 232 285 336 402
#     4  12  26  41  69  94 135 182 226 279 341 403
#
# _framework density 20.786300000000001
#
# number of rings (size 3 to 8) (size 9 to 14) (size 15 to 20)
#    0.000    0.750    2.500    6.000    5.250    0.000 
#    0.000    0.000    0.000    0.000    0.000    0.000 
#    0.000    0.000    0.000    0.000    0.000    0.000 
#
# Total GULP energy -396910.591726 kJ/mol
# GULP energy per Si atom -12403.455991 kJ/mol
# Density = 2.073899 g / cm^3
# Si number density = 20.786300 Si / 1000 Ang^3
#
#
#
# Elastic Constant Matrix: (Units=GPa)
#
#
# Indices 1 2 3 4 5 6 
#
# 1 88.2322 34.8584 38.0841 0.0000 0.0000 0.0000
# 2 34.8584 87.9284 33.4907 0.0000 0.0000 0.0000
# 3 38.0841 33.4907 127.9191 0.0000 0.0000 0.0000
# 4 0.0000 0.0000 0.0000 26.5908 0.0000 0.0000
# 5 0.0000 0.0000 0.0000 0.0000 41.6721 0.0000
# 6 0.0000 0.0000 0.0000 0.0000 0.0000 28.4956
#
#
#
# Elastic Compliance Matrix: (Units=1/GPa)
#
#
# Indices 1 2 3 4 5 6 
#
# 1 0.014478 -0.004552 -0.003119 0.000000 0.000000 0.000000
# 2 -0.004552 0.014064 -0.002327 0.000000 0.000000 0.000000
# 3 -0.003119 -0.002327 0.009355 0.000000 0.000000 0.000000
# 4 0.000000 0.000000 0.000000 0.037607 0.000000 0.000000
# 5 0.000000 0.000000 0.000000 0.000000 0.023997 0.000000
# 6 0.000000 0.000000 0.000000 0.000000 0.000000 0.035093
#
#
# Mechanical properties :
#
#
# Convention : Reuss Voigt Hill
#
# Bulk Modulus (GPa) = 55.85918 57.43844 56.64881
# Shear Modulus (GPa) = 31.14171 32.52814 31.83493
#
# Velocity S-wave (km/s) = 3.87484 3.96015 3.91773
# Velocity P-wave (km/s) = 6.85205 6.97160 6.91208
#
# Compressibility (1/GPa) = 0.01790216
#
# Stress axis : x y z
#
# Youngs Moduli (GPa) = 69.06934 71.10505 106.89305
#
# Poissons Ratio (x) = 0.32366 0.33337
# Poissons Ratio (y) = 0.31439 0.24872
# Poissons Ratio (z) = 0.21541 0.16545
#
# Static dielectric constant tensor:
#      x y z
#    x 3.909500 0.000000 0.000000 
#    y 0.000000 3.748500 0.000000 
#    z 0.000000 0.000000 3.812260 
# 
# 
# High freq. dielectric constant tensor:
#      x y z
#    x 1.821670 0.000000 0.000000 
#    y 0.000000 1.816610 0.000000 
#    z 0.000000 0.000000 1.825960 
# 
# From -- ./inp_files/2214.got.cif
#   From: 2010.03.12/outbox.cif.g09.slc.cpg/sg41_2_cif.got.tgz:2214.got - 2010.04.14 01:55:53.
