data_PCOD8185476
_publ_section_title
;
Structure prediction by ZEFSAII (Michael W. Deem and Ramdas Pophale) SiO2 
 PCOD8185476
Probable space group: A B A 2
;
_chemical_formula_sum "Si O2"
_cell_formula_units_Z 48
_cell_length_a 22.900829
_cell_length_b 11.419286
_cell_length_c 8.490549
_cell_angle_alpha 90.000000
_cell_angle_beta 90.000000
_cell_angle_gamma 90.000000
_cell_volume 2220.372944
_symmetry_space_group_name_H-M "A B A 2"
_symmetry_group_IT_number 41
_symmetry_cell_setting 'orthorhombic'
loop_
_space_group_symop_operation_xyz
x,y,z
-x,-y,z
1/2-x,y,1/2+z
1/2+x,-y,1/2+z
x,1/2+y,1/2+z
-x,1/2-y,1/2+z
1/2-x,1/2+y,z
1/2+x,1/2-y,z
loop_
_atom_site_type_symbol
_atom_site_label
_atom_site_fract_x
_atom_site_fract_y
_atom_site_fract_z
Si Si1 0.154098 0.872954 0.460840
Si Si2 0.872510 0.751470 0.637206
Si Si3 0.566766 0.533857 0.989053
Si Si4 0.064910 0.011790 0.638665
Si Si5 0.284038 0.598279 0.433984
Si Si6 0.168157 0.137015 0.090848
O O1 0.153883 0.810158 0.291678
O O2 0.098433 0.955350 0.491259
O O3 0.154417 0.774932 0.596550
O O4 0.207692 0.962738 0.486204
O O5 0.913704 0.658776 0.552268
O O6 0.819339 0.803273 0.532733
O O7 0.916385 0.855880 0.677983
O O8 0.500000 0.500000 0.035060
O O9 0.609389 0.434126 0.057461
O O10 0.573048 0.554339 0.803113
O O11 0.000000 0.000000 0.576845
O O12 0.215000 0.619209 0.449685
O O13 0.302554 0.600590 0.253010
#
# Coordination Sequence:
#
# PCOD8185476 Si02
#       6
#     8   8   8   8   8   8
#     4  11  24  44  68  99 136 175 229 283 346 407
#     4  11  23  46  66 100 141 173 233 286 341 416
#     4  11  25  45  69 101 142 186 231 286 347 414
#     4  10  24  42  68 100 135 185 229 280 344 410
#     4  11  27  44  69 101 132 182 224 288 354 412
#     4  12  25  45  71  99 136 179 229 286 352 415
#
# _framework density 21.617991
#
# number of rings (size 3 to 8) (size 9 to 14) (size 15 to 20)
#    0.000    1.000    3.333    2.000    7.000    2.000 
#    0.000    0.000    0.000    0.000    0.000    0.000 
#    0.000    0.000    0.000    0.000    0.000    0.000 
#
# Total GULP energy -297518.931841 kJ/mol
# GULP energy per Si atom -12396.622160 kJ/mol
# Density = 2.156879 g / cm^3
# Si number density = 21.617991 Si / 1000 Ang^3
#
#
#
# Elastic Constant Matrix: (Units=GPa)
#
#
# Indices 1 2 3 4 5 6 
#
# 1 125.4623 63.0830 33.9505 0.0000 0.0000 0.0000
# 2 63.0830 126.5966 22.0906 0.0000 0.0000 0.0000
# 3 33.9505 22.0906 68.9039 0.0000 0.0000 0.0000
# 4 0.0000 0.0000 0.0000 34.3991 0.0000 0.0000
# 5 0.0000 0.0000 0.0000 0.0000 27.5035 0.0000
# 6 0.0000 0.0000 0.0000 0.0000 0.0000 21.1333
#
#
#
# Elastic Compliance Matrix: (Units=1/GPa)
#
#
# Indices 1 2 3 4 5 6 
#
# 1 0.011637 -0.005082 -0.004104 0.000000 0.000000 0.000000
# 2 -0.005082 0.010587 -0.000890 0.000000 0.000000 0.000000
# 3 -0.004104 -0.000890 0.016821 0.000000 0.000000 0.000000
# 4 0.000000 0.000000 0.000000 0.029071 0.000000 0.000000
# 5 0.000000 0.000000 0.000000 0.000000 0.036359 0.000000
# 6 0.000000 0.000000 0.000000 0.000000 0.000000 0.047319
#
#
# Mechanical properties :
#
#
# Convention : Reuss Voigt Hill
#
# Bulk Modulus (GPa) = 52.93533 62.13456 57.53494
# Shear Modulus (GPa) = 28.05172 30.06310 29.05741
#
# Velocity S-wave (km/s) = 3.60614 3.73319 3.67022
# Velocity P-wave (km/s) = 6.47139 6.88380 6.68078
#
# Compressibility (1/GPa) = 0.01889098
#
# Stress axis : x y z
#
# Youngs Moduli (GPa) = 85.93615 94.45621 59.45117
#
# Poissons Ratio (x) = 0.48006 0.24400
# Poissons Ratio (y) = 0.43675 0.05291
# Poissons Ratio (z) = 0.35270 0.08406
#
# Static dielectric constant tensor:
#      x y z
#    x 3.982600 0.000000 0.000000 
#    y 0.000000 4.252060 0.000000 
#    z 0.000000 0.000000 3.858290 
# 
# 
# High freq. dielectric constant tensor:
#      x y z
#    x 1.850560 0.000000 0.000000 
#    y 0.000000 1.868300 0.000000 
#    z 0.000000 0.000000 1.851150 
# 
# From -- ./inp_files/3601.got.cif
#   From: 2010.03.12/outbox.cif.g09.slc.cpg/sg41_2_cif.got.tgz:3601.got - 2010.04.14 01:55:53.
