data_PCOD8185835
_publ_section_title
;
Structure prediction by ZEFSAII (Michael W. Deem and Ramdas Pophale) SiO2 
 PCOD8185835
Probable space group: F M M 2
;
_chemical_formula_sum "Si O2"
_cell_formula_units_Z 96
_cell_length_a 25.013015
_cell_length_b 9.042089
_cell_length_c 23.456684
_cell_angle_alpha 90.000000
_cell_angle_beta 90.000000
_cell_angle_gamma 90.000000
_cell_volume 5305.196057
_symmetry_space_group_name_H-M "F M M 2"
_symmetry_group_IT_number 42
_symmetry_cell_setting 'orthorhombic'
loop_
_space_group_symop_operation_xyz
x,y,z
-x,-y,z
-x,y,z
x,-y,z
x,1/2+y,1/2+z
-x,1/2-y,1/2+z
-x,1/2+y,1/2+z
x,1/2-y,1/2+z
1/2+x,y,1/2+z
1/2-x,-y,1/2+z
1/2-x,y,1/2+z
1/2+x,-y,1/2+z
1/2+x,1/2+y,z
1/2-x,1/2-y,z
1/2-x,1/2+y,z
1/2+x,1/2-y,z
loop_
_atom_site_type_symbol
_atom_site_label
_atom_site_fract_x
_atom_site_fract_y
_atom_site_fract_z
Si Si1 0.305612 0.324638 0.855650
Si Si2 0.197109 0.829571 0.726271
Si Si3 0.589501 0.168430 0.177487
Si Si4 0.939767 0.658960 0.780042
Si Si5 0.500000 0.175007 0.606725
Si Si6 0.904710 0.170702 0.403825
Si Si7 0.000000 0.824258 0.485118
O O1 0.301005 0.500000 0.861871
O O2 0.250000 0.250000 0.873921
O O3 0.319990 0.273835 0.790303
O O4 0.350651 0.266875 0.899898
O O5 0.250000 0.750000 0.704343
O O6 0.153538 0.804600 0.675366
O O7 0.210971 0.000000 0.732891
O O8 0.581133 0.202492 0.244202
O O9 0.554552 0.274292 0.137852
O O10 0.573537 0.000000 0.163615
O O11 0.910317 0.500000 0.766975
O O12 0.937447 0.695989 0.846189
O O13 0.000000 0.637048 0.760874
O O14 0.500000 0.241780 0.544539
O O15 0.500000 0.000000 0.604030
O O16 0.945436 0.224643 0.453041
O O17 0.888810 0.000000 0.413307
O O18 0.000000 0.000000 0.493739
#
# Coordination Sequence:
#
# PCOD8185835 Si02
#       7
#    16  16  16  16   8  16   8
#     4  10  19  32  49  77 114 150 185 220 263 319
#     4   9  19  32  49  77 112 147 181 214 258 316
#     4  11  21  35  54  79 110 145 181 221 268 322
#     4  10  18  29  48  79 112 142 174 212 263 326
#     4  12  26  41  56  79 105 140 186 230 279 324
#     4  10  19  33  55  81 111 145 179 218 269 326
#     4  10  22  41  60  79 105 142 184 226 275 326
#
# _framework density 18.095466999999999
#
# number of rings (size 3 to 8) (size 9 to 14) (size 15 to 20)
#    0.000    1.833    3.333    1.750    0.000    2.667 
#    0.000    0.000    0.000    1.000    0.000    4.667 
#    0.000    0.000    0.000    0.000    0.000    0.000 
#
# Total GULP energy -297376.197931 kJ/mol
# GULP energy per Si atom -12390.674914 kJ/mol
# Density = 1.805428 g / cm^3
# Si number density = 18.095467 Si / 1000 Ang^3
#
#
#
# Elastic Constant Matrix: (Units=GPa)
#
#
# Indices 1 2 3 4 5 6 
#
# 1 128.8683 59.5869 47.6122 0.0000 0.0000 0.0000
# 2 59.5869 69.7588 39.2370 0.0000 0.0000 0.0000
# 3 47.6122 39.2370 78.8987 0.0000 0.0000 0.0000
# 4 0.0000 0.0000 0.0000 23.2324 0.0000 0.0000
# 5 0.0000 0.0000 0.0000 0.0000 13.2474 0.0000
# 6 0.0000 0.0000 0.0000 0.0000 0.0000 31.0944
#
#
#
# Elastic Compliance Matrix: (Units=1/GPa)
#
#
# Indices 1 2 3 4 5 6 
#
# 1 0.013428 -0.009596 -0.003331 0.000000 0.000000 0.000000
# 2 -0.009596 0.026760 -0.007517 0.000000 0.000000 0.000000
# 3 -0.003331 -0.007517 0.018423 0.000000 0.000000 0.000000
# 4 0.000000 0.000000 0.000000 0.043043 0.000000 0.000000
# 5 0.000000 0.000000 0.000000 0.000000 0.075487 0.000000
# 6 0.000000 0.000000 0.000000 0.000000 0.000000 0.032160
#
#
# Mechanical properties :
#
#
# Convention : Reuss Voigt Hill
#
# Bulk Modulus (GPa) = 56.42582 63.37755 59.90168
# Shear Modulus (GPa) = 19.52389 22.25414 20.88902
#
# Velocity S-wave (km/s) = 3.28828 3.51068 3.40130
# Velocity P-wave (km/s) = 6.75774 7.17866 6.97138
#
# Compressibility (1/GPa) = 0.01772238
#
# Stress axis : x y z
#
# Youngs Moduli (GPa) = 74.47340 37.36893 54.28059
#
# Poissons Ratio (x) = 0.35860 0.18079
# Poissons Ratio (y) = 0.71466 0.40804
# Poissons Ratio (z) = 0.24805 0.28091
#
# Static dielectric constant tensor:
#      x y z
#    x 3.503380 0.000000 0.000000 
#    y 0.000000 4.695190 0.000000 
#    z 0.000000 0.000000 3.034090 
# 
# 
# High freq. dielectric constant tensor:
#      x y z
#    x 1.710250 0.000000 0.000000 
#    y 0.000000 1.703940 0.000000 
#    z 0.000000 0.000000 1.655810 
# 
# From -- ./inp_files/28197.got.cif
#   From: 2010.03.12/outbox.cif.g09.slc.cpg/sg42_15_cif.got.tgz:28197.got - 2010.04.14 02:04:31.
