data_PCOD8185812
_publ_section_title
;
Structure prediction by ZEFSAII (Michael W. Deem and Ramdas Pophale) SiO2 
 PCOD8185812
Probable space group: F M M 2
;
_chemical_formula_sum "Si O2"
_cell_formula_units_Z 96
_cell_length_a 26.363710
_cell_length_b 8.738952
_cell_length_c 23.362086
_cell_angle_alpha 90.000000
_cell_angle_beta 90.000000
_cell_angle_gamma 90.000000
_cell_volume 5382.418940
_symmetry_space_group_name_H-M "F M M 2"
_symmetry_group_IT_number 42
_symmetry_cell_setting 'orthorhombic'
loop_
_space_group_symop_operation_xyz
x,y,z
-x,-y,z
-x,y,z
x,-y,z
x,1/2+y,1/2+z
-x,1/2-y,1/2+z
-x,1/2+y,1/2+z
x,1/2-y,1/2+z
1/2+x,y,1/2+z
1/2-x,-y,1/2+z
1/2-x,y,1/2+z
1/2+x,-y,1/2+z
1/2+x,1/2+y,z
1/2-x,1/2-y,z
1/2-x,1/2+y,z
1/2+x,1/2-y,z
loop_
_atom_site_type_symbol
_atom_site_label
_atom_site_fract_x
_atom_site_fract_y
_atom_site_fract_z
Si Si1 0.303780 0.318026 0.810900
Si Si2 0.696065 0.683579 0.187116
Si Si3 0.119678 0.666910 0.592602
Si Si4 0.860352 0.678891 0.910309
Si Si5 0.556910 0.680657 0.500321
Si Si6 0.203326 0.666891 0.498735
O O1 0.299560 0.500000 0.806783
O O2 0.250000 0.250000 0.833150
O O3 0.316492 0.247600 0.749408
O O4 0.351271 0.269931 0.851183
O O5 0.699552 0.500000 0.186964
O O6 0.750000 0.750000 0.165229
O O7 0.648982 0.739904 0.147092
O O8 0.096822 0.500000 0.609026
O O9 0.075924 0.769481 0.563749
O O10 0.160787 0.642219 0.544463
O O11 0.864607 0.500000 0.896896
O O12 0.909486 0.739949 0.946263
O O13 0.811578 0.716305 0.948527
O O14 0.500000 0.743109 0.491343
O O15 0.558926 0.500000 0.500245
O O16 0.217324 0.500000 0.472793
O O17 0.250000 0.750000 0.530048
#
# Coordination Sequence:
#
# PCOD8185812 Si02
#       6
#    16  16  16  16  16  16
#     4  11  21  33  49  71 100 134 170 202 238 283
#     4  10  19  32  49  72 102 135 170 201 235 280
#     4   9  19  32  48  71  98 128 161 198 239 288
#     4  10  19  32  49  69  95 126 160 199 243 290
#     4   9  19  35  55  77  98 123 158 202 252 300
#     4  10  18  28  42  65  96 126 157 192 234 284
#
# _framework density 17.835846
#
# number of rings (size 3 to 8) (size 9 to 14) (size 15 to 20)
#    0.000    2.167    0.000    5.000    0.000    3.000 
#    0.000    0.000    0.000    1.000    0.000    2.333 
#    0.000    0.000    0.000    0.000    0.000    0.000 
#
# Total GULP energy -297356.656736 kJ/mol
# GULP energy per Si atom -12389.860697 kJ/mol
# Density = 1.779525 g / cm^3
# Si number density = 17.835846 Si / 1000 Ang^3
#
#
#
# Elastic Constant Matrix: (Units=GPa)
#
#
# Indices 1 2 3 4 5 6 
#
# 1 96.7532 39.1221 51.4124 0.0000 0.0000 0.0000
# 2 39.1221 72.7055 29.5071 -0.0001 0.0000 0.0000
# 3 51.4124 29.5071 101.6596 0.0000 0.0000 0.0000
# 4 0.0000 -0.0001 0.0000 2.0175 0.0000 0.0000
# 5 0.0000 0.0000 0.0000 0.0000 24.4789 0.0000
# 6 0.0000 0.0000 0.0000 0.0000 0.0000 19.8845
#
#
#
# Elastic Compliance Matrix: (Units=1/GPa)
#
#
# Indices 1 2 3 4 5 6 
#
# 1 0.016228 -0.006123 -0.006430 0.000000 0.000000 0.000000
# 2 -0.006123 0.017901 -0.002099 0.000000 0.000000 0.000000
# 3 -0.006430 -0.002099 0.013698 0.000000 0.000000 0.000000
# 4 0.000000 0.000000 0.000000 0.495662 0.000000 -0.000001
# 5 0.000000 0.000000 0.000000 0.000000 0.040852 0.000000
# 6 0.000000 0.000000 0.000000 -0.000001 0.000000 0.050290
#
#
# Mechanical properties :
#
#
# Convention : Reuss Voigt Hill
#
# Bulk Modulus (GPa) = 53.98737 56.80018 55.39378
# Shear Modulus (GPa) = 7.46148 19.34796 13.40472
#
# Velocity S-wave (km/s) = 2.04756 3.29717 2.74443
# Velocity P-wave (km/s) = 5.99373 6.81251 6.41619
#
# Compressibility (1/GPa) = 0.01852285
#
# Stress axis : x y z
#
# Youngs Moduli (GPa) = 61.62226 55.86393 73.00401
#
# Poissons Ratio (x) = 0.34203 0.46941
# Poissons Ratio (y) = 0.37729 0.15326
# Poissons Ratio (z) = 0.39622 0.11728
#
# Static dielectric constant tensor:
#      x y z
#    x 3.795540 0.000000 0.000000 
#    y 0.000000 3.824300 0.000000 
#    z 0.000000 0.000000 3.459300 
# 
# 
# High freq. dielectric constant tensor:
#      x y z
#    x 1.660870 0.000000 0.000000 
#    y 0.000000 1.698290 0.000000 
#    z 0.000000 0.000000 1.684180 
# 
# From -- ./inp_files/28165.got.cif
#   From: 2010.03.12/outbox.cif.g09.slc.cpg/sg42_15_cif.got.tgz:28165.got - 2010.04.14 02:04:31.
