data_PCOD8185598
_publ_section_title
;
Structure prediction by ZEFSAII (Michael W. Deem and Ramdas Pophale) SiO2 
 PCOD8185598
Probable space group: A B A 2
;
_chemical_formula_sum "Si O2"
_cell_formula_units_Z 60
_cell_length_a 19.085072
_cell_length_b 23.996933
_cell_length_c 5.617335
_cell_angle_alpha 90.000000
_cell_angle_beta 90.000000
_cell_angle_gamma 90.000000
_cell_volume 2572.645026
_symmetry_space_group_name_H-M "A B A 2"
_symmetry_group_IT_number 41
_symmetry_cell_setting 'orthorhombic'
loop_
_space_group_symop_operation_xyz
x,y,z
-x,-y,z
1/2-x,y,1/2+z
1/2+x,-y,1/2+z
x,1/2+y,1/2+z
-x,1/2-y,1/2+z
1/2-x,1/2+y,z
1/2+x,1/2-y,z
loop_
_atom_site_type_symbol
_atom_site_label
_atom_site_fract_x
_atom_site_fract_y
_atom_site_fract_z
Si Si1 0.984864 0.407257 0.737810
Si Si2 0.014776 0.806711 0.528426
Si Si3 0.886195 0.238643 0.191001
Si Si4 0.212518 0.951211 0.867354
Si Si5 0.377166 0.554437 0.871865
Si Si6 0.207419 0.154420 0.706802
Si Si7 0.000000 0.000000 0.602671
Si Si8 0.904163 0.132178 0.913343
O O1 0.910384 0.425554 0.623111
O O2 0.051463 0.411522 0.567168
O O3 0.978581 0.343421 0.821415
O O4 0.011928 0.445631 0.948230
O O5 0.958296 0.759702 0.575740
O O6 0.089760 0.779241 0.455559
O O7 0.033718 0.845773 0.746421
O O8 0.824203 0.283387 0.200038
O O9 0.864216 0.183164 0.047291
O O10 0.261863 0.940278 0.638557
O O11 0.153740 0.906361 0.795199
O O12 0.191372 0.016242 0.890832
O O13 0.355730 0.609011 0.714739
O O14 0.431896 0.512460 0.755335
O O15 0.249856 0.146442 0.457568
#
# Coordination Sequence:
#
# PCOD8185598 Si02
#       8
#     8   8   8   8   8   8   4   8
#     4  11  24  41  75 109 144 180 235 315 390 447
#     4  11  23  44  74 111 144 184 241 324 386 448
#     4  11  25  43  77 107 149 189 251 310 392 448
#     4  12  30  50  73 101 146 203 257 302 359 446
#     4  12  27  48  74 109 145 195 251 317 383 454
#     4  12  31  51  75 109 156 212 259 308 371 473
#     4  12  24  42  78 108 146 182 238 322 388 454
#     4  11  25  46  71 109 144 191 245 312 381 451
#
# _framework density 23.322302000000001
#
# number of rings (size 3 to 8) (size 9 to 14) (size 15 to 20)
#    0.000    0.533    1.333    6.000   14.933    1.067 
#    0.000    0.000    0.000    0.000    0.000    0.000 
#    0.000    0.000    0.000    0.000    0.000    0.000 
#
# Total GULP energy -371703.692775 kJ/mol
# GULP energy per Si atom -12390.123093 kJ/mol
# Density = 2.326922 g / cm^3
# Si number density = 23.322302 Si / 1000 Ang^3
#
#
#
# Elastic Constant Matrix: (Units=GPa)
#
#
# Indices 1 2 3 4 5 6 
#
# 1 58.9049 19.7444 20.5794 0.0000 0.0000 0.0000
# 2 19.7444 87.3483 7.1471 0.0000 0.0000 0.0000
# 3 20.5794 7.1471 101.0530 0.0000 0.0000 0.0000
# 4 0.0000 0.0000 0.0000 393.3977 0.0003 0.0000
# 5 0.0000 0.0000 0.0000 0.0003 864.2684 0.0000
# 6 0.0000 0.0000 0.0000 0.0000 0.0000 58.2888
#
#
#
# Elastic Compliance Matrix: (Units=1/GPa)
#
#
# Indices 1 2 3 4 5 6 
#
# 1 0.019661 -0.004141 -0.003711 0.000000 0.000000 0.000000
# 2 -0.004141 0.012387 -0.000033 0.000000 0.000000 0.000000
# 3 -0.003711 -0.000033 0.010654 0.000000 0.000000 0.000000
# 4 0.000000 0.000000 0.000000 0.002542 0.000000 0.000000
# 5 0.000000 0.000000 0.000000 0.000000 0.001157 0.000000
# 6 0.000000 0.000000 0.000000 0.000000 0.000000 0.017156
#
#
# Mechanical properties :
#
#
# Convention : Reuss Voigt Hill
#
# Bulk Modulus (GPa) = 37.12939 38.02756 37.57847
# Shear Modulus (GPa) = 56.62292 276.51335 166.56814
#
# Velocity S-wave (km/s) = 4.93266 10.90042 8.46021
# Velocity P-wave (km/s) = 6.95674 13.21992 10.56320
#
# Compressibility (1/GPa) = 0.02693284
#
# Stress axis : x y z
#
# Youngs Moduli (GPa) = 50.86227 80.72947 93.86254
#
# Poissons Ratio (x) = 0.33426 0.34833
# Poissons Ratio (y) = 0.21060 0.00309
# Poissons Ratio (z) = 0.18875 0.00265
#
# Static dielectric constant tensor:
#      x y z
#    x 3.858950 0.000000 0.000000 
#    y 0.000000 -5.691710 0.000000 
#    z 0.000000 0.000000 4.637570 
# 
# 
# High freq. dielectric constant tensor:
#      x y z
#    x 1.904770 0.000000 0.000000 
#    y 0.000000 1.951670 0.000000 
#    z 0.000000 0.000000 1.930580 
# 
# From -- ./inp_files/551.got.cif
#   From: 2010.03.12/outbox.cif.g09.slc.cpg/sg41_1_cif.got.tgz:551.got - 2010.04.14 01:55:53.
