data_PCOD8185449
_publ_section_title
;
Structure prediction by ZEFSAII (Michael W. Deem and Ramdas Pophale) SiO2 
 PCOD8185449
Probable space group: A B A 2
;
_chemical_formula_sum "Si O2"
_cell_formula_units_Z 48
_cell_length_a 13.206216
_cell_length_b 15.815995
_cell_length_c 9.122539
_cell_angle_alpha 90.000000
_cell_angle_beta 90.000000
_cell_angle_gamma 90.000000
_cell_volume 1905.419669
_symmetry_space_group_name_H-M "A B A 2"
_symmetry_group_IT_number 41
_symmetry_cell_setting 'orthorhombic'
loop_
_space_group_symop_operation_xyz
x,y,z
-x,-y,z
1/2-x,y,1/2+z
1/2+x,-y,1/2+z
x,1/2+y,1/2+z
-x,1/2-y,1/2+z
1/2-x,1/2+y,z
1/2+x,1/2-y,z
loop_
_atom_site_type_symbol
_atom_site_label
_atom_site_fract_x
_atom_site_fract_y
_atom_site_fract_z
Si Si1 0.312627 0.294674 0.427600
Si Si2 0.000000 0.000000 0.131431
Si Si3 0.198488 0.439619 0.257129
Si Si4 0.019258 0.125191 0.369107
Si Si5 0.208210 0.036023 0.021677
Si Si6 0.214165 0.693882 0.706018
Si Si7 0.000000 0.000000 0.617434
O O1 0.229646 0.358534 0.354439
O O2 0.430701 0.315406 0.427353
O O3 0.300076 0.209791 0.328921
O O4 0.292558 0.277046 0.600134
O O5 0.037863 0.926546 0.240954
O O6 0.912990 0.964559 0.028022
O O7 0.236043 0.523476 0.351043
O O8 0.254552 0.449488 0.102541
O O9 0.078575 0.448158 0.220169
O O10 0.111252 0.176392 0.296395
O O11 0.057541 0.066050 0.505928
O O12 0.251539 0.119289 0.098399
#
# Coordination Sequence:
#
# PCOD8185449 Si02
#       7
#     8   4   8   8   8   8   4
#     4  12  25  49  71 110 148 200 243 312 389 451
#     4   9  19  40  72  96 134 184 252 306 356 430
#     4  12  25  44  79 104 143 189 256 314 369 450
#     4  10  23  46  72 105 148 196 249 316 377 449
#     4  11  23  44  70 106 136 190 243 307 366 449
#     4  11  27  45  71 106 153 193 242 305 383 461
#     4  11  25  46  78 114 140 200 270 324 374 444
#
# _framework density 25.191300999999999
#
# number of rings (size 3 to 8) (size 9 to 14) (size 15 to 20)
#    0.000    1.000    1.667    4.500    7.000    1.333 
#   12.000    0.000    0.000    0.000    0.000    0.000 
#    0.000    0.000    0.000    0.000    0.000    0.000 
#
# Total GULP energy -297346.372129 kJ/mol
# GULP energy per Si atom -12389.432172 kJ/mol
# Density = 2.513396 g / cm^3
# Si number density = 25.191301 Si / 1000 Ang^3
#
#
#
# Elastic Constant Matrix: (Units=GPa)
#
#
# Indices 1 2 3 4 5 6 
#
# 1 51.9830 25.1782 23.9233 0.0000 0.0000 0.0000
# 2 25.1782 60.4842 29.2619 0.0000 0.0000 0.0000
# 3 23.9233 29.2619 140.3689 0.0000 0.0000 0.0000
# 4 0.0000 0.0000 0.0000 50.3082 0.0000 0.0000
# 5 0.0000 0.0000 0.0000 0.0000 39.7156 0.0000
# 6 0.0000 0.0000 0.0000 0.0000 0.0000 35.8552
#
#
#
# Elastic Compliance Matrix: (Units=1/GPa)
#
#
# Indices 1 2 3 4 5 6 
#
# 1 0.024747 -0.009188 -0.002302 0.000000 0.000000 0.000000
# 2 -0.009188 0.021799 -0.002978 0.000000 0.000000 0.000000
# 3 -0.002302 -0.002978 0.008137 0.000000 0.000000 0.000000
# 4 0.000000 0.000000 0.000000 0.019877 0.000000 0.000000
# 5 0.000000 0.000000 0.000000 0.000000 0.025179 0.000000
# 6 0.000000 0.000000 0.000000 0.000000 0.000000 0.027890
#
#
# Mechanical properties :
#
#
# Convention : Reuss Voigt Hill
#
# Bulk Modulus (GPa) = 38.84081 45.50698 42.17389
# Shear Modulus (GPa) = 30.27587 36.80731 33.54159
#
# Velocity S-wave (km/s) = 3.47052 3.82660 3.65290
# Velocity P-wave (km/s) = 5.61348 6.13413 5.87957
#
# Compressibility (1/GPa) = 0.02574612
#
# Stress axis : x y z
#
# Youngs Moduli (GPa) = 40.40949 45.87416 122.88992
#
# Poissons Ratio (x) = 0.42147 0.28293
# Poissons Ratio (y) = 0.37127 0.36602
# Poissons Ratio (z) = 0.09304 0.13663
#
# Static dielectric constant tensor:
#      x y z
#    x 4.075850 0.000000 0.000000 
#    y 0.000000 4.621520 0.000000 
#    z 0.000000 0.000000 4.937610 
# 
# 
# High freq. dielectric constant tensor:
#      x y z
#    x 1.985680 0.000000 0.000000 
#    y 0.000000 1.999400 0.000000 
#    z 0.000000 0.000000 2.036370 
# 
# From -- ./inp_files/2575.got.cif
#   From: 2010.03.12/outbox.cif.g09.slc.cpg/sg41_2_cif.got.tgz:2575.got - 2010.04.14 01:55:53.
