data_PCOD8185094
_publ_section_title
;
Structure prediction by ZEFSAII (Michael W. Deem and Ramdas Pophale) SiO2 
 PCOD8185094
Probable space group: A B A 2
;
_chemical_formula_sum "Si O2"
_cell_formula_units_Z 60
_cell_length_a 7.805975
_cell_length_b 24.375472
_cell_length_c 16.434728
_cell_angle_alpha 90.000000
_cell_angle_beta 90.000000
_cell_angle_gamma 90.000000
_cell_volume 3127.106778
_symmetry_space_group_name_H-M "A B A 2"
_symmetry_group_IT_number 41
_symmetry_cell_setting 'orthorhombic'
loop_
_space_group_symop_operation_xyz
x,y,z
-x,-y,z
1/2-x,y,1/2+z
1/2+x,-y,1/2+z
x,1/2+y,1/2+z
-x,1/2-y,1/2+z
1/2-x,1/2+y,z
1/2+x,1/2-y,z
loop_
_atom_site_type_symbol
_atom_site_label
_atom_site_fract_x
_atom_site_fract_y
_atom_site_fract_z
Si Si1 0.006563 0.130578 0.169280
Si Si2 0.502755 0.821659 0.501787
Si Si3 0.338972 0.056762 0.185736
Si Si4 0.305266 0.736088 0.416955
Si Si5 0.500000 0.000000 0.333229
Si Si6 0.789831 0.084000 0.934006
Si Si7 0.312428 0.440077 0.609192
Si Si8 0.891403 0.675696 0.836079
O O1 0.846828 0.092295 0.147177
O O2 0.954418 0.168354 0.244675
O O3 0.178256 0.097011 0.189000
O O4 0.050247 0.172214 0.096186
O O5 0.353996 0.776041 0.492425
O O6 0.658244 0.803910 0.445785
O O7 0.446941 0.880186 0.466778
O O8 0.507930 0.084053 0.144216
O O9 0.389269 0.041470 0.277949
O O10 0.288625 0.003215 0.134110
O O11 0.456014 0.695910 0.392912
O O12 0.252248 0.776172 0.341524
O O13 0.364314 0.968643 0.388882
O O14 0.673222 0.117682 0.870917
O O15 0.679128 0.064366 0.011564
#
# Coordination Sequence:
#
# PCOD8185094 Si02
#       8
#     8   8   8   8   4   8   8   8
#     4  11  22  37  63  89 116 159 199 246 309 369
#     4   9  21  37  62  83 114 157 195 245 307 359
#     4  10  22  40  57  84 123 167 195 252 299 361
#     4   9  20  41  59  83 122 146 199 258 296 370
#     4  10  22  38  58  90 130 158 204 258 310 354
#     4  10  21  37  62  89 120 163 200 254 299 369
#     4   9  21  40  57  84 125 157 206 246 288 363
#     4  10  21  38  59  91 115 155 199 250 313 358
#
# _framework density 19.187063999999999
#
# number of rings (size 3 to 8) (size 9 to 14) (size 15 to 20)
#    0.000    2.400    0.000    2.000    7.467    1.067 
#    7.200    0.000    0.000    0.000    0.000    0.000 
#    0.000    0.000    0.000    0.000    0.000    0.000 
#
# Total GULP energy -371952.723671 kJ/mol
# GULP energy per Si atom -12398.424122 kJ/mol
# Density = 1.914339 g / cm^3
# Si number density = 19.187064 Si / 1000 Ang^3
#
#
#
# Elastic Constant Matrix: (Units=GPa)
#
#
# Indices 1 2 3 4 5 6 
#
# 1 101.2066 41.1688 32.9292 0.0000 0.0000 0.0000
# 2 41.1688 67.0324 43.5585 0.0000 0.0000 0.0000
# 3 32.9292 43.5585 120.5680 0.0000 0.0000 0.0000
# 4 0.0000 0.0000 0.0000 22.2013 0.0000 0.0000
# 5 0.0000 0.0000 0.0000 0.0000 23.3086 0.0000
# 6 0.0000 0.0000 0.0000 0.0000 0.0000 24.4741
#
#
#
# Elastic Compliance Matrix: (Units=1/GPa)
#
#
# Indices 1 2 3 4 5 6 
#
# 1 0.013244 -0.007557 -0.000887 0.000000 0.000000 0.000000
# 2 -0.007557 0.023808 -0.006537 0.000000 0.000000 0.000000
# 3 -0.000887 -0.006537 0.010898 0.000000 0.000000 0.000000
# 4 0.000000 0.000000 0.000000 0.045042 0.000000 0.000000
# 5 0.000000 0.000000 0.000000 0.000000 0.042903 0.000000
# 6 0.000000 0.000000 0.000000 0.000000 0.000000 0.040860
#
#
# Mechanical properties :
#
#
# Convention : Reuss Voigt Hill
#
# Bulk Modulus (GPa) = 55.59711 58.23556 56.91633
# Shear Modulus (GPa) = 23.50600 25.40682 24.45641
#
# Velocity S-wave (km/s) = 3.50393 3.64285 3.57407
# Velocity P-wave (km/s) = 6.73864 6.93622 6.83815
#
# Compressibility (1/GPa) = 0.01798655
#
# Stress axis : x y z
#
# Youngs Moduli (GPa) = 75.50871 42.00345 91.76050
#
# Poissons Ratio (x) = 0.31744 0.08136
# Poissons Ratio (y) = 0.57066 0.59984
# Poissons Ratio (z) = 0.06695 0.27458
#
# Static dielectric constant tensor:
#      x y z
#    x 3.625900 0.000000 0.000000 
#    y 0.000000 3.466200 0.000000 
#    z 0.000000 0.000000 3.583640 
# 
# 
# High freq. dielectric constant tensor:
#      x y z
#    x 1.753810 0.000000 0.000000 
#    y 0.000000 1.740560 0.000000 
#    z 0.000000 0.000000 1.747380 
# 
# From -- ./inp_files/7546.got.cif
#   From: 2010.03.12/outbox.cif.g09.slc.cpg/sg41_4_cif.got.tgz:7546.got - 2010.04.14 01:55:53.
