data_PCOD8185652
_publ_section_title
;
Structure prediction by ZEFSAII (Michael W. Deem and Ramdas Pophale) SiO2 
 PCOD8185652
Probable space group: A B A 2
;
_chemical_formula_sum "Si O2"
_cell_formula_units_Z 52
_cell_length_a 11.229572
_cell_length_b 8.883419
_cell_length_c 24.769524
_cell_angle_alpha 90.000000
_cell_angle_beta 90.000000
_cell_angle_gamma 90.000000
_cell_volume 2470.933239
_symmetry_space_group_name_H-M "A B A 2"
_symmetry_group_IT_number 41
_symmetry_cell_setting 'orthorhombic'
loop_
_space_group_symop_operation_xyz
x,y,z
-x,-y,z
1/2-x,y,1/2+z
1/2+x,-y,1/2+z
x,1/2+y,1/2+z
-x,1/2-y,1/2+z
1/2-x,1/2+y,z
1/2+x,1/2-y,z
loop_
_atom_site_type_symbol
_atom_site_label
_atom_site_fract_x
_atom_site_fract_y
_atom_site_fract_z
Si Si1 0.871333 0.979339 0.763660
Si Si2 0.808633 0.810621 0.099972
Si Si3 0.500000 0.000000 0.653959
Si Si4 0.375547 0.574546 0.421273
Si Si5 0.124452 0.425456 0.386650
Si Si6 0.691368 0.189372 0.707952
Si Si7 0.128668 0.479345 0.044264
O O1 0.832715 0.805417 0.757149
O O2 0.876837 0.048631 0.823064
O O3 0.778976 0.065230 0.728323
O O4 0.000000 0.000000 0.736474
O O5 0.750008 0.749998 0.153964
O O6 0.832709 0.694575 0.050774
O O7 0.930233 0.892445 0.113627
O O8 0.721016 0.934759 0.079605
O O9 0.430231 0.892446 0.694291
O O10 0.500000 0.500000 0.397744
O O11 0.250000 0.500001 0.403961
O O12 0.375540 0.750001 0.403961
O O13 0.376832 0.548638 0.484860
O O14 0.000000 0.500000 0.410180
O O15 0.000000 0.500000 0.071448
#
# Coordination Sequence:
#
# PCOD8185652 Si02
#       7
#     8   8   4   8   8   8   8
#     4  11  25  43  67  97 136 177 226 277 340 405
#     4  12  23  43  65  98 137 179 225 277 332 403
#     4  12  24  40  68 100 140 184 230 274 340 396
#     4  11  24  46  72 103 139 180 233 293 357 419
#     4  11  24  46  72 103 139 180 233 293 357 419
#     4  12  23  43  65  98 137 179 225 277 332 403
#     4  11  25  43  67  97 136 177 226 277 340 405
#
# _framework density 21.044678999999999
#
# number of rings (size 3 to 8) (size 9 to 14) (size 15 to 20)
#    0.000    0.615    3.077    4.615    0.000    3.692 
#    2.769    0.000    0.000    0.000    0.000    0.000 
#    0.000    0.000    0.000    0.000    0.000    0.000 
#
# Total GULP energy -322122.192814 kJ/mol
# GULP energy per Si atom -12389.315108 kJ/mol
# Density = 2.099678 g / cm^3
# Si number density = 21.044679 Si / 1000 Ang^3
#
#
#
# Elastic Constant Matrix: (Units=GPa)
#
#
# Indices 1 2 3 4 5 6 
#
# 1 192.9163 81.3424 39.3295 0.0000 0.0000 0.0000
# 2 81.3424 178.1528 59.0820 0.0000 0.0000 0.0000
# 3 39.3295 59.0820 88.2053 0.0000 0.0000 0.0000
# 4 0.0000 0.0000 0.0000 53.8019 0.0000 0.0000
# 5 0.0000 0.0000 0.0000 0.0000 257.1716 0.0000
# 6 0.0000 0.0000 0.0000 0.0000 0.0000 45.9476
#
#
#
# Elastic Compliance Matrix: (Units=1/GPa)
#
#
# Indices 1 2 3 4 5 6 
#
# 1 0.006512 -0.002585 -0.001173 0.000000 0.000000 0.000000
# 2 -0.002585 0.008242 -0.004368 0.000000 0.000000 0.000000
# 3 -0.001173 -0.004368 0.014786 0.000000 0.000000 0.000000
# 4 0.000000 0.000000 0.000000 0.018587 0.000000 0.000000
# 5 0.000000 0.000000 0.000000 0.000000 0.003888 0.000000
# 6 0.000000 0.000000 0.000000 0.000000 0.000000 0.021764
#
#
# Mechanical properties :
#
#
# Convention : Reuss Voigt Hill
#
# Bulk Modulus (GPa) = 75.24713 90.97580 83.11147
# Shear Modulus (GPa) = 52.93247 90.01893 71.47570
#
# Velocity S-wave (km/s) = 5.02066 6.54737 5.83417
# Velocity P-wave (km/s) = 8.33324 10.02402 9.21748
#
# Compressibility (1/GPa) = 0.01328954
#
# Stress axis : x y z
#
# Youngs Moduli (GPa) = 153.55213 121.33095 67.63187
#
# Poissons Ratio (x) = 0.31360 0.07930
# Poissons Ratio (y) = 0.39688 0.29543
# Poissons Ratio (z) = 0.18005 0.53000
#
# Static dielectric constant tensor:
#      x y z
#    x 4.693180 0.000000 0.000000 
#    y 0.000000 4.024000 0.000000 
#    z 0.000000 0.000000 3.838390 
# 
# 
# High freq. dielectric constant tensor:
#      x y z
#    x 1.859430 0.000000 0.000000 
#    y 0.000000 1.841700 0.000000 
#    z 0.000000 0.000000 1.815720 
# 
# From -- ./inp_files/12498.got.cif
#   From: 2010.03.12/outbox.cif.g09.slc.cpg/sg41_7_cif.got.tgz:12498.got - 2010.04.14 01:55:53.
