data_PCOD8185238
_publ_section_title
;
Structure prediction by ZEFSAII (Michael W. Deem and Ramdas Pophale) SiO2 
 PCOD8185238
Probable space group: A B A 2
;
_chemical_formula_sum "Si O2"
_cell_formula_units_Z 60
_cell_length_a 8.673709
_cell_length_b 15.096888
_cell_length_c 21.809111
_cell_angle_alpha 90.000000
_cell_angle_beta 90.000000
_cell_angle_gamma 90.000000
_cell_volume 2855.816139
_symmetry_space_group_name_H-M "A B A 2"
_symmetry_group_IT_number 41
_symmetry_cell_setting 'orthorhombic'
loop_
_space_group_symop_operation_xyz
x,y,z
-x,-y,z
1/2-x,y,1/2+z
1/2+x,-y,1/2+z
x,1/2+y,1/2+z
-x,1/2-y,1/2+z
1/2-x,1/2+y,z
1/2+x,1/2-y,z
loop_
_atom_site_type_symbol
_atom_site_label
_atom_site_fract_x
_atom_site_fract_y
_atom_site_fract_z
Si Si1 0.064322 0.237542 0.774620
Si Si2 0.715460 0.559641 0.450667
Si Si3 0.000000 0.000000 0.164458
Si Si4 0.695288 0.797056 0.564493
Si Si5 0.171118 0.651965 0.701841
Si Si6 0.119665 0.634649 0.950629
Si Si7 0.309421 0.300240 0.861849
Si Si8 0.371645 0.874053 0.562957
O O1 0.187368 0.169956 0.746431
O O2 0.147222 0.298605 0.825615
O O3 0.980923 0.291754 0.720315
O O4 0.937794 0.182273 0.810838
O O5 0.562792 0.620340 0.459177
O O6 0.686822 0.459961 0.427895
O O7 0.819585 0.612496 0.402633
O O8 0.817285 0.554719 0.512606
O O9 0.123124 0.049001 0.208034
O O10 0.909145 0.072739 0.124426
O O11 0.722758 0.835482 0.631971
O O12 0.811747 0.841920 0.516836
O O13 0.520580 0.816162 0.542012
O O14 0.727858 0.692504 0.570755
O O15 0.162225 0.710207 0.901195
#
# Coordination Sequence:
#
# PCOD8185238 Si02
#       8
#     8   8   4   8   8   8   8   8
#     4  10  23  42  68  89 124 177 239 264 328 395
#     4  11  23  40  65  98 140 170 218 270 339 400
#     4  10  22  40  66  98 134 170 216 284 348 394
#     4  11  22  38  68  97 132 173 221 266 349 401
#     4  10  21  43  67  93 129 175 223 280 329 403
#     4  11  24  41  66 105 130 177 219 276 341 407
#     4  11  22  44  64  94 130 177 223 282 328 393
#     4  11  22  38  64 102 135 173 212 275 335 419
#
# _framework density 21.009755999999999
#
# number of rings (size 3 to 8) (size 9 to 14) (size 15 to 20)
#    0.000    1.333    2.667    4.000    1.867    0.000 
#    4.800    0.000    5.867    9.600    0.000    0.000 
#    0.000    0.000    0.000    0.000    0.000    0.000 
#
# Total GULP energy -371897.704453 kJ/mol
# GULP energy per Si atom -12396.590148 kJ/mol
# Density = 2.096194 g / cm^3
# Si number density = 21.009756 Si / 1000 Ang^3
#
#
#
# Elastic Constant Matrix: (Units=GPa)
#
#
# Indices 1 2 3 4 5 6 
#
# 1 84.4701 38.1670 29.1891 0.0000 0.0000 0.0000
# 2 38.1670 123.5521 38.1557 0.0000 0.0000 0.0000
# 3 29.1891 38.1557 95.5643 0.0000 0.0000 0.0000
# 4 0.0000 0.0000 0.0000 20.5662 0.0000 0.0000
# 5 0.0000 0.0000 0.0000 0.0000 27.6611 0.0000
# 6 0.0000 0.0000 0.0000 0.0000 0.0000 26.1744
#
#
#
# Elastic Compliance Matrix: (Units=1/GPa)
#
#
# Indices 1 2 3 4 5 6 
#
# 1 0.014479 -0.003544 -0.003007 0.000000 0.000000 0.000000
# 2 -0.003544 0.010100 -0.002950 0.000000 0.000000 0.000000
# 3 -0.003007 -0.002950 0.012561 0.000000 0.000000 0.000000
# 4 0.000000 0.000000 0.000000 0.048623 0.000000 0.000000
# 5 0.000000 0.000000 0.000000 0.000000 0.036152 0.000000
# 6 0.000000 0.000000 0.000000 0.000000 0.000000 0.038205
#
#
# Mechanical properties :
#
#
# Convention : Reuss Voigt Hill
#
# Bulk Modulus (GPa) = 55.13789 57.17891 56.15840
# Shear Modulus (GPa) = 27.00249 28.08532 27.54390
#
# Velocity S-wave (km/s) = 3.58891 3.66016 3.62471
# Velocity P-wave (km/s) = 6.59353 6.71840 6.65625
#
# Compressibility (1/GPa) = 0.01813635
#
# Stress axis : x y z
#
# Youngs Moduli (GPa) = 69.06514 99.01424 79.61421
#
# Poissons Ratio (x) = 0.35091 0.23944
# Poissons Ratio (y) = 0.24477 0.23486
# Poissons Ratio (z) = 0.20771 0.29209
#
# Static dielectric constant tensor:
#      x y z
#    x 4.012950 0.000000 0.000000 
#    y 0.000000 3.781910 0.000000 
#    z 0.000000 0.000000 3.819440 
# 
# 
# High freq. dielectric constant tensor:
#      x y z
#    x 1.832780 0.000000 0.000000 
#    y 0.000000 1.813590 0.000000 
#    z 0.000000 0.000000 1.825110 
# 
# From -- ./inp_files/12007.got.cif
#   From: 2010.03.12/outbox.cif.g09.slc.cpg/sg41_7_cif.got.tgz:12007.got - 2010.04.14 01:55:53.
