data_PCOD8185545
_publ_section_title
;
Structure prediction by ZEFSAII (Michael W. Deem and Ramdas Pophale) SiO2 
 PCOD8185545
Probable space group: A B A 2
;
_chemical_formula_sum "Si O2"
_cell_formula_units_Z 44
_cell_length_a 21.976703
_cell_length_b 17.793231
_cell_length_c 5.185740
_cell_angle_alpha 90.000000
_cell_angle_beta 90.000000
_cell_angle_gamma 90.000000
_cell_volume 2027.813895
_symmetry_space_group_name_H-M "A B A 2"
_symmetry_group_IT_number 41
_symmetry_cell_setting 'orthorhombic'
loop_
_space_group_symop_operation_xyz
x,y,z
-x,-y,z
1/2-x,y,1/2+z
1/2+x,-y,1/2+z
x,1/2+y,1/2+z
-x,1/2-y,1/2+z
1/2-x,1/2+y,z
1/2+x,1/2-y,z
loop_
_atom_site_type_symbol
_atom_site_label
_atom_site_fract_x
_atom_site_fract_y
_atom_site_fract_z
Si Si1 0.068411 0.604916 0.202690
Si Si2 0.500000 0.000000 0.584387
Si Si3 0.885622 0.742747 0.724429
Si Si4 0.710772 0.621252 0.217010
Si Si5 0.439951 0.827735 0.211071
Si Si6 0.899945 0.038272 0.422476
O O1 0.049605 0.549330 0.432469
O O2 0.122667 0.666389 0.226323
O O3 0.010957 0.658938 0.157140
O O4 0.092908 0.550446 0.977399
O O5 0.459942 0.941384 0.751938
O O6 0.819459 0.703753 0.736358
O O7 0.923339 0.707956 0.485296
O O8 0.920316 0.728611 0.989415
O O9 0.762866 0.611690 0.431119
O O10 0.661237 0.555469 0.264545
O O11 0.404623 0.908314 0.176106
#
# Coordination Sequence:
#
# PCOD8185545 Si02
#       6
#     8   4   8   8   8   8
#     4  12  23  38  64 104 143 175 213 278 347 419
#     4  12  22  40  70 106 156 176 212 284 366 434
#     4  11  26  40  68  97 131 179 230 277 338 404
#     4  11  25  48  70  89 128 183 245 287 331 404
#     4  11  21  42  62 101 141 178 210 262 351 426
#     4  11  24  40  70 102 136 186 222 280 352 421
#
# _framework density 21.698240999999999
#
# number of rings (size 3 to 8) (size 9 to 14) (size 15 to 20)
#    0.000    0.727    3.636    5.455    5.091    0.000 
#    0.000    1.818    0.000    0.000    0.000    0.000 
#    0.000    0.000    0.000    0.000    0.000    0.000 
#
# Total GULP energy -272555.363607 kJ/mol
# GULP energy per Si atom -12388.880164 kJ/mol
# Density = 2.164886 g / cm^3
# Si number density = 21.698241 Si / 1000 Ang^3
#
#
#
# Elastic Constant Matrix: (Units=GPa)
#
#
# Indices 1 2 3 4 5 6 
#
# 1 84.8981 38.4971 21.8629 0.0000 0.0000 0.0000
# 2 38.4971 136.2333 28.1948 0.0000 0.0000 0.0000
# 3 21.8629 28.1948 73.4010 0.0000 0.0000 0.0000
# 4 0.0000 0.0000 0.0000 9.1419 0.0000 0.0000
# 5 0.0000 0.0000 0.0000 0.0000 31.2786 0.0000
# 6 0.0000 0.0000 0.0000 0.0000 0.0000 29.4727
#
#
#
# Elastic Compliance Matrix: (Units=1/GPa)
#
#
# Indices 1 2 3 4 5 6 
#
# 1 0.014052 -0.003373 -0.002890 0.000000 0.000000 0.000000
# 2 -0.003373 0.008784 -0.002369 0.000000 0.000000 0.000000
# 3 -0.002890 -0.002369 0.015395 0.000000 0.000000 0.000000
# 4 0.000000 0.000000 0.000000 0.109386 0.000000 0.000000
# 5 0.000000 0.000000 0.000000 0.000000 0.031971 0.000000
# 6 0.000000 0.000000 0.000000 0.000000 0.000000 0.033930
#
#
# Mechanical properties :
#
#
# Convention : Reuss Voigt Hill
#
# Bulk Modulus (GPa) = 47.69525 52.40466 50.04996
# Shear Modulus (GPa) = 21.02864 27.71049 24.36956
#
# Velocity S-wave (km/s) = 3.11648 3.57751 3.35492
# Velocity P-wave (km/s) = 5.91429 6.42408 6.17445
#
# Compressibility (1/GPa) = 0.02096645
#
# Stress axis : x y z
#
# Youngs Moduli (GPa) = 71.16172 113.84546 64.95726
#
# Poissons Ratio (x) = 0.38399 0.18773
# Poissons Ratio (y) = 0.24002 0.15391
# Poissons Ratio (z) = 0.20566 0.26975
#
# Static dielectric constant tensor:
#      x y z
#    x 3.836520 0.000000 0.000000 
#    y 0.000000 4.161120 0.000000 
#    z 0.000000 0.000000 4.012390 
# 
# 
# High freq. dielectric constant tensor:
#      x y z
#    x 1.821850 0.000000 0.000000 
#    y 0.000000 1.855970 0.000000 
#    z 0.000000 0.000000 1.864750 
# 
# From -- ./inp_files/937.got.cif
#   From: 2010.03.12/outbox.cif.g09.slc.cpg/sg41_1_cif.got.tgz:937.got - 2010.04.14 01:55:53.
