data_PCOD8185535
_publ_section_title
;
Structure prediction by ZEFSAII (Michael W. Deem and Ramdas Pophale) SiO2 
 PCOD8185535
Probable space group: A B A 2
;
_chemical_formula_sum "Si O2"
_cell_formula_units_Z 64
_cell_length_a 13.238207
_cell_length_b 18.890055
_cell_length_c 14.077936
_cell_angle_alpha 90.000000
_cell_angle_beta 90.000000
_cell_angle_gamma 90.000000
_cell_volume 3520.475908
_symmetry_space_group_name_H-M "A B A 2"
_symmetry_group_IT_number 41
_symmetry_cell_setting 'orthorhombic'
loop_
_space_group_symop_operation_xyz
x,y,z
-x,-y,z
1/2-x,y,1/2+z
1/2+x,-y,1/2+z
x,1/2+y,1/2+z
-x,1/2-y,1/2+z
1/2-x,1/2+y,z
1/2+x,1/2-y,z
loop_
_atom_site_type_symbol
_atom_site_label
_atom_site_fract_x
_atom_site_fract_y
_atom_site_fract_z
Si Si1 0.718511 0.828201 0.785700
Si Si2 0.107397 0.027811 0.649325
Si Si3 0.450682 0.198563 0.643076
Si Si4 0.617747 0.314510 0.645621
Si Si5 0.767270 0.495060 0.495448
Si Si6 0.417656 0.441759 0.135818
Si Si7 0.228432 0.002643 0.284769
Si Si8 0.218723 0.664723 0.495150
O O1 0.610118 0.802134 0.743715
O O2 0.802212 0.787269 0.723288
O O3 0.710445 0.913172 0.773224
O O4 0.752337 0.805380 0.891206
O O5 0.088687 0.107907 0.681222
O O6 0.164614 0.017767 0.550918
O O7 0.166155 0.985524 0.732147
O O8 0.000000 0.000000 0.627779
O O9 0.516823 0.269068 0.637966
O O10 0.530913 0.134583 0.638126
O O11 0.374125 0.200945 0.552450
O O12 0.675129 0.321076 0.545961
O O13 0.838532 0.551825 0.548307
O O14 0.738391 0.524510 0.392009
O O15 0.817221 0.417104 0.488134
O O16 0.500000 0.500000 0.115171
O O17 0.362127 0.459262 0.235423
#
# Coordination Sequence:
#
# PCOD8185535 Si02
#       8
#     8   8   8   8   8   8   8   8
#     4   9  18  36  57  75 103 144 178 213 264 324
#     4   9  18  36  55  74 105 142 177 213 270 324
#     4  11  20  35  57  80 106 142 178 225 265 317
#     4   9  20  36  53  78 106 140 179 216 269 320
#     4   9  18  34  54  78 108 136 175 224 261 313
#     4  11  18  33  55  81 105 136 183 220 263 314
#     4   9  18  34  54  78 108 136 175 224 261 313
#     4   9  18  36  57  75 103 144 178 213 264 324
#
# _framework density 18.179359999999999
#
# number of rings (size 3 to 8) (size 9 to 14) (size 15 to 20)
#    0.000    2.500    2.500    1.500    0.000    2.000 
#   13.500    1.250    0.000    0.000    0.000    0.000 
#    0.000    0.000    0.000    0.000    0.000    0.000 
#
# Total GULP energy -396428.230106 kJ/mol
# GULP energy per Si atom -12388.382191 kJ/mol
# Density = 1.813798 g / cm^3
# Si number density = 18.179360 Si / 1000 Ang^3
#
#
#
# Elastic Constant Matrix: (Units=GPa)
#
#
# Indices 1 2 3 4 5 6 
#
# 1 109.8011 41.7164 42.5233 0.0000 0.0000 0.0000
# 2 41.7164 36.4563 22.8509 0.0000 0.0000 0.0000
# 3 42.5233 22.8509 135.2025 0.0000 0.0000 0.0000
# 4 0.0000 0.0000 0.0000 13.5653 0.0000 0.0000
# 5 0.0000 0.0000 0.0000 0.0000 -3.6469 0.0000
# 6 0.0000 0.0000 0.0000 0.0000 0.0000 22.6810
#
#
#
# Elastic Compliance Matrix: (Units=1/GPa)
#
#
# Indices 1 2 3 4 5 6 
#
# 1 0.016709 -0.017701 -0.002264 0.000000 0.000000 0.000000
# 2 -0.017701 0.049433 -0.002787 0.000000 0.000000 0.000000
# 3 -0.002264 -0.002787 0.008579 0.000000 0.000000 0.000000
# 4 0.000000 0.000000 0.000000 0.073717 0.000000 0.000000
# 5 0.000000 0.000000 0.000000 0.000000 -0.274208 0.000000
# 6 0.000000 0.000000 0.000000 0.000000 0.000000 0.044090
#
#
# Mechanical properties :
#
#
# Convention : Reuss Voigt Hill
#
# Bulk Modulus (GPa) = 34.22706 55.07125 44.64916
# Shear Modulus (GPa) = -189.13314 18.14450 -85.49432
#
# Velocity S-wave (km/s) = -10.21093 3.16267 -6.86515
# Velocity P-wave (km/s) = 10.96126 6.61027 6.18278
#
# Compressibility (1/GPa) = 0.02921665
#
# Stress axis : x y z
#
# Youngs Moduli (GPa) = 59.84723 20.22955 116.55910
#
# Poissons Ratio (x) = 0.35809 0.26384
# Poissons Ratio (y) = 1.05938 0.32490
# Poissons Ratio (z) = 0.13547 0.05639
#
# Static dielectric constant tensor:
#      x y z
#    x 3.845410 0.000000 0.000000 
#    y 0.000000 2.856370 0.000000 
#    z 0.000000 0.000000 3.451170 
# 
# 
# High freq. dielectric constant tensor:
#      x y z
#    x 1.709580 0.000000 0.000000 
#    y 0.000000 1.667600 0.000000 
#    z 0.000000 0.000000 1.709360 
# 
# From -- ./inp_files/8104.got.cif
#   From: 2010.03.12/outbox.cif.g09.slc.cpg/sg41_5_cif.got.tgz:8104.got - 2010.04.14 01:55:53.
