data_PCOD8185430
_publ_section_title
;
Structure prediction by ZEFSAII (Michael W. Deem and Ramdas Pophale) SiO2 
 PCOD8185430
Probable space group: A B A 2
;
_chemical_formula_sum "Si O2"
_cell_formula_units_Z 40
_cell_length_a 9.353066
_cell_length_b 10.877838
_cell_length_c 18.848867
_cell_angle_alpha 90.000000
_cell_angle_beta 90.000000
_cell_angle_gamma 90.000000
_cell_volume 1917.705155
_symmetry_space_group_name_H-M "A B A 2"
_symmetry_group_IT_number 41
_symmetry_cell_setting 'orthorhombic'
loop_
_space_group_symop_operation_xyz
x,y,z
-x,-y,z
1/2-x,y,1/2+z
1/2+x,-y,1/2+z
x,1/2+y,1/2+z
-x,1/2-y,1/2+z
1/2-x,1/2+y,z
1/2+x,1/2-y,z
loop_
_atom_site_type_symbol
_atom_site_label
_atom_site_fract_x
_atom_site_fract_y
_atom_site_fract_z
Si Si1 0.500000 0.500000 0.203370
Si Si2 0.000000 0.000000 0.967729
Si Si3 0.351598 0.151733 0.586425
Si Si4 0.448157 0.138966 0.133416
Si Si5 0.441736 0.875571 0.334191
Si Si6 0.847741 0.715431 0.771318
O O1 0.386705 0.568909 0.154333
O O2 0.590016 0.582716 0.256087
O O3 0.099888 0.915365 0.915133
O O4 0.907584 0.908108 0.014387
O O5 0.180563 0.154471 0.576992
O O6 0.417474 0.286206 0.601564
O O7 0.379838 0.195318 0.204964
O O8 0.500000 0.000000 0.144090
O O9 0.572695 0.777969 0.338081
O O10 0.318268 0.806859 0.289525
O O11 0.500000 0.000000 0.294573
#
# Coordination Sequence:
#
# PCOD8185430 Si02
#       6
#     4   4   8   8   8   8
#     4   9  22  36  66  98 134 167 210 278 340 397
#     4   9  24  46  66  88 140 177 238 264 326 407
#     4  10  23  43  65  96 136 176 220 278 331 401
#     4  11  25  40  71 102 133 173 220 285 346 398
#     4  10  25  42  66  93 135 176 219 278 321 402
#     4  11  22  40  66 100 131 168 220 271 347 394
#
# _framework density 20.858263000000001
#
# number of rings (size 3 to 8) (size 9 to 14) (size 15 to 20)
#    0.600    1.200    0.000    3.000   16.800    1.600 
#    0.000    0.000    0.000    0.000    0.000    0.000 
#    0.000    0.000    0.000    0.000    0.000    0.000 
#
# Total GULP energy -247787.680443 kJ/mol
# GULP energy per Si atom -12389.384022 kJ/mol
# Density = 2.081079 g / cm^3
# Si number density = 20.858263 Si / 1000 Ang^3
#
#
#
# Elastic Constant Matrix: (Units=GPa)
#
#
# Indices 1 2 3 4 5 6 
#
# 1 133.6463 68.9159 30.2634 0.0000 0.0000 0.0000
# 2 68.9159 150.2614 45.2411 0.0000 0.0000 0.0000
# 3 30.2634 45.2411 91.0539 0.0000 0.0000 0.0000
# 4 0.0000 0.0000 0.0000 24.4022 0.0000 0.0000
# 5 0.0000 0.0000 0.0000 0.0000 17.2269 0.0000
# 6 0.0000 0.0000 0.0000 0.0000 0.0000 36.1911
#
#
#
# Elastic Compliance Matrix: (Units=1/GPa)
#
#
# Indices 1 2 3 4 5 6 
#
# 1 0.009914 -0.004180 -0.001218 0.000000 0.000000 0.000000
# 2 -0.004180 0.009588 -0.003375 0.000000 0.000000 0.000000
# 3 -0.001218 -0.003375 0.013064 0.000000 0.000000 0.000000
# 4 0.000000 0.000000 0.000000 0.040980 0.000000 0.000000
# 5 0.000000 0.000000 0.000000 0.000000 0.058049 0.000000
# 6 0.000000 0.000000 0.000000 0.000000 0.000000 0.027631
#
#
# Mechanical properties :
#
#
# Convention : Reuss Voigt Hill
#
# Bulk Modulus (GPa) = 66.57623 73.75581 70.16602
# Shear Modulus (GPa) = 27.50601 30.93347 29.21974
#
# Velocity S-wave (km/s) = 3.63535 3.85519 3.74688
# Velocity P-wave (km/s) = 7.04334 7.43330 7.24095
#
# Compressibility (1/GPa) = 0.01502038
#
# Stress axis : x y z
#
# Youngs Moduli (GPa) = 100.86975 104.29383 76.54556
#
# Poissons Ratio (x) = 0.43596 0.09324
# Poissons Ratio (y) = 0.42165 0.25832
# Poissons Ratio (z) = 0.12287 0.35196
#
# Static dielectric constant tensor:
#      x y z
#    x 3.801600 0.000000 0.000000 
#    y 0.000000 3.965180 0.000000 
#    z 0.000000 0.000000 3.540610 
# 
# 
# High freq. dielectric constant tensor:
#      x y z
#    x 1.812520 0.000000 0.000000 
#    y 0.000000 1.833940 0.000000 
#    z 0.000000 0.000000 1.793640 
# 
# From -- ./inp_files/9564.got.cif
#   From: 2010.03.12/outbox.cif.g09.slc.cpg/sg41_5_cif.got.tgz:9564.got - 2010.04.14 01:55:53.
