data_PCOD8185083
_publ_section_title
;
Structure prediction by ZEFSAII (Michael W. Deem and Ramdas Pophale) SiO2 
 PCOD8185083
Probable space group: A B A 2
;
_chemical_formula_sum "Si O2"
_cell_formula_units_Z 64
_cell_length_a 20.194596
_cell_length_b 12.706719
_cell_length_c 12.699289
_cell_angle_alpha 90.000000
_cell_angle_beta 90.000000
_cell_angle_gamma 90.000000
_cell_volume 3258.727172
_symmetry_space_group_name_H-M "A B A 2"
_symmetry_group_IT_number 41
_symmetry_cell_setting 'orthorhombic'
loop_
_space_group_symop_operation_xyz
x,y,z
-x,-y,z
1/2-x,y,1/2+z
1/2+x,-y,1/2+z
x,1/2+y,1/2+z
-x,1/2-y,1/2+z
1/2-x,1/2+y,z
1/2+x,1/2-y,z
loop_
_atom_site_type_symbol
_atom_site_label
_atom_site_fract_x
_atom_site_fract_y
_atom_site_fract_z
Si Si1 0.690384 0.984679 0.811240
Si Si2 0.921722 0.250420 0.079534
Si Si3 0.058192 0.076968 0.407998
Si Si4 0.440276 0.920186 0.407903
Si Si5 0.211076 0.846790 0.141940
Si Si6 0.460933 0.747796 0.236351
Si Si7 0.828992 0.311031 0.637225
Si Si8 0.808459 0.979668 0.968283
O O1 0.701532 0.095699 0.753734
O O2 0.621369 0.991770 0.873804
O O3 0.689286 0.887911 0.731742
O O4 0.749179 0.958217 0.889664
O O5 0.848101 0.236092 0.125163
O O6 0.970430 0.266423 0.177205
O O7 0.920912 0.352880 0.006971
O O8 0.943796 0.147901 0.014441
O O9 0.032026 0.146292 0.310714
O O10 0.000000 0.000000 0.444534
O O11 0.443618 0.849835 0.304257
O O12 0.500000 0.000000 0.411820
O O13 0.372159 0.984556 0.402124
O O14 0.280353 0.787509 0.140458
O O15 0.213263 0.931251 0.049457
O O16 0.403450 0.731518 0.150364
O O17 0.824890 0.370347 0.526163
#
# Coordination Sequence:
#
# PCOD8185083 Si02
#       8
#     8   8   8   8   8   8   8   8
#     4  10  21  37  58  83 111 145 184 226 273 325
#     4  10  21  37  57  81 109 143 183 226 273 325
#     4  10  21  37  57  81 109 143 183 226 273 325
#     4  10  21  37  57  81 109 143 183 226 273 325
#     4  10  21  37  58  83 111 145 184 226 273 325
#     4  10  21  37  57  81 109 143 183 226 273 325
#     4  10  21  37  58  83 111 145 184 226 273 325
#     4  10  21  37  58  83 111 145 184 226 273 325
#
# _framework density 19.639569000000002
#
# number of rings (size 3 to 8) (size 9 to 14) (size 15 to 20)
#    0.000    2.000    0.000    3.000    0.000    8.000 
#    0.000    0.000    0.000    0.000    0.000    0.000 
#    0.000    0.000    0.000    0.000    0.000    0.000 
#
# Total GULP energy -396990.766574 kJ/mol
# GULP energy per Si atom -12405.961455 kJ/mol
# Density = 1.959487 g / cm^3
# Si number density = 19.639569 Si / 1000 Ang^3
#
#
#
# Elastic Constant Matrix: (Units=GPa)
#
#
# Indices 1 2 3 4 5 6 
#
# 1 46.1189 2.6027 2.9259 0.0000 0.0000 0.0000
# 2 2.6027 64.3096 0.8739 0.0000 0.0000 0.0000
# 3 2.9259 0.8739 62.6253 0.0000 0.0000 0.0000
# 4 0.0000 0.0000 0.0000 93.3710 0.0000 0.0000
# 5 0.0000 0.0000 0.0000 0.0000 39.1993 0.0000
# 6 0.0000 0.0000 0.0000 0.0000 0.0000 41.4121
#
#
#
# Elastic Compliance Matrix: (Units=1/GPa)
#
#
# Indices 1 2 3 4 5 6 
#
# 1 0.021796 -0.000868 -0.001006 0.000000 0.000000 0.000000
# 2 -0.000868 0.015587 -0.000177 0.000000 0.000000 0.000000
# 3 -0.001006 -0.000177 0.016017 0.000000 0.000000 0.000000
# 4 0.000000 0.000000 0.000000 0.010710 0.000000 0.000000
# 5 0.000000 0.000000 0.000000 0.000000 0.025511 0.000000
# 6 0.000000 0.000000 0.000000 0.000000 0.000000 0.024148
#
#
# Mechanical properties :
#
#
# Convention : Reuss Voigt Hill
#
# Bulk Modulus (GPa) = 20.28497 20.65097 20.46797
# Shear Modulus (GPa) = 37.22882 45.90657 41.56769
#
# Velocity S-wave (km/s) = 4.35858 4.83997 4.60556
# Velocity P-wave (km/s) = 5.97333 6.46309 6.22303
#
# Compressibility (1/GPa) = 0.04929758
#
# Stress axis : x y z
#
# Youngs Moduli (GPa) = 45.88014 64.15466 62.43183
#
# Poissons Ratio (x) = 0.05571 0.06282
# Poissons Ratio (y) = 0.03984 0.01105
# Poissons Ratio (z) = 0.04616 0.01135
#
# Static dielectric constant tensor:
#      x y z
#    x 3.635950 0.000000 0.000000 
#    y 0.000000 3.393020 0.000000 
#    z 0.000000 0.000000 3.599600 
# 
# 
# High freq. dielectric constant tensor:
#      x y z
#    x 1.776580 0.000000 0.000000 
#    y 0.000000 1.765720 0.000000 
#    z 0.000000 0.000000 1.765550 
# 
# From -- ./inp_files/8844.got.cif
#   From: 2010.03.12/outbox.cif.g09.slc.cpg/sg41_5_cif.got.tgz:8844.got - 2010.04.14 01:55:53.
