data_PCOD8185911
_publ_section_title
;
Structure prediction by ZEFSAII (Michael W. Deem and Ramdas Pophale) SiO2 
 PCOD8185911
Probable space group: F M M 2
;
_chemical_formula_sum "Si O2"
_cell_formula_units_Z 112
_cell_length_a 16.399322
_cell_length_b 28.905722
_cell_length_c 13.536691
_cell_angle_alpha 90.000000
_cell_angle_beta 90.000000
_cell_angle_gamma 90.000000
_cell_volume 6416.855067
_symmetry_space_group_name_H-M "F M M 2"
_symmetry_group_IT_number 42
_symmetry_cell_setting 'orthorhombic'
loop_
_space_group_symop_operation_xyz
x,y,z
-x,-y,z
-x,y,z
x,-y,z
x,1/2+y,1/2+z
-x,1/2-y,1/2+z
-x,1/2+y,1/2+z
x,1/2-y,1/2+z
1/2+x,y,1/2+z
1/2-x,-y,1/2+z
1/2-x,y,1/2+z
1/2+x,-y,1/2+z
1/2+x,1/2+y,z
1/2-x,1/2-y,z
1/2-x,1/2+y,z
1/2+x,1/2-y,z
loop_
_atom_site_type_symbol
_atom_site_label
_atom_site_fract_x
_atom_site_fract_y
_atom_site_fract_z
Si Si1 0.789844 0.134173 0.638890
Si Si2 0.679924 0.283515 0.102882
Si Si3 0.265165 0.052931 0.769455
Si Si4 0.090876 0.553327 0.633673
Si Si5 0.408100 0.327060 0.924617
Si Si6 0.292375 0.593534 0.965357
Si Si7 0.591057 0.707249 0.710858
O O1 0.714186 0.169883 0.654892
O O2 0.789825 0.089970 0.711236
O O3 0.782588 0.116353 0.525864
O O4 0.872328 0.162379 0.655578
O O5 0.750000 0.250000 0.057843
O O6 0.634771 0.255301 0.187840
O O7 0.616941 0.295815 0.017058
O O8 0.359464 0.062008 0.736327
O O9 0.249643 0.059142 0.886605
O O10 0.240730 0.000000 0.741361
O O11 0.076874 0.500000 0.615461
O O12 0.145067 0.570364 0.542081
O O13 0.000000 0.576910 0.638698
O O14 0.500000 0.346033 0.940908
O O15 0.344776 0.368549 0.906839
O O16 0.403650 0.295749 0.828187
O O17 0.500000 0.709461 0.671065
#
# Coordination Sequence:
#
# PCOD8185911 Si02
#       7
#    16  16  16  16  16  16  16
#     4   9  19  35  51  78 104 142 175 218 264 314
#     4   9  19  33  51  75 101 137 175 213 256 315
#     4  10  19  33  55  80 109 143 180 223 268 319
#     4   9  18  32  51  77 107 138 177 228 275 313
#     4  10  19  31  51  75 100 134 171 215 264 311
#     4  10  18  32  53  76 105 137 182 221 263 318
#     4  10  19  34  53  75 108 138 168 212 264 318
#
# _framework density 17.454032999999999
#
# number of rings (size 3 to 8) (size 9 to 14) (size 15 to 20)
#    0.000    2.429    1.429    1.286    0.000    2.286 
#    2.571    1.429    0.000    1.286    0.000    0.000 
#    0.000    0.000    0.000    0.000    0.000    0.000 
#
# Total GULP energy -346980.261685 kJ/mol
# GULP energy per Si atom -12392.152203 kJ/mol
# Density = 1.741431 g / cm^3
# Si number density = 17.454033 Si / 1000 Ang^3
#
#
#
# Elastic Constant Matrix: (Units=GPa)
#
#
# Indices 1 2 3 4 5 6 
#
# 1 71.4386 21.9566 44.8485 0.0000 0.0000 0.0000
# 2 21.9566 89.9410 36.5902 0.0000 0.0000 0.0000
# 3 44.8485 36.5902 82.1077 0.0000 0.0000 0.0000
# 4 0.0000 0.0000 0.0000 30.2158 0.0000 0.0000
# 5 0.0000 0.0000 0.0000 0.0000 27.0657 0.0000
# 6 0.0000 0.0000 0.0000 0.0000 0.0000 16.8460
#
#
#
# Elastic Compliance Matrix: (Units=1/GPa)
#
#
# Indices 1 2 3 4 5 6 
#
# 1 0.021327 -0.000571 -0.011395 0.000000 0.000000 0.000000
# 2 -0.000571 0.013596 -0.005747 0.000000 0.000000 0.000000
# 3 -0.011395 -0.005747 0.020964 0.000000 0.000000 0.000000
# 4 0.000000 0.000000 0.000000 0.033095 0.000000 0.000000
# 5 0.000000 0.000000 0.000000 0.000000 0.036947 0.000000
# 6 0.000000 0.000000 0.000000 0.000000 0.000000 0.059361
#
#
# Mechanical properties :
#
#
# Convention : Reuss Voigt Hill
#
# Bulk Modulus (GPa) = 48.87134 50.03087 49.45111
# Shear Modulus (GPa) = 21.97452 24.16498 23.06975
#
# Velocity S-wave (km/s) = 3.55208 3.72491 3.63952
# Velocity P-wave (km/s) = 6.69954 6.87216 6.78640
#
# Compressibility (1/GPa) = 0.02046189
#
# Stress axis : x y z
#
# Youngs Moduli (GPa) = 46.88894 73.55236 47.70032
#
# Poissons Ratio (x) = 0.04198 0.54354
# Poissons Ratio (y) = 0.02676 0.27414
# Poissons Ratio (z) = 0.53429 0.42271
#
# Static dielectric constant tensor:
#      x y z
#    x 3.367760 0.000000 0.000000 
#    y 0.000000 3.322570 0.000000 
#    z 0.000000 0.000000 3.167190 
# 
# 
# High freq. dielectric constant tensor:
#      x y z
#    x 1.665900 0.000000 0.000000 
#    y 0.000000 1.680240 0.000000 
#    z 0.000000 0.000000 1.665990 
# 
# From -- ./inp_files/14491.got.cif
#   From: 2010.03.12/outbox.cif.g09.slc.cpg/sg42_8_cif.got.tgz:14491.got - 2010.04.14 02:04:31.
