data_PCOD8185896
_publ_section_title
;
Structure prediction by ZEFSAII (Michael W. Deem and Ramdas Pophale) SiO2 
 PCOD8185896
Probable space group: F M M 2
;
_chemical_formula_sum "Si O2"
_cell_formula_units_Z 112
_cell_length_a 15.226989
_cell_length_b 23.526391
_cell_length_c 13.560599
_cell_angle_alpha 90.000000
_cell_angle_beta 90.000000
_cell_angle_gamma 90.000000
_cell_volume 4857.896058
_symmetry_space_group_name_H-M "F M M 2"
_symmetry_group_IT_number 42
_symmetry_cell_setting 'orthorhombic'
loop_
_space_group_symop_operation_xyz
x,y,z
-x,-y,z
-x,y,z
x,-y,z
x,1/2+y,1/2+z
-x,1/2-y,1/2+z
-x,1/2+y,1/2+z
x,1/2-y,1/2+z
1/2+x,y,1/2+z
1/2-x,-y,1/2+z
1/2-x,y,1/2+z
1/2+x,-y,1/2+z
1/2+x,1/2+y,z
1/2-x,1/2-y,z
1/2-x,1/2+y,z
1/2+x,1/2-y,z
loop_
_atom_site_type_symbol
_atom_site_label
_atom_site_fract_x
_atom_site_fract_y
_atom_site_fract_z
Si Si1 0.717615 0.562648 0.226470
Si Si2 0.097366 0.383842 0.991266
Si Si3 0.273102 0.062438 0.491546
Si Si4 0.594811 0.934810 0.200146
Si Si5 0.349038 0.733282 0.400681
Si Si6 0.902978 0.157804 0.997487
Si Si7 0.602882 0.333001 0.219701
O O1 0.686235 0.500000 0.261284
O O2 0.727058 0.563677 0.108963
O O3 0.817510 0.576117 0.267328
O O4 0.648490 0.609660 0.262366
O O5 0.176204 0.423000 0.947323
O O6 0.095821 0.391486 0.108805
O O7 0.000000 0.399245 0.948115
O O8 0.119199 0.318383 0.968932
O O9 0.341555 0.109018 0.452352
O O10 0.299898 0.000000 0.452129
O O11 0.500000 0.926069 0.256411
O O12 0.600310 0.000000 0.160360
O O13 0.250000 0.750000 0.425524
O O14 0.406770 0.788306 0.425753
O O15 0.362112 0.719324 0.285067
O O16 0.870982 0.177817 0.106463
O O17 0.000000 0.131437 0.006647
O O18 0.500000 0.340728 0.235786
#
# Coordination Sequence:
#
# PCOD8185896 Si02
#       7
#    16  16  16  16  16  16  16
#     4   8  15  30  54  85 123 161 198 246 303 366
#     4  10  18  31  54  83 118 159 197 245 306 361
#     4   9  17  32  56  91 125 157 201 247 301 371
#     4   8  14  27  52  88 125 160 204 254 303 364
#     4  12  24  41  61  84 124 167 206 264 315 363
#     4  10  21  40  65  91 123 165 210 259 312 368
#     4  10  22  39  60  90 125 161 207 257 310 375
#
# _framework density 23.055249
#
# number of rings (size 3 to 8) (size 9 to 14) (size 15 to 20)
#    0.000    2.429    1.429    2.571    0.000    2.000 
#    0.000    4.286    0.000    5.143    0.000    0.000 
#    0.000    0.000    0.000    0.286    0.000    0.286 
#
# Total GULP energy -346976.976715 kJ/mol
# GULP energy per Si atom -12392.034883 kJ/mol
# Density = 2.300277 g / cm^3
# Si number density = 23.055249 Si / 1000 Ang^3
#
#
#
# Elastic Constant Matrix: (Units=GPa)
#
#
# Indices 1 2 3 4 5 6 
#
# 1 141.6507 65.8126 4.2563 0.0000 0.0000 0.0000
# 2 65.8126 154.8026 38.5015 0.0000 0.0000 0.0000
# 3 4.2563 38.5015 54.5295 0.0000 0.0000 0.0000
# 4 0.0000 0.0000 0.0000 22.4713 0.0000 0.0000
# 5 0.0000 0.0000 0.0000 0.0000 6.0034 0.0000
# 6 0.0000 0.0000 0.0000 0.0000 0.0000 33.0536
#
#
#
# Elastic Compliance Matrix: (Units=1/GPa)
#
#
# Indices 1 2 3 4 5 6 
#
# 1 0.009057 -0.004458 0.002440 0.000000 0.000000 0.000000
# 2 -0.004458 0.010030 -0.006734 0.000000 0.000000 0.000000
# 3 0.002440 -0.006734 0.022903 0.000000 0.000000 0.000000
# 4 0.000000 0.000000 0.000000 0.044501 0.000000 0.000000
# 5 0.000000 0.000000 0.000000 0.000000 0.166573 0.000000
# 6 0.000000 0.000000 0.000000 0.000000 0.000000 0.030254
#
#
# Mechanical properties :
#
#
# Convention : Reuss Voigt Hill
#
# Bulk Modulus (GPa) = 40.83650 63.12484 51.98067
# Shear Modulus (GPa) = 16.18214 28.46647 22.32431
#
# Velocity S-wave (km/s) = 2.65219 3.51765 3.11512
# Velocity P-wave (km/s) = 5.20862 6.62856 5.96102
#
# Compressibility (1/GPa) = 0.02448790
#
# Stress axis : x y z
#
# Youngs Moduli (GPa) = 110.40768 99.70391 43.66303
#
# Poissons Ratio (x) = 0.44444 -0.10655
# Poissons Ratio (y) = 0.49215 0.29401
# Poissons Ratio (z) = -0.26944 0.67138
#
# Static dielectric constant tensor:
#      x y z
#    x 4.632110 0.000000 0.000000 
#    y 0.000000 4.130590 0.000000 
#    z 0.000000 0.000000 3.827750 
# 
# 
# High freq. dielectric constant tensor:
#      x y z
#    x 1.928200 0.000000 0.000000 
#    y 0.000000 1.898570 0.000000 
#    z 0.000000 0.000000 1.892330 
# 
# From -- ./inp_files/14268.got.cif
#   From: 2010.03.12/outbox.cif.g09.slc.cpg/sg42_8_cif.got.tgz:14268.got - 2010.04.14 02:04:31.
