data_PCOD8185212
_publ_section_title
;
Structure prediction by ZEFSAII (Michael W. Deem and Ramdas Pophale) SiO2 
 PCOD8185212
Probable space group: A B A 2
;
_chemical_formula_sum "Si O2"
_cell_formula_units_Z 64
_cell_length_a 14.935276
_cell_length_b 16.144707
_cell_length_c 11.258394
_cell_angle_alpha 90.000000
_cell_angle_beta 90.000000
_cell_angle_gamma 90.000000
_cell_volume 2714.687627
_symmetry_space_group_name_H-M "A B A 2"
_symmetry_group_IT_number 41
_symmetry_cell_setting 'orthorhombic'
loop_
_space_group_symop_operation_xyz
x,y,z
-x,-y,z
1/2-x,y,1/2+z
1/2+x,-y,1/2+z
x,1/2+y,1/2+z
-x,1/2-y,1/2+z
1/2-x,1/2+y,z
1/2+x,1/2-y,z
loop_
_atom_site_type_symbol
_atom_site_label
_atom_site_fract_x
_atom_site_fract_y
_atom_site_fract_z
Si Si1 0.051534 0.672015 0.869110
Si Si2 0.401418 0.152567 0.616076
Si Si3 0.089409 0.314223 0.528044
Si Si4 0.410041 0.533419 0.541784
Si Si5 0.707931 0.045558 0.221644
Si Si6 0.636255 0.100638 0.861824
Si Si7 0.783069 0.695737 0.071157
Si Si8 0.900970 0.505025 0.447798
O O1 0.112411 0.640925 0.758192
O O2 0.072074 0.767997 0.901290
O O3 0.947470 0.660062 0.831593
O O4 0.078637 0.626518 0.993263
O O5 0.499455 0.194022 0.604380
O O6 0.331764 0.217477 0.565438
O O7 0.385760 0.068784 0.542195
O O8 0.178695 0.281300 0.594174
O O9 0.111486 0.410451 0.516192
O O10 0.500000 0.500000 0.611247
O O11 0.319574 0.522671 0.621331
O O12 0.405435 0.478385 0.424576
O O13 0.813483 0.063638 0.244794
O O14 0.673184 0.135039 0.172006
O O15 0.668789 0.006209 0.341012
O O16 0.707370 0.150558 0.943065
O O17 0.000000 0.500000 0.392261
#
# Coordination Sequence:
#
# PCOD8185212 Si02
#       8
#     8   8   8   8   8   8   8   8
#     4  11  23  46  70 104 151 195 246 304 376 454
#     4  11  25  44  71 106 146 191 248 310 376 450
#     4  11  23  45  70 103 148 189 249 302 375 456
#     4   9  22  41  67 104 141 188 239 298 371 447
#     4  11  21  42  73 100 139 182 242 303 367 442
#     4  10  21  41  72 101 143 190 240 294 380 443
#     4  11  23  43  69 103 140 190 238 302 376 433
#     4  10  23  42  69 103 139 187 241 304 378 442
#
# _framework density 23.575457
#
# number of rings (size 3 to 8) (size 9 to 14) (size 15 to 20)
#    0.000    1.500    2.500    1.875    0.000    6.500 
#    6.750    0.000    0.000    0.000    0.000    0.000 
#    0.000    0.000    0.000    0.000    0.000    0.000 
#
# Total GULP energy -396471.334736 kJ/mol
# GULP energy per Si atom -12389.729210 kJ/mol
# Density = 2.352180 g / cm^3
# Si number density = 23.575457 Si / 1000 Ang^3
#
#
#
# Elastic Constant Matrix: (Units=GPa)
#
#
# Indices 1 2 3 4 5 6 
#
# 1 119.1680 59.1832 39.3343 0.0000 0.0000 0.0000
# 2 59.1832 117.5893 46.5697 0.0000 0.0000 0.0000
# 3 39.3343 46.5697 106.7563 0.0000 0.0000 0.0000
# 4 0.0000 0.0000 0.0000 17.2662 0.0000 0.0000
# 5 0.0000 0.0000 0.0000 0.0000 32.3271 0.0000
# 6 0.0000 0.0000 0.0000 0.0000 0.0000 34.8517
#
#
#
# Elastic Compliance Matrix: (Units=1/GPa)
#
#
# Indices 1 2 3 4 5 6 
#
# 1 0.011558 -0.004993 -0.002080 0.000000 0.000000 0.000000
# 2 -0.004993 0.012437 -0.003586 0.000000 0.000000 0.000000
# 3 -0.002080 -0.003586 0.011698 0.000000 0.000000 0.000000
# 4 0.000000 0.000000 0.000000 0.057917 0.000000 0.000000
# 5 0.000000 0.000000 0.000000 0.000000 0.030934 0.000000
# 6 0.000000 0.000000 0.000000 0.000000 0.000000 0.028693
#
#
# Mechanical properties :
#
#
# Convention : Reuss Voigt Hill
#
# Bulk Modulus (GPa) = 69.56766 70.40979 69.98873
# Shear Modulus (GPa) = 27.87891 30.11742 28.99817
#
# Velocity S-wave (km/s) = 3.44254 3.57808 3.51096
# Velocity P-wave (km/s) = 6.73602 6.85571 6.79613
#
# Compressibility (1/GPa) = 0.01437450
#
# Stress axis : x y z
#
# Youngs Moduli (GPa) = 86.51972 80.40251 85.48610
#
# Poissons Ratio (x) = 0.40148 0.17784
# Poissons Ratio (y) = 0.43202 0.30653
# Poissons Ratio (z) = 0.17999 0.28830
#
# Static dielectric constant tensor:
#      x y z
#    x 4.685140 0.000000 0.000000 
#    y 0.000000 4.158640 0.000000 
#    z 0.000000 0.000000 4.135150 
# 
# 
# High freq. dielectric constant tensor:
#      x y z
#    x 1.939190 0.000000 0.000000 
#    y 0.000000 1.924750 0.000000 
#    z 0.000000 0.000000 1.921240 
# 
# From -- ./inp_files/5713.got.cif
#   From: 2010.03.12/outbox.cif.g09.slc.cpg/sg41_3_cif.got.tgz:5713.got - 2010.04.14 01:55:53.
