data_PCOD8185490
_publ_section_title
;
Structure prediction by ZEFSAII (Michael W. Deem and Ramdas Pophale) SiO2 
 PCOD8185490
Probable space group: A B A 2
;
_chemical_formula_sum "Si O2"
_cell_formula_units_Z 60
_cell_length_a 10.418032
_cell_length_b 8.444861
_cell_length_c 27.248144
_cell_angle_alpha 90.000000
_cell_angle_beta 90.000000
_cell_angle_gamma 90.000000
_cell_volume 2397.259887
_symmetry_space_group_name_H-M "A B A 2"
_symmetry_group_IT_number 41
_symmetry_cell_setting 'orthorhombic'
loop_
_space_group_symop_operation_xyz
x,y,z
-x,-y,z
1/2-x,y,1/2+z
1/2+x,-y,1/2+z
x,1/2+y,1/2+z
-x,1/2-y,1/2+z
1/2-x,1/2+y,z
1/2+x,1/2-y,z
loop_
_atom_site_type_symbol
_atom_site_label
_atom_site_fract_x
_atom_site_fract_y
_atom_site_fract_z
Si Si1 0.901522 0.195522 0.975260
Si Si2 0.314456 0.003316 0.019207
Si Si3 0.332059 0.643881 0.714054
Si Si4 0.553521 0.334236 0.168133
Si Si5 0.093883 0.699752 0.557811
Si Si6 0.743038 0.601672 0.282767
Si Si7 0.558710 0.165258 0.362212
Si Si8 0.500000 0.000000 0.825367
O O1 0.932326 0.149173 0.920327
O O2 0.764838 0.117524 0.985755
O O3 0.895308 0.386010 0.982242
O O4 0.007794 0.129754 0.013354
O O5 0.400701 0.891403 0.053949
O O6 0.232655 0.117153 0.054806
O O7 0.464818 0.686699 0.686179
O O8 0.331770 0.466630 0.737772
O O9 0.331268 0.746557 0.763076
O O10 0.204757 0.680157 0.680981
O O11 0.500000 0.500000 0.190201
O O12 0.532034 0.339486 0.109772
O O13 0.808742 0.663748 0.332521
O O14 0.630293 0.474452 0.294305
O O15 0.482990 0.332129 0.354340
O O16 0.500000 0.000000 0.342482
#
# Coordination Sequence:
#
# PCOD8185490 Si02
#       8
#     8   8   8   8   8   8   8   4
#     4  11  25  47  71 112 152 200 257 322 395 482
#     4  10  24  43  75 102 155 200 249 322 397 463
#     4  12  27  49  79 111 158 208 265 338 407 479
#     4  12  28  49  79 116 157 209 272 332 408 491
#     4  11  25  46  74 108 153 201 259 323 398 479
#     4  12  26  51  76 110 154 201 265 337 400 487
#     4  12  29  46  82 118 156 212 272 328 415 482
#     4  12  28  50  82 110 160 204 266 336 416 478
#
# _framework density 25.028575
#
# number of rings (size 3 to 8) (size 9 to 14) (size 15 to 20)
#    0.000    0.533    2.667    4.000   11.200    1.067 
#    2.400    0.000    0.000    0.000    0.000    0.000 
#    0.000    0.000    0.000    0.000    0.000    0.000 
#
# Total GULP energy -371761.691542 kJ/mol
# GULP energy per Si atom -12392.056385 kJ/mol
# Density = 2.497161 g / cm^3
# Si number density = 25.028575 Si / 1000 Ang^3
#
#
#
# Elastic Constant Matrix: (Units=GPa)
#
#
# Indices 1 2 3 4 5 6 
#
# 1 78.5415 6.8480 28.2668 0.0000 0.0000 0.0000
# 2 6.8480 135.9457 4.8085 0.0000 0.0000 0.0000
# 3 28.2668 4.8085 134.2454 0.0000 0.0000 0.0000
# 4 0.0000 0.0000 0.0000 34.3452 0.0000 0.0000
# 5 0.0000 0.0000 0.0000 0.0000 29.0253 0.0000
# 6 0.0000 0.0000 0.0000 0.0000 0.0000 47.0220
#
#
#
# Elastic Compliance Matrix: (Units=1/GPa)
#
#
# Indices 1 2 3 4 5 6 
#
# 1 0.013824 -0.000594 -0.002889 0.000000 0.000000 0.000000
# 2 -0.000594 0.007391 -0.000140 0.000000 0.000000 0.000000
# 3 -0.002889 -0.000140 0.008062 0.000000 0.000000 0.000000
# 4 0.000000 0.000000 0.000000 0.029116 0.000000 0.000000
# 5 0.000000 0.000000 0.000000 0.000000 0.034453 0.000000
# 6 0.000000 0.000000 0.000000 0.000000 0.000000 0.021267
#
#
# Mechanical properties :
#
#
# Convention : Reuss Voigt Hill
#
# Bulk Modulus (GPa) = 45.39150 47.61991 46.50571
# Shear Modulus (GPa) = 38.84926 42.66579 40.75752
#
# Velocity S-wave (km/s) = 3.94407 4.13326 4.03977
# Velocity P-wave (km/s) = 6.23828 6.46885 6.35461
#
# Compressibility (1/GPa) = 0.02203055
#
# Stress axis : x y z
#
# Youngs Moduli (GPa) = 72.33879 135.30434 124.03173
#
# Poissons Ratio (x) = 0.08039 0.35839
# Poissons Ratio (y) = 0.04298 0.01732
# Poissons Ratio (z) = 0.20902 0.01889
#
# Static dielectric constant tensor:
#      x y z
#    x 4.407140 0.000000 0.000000 
#    y 0.000000 4.815330 0.000000 
#    z 0.000000 0.000000 4.177690 
# 
# 
# High freq. dielectric constant tensor:
#      x y z
#    x 1.991130 0.000000 0.000000 
#    y 0.000000 2.026650 0.000000 
#    z 0.000000 0.000000 1.981740 
# 
# From -- ./inp_files/12543.got.cif
#   From: 2010.03.12/outbox.cif.g09.slc.cpg/sg41_7_cif.got.tgz:12543.got - 2010.04.14 01:55:53.
