data_PCOD8185720
_publ_section_title
;
Structure prediction by ZEFSAII (Michael W. Deem and Ramdas Pophale) SiO2 
 PCOD8185720
Probable space group: A B A 2
;
_chemical_formula_sum "Si O2"
_cell_formula_units_Z 32
_cell_length_a 28.300500
_cell_length_b 4.648289
_cell_length_c 9.126307
_cell_angle_alpha 90.000000
_cell_angle_beta 90.000000
_cell_angle_gamma 90.000000
_cell_volume 1200.555673
_symmetry_space_group_name_H-M "A B A 2"
_symmetry_group_IT_number 41
_symmetry_cell_setting 'orthorhombic'
loop_
_space_group_symop_operation_xyz
x,y,z
-x,-y,z
1/2-x,y,1/2+z
1/2+x,-y,1/2+z
x,1/2+y,1/2+z
-x,1/2-y,1/2+z
1/2-x,1/2+y,z
1/2+x,1/2-y,z
loop_
_atom_site_type_symbol
_atom_site_label
_atom_site_fract_x
_atom_site_fract_y
_atom_site_fract_z
Si Si1 0.904070 0.993708 0.724450
Si Si2 0.717824 0.647834 0.463401
Si Si3 0.340483 0.508818 0.195310
Si Si4 0.966969 0.741067 0.973434
O O1 0.872601 0.754498 0.637543
O O2 0.944743 0.104638 0.618581
O O3 0.872848 0.262342 0.783967
O O4 0.925920 0.841867 0.865871
O O5 0.732297 0.315774 0.490516
O O6 0.699410 0.642918 0.296104
O O7 0.678513 0.789640 0.564507
O O8 0.000000 0.500000 0.896344
O O9 0.000000 0.000000 0.025321
#
# Coordination Sequence:
#
# PCOD8185720 Si02
#       4
#     8   8   8   8
#     4  12  27  49  76 112 151 198 251 312 376 449
#     4  12  25  46  73 108 148 196 248 308 373 446
#     4  12  26  47  75 110 149 196 249 310 375 447
#     4  12  27  50  77 112 152 200 252 312 377 450
#
# _framework density 26.654320999999999
#
# number of rings (size 3 to 8) (size 9 to 14) (size 15 to 20)
#    0.000    0.000    0.000    9.750    0.000    6.000 
#    0.000    0.000    0.000    0.000    0.000    0.000 
#    0.000    0.000    0.000    0.000    0.000    0.000 
#
# Total GULP energy -198378.720719 kJ/mol
# GULP energy per Si atom -12398.670045 kJ/mol
# Density = 2.659365 g / cm^3
# Si number density = 26.654321 Si / 1000 Ang^3
#
#
#
# Elastic Constant Matrix: (Units=GPa)
#
#
# Indices 1 2 3 4 5 6 
#
# 1 89.9918 55.9757 15.5371 0.0000 0.0000 0.0000
# 2 55.9757 178.3441 32.2719 0.0000 0.0000 0.0000
# 3 15.5371 32.2719 81.1942 0.0000 0.0000 0.0000
# 4 0.0000 0.0000 0.0000 40.5318 0.0000 0.0000
# 5 0.0000 0.0000 0.0000 0.0000 -21.2269 0.0000
# 6 0.0000 0.0000 0.0000 0.0000 0.0000 83.2998
#
#
#
# Elastic Compliance Matrix: (Units=1/GPa)
#
#
# Indices 1 2 3 4 5 6 
#
# 1 0.013882 -0.004177 -0.000996 0.000000 0.000000 0.000000
# 2 -0.004177 0.007298 -0.002102 0.000000 0.000000 0.000000
# 3 -0.000996 -0.002102 0.013342 0.000000 0.000000 0.000000
# 4 0.000000 0.000000 0.000000 0.024672 0.000000 0.000000
# 5 0.000000 0.000000 0.000000 0.000000 -0.047110 0.000000
# 6 0.000000 0.000000 0.000000 0.000000 0.000000 0.012005
#
#
# Mechanical properties :
#
#
# Convention : Reuss Voigt Hill
#
# Bulk Modulus (GPa) = 50.06708 61.89995 55.98352
# Shear Modulus (GPa) = 110.38359 36.90397 73.64378
#
# Velocity S-wave (km/s) = 6.44228 3.72498 5.26205
# Velocity P-wave (km/s) = 8.61173 6.46330 7.61368
#
# Compressibility (1/GPa) = 0.01997321
#
# Stress axis : x y z
#
# Youngs Moduli (GPa) = 72.03490 137.01670 74.95068
#
# Poissons Ratio (x) = 0.57229 0.07467
# Poissons Ratio (y) = 0.30088 0.15752
# Poissons Ratio (z) = 0.07177 0.28795
#
# Static dielectric constant tensor:
#      x y z
#    x 5.217190 0.000000 0.000000 
#    y 0.000000 5.432780 0.000000 
#    z 0.000000 0.000000 4.143160 
# 
# 
# High freq. dielectric constant tensor:
#      x y z
#    x 2.089430 0.000000 0.000000 
#    y 0.000000 2.108380 0.000000 
#    z 0.000000 0.000000 2.042100 
# 
# From -- ./inp_files/3864.got.cif
#   From: 2010.03.12/outbox.cif.g09.slc.cpg/sg41_2_cif.got.tgz:3864.got - 2010.04.14 01:55:53.
