data_PCOD8185495
_publ_section_title
;
Structure prediction by ZEFSAII (Michael W. Deem and Ramdas Pophale) SiO2 
 PCOD8185495
Probable space group: A B A 2
;
_chemical_formula_sum "Si O2"
_cell_formula_units_Z 60
_cell_length_a 8.622872
_cell_length_b 12.056807
_cell_length_c 26.389814
_cell_angle_alpha 90.000000
_cell_angle_beta 90.000000
_cell_angle_gamma 90.000000
_cell_volume 2743.598632
_symmetry_space_group_name_H-M "A B A 2"
_symmetry_group_IT_number 41
_symmetry_cell_setting 'orthorhombic'
loop_
_space_group_symop_operation_xyz
x,y,z
-x,-y,z
1/2-x,y,1/2+z
1/2+x,-y,1/2+z
x,1/2+y,1/2+z
-x,1/2-y,1/2+z
1/2-x,1/2+y,z
1/2+x,1/2-y,z
loop_
_atom_site_type_symbol
_atom_site_label
_atom_site_fract_x
_atom_site_fract_y
_atom_site_fract_z
Si Si1 0.588870 0.110424 0.987020
Si Si2 0.021663 0.372568 0.737971
Si Si3 0.859160 0.168480 0.127981
Si Si4 0.548584 0.157054 0.468060
Si Si5 0.000000 0.500000 0.553374
Si Si6 0.526381 0.379692 0.856225
Si Si7 0.275019 0.247530 0.798853
Si Si8 0.039689 0.379039 0.103269
O O1 0.767159 0.125259 0.967872
O O2 0.477728 0.211508 0.971100
O O3 0.500000 0.000000 0.965935
O O4 0.602064 0.102676 0.047076
O O5 0.864603 0.309969 0.752715
O O6 0.000000 0.500000 0.748707
O O7 0.048137 0.348932 0.679215
O O8 0.161693 0.335618 0.773543
O O9 0.675733 0.172847 0.137970
O O10 0.901797 0.288495 0.103891
O O11 0.879420 0.062079 0.090369
O O12 0.468407 0.115354 0.416878
O O13 0.449549 0.098336 0.514070
O O14 0.500000 0.500000 0.832999
O O15 0.387255 0.302712 0.838995
O O16 0.687975 0.341357 0.833164
O O17 0.000000 0.500000 0.126621
#
# Coordination Sequence:
#
# PCOD8185495 Si02
#       8
#     8   8   8   8   4   8   8   8
#     4  11  25  41  63  93 136 183 234 276 327 396
#     4  11  23  43  69  95 130 169 215 274 339 396
#     4  12  25  42  68  98 136 183 225 276 343 407
#     4  12  25  42  68  98 136 183 225 276 343 407
#     4  12  24  40  68  96 142 182 220 278 326 406
#     4  11  23  43  69  95 130 169 215 274 339 396
#     4  10  24  44  66  98 126 164 222 280 328 396
#     4  11  25  41  63  93 136 183 234 276 327 396
#
# _framework density 21.869088999999999
#
# number of rings (size 3 to 8) (size 9 to 14) (size 15 to 20)
#    0.000    0.800    4.000    2.400    3.733    2.133 
#    0.000    6.667    0.000    0.000    0.000    0.000 
#    0.000    0.000    0.000    0.000    0.000    0.000 
#
# Total GULP energy -371836.302661 kJ/mol
# GULP energy per Si atom -12394.543422 kJ/mol
# Density = 2.181931 g / cm^3
# Si number density = 21.869089 Si / 1000 Ang^3
#
#
#
# Elastic Constant Matrix: (Units=GPa)
#
#
# Indices 1 2 3 4 5 6 
#
# 1 114.4452 50.4616 31.2092 0.0000 0.0000 0.0000
# 2 50.4616 151.2183 15.7322 0.0000 0.0000 0.0000
# 3 31.2092 15.7322 108.4940 0.0000 0.0000 0.0000
# 4 0.0000 0.0000 0.0000 15.4302 0.0000 0.0000
# 5 0.0000 0.0000 0.0000 0.0000 41.2374 0.0000
# 6 0.0000 0.0000 0.0000 0.0000 0.0000 16.4843
#
#
#
# Elastic Compliance Matrix: (Units=1/GPa)
#
#
# Indices 1 2 3 4 5 6 
#
# 1 0.010953 -0.003378 -0.002661 0.000000 0.000000 0.000000
# 2 -0.003378 0.007756 -0.000153 0.000000 0.000000 0.000000
# 3 -0.002661 -0.000153 0.010005 0.000000 0.000000 0.000000
# 4 0.000000 0.000000 0.000000 0.064808 0.000000 0.000000
# 5 0.000000 0.000000 0.000000 0.000000 0.024250 0.000000
# 6 0.000000 0.000000 0.000000 0.000000 0.000000 0.060664
#
#
# Mechanical properties :
#
#
# Convention : Reuss Voigt Hill
#
# Bulk Modulus (GPa) = 61.23737 63.21815 62.22776
# Shear Modulus (GPa) = 25.47608 33.08069 29.27839
#
# Velocity S-wave (km/s) = 3.41682 3.89352 3.66293
# Velocity P-wave (km/s) = 6.60521 7.01306 6.81219
#
# Compressibility (1/GPa) = 0.01632990
#
# Stress axis : x y z
#
# Youngs Moduli (GPa) = 91.29970 128.92971 99.95315
#
# Poissons Ratio (x) = 0.43555 0.26596
# Poissons Ratio (y) = 0.30843 0.01529
# Poissons Ratio (z) = 0.24293 0.01972
#
# Static dielectric constant tensor:
#      x y z
#    x 3.892600 0.000000 0.000000 
#    y 0.000000 4.201730 0.000000 
#    z 0.000000 0.000000 3.848960 
# 
# 
# High freq. dielectric constant tensor:
#      x y z
#    x 1.857680 0.000000 0.000000 
#    y 0.000000 1.877760 0.000000 
#    z 0.000000 0.000000 1.855670 
# 
# From -- ./inp_files/12453.got.cif
#   From: 2010.03.12/outbox.cif.g09.slc.cpg/sg41_7_cif.got.tgz:12453.got - 2010.04.14 01:55:53.
