data_PCOD8185090
_publ_section_title
;
Structure prediction by ZEFSAII (Michael W. Deem and Ramdas Pophale) SiO2 
 PCOD8185090
Probable space group: A B A 2
;
_chemical_formula_sum "Si O2"
_cell_formula_units_Z 56
_cell_length_a 16.403332
_cell_length_b 14.061975
_cell_length_c 10.789256
_cell_angle_alpha 90.000000
_cell_angle_beta 90.000000
_cell_angle_gamma 90.000000
_cell_volume 2488.684795
_symmetry_space_group_name_H-M "A B A 2"
_symmetry_group_IT_number 41
_symmetry_cell_setting 'orthorhombic'
loop_
_space_group_symop_operation_xyz
x,y,z
-x,-y,z
1/2-x,y,1/2+z
1/2+x,-y,1/2+z
x,1/2+y,1/2+z
-x,1/2-y,1/2+z
1/2-x,1/2+y,z
1/2+x,1/2-y,z
loop_
_atom_site_type_symbol
_atom_site_label
_atom_site_fract_x
_atom_site_fract_y
_atom_site_fract_z
Si Si1 0.453999 0.198461 0.825180
Si Si2 0.850167 0.492657 0.341500
Si Si3 0.500000 0.500000 0.404005
Si Si4 0.850167 0.007344 0.567709
Si Si5 0.217543 0.154881 0.405417
Si Si6 0.217543 0.345118 0.503793
Si Si7 0.046000 0.801539 0.084030
Si Si8 0.000000 0.000000 0.005205
O O1 0.477682 0.088354 0.819707
O O2 0.355091 0.195527 0.816247
O O3 0.500000 0.245877 0.704605
O O4 0.479989 0.250000 0.954605
O O5 0.885257 0.500000 0.204605
O O6 0.779439 0.413247 0.334163
O O7 0.818682 0.595042 0.388362
O O8 0.924780 0.460438 0.425294
O O9 0.575219 0.539563 0.483916
O O10 0.779439 0.086754 0.575047
O O11 0.818683 0.904959 0.520848
O O12 0.263349 0.250000 0.454605
O O13 0.144909 0.304474 0.592963
O O14 0.022318 0.911646 0.089502
#
# Coordination Sequence:
#
# PCOD8185090 Si02
#       8
#     8   8   4   8   8   8   8   4
#     4  10  22  40  64  92 125 164 209 257 311 371
#     4  10  21  37  59  86 121 162 209 258 309 366
#     4  10  22  38  58  88 123 162 205 254 313 372
#     4  10  21  37  59  86 121 162 209 258 309 366
#     4   9  21  39  58  87 121 158 206 258 311 371
#     4   9  21  39  58  87 121 158 206 258 311 371
#     4  10  22  40  64  92 125 164 209 257 311 371
#     4  10  22  38  58  88 123 162 205 254 313 372
#
# _framework density 22.501844999999999
#
# number of rings (size 3 to 8) (size 9 to 14) (size 15 to 20)
#    0.000    2.286    0.000    0.857    0.000   16.000 
#    0.000    0.000    0.000    0.000    0.000    0.000 
#    0.000    0.000    0.000    0.000    0.000    0.000 
#
# Total GULP energy -346918.099672 kJ/mol
# GULP energy per Si atom -12389.932131 kJ/mol
# Density = 2.245063 g / cm^3
# Si number density = 22.501845 Si / 1000 Ang^3
#
#
#
# Elastic Constant Matrix: (Units=GPa)
#
#
# Indices 1 2 3 4 5 6 
#
# 1 86.4632 18.2194 32.3351 0.0000 0.0000 0.0000
# 2 18.2194 102.7797 0.1612 0.0000 0.0000 0.0000
# 3 32.3351 0.1612 104.7120 0.0000 0.0000 0.0000
# 4 0.0000 0.0000 0.0000 11.7454 0.0000 0.0000
# 5 0.0000 0.0000 0.0000 0.0000 -20.0595 0.0000
# 6 0.0000 0.0000 0.0000 0.0000 0.0000 14.1226
#
#
#
# Elastic Compliance Matrix: (Units=1/GPa)
#
#
# Indices 1 2 3 4 5 6 
#
# 1 0.013649 -0.002413 -0.004211 0.000000 0.000000 0.000000
# 2 -0.002413 0.010156 0.000729 0.000000 0.000000 0.000000
# 3 -0.004211 0.000729 0.010849 0.000000 0.000000 0.000000
# 4 0.000000 0.000000 0.000000 0.085140 0.000000 0.000000
# 5 0.000000 0.000000 0.000000 0.000000 -0.049852 0.000000
# 6 0.000000 0.000000 0.000000 0.000000 0.000000 0.070809
#
#
# Mechanical properties :
#
#
# Convention : Reuss Voigt Hill
#
# Bulk Modulus (GPa) = 43.73441 43.93182 43.83311
# Shear Modulus (GPa) = 31.21847 17.37764 24.29805
#
# Velocity S-wave (km/s) = 3.72879 2.78200 3.28963
# Velocity P-wave (km/s) = 6.16576 5.46675 5.82675
#
# Compressibility (1/GPa) = 0.02286529
#
# Stress axis : x y z
#
# Youngs Moduli (GPa) = 73.26598 98.46274 92.17218
#
# Poissons Ratio (x) = 0.23758 0.38814
# Poissons Ratio (y) = 0.17678 -0.06724
# Poissons Ratio (z) = 0.30853 -0.07183
#
# Static dielectric constant tensor:
#      x y z
#    x 4.071520 0.000000 0.000000 
#    y 0.000000 4.145740 0.000000 
#    z 0.000000 0.000000 3.804280 
# 
# 
# High freq. dielectric constant tensor:
#      x y z
#    x 1.880780 0.000000 0.000000 
#    y 0.000000 1.898770 0.000000 
#    z 0.000000 0.000000 1.865380 
# 
# From -- ./inp_files/5641.got.cif
#   From: 2010.03.12/outbox.cif.g09.slc.cpg/sg41_3_cif.got.tgz:5641.got - 2010.04.14 01:55:53.
