data_PCOD8185890
_publ_section_title
;
Structure prediction by ZEFSAII (Michael W. Deem and Ramdas Pophale) SiO2 
 PCOD8185890
Probable space group: F M M 2
;
_chemical_formula_sum "Si O2"
_cell_formula_units_Z 128
_cell_length_a 17.626389
_cell_length_b 24.424502
_cell_length_c 16.005161
_cell_angle_alpha 90.000000
_cell_angle_beta 90.000000
_cell_angle_gamma 90.000000
_cell_volume 6890.474266
_symmetry_space_group_name_H-M "F M M 2"
_symmetry_group_IT_number 42
_symmetry_cell_setting 'orthorhombic'
loop_
_space_group_symop_operation_xyz
x,y,z
-x,-y,z
-x,y,z
x,-y,z
x,1/2+y,1/2+z
-x,1/2-y,1/2+z
-x,1/2+y,1/2+z
x,1/2-y,1/2+z
1/2+x,y,1/2+z
1/2-x,-y,1/2+z
1/2-x,y,1/2+z
1/2+x,-y,1/2+z
1/2+x,1/2+y,z
1/2-x,1/2-y,z
1/2-x,1/2+y,z
1/2+x,1/2-y,z
loop_
_atom_site_type_symbol
_atom_site_label
_atom_site_fract_x
_atom_site_fract_y
_atom_site_fract_z
Si Si1 0.584314 0.639661 0.016320
Si Si2 0.730134 0.877023 0.851110
Si Si3 0.589252 0.691592 0.318805
Si Si4 0.415795 0.654062 0.676776
Si Si5 0.284277 0.437529 0.014496
Si Si6 0.705611 0.063067 0.191527
Si Si7 0.910258 0.768613 0.136124
Si Si8 0.624462 0.191722 0.352227
O O1 0.500000 0.627867 0.050466
O O2 0.623010 0.690565 0.066133
O O3 0.630722 0.584155 0.025906
O O4 0.582246 0.655333 0.920121
O O5 0.642139 0.858850 0.847491
O O6 0.739836 0.906119 0.940878
O O7 0.747418 0.916929 0.772549
O O8 0.786556 0.824759 0.845211
O O9 0.500000 0.676484 0.329977
O O10 0.612439 0.704743 0.223999
O O11 0.612687 0.744317 0.374272
O O12 0.500000 0.639553 0.644189
O O13 0.369378 0.598445 0.676502
O O14 0.379204 0.705780 0.624617
O O15 0.421885 0.678693 0.769173
O O16 0.287326 0.500000 0.986651
O O17 0.249776 0.429584 0.105633
O O18 0.682729 0.000000 0.206612
O O19 0.000000 0.763973 0.128117
#
# Coordination Sequence:
#
# PCOD8185890 Si02
#       8
#    16  16  16  16  16  16  16  16
#     4  10  18  31  53  78 102 129 165 209 262 320
#     4  10  20  35  55  76 101 138 175 211 259 314
#     4  10  18  31  51  75 105 138 173 211 252 304
#     4   9  17  32  52  75 104 136 171 209 255 311
#     4  10  22  38  53  73 102 134 173 220 263 306
#     4  10  21  37  55  73  99 138 178 218 263 305
#     4   8  16  29  48  76 107 133 157 201 261 311
#     4   9  18  31  49  76 108 136 162 202 261 321
#
# _framework density 18.576370000000001
#
# number of rings (size 3 to 8) (size 9 to 14) (size 15 to 20)
#    0.000    2.500    0.000    3.375    0.000    1.500 
#    0.000    5.000    0.000    7.500    0.000    0.000 
#    0.000    0.000    0.000    0.000    0.000    0.000 
#
# Total GULP energy -396564.487094 kJ/mol
# GULP energy per Si atom -12392.640222 kJ/mol
# Density = 1.853409 g / cm^3
# Si number density = 18.576370 Si / 1000 Ang^3
#
#
#
# Elastic Constant Matrix: (Units=GPa)
#
#
# Indices 1 2 3 4 5 6 
#
# 1 98.4656 60.8730 23.1864 0.0000 0.0000 0.0000
# 2 60.8730 107.3330 31.9907 0.0000 0.0000 0.0000
# 3 23.1864 31.9907 64.4056 0.0000 0.0000 0.0000
# 4 0.0000 0.0000 0.0000 26.7708 0.0000 0.0000
# 5 0.0000 0.0000 0.0000 0.0000 18.7071 0.0000
# 6 0.0000 0.0000 0.0000 0.0000 0.0000 17.9059
#
#
#
# Elastic Compliance Matrix: (Units=1/GPa)
#
#
# Indices 1 2 3 4 5 6 
#
# 1 0.015753 -0.008503 -0.001448 0.000000 0.000000 0.000000
# 2 -0.008503 0.015525 -0.004650 0.000000 0.000000 0.000000
# 3 -0.001448 -0.004650 0.018358 0.000000 0.000000 0.000000
# 4 0.000000 0.000000 0.000000 0.037354 0.000000 0.000000
# 5 0.000000 0.000000 0.000000 0.000000 0.053456 0.000000
# 6 0.000000 0.000000 0.000000 0.000000 0.000000 0.055848
#
#
# Mechanical properties :
#
#
# Convention : Reuss Voigt Hill
#
# Bulk Modulus (GPa) = 48.93795 55.81159 52.37477
# Shear Modulus (GPa) = 21.52321 22.95368 22.23845
#
# Velocity S-wave (km/s) = 3.40756 3.51898 3.46372
# Velocity P-wave (km/s) = 6.47174 6.82793 6.65222
#
# Compressibility (1/GPa) = 0.02043404
#
# Stress axis : x y z
#
# Youngs Moduli (GPa) = 63.47848 64.41153 54.47298
#
# Poissons Ratio (x) = 0.54768 0.07887
# Poissons Ratio (y) = 0.53975 0.25332
# Poissons Ratio (z) = 0.09191 0.29954
#
# Static dielectric constant tensor:
#      x y z
#    x 3.233650 0.000000 0.000000 
#    y 0.000000 3.518220 0.000000 
#    z 0.000000 0.000000 3.500830 
# 
# 
# High freq. dielectric constant tensor:
#      x y z
#    x 1.704880 0.000000 0.000000 
#    y 0.000000 1.715270 0.000000 
#    z 0.000000 0.000000 1.722090 
# 
# From -- ./inp_files/21217.got.cif
#   From: 2010.03.12/outbox.cif.g09.slc.cpg/sg42_11_cif.got.tgz:21217.got - 2010.04.14 02:04:31.
