data_PCOD8185339
_publ_section_title
;
Structure prediction by ZEFSAII (Michael W. Deem and Ramdas Pophale) SiO2 
 PCOD8185339
Probable space group: A B A 2
;
_chemical_formula_sum "Si O2"
_cell_formula_units_Z 52
_cell_length_a 24.818851
_cell_length_b 12.012142
_cell_length_c 7.833136
_cell_angle_alpha 90.000000
_cell_angle_beta 90.000000
_cell_angle_gamma 90.000000
_cell_volume 2335.273742
_symmetry_space_group_name_H-M "A B A 2"
_symmetry_group_IT_number 41
_symmetry_cell_setting 'orthorhombic'
loop_
_space_group_symop_operation_xyz
x,y,z
-x,-y,z
1/2-x,y,1/2+z
1/2+x,-y,1/2+z
x,1/2+y,1/2+z
-x,1/2-y,1/2+z
1/2-x,1/2+y,z
1/2+x,1/2-y,z
loop_
_atom_site_type_symbol
_atom_site_label
_atom_site_fract_x
_atom_site_fract_y
_atom_site_fract_z
Si Si1 0.500000 0.500000 0.051890
Si Si2 0.430950 0.832550 0.187309
Si Si3 0.775891 0.572184 0.752684
Si Si4 0.581294 0.424019 0.778741
Si Si5 0.804094 0.438901 0.446130
Si Si6 0.465229 0.272939 0.069321
Si Si7 0.686533 0.701991 0.563950
O O1 0.470229 0.399178 0.155117
O O2 0.541599 0.426180 0.940089
O O3 0.476319 0.785345 0.061093
O O4 0.442424 0.790824 0.379607
O O5 0.432185 0.966423 0.167618
O O6 0.373676 0.785124 0.132571
O O7 0.811202 0.536194 0.589113
O O8 0.748681 0.463111 0.834130
O O9 0.725504 0.649887 0.704232
O O10 0.814605 0.632517 0.887478
O O11 0.643114 0.432658 0.831399
O O12 0.574198 0.308455 0.675387
O O13 0.790586 0.323773 0.534855
#
# Coordination Sequence:
#
# PCOD8185339 Si02
#       7
#     4   8   8   8   8   8   8
#     4  10  22  42  64  96 134 168 226 276 338 416
#     4  11  24  44  68 101 137 181 233 277 358 415
#     4  10  24  45  67 100 138 178 230 287 342 417
#     4  11  21  43  68  95 140 172 222 291 338 408
#     4  11  23  43  69  98 133 179 225 283 345 409
#     4  11  22  44  68  95 137 179 225 292 339 418
#     4  11  23  43  69 101 137 178 228 286 344 417
#
# _framework density 22.267196999999999
#
# number of rings (size 3 to 8) (size 9 to 14) (size 15 to 20)
#    0.000    1.231    4.615    1.846    0.000    3.692 
#    5.538    0.000    0.000    0.000    0.000    0.000 
#    0.000    0.000    0.000    0.000    0.000    0.000 
#
# Total GULP energy -322310.274365 kJ/mol
# GULP energy per Si atom -12396.549014 kJ/mol
# Density = 2.221652 g / cm^3
# Si number density = 22.267197 Si / 1000 Ang^3
#
#
#
# Elastic Constant Matrix: (Units=GPa)
#
#
# Indices 1 2 3 4 5 6 
#
# 1 108.6361 32.1214 44.1446 0.0000 0.0000 0.0000
# 2 32.1214 130.7930 50.0540 0.0000 0.0000 0.0000
# 3 44.1446 50.0540 80.6797 0.0000 0.0000 0.0000
# 4 0.0000 0.0000 0.0000 23.3148 0.0000 0.0000
# 5 0.0000 0.0000 0.0000 0.0000 7.2598 0.0000
# 6 0.0000 0.0000 0.0000 0.0000 0.0000 9.1954
#
#
#
# Elastic Compliance Matrix: (Units=1/GPa)
#
#
# Indices 1 2 3 4 5 6 
#
# 1 0.011868 -0.000563 -0.006144 0.000000 0.000000 0.000000
# 2 -0.000563 0.010053 -0.005929 0.000000 0.000000 0.000000
# 3 -0.006144 -0.005929 0.019435 0.000000 0.000000 0.000000
# 4 0.000000 0.000000 0.000000 0.042891 0.000000 0.000000
# 5 0.000000 0.000000 0.000000 0.000000 0.137744 0.000000
# 6 0.000000 0.000000 0.000000 0.000000 0.000000 0.108750
#
#
# Mechanical properties :
#
#
# Convention : Reuss Voigt Hill
#
# Bulk Modulus (GPa) = 62.17600 63.63876 62.90738
# Shear Modulus (GPa) = 13.83606 20.87328 17.35467
#
# Velocity S-wave (km/s) = 2.49542 3.06502 2.79477
# Velocity P-wave (km/s) = 6.02380 6.41619 6.22309
#
# Compressibility (1/GPa) = 0.01608338
#
# Stress axis : x y z
#
# Youngs Moduli (GPa) = 84.25732 99.47404 51.45409
#
# Poissons Ratio (x) = 0.05604 0.31616
# Poissons Ratio (y) = 0.04746 0.30505
# Poissons Ratio (z) = 0.51771 0.58974
#
# Static dielectric constant tensor:
#      x y z
#    x 4.106930 0.000000 0.000000 
#    y 0.000000 4.489840 0.000000 
#    z 0.000000 0.000000 3.857120 
# 
# 
# High freq. dielectric constant tensor:
#      x y z
#    x 1.875250 0.000000 0.000000 
#    y 0.000000 1.898900 0.000000 
#    z 0.000000 0.000000 1.858380 
# 
# From -- ./inp_files/3777.got.cif
#   From: 2010.03.12/outbox.cif.g09.slc.cpg/sg41_2_cif.got.tgz:3777.got - 2010.04.14 01:55:53.
