data_PCOD8185411
_publ_section_title
;
Structure prediction by ZEFSAII (Michael W. Deem and Ramdas Pophale) SiO2 
 PCOD8185411
Probable space group: A B A 2
;
_chemical_formula_sum "Si O2"
_cell_formula_units_Z 32
_cell_length_a 11.012291
_cell_length_b 22.436920
_cell_length_c 4.972524
_cell_angle_alpha 90.000000
_cell_angle_beta 90.000000
_cell_angle_gamma 90.000000
_cell_volume 1228.620639
_symmetry_space_group_name_H-M "A B A 2"
_symmetry_group_IT_number 41
_symmetry_cell_setting 'orthorhombic'
loop_
_space_group_symop_operation_xyz
x,y,z
-x,-y,z
1/2-x,y,1/2+z
1/2+x,-y,1/2+z
x,1/2+y,1/2+z
-x,1/2-y,1/2+z
1/2-x,1/2+y,z
1/2+x,1/2-y,z
loop_
_atom_site_type_symbol
_atom_site_label
_atom_site_fract_x
_atom_site_fract_y
_atom_site_fract_z
Si Si1 0.013781 0.899631 0.235420
Si Si2 0.330081 0.823022 0.077590
Si Si3 0.832631 0.812523 0.001183
Si Si4 0.822767 0.997193 0.141869
O O1 0.055241 0.865530 0.508623
O O2 0.955205 0.851656 0.030510
O O3 0.917381 0.952043 0.276288
O O4 0.134772 0.933827 0.137967
O O5 0.213585 0.834011 0.881625
O O6 0.375251 0.755570 0.029477
O O7 0.728704 0.828207 0.218081
O O8 0.704912 0.986298 0.328641
#
# Coordination Sequence:
#
# PCOD8185411 Si02
#       4
#     8   8   8   8
#     4  11  24  42  72  96 130 181 222 268 340 405
#     4  10  23  41  62  94 132 167 212 268 322 389
#     4  10  23  41  62  94 132 167 212 268 322 389
#     4  11  26  45  66  98 134 171 224 283 330 390
#
# _framework density 26.045468
#
# number of rings (size 3 to 8) (size 9 to 14) (size 15 to 20)
#    0.000    1.500    0.000    3.000    0.000   16.000 
#    0.000    0.000    0.000    0.000    0.000    0.000 
#    0.000    0.000    0.000    0.000    0.000    0.000 
#
# Total GULP energy -198300.004937 kJ/mol
# GULP energy per Si atom -12393.750309 kJ/mol
# Density = 2.598619 g / cm^3
# Si number density = 26.045468 Si / 1000 Ang^3
#
#
#
# Elastic Constant Matrix: (Units=GPa)
#
#
# Indices 1 2 3 4 5 6 
#
# 1 75.6167 30.7856 6.0104 0.0000 0.0000 0.0000
# 2 30.7856 138.3313 5.7605 0.0000 0.0000 0.0000
# 3 6.0104 5.7605 72.8155 0.0000 0.0000 0.0000
# 4 0.0000 0.0000 0.0000 34.3125 0.0000 0.0000
# 5 0.0000 0.0000 0.0000 0.0000 6.3879 0.0000
# 6 0.0000 0.0000 0.0000 0.0000 0.0000 57.1438
#
#
#
# Elastic Compliance Matrix: (Units=1/GPa)
#
#
# Indices 1 2 3 4 5 6 
#
# 1 0.014608 -0.003211 -0.000952 0.000000 0.000000 0.000000
# 2 -0.003211 0.007959 -0.000365 0.000000 0.000000 0.000000
# 3 -0.000952 -0.000365 0.013841 0.000000 0.000000 0.000000
# 4 0.000000 0.000000 0.000000 0.029144 0.000000 0.000000
# 5 0.000000 0.000000 0.000000 0.000000 0.156545 0.000000
# 6 0.000000 0.000000 0.000000 0.000000 0.000000 0.017500
#
#
# Mechanical properties :
#
#
# Convention : Reuss Voigt Hill
#
# Bulk Modulus (GPa) = 36.56024 41.31961 38.93993
# Shear Modulus (GPa) = 19.39724 35.84931 27.62328
#
# Velocity S-wave (km/s) = 2.73196 3.71403 3.26019
# Velocity P-wave (km/s) = 4.90092 5.85584 5.39953
#
# Compressibility (1/GPa) = 0.02735212
#
# Stress axis : x y z
#
# Youngs Moduli (GPa) = 68.45731 125.64585 72.25052
#
# Poissons Ratio (x) = 0.40349 0.06876
# Poissons Ratio (y) = 0.21984 0.02634
# Poissons Ratio (z) = 0.06515 0.04581
#
# Static dielectric constant tensor:
#      x y z
#    x 4.558890 0.000000 0.000000 
#    y 0.000000 5.081450 0.000000 
#    z 0.000000 0.000000 4.299460 
# 
# 
# High freq. dielectric constant tensor:
#      x y z
#    x 2.038380 0.000000 0.000000 
#    y 0.000000 2.068590 0.000000 
#    z 0.000000 0.000000 2.025760 
# 
# From -- ./inp_files/82.got.cif
#   From: 2010.03.12/outbox.cif.g09.slc.cpg/sg41_1_cif.got.tgz:82.got - 2010.04.14 01:55:53.
