data_PCOD8185764
_publ_section_title
;
Structure prediction by ZEFSAII (Michael W. Deem and Ramdas Pophale) SiO2 
 PCOD8185764
Probable space group: F M M 2
;
_chemical_formula_sum "Si O2"
_cell_formula_units_Z 80
_cell_length_a 8.780081
_cell_length_b 18.687408
_cell_length_c 26.147567
_cell_angle_alpha 90.000000
_cell_angle_beta 90.000000
_cell_angle_gamma 90.000000
_cell_volume 4290.213198
_symmetry_space_group_name_H-M "F M M 2"
_symmetry_group_IT_number 42
_symmetry_cell_setting 'orthorhombic'
loop_
_space_group_symop_operation_xyz
x,y,z
-x,-y,z
-x,y,z
x,-y,z
x,1/2+y,1/2+z
-x,1/2-y,1/2+z
-x,1/2+y,1/2+z
x,1/2-y,1/2+z
1/2+x,y,1/2+z
1/2-x,-y,1/2+z
1/2-x,y,1/2+z
1/2+x,-y,1/2+z
1/2+x,1/2+y,z
1/2-x,1/2-y,z
1/2-x,1/2+y,z
1/2+x,1/2-y,z
loop_
_atom_site_type_symbol
_atom_site_label
_atom_site_fract_x
_atom_site_fract_y
_atom_site_fract_z
Si Si1 0.323292 0.172889 0.465870
Si Si2 0.319174 0.170639 0.866939
Si Si3 0.321091 0.418475 0.666435
Si Si4 0.176273 0.827461 0.078856
Si Si5 0.819484 0.672026 0.264360
O O1 0.500000 0.179377 0.451714
O O2 0.250000 0.250000 0.470651
O O3 0.238525 0.130707 0.419119
O O4 0.298680 0.138410 0.521956
O O5 0.500000 0.171235 0.864521
O O6 0.250000 0.250000 0.869016
O O7 0.251254 0.135176 0.815471
O O8 0.500000 0.412719 0.658488
O O9 0.266686 0.500000 0.671708
O O10 0.243024 0.384703 0.617368
O O11 0.270039 0.377488 0.717435
O O12 0.250000 0.750000 0.086349
O O13 0.000000 0.816186 0.090338
O O14 0.750000 0.750000 0.254630
O O15 0.000000 0.678486 0.270468
#
# Coordination Sequence:
#
# PCOD8185764 Si02
#       5
#    16  16  16  16  16
#     4   9  16  27  44  70 102 131 161 198 244 294
#     4  10  17  26  44  71 101 130 161 199 246 294
#     4  10  22  38  54  73 100 135 172 212 259 306
#     4  10  20  33  53  79 105 135 170 210 253 299
#     4  10  19  32  51  74 101 131 166 206 249 298
#
# _framework density 18.647092000000001
#
# number of rings (size 3 to 8) (size 9 to 14) (size 15 to 20)
#    0.000    2.200    0.000    6.600    0.000    6.000 
#    0.000    0.000    0.000    1.200    0.000    2.800 
#    0.000    0.000    0.000    0.000    0.000    0.000 
#
# Total GULP energy -247862.597655 kJ/mol
# GULP energy per Si atom -12393.129883 kJ/mol
# Density = 1.860465 g / cm^3
# Si number density = 18.647092 Si / 1000 Ang^3
#
#
#
# Elastic Constant Matrix: (Units=GPa)
#
#
# Indices 1 2 3 4 5 6 
#
# 1 92.1933 34.5862 70.8062 0.0000 0.0000 0.0000
# 2 34.5862 70.9207 63.9339 0.0000 0.0000 0.0000
# 3 70.8062 63.9339 193.8310 0.0000 0.0000 0.0000
# 4 0.0000 0.0000 0.0000 4.7197 0.0000 0.0000
# 5 0.0000 0.0000 0.0000 0.0000 43.9008 0.0000
# 6 0.0000 0.0000 0.0000 0.0000 0.0000 16.8603
#
#
#
# Elastic Compliance Matrix: (Units=1/GPa)
#
#
# Indices 1 2 3 4 5 6 
#
# 1 0.015675 -0.003533 -0.004561 0.000000 0.000000 0.000000
# 2 -0.003533 0.020863 -0.005591 0.000000 0.000000 0.000000
# 3 -0.004561 -0.005591 0.008669 0.000000 0.000000 0.000000
# 4 0.000000 0.000000 0.000000 0.211880 0.000000 0.000000
# 5 0.000000 0.000000 0.000000 0.000000 0.022779 0.000000
# 6 0.000000 0.000000 0.000000 0.000000 0.000000 0.059311
#
#
# Mechanical properties :
#
#
# Convention : Reuss Voigt Hill
#
# Bulk Modulus (GPa) = 56.05913 77.28861 66.67387
# Shear Modulus (GPa) = 13.42310 25.60407 19.51358
#
# Velocity S-wave (km/s) = 2.68591 3.70954 3.23842
# Velocity P-wave (km/s) = 6.30455 7.73858 7.05808
#
# Compressibility (1/GPa) = 0.01783831
#
# Stress axis : x y z
#
# Youngs Moduli (GPa) = 63.79658 47.93077 115.34871
#
# Poissons Ratio (x) = 0.16933 0.52607
# Poissons Ratio (y) = 0.22538 0.64493
# Poissons Ratio (z) = 0.29096 0.26799
#
# Static dielectric constant tensor:
#      x y z
#    x 3.490240 0.000000 0.000000 
#    y 0.000000 2.934500 0.000000 
#    z 0.000000 0.000000 4.701200 
# 
# 
# High freq. dielectric constant tensor:
#      x y z
#    x 1.738800 0.000000 0.000000 
#    y 0.000000 1.655440 0.000000 
#    z 0.000000 0.000000 1.759290 
# 
# From -- ./inp_files/31267.got.cif
#   From: 2010.03.12/outbox.cif.g09.slc.cpg/sg42_16_cif.got.tgz:31267.got - 2010.04.14 02:04:31.
