data_PCOD8185229
_publ_section_title
;
Structure prediction by ZEFSAII (Michael W. Deem and Ramdas Pophale) SiO2 
 PCOD8185229
Probable space group: A B A 2
;
_chemical_formula_sum "Si O2"
_cell_formula_units_Z 48
_cell_length_a 10.949708
_cell_length_b 16.444912
_cell_length_c 12.085681
_cell_angle_alpha 90.000000
_cell_angle_beta 90.000000
_cell_angle_gamma 90.000000
_cell_volume 2176.232133
_symmetry_space_group_name_H-M "A B A 2"
_symmetry_group_IT_number 41
_symmetry_cell_setting 'orthorhombic'
loop_
_space_group_symop_operation_xyz
x,y,z
-x,-y,z
1/2-x,y,1/2+z
1/2+x,-y,1/2+z
x,1/2+y,1/2+z
-x,1/2-y,1/2+z
1/2-x,1/2+y,z
1/2+x,1/2-y,z
loop_
_atom_site_type_symbol
_atom_site_label
_atom_site_fract_x
_atom_site_fract_y
_atom_site_fract_z
Si Si1 0.769857 0.576168 0.673630
Si Si2 0.531763 0.173474 0.203731
Si Si3 0.177301 0.547707 0.831138
Si Si4 0.470825 0.140560 0.645191
Si Si5 0.938051 0.911502 0.907248
Si Si6 0.389638 0.053595 0.074761
O O1 0.661956 0.640758 0.660558
O O2 0.800904 0.547837 0.799791
O O3 0.736184 0.490683 0.610373
O O4 0.890070 0.614249 0.620655
O O5 0.534066 0.269341 0.192444
O O6 0.521609 0.147394 0.332264
O O7 0.415948 0.141088 0.130733
O O8 0.095890 0.585394 0.734416
O O9 0.310441 0.586870 0.841781
O O10 0.101585 0.558637 0.943031
O O11 0.408740 0.130600 0.524985
O O12 0.000000 0.000000 0.920340
O O13 0.500000 0.000000 0.124274
#
# Coordination Sequence:
#
# PCOD8185229 Si02
#       6
#     8   8   8   8   8   8
#     4  11  23  46  73 101 140 188 245 286 359 444
#     4  11  26  47  69 105 146 189 227 301 378 420
#     4  12  23  43  73 102 139 185 242 292 345 437
#     4  12  29  43  72 115 142 181 247 308 357 417
#     4  12  24  49  77  99 147 201 241 285 364 446
#     4  10  21  42  69  98 136 188 236 284 351 435
#
# _framework density 22.056471999999999
#
# number of rings (size 3 to 8) (size 9 to 14) (size 15 to 20)
#    0.000    0.667    3.333    5.000    4.667    0.000 
#    0.000    0.000    0.000    0.000    0.000    0.000 
#    0.000    0.000    0.000    0.000    0.000    0.000 
#
# Total GULP energy -297547.788028 kJ/mol
# GULP energy per Si atom -12397.824501 kJ/mol
# Density = 2.200627 g / cm^3
# Si number density = 22.056472 Si / 1000 Ang^3
#
#
#
# Elastic Constant Matrix: (Units=GPa)
#
#
# Indices 1 2 3 4 5 6 
#
# 1 110.8037 32.9301 16.7946 0.0000 0.0000 0.0000
# 2 32.9301 109.1185 30.2445 0.0000 0.0000 0.0000
# 3 16.7946 30.2445 121.8207 0.0000 0.0000 0.0000
# 4 0.0000 0.0000 0.0000 27.3931 0.0000 0.0000
# 5 0.0000 0.0000 0.0000 0.0000 30.4228 0.0000
# 6 0.0000 0.0000 0.0000 0.0000 0.0000 29.1904
#
#
#
# Elastic Compliance Matrix: (Units=1/GPa)
#
#
# Indices 1 2 3 4 5 6 
#
# 1 0.009965 -0.002821 -0.000674 0.000000 0.000000 0.000000
# 2 -0.002821 0.010640 -0.002253 0.000000 0.000000 0.000000
# 3 -0.000674 -0.002253 0.008861 0.000000 0.000000 0.000000
# 4 0.000000 0.000000 0.000000 0.036506 0.000000 0.000000
# 5 0.000000 0.000000 0.000000 0.000000 0.032870 0.000000
# 6 0.000000 0.000000 0.000000 0.000000 0.000000 0.034258
#
#
# Mechanical properties :
#
#
# Convention : Reuss Voigt Hill
#
# Bulk Modulus (GPa) = 55.64114 55.74237 55.69176
# Shear Modulus (GPa) = 33.20395 34.85283 34.02839
#
# Velocity S-wave (km/s) = 3.88417 3.97944 3.93209
# Velocity P-wave (km/s) = 6.73774 6.81484 6.77640
#
# Compressibility (1/GPa) = 0.01797231
#
# Stress axis : x y z
#
# Youngs Moduli (GPa) = 100.34771 93.98522 112.85495
#
# Poissons Ratio (x) = 0.26510 0.07602
# Poissons Ratio (y) = 0.28305 0.25423
# Poissons Ratio (z) = 0.06759 0.21172
#
# Static dielectric constant tensor:
#      x y z
#    x 4.164670 0.000000 0.000000 
#    y 0.000000 3.793700 0.000000 
#    z 0.000000 0.000000 4.016780 
# 
# 
# High freq. dielectric constant tensor:
#      x y z
#    x 1.886190 0.000000 0.000000 
#    y 0.000000 1.842720 0.000000 
#    z 0.000000 0.000000 1.875750 
# 
# From -- ./inp_files/4972.got.cif
#   From: 2010.03.12/outbox.cif.g09.slc.cpg/sg41_3_cif.got.tgz:4972.got - 2010.04.14 01:55:53.
