data_PCOD8185207
_publ_section_title
;
Structure prediction by ZEFSAII (Michael W. Deem and Ramdas Pophale) SiO2 
 PCOD8185207
Probable space group: A B A 2
;
_chemical_formula_sum "Si O2"
_cell_formula_units_Z 64
_cell_length_a 15.061737
_cell_length_b 17.377380
_cell_length_c 11.107784
_cell_angle_alpha 90.000000
_cell_angle_beta 90.000000
_cell_angle_gamma 90.000000
_cell_volume 2907.279487
_symmetry_space_group_name_H-M "A B A 2"
_symmetry_group_IT_number 41
_symmetry_cell_setting 'orthorhombic'
loop_
_space_group_symop_operation_xyz
x,y,z
-x,-y,z
1/2-x,y,1/2+z
1/2+x,-y,1/2+z
x,1/2+y,1/2+z
-x,1/2-y,1/2+z
1/2-x,1/2+y,z
1/2+x,1/2-y,z
loop_
_atom_site_type_symbol
_atom_site_label
_atom_site_fract_x
_atom_site_fract_y
_atom_site_fract_z
Si Si1 0.837338 0.296244 0.912330
Si Si2 0.035093 0.800214 0.487192
Si Si3 0.834864 0.507081 0.145863
Si Si4 0.550072 0.929493 0.325943
Si Si5 0.413463 0.459086 0.402743
Si Si6 0.390848 0.339525 0.746019
Si Si7 0.338568 0.572279 0.226345
Si Si8 0.151606 0.161928 0.996007
O O1 0.834837 0.224298 0.819552
O O2 0.829405 0.376769 0.844455
O O3 0.749854 0.298439 0.998363
O O4 0.927692 0.293944 0.990202
O O5 0.065582 0.867923 0.395022
O O6 0.075435 0.809090 0.619065
O O7 0.080065 0.722118 0.443512
O O8 0.920092 0.458954 0.193056
O O9 0.828025 0.586167 0.223532
O O10 0.751138 0.453781 0.164377
O O11 0.838608 0.525131 0.003664
O O12 0.479458 0.860520 0.318538
O O13 0.639301 0.906745 0.398775
O O14 0.500000 0.000000 0.393302
O O15 0.500000 0.500000 0.454993
O O16 0.390501 0.495058 0.270876
O O17 0.381813 0.627146 0.124197
#
# Coordination Sequence:
#
# PCOD8185207 Si02
#       8
#     8   8   8   8   8   8   8   8
#     4  12  24  43  70 100 140 189 233 296 365 436
#     4  11  24  45  68 100 140 184 235 296 358 434
#     4  10  22  41  68 100 131 176 240 297 347 427
#     4  10  21  41  68  94 128 177 226 287 351 410
#     4  11  23  43  72  97 131 188 240 290 358 432
#     4  10  22  43  69  96 134 181 240 286 360 427
#     4  12  25  41  66 101 137 178 235 296 350 429
#     4  12  26  42  67 104 145 181 231 292 365 432
#
# _framework density 22.013708999999999
#
# number of rings (size 3 to 8) (size 9 to 14) (size 15 to 20)
#    0.000    1.000    5.000    2.625    3.500    0.500 
#    0.000    0.000    5.500    0.000    0.000    0.000 
#    0.000    0.000    0.000    0.000    0.000    0.000 
#
# Total GULP energy -396504.274140 kJ/mol
# GULP energy per Si atom -12390.758567 kJ/mol
# Density = 2.196360 g / cm^3
# Si number density = 22.013709 Si / 1000 Ang^3
#
#
#
# Elastic Constant Matrix: (Units=GPa)
#
#
# Indices 1 2 3 4 5 6 
#
# 1 101.5930 39.9101 21.1542 0.0000 0.0000 0.0000
# 2 39.9101 105.8811 35.4906 0.0000 0.0000 0.0000
# 3 21.1542 35.4906 73.5399 0.0000 0.0000 0.0000
# 4 0.0000 0.0000 0.0000 37.3457 0.0000 0.0000
# 5 0.0000 0.0000 0.0000 0.0000 10.6468 0.0000
# 6 0.0000 0.0000 0.0000 0.0000 0.0000 40.8775
#
#
#
# Elastic Compliance Matrix: (Units=1/GPa)
#
#
# Indices 1 2 3 4 5 6 
#
# 1 0.011687 -0.003911 -0.001474 0.000000 0.000000 0.000000
# 2 -0.003911 0.012576 -0.004944 0.000000 0.000000 0.000000
# 3 -0.001474 -0.004944 0.016408 0.000000 0.000000 0.000000
# 4 0.000000 0.000000 0.000000 0.026777 0.000000 0.000000
# 5 0.000000 0.000000 0.000000 0.000000 0.093925 0.000000
# 6 0.000000 0.000000 0.000000 0.000000 0.000000 0.024463
#
#
# Mechanical properties :
#
#
# Convention : Reuss Voigt Hill
#
# Bulk Modulus (GPa) = 49.97010 52.68042 51.32526
# Shear Modulus (GPa) = 23.45594 30.07128 26.76361
#
# Velocity S-wave (km/s) = 3.26776 3.69999 3.49057
# Velocity P-wave (km/s) = 6.08165 6.49891 6.29374
#
# Compressibility (1/GPa) = 0.02001197
#
# Stress axis : x y z
#
# Youngs Moduli (GPa) = 85.56853 79.51687 60.94496
#
# Poissons Ratio (x) = 0.31098 0.08985
# Poissons Ratio (y) = 0.33465 0.30132
# Poissons Ratio (z) = 0.12616 0.39315
#
# Static dielectric constant tensor:
#      x y z
#    x 3.914030 0.000000 0.000000 
#    y 0.000000 4.441240 0.000000 
#    z 0.000000 0.000000 3.658440 
# 
# 
# High freq. dielectric constant tensor:
#      x y z
#    x 1.854390 0.000000 0.000000 
#    y 0.000000 1.883280 0.000000 
#    z 0.000000 0.000000 1.845790 
# 
# From -- ./inp_files/5717.got.cif
#   From: 2010.03.12/outbox.cif.g09.slc.cpg/sg41_3_cif.got.tgz:5717.got - 2010.04.14 01:55:53.
