data_PCOD8185905
_publ_section_title
;
Structure prediction by ZEFSAII (Michael W. Deem and Ramdas Pophale) SiO2 
 PCOD8185905
Probable space group: F M M 2
;
_chemical_formula_sum "Si O2"
_cell_formula_units_Z 96
_cell_length_a 25.179843
_cell_length_b 8.418265
_cell_length_c 25.416958
_cell_angle_alpha 90.000000
_cell_angle_beta 90.000000
_cell_angle_gamma 90.000000
_cell_volume 5387.647610
_symmetry_space_group_name_H-M "F M M 2"
_symmetry_group_IT_number 42
_symmetry_cell_setting 'orthorhombic'
loop_
_space_group_symop_operation_xyz
x,y,z
-x,-y,z
-x,y,z
x,-y,z
x,1/2+y,1/2+z
-x,1/2-y,1/2+z
-x,1/2+y,1/2+z
x,1/2-y,1/2+z
1/2+x,y,1/2+z
1/2-x,-y,1/2+z
1/2-x,y,1/2+z
1/2+x,-y,1/2+z
1/2+x,1/2+y,z
1/2-x,1/2-y,z
1/2-x,1/2+y,z
1/2+x,1/2-y,z
loop_
_atom_site_type_symbol
_atom_site_label
_atom_site_fract_x
_atom_site_fract_y
_atom_site_fract_z
Si Si1 0.000000 0.321490 0.106140
Si Si2 0.886621 0.311941 0.113766
Si Si3 0.809585 0.186090 0.027573
Si Si4 0.383632 0.181382 0.729426
Si Si5 0.000000 0.819597 0.214805
Si Si6 0.309095 0.313841 0.420067
Si Si7 0.808015 0.183729 0.813413
O O1 0.056903 0.246315 0.088760
O O2 0.000000 0.500000 0.085760
O O3 0.000000 0.311983 0.169437
O O4 0.890432 0.500000 0.124106
O O5 0.840280 0.275161 0.073450
O O6 0.875140 0.224632 0.168445
O O7 0.750000 0.250000 0.027884
O O8 0.811222 0.000000 0.037911
O O9 0.835671 0.228076 0.970692
O O10 0.445419 0.204754 0.747551
O O11 0.346701 0.293431 0.764178
O O12 0.365663 0.000000 0.737790
O O13 0.000000 0.000000 0.191158
O O14 0.310566 0.500000 0.430679
O O15 0.250000 0.250000 0.413110
O O16 0.335800 0.269121 0.364200
O O17 0.750000 0.250000 0.798922
O O18 0.801861 0.000000 0.826738
#
# Coordination Sequence:
#
# PCOD8185905 Si02
#       7
#     8  16  16  16   8  16  16
#     4   8  16  30  50  71  96 127 164 202 240 286
#     4  10  19  33  51  75 102 132 165 202 245 293
#     4  11  21  34  51  74 101 132 165 203 245 292
#     4  10  19  33  51  75 102 132 165 202 245 293
#     4   8  16  30  50  71  96 127 164 202 240 286
#     4  10  18  32  52  73  96 127 164 204 242 288
#     4  11  21  34  51  74 101 132 165 203 245 292
#
# _framework density 17.818538
#
# number of rings (size 3 to 8) (size 9 to 14) (size 15 to 20)
#    0.000    2.000    0.000    7.500    0.000    2.000 
#    0.000    3.333    0.000    1.000    0.000    7.000 
#    0.000    0.000    0.000    0.000    0.000    0.000 
#
# Total GULP energy -297393.325455 kJ/mol
# GULP energy per Si atom -12391.388561 kJ/mol
# Density = 1.777798 g / cm^3
# Si number density = 17.818538 Si / 1000 Ang^3
#
#
#
# Elastic Constant Matrix: (Units=GPa)
#
#
# Indices 1 2 3 4 5 6 
#
# 1 77.9144 12.6637 43.4401 0.0000 0.0000 -0.0002
# 2 12.6637 69.1400 3.7892 0.0001 -0.0001 -0.0004
# 3 43.4401 3.7892 87.6352 0.0000 0.0000 0.0000
# 4 0.0000 0.0001 0.0000 30.3223 0.0000 0.0000
# 5 0.0000 -0.0001 0.0000 0.0000 7.3557 0.0000
# 6 -0.0002 -0.0004 0.0000 0.0000 0.0000 19.1036
#
#
#
# Elastic Compliance Matrix: (Units=1/GPa)
#
#
# Indices 1 2 3 4 5 6 
#
# 1 0.018283 -0.002859 -0.008939 0.000000 0.000000 0.000000
# 2 -0.002859 0.014945 0.000771 0.000000 0.000000 0.000000
# 3 -0.008939 0.000771 0.015809 0.000000 0.000000 0.000000
# 4 0.000000 0.000000 0.000000 0.032979 0.000000 0.000000
# 5 0.000000 0.000000 0.000000 0.000000 0.135950 0.000000
# 6 0.000000 0.000000 0.000000 0.000000 0.000000 0.052346
#
#
# Mechanical properties :
#
#
# Convention : Reuss Voigt Hill
#
# Bulk Modulus (GPa) = 37.06119 39.38616 38.22368
# Shear Modulus (GPa) = 16.59145 23.00943 19.80044
#
# Velocity S-wave (km/s) = 3.05476 3.59739 3.33712
# Velocity P-wave (km/s) = 5.76944 6.27750 6.02882
#
# Compressibility (1/GPa) = 0.02698240
#
# Stress axis : x y z
#
# Youngs Moduli (GPa) = 54.69502 66.91299 63.25624
#
# Poissons Ratio (x) = 0.19129 0.56546
# Poissons Ratio (y) = 0.15636 -0.04877
# Poissons Ratio (z) = 0.48893 -0.05158
#
# Static dielectric constant tensor:
#      x y z
#    x 3.029250 0.000000 0.000000 
#    y 0.000000 3.368510 0.000000 
#    z 0.000000 0.000000 3.387400 
# 
# 
# High freq. dielectric constant tensor:
#      x y z
#    x 1.672090 0.000000 0.000000 
#    y 0.000000 1.704010 0.000000 
#    z 0.000000 0.000000 1.673010 
# 
# From -- ./inp_files/28199.got.cif
#   From: 2010.03.12/outbox.cif.g09.slc.cpg/sg42_15_cif.got.tgz:28199.got - 2010.04.14 02:04:31.
