data_PCOD8185640
_publ_section_title
;
Structure prediction by ZEFSAII (Michael W. Deem and Ramdas Pophale) SiO2 
 PCOD8185640
Probable space group: A B A 2
;
_chemical_formula_sum "Si O2"
_cell_formula_units_Z 48
_cell_length_a 13.854976
_cell_length_b 17.379311
_cell_length_c 8.576608
_cell_angle_alpha 90.000000
_cell_angle_beta 90.000000
_cell_angle_gamma 90.000000
_cell_volume 2065.160898
_symmetry_space_group_name_H-M "A B A 2"
_symmetry_group_IT_number 41
_symmetry_cell_setting 'orthorhombic'
loop_
_space_group_symop_operation_xyz
x,y,z
-x,-y,z
1/2-x,y,1/2+z
1/2+x,-y,1/2+z
x,1/2+y,1/2+z
-x,1/2-y,1/2+z
1/2-x,1/2+y,z
1/2+x,1/2-y,z
loop_
_atom_site_type_symbol
_atom_site_label
_atom_site_fract_x
_atom_site_fract_y
_atom_site_fract_z
Si Si1 0.858667 0.035544 0.606570
Si Si2 0.041319 0.363555 0.572041
Si Si3 0.665355 0.779611 0.066056
Si Si4 0.467692 0.609227 0.731626
Si Si5 0.850625 0.338764 0.722080
Si Si6 0.338224 0.484036 0.242453
O O1 0.758176 0.059510 0.685540
O O2 0.845547 0.015974 0.427182
O O3 0.935548 0.104821 0.625318
O O4 0.898572 0.962896 0.701632
O O5 0.134355 0.309006 0.544611
O O6 0.071244 0.438852 0.670059
O O7 0.997410 0.391468 0.410514
O O8 0.958352 0.317119 0.666259
O O9 0.591681 0.814659 0.191939
O O10 0.774231 0.785665 0.129982
O O11 0.658190 0.825462 0.905333
O O12 0.833812 0.428499 0.681299
#
# Coordination Sequence:
#
# PCOD8185640 Si02
#       6
#     8   8   8   8   8   8
#     4  11  25  41  74 103 144 186 246 305 360 434
#     4  12  29  43  77 108 150 191 250 308 371 445
#     4  12  26  49  71 106 147 200 241 306 379 447
#     4  11  24  45  68 107 145 192 244 302 369 434
#     4  12  25  46  74 102 142 193 246 299 372 447
#     4  12  24  46  72 113 141 193 243 307 365 442
#
# _framework density 23.242740000000001
#
# number of rings (size 3 to 8) (size 9 to 14) (size 15 to 20)
#    0.000    0.333    3.333    4.500    9.333    4.000 
#    0.000    0.000    0.000    0.000    0.000    0.000 
#    0.000    0.000    0.000    0.000    0.000    0.000 
#
# Total GULP energy -297746.965263 kJ/mol
# GULP energy per Si atom -12406.123553 kJ/mol
# Density = 2.318984 g / cm^3
# Si number density = 23.242740 Si / 1000 Ang^3
#
#
#
# Elastic Constant Matrix: (Units=GPa)
#
#
# Indices 1 2 3 4 5 6 
#
# 1 143.3342 35.3407 57.2152 0.0000 0.0000 0.0000
# 2 35.3407 75.1773 37.6685 0.0000 0.0000 0.0000
# 3 57.2152 37.6685 151.6129 0.0000 0.0000 0.0000
# 4 0.0000 0.0000 0.0000 18.6726 0.0000 0.0000
# 5 0.0000 0.0000 0.0000 0.0000 46.0185 0.0000
# 6 0.0000 0.0000 0.0000 0.0000 0.0000 36.5949
#
#
#
# Elastic Compliance Matrix: (Units=1/GPa)
#
#
# Indices 1 2 3 4 5 6 
#
# 1 0.008699 -0.002792 -0.002589 0.000000 0.000000 0.000000
# 2 -0.002792 0.016089 -0.002944 0.000000 0.000000 0.000000
# 3 -0.002589 -0.002944 0.008304 0.000000 0.000000 0.000000
# 4 0.000000 0.000000 0.000000 0.053554 0.000000 0.000000
# 5 0.000000 0.000000 0.000000 0.000000 0.021730 0.000000
# 6 0.000000 0.000000 0.000000 0.000000 0.000000 0.027326
#
#
# Mechanical properties :
#
#
# Convention : Reuss Voigt Hill
#
# Bulk Modulus (GPa) = 60.81746 70.06368 65.44057
# Shear Modulus (GPa) = 31.67898 36.25055 33.96476
#
# Velocity S-wave (km/s) = 3.69584 3.95353 3.82685
# Velocity P-wave (km/s) = 6.66598 7.14495 6.90961
#
# Compressibility (1/GPa) = 0.01644265
#
# Stress axis : x y z
#
# Youngs Moduli (GPa) = 114.96192 62.15269 120.42164
#
# Poissons Ratio (x) = 0.17353 0.31177
# Poissons Ratio (y) = 0.32097 0.35450
# Poissons Ratio (z) = 0.29763 0.18297
#
# Static dielectric constant tensor:
#      x y z
#    x 4.615720 0.000000 0.000000 
#    y 0.000000 4.014730 0.000000 
#    z 0.000000 0.000000 4.110950 
# 
# 
# High freq. dielectric constant tensor:
#      x y z
#    x 1.939640 0.000000 0.000000 
#    y 0.000000 1.904990 0.000000 
#    z 0.000000 0.000000 1.926410 
# 
# From -- ./inp_files/2553.got.cif
#   From: 2010.03.12/outbox.cif.g09.slc.cpg/sg41_2_cif.got.tgz:2553.got - 2010.04.14 01:55:53.
