data_PCOD8185537
_publ_section_title
;
Structure prediction by ZEFSAII (Michael W. Deem and Ramdas Pophale) SiO2 
 PCOD8185537
Probable space group: A B A 2
;
_chemical_formula_sum "Si O2"
_cell_formula_units_Z 60
_cell_length_a 8.104488
_cell_length_b 20.848037
_cell_length_c 16.461048
_cell_angle_alpha 90.000000
_cell_angle_beta 90.000000
_cell_angle_gamma 90.000000
_cell_volume 2781.302550
_symmetry_space_group_name_H-M "A B A 2"
_symmetry_group_IT_number 41
_symmetry_cell_setting 'orthorhombic'
loop_
_space_group_symop_operation_xyz
x,y,z
-x,-y,z
1/2-x,y,1/2+z
1/2+x,-y,1/2+z
x,1/2+y,1/2+z
-x,1/2-y,1/2+z
1/2-x,1/2+y,z
1/2+x,1/2-y,z
loop_
_atom_site_type_symbol
_atom_site_label
_atom_site_fract_x
_atom_site_fract_y
_atom_site_fract_z
Si Si1 0.502795 0.932872 0.827220
Si Si2 0.249015 0.268246 0.712424
Si Si3 0.348871 0.042972 0.660068
Si Si4 0.854766 0.610804 0.295837
Si Si5 0.000000 0.000000 0.699791
Si Si6 0.481652 0.315528 0.939180
Si Si7 0.047228 0.681129 0.617998
Si Si8 0.179277 0.192427 0.368855
O O1 0.631580 0.949361 0.756230
O O2 0.325168 0.919360 0.788507
O O3 0.565350 0.870523 0.873210
O O4 0.500000 0.000000 0.880178
O O5 0.370949 0.323817 0.743870
O O6 0.313312 0.236304 0.628354
O O7 0.240897 0.212068 0.781455
O O8 0.073937 0.303183 0.694734
O O9 0.166156 0.011254 0.644868
O O10 0.363442 0.112722 0.620069
O O11 0.500000 0.000000 0.623983
O O12 0.892480 0.626504 0.390772
O O13 0.985241 0.561869 0.257926
O O14 0.436011 0.247575 0.902166
O O15 0.677121 0.323254 0.931680
O O16 0.442439 0.315847 0.034958
#
# Coordination Sequence:
#
# PCOD8185537 Si02
#       8
#     8   8   8   8   4   8   8   8
#     4  11  20  40  68  96 129 164 224 291 328 384
#     4  11  21  37  66  93 125 171 229 276 333 402
#     4  11  22  42  66  99 134 171 225 286 331 396
#     4  11  22  39  65  99 125 174 227 275 336 406
#     4  12  22  40  74  98 126 176 230 280 326 404
#     4  11  25  39  63  95 139 174 217 279 356 405
#     4  12  24  41  62  99 135 176 218 290 350 405
#     4  11  21  42  63  94 129 175 225 279 326 413
#
# _framework density 21.572627000000001
#
# number of rings (size 3 to 8) (size 9 to 14) (size 15 to 20)
#    0.000    0.800    5.333    4.800    1.867    0.000 
#    1.200    0.000    1.467    0.000    0.000    0.000 
#    0.000    0.000    0.000    0.000    0.000    0.000 
#
# Total GULP energy -371853.544116 kJ/mol
# GULP energy per Si atom -12395.118137 kJ/mol
# Density = 2.152353 g / cm^3
# Si number density = 21.572627 Si / 1000 Ang^3
#
#
#
# Elastic Constant Matrix: (Units=GPa)
#
#
# Indices 1 2 3 4 5 6 
#
# 1 114.2584 40.7175 15.2064 0.0000 0.0000 0.0000
# 2 40.7175 150.3495 35.0126 0.0000 0.0000 0.0000
# 3 15.2064 35.0126 70.7021 0.0000 0.0000 0.0000
# 4 0.0000 0.0000 0.0000 17.4809 0.0000 0.0000
# 5 0.0000 0.0000 0.0000 0.0000 22.8218 0.0000
# 6 0.0000 0.0000 0.0000 0.0000 0.0000 35.7461
#
#
#
# Elastic Compliance Matrix: (Units=1/GPa)
#
#
# Indices 1 2 3 4 5 6 
#
# 1 0.009736 -0.002429 -0.000891 0.000000 0.000000 0.000000
# 2 -0.002429 0.008124 -0.003501 0.000000 0.000000 0.000000
# 3 -0.000891 -0.003501 0.016069 0.000000 0.000000 0.000000
# 4 0.000000 0.000000 0.000000 0.057205 0.000000 0.000000
# 5 0.000000 0.000000 0.000000 0.000000 0.043818 0.000000
# 6 0.000000 0.000000 0.000000 0.000000 0.000000 0.027975
#
#
# Mechanical properties :
#
#
# Convention : Reuss Voigt Hill
#
# Bulk Modulus (GPa) = 49.29129 57.46480 53.37804
# Shear Modulus (GPa) = 27.27279 31.50131 29.38705
#
# Velocity S-wave (km/s) = 3.55946 3.82546 3.69485
# Velocity P-wave (km/s) = 6.30806 6.79764 6.55742
#
# Compressibility (1/GPa) = 0.02028756
#
# Stress axis : x y z
#
# Youngs Moduli (GPa) = 102.70743 123.08733 62.23113
#
# Poissons Ratio (x) = 0.29902 0.05545
# Poissons Ratio (y) = 0.24951 0.21786
# Poissons Ratio (z) = 0.09152 0.43090
#
# Static dielectric constant tensor:
#      x y z
#    x 3.896490 0.000000 0.000000 
#    y 0.000000 4.304980 0.000000 
#    z 0.000000 0.000000 3.467370 
# 
# 
# High freq. dielectric constant tensor:
#      x y z
#    x 1.854990 0.000000 0.000000 
#    y 0.000000 1.866700 0.000000 
#    z 0.000000 0.000000 1.795150 
# 
# From -- ./inp_files/9778.got.cif
#   From: 2010.03.12/outbox.cif.g09.slc.cpg/sg41_5_cif.got.tgz:9778.got - 2010.04.14 01:55:53.
