data_PCOD8185113
_publ_section_title
;
Structure prediction by ZEFSAII (Michael W. Deem and Ramdas Pophale) SiO2 
 PCOD8185113
Probable space group: A B A 2
;
_chemical_formula_sum "Si O2"
_cell_formula_units_Z 64
_cell_length_a 29.041403
_cell_length_b 12.342679
_cell_length_c 8.625034
_cell_angle_alpha 90.000000
_cell_angle_beta 90.000000
_cell_angle_gamma 90.000000
_cell_volume 3091.632354
_symmetry_space_group_name_H-M "A B A 2"
_symmetry_group_IT_number 41
_symmetry_cell_setting 'orthorhombic'
loop_
_space_group_symop_operation_xyz
x,y,z
-x,-y,z
1/2-x,y,1/2+z
1/2+x,-y,1/2+z
x,1/2+y,1/2+z
-x,1/2-y,1/2+z
1/2-x,1/2+y,z
1/2+x,1/2-y,z
loop_
_atom_site_type_symbol
_atom_site_label
_atom_site_fract_x
_atom_site_fract_y
_atom_site_fract_z
Si Si1 0.184929 0.887178 0.347570
Si Si2 0.379729 0.340509 0.724695
Si Si3 0.445422 0.724965 0.452140
Si Si4 0.902214 0.007961 0.442148
Si Si5 0.624818 0.798366 0.439937
Si Si6 0.542393 0.192018 0.797346
Si Si7 0.747222 0.036926 0.097573
Si Si8 0.316351 0.011741 0.346556
O O1 0.148505 0.987421 0.361484
O O2 0.155808 0.778061 0.330047
O O3 0.219178 0.893961 0.205217
O O4 0.215026 0.880087 0.503946
O O5 0.417089 0.311834 0.853428
O O6 0.400062 0.431330 0.608227
O O7 0.367581 0.233365 0.621400
O O8 0.335115 0.389377 0.815148
O O9 0.416187 0.615127 0.472742
O O10 0.456698 0.780050 0.615812
O O11 0.490917 0.696465 0.358347
O O12 0.938139 0.070980 0.329998
O O13 0.571762 0.781246 0.392936
O O14 0.639182 0.918759 0.393012
O O15 0.713543 0.955711 0.193957
O O16 0.780024 0.970903 0.983878
#
# Coordination Sequence:
#
# PCOD8185113 Si02
#       8
#     8   8   8   8   8   8   8   8
#     4   9  20  39  58  91 122 162 204 260 305 365
#     4  10  23  42  64  95 128 164 209 261 306 380
#     4  12  24  42  70  92 126 170 206 251 324 368
#     4  10  22  44  65  89 136 164 204 262 314 362
#     4  10  22  41  64  86 130 161 206 256 324 367
#     4  10  23  41  65  98 123 162 212 258 301 390
#     4  10  21  38  62  85 129 157 213 262 297 381
#     4  11  22  41  60  92 125 166 205 264 312 364
#
# _framework density 20.701039000000002
#
# number of rings (size 3 to 8) (size 9 to 14) (size 15 to 20)
#    0.000    2.000    2.500    2.625    5.250    1.000 
#    0.000    5.625    0.000    0.000    0.000    0.000 
#    0.000    0.000    0.000    0.000    0.000    0.000 
#
# Total GULP energy -396538.924621 kJ/mol
# GULP energy per Si atom -12391.841394 kJ/mol
# Density = 2.065392 g / cm^3
# Si number density = 20.701039 Si / 1000 Ang^3
#
#
#
# Elastic Constant Matrix: (Units=GPa)
#
#
# Indices 1 2 3 4 5 6 
#
# 1 111.8318 24.8881 39.4064 0.0000 0.0000 0.0000
# 2 24.8881 51.3564 30.7076 0.0000 0.0000 0.0000
# 3 39.4064 30.7076 114.6377 0.0000 0.0000 0.0000
# 4 0.0000 0.0000 0.0000 20.2529 0.0000 0.0000
# 5 0.0000 0.0000 0.0000 0.0000 -9.0606 0.0000
# 6 0.0000 0.0000 0.0000 0.0000 0.0000 26.6091
#
#
#
# Elastic Compliance Matrix: (Units=1/GPa)
#
#
# Indices 1 2 3 4 5 6 
#
# 1 0.010693 -0.003553 -0.002724 0.000000 0.000000 0.000000
# 2 -0.003553 0.024366 -0.005305 0.000000 0.000000 0.000000
# 3 -0.002724 -0.005305 0.011081 0.000000 0.000000 0.000000
# 4 0.000000 0.000000 0.000000 0.049376 0.000000 0.000000
# 5 0.000000 0.000000 0.000000 0.000000 -0.110368 0.000000
# 6 0.000000 0.000000 0.000000 0.000000 0.000000 0.037581
#
#
# Mechanical properties :
#
#
# Convention : Reuss Voigt Hill
#
# Bulk Modulus (GPa) = 43.52673 51.98111 47.75392
# Shear Modulus (GPa) = 93.37041 19.74855 56.55948
#
# Velocity S-wave (km/s) = 6.72325 3.09202 5.23272
# Velocity P-wave (km/s) = 9.01895 6.15730 7.72185
#
# Compressibility (1/GPa) = 0.02297439
#
# Stress axis : x y z
#
# Youngs Moduli (GPa) = 93.52332 41.04080 90.24807
#
# Poissons Ratio (x) = 0.14582 0.24581
# Poissons Ratio (y) = 0.33230 0.47881
# Poissons Ratio (z) = 0.25473 0.21774
#
# Static dielectric constant tensor:
#      x y z
#    x 4.131030 0.000000 0.000000 
#    y 0.000000 3.420050 0.000000 
#    z 0.000000 0.000000 4.005540 
# 
# 
# High freq. dielectric constant tensor:
#      x y z
#    x 1.827610 0.000000 0.000000 
#    y 0.000000 1.770940 0.000000 
#    z 0.000000 0.000000 1.821260 
# 
# From -- ./inp_files/3996.got.cif
#   From: 2010.03.12/outbox.cif.g09.slc.cpg/sg41_2_cif.got.tgz:3996.got - 2010.04.14 01:55:53.
