data_PCOD8185713
_publ_section_title
;
Structure prediction by ZEFSAII (Michael W. Deem and Ramdas Pophale) SiO2 
 PCOD8185713
Probable space group: A B A 2
;
_chemical_formula_sum "Si O2"
_cell_formula_units_Z 36
_cell_length_a 14.259909
_cell_length_b 11.222268
_cell_length_c 9.288244
_cell_angle_alpha 90.000000
_cell_angle_beta 90.000000
_cell_angle_gamma 90.000000
_cell_volume 1486.383945
_symmetry_space_group_name_H-M "A B A 2"
_symmetry_group_IT_number 41
_symmetry_cell_setting 'orthorhombic'
loop_
_space_group_symop_operation_xyz
x,y,z
-x,-y,z
1/2-x,y,1/2+z
1/2+x,-y,1/2+z
x,1/2+y,1/2+z
-x,1/2-y,1/2+z
1/2-x,1/2+y,z
1/2+x,1/2-y,z
loop_
_atom_site_type_symbol
_atom_site_label
_atom_site_fract_x
_atom_site_fract_y
_atom_site_fract_z
Si Si1 0.142803 0.414620 0.362050
Si Si2 0.000000 0.000000 0.080014
Si Si3 0.965873 0.241563 0.660292
Si Si4 0.660014 0.373891 0.665035
Si Si5 0.793733 0.752064 0.956480
O O1 0.090256 0.498851 0.475855
O O2 0.077032 0.303446 0.312502
O O3 0.165341 0.489578 0.217864
O O4 0.234268 0.369459 0.445312
O O5 0.993776 0.881288 0.177485
O O6 0.891073 0.224001 0.533453
O O7 0.055512 0.162558 0.615810
O O8 0.734124 0.355003 0.536937
O O9 0.689593 0.288043 0.793632
#
# Coordination Sequence:
#
# PCOD8185713 Si02
#       5
#     8   4   8   8   8
#     4  12  25  49  74 115 159 200 260 325 387 468
#     4  12  24  48  80 110 162 204 254 336 384 464
#     4  12  25  47  76 113 150 209 257 320 399 457
#     4  12  27  47  79 113 157 205 260 329 390 468
#     4  12  27  47  78 116 154 207 264 319 397 471
#
# _framework density 24.219850999999998
#
# number of rings (size 3 to 8) (size 9 to 14) (size 15 to 20)
#    0.000    0.000    8.889    0.000    3.111    1.778 
#    0.000    2.222    0.000    0.000    0.000    0.000 
#    0.000    0.000    0.000    0.000    0.000    0.000 
#
# Total GULP energy -223298.845478 kJ/mol
# GULP energy per Si atom -12405.491415 kJ/mol
# Density = 2.416473 g / cm^3
# Si number density = 24.219851 Si / 1000 Ang^3
#
#
#
# Elastic Constant Matrix: (Units=GPa)
#
#
# Indices 1 2 3 4 5 6 
#
# 1 139.5444 27.4316 30.1441 0.0000 0.0000 0.0000
# 2 27.4316 125.2310 23.7875 0.0000 0.0000 0.0000
# 3 30.1441 23.7875 51.9356 0.0000 0.0000 0.0000
# 4 0.0000 0.0000 0.0000 49.5483 0.0000 0.0000
# 5 0.0000 0.0000 0.0000 0.0000 38.6568 0.0000
# 6 0.0000 0.0000 0.0000 0.0000 0.0000 35.7837
#
#
#
# Elastic Compliance Matrix: (Units=1/GPa)
#
#
# Indices 1 2 3 4 5 6 
#
# 1 0.008304 -0.000990 -0.004366 0.000000 0.000000 0.000000
# 2 -0.000990 0.008864 -0.003486 0.000000 0.000000 0.000000
# 3 -0.004366 -0.003486 0.023385 0.000000 0.000000 0.000000
# 4 0.000000 0.000000 0.000000 0.020182 0.000000 0.000000
# 5 0.000000 0.000000 0.000000 0.000000 0.025869 0.000000
# 6 0.000000 0.000000 0.000000 0.000000 0.000000 0.027946
#
#
# Mechanical properties :
#
#
# Convention : Reuss Voigt Hill
#
# Bulk Modulus (GPa) = 43.72493 53.27082 48.49788
# Shear Modulus (GPa) = 35.75086 40.48760 38.11923
#
# Velocity S-wave (km/s) = 3.84617 4.09304 3.97152
# Velocity P-wave (km/s) = 6.14952 6.66181 6.41079
#
# Compressibility (1/GPa) = 0.02287025
#
# Stress axis : x y z
#
# Youngs Moduli (GPa) = 120.42477 112.81481 42.76170
#
# Poissons Ratio (x) = 0.11164 0.18672
# Poissons Ratio (y) = 0.11917 0.14905
# Poissons Ratio (z) = 0.52583 0.39322
#
# Static dielectric constant tensor:
#      x y z
#    x 4.615210 0.000000 0.000000 
#    y 0.000000 4.342180 0.000000 
#    z 0.000000 0.000000 4.152410 
# 
# 
# High freq. dielectric constant tensor:
#      x y z
#    x 1.977920 0.000000 0.000000 
#    y 0.000000 1.964230 0.000000 
#    z 0.000000 0.000000 1.949680 
# 
# From -- ./inp_files/5358.got.cif
#   From: 2010.03.12/outbox.cif.g09.slc.cpg/sg41_3_cif.got.tgz:5358.got - 2010.04.14 01:55:53.
