data_PCOD8185409
_publ_section_title
;
Structure prediction by ZEFSAII (Michael W. Deem and Ramdas Pophale) SiO2 
 PCOD8185409
Probable space group: A B A 2
;
_chemical_formula_sum "Si O2"
_cell_formula_units_Z 56
_cell_length_a 14.388082
_cell_length_b 13.973146
_cell_length_c 11.819256
_cell_angle_alpha 90.000000
_cell_angle_beta 90.000000
_cell_angle_gamma 90.000000
_cell_volume 2376.223248
_symmetry_space_group_name_H-M "A B A 2"
_symmetry_group_IT_number 41
_symmetry_cell_setting 'orthorhombic'
loop_
_space_group_symop_operation_xyz
x,y,z
-x,-y,z
1/2-x,y,1/2+z
1/2+x,-y,1/2+z
x,1/2+y,1/2+z
-x,1/2-y,1/2+z
1/2-x,1/2+y,z
1/2+x,1/2-y,z
loop_
_atom_site_type_symbol
_atom_site_label
_atom_site_fract_x
_atom_site_fract_y
_atom_site_fract_z
Si Si1 0.000000 0.500000 0.914361
Si Si2 0.877212 0.090903 0.883599
Si Si3 0.681883 0.390612 0.810497
Si Si4 0.622788 0.909097 0.074015
Si Si5 0.318117 0.390612 0.647117
Si Si6 0.350146 0.500000 0.228807
Si Si7 0.743415 0.250000 0.978807
Si Si8 0.500000 0.000000 0.543254
O O1 0.913273 0.529973 0.835942
O O2 0.971239 0.410590 0.997590
O O3 0.891688 0.118574 0.751558
O O4 0.841051 0.980847 0.890434
O O5 0.804630 0.161234 0.940209
O O6 0.971239 0.089410 0.960025
O O7 0.608312 0.381426 0.706056
O O8 0.784921 0.408621 0.756882
O O9 0.679371 0.290805 0.877900
O O10 0.695370 0.838766 0.017405
O O11 0.658949 0.019153 0.067181
O O12 0.215079 0.408621 0.700733
O O13 0.320629 0.290805 0.579714
O O14 0.413273 0.529973 0.121672
#
# Coordination Sequence:
#
# PCOD8185409 Si02
#       8
#     4   8   8   8   8   8   8   4
#     4  11  20  39  68  88 130 177 218 271 344 382
#     4  10  23  40  68  95 129 175 217 274 328 396
#     4  10  23  41  68  96 128 174 228 263 329 396
#     4  10  23  40  68  95 129 175 217 274 328 396
#     4  10  23  41  68  96 128 174 228 263 329 396
#     4   9  20  38  66  89 122 184 224 259 332 394
#     4  12  20  40  68 102 124 166 228 276 314 398
#     4  11  20  39  68  88 130 177 218 271 344 382
#
# _framework density 23.566808999999999
#
# number of rings (size 3 to 8) (size 9 to 14) (size 15 to 20)
#    0.000    2.000    2.857    1.714    4.000    2.286 
#    0.000    1.429   18.857    0.000    0.000    0.000 
#    0.000    0.000    0.000    0.000    0.000    0.000 
#
# Total GULP energy -346954.671664 kJ/mol
# GULP energy per Si atom -12391.238274 kJ/mol
# Density = 2.351317 g / cm^3
# Si number density = 23.566809 Si / 1000 Ang^3
#
#
#
# Elastic Constant Matrix: (Units=GPa)
#
#
# Indices 1 2 3 4 5 6 
#
# 1 69.1321 25.8211 53.8277 0.0000 0.0000 0.0000
# 2 25.8211 79.7559 65.9939 0.0000 0.0000 0.0000
# 3 53.8277 65.9939 179.9641 0.0000 0.0000 0.0000
# 4 0.0000 0.0000 0.0000 46.6850 0.0000 0.0000
# 5 0.0000 0.0000 0.0000 0.0000 42.4365 0.0000
# 6 0.0000 0.0000 0.0000 0.0000 0.0000 6.8494
#
#
#
# Elastic Compliance Matrix: (Units=1/GPa)
#
#
# Indices 1 2 3 4 5 6 
#
# 1 0.019096 -0.002091 -0.004945 0.000000 0.000000 0.000000
# 2 -0.002091 0.018229 -0.006059 0.000000 0.000000 0.000000
# 3 -0.004945 -0.006059 0.009258 0.000000 0.000000 0.000000
# 4 0.000000 0.000000 0.000000 0.021420 0.000000 0.000000
# 5 0.000000 0.000000 0.000000 0.000000 0.023565 0.000000
# 6 0.000000 0.000000 0.000000 0.000000 0.000000 0.145999
#
#
# Mechanical properties :
#
#
# Convention : Reuss Voigt Hill
#
# Bulk Modulus (GPa) = 49.03695 68.90417 58.97056
# Shear Modulus (GPa) = 18.48056 31.40813 24.94434
#
# Velocity S-wave (km/s) = 2.80335 3.65461 3.25692
# Velocity P-wave (km/s) = 5.59743 6.86364 6.26262
#
# Compressibility (1/GPa) = 0.02039279
#
# Stress axis : x y z
#
# Youngs Moduli (GPa) = 52.36622 54.85790 108.01768
#
# Poissons Ratio (x) = 0.11469 0.53416
# Poissons Ratio (y) = 0.10948 0.65452
# Poissons Ratio (z) = 0.25896 0.33240
#
# Static dielectric constant tensor:
#      x y z
#    x 4.190640 0.000000 0.000000 
#    y 0.000000 3.921160 0.000000 
#    z 0.000000 0.000000 4.841330 
# 
# 
# High freq. dielectric constant tensor:
#      x y z
#    x 1.910650 0.000000 0.000000 
#    y 0.000000 1.890560 0.000000 
#    z 0.000000 0.000000 1.967950 
# 
# From -- ./inp_files/5617.got.cif
#   From: 2010.03.12/outbox.cif.g09.slc.cpg/sg41_3_cif.got.tgz:5617.got - 2010.04.14 01:55:53.
