data_PCOD8185384
_publ_section_title
;
Structure prediction by ZEFSAII (Michael W. Deem and Ramdas Pophale) SiO2 
 PCOD8185384
Probable space group: A B A 2
;
_chemical_formula_sum "Si O2"
_cell_formula_units_Z 48
_cell_length_a 16.512183
_cell_length_b 11.519816
_cell_length_c 10.899728
_cell_angle_alpha 90.000000
_cell_angle_beta 90.000000
_cell_angle_gamma 90.000000
_cell_volume 2073.316939
_symmetry_space_group_name_H-M "A B A 2"
_symmetry_group_IT_number 41
_symmetry_cell_setting 'orthorhombic'
loop_
_space_group_symop_operation_xyz
x,y,z
-x,-y,z
1/2-x,y,1/2+z
1/2+x,-y,1/2+z
x,1/2+y,1/2+z
-x,1/2-y,1/2+z
1/2-x,1/2+y,z
1/2+x,1/2-y,z
loop_
_atom_site_type_symbol
_atom_site_label
_atom_site_fract_x
_atom_site_fract_y
_atom_site_fract_z
Si Si1 0.156701 0.808562 0.077870
Si Si2 0.596133 0.754436 0.828346
Si Si3 0.825696 0.489457 0.739263
Si Si4 0.167196 0.349352 0.974103
Si Si5 0.583910 0.311497 0.801273
Si Si6 0.647512 0.032991 0.212557
O O1 0.145933 0.728428 0.195950
O O2 0.134827 0.940439 0.123362
O O3 0.097196 0.752887 0.976085
O O4 0.248910 0.803497 0.030781
O O5 0.625577 0.873366 0.767648
O O6 0.506018 0.735351 0.778315
O O7 0.656829 0.651935 0.788757
O O8 0.824187 0.568220 0.858943
O O9 0.732602 0.464467 0.705703
O O10 0.116435 0.234632 0.933247
O O11 0.119474 0.426334 0.076287
O O12 0.583890 0.451525 0.786262
#
# Coordination Sequence:
#
# PCOD8185384 Si02
#       6
#     8   8   8   8   8   8
#     4  10  23  45  69 101 135 184 244 285 350 436
#     4  12  25  45  67 105 144 182 231 298 366 418
#     4  10  23  44  69  97 132 188 238 290 343 434
#     4  10  22  45  72  97 134 190 236 293 345 424
#     4  11  26  44  70 104 147 183 233 297 369 427
#     4  11  24  42  69  99 137 179 241 286 348 427
#
# _framework density 23.151308
#
# number of rings (size 3 to 8) (size 9 to 14) (size 15 to 20)
#    0.000    1.333    1.667    2.500    7.000    4.000 
#    6.000    0.000    0.000    0.000    0.000    0.000 
#    0.000    0.000    0.000    0.000    0.000    0.000 
#
# Total GULP energy -297428.286298 kJ/mol
# GULP energy per Si atom -12392.845262 kJ/mol
# Density = 2.309861 g / cm^3
# Si number density = 23.151308 Si / 1000 Ang^3
#
#
#
# Elastic Constant Matrix: (Units=GPa)
#
#
# Indices 1 2 3 4 5 6 
#
# 1 73.2933 34.4534 25.7545 0.0000 0.0000 0.0000
# 2 34.4534 118.4320 43.9650 0.0000 0.0000 0.0000
# 3 25.7545 43.9650 107.9075 0.0000 0.0000 0.0000
# 4 0.0000 0.0000 0.0000 46.2797 0.0000 0.0000
# 5 0.0000 0.0000 0.0000 0.0000 22.6489 0.0000
# 6 0.0000 0.0000 0.0000 0.0000 0.0000 33.6212
#
#
#
# Elastic Compliance Matrix: (Units=1/GPa)
#
#
# Indices 1 2 3 4 5 6 
#
# 1 0.016277 -0.003880 -0.002304 0.000000 0.000000 0.000000
# 2 -0.003880 0.010873 -0.003504 0.000000 0.000000 0.000000
# 3 -0.002304 -0.003504 0.011245 0.000000 0.000000 0.000000
# 4 0.000000 0.000000 0.000000 0.021608 0.000000 0.000000
# 5 0.000000 0.000000 0.000000 0.000000 0.044152 0.000000
# 6 0.000000 0.000000 0.000000 0.000000 0.000000 0.029743
#
#
# Mechanical properties :
#
#
# Convention : Reuss Voigt Hill
#
# Bulk Modulus (GPa) = 52.57880 56.44204 54.51042
# Shear Modulus (GPa) = 31.32553 33.54064 32.43308
#
# Velocity S-wave (km/s) = 3.68241 3.81038 3.74694
# Velocity P-wave (km/s) = 6.39065 6.61750 6.50506
#
# Compressibility (1/GPa) = 0.01901907
#
# Stress axis : x y z
#
# Youngs Moduli (GPa) = 61.43519 91.96946 88.93007
#
# Poissons Ratio (x) = 0.35683 0.20491
# Poissons Ratio (y) = 0.23836 0.31162
# Poissons Ratio (z) = 0.14155 0.32227
#
# Static dielectric constant tensor:
#      x y z
#    x 3.814650 0.000000 0.000000 
#    y 0.000000 4.430700 0.000000 
#    z 0.000000 0.000000 4.632140 
# 
# 
# High freq. dielectric constant tensor:
#      x y z
#    x 1.892930 0.000000 0.000000 
#    y 0.000000 1.922260 0.000000 
#    z 0.000000 0.000000 1.926330 
# 
# From -- ./inp_files/5920.got.cif
#   From: 2010.03.12/outbox.cif.g09.slc.cpg/sg41_3_cif.got.tgz:5920.got - 2010.04.14 01:55:53.
