data_PCOD8185273
_publ_section_title
;
Structure prediction by ZEFSAII (Michael W. Deem and Ramdas Pophale) SiO2 
 PCOD8185273
Probable space group: A B A 2
;
_chemical_formula_sum "Si O2"
_cell_formula_units_Z 52
_cell_length_a 13.967735
_cell_length_b 20.011342
_cell_length_c 8.773349
_cell_angle_alpha 90.000000
_cell_angle_beta 90.000000
_cell_angle_gamma 90.000000
_cell_volume 2452.266170
_symmetry_space_group_name_H-M "A B A 2"
_symmetry_group_IT_number 41
_symmetry_cell_setting 'orthorhombic'
loop_
_space_group_symop_operation_xyz
x,y,z
-x,-y,z
1/2-x,y,1/2+z
1/2+x,-y,1/2+z
x,1/2+y,1/2+z
-x,1/2-y,1/2+z
1/2-x,1/2+y,z
1/2+x,1/2-y,z
loop_
_atom_site_type_symbol
_atom_site_label
_atom_site_fract_x
_atom_site_fract_y
_atom_site_fract_z
Si Si1 0.132324 0.108753 0.200010
Si Si2 0.845665 0.568933 0.271804
Si Si3 0.497839 0.197593 0.899636
Si Si4 0.348907 0.913712 0.923239
Si Si5 0.319673 0.078318 0.368124
Si Si6 0.523853 0.833942 0.244379
Si Si7 0.000000 0.000000 0.264679
O O1 0.210046 0.077333 0.314053
O O2 0.086177 0.173927 0.281969
O O3 0.043097 0.059401 0.164994
O O4 0.177636 0.115310 0.032788
O O5 0.750751 0.601365 0.341264
O O6 0.861297 0.497408 0.356251
O O7 0.935721 0.618064 0.290496
O O8 0.825487 0.562776 0.093418
O O9 0.593534 0.153977 0.893053
O O10 0.522802 0.273559 0.863316
O O11 0.467509 0.194581 0.075002
O O12 0.411641 0.975393 0.865906
O O13 0.379575 0.124203 0.255390
#
# Coordination Sequence:
#
# PCOD8185273 Si02
#       7
#     8   8   8   8   8   8   4
#     4  11  24  40  67  95 133 167 218 265 332 384
#     4  11  24  39  66  99 128 170 210 269 324 390
#     4  10  24  46  65  95 128 182 217 274 325 384
#     4  10  23  40  66  91 133 164 213 263 326 378
#     4  12  24  40  66 100 131 170 214 273 327 396
#     4  11  25  43  67  92 136 172 226 268 325 389
#     4  10  22  38  62  92 130 166 200 268 318 386
#
# _framework density 21.204877
#
# number of rings (size 3 to 8) (size 9 to 14) (size 15 to 20)
#    0.000    1.231    1.538    3.231    8.615    3.692 
#    0.000    3.077    0.000    0.000    0.000    0.000 
#    0.000    0.000    0.000    0.000    0.000    0.000 
#
# Total GULP energy -322204.896958 kJ/mol
# GULP energy per Si atom -12392.496037 kJ/mol
# Density = 2.115661 g / cm^3
# Si number density = 21.204877 Si / 1000 Ang^3
#
#
#
# Elastic Constant Matrix: (Units=GPa)
#
#
# Indices 1 2 3 4 5 6 
#
# 1 88.3878 28.7658 36.9541 0.0000 0.0000 0.0000
# 2 28.7658 96.4450 20.5530 0.0000 0.0000 0.0000
# 3 36.9541 20.5530 107.2123 0.0000 0.0000 0.0000
# 4 0.0000 0.0000 0.0000 2.8943 0.0000 0.0000
# 5 0.0000 0.0000 0.0000 0.0000 35.0046 0.0000
# 6 0.0000 0.0000 0.0000 0.0000 0.0000 14.4590
#
#
#
# Elastic Compliance Matrix: (Units=1/GPa)
#
#
# Indices 1 2 3 4 5 6 
#
# 1 0.014171 -0.003321 -0.004248 0.000000 0.000000 0.000000
# 2 -0.003321 0.011589 -0.001077 0.000000 0.000000 0.000000
# 3 -0.004248 -0.001077 0.010998 0.000000 0.000000 0.000000
# 4 0.000000 0.000000 0.000000 0.345501 0.000000 0.000000
# 5 0.000000 0.000000 0.000000 0.000000 0.028568 0.000000
# 6 0.000000 0.000000 0.000000 0.000000 0.000000 0.069161
#
#
# Mechanical properties :
#
#
# Convention : Reuss Voigt Hill
#
# Bulk Modulus (GPa) = 51.37277 51.62121 51.49699
# Shear Modulus (GPa) = 9.92521 24.18972 17.05747
#
# Velocity S-wave (km/s) = 2.16582 3.38118 2.83929
# Velocity P-wave (km/s) = 5.52574 6.29604 5.92342
#
# Compressibility (1/GPa) = 0.01946556
#
# Stress axis : x y z
#
# Youngs Moduli (GPa) = 70.56855 86.29089 90.92728
#
# Poissons Ratio (x) = 0.28660 0.38623
# Poissons Ratio (y) = 0.23438 0.09791
# Poissons Ratio (z) = 0.29975 0.09292
#
# Static dielectric constant tensor:
#      x y z
#    x 3.923770 0.000000 0.000000 
#    y 0.000000 3.820930 0.000000 
#    z 0.000000 0.000000 3.848240 
# 
# 
# High freq. dielectric constant tensor:
#      x y z
#    x 1.842850 0.000000 0.000000 
#    y 0.000000 1.825060 0.000000 
#    z 0.000000 0.000000 1.838940 
# 
# From -- ./inp_files/2633.got.cif
#   From: 2010.03.12/outbox.cif.g09.slc.cpg/sg41_2_cif.got.tgz:2633.got - 2010.04.14 01:55:53.
