data_PCOD8185278
_publ_section_title
;
Structure prediction by ZEFSAII (Michael W. Deem and Ramdas Pophale) SiO2 
 PCOD8185278
Probable space group: A B A 2
;
_chemical_formula_sum "Si O2"
_cell_formula_units_Z 60
_cell_length_a 10.339982
_cell_length_b 9.182931
_cell_length_c 28.070219
_cell_angle_alpha 90.000000
_cell_angle_beta 90.000000
_cell_angle_gamma 90.000000
_cell_volume 2665.304943
_symmetry_space_group_name_H-M "A B A 2"
_symmetry_group_IT_number 41
_symmetry_cell_setting 'orthorhombic'
loop_
_space_group_symop_operation_xyz
x,y,z
-x,-y,z
1/2-x,y,1/2+z
1/2+x,-y,1/2+z
x,1/2+y,1/2+z
-x,1/2-y,1/2+z
1/2-x,1/2+y,z
1/2+x,1/2-y,z
loop_
_atom_site_type_symbol
_atom_site_label
_atom_site_fract_x
_atom_site_fract_y
_atom_site_fract_z
Si Si1 0.222482 0.693386 0.881210
Si Si2 0.718950 0.055768 0.945679
Si Si3 0.138797 0.420876 0.214016
Si Si4 0.868566 0.851530 0.071959
Si Si5 0.000000 0.000000 0.990544
Si Si6 0.618824 0.909574 0.678061
Si Si7 0.137786 0.952337 0.547302
Si Si8 0.139300 0.446961 0.319661
O O1 0.158602 0.591611 0.921991
O O2 0.296382 0.578426 0.848299
O O3 0.309864 0.810942 0.909531
O O4 0.130103 0.793613 0.848479
O O5 0.636419 0.092042 0.991824
O O6 0.875021 0.037129 0.957379
O O7 0.126072 0.252614 0.199073
O O8 0.244148 0.507762 0.182898
O O9 0.200296 0.421765 0.267552
O O10 0.000000 0.500000 0.208452
O O11 0.917520 0.908337 0.122269
O O12 0.827317 0.685243 0.079307
O O13 0.737719 0.922016 0.054548
O O14 0.973220 0.868726 0.028789
O O15 0.500000 0.000000 0.702422
O O16 0.000000 0.000000 0.565715
O O17 0.000000 0.500000 0.307014
#
# Coordination Sequence:
#
# PCOD8185278 Si02
#       8
#     8   8   8   8   4   8   8   8
#     4  10  22  38  66  98 123 170 227 267 326 415
#     4  10  22  39  62  97 130 178 228 274 341 391
#     4  11  25  46  72 105 143 185 232 296 361 429
#     4  11  25  43  64  96 132 183 229 281 345 398
#     4  10  22  40  68  84 142 182 220 276 342 400
#     4  12  25  44  73 105 138 186 238 291 352 429
#     4  11  26  41  64  92 133 177 233 283 337 403
#     4  10  23  45  68  94 137 175 213 283 354 405
#
# _framework density 22.511496000000001
#
# number of rings (size 3 to 8) (size 9 to 14) (size 15 to 20)
#    0.000    1.333    0.667    4.000    9.333    5.333 
#    0.000    2.000    0.000    0.000    0.000    0.000 
#    0.000    0.000    0.000    0.000    0.000    0.000 
#
# Total GULP energy -371655.948627 kJ/mol
# GULP energy per Si atom -12388.531621 kJ/mol
# Density = 2.246026 g / cm^3
# Si number density = 22.511496 Si / 1000 Ang^3
#
#
#
# Elastic Constant Matrix: (Units=GPa)
#
#
# Indices 1 2 3 4 5 6 
#
# 1 81.2908 53.5837 16.5339 0.0000 0.0000 0.0000
# 2 53.5837 179.7015 51.7662 0.0000 0.0000 0.0000
# 3 16.5339 51.7662 111.1256 0.0000 0.0000 0.0000
# 4 0.0000 0.0000 0.0000 51.8011 0.0000 0.0000
# 5 0.0000 0.0000 0.0000 0.0000 9.6089 0.0000
# 6 0.0000 0.0000 0.0000 0.0000 0.0000 32.9734
#
#
#
# Elastic Compliance Matrix: (Units=1/GPa)
#
#
# Indices 1 2 3 4 5 6 
#
# 1 0.015314 -0.004516 -0.000175 0.000000 0.000000 0.000000
# 2 -0.004516 0.007759 -0.002943 0.000000 0.000000 0.000000
# 3 -0.000175 -0.002943 0.010396 0.000000 0.000000 0.000000
# 4 0.000000 0.000000 0.000000 0.019305 0.000000 0.000000
# 5 0.000000 0.000000 0.000000 0.000000 0.104070 0.000000
# 6 0.000000 0.000000 0.000000 0.000000 0.000000 0.030327
#
#
# Mechanical properties :
#
#
# Convention : Reuss Voigt Hill
#
# Bulk Modulus (GPa) = 54.93939 68.43172 61.68555
# Shear Modulus (GPa) = 23.98030 35.55896 29.76963
#
# Velocity S-wave (km/s) = 3.26735 3.97872 3.64045
# Velocity P-wave (km/s) = 6.22030 7.18133 6.71802
#
# Compressibility (1/GPa) = 0.01820188
#
# Stress axis : x y z
#
# Youngs Moduli (GPa) = 65.30060 128.88265 96.19492
#
# Poissons Ratio (x) = 0.58203 0.01681
# Poissons Ratio (y) = 0.29489 0.28305
# Poissons Ratio (z) = 0.01141 0.37924
#
# Static dielectric constant tensor:
#      x y z
#    x 4.148610 0.000000 0.000000 
#    y 0.000000 4.151960 0.000000 
#    z 0.000000 0.000000 4.415600 
# 
# 
# High freq. dielectric constant tensor:
#      x y z
#    x 1.861700 0.000000 0.000000 
#    y 0.000000 1.906990 0.000000 
#    z 0.000000 0.000000 1.902390 
# 
# From -- ./inp_files/12540.got.cif
#   From: 2010.03.12/outbox.cif.g09.slc.cpg/sg41_7_cif.got.tgz:12540.got - 2010.04.14 01:55:53.
