data_PCOD8185596
_publ_section_title
;
Structure prediction by ZEFSAII (Michael W. Deem and Ramdas Pophale) SiO2 
 PCOD8185596
Probable space group: A B A 2
;
_chemical_formula_sum "Si O2"
_cell_formula_units_Z 48
_cell_length_a 11.153591
_cell_length_b 16.354749
_cell_length_c 11.647032
_cell_angle_alpha 90.000000
_cell_angle_beta 90.000000
_cell_angle_gamma 90.000000
_cell_volume 2124.583806
_symmetry_space_group_name_H-M "A B A 2"
_symmetry_group_IT_number 41
_symmetry_cell_setting 'orthorhombic'
loop_
_space_group_symop_operation_xyz
x,y,z
-x,-y,z
1/2-x,y,1/2+z
1/2+x,-y,1/2+z
x,1/2+y,1/2+z
-x,1/2-y,1/2+z
1/2-x,1/2+y,z
1/2+x,1/2-y,z
loop_
_atom_site_type_symbol
_atom_site_label
_atom_site_fract_x
_atom_site_fract_y
_atom_site_fract_z
Si Si1 0.525208 0.587616 0.341110
Si Si2 0.075467 0.285784 0.193123
Si Si3 0.948186 0.910028 0.860655
Si Si4 0.214240 0.178927 0.351267
Si Si5 0.957393 0.633781 0.593220
Si Si6 0.713686 0.169096 0.985882
O O1 0.500000 0.500000 0.397268
O O2 0.416920 0.645053 0.384226
O O3 0.532104 0.575679 0.203431
O O4 0.654044 0.622309 0.379118
O O5 0.191039 0.234771 0.238679
O O6 0.120138 0.341196 0.089417
O O7 0.026597 0.341340 0.296356
O O8 0.974119 0.225545 0.142426
O O9 0.808887 0.894419 0.823598
O O10 0.000000 0.000000 0.829239
O O11 0.946482 0.894396 0.997818
O O12 0.263925 0.236050 0.453638
O O13 0.833567 0.623657 0.524404
#
# Coordination Sequence:
#
# PCOD8185596 Si02
#       6
#     8   8   8   8   8   8
#     4  11  27  46  68 108 145 186 234 303 374 419
#     4  11  23  44  71 106 137 191 249 290 356 439
#     4  12  26  44  72 114 145 188 244 308 375 418
#     4  11  23  44  70  99 142 190 240 291 349 445
#     4  11  24  43  74 100 141 193 241 288 360 443
#     4  12  22  43  74  99 138 186 248 288 354 437
#
# _framework density 22.592661
#
# number of rings (size 3 to 8) (size 9 to 14) (size 15 to 20)
#    0.000    0.667    3.333    5.500    2.333    0.667 
#    0.000    0.000    0.000    0.000    0.000    0.000 
#    0.000    0.000    0.000    0.000    0.000    0.000 
#
# Total GULP energy -297546.048557 kJ/mol
# GULP energy per Si atom -12397.752023 kJ/mol
# Density = 2.254124 g / cm^3
# Si number density = 22.592661 Si / 1000 Ang^3
#
#
#
# Elastic Constant Matrix: (Units=GPa)
#
#
# Indices 1 2 3 4 5 6 
#
# 1 129.9571 43.5104 37.8165 0.0000 0.0000 0.0000
# 2 43.5104 112.4601 26.0715 0.0000 0.0000 0.0000
# 3 37.8165 26.0715 106.5107 0.0000 0.0000 0.0000
# 4 0.0000 0.0000 0.0000 21.7099 0.0000 0.0000
# 5 0.0000 0.0000 0.0000 0.0000 35.7092 0.0000
# 6 0.0000 0.0000 0.0000 0.0000 0.0000 29.1288
#
#
#
# Elastic Compliance Matrix: (Units=1/GPa)
#
#
# Indices 1 2 3 4 5 6 
#
# 1 0.009481 -0.003062 -0.002617 0.000000 0.000000 0.000000
# 2 -0.003062 0.010416 -0.001462 0.000000 0.000000 0.000000
# 3 -0.002617 -0.001462 0.010676 0.000000 0.000000 0.000000
# 4 0.000000 0.000000 0.000000 0.046062 0.000000 0.000000
# 5 0.000000 0.000000 0.000000 0.000000 0.028004 0.000000
# 6 0.000000 0.000000 0.000000 0.000000 0.000000 0.034330
#
#
# Mechanical properties :
#
#
# Convention : Reuss Voigt Hill
#
# Bulk Modulus (GPa) = 61.38452 62.63609 62.01030
# Shear Modulus (GPa) = 31.50969 33.41156 32.46063
#
# Velocity S-wave (km/s) = 3.73860 3.84978 3.79460
# Velocity P-wave (km/s) = 6.77239 6.89531 6.83413
#
# Compressibility (1/GPa) = 0.01629075
#
# Stress axis : x y z
#
# Youngs Moduli (GPa) = 105.46961 96.00964 93.66934
#
# Poissons Ratio (x) = 0.29395 0.24513
# Poissons Ratio (y) = 0.32291 0.13699
# Poissons Ratio (z) = 0.27601 0.14041
#
# Static dielectric constant tensor:
#      x y z
#    x 4.038220 0.000000 0.000000 
#    y 0.000000 3.862110 0.000000 
#    z 0.000000 0.000000 4.104740 
# 
# 
# High freq. dielectric constant tensor:
#      x y z
#    x 1.894590 0.000000 0.000000 
#    y 0.000000 1.873920 0.000000 
#    z 0.000000 0.000000 1.893720 
# 
# From -- ./inp_files/4965.got.cif
#   From: 2010.03.12/outbox.cif.g09.slc.cpg/sg41_3_cif.got.tgz:4965.got - 2010.04.14 01:55:53.
