data_PCOD8185276
_publ_section_title
;
Structure prediction by ZEFSAII (Michael W. Deem and Ramdas Pophale) SiO2 
 PCOD8185276
Probable space group: A B A 2
;
_chemical_formula_sum "Si O2"
_cell_formula_units_Z 40
_cell_length_a 5.390751
_cell_length_b 19.106283
_cell_length_c 17.881239
_cell_angle_alpha 90.000000
_cell_angle_beta 90.000000
_cell_angle_gamma 90.000000
_cell_volume 1841.717803
_symmetry_space_group_name_H-M "A B A 2"
_symmetry_group_IT_number 41
_symmetry_cell_setting 'orthorhombic'
loop_
_space_group_symop_operation_xyz
x,y,z
-x,-y,z
1/2-x,y,1/2+z
1/2+x,-y,1/2+z
x,1/2+y,1/2+z
-x,1/2-y,1/2+z
1/2-x,1/2+y,z
1/2+x,1/2-y,z
loop_
_atom_site_type_symbol
_atom_site_label
_atom_site_fract_x
_atom_site_fract_y
_atom_site_fract_z
Si Si1 0.011906 0.786529 0.381060
Si Si2 0.500000 0.000000 0.457605
Si Si3 0.970264 0.213112 0.558230
Si Si4 0.843759 0.937575 0.350248
Si Si5 0.500000 0.500000 0.208422
Si Si6 0.812915 0.060336 0.588120
O O1 0.769704 0.745234 0.349446
O O2 0.992203 0.865598 0.352823
O O3 0.018580 0.782864 0.469685
O O4 0.600840 0.937655 0.402971
O O5 0.310128 0.956799 0.508586
O O6 0.726701 0.253751 0.589603
O O7 0.957214 0.133218 0.584799
O O8 0.801292 0.959942 0.263028
O O9 0.000000 0.000000 0.389550
O O10 0.615668 0.560417 0.155862
O O11 0.000000 0.000000 0.610311
#
# Coordination Sequence:
#
# PCOD8185276 Si02
#       6
#     8   4   8   8   4   8
#     4  10  22  38  63  99 139 169 219 284 343 400
#     4  11  22  36  72  97 128 164 248 275 336 390
#     4  10  23  39  64  99 135 173 220 282 344 402
#     4  10  23  41  64  98 125 181 221 281 331 411
#     4   9  26  42  66  93 136 174 232 271 352 390
#     4  11  24  43  66  98 131 180 225 288 329 416
#
# _framework density 21.718854
#
# number of rings (size 3 to 8) (size 9 to 14) (size 15 to 20)
#    0.600    1.200    0.000    3.000   18.200    0.000 
#    0.000    2.000    0.000    0.000    0.000    0.000 
#    0.000    0.000    0.000    0.000    0.000    0.000 
#
# Total GULP energy -247825.686982 kJ/mol
# GULP energy per Si atom -12391.284349 kJ/mol
# Density = 2.166942 g / cm^3
# Si number density = 21.718854 Si / 1000 Ang^3
#
#
#
# Elastic Constant Matrix: (Units=GPa)
#
#
# Indices 1 2 3 4 5 6 
#
# 1 113.1331 61.9760 43.6403 0.0000 0.0000 0.0000
# 2 61.9760 170.5741 22.7064 0.0000 0.0000 0.0000
# 3 43.6403 22.7064 95.7615 0.0000 0.0000 0.0000
# 4 0.0000 0.0000 0.0000 15.9982 0.0000 0.0000
# 5 0.0000 0.0000 0.0000 0.0000 -218.9417 0.0000
# 6 0.0000 0.0000 0.0000 0.0000 0.0000 43.9540
#
#
#
# Elastic Compliance Matrix: (Units=1/GPa)
#
#
# Indices 1 2 3 4 5 6 
#
# 1 0.012969 -0.004053 -0.004949 0.000000 0.000000 0.000000
# 2 -0.004053 0.007320 0.000111 0.000000 0.000000 0.000000
# 3 -0.004949 0.000111 0.012672 0.000000 0.000000 0.000000
# 4 0.000000 0.000000 0.000000 0.062507 0.000000 0.000000
# 5 0.000000 0.000000 0.000000 0.000000 -0.004567 0.000000
# 6 0.000000 0.000000 0.000000 0.000000 0.000000 0.022751
#
#
# Mechanical properties :
#
#
# Convention : Reuss Voigt Hill
#
# Bulk Modulus (GPa) = 65.88081 70.67935 68.28008
# Shear Modulus (GPa) = 36.63211 -15.05483 10.78864
#
# Velocity S-wave (km/s) = 4.11134 -2.63567 2.23119
# Velocity P-wave (km/s) = 7.27577 4.83231 6.17608
#
# Compressibility (1/GPa) = 0.01517893
#
# Stress axis : x y z
#
# Youngs Moduli (GPa) = 77.10957 136.60452 78.91697
#
# Poissons Ratio (x) = 0.55368 0.39056
# Poissons Ratio (y) = 0.31254 -0.00879
# Poissons Ratio (z) = 0.38161 -0.01521
#
# Static dielectric constant tensor:
#      x y z
#    x 6.235160 0.000000 0.000000 
#    y 0.000000 3.781030 0.000000 
#    z 0.000000 0.000000 3.635570 
# 
# 
# High freq. dielectric constant tensor:
#      x y z
#    x 1.854380 0.000000 0.000000 
#    y 0.000000 1.848070 0.000000 
#    z 0.000000 0.000000 1.830880 
# 
# From -- ./inp_files/9380.got.cif
#   From: 2010.03.12/outbox.cif.g09.slc.cpg/sg41_5_cif.got.tgz:9380.got - 2010.04.14 01:55:53.
