data_PCOD8185085
_publ_section_title
;
Structure prediction by ZEFSAII (Michael W. Deem and Ramdas Pophale) SiO2 
 PCOD8185085
Probable space group: A B A 2
;
_chemical_formula_sum "Si O2"
_cell_formula_units_Z 40
_cell_length_a 4.974114
_cell_length_b 27.645756
_cell_length_c 12.962300
_cell_angle_alpha 90.000000
_cell_angle_beta 90.000000
_cell_angle_gamma 90.000000
_cell_volume 1782.486600
_symmetry_space_group_name_H-M "A B A 2"
_symmetry_group_IT_number 41
_symmetry_cell_setting 'orthorhombic'
loop_
_space_group_symop_operation_xyz
x,y,z
-x,-y,z
1/2-x,y,1/2+z
1/2+x,-y,1/2+z
x,1/2+y,1/2+z
-x,1/2-y,1/2+z
1/2-x,1/2+y,z
1/2+x,1/2-y,z
loop_
_atom_site_type_symbol
_atom_site_label
_atom_site_fract_x
_atom_site_fract_y
_atom_site_fract_z
Si Si1 0.571042 0.573062 0.279150
Si Si2 0.616161 0.778571 0.123323
Si Si3 0.656567 0.777775 0.880962
Si Si4 0.922095 0.863125 0.765977
Si Si5 0.000000 0.500000 0.959915
Si Si6 0.500000 0.500000 0.103061
O O1 0.268953 0.590737 0.258347
O O2 0.589275 0.544092 0.386340
O O3 0.628850 0.541102 0.177334
O O4 0.779412 0.617577 0.290571
O O5 0.395702 0.741172 0.168519
O O6 0.564529 0.833305 0.159501
O O7 0.624010 0.778352 0.002266
O O8 0.358819 0.764648 0.839884
O O9 0.787188 0.828920 0.852272
O O10 0.747047 0.483413 0.030026
#
# Coordination Sequence:
#
# PCOD8185085 Si02
#       6
#     8   8   8   8   4   4
#     4  11  26  41  64 101 122 155 216 257 308 393
#     4  10  21  37  57  84 122 168 209 245 298 360
#     4  10  21  37  57  84 122 168 209 245 298 360
#     4  12  22  38  62  91 128 157 204 268 306 350
#     4  11  24  47  70  88 126 167 196 253 328 384
#     4  11  24  47  70  88 126 167 196 253 328 384
#
# _framework density 22.440560999999999
#
# number of rings (size 3 to 8) (size 9 to 14) (size 15 to 20)
#    0.000    1.200    0.000    6.000    0.000    8.000 
#    0.000    0.000    0.000    0.000    0.000    0.000 
#    0.000    0.000    0.000    0.000    0.000    0.000 
#
# Total GULP energy -247921.682988 kJ/mol
# GULP energy per Si atom -12396.084149 kJ/mol
# Density = 2.238949 g / cm^3
# Si number density = 22.440561 Si / 1000 Ang^3
#
#
#
# Elastic Constant Matrix: (Units=GPa)
#
#
# Indices 1 2 3 4 5 6 
#
# 1 114.1826 20.8440 45.2557 0.0000 0.0000 0.0000
# 2 20.8440 92.2024 28.4282 0.0000 0.0000 0.0000
# 3 45.2557 28.4282 83.0939 0.0000 0.0000 0.0000
# 4 0.0000 0.0000 0.0000 37.1157 0.0000 0.0000
# 5 0.0000 0.0000 0.0000 0.0000 13.0942 0.0000
# 6 0.0000 0.0000 0.0000 0.0000 0.0000 52.8152
#
#
#
# Elastic Compliance Matrix: (Units=1/GPa)
#
#
# Indices 1 2 3 4 5 6 
#
# 1 0.011212 -0.000729 -0.005857 0.000000 0.000000 0.000000
# 2 -0.000729 0.012172 -0.003767 0.000000 0.000000 0.000000
# 3 -0.005857 -0.003767 0.016514 0.000000 0.000000 0.000000
# 4 0.000000 0.000000 0.000000 0.026943 0.000000 0.000000
# 5 0.000000 0.000000 0.000000 0.000000 0.076370 0.000000
# 6 0.000000 0.000000 0.000000 0.000000 0.000000 0.018934
#
#
# Mechanical properties :
#
#
# Convention : Reuss Voigt Hill
#
# Bulk Modulus (GPa) = 52.10771 53.17052 52.63912
# Shear Modulus (GPa) = 26.42030 33.60176 30.01103
#
# Velocity S-wave (km/s) = 3.43497 3.87378 3.66096
# Velocity P-wave (km/s) = 6.24522 6.61465 6.43259
#
# Compressibility (1/GPa) = 0.01919102
#
# Stress axis : x y z
#
# Youngs Moduli (GPa) = 89.18639 82.15551 60.55625
#
# Poissons Ratio (x) = 0.05988 0.35470
# Poissons Ratio (y) = 0.06500 0.22814
# Poissons Ratio (z) = 0.52239 0.30951
#
# Static dielectric constant tensor:
#      x y z
#    x 4.562530 0.000000 0.000000 
#    y 0.000000 3.814120 0.000000 
#    z 0.000000 0.000000 4.157210 
# 
# 
# High freq. dielectric constant tensor:
#      x y z
#    x 1.905760 0.000000 0.000000 
#    y 0.000000 1.871130 0.000000 
#    z 0.000000 0.000000 1.905000 
# 
# From -- ./inp_files/6829.got.cif
#   From: 2010.03.12/outbox.cif.g09.slc.cpg/sg41_4_cif.got.tgz:6829.got - 2010.04.14 01:55:53.
