data_PCOD8185436
_publ_section_title
;
Structure prediction by ZEFSAII (Michael W. Deem and Ramdas Pophale) SiO2 
 PCOD8185436
Probable space group: A B A 2
;
_chemical_formula_sum "Si O2"
_cell_formula_units_Z 60
_cell_length_a 11.126550
_cell_length_b 27.018275
_cell_length_c 9.317363
_cell_angle_alpha 90.000000
_cell_angle_beta 90.000000
_cell_angle_gamma 90.000000
_cell_volume 2800.987414
_symmetry_space_group_name_H-M "A B A 2"
_symmetry_group_IT_number 41
_symmetry_cell_setting 'orthorhombic'
loop_
_space_group_symop_operation_xyz
x,y,z
-x,-y,z
1/2-x,y,1/2+z
1/2+x,-y,1/2+z
x,1/2+y,1/2+z
-x,1/2-y,1/2+z
1/2-x,1/2+y,z
1/2+x,1/2-y,z
loop_
_atom_site_type_symbol
_atom_site_label
_atom_site_fract_x
_atom_site_fract_y
_atom_site_fract_z
Si Si1 0.000000 0.500000 0.023041
Si Si2 0.807790 0.215775 0.124064
Si Si3 0.729318 0.281372 0.360864
Si Si4 0.102174 0.088740 0.692303
Si Si5 0.692036 0.877557 0.488508
Si Si6 0.475562 0.654319 0.220575
Si Si7 0.837989 0.123461 0.682968
Si Si8 0.646323 0.083347 0.884008
O O1 0.072769 0.534350 0.134025
O O2 0.092376 0.471057 0.917906
O O3 0.805877 0.264236 0.223636
O O4 0.701563 0.180796 0.187257
O O5 0.933101 0.187573 0.130684
O O6 0.793150 0.233546 0.960675
O O7 0.813098 0.320478 0.441460
O O8 0.609079 0.309104 0.310274
O O9 0.181075 0.112274 0.565056
O O10 0.170144 0.087755 0.847511
O O11 0.979527 0.119758 0.715193
O O12 0.589988 0.882750 0.609304
O O13 0.538750 0.618170 0.331949
O O14 0.761245 0.085121 0.780326
O O15 0.800899 0.106121 0.526917
#
# Coordination Sequence:
#
# PCOD8185436 Si02
#       8
#     4   8   8   8   8   8   8   8
#     4  10  24  48  76 108 130 172 228 292 346 428
#     4  11  25  38  66  96 136 182 240 281 331 396
#     4  12  23  41  60 101 130 186 232 287 318 406
#     4  11  26  45  74  97 139 179 226 291 349 424
#     4  12  25  46  67  97 142 186 228 279 361 403
#     4  11  25  42  66  95 141 186 230 278 357 398
#     4  10  23  44  66 102 139 180 226 286 350 402
#     4  10  23  45  72  97 137 176 220 287 356 419
#
# _framework density 21.421016000000002
#
# number of rings (size 3 to 8) (size 9 to 14) (size 15 to 20)
#    0.000    1.067    2.667    3.200    7.467    4.267 
#    0.000    0.667    0.000    0.000    0.000    0.000 
#    0.000    0.000    0.000    0.000    0.000    0.000 
#
# Total GULP energy -371895.371834 kJ/mol
# GULP energy per Si atom -12396.512394 kJ/mol
# Density = 2.137226 g / cm^3
# Si number density = 21.421016 Si / 1000 Ang^3
#
#
#
# Elastic Constant Matrix: (Units=GPa)
#
#
# Indices 1 2 3 4 5 6 
#
# 1 121.3398 38.2952 56.6927 0.0000 0.0000 0.0000
# 2 38.2952 92.2657 40.4297 0.0000 0.0000 0.0000
# 3 56.6927 40.4297 143.3311 0.0000 0.0000 0.0000
# 4 0.0000 0.0000 0.0000 34.0966 0.0000 0.0000
# 5 0.0000 0.0000 0.0000 0.0000 45.4341 0.0000
# 6 0.0000 0.0000 0.0000 0.0000 0.0000 22.9167
#
#
#
# Elastic Compliance Matrix: (Units=1/GPa)
#
#
# Indices 1 2 3 4 5 6 
#
# 1 0.010780 -0.002973 -0.003425 0.000000 0.000000 0.000000
# 2 -0.002973 0.013187 -0.002544 0.000000 0.000000 0.000000
# 3 -0.003425 -0.002544 0.009049 0.000000 0.000000 0.000000
# 4 0.000000 0.000000 0.000000 0.029328 0.000000 0.000000
# 5 0.000000 0.000000 0.000000 0.000000 0.022010 0.000000
# 6 0.000000 0.000000 0.000000 0.000000 0.000000 0.043636
#
#
# Mechanical properties :
#
#
# Convention : Reuss Voigt Hill
#
# Bulk Modulus (GPa) = 66.08619 69.75242 67.91930
# Shear Modulus (GPa) = 33.13033 35.25742 34.19388
#
# Velocity S-wave (km/s) = 3.93698 4.06140 3.99968
# Velocity P-wave (km/s) = 7.18224 7.39098 7.28736
#
# Compressibility (1/GPa) = 0.01513176
#
# Stress axis : x y z
#
# Youngs Moduli (GPa) = 92.76379 75.83253 110.50817
#
# Poissons Ratio (x) = 0.22548 0.37851
# Poissons Ratio (y) = 0.27583 0.28108
# Poissons Ratio (z) = 0.31773 0.19289
#
# Static dielectric constant tensor:
#      x y z
#    x 3.867520 0.000000 0.000000 
#    y 0.000000 3.807530 0.000000 
#    z 0.000000 0.000000 4.057740 
# 
# 
# High freq. dielectric constant tensor:
#      x y z
#    x 1.842990 0.000000 0.000000 
#    y 0.000000 1.827800 0.000000 
#    z 0.000000 0.000000 1.862380 
# 
# From -- ./inp_files/2167.got.cif
#   From: 2010.03.12/outbox.cif.g09.slc.cpg/sg41_2_cif.got.tgz:2167.got - 2010.04.14 01:55:53.
