data_PCOD8185728
_publ_section_title
;
Structure prediction by ZEFSAII (Michael W. Deem and Ramdas Pophale) SiO2 
 PCOD8185728
Probable space group: A B A 2
;
_chemical_formula_sum "Si O2"
_cell_formula_units_Z 20
_cell_length_a 17.793926
_cell_length_b 7.911105
_cell_length_c 5.127316
_cell_angle_alpha 90.000000
_cell_angle_beta 90.000000
_cell_angle_gamma 90.000000
_cell_volume 721.770309
_symmetry_space_group_name_H-M "A B A 2"
_symmetry_group_IT_number 41
_symmetry_cell_setting 'orthorhombic'
loop_
_space_group_symop_operation_xyz
x,y,z
-x,-y,z
1/2-x,y,1/2+z
1/2+x,-y,1/2+z
x,1/2+y,1/2+z
-x,1/2-y,1/2+z
1/2-x,1/2+y,z
1/2+x,1/2-y,z
loop_
_atom_site_type_symbol
_atom_site_label
_atom_site_fract_x
_atom_site_fract_y
_atom_site_fract_z
Si Si1 0.299193 0.013634 0.724320
Si Si2 0.500000 0.000000 0.364700
Si Si3 0.602842 0.774729 0.061154
O O1 0.266903 0.035264 0.434500
O O2 0.335568 0.826195 0.732959
O O3 0.361537 0.158365 0.787179
O O4 0.470640 0.842743 0.532326
O O5 0.573851 0.942945 0.205489
#
# Coordination Sequence:
#
# PCOD8185728 Si02
#       3
#     8   4   8
#     4  12  27  49  78 113 153 200 252 314 380 452
#     4  12  26  48  76 110 150 200 252 312 376 448
#     4  12  26  48  76 112 152 200 254 314 378 452
#
# _framework density 27.709644999999998
#
# number of rings (size 3 to 8) (size 9 to 14) (size 15 to 20)
#    0.000    0.000    0.000    9.600    0.000    6.400 
#    0.000    0.000    0.000    0.000    0.000    0.000 
#    0.000    0.000    0.000    0.000    0.000    0.000 
#
# Total GULP energy -124021.433948 kJ/mol
# GULP energy per Si atom -12402.143395 kJ/mol
# Density = 2.764658 g / cm^3
# Si number density = 27.709645 Si / 1000 Ang^3
#
#
#
# Elastic Constant Matrix: (Units=GPa)
#
#
# Indices 1 2 3 4 5 6 
#
# 1 103.9004 26.3638 2.7135 0.0000 0.0000 0.0000
# 2 26.3638 121.3078 9.7217 0.0000 0.0000 0.0000
# 3 2.7135 9.7217 53.1051 0.0000 0.0000 0.0000
# 4 0.0000 0.0000 0.0000 36.9174 0.0000 0.0000
# 5 0.0000 0.0000 0.0000 0.0000 22.8083 0.0000
# 6 0.0000 0.0000 0.0000 0.0000 0.0000 49.3622
#
#
#
# Elastic Compliance Matrix: (Units=1/GPa)
#
#
# Indices 1 2 3 4 5 6 
#
# 1 0.010187 -0.002205 -0.000117 0.000000 0.000000 0.000000
# 2 -0.002205 0.008843 -0.001506 0.000000 0.000000 0.000000
# 3 -0.000117 -0.001506 0.019112 0.000000 0.000000 0.000000
# 4 0.000000 0.000000 0.000000 0.027088 0.000000 0.000000
# 5 0.000000 0.000000 0.000000 0.000000 0.043844 0.000000
# 6 0.000000 0.000000 0.000000 0.000000 0.000000 0.020258
#
#
# Mechanical properties :
#
#
# Convention : Reuss Voigt Hill
#
# Bulk Modulus (GPa) = 32.80075 39.54571 36.17323
# Shear Modulus (GPa) = 33.97889 37.78520 35.88204
#
# Velocity S-wave (km/s) = 3.50558 3.69672 3.60242
# Velocity P-wave (km/s) = 5.31493 5.70293 5.51234
#
# Compressibility (1/GPa) = 0.03048710
#
# Stress axis : x y z
#
# Youngs Moduli (GPa) = 98.16388 113.07960 52.32234
#
# Poissons Ratio (x) = 0.24929 0.00612
# Poissons Ratio (y) = 0.21641 0.07881
# Poissons Ratio (z) = 0.01148 0.17033
#
# Static dielectric constant tensor:
#      x y z
#    x 5.160730 0.000000 0.000000 
#    y 0.000000 5.166080 0.000000 
#    z 0.000000 0.000000 4.581460 
# 
# 
# High freq. dielectric constant tensor:
#      x y z
#    x 2.140970 0.000000 0.000000 
#    y 0.000000 2.136720 0.000000 
#    z 0.000000 0.000000 2.096630 
# 
# From -- ./inp_files/349.got.cif
#   From: 2010.03.12/outbox.cif.g09.slc.cpg/sg41_1_cif.got.tgz:349.got - 2010.04.14 01:55:53.
