data_PCOD8185466
_publ_section_title
;
Structure prediction by ZEFSAII (Michael W. Deem and Ramdas Pophale) SiO2 
 PCOD8185466
Probable space group: A B A 2
;
_chemical_formula_sum "Si O2"
_cell_formula_units_Z 56
_cell_length_a 32.939391
_cell_length_b 12.654474
_cell_length_c 5.293991
_cell_angle_alpha 90.000000
_cell_angle_beta 90.000000
_cell_angle_gamma 90.000000
_cell_volume 2206.697800
_symmetry_space_group_name_H-M "A B A 2"
_symmetry_group_IT_number 41
_symmetry_cell_setting 'orthorhombic'
loop_
_space_group_symop_operation_xyz
x,y,z
-x,-y,z
1/2-x,y,1/2+z
1/2+x,-y,1/2+z
x,1/2+y,1/2+z
-x,1/2-y,1/2+z
1/2-x,1/2+y,z
1/2+x,1/2-y,z
loop_
_atom_site_type_symbol
_atom_site_label
_atom_site_fract_x
_atom_site_fract_y
_atom_site_fract_z
Si Si1 0.231665 0.251799 0.745270
Si Si2 0.643399 0.204462 0.642333
Si Si3 0.353075 0.001200 0.359995
Si Si4 0.475034 0.269721 0.576625
Si Si5 0.913447 0.073169 0.470312
Si Si6 0.895887 0.855635 0.215696
Si Si7 0.268370 0.516583 0.647245
O O1 0.248842 0.309151 0.492006
O O2 0.183012 0.245197 0.769330
O O3 0.248976 0.134481 0.688113
O O4 0.660513 0.091753 0.545859
O O5 0.609407 0.176219 0.850394
O O6 0.625256 0.285501 0.433273
O O7 0.363051 0.114385 0.495947
O O8 0.317523 0.016224 0.154496
O O9 0.393781 0.955582 0.236432
O O10 0.500191 0.227986 0.337456
O O11 0.459753 0.389464 0.519606
O O12 0.435275 0.199229 0.606452
O O13 0.912291 0.969629 0.301950
O O14 0.252667 0.460190 0.390627
#
# Coordination Sequence:
#
# PCOD8185466 Si02
#       7
#     8   8   8   8   8   8   8
#     4  10  24  40  66 103 145 199 252 313 385 437
#     4  11  25  46  74 107 149 198 262 313 370 458
#     4  11  26  44  78 107 146 204 262 303 377 462
#     4  12  29  54  80 116 157 190 246 320 385 468
#     4  11  27  50  76 115 146 203 259 301 390 469
#     4  11  27  50  78 109 153 202 247 322 376 462
#     4  10  24  42  65 105 150 197 253 318 377 436
#
# _framework density 25.377286999999999
#
# number of rings (size 3 to 8) (size 9 to 14) (size 15 to 20)
#    0.000    1.143    1.429    1.714   20.000    1.714 
#    0.000    0.000    0.000    0.000    0.000    0.000 
#    0.000    0.000    0.000    0.000    0.000    0.000 
#
# Total GULP energy -347017.085359 kJ/mol
# GULP energy per Si atom -12393.467334 kJ/mol
# Density = 2.531953 g / cm^3
# Si number density = 25.377287 Si / 1000 Ang^3
#
#
#
# Elastic Constant Matrix: (Units=GPa)
#
#
# Indices 1 2 3 4 5 6 
#
# 1 111.8052 40.1781 61.0436 0.0000 0.0000 0.0000
# 2 40.1781 73.3333 10.9648 0.0000 0.0000 0.0000
# 3 61.0436 10.9648 179.8939 0.0000 0.0000 0.0000
# 4 0.0000 0.0000 0.0000 9.9181 0.0000 0.0000
# 5 0.0000 0.0000 0.0000 0.0000 54.9854 0.0000
# 6 0.0000 0.0000 0.0000 0.0000 0.0000 24.5021
#
#
#
# Elastic Compliance Matrix: (Units=1/GPa)
#
#
# Indices 1 2 3 4 5 6 
#
# 1 0.013736 -0.006892 -0.004241 0.000000 0.000000 0.000000
# 2 -0.006892 0.017220 0.001289 0.000000 0.000000 0.000000
# 3 -0.004241 0.001289 0.006919 0.000000 0.000000 0.000000
# 4 0.000000 0.000000 0.000000 0.100826 0.000000 0.000000
# 5 0.000000 0.000000 0.000000 0.000000 0.018187 0.000000
# 6 0.000000 0.000000 0.000000 0.000000 0.000000 0.040813
#
#
# Mechanical properties :
#
#
# Convention : Reuss Voigt Hill
#
# Bulk Modulus (GPa) = 54.98257 65.48948 60.23603
# Shear Modulus (GPa) = 22.37631 34.73753 28.55692
#
# Velocity S-wave (km/s) = 2.97264 3.70380 3.35818
# Velocity P-wave (km/s) = 5.78751 6.64479 6.23091
#
# Compressibility (1/GPa) = 0.01818758
#
# Stress axis : x y z
#
# Youngs Moduli (GPa) = 72.79988 58.07365 144.52123
#
# Poissons Ratio (x) = 0.40023 0.61293
# Poissons Ratio (y) = 0.50172 -0.18629
# Poissons Ratio (z) = 0.30875 -0.07486
#
# Static dielectric constant tensor:
#      x y z
#    x 4.525410 0.000000 0.000000 
#    y 0.000000 5.014810 0.000000 
#    z 0.000000 0.000000 5.053780 
# 
# 
# High freq. dielectric constant tensor:
#      x y z
#    x 1.996910 0.000000 0.000000 
#    y 0.000000 2.051710 0.000000 
#    z 0.000000 0.000000 2.022490 
# 
# From -- ./inp_files/1348.got.cif
#   From: 2010.03.12/outbox.cif.g09.slc.cpg/sg41_1_cif.got.tgz:1348.got - 2010.04.14 01:55:53.
