data_PCOD8185163
_publ_section_title
;
Structure prediction by ZEFSAII (Michael W. Deem and Ramdas Pophale) SiO2 
 PCOD8185163
Probable space group: A B A 2
;
_chemical_formula_sum "Si O2"
_cell_formula_units_Z 40
_cell_length_a 18.596974
_cell_length_b 8.504506
_cell_length_c 11.179207
_cell_angle_alpha 90.000000
_cell_angle_beta 90.000000
_cell_angle_gamma 90.000000
_cell_volume 1768.081881
_symmetry_space_group_name_H-M "A B A 2"
_symmetry_group_IT_number 41
_symmetry_cell_setting 'orthorhombic'
loop_
_space_group_symop_operation_xyz
x,y,z
-x,-y,z
1/2-x,y,1/2+z
1/2+x,-y,1/2+z
x,1/2+y,1/2+z
-x,1/2-y,1/2+z
1/2-x,1/2+y,z
1/2+x,1/2-y,z
loop_
_atom_site_type_symbol
_atom_site_label
_atom_site_fract_x
_atom_site_fract_y
_atom_site_fract_z
Si Si1 0.557468 0.205364 0.471670
Si Si2 0.669181 0.428982 0.558598
Si Si3 0.272300 0.773472 0.933245
Si Si4 0.099064 0.627362 0.525228
Si Si5 0.348909 0.823917 0.247895
O O1 0.589876 0.366786 0.523035
O O2 0.471670 0.218571 0.478988
O O3 0.583001 0.170500 0.336413
O O4 0.584304 0.055665 0.549492
O O5 0.723476 0.280733 0.547976
O O6 0.696451 0.554108 0.459619
O O7 0.664969 0.504592 0.689766
O O8 0.223971 0.770018 0.814499
O O9 0.339648 0.652016 0.922650
O O10 0.130610 0.699990 0.646137
#
# Coordination Sequence:
#
# PCOD8185163 Si02
#       5
#     8   8   8   8   8
#     4  10  23  44  66  98 132 168 220 269 320 394
#     4  10  22  40  65  93 125 167 218 262 319 389
#     4  10  21  40  64  95 126 165 219 263 314 392
#     4  10  23  44  68  98 133 169 221 267 318 396
#     4  10  23  44  67  91 132 177 208 272 333 366
#
# _framework density 22.623387000000001
#
# number of rings (size 3 to 8) (size 9 to 14) (size 15 to 20)
#    0.000    2.000    0.000    2.400    0.000   16.000 
#    0.000   38.000    0.000    0.000    0.000    0.000 
#    0.000    0.000    0.000    0.000    0.000    0.000 
#
# Total GULP energy -247914.632817 kJ/mol
# GULP energy per Si atom -12395.731641 kJ/mol
# Density = 2.257189 g / cm^3
# Si number density = 22.623387 Si / 1000 Ang^3
#
#
#
# Elastic Constant Matrix: (Units=GPa)
#
#
# Indices 1 2 3 4 5 6 
#
# 1 171.1314 28.8568 81.7637 0.0000 0.0000 0.0000
# 2 28.8568 73.6299 49.1207 0.0000 0.0000 0.0000
# 3 81.7637 49.1207 136.4336 0.0000 0.0000 0.0000
# 4 0.0000 0.0000 0.0000 37.7758 0.0000 0.0000
# 5 0.0000 0.0000 0.0000 0.0000 34.1576 0.0000
# 6 0.0000 0.0000 0.0000 0.0000 0.0000 46.4835
#
#
#
# Elastic Compliance Matrix: (Units=1/GPa)
#
#
# Indices 1 2 3 4 5 6 
#
# 1 0.008188 0.000085 -0.004938 0.000000 0.000000 0.000000
# 2 0.000085 0.017876 -0.006487 0.000000 0.000000 0.000000
# 3 -0.004938 -0.006487 0.012624 0.000000 0.000000 0.000000
# 4 0.000000 0.000000 0.000000 0.026472 0.000000 0.000000
# 5 0.000000 0.000000 0.000000 0.000000 0.029276 0.000000
# 6 0.000000 0.000000 0.000000 0.000000 0.000000 0.021513
#
#
# Mechanical properties :
#
#
# Convention : Reuss Voigt Hill
#
# Bulk Modulus (GPa) = 62.46468 77.85302 70.15885
# Shear Modulus (GPa) = 34.73072 38.44697 36.58885
#
# Velocity S-wave (km/s) = 3.92237 4.12689 4.02593
# Velocity P-wave (km/s) = 6.94147 7.56278 7.25877
#
# Compressibility (1/GPa) = 0.01600905
#
# Stress axis : x y z
#
# Youngs Moduli (GPa) = 122.12497 55.94200 79.21274
#
# Poissons Ratio (x) = -0.00476 0.39114
# Poissons Ratio (y) = -0.01038 0.51384
# Poissons Ratio (z) = 0.60303 0.36288
#
# Static dielectric constant tensor:
#      x y z
#    x 4.427940 0.000000 0.000000 
#    y 0.000000 4.132320 0.000000 
#    z 0.000000 0.000000 3.829590 
# 
# 
# High freq. dielectric constant tensor:
#      x y z
#    x 1.907960 0.000000 0.000000 
#    y 0.000000 1.899870 0.000000 
#    z 0.000000 0.000000 1.868550 
# 
# From -- ./inp_files/5819.got.cif
#   From: 2010.03.12/outbox.cif.g09.slc.cpg/sg41_3_cif.got.tgz:5819.got - 2010.04.14 01:55:53.
