data_PCOD8185468
_publ_section_title
;
Structure prediction by ZEFSAII (Michael W. Deem and Ramdas Pophale) SiO2 
 PCOD8185468
Probable space group: A B A 2
;
_chemical_formula_sum "Si O2"
_cell_formula_units_Z 48
_cell_length_a 10.264928
_cell_length_b 9.597126
_cell_length_c 21.360026
_cell_angle_alpha 90.000000
_cell_angle_beta 90.000000
_cell_angle_gamma 90.000000
_cell_volume 2104.257487
_symmetry_space_group_name_H-M "A B A 2"
_symmetry_group_IT_number 41
_symmetry_cell_setting 'orthorhombic'
loop_
_space_group_symop_operation_xyz
x,y,z
-x,-y,z
1/2-x,y,1/2+z
1/2+x,-y,1/2+z
x,1/2+y,1/2+z
-x,1/2-y,1/2+z
1/2-x,1/2+y,z
1/2+x,1/2-y,z
loop_
_atom_site_type_symbol
_atom_site_label
_atom_site_fract_x
_atom_site_fract_y
_atom_site_fract_z
Si Si1 0.517816 0.211530 0.645940
Si Si2 0.879359 0.913959 0.553541
Si Si3 0.103720 0.310559 0.871030
Si Si4 0.172547 0.111816 0.417085
Si Si5 0.918608 0.874917 0.756432
Si Si6 0.286591 0.519195 0.166270
O O1 0.571866 0.264320 0.579301
O O2 0.496925 0.338206 0.694366
O O3 0.381899 0.135896 0.637065
O O4 0.631047 0.119043 0.678691
O O5 0.794632 0.899301 0.490920
O O6 0.813620 0.003497 0.609160
O O7 0.000000 0.000000 0.527600
O O8 0.201897 0.193418 0.894534
O O9 0.165909 0.464082 0.880007
O O10 0.086702 0.264432 0.798682
O O11 0.962797 0.304924 0.905122
O O12 0.776967 0.928597 0.731661
O O13 0.000000 0.000000 0.789904
#
# Coordination Sequence:
#
# PCOD8185468 Si02
#       6
#     8   8   8   8   8   8
#     4  10  24  40  69 103 138 181 233 295 360 428
#     4  11  24  43  69  95 148 176 237 285 367 420
#     4  11  28  49  73 106 142 197 248 300 366 433
#     4  11  28  48  74 107 145 196 247 307 362 441
#     4  11  27  43  72  98 145 184 239 294 369 425
#     4  10  24  40  68 106 134 186 233 294 359 428
#
# _framework density 22.810896
#
# number of rings (size 3 to 8) (size 9 to 14) (size 15 to 20)
#    0.000    1.333    1.667    2.000   21.000    1.333 
#    0.000    0.000    0.000    0.000    0.000    0.000 
#    0.000    0.000    0.000    0.000    0.000    0.000 
#
# Total GULP energy -297462.653911 kJ/mol
# GULP energy per Si atom -12394.277246 kJ/mol
# Density = 2.275898 g / cm^3
# Si number density = 22.810896 Si / 1000 Ang^3
#
#
#
# Elastic Constant Matrix: (Units=GPa)
#
#
# Indices 1 2 3 4 5 6 
#
# 1 62.0341 19.3177 24.9229 0.0000 0.0000 0.0000
# 2 19.3177 104.2715 44.4858 0.0000 0.0000 0.0000
# 3 24.9229 44.4858 119.1228 0.0000 0.0000 0.0000
# 4 0.0000 0.0000 0.0000 22.0326 0.0000 0.0000
# 5 0.0000 0.0000 0.0000 0.0000 15.7593 0.0000
# 6 0.0000 0.0000 0.0000 0.0000 0.0000 40.6956
#
#
#
# Elastic Compliance Matrix: (Units=1/GPa)
#
#
# Indices 1 2 3 4 5 6 
#
# 1 0.017961 -0.002051 -0.002992 0.000000 0.000000 0.000000
# 2 -0.002051 0.011642 -0.003919 0.000000 0.000000 0.000000
# 3 -0.002992 -0.003919 0.010484 0.000000 0.000000 0.000000
# 4 0.000000 0.000000 0.000000 0.045387 0.000000 0.000000
# 5 0.000000 0.000000 0.000000 0.000000 0.063455 0.000000
# 6 0.000000 0.000000 0.000000 0.000000 0.000000 0.024573
#
#
# Mechanical properties :
#
#
# Convention : Reuss Voigt Hill
#
# Bulk Modulus (GPa) = 45.11799 51.43123 48.27461
# Shear Modulus (GPa) = 25.14930 28.81096 26.98013
#
# Velocity S-wave (km/s) = 3.32401 3.55778 3.44288
# Velocity P-wave (km/s) = 5.87828 6.28273 6.08387
#
# Compressibility (1/GPa) = 0.02216411
#
# Stress axis : x y z
#
# Youngs Moduli (GPa) = 55.67657 85.89493 95.38329
#
# Poissons Ratio (x) = 0.17618 0.28537
# Poissons Ratio (y) = 0.11420 0.37377
# Poissons Ratio (z) = 0.16657 0.33659
#
# Static dielectric constant tensor:
#      x y z
#    x 4.107640 0.000000 0.000000 
#    y 0.000000 4.236820 0.000000 
#    z 0.000000 0.000000 3.911010 
# 
# 
# High freq. dielectric constant tensor:
#      x y z
#    x 1.904880 0.000000 0.000000 
#    y 0.000000 1.904450 0.000000 
#    z 0.000000 0.000000 1.893610 
# 
# From -- ./inp_files/12106.got.cif
#   From: 2010.03.12/outbox.cif.g09.slc.cpg/sg41_7_cif.got.tgz:12106.got - 2010.04.14 01:55:53.
