data_PCOD8185374
_publ_section_title
;
Structure prediction by ZEFSAII (Michael W. Deem and Ramdas Pophale) SiO2 
 PCOD8185374
Probable space group: A B A 2
;
_chemical_formula_sum "Si O2"
_cell_formula_units_Z 48
_cell_length_a 16.397427
_cell_length_b 10.859375
_cell_length_c 11.518700
_cell_angle_alpha 90.000000
_cell_angle_beta 90.000000
_cell_angle_gamma 90.000000
_cell_volume 2051.086632
_symmetry_space_group_name_H-M "A B A 2"
_symmetry_group_IT_number 41
_symmetry_cell_setting 'orthorhombic'
loop_
_space_group_symop_operation_xyz
x,y,z
-x,-y,z
1/2-x,y,1/2+z
1/2+x,-y,1/2+z
x,1/2+y,1/2+z
-x,1/2-y,1/2+z
1/2-x,1/2+y,z
1/2+x,1/2-y,z
loop_
_atom_site_type_symbol
_atom_site_label
_atom_site_fract_x
_atom_site_fract_y
_atom_site_fract_z
Si Si1 0.639756 0.310771 0.419550
Si Si2 0.658796 0.051432 0.035925
Si Si3 0.581231 0.732875 0.692019
Si Si4 0.665882 0.947017 0.582279
Si Si5 0.678677 0.287545 0.877125
Si Si6 0.403067 0.307754 0.147804
O O1 0.611400 0.447022 0.461050
O O2 0.574859 0.245772 0.332238
O O3 0.726540 0.315251 0.354599
O O4 0.647924 0.229202 0.534411
O O5 0.604399 0.095921 0.146507
O O6 0.741321 0.993588 0.088045
O O7 0.672775 0.163620 0.950537
O O8 0.655221 0.823582 0.656995
O O9 0.497358 0.774178 0.632539
O O10 0.642753 0.905835 0.449105
O O11 0.607011 0.044812 0.647028
O O12 0.631857 0.267247 0.757062
#
# Coordination Sequence:
#
# PCOD8185374 Si02
#       6
#     8   8   8   8   8   8
#     4  11  25  42  71  99 136 189 232 287 357 418
#     4  10  22  45  71 100 134 182 246 286 343 429
#     4  11  26  43  70 101 146 183 233 297 365 417
#     4  10  22  44  71 100 133 189 239 288 348 427
#     4  10  23  43  71 101 136 184 242 289 345 429
#     4  12  25  45  69 106 145 180 236 296 362 425
#
# _framework density 23.402228000000001
#
# number of rings (size 3 to 8) (size 9 to 14) (size 15 to 20)
#    0.000    1.333    1.667    2.500    9.333    2.000 
#    0.000    0.000    0.000    0.000    0.000    0.000 
#    0.000    0.000    0.000    0.000    0.000    0.000 
#
# Total GULP energy -297456.878078 kJ/mol
# GULP energy per Si atom -12394.036587 kJ/mol
# Density = 2.334896 g / cm^3
# Si number density = 23.402228 Si / 1000 Ang^3
#
#
#
# Elastic Constant Matrix: (Units=GPa)
#
#
# Indices 1 2 3 4 5 6 
#
# 1 67.7704 12.2511 37.4764 0.0000 0.0000 0.0000
# 2 12.2511 89.3200 39.2265 0.0000 0.0000 0.0000
# 3 37.4764 39.2265 136.6521 0.0000 0.0000 0.0000
# 4 0.0000 0.0000 0.0000 45.6043 0.0000 0.0000
# 5 0.0000 0.0000 0.0000 0.0000 29.3377 0.0000
# 6 0.0000 0.0000 0.0000 0.0000 0.0000 23.3847
#
#
#
# Elastic Compliance Matrix: (Units=1/GPa)
#
#
# Indices 1 2 3 4 5 6 
#
# 1 0.017402 -0.000333 -0.004677 0.000000 0.000000 0.000000
# 2 -0.000333 0.012817 -0.003588 0.000000 0.000000 0.000000
# 3 -0.004677 -0.003588 0.009630 0.000000 0.000000 0.000000
# 4 0.000000 0.000000 0.000000 0.021928 0.000000 0.000000
# 5 0.000000 0.000000 0.000000 0.000000 0.034086 0.000000
# 6 0.000000 0.000000 0.000000 0.000000 0.000000 0.042763
#
#
# Mechanical properties :
#
#
# Convention : Reuss Voigt Hill
#
# Bulk Modulus (GPa) = 44.14196 52.40562 48.27379
# Shear Modulus (GPa) = 30.60481 33.31791 31.96136
#
# Velocity S-wave (km/s) = 3.62024 3.77730 3.69960
# Velocity P-wave (km/s) = 6.03142 6.43941 6.23875
#
# Compressibility (1/GPa) = 0.02265418
#
# Stress axis : x y z
#
# Youngs Moduli (GPa) = 57.46401 78.02114 103.83778
#
# Poissons Ratio (x) = 0.02597 0.48564
# Poissons Ratio (y) = 0.01913 0.37256
# Poissons Ratio (z) = 0.26876 0.27993
#
# Static dielectric constant tensor:
#      x y z
#    x 3.853180 0.000000 0.000000 
#    y 0.000000 4.591140 0.000000 
#    z 0.000000 0.000000 4.456060 
# 
# 
# High freq. dielectric constant tensor:
#      x y z
#    x 1.902370 0.000000 0.000000 
#    y 0.000000 1.933380 0.000000 
#    z 0.000000 0.000000 1.932840 
# 
# From -- ./inp_files/5932.got.cif
#   From: 2010.03.12/outbox.cif.g09.slc.cpg/sg41_3_cif.got.tgz:5932.got - 2010.04.14 01:55:53.
