data_PCOD8185327
_publ_section_title
;
Structure prediction by ZEFSAII (Michael W. Deem and Ramdas Pophale) SiO2 
 PCOD8185327
Probable space group: A B A 2
;
_chemical_formula_sum "Si O2"
_cell_formula_units_Z 64
_cell_length_a 30.008395
_cell_length_b 16.806692
_cell_length_c 5.638538
_cell_angle_alpha 90.000000
_cell_angle_beta 90.000000
_cell_angle_gamma 90.000000
_cell_volume 2843.750699
_symmetry_space_group_name_H-M "A B A 2"
_symmetry_group_IT_number 41
_symmetry_cell_setting 'orthorhombic'
loop_
_space_group_symop_operation_xyz
x,y,z
-x,-y,z
1/2-x,y,1/2+z
1/2+x,-y,1/2+z
x,1/2+y,1/2+z
-x,1/2-y,1/2+z
1/2-x,1/2+y,z
1/2+x,1/2-y,z
loop_
_atom_site_type_symbol
_atom_site_label
_atom_site_fract_x
_atom_site_fract_y
_atom_site_fract_z
Si Si1 0.007508 0.638003 0.775230
Si Si2 0.560428 0.209999 0.432271
Si Si3 0.941933 0.568747 0.101477
Si Si4 0.267384 0.494397 0.479390
Si Si5 0.580974 0.933846 0.443999
Si Si6 0.767799 0.323397 0.067768
Si Si7 0.128927 0.671788 0.099806
Si Si8 0.132881 0.010372 0.332981
O O1 0.963108 0.655008 0.626580
O O2 0.026243 0.720005 0.873455
O O3 0.045101 0.589457 0.639685
O O4 0.990824 0.580231 0.985361
O O5 0.571199 0.153123 0.214697
O O6 0.607652 0.246091 0.511902
O O7 0.945035 0.492341 0.270038
O O8 0.901797 0.554818 0.920147
O O9 0.257826 0.456282 0.744592
O O10 0.252907 0.585513 0.523965
O O11 0.318673 0.483166 0.411559
O O12 0.601459 0.853502 0.333942
O O13 0.623873 0.982114 0.550879
O O14 0.742374 0.285638 0.302086
O O15 0.819086 0.313019 0.140463
O O16 0.121889 0.599341 0.920344
#
# Coordination Sequence:
#
# PCOD8185327 Si02
#       8
#     8   8   8   8   8   8   8   8
#     4  12  25  44  65  93 127 175 227 276 338 391
#     4  12  24  44  65  90 129 174 226 274 327 408
#     4  11  27  44  65  93 129 175 221 279 335 403
#     4   9  19  33  62  97 136 172 215 277 342 415
#     4  11  25  44  66  95 135 168 226 280 338 405
#     4   9  19  34  61 100 138 171 220 279 343 411
#     4  10  23  39  66  99 130 176 217 279 339 398
#     4  10  22  41  64  98 132 169 219 274 344 398
#
# _framework density 22.505489000000001
#
# number of rings (size 3 to 8) (size 9 to 14) (size 15 to 20)
#    0.000    1.500    2.500    1.500   10.500    3.000 
#    0.000    0.000    0.000    1.500    0.000    0.000 
#    0.000    0.000    0.000    0.000    0.000    0.000 
#
# Total GULP energy -396485.761585 kJ/mol
# GULP energy per Si atom -12390.180050 kJ/mol
# Density = 2.245427 g / cm^3
# Si number density = 22.505489 Si / 1000 Ang^3
#
#
#
# Elastic Constant Matrix: (Units=GPa)
#
#
# Indices 1 2 3 4 5 6 
#
# 1 122.1830 46.9341 53.4183 0.0000 0.0000 0.0000
# 2 46.9341 48.7747 29.3832 0.0000 0.0000 0.0000
# 3 53.4183 29.3832 133.0899 0.0000 0.0000 0.0000
# 4 0.0000 0.0000 0.0000 28.1030 0.0000 0.0000
# 5 0.0000 0.0000 0.0000 0.0000 36.3591 0.0000
# 6 0.0000 0.0000 0.0000 0.0000 0.0000 12.4263
#
#
#
# Elastic Compliance Matrix: (Units=1/GPa)
#
#
# Indices 1 2 3 4 5 6 
#
# 1 0.013978 -0.011616 -0.003046 0.000000 0.000000 0.000000
# 2 -0.011616 0.033300 -0.002690 0.000000 0.000000 0.000000
# 3 -0.003046 -0.002690 0.009330 0.000000 0.000000 0.000000
# 4 0.000000 0.000000 0.000000 0.035583 0.000000 0.000000
# 5 0.000000 0.000000 0.000000 0.000000 0.027503 0.000000
# 6 0.000000 0.000000 0.000000 0.000000 0.000000 0.080474
#
#
# Mechanical properties :
#
#
# Convention : Reuss Voigt Hill
#
# Bulk Modulus (GPa) = 45.65027 62.61320 54.13173
# Shear Modulus (GPa) = 20.64636 26.99850 23.82243
#
# Velocity S-wave (km/s) = 3.03213 3.46734 3.25701
# Velocity P-wave (km/s) = 5.70846 6.62659 6.18458
#
# Compressibility (1/GPa) = 0.02190568
#
# Stress axis : x y z
#
# Youngs Moduli (GPa) = 71.54103 30.03003 107.18025
#
# Poissons Ratio (x) = 0.34882 0.32646
# Poissons Ratio (y) = 0.83099 0.28829
# Poissons Ratio (z) = 0.21791 0.08077
#
# Static dielectric constant tensor:
#      x y z
#    x 3.984350 0.000000 0.000000 
#    y 0.000000 3.718640 0.000000 
#    z 0.000000 0.000000 4.572130 
# 
# 
# High freq. dielectric constant tensor:
#      x y z
#    x 1.889000 0.000000 0.000000 
#    y 0.000000 1.848200 0.000000 
#    z 0.000000 0.000000 1.904740 
# 
# From -- ./inp_files/1404.got.cif
#   From: 2010.03.12/outbox.cif.g09.slc.cpg/sg41_1_cif.got.tgz:1404.got - 2010.04.14 01:55:53.
