data_PCOD8185329
_publ_section_title
;
Structure prediction by ZEFSAII (Michael W. Deem and Ramdas Pophale) SiO2 
 PCOD8185329
Probable space group: A B A 2
;
_chemical_formula_sum "Si O2"
_cell_formula_units_Z 56
_cell_length_a 11.794688
_cell_length_b 12.250939
_cell_length_c 15.151640
_cell_angle_alpha 90.000000
_cell_angle_beta 90.000000
_cell_angle_gamma 90.000000
_cell_volume 2189.351422
_symmetry_space_group_name_H-M "A B A 2"
_symmetry_group_IT_number 41
_symmetry_cell_setting 'orthorhombic'
loop_
_space_group_symop_operation_xyz
x,y,z
-x,-y,z
1/2-x,y,1/2+z
1/2+x,-y,1/2+z
x,1/2+y,1/2+z
-x,1/2-y,1/2+z
1/2-x,1/2+y,z
1/2+x,1/2-y,z
loop_
_atom_site_type_symbol
_atom_site_label
_atom_site_fract_x
_atom_site_fract_y
_atom_site_fract_z
Si Si1 0.101423 0.706386 0.922590
Si Si2 0.456177 0.658917 0.794205
Si Si3 0.954496 0.300096 0.565681
Si Si4 0.000000 0.500000 0.146200
Si Si5 0.796914 0.592911 0.062308
Si Si6 0.684276 0.431970 0.940386
Si Si7 0.500000 0.000000 0.842616
Si Si8 0.114329 0.862636 0.210384
O O1 0.064719 0.792081 0.846460
O O2 0.031036 0.596624 0.907646
O O3 0.232184 0.671651 0.925560
O O4 0.069101 0.759318 0.016588
O O5 0.505029 0.609001 0.704424
O O6 0.364310 0.752770 0.767865
O O7 0.390549 0.564121 0.850462
O O8 0.860297 0.206828 0.553480
O O9 0.901137 0.406250 0.520252
O O10 0.991914 0.336953 0.663165
O O11 0.113465 0.502072 0.087474
O O12 0.741720 0.548176 0.969270
O O13 0.708274 0.605169 0.140925
O O14 0.396759 0.963512 0.778450
#
# Coordination Sequence:
#
# PCOD8185329 Si02
#       8
#     8   8   8   4   8   8   4   8
#     4  10  22  43  65  97 138 184 228 291 355 429
#     4  10  26  44  68 101 146 184 238 300 361 429
#     4  11  23  44  67 101 138 182 236 295 357 437
#     4  12  26  45  69 110 142 186 238 308 351 430
#     4  12  26  42  73 100 141 185 237 296 364 430
#     4  11  25  42  73 102 138 188 241 293 363 439
#     4  10  22  41  67  94 140 178 246 288 357 428
#     4  11  24  44  69 103 137 189 233 303 362 425
#
# _framework density 25.578353
#
# number of rings (size 3 to 8) (size 9 to 14) (size 15 to 20)
#    0.000    1.143    1.429    3.429    6.000    3.429 
#    0.000    0.000    0.000    0.000    0.000    0.000 
#    0.000    0.000    0.000    0.000    0.000    0.000 
#
# Total GULP energy -347059.665699 kJ/mol
# GULP energy per Si atom -12394.988061 kJ/mol
# Density = 2.552014 g / cm^3
# Si number density = 25.578353 Si / 1000 Ang^3
#
#
#
# Elastic Constant Matrix: (Units=GPa)
#
#
# Indices 1 2 3 4 5 6 
#
# 1 68.9397 -5.6523 8.6136 0.0000 0.0000 0.0000
# 2 -5.6523 44.4767 -4.5774 0.0000 0.0000 0.0000
# 3 8.6136 -4.5774 70.8638 0.0000 0.0000 0.0000
# 4 0.0000 0.0000 0.0000 31.7284 0.0000 0.0000
# 5 0.0000 0.0000 0.0000 0.0000 24.6171 0.0000
# 6 0.0000 0.0000 0.0000 0.0000 0.0000 16.8304
#
#
#
# Elastic Compliance Matrix: (Units=1/GPa)
#
#
# Indices 1 2 3 4 5 6 
#
# 1 0.014858 0.001714 -0.001695 0.000000 0.000000 0.000000
# 2 0.001714 0.022832 0.001266 0.000000 0.000000 0.000000
# 3 -0.001695 0.001266 0.014399 0.000000 0.000000 0.000000
# 4 0.000000 0.000000 0.000000 0.031518 0.000000 0.000000
# 5 0.000000 0.000000 0.000000 0.000000 0.040622 0.000000
# 6 0.000000 0.000000 0.000000 0.000000 0.000000 0.059416
#
#
# Mechanical properties :
#
#
# Convention : Reuss Voigt Hill
#
# Bulk Modulus (GPa) = 18.29530 20.11647 19.20589
# Shear Modulus (GPa) = 25.08845 27.02825 26.05835
#
# Velocity S-wave (km/s) = 3.13525 3.25419 3.19527
# Velocity P-wave (km/s) = 4.50272 4.69057 4.59761
#
# Compressibility (1/GPa) = 0.05465884
#
# Stress axis : x y z
#
# Youngs Moduli (GPa) = 67.30491 43.79850 69.44711
#
# Poissons Ratio (x) = -0.07506 0.11773
# Poissons Ratio (y) = -0.11534 -0.08795
# Poissons Ratio (z) = 0.11410 -0.05547
#
# Static dielectric constant tensor:
#      x y z
#    x 4.652750 0.000000 0.000000 
#    y 0.000000 4.624970 0.000000 
#    z 0.000000 0.000000 4.676640 
# 
# 
# High freq. dielectric constant tensor:
#      x y z
#    x 2.008210 0.000000 0.000000 
#    y 0.000000 2.027490 0.000000 
#    z 0.000000 0.000000 2.031320 
# 
# From -- ./inp_files/7988.got.cif
#   From: 2010.03.12/outbox.cif.g09.slc.cpg/sg41_4_cif.got.tgz:7988.got - 2010.04.14 01:55:53.
