data_PCOD8185147
_publ_section_title
;
Structure prediction by ZEFSAII (Michael W. Deem and Ramdas Pophale) SiO2 
 PCOD8185147
Probable space group: A B A 2
;
_chemical_formula_sum "Si O2"
_cell_formula_units_Z 48
_cell_length_a 4.836795
_cell_length_b 24.709993
_cell_length_c 16.946552
_cell_angle_alpha 90.000000
_cell_angle_beta 90.000000
_cell_angle_gamma 90.000000
_cell_volume 2025.403946
_symmetry_space_group_name_H-M "A B A 2"
_symmetry_group_IT_number 41
_symmetry_cell_setting 'orthorhombic'
loop_
_space_group_symop_operation_xyz
x,y,z
-x,-y,z
1/2-x,y,1/2+z
1/2+x,-y,1/2+z
x,1/2+y,1/2+z
-x,1/2-y,1/2+z
1/2-x,1/2+y,z
1/2+x,1/2-y,z
loop_
_atom_site_type_symbol
_atom_site_label
_atom_site_fract_x
_atom_site_fract_y
_atom_site_fract_z
Si Si1 0.638738 0.398456 0.965780
Si Si2 0.614607 0.560785 0.376733
Si Si3 0.902840 0.603473 0.710844
Si Si4 0.899746 0.439398 0.125185
Si Si5 0.660248 0.783663 0.754385
Si Si6 0.777259 0.282843 0.940464
O O1 0.349517 0.427210 0.942787
O O2 0.629870 0.334234 0.982069
O O3 0.849060 0.402511 0.892795
O O4 0.771752 0.427763 0.040175
O O5 0.500000 0.500000 0.380179
O O6 0.728100 0.580127 0.291966
O O7 0.656259 0.600775 0.646056
O O8 0.155753 0.564620 0.688602
O O9 0.032076 0.663280 0.714467
O O10 0.000000 0.500000 0.127216
O O11 0.468397 0.732647 0.727551
O O12 0.694548 0.791919 0.847316
O O13 0.587254 0.231711 0.966887
#
# Coordination Sequence:
#
# PCOD8185147 Si02
#       6
#     8   8   8   8   8   8
#     4  12  25  45  68 103 139 186 236 293 355 419
#     4  12  25  42  71 103 134 176 246 303 339 411
#     4  12  25  46  70 104 139 187 236 290 355 416
#     4  12  27  47  70  98 147 194 229 283 364 429
#     4  10  21  39  68 103 138 178 229 291 353 410
#     4  10  21  39  67 101 137 179 230 292 356 411
#
# _framework density 23.698976999999999
#
# number of rings (size 3 to 8) (size 9 to 14) (size 15 to 20)
#    0.000    0.667    1.667    6.500    4.667    1.333 
#    0.000    5.000    0.000    0.000    0.000    0.000 
#    0.000    0.000    0.000    0.000    0.000    0.000 
#
# Total GULP energy -297435.199895 kJ/mol
# GULP energy per Si atom -12393.133329 kJ/mol
# Density = 2.364504 g / cm^3
# Si number density = 23.698977 Si / 1000 Ang^3
#
#
#
# Elastic Constant Matrix: (Units=GPa)
#
#
# Indices 1 2 3 4 5 6 
#
# 1 120.1450 39.6832 19.3720 0.0000 0.0000 0.0000
# 2 39.6832 99.1915 35.7113 0.0000 0.0000 0.0000
# 3 19.3720 35.7113 54.3018 0.0000 0.0000 0.0000
# 4 0.0000 0.0000 0.0000 25.0071 0.0000 0.0000
# 5 0.0000 0.0000 0.0000 0.0000 30.7319 0.0000
# 6 0.0000 0.0000 0.0000 0.0000 0.0000 45.9831
#
#
#
# Elastic Compliance Matrix: (Units=1/GPa)
#
#
# Indices 1 2 3 4 5 6 
#
# 1 0.009648 -0.003434 -0.001184 0.000000 0.000000 0.000000
# 2 -0.003434 0.014431 -0.008265 0.000000 0.000000 0.000000
# 3 -0.001184 -0.008265 0.024274 0.000000 0.000000 0.000000
# 4 0.000000 0.000000 0.000000 0.039989 0.000000 0.000000
# 5 0.000000 0.000000 0.000000 0.000000 0.032539 0.000000
# 6 0.000000 0.000000 0.000000 0.000000 0.000000 0.021747
#
#
# Mechanical properties :
#
#
# Convention : Reuss Voigt Hill
#
# Bulk Modulus (GPa) = 44.27352 51.46346 47.86849
# Shear Modulus (GPa) = 28.42147 32.26920 30.34534
#
# Velocity S-wave (km/s) = 3.46680 3.69403 3.58222
# Velocity P-wave (km/s) = 5.89467 6.32116 6.11164
#
# Compressibility (1/GPa) = 0.02258686
#
# Stress axis : x y z
#
# Youngs Moduli (GPa) = 103.64512 69.29515 41.19693
#
# Poissons Ratio (x) = 0.23794 0.04877
# Poissons Ratio (y) = 0.35589 0.34051
# Poissons Ratio (z) = 0.12269 0.57276
#
# Static dielectric constant tensor:
#      x y z
#    x 4.702660 0.000000 0.000000 
#    y 0.000000 4.439010 0.000000 
#    z 0.000000 0.000000 4.119880 
# 
# 
# High freq. dielectric constant tensor:
#      x y z
#    x 1.960400 0.000000 0.000000 
#    y 0.000000 1.946850 0.000000 
#    z 0.000000 0.000000 1.913520 
# 
# From -- ./inp_files/9434.got.cif
#   From: 2010.03.12/outbox.cif.g09.slc.cpg/sg41_5_cif.got.tgz:9434.got - 2010.04.14 01:55:53.
