data_PCOD8185009
_publ_section_title
;
Structure prediction by ZEFSAII (Michael W. Deem and Ramdas Pophale) SiO2 
 PCOD8185009
Probable space group: A B A 2
;
_chemical_formula_sum "Si O2"
_cell_formula_units_Z 64
_cell_length_a 30.187644
_cell_length_b 12.884211
_cell_length_c 7.730583
_cell_angle_alpha 90.000000
_cell_angle_beta 90.000000
_cell_angle_gamma 90.000000
_cell_volume 3006.763680
_symmetry_space_group_name_H-M "A B A 2"
_symmetry_group_IT_number 41
_symmetry_cell_setting 'orthorhombic'
loop_
_space_group_symop_operation_xyz
x,y,z
-x,-y,z
1/2-x,y,1/2+z
1/2+x,-y,1/2+z
x,1/2+y,1/2+z
-x,1/2-y,1/2+z
1/2-x,1/2+y,z
1/2+x,1/2-y,z
loop_
_atom_site_type_symbol
_atom_site_label
_atom_site_fract_x
_atom_site_fract_y
_atom_site_fract_z
Si Si1 0.461210 0.941813 0.580950
Si Si2 0.570415 0.765334 0.020099
Si Si3 0.099980 0.771968 0.407078
Si Si4 0.106018 0.608806 0.700248
Si Si5 0.234562 0.698616 0.080442
Si Si6 0.703082 0.436046 0.286431
Si Si7 0.013206 0.387463 0.940196
Si Si8 0.802111 0.169002 0.377067
O O1 0.434968 0.857057 0.466753
O O2 0.490684 0.884848 0.730676
O O3 0.500000 0.000000 0.469206
O O4 0.426790 0.011602 0.689464
O O5 0.598886 0.825367 0.876274
O O6 0.520744 0.808460 0.027891
O O7 0.592280 0.768387 0.210676
O O8 0.098733 0.671418 0.525742
O O9 0.063419 0.851899 0.481479
O O10 0.146540 0.830815 0.430026
O O11 0.155454 0.564115 0.696433
O O12 0.258329 0.595932 0.154353
O O13 0.202267 0.758941 0.208690
O O14 0.203215 0.654307 0.931088
O O15 0.271773 0.781433 0.025123
O O16 0.714034 0.551312 0.351953
O O17 0.000000 0.500000 0.015891
#
# Coordination Sequence:
#
# PCOD8185009 Si02
#       8
#     8   8   8   8   8   8   8   8
#     4  10  20  41  64  92 129 172 219 278 332 392
#     4  11  23  41  65  90 130 181 218 278 340 390
#     4  11  25  42  64 101 133 174 230 285 326 412
#     4  12  23  44  66  96 135 174 224 277 338 396
#     4  10  23  42  67 102 127 175 223 264 347 403
#     4  11  22  40  70  93 131 178 210 276 335 393
#     4  10  20  40  65  90 129 178 220 274 337 387
#     4  11  22  44  67  98 139 168 222 280 335 405
#
# _framework density 21.285345
#
# number of rings (size 3 to 8) (size 9 to 14) (size 15 to 20)
#    0.000    1.250    3.750    3.750    1.750    0.000 
#    2.250    0.000    0.000    0.000    0.000    0.000 
#    0.000    0.000    0.000    0.000    0.000    0.000 
#
# Total GULP energy -396655.085113 kJ/mol
# GULP energy per Si atom -12395.471410 kJ/mol
# Density = 2.123690 g / cm^3
# Si number density = 21.285345 Si / 1000 Ang^3
#
#
#
# Elastic Constant Matrix: (Units=GPa)
#
#
# Indices 1 2 3 4 5 6 
#
# 1 101.7786 31.1502 7.6234 0.0000 0.0000 0.0000
# 2 31.1502 121.4225 24.1345 0.0000 0.0000 0.0000
# 3 7.6234 24.1345 56.4705 0.0000 0.0000 0.0000
# 4 0.0000 0.0000 0.0000 23.7563 0.0000 0.0000
# 5 0.0000 0.0000 0.0000 0.0000 11.6176 0.0000
# 6 0.0000 0.0000 0.0000 0.0000 0.0000 20.3960
#
#
#
# Elastic Compliance Matrix: (Units=1/GPa)
#
#
# Indices 1 2 3 4 5 6 
#
# 1 0.010667 -0.002678 -0.000296 0.000000 0.000000 0.000000
# 2 -0.002678 0.009672 -0.003772 0.000000 0.000000 0.000000
# 3 -0.000296 -0.003772 0.019361 0.000000 0.000000 0.000000
# 4 0.000000 0.000000 0.000000 0.042094 0.000000 0.000000
# 5 0.000000 0.000000 0.000000 0.000000 0.086076 0.000000
# 6 0.000000 0.000000 0.000000 0.000000 0.000000 0.049029
#
#
# Mechanical properties :
#
#
# Convention : Reuss Voigt Hill
#
# Bulk Modulus (GPa) = 38.15555 45.05419 41.60487
# Shear Modulus (GPa) = 20.90937 25.60488 23.25713
#
# Velocity S-wave (km/s) = 3.13763 3.47210 3.30909
# Velocity P-wave (km/s) = 5.57592 6.10628 5.84712
#
# Compressibility (1/GPa) = 0.02620851
#
# Stress axis : x y z
#
# Youngs Moduli (GPa) = 93.74751 103.38606 51.65151
#
# Poissons Ratio (x) = 0.27685 0.01527
# Poissons Ratio (y) = 0.25104 0.19485
# Poissons Ratio (z) = 0.02771 0.39001
#
# Static dielectric constant tensor:
#      x y z
#    x 3.886180 0.000000 0.000000 
#    y 0.000000 4.003350 0.000000 
#    z 0.000000 0.000000 3.609970 
# 
# 
# High freq. dielectric constant tensor:
#      x y z
#    x 1.845420 0.000000 0.000000 
#    y 0.000000 1.845480 0.000000 
#    z 0.000000 0.000000 1.812590 
# 
# From -- ./inp_files/3975.got.cif
#   From: 2010.03.12/outbox.cif.g09.slc.cpg/sg41_2_cif.got.tgz:3975.got - 2010.04.14 01:55:53.
