data_PCOD8185183
_publ_section_title
;
Structure prediction by ZEFSAII (Michael W. Deem and Ramdas Pophale) SiO2 
 PCOD8185183
Probable space group: A B A 2
;
_chemical_formula_sum "Si O2"
_cell_formula_units_Z 64
_cell_length_a 18.820477
_cell_length_b 13.268425
_cell_length_c 12.489412
_cell_angle_alpha 90.000000
_cell_angle_beta 90.000000
_cell_angle_gamma 90.000000
_cell_volume 3118.832079
_symmetry_space_group_name_H-M "A B A 2"
_symmetry_group_IT_number 41
_symmetry_cell_setting 'orthorhombic'
loop_
_space_group_symop_operation_xyz
x,y,z
-x,-y,z
1/2-x,y,1/2+z
1/2+x,-y,1/2+z
x,1/2+y,1/2+z
-x,1/2-y,1/2+z
1/2-x,1/2+y,z
1/2+x,1/2-y,z
loop_
_atom_site_type_symbol
_atom_site_label
_atom_site_fract_x
_atom_site_fract_y
_atom_site_fract_z
Si Si1 0.203340 0.469306 0.632010
Si Si2 0.683935 0.205229 0.466618
Si Si3 0.814869 0.311483 0.542639
Si Si4 0.439167 0.915378 0.738634
Si Si5 0.946285 0.770964 0.594045
Si Si6 0.666685 0.147950 0.222343
Si Si7 0.988445 0.110990 0.766266
Si Si8 0.448593 0.758095 0.921678
O O1 0.192779 0.397478 0.531225
O O2 0.207772 0.579447 0.582883
O O3 0.136412 0.466219 0.712719
O O4 0.275368 0.439049 0.696197
O O5 0.754513 0.270692 0.464608
O O6 0.625421 0.274276 0.525992
O O7 0.667280 0.180160 0.345275
O O8 0.820142 0.243953 0.648440
O O9 0.883595 0.309012 0.466075
O O10 0.461812 0.840356 0.642965
O O11 0.425714 0.850562 0.846079
O O12 0.500000 0.000000 0.754027
O O13 0.946354 0.853758 0.688978
O O14 0.012109 0.805803 0.522360
O O15 0.586231 0.111719 0.202991
O O16 0.992426 0.185190 0.867732
O O17 0.000000 0.000000 0.810778
#
# Coordination Sequence:
#
# PCOD8185183 Si02
#       8
#     8   8   8   8   8   8   8   8
#     4  10  24  41  65  92 125 171 211 260 319 385
#     4  10  23  42  64  93 128 166 212 266 315 388
#     4  11  24  42  67  92 131 169 209 266 319 385
#     4  10  22  39  64  90 125 162 211 262 315 385
#     4  10  21  41  61  91 125 162 213 260 321 373
#     4  11  23  44  62  95 131 163 216 266 317 380
#     4  11  25  39  65  93 129 169 212 271 318 383
#     4  11  22  40  64  94 123 167 212 260 320 379
#
# _framework density 20.520500999999999
#
# number of rings (size 3 to 8) (size 9 to 14) (size 15 to 20)
#    0.000    1.500    2.500    1.500    5.250    3.000 
#    0.000    0.000    0.000    0.000    0.000    0.000 
#    0.000    0.000    0.000    0.000    0.000    0.000 
#
# Total GULP energy -396699.682529 kJ/mol
# GULP energy per Si atom -12396.865079 kJ/mol
# Density = 2.047380 g / cm^3
# Si number density = 20.520501 Si / 1000 Ang^3
#
#
#
# Elastic Constant Matrix: (Units=GPa)
#
#
# Indices 1 2 3 4 5 6 
#
# 1 105.5432 28.5062 22.2230 0.0000 0.0000 0.0000
# 2 28.5062 95.0444 14.3956 0.0000 0.0000 0.0000
# 3 22.2230 14.3956 84.7731 0.0000 0.0000 0.0000
# 4 0.0000 0.0000 0.0000 17.9260 0.0000 0.0000
# 5 0.0000 0.0000 0.0000 0.0000 33.1550 0.0000
# 6 0.0000 0.0000 0.0000 0.0000 0.0000 29.4147
#
#
#
# Elastic Compliance Matrix: (Units=1/GPa)
#
#
# Indices 1 2 3 4 5 6 
#
# 1 0.010740 -0.002868 -0.002328 0.000000 0.000000 0.000000
# 2 -0.002868 0.011565 -0.001212 0.000000 0.000000 0.000000
# 3 -0.002328 -0.001212 0.012612 0.000000 0.000000 0.000000
# 4 0.000000 0.000000 0.000000 0.055785 0.000000 0.000000
# 5 0.000000 0.000000 0.000000 0.000000 0.030161 0.000000
# 6 0.000000 0.000000 0.000000 0.000000 0.000000 0.033997
#
#
# Mechanical properties :
#
#
# Convention : Reuss Voigt Hill
#
# Bulk Modulus (GPa) = 45.24901 46.17893 45.71397
# Shear Modulus (GPa) = 28.56415 30.78153 29.67284
#
# Velocity S-wave (km/s) = 3.73497 3.87723 3.80677
# Velocity P-wave (km/s) = 6.37954 6.52661 6.45349
#
# Compressibility (1/GPa) = 0.02209993
#
# Stress axis : x y z
#
# Youngs Moduli (GPa) = 93.11171 86.46558 79.28734
#
# Poissons Ratio (x) = 0.24803 0.18460
# Poissons Ratio (y) = 0.26709 0.09609
# Poissons Ratio (z) = 0.21679 0.10479
#
# Static dielectric constant tensor:
#      x y z
#    x 3.966200 0.000000 0.000000 
#    y 0.000000 3.516870 0.000000 
#    z 0.000000 0.000000 3.739040 
# 
# 
# High freq. dielectric constant tensor:
#      x y z
#    x 1.812770 0.000000 0.000000 
#    y 0.000000 1.789440 0.000000 
#    z 0.000000 0.000000 1.812990 
# 
# From -- ./inp_files/6028.got.cif
#   From: 2010.03.12/outbox.cif.g09.slc.cpg/sg41_4_cif.got.tgz:6028.got - 2010.04.14 01:55:53.
