data_PCOD8185688
_publ_section_title
;
Structure prediction by ZEFSAII (Michael W. Deem and Ramdas Pophale) SiO2 
 PCOD8185688
Probable space group: A B A 2
;
_chemical_formula_sum "Si O2"
_cell_formula_units_Z 40
_cell_length_a 9.077676
_cell_length_b 14.416984
_cell_length_c 13.361693
_cell_angle_alpha 90.000000
_cell_angle_beta 90.000000
_cell_angle_gamma 90.000000
_cell_volume 1748.680968
_symmetry_space_group_name_H-M "A B A 2"
_symmetry_group_IT_number 41
_symmetry_cell_setting 'orthorhombic'
loop_
_space_group_symop_operation_xyz
x,y,z
-x,-y,z
1/2-x,y,1/2+z
1/2+x,-y,1/2+z
x,1/2+y,1/2+z
-x,1/2-y,1/2+z
1/2-x,1/2+y,z
1/2+x,1/2-y,z
loop_
_atom_site_type_symbol
_atom_site_label
_atom_site_fract_x
_atom_site_fract_y
_atom_site_fract_z
Si Si1 0.651490 0.620573 0.855230
Si Si2 0.490687 0.809670 0.855231
Si Si3 0.596670 0.833477 0.069607
Si Si4 0.596662 0.333472 0.140858
Si Si5 0.500000 0.000000 0.513599
Si Si6 0.500000 0.500000 0.696859
O O1 0.522578 0.698916 0.855242
O O2 0.814701 0.666933 0.855224
O O3 0.625101 0.554493 0.759853
O O4 0.625113 0.554480 0.950601
O O5 0.571527 0.853182 0.758623
O O6 0.571494 0.853186 0.951848
O O7 0.500013 0.750009 0.105261
O O8 0.750012 0.791855 0.105212
O O9 0.583124 0.929280 0.126726
O O10 0.583086 0.429269 0.083737
#
# Coordination Sequence:
#
# PCOD8185688 Si02
#       6
#     8   8   8   8   4   4
#     4  11  26  49  80 111 156 201 259 312 387 468
#     4  12  26  48  83 109 151 209 256 309 391 464
#     4  12  28  48  79 110 156 202 259 319 386 453
#     4  12  28  48  79 110 156 202 259 319 386 453
#     4  11  28  47  74 114 160 195 254 323 378 456
#     4  11  28  47  74 114 160 195 254 323 378 456
#
# _framework density 22.874383000000002
#
# number of rings (size 3 to 8) (size 9 to 14) (size 15 to 20)
#    0.000    0.400    4.000    2.400    5.600    2.400 
#    0.000    0.000    0.000    0.000    0.000    0.000 
#    0.000    0.000    0.000    0.000    0.000    0.000 
#
# Total GULP energy -247864.104945 kJ/mol
# GULP energy per Si atom -12393.205247 kJ/mol
# Density = 2.282232 g / cm^3
# Si number density = 22.874383 Si / 1000 Ang^3
#
#
#
# Elastic Constant Matrix: (Units=GPa)
#
#
# Indices 1 2 3 4 5 6 
#
# 1 192.8921 73.4654 76.7710 0.0000 0.0000 0.0000
# 2 73.4654 160.8403 77.1336 0.0000 0.0000 0.0000
# 3 76.7710 77.1336 210.5466 0.0000 0.0000 0.0000
# 4 0.0000 0.0000 0.0000 62.7428 0.0000 0.0000
# 5 0.0000 0.0000 0.0000 0.0000 23.8836 0.0000
# 6 0.0000 0.0000 0.0000 0.0000 0.0000 32.5430
#
#
#
# Elastic Compliance Matrix: (Units=1/GPa)
#
#
# Indices 1 2 3 4 5 6 
#
# 1 0.006694 -0.002289 -0.001602 0.000000 0.000000 0.000000
# 2 -0.002289 0.008325 -0.002215 0.000000 0.000000 0.000000
# 3 -0.001602 -0.002215 0.006145 0.000000 0.000000 0.000000
# 4 0.000000 0.000000 0.000000 0.015938 0.000000 0.000000
# 5 0.000000 0.000000 0.000000 0.000000 0.041870 0.000000
# 6 0.000000 0.000000 0.000000 0.000000 0.000000 0.030729
#
#
# Mechanical properties :
#
#
# Convention : Reuss Voigt Hill
#
# Bulk Modulus (GPa) = 111.71569 113.22434 112.47002
# Shear Modulus (GPa) = 40.03281 46.29447 43.16364
#
# Velocity S-wave (km/s) = 4.18798 4.50361 4.34866
# Velocity P-wave (km/s) = 8.50472 8.75495 8.63074
#
# Compressibility (1/GPa) = 0.00895129
#
# Stress axis : x y z
#
# Youngs Moduli (GPa) = 149.39383 120.11574 162.72642
#
# Poissons Ratio (x) = 0.27496 0.26070
# Poissons Ratio (y) = 0.34198 0.36049
# Poissons Ratio (z) = 0.23934 0.26609
#
# Static dielectric constant tensor:
#      x y z
#    x 4.015530 0.000000 0.000000 
#    y 0.000000 4.328400 0.000000 
#    z 0.000000 0.000000 8.396290 
# 
# 
# High freq. dielectric constant tensor:
#      x y z
#    x 1.902710 0.000000 0.000000 
#    y 0.000000 1.917990 0.000000 
#    z 0.000000 0.000000 1.924930 
# 
# From -- ./inp_files/7205.got.cif
#   From: 2010.03.12/outbox.cif.g09.slc.cpg/sg41_4_cif.got.tgz:7205.got - 2010.04.14 01:55:53.
