data_PCOD8185842
_publ_section_title
;
Structure prediction by ZEFSAII (Michael W. Deem and Ramdas Pophale) SiO2 
 PCOD8185842
Probable space group: F M M 2
;
_chemical_formula_sum "Si O2"
_cell_formula_units_Z 128
_cell_length_a 18.852837
_cell_length_b 18.868576
_cell_length_c 20.220355
_cell_angle_alpha 90.000000
_cell_angle_beta 90.000000
_cell_angle_gamma 90.000000
_cell_volume 7192.909799
_symmetry_space_group_name_H-M "F M M 2"
_symmetry_group_IT_number 42
_symmetry_cell_setting 'orthorhombic'
loop_
_space_group_symop_operation_xyz
x,y,z
-x,-y,z
-x,y,z
x,-y,z
x,1/2+y,1/2+z
-x,1/2-y,1/2+z
-x,1/2+y,1/2+z
x,1/2-y,1/2+z
1/2+x,y,1/2+z
1/2-x,-y,1/2+z
1/2-x,y,1/2+z
1/2+x,-y,1/2+z
1/2+x,1/2+y,z
1/2-x,1/2-y,z
1/2-x,1/2+y,z
1/2+x,1/2-y,z
loop_
_atom_site_type_symbol
_atom_site_label
_atom_site_fract_x
_atom_site_fract_y
_atom_site_fract_z
Si Si1 0.184582 0.080705 0.345640
Si Si2 0.082494 0.794749 0.356696
Si Si3 0.921549 0.808590 0.974256
Si Si4 0.760464 0.368560 0.080822
Si Si5 0.298667 0.580239 0.951549
Si Si6 0.357000 0.752232 0.596830
Si Si7 0.832192 0.774913 0.740270
Si Si8 0.775246 0.578836 0.222091
O O1 0.115204 0.126886 0.360385
O O2 0.251350 0.106671 0.389853
O O3 0.206479 0.089481 0.268944
O O4 0.164939 0.000000 0.363517
O O5 0.094552 0.757614 0.426831
O O6 0.124704 0.748775 0.303377
O O7 0.000000 0.800194 0.337327
O O8 0.867624 0.871548 0.958910
O O9 0.000000 0.839161 0.961342
O O10 0.920510 0.778306 0.049561
O O11 0.705823 0.304776 0.078764
O O12 0.836997 0.329616 0.079853
O O13 0.749600 0.415600 0.146374
O O14 0.750358 0.417596 0.016985
O O15 0.324489 0.500000 0.939895
O O16 0.372284 0.756461 0.675500
O O17 0.750000 0.750000 0.740707
O O18 0.833350 0.860854 0.738339
O O19 0.807675 0.500000 0.234356
#
# Coordination Sequence:
#
# PCOD8185842 Si02
#       8
#    16  16  16  16  16  16  16  16
#     4  10  20  34  53  79 105 135 173 218 268 321
#     4  11  23  37  54  79 107 141 177 216 270 326
#     4  10  22  35  50  75 108 144 182 220 265 316
#     4   9  15  28  47  74 100 129 165 218 265 303
#     4  10  20  32  51  76 103 138 182 221 263 313
#     4   9  16  30  51  74 100 134 176 216 264 308
#     4  11  18  34  56  81 106 139 180 223 261 309
#     4  10  18  29  50  79 109 134 170 222 266 303
#
# _framework density 17.795302
#
# number of rings (size 3 to 8) (size 9 to 14) (size 15 to 20)
#    0.000    2.000    3.750    1.875    0.000    2.000 
#    0.000    0.000    0.000    1.125    0.000    3.500 
#    0.000    0.000    0.000    0.250    0.000    0.000 
#
# Total GULP energy -396624.042072 kJ/mol
# GULP energy per Si atom -12394.501315 kJ/mol
# Density = 1.775480 g / cm^3
# Si number density = 17.795302 Si / 1000 Ang^3
#
#
#
# Elastic Constant Matrix: (Units=GPa)
#
#
# Indices 1 2 3 4 5 6 
#
# 1 75.5896 42.1458 40.3554 0.0000 0.0000 0.0000
# 2 42.1458 95.2582 32.8778 0.0000 0.0000 0.0000
# 3 40.3554 32.8778 97.7121 0.0000 0.0000 0.0000
# 4 0.0000 0.0000 0.0000 24.3582 0.0000 0.0000
# 5 0.0000 0.0000 0.0000 0.0000 20.2899 0.0000
# 6 0.0000 0.0000 0.0000 0.0000 0.0000 20.8315
#
#
#
# Elastic Compliance Matrix: (Units=1/GPa)
#
#
# Indices 1 2 3 4 5 6 
#
# 1 0.020313 -0.006892 -0.006070 0.000000 0.000000 0.000000
# 2 -0.006892 0.014216 -0.001937 0.000000 0.000000 0.000000
# 3 -0.006070 -0.001937 0.013393 0.000000 0.000000 0.000000
# 4 0.000000 0.000000 0.000000 0.041054 0.000000 0.000000
# 5 0.000000 0.000000 0.000000 0.000000 0.049286 0.000000
# 6 0.000000 0.000000 0.000000 0.000000 0.000000 0.048004
#
#
# Mechanical properties :
#
#
# Convention : Reuss Voigt Hill
#
# Bulk Modulus (GPa) = 55.17816 55.47978 55.32897
# Shear Modulus (GPa) = 22.51198 23.30800 22.90999
#
# Velocity S-wave (km/s) = 3.56061 3.62302 3.59195
# Velocity P-wave (km/s) = 6.92665 6.98184 6.95430
#
# Compressibility (1/GPa) = 0.01812311
#
# Stress axis : x y z
#
# Youngs Moduli (GPa) = 49.22992 70.34553 74.66673
#
# Poissons Ratio (x) = 0.48483 0.45325
# Poissons Ratio (y) = 0.33930 0.14461
# Poissons Ratio (z) = 0.29884 0.13624
#
# Static dielectric constant tensor:
#      x y z
#    x 3.113090 0.000000 0.000000 
#    y 0.000000 3.423140 0.000000 
#    z 0.000000 0.000000 3.558480 
# 
# 
# High freq. dielectric constant tensor:
#      x y z
#    x 1.642190 0.000000 0.000000 
#    y 0.000000 1.693390 0.000000 
#    z 0.000000 0.000000 1.708030 
# 
# From -- ./inp_files/29984.got.cif
#   From: 2010.03.12/outbox.cif.g09.slc.cpg/sg42_15_cif.got.tgz:29984.got - 2010.04.14 02:04:31.
