data_PCOD8185850
_publ_section_title
;
Structure prediction by ZEFSAII (Michael W. Deem and Ramdas Pophale) SiO2 
 PCOD8185850
Probable space group: F M M 2
;
_chemical_formula_sum "Si O2"
_cell_formula_units_Z 128
_cell_length_a 18.300368
_cell_length_b 16.054457
_cell_length_c 23.175872
_cell_angle_alpha 90.000000
_cell_angle_beta 90.000000
_cell_angle_gamma 90.000000
_cell_volume 6809.128464
_symmetry_space_group_name_H-M "F M M 2"
_symmetry_group_IT_number 42
_symmetry_cell_setting 'orthorhombic'
loop_
_space_group_symop_operation_xyz
x,y,z
-x,-y,z
-x,y,z
x,-y,z
x,1/2+y,1/2+z
-x,1/2-y,1/2+z
-x,1/2+y,1/2+z
x,1/2-y,1/2+z
1/2+x,y,1/2+z
1/2-x,-y,1/2+z
1/2-x,y,1/2+z
1/2+x,-y,1/2+z
1/2+x,1/2+y,z
1/2-x,1/2-y,z
1/2-x,1/2+y,z
1/2+x,1/2-y,z
loop_
_atom_site_type_symbol
_atom_site_label
_atom_site_fract_x
_atom_site_fract_y
_atom_site_fract_z
Si Si1 0.700812 0.094557 0.258530
Si Si2 0.083957 0.906240 0.357060
Si Si3 0.673836 0.204500 0.162979
Si Si4 0.854531 0.152310 0.242550
Si Si5 0.586710 0.753423 0.931473
Si Si6 0.082440 0.090165 0.132477
Si Si7 0.914360 0.252905 0.561115
Si Si8 0.414864 0.404130 0.856121
O O1 0.681537 0.113709 0.191555
O O2 0.774244 0.146989 0.272065
O O3 0.633944 0.116917 0.300454
O O4 0.723184 0.000000 0.265122
O O5 0.088225 0.870798 0.292131
O O6 0.119497 0.835179 0.398740
O O7 0.000000 0.915579 0.373460
O O8 0.119876 0.000000 0.363326
O O9 0.750000 0.250000 0.147516
O O10 0.632649 0.256861 0.214016
O O11 0.626656 0.190891 0.105172
O O12 0.865191 0.090159 0.188348
O O13 0.500000 0.758330 0.931236
O O14 0.609399 0.664264 0.903749
O O15 0.617008 0.756577 0.996732
O O16 0.105807 0.154741 0.083211
O O17 0.000000 0.109987 0.153491
O O18 0.087792 0.000000 0.102897
O O19 0.000000 0.233399 0.562949
O O20 0.500000 0.392904 0.839351
O O21 0.401209 0.500000 0.877650
#
# Coordination Sequence:
#
# PCOD8185850 Si02
#       8
#    16  16  16  16  16  16  16  16
#     4  10  19  31  48  70  95 121 151 188 229 275
#     4  10  19  30  47  71  97 125 155 187 227 276
#     4   9  19  33  48  68  94 123 152 186 232 278
#     4  10  18  30  48  70  97 124 149 183 231 282
#     4   9  18  33  50  68  93 124 157 194 233 270
#     4   9  16  26  44  72  99 119 145 185 231 278
#     4   9  18  32  49  67  89 121 159 193 225 268
#     4   9  18  32  50  71  94 121 154 192 233 276
#
# _framework density 18.798293999999999
#
# number of rings (size 3 to 8) (size 9 to 14) (size 15 to 20)
#    0.000    2.625    0.000    2.250    0.000    2.500 
#    0.000    4.375    0.000    0.750    0.000    0.000 
#    0.000    0.000    0.000    0.000    0.000    0.000 
#
# Total GULP energy -396432.639673 kJ/mol
# GULP energy per Si atom -12388.519990 kJ/mol
# Density = 1.875551 g / cm^3
# Si number density = 18.798294 Si / 1000 Ang^3
#
#
#
# Elastic Constant Matrix: (Units=GPa)
#
#
# Indices 1 2 3 4 5 6 
#
# 1 37.7288 14.0518 27.1143 0.0000 0.0000 0.0000
# 2 14.0518 67.4433 48.0146 0.0000 0.0000 0.0000
# 3 27.1143 48.0146 131.2671 0.0000 0.0000 0.0000
# 4 0.0000 0.0000 0.0000 19.5691 0.0000 0.0000
# 5 0.0000 0.0000 0.0000 0.0000 15.6201 0.0000
# 6 0.0000 0.0000 0.0000 0.0000 0.0000 17.6860
#
#
#
# Elastic Compliance Matrix: (Units=1/GPa)
#
#
# Indices 1 2 3 4 5 6 
#
# 1 0.031461 -0.002607 -0.005545 0.000000 0.000000 0.000000
# 2 -0.002607 0.020264 -0.006874 0.000000 0.000000 0.000000
# 3 -0.005545 -0.006874 0.011278 0.000000 0.000000 0.000000
# 4 0.000000 0.000000 0.000000 0.051101 0.000000 0.000000
# 5 0.000000 0.000000 0.000000 0.000000 0.064020 0.000000
# 6 0.000000 0.000000 0.000000 0.000000 0.000000 0.056542
#
#
# Mechanical properties :
#
#
# Convention : Reuss Voigt Hill
#
# Bulk Modulus (GPa) = 30.34811 46.08898 38.21855
# Shear Modulus (GPa) = 18.13564 20.39228 19.26396
#
# Velocity S-wave (km/s) = 3.10941 3.29719 3.20468
# Velocity P-wave (km/s) = 5.39169 6.25030 5.83680
#
# Compressibility (1/GPa) = 0.03295098
#
# Stress axis : x y z
#
# Youngs Moduli (GPa) = 31.78552 49.34871 88.67167
#
# Poissons Ratio (x) = 0.12867 0.49166
# Poissons Ratio (y) = 0.08288 0.60949
# Poissons Ratio (z) = 0.17624 0.33920
#
# Static dielectric constant tensor:
#      x y z
#    x 3.302370 0.000000 0.000000 
#    y 0.000000 3.665580 0.000000 
#    z 0.000000 0.000000 3.443700 
# 
# 
# High freq. dielectric constant tensor:
#      x y z
#    x 1.708220 0.000000 0.000000 
#    y 0.000000 1.729530 0.000000 
#    z 0.000000 0.000000 1.712280 
# 
# From -- ./inp_files/30004.got.cif
#   From: 2010.03.12/outbox.cif.g09.slc.cpg/sg42_16_cif.got.tgz:30004.got - 2010.04.14 02:04:31.
