data_PCOD8185969
_publ_section_title
;
Structure prediction by ZEFSAII (Michael W. Deem and Ramdas Pophale) SiO2 
 PCOD8185969
Probable space group: F M M 2
;
_chemical_formula_sum "Si O2"
_cell_formula_units_Z 96
_cell_length_a 8.808131
_cell_length_b 25.974733
_cell_length_c 23.675200
_cell_angle_alpha 90.000000
_cell_angle_beta 90.000000
_cell_angle_gamma 90.000000
_cell_volume 5416.621804
_symmetry_space_group_name_H-M "F M M 2"
_symmetry_group_IT_number 42
_symmetry_cell_setting 'orthorhombic'
loop_
_space_group_symop_operation_xyz
x,y,z
-x,-y,z
-x,y,z
x,-y,z
x,1/2+y,1/2+z
-x,1/2-y,1/2+z
-x,1/2+y,1/2+z
x,1/2-y,1/2+z
1/2+x,y,1/2+z
1/2-x,-y,1/2+z
1/2-x,y,1/2+z
1/2+x,-y,1/2+z
1/2+x,1/2+y,z
1/2-x,1/2-y,z
1/2-x,1/2+y,z
1/2+x,1/2-y,z
loop_
_atom_site_type_symbol
_atom_site_label
_atom_site_fract_x
_atom_site_fract_y
_atom_site_fract_z
Si Si1 0.678959 0.106057 0.820160
Si Si2 0.325093 0.379654 0.139327
Si Si3 0.178194 0.941001 0.923023
Si Si4 0.165720 0.442583 0.226316
Si Si5 0.177954 0.304858 0.734298
Si Si6 0.676630 0.441198 0.542054
O O1 0.500000 0.097571 0.817211
O O2 0.734623 0.101558 0.884788
O O3 0.772083 0.060157 0.790083
O O4 0.727946 0.158221 0.786631
O O5 0.500000 0.378409 0.120130
O O6 0.301003 0.421449 0.187925
O O7 0.275511 0.326674 0.171655
O O8 0.221300 0.396833 0.086944
O O9 0.000000 0.932099 0.916957
O O10 0.223515 0.000000 0.907625
O O11 0.226231 0.929305 0.986856
O O12 0.137502 0.500000 0.207807
O O13 0.000000 0.414369 0.219664
O O14 0.250000 0.250000 0.744764
O O15 0.000000 0.298410 0.735899
O O16 0.500000 0.434948 0.528100
O O17 0.709913 0.500000 0.563591
#
# Coordination Sequence:
#
# PCOD8185969 Si02
#       6
#    16  16  16  16  16  16
#     4  10  20  33  49  72 100 129 164 205 250 299
#     4  10  20  33  49  72 100 129 164 205 250 299
#     4  10  20  33  50  74 104 139 175 206 240 287
#     4  10  19  29  43  67  98 130 164 200 240 291
#     4   9  20  36  54  76  99 126 162 206 257 308
#     4  10  20  33  50  74 104 139 175 206 240 287
#
# _framework density 17.723223999999998
#
# number of rings (size 3 to 8) (size 9 to 14) (size 15 to 20)
#    0.000    2.167    0.000    4.500    0.000   11.333 
#    0.000    0.000    0.000    1.000    0.000    7.000 
#    0.000    0.000    0.000    0.000    0.000    0.000 
#
# Total GULP energy -297327.741317 kJ/mol
# GULP energy per Si atom -12388.655888 kJ/mol
# Density = 1.768289 g / cm^3
# Si number density = 17.723224 Si / 1000 Ang^3
#
#
#
# Elastic Constant Matrix: (Units=GPa)
#
#
# Indices 1 2 3 4 5 6 
#
# 1 62.9112 31.2834 21.8746 0.0000 0.0000 0.0000
# 2 31.2834 83.3963 41.2754 0.0000 0.0000 0.0000
# 3 21.8746 41.2754 87.1083 0.0000 0.0000 0.0000
# 4 0.0000 0.0000 0.0000 23.1146 0.0000 0.0000
# 5 0.0000 0.0000 0.0000 0.0000 33.2777 0.0000
# 6 0.0000 0.0000 0.0000 0.0000 0.0000 25.1185
#
#
#
# Elastic Compliance Matrix: (Units=1/GPa)
#
#
# Indices 1 2 3 4 5 6 
#
# 1 0.019777 -0.006480 -0.001896 0.000000 0.000000 0.000000
# 2 -0.006480 0.017788 -0.006801 0.000000 0.000000 0.000000
# 3 -0.001896 -0.006801 0.015179 0.000000 0.000000 0.000000
# 4 0.000000 0.000000 0.000000 0.043263 0.000000 0.000000
# 5 0.000000 0.000000 0.000000 0.000000 0.030050 0.000000
# 6 0.000000 0.000000 0.000000 0.000000 0.000000 0.039811
#
#
# Mechanical properties :
#
#
# Convention : Reuss Voigt Hill
#
# Bulk Modulus (GPa) = 44.66501 46.92028 45.79265
# Shear Modulus (GPa) = 24.54758 25.56764 25.05761
#
# Velocity S-wave (km/s) = 3.72567 3.80229 3.76417
# Velocity P-wave (km/s) = 6.61540 6.76815 6.69221
#
# Compressibility (1/GPa) = 0.02238889
#
# Stress axis : x y z
#
# Youngs Moduli (GPa) = 50.56360 56.21743 65.88158
#
# Poissons Ratio (x) = 0.36432 0.12489
# Poissons Ratio (y) = 0.32768 0.44808
# Poissons Ratio (z) = 0.09585 0.38235
#
# Static dielectric constant tensor:
#      x y z
#    x 3.615500 0.000000 0.000000 
#    y 0.000000 3.656070 0.000000 
#    z 0.000000 0.000000 3.339810 
# 
# 
# High freq. dielectric constant tensor:
#      x y z
#    x 1.701310 0.000000 0.000000 
#    y 0.000000 1.647570 0.000000 
#    z 0.000000 0.000000 1.683890 
# 
# From -- ./inp_files/23706.got.cif
#   From: 2010.03.12/outbox.cif.g09.slc.cpg/sg42_12_cif.got.tgz:23706.got - 2010.04.14 02:04:31.
