data_PCOD8185588
_publ_section_title
;
Structure prediction by ZEFSAII (Michael W. Deem and Ramdas Pophale) SiO2 
 PCOD8185588
Probable space group: A B A 2
;
_chemical_formula_sum "Si O2"
_cell_formula_units_Z 40
_cell_length_a 24.380820
_cell_length_b 13.235236
_cell_length_c 4.926411
_cell_angle_alpha 90.000000
_cell_angle_beta 90.000000
_cell_angle_gamma 90.000000
_cell_volume 1589.683400
_symmetry_space_group_name_H-M "A B A 2"
_symmetry_group_IT_number 41
_symmetry_cell_setting 'orthorhombic'
loop_
_space_group_symop_operation_xyz
x,y,z
-x,-y,z
1/2-x,y,1/2+z
1/2+x,-y,1/2+z
x,1/2+y,1/2+z
-x,1/2-y,1/2+z
1/2-x,1/2+y,z
1/2+x,1/2-y,z
loop_
_atom_site_type_symbol
_atom_site_label
_atom_site_fract_x
_atom_site_fract_y
_atom_site_fract_z
Si Si1 0.853372 0.178273 0.684490
Si Si2 0.508944 0.315319 0.388898
Si Si3 0.285377 0.509103 0.748545
Si Si4 0.127448 0.112843 0.403751
Si Si5 0.406335 0.908236 0.684284
O O1 0.841523 0.295251 0.752830
O O2 0.871739 0.168785 0.373060
O O3 0.799164 0.110396 0.730342
O O4 0.901492 0.133528 0.879725
O O5 0.478655 0.257267 0.632823
O O6 0.566670 0.355999 0.503694
O O7 0.469598 0.405673 0.281672
O O8 0.233702 0.534421 0.552952
O O9 0.337880 0.576716 0.664761
O O10 0.119752 0.019705 0.194837
#
# Coordination Sequence:
#
# PCOD8185588 Si02
#       5
#     8   8   8   8   8
#     4  11  24  44  70  97 138 180 229 290 348 417
#     4  12  23  42  68 105 148 185 225 278 353 428
#     4  11  26  47  69 102 135 179 245 306 355 415
#     4  11  25  44  75 101 139 190 232 285 357 427
#     4  11  23  43  66 105 144 181 225 279 336 431
#
# _framework density 25.162241999999999
#
# number of rings (size 3 to 8) (size 9 to 14) (size 15 to 20)
#    0.000    0.800    4.000    3.000    0.000   11.200 
#    0.000    6.000    0.000    0.000    0.000    0.000 
#    0.000    0.000    0.000    0.000    0.000    0.000 
#
# Total GULP energy -248032.629455 kJ/mol
# GULP energy per Si atom -12401.631473 kJ/mol
# Density = 2.510497 g / cm^3
# Si number density = 25.162242 Si / 1000 Ang^3
#
#
#
# Elastic Constant Matrix: (Units=GPa)
#
#
# Indices 1 2 3 4 5 6 
#
# 1 100.3327 28.7008 16.0335 0.0000 0.0000 0.0000
# 2 28.7008 159.9295 24.3046 0.0000 0.0000 0.0000
# 3 16.0335 24.3046 81.1792 0.0000 0.0000 0.0000
# 4 0.0000 0.0000 0.0000 23.3950 0.0000 0.0000
# 5 0.0000 0.0000 0.0000 0.0000 36.7488 0.0000
# 6 0.0000 0.0000 0.0000 0.0000 0.0000 42.3032
#
#
#
# Elastic Compliance Matrix: (Units=1/GPa)
#
#
# Indices 1 2 3 4 5 6 
#
# 1 0.010704 -0.001676 -0.001612 0.000000 0.000000 0.000000
# 2 -0.001676 0.006813 -0.001709 0.000000 0.000000 0.000000
# 3 -0.001612 -0.001709 0.013148 0.000000 0.000000 0.000000
# 4 0.000000 0.000000 0.000000 0.042744 0.000000 0.000000
# 5 0.000000 0.000000 0.000000 0.000000 0.027212 0.000000
# 6 0.000000 0.000000 0.000000 0.000000 0.000000 0.023639
#
#
# Mechanical properties :
#
#
# Convention : Reuss Voigt Hill
#
# Bulk Modulus (GPa) = 48.37586 53.27989 50.82788
# Shear Modulus (GPa) = 35.42453 38.64956 37.03705
#
# Velocity S-wave (km/s) = 3.75620 3.92345 3.84074
# Velocity P-wave (km/s) = 6.17085 6.46105 6.31761
#
# Compressibility (1/GPa) = 0.02067147
#
# Stress axis : x y z
#
# Youngs Moduli (GPa) = 93.42390 146.77395 76.05434
#
# Poissons Ratio (x) = 0.24598 0.12263
# Poissons Ratio (y) = 0.15657 0.12996
# Poissons Ratio (z) = 0.15063 0.25081
#
# Static dielectric constant tensor:
#      x y z
#    x 4.429740 0.000000 0.000000 
#    y 0.000000 4.674560 0.000000 
#    z 0.000000 0.000000 4.272900 
# 
# 
# High freq. dielectric constant tensor:
#      x y z
#    x 2.001610 0.000000 0.000000 
#    y 0.000000 1.998470 0.000000 
#    z 0.000000 0.000000 2.001530 
# 
# From -- ./inp_files/1091.got.cif
#   From: 2010.03.12/outbox.cif.g09.slc.cpg/sg41_1_cif.got.tgz:1091.got - 2010.04.14 01:55:53.
