data_PCOD8185070
_publ_section_title
;
Structure prediction by ZEFSAII (Michael W. Deem and Ramdas Pophale) SiO2 
 PCOD8185070
Probable space group: A B A 2
;
_chemical_formula_sum "Si O2"
_cell_formula_units_Z 56
_cell_length_a 14.534584
_cell_length_b 5.041855
_cell_length_c 36.994685
_cell_angle_alpha 90.000000
_cell_angle_beta 90.000000
_cell_angle_gamma 90.000000
_cell_volume 2711.017316
_symmetry_space_group_name_H-M "A B A 2"
_symmetry_group_IT_number 41
_symmetry_cell_setting 'orthorhombic'
loop_
_space_group_symop_operation_xyz
x,y,z
-x,-y,z
1/2-x,y,1/2+z
1/2+x,-y,1/2+z
x,1/2+y,1/2+z
-x,1/2-y,1/2+z
1/2-x,1/2+y,z
1/2+x,1/2-y,z
loop_
_atom_site_type_symbol
_atom_site_label
_atom_site_fract_x
_atom_site_fract_y
_atom_site_fract_z
Si Si1 0.500000 0.000000 0.757300
Si Si2 0.803836 0.574658 0.432951
Si Si3 0.000000 0.000000 0.807069
Si Si4 0.803651 0.545557 0.631668
Si Si5 0.060719 0.746193 0.994092
Si Si6 0.812554 0.594364 0.350540
Si Si7 0.189025 0.454458 0.715139
Si Si8 0.559527 0.751324 0.072556
O O1 0.482745 0.748911 0.782010
O O2 0.407798 0.022658 0.733558
O O3 0.786213 0.261716 0.438137
O O4 0.869382 0.693583 0.462678
O O5 0.841850 0.610711 0.392510
O O6 0.091211 0.944496 0.830340
O O7 0.784928 0.235354 0.624213
O O8 0.835652 0.568414 0.672883
O O9 0.876815 0.668873 0.605166
O O10 0.000000 0.500000 0.981094
O O11 0.107949 0.679158 0.033560
O O12 0.000000 0.000000 0.999293
O O13 0.739586 0.365558 0.340217
O O14 0.263985 0.676932 0.726220
O O15 0.500000 0.500000 0.063300
O O16 0.500000 0.000000 0.086096
#
# Coordination Sequence:
#
# PCOD8185070 Si02
#       8
#     4   8   4   8   8   8   8   8
#     4  12  26  42  66  98 121 164 213 240 318 390
#     4  10  21  38  59  86 116 156 203 244 303 359
#     4  12  26  42  66  98 121 164 213 240 318 390
#     4  10  21  38  59  86 116 156 203 244 303 359
#     4  10  21  36  55  85 120 157 201 250 304 356
#     4  10  23  43  63  92 129 160 203 259 305 363
#     4  10  23  43  63  92 129 160 203 259 305 363
#     4  10  21  36  55  85 120 157 201 250 304 356
#
# _framework density 20.656452999999999
#
# number of rings (size 3 to 8) (size 9 to 14) (size 15 to 20)
#    0.000    1.714    0.000    3.429    2.000    4.571 
#    2.571    0.000    0.000    0.000    0.000    0.000 
#    0.000    0.000    0.000    0.000    0.000    0.000 
#
# Total GULP energy -346919.627263 kJ/mol
# GULP energy per Si atom -12389.986688 kJ/mol
# Density = 2.060944 g / cm^3
# Si number density = 20.656453 Si / 1000 Ang^3
#
#
#
# Elastic Constant Matrix: (Units=GPa)
#
#
# Indices 1 2 3 4 5 6 
#
# 1 91.0315 10.4639 56.0500 0.0000 0.0000 0.0000
# 2 10.4639 105.2476 22.6422 0.0000 0.0000 0.0000
# 3 56.0500 22.6422 93.2337 0.0000 0.0000 0.0000
# 4 0.0000 0.0000 0.0000 30.6444 0.0000 0.0000
# 5 0.0000 0.0000 0.0000 0.0000 38.5808 0.0000
# 6 0.0000 0.0000 0.0000 0.0000 0.0000 35.7471
#
#
#
# Elastic Compliance Matrix: (Units=1/GPa)
#
#
# Indices 1 2 3 4 5 6 
#
# 1 0.017471 0.000551 -0.010637 0.000000 0.000000 0.000000
# 2 0.000551 0.010043 -0.002770 0.000000 0.000000 0.000000
# 3 -0.010637 -0.002770 0.017793 0.000000 0.000000 0.000000
# 4 0.000000 0.000000 0.000000 0.032632 0.000000 0.000000
# 5 0.000000 0.000000 0.000000 0.000000 0.025920 0.000000
# 6 0.000000 0.000000 0.000000 0.000000 0.000000 0.027974
#
#
# Mechanical properties :
#
#
# Convention : Reuss Voigt Hill
#
# Bulk Modulus (GPa) = 51.03382 51.98056 51.50719
# Shear Modulus (GPa) = 30.47328 34.35157 32.41243
#
# Velocity S-wave (km/s) = 3.84506 4.08241 3.96551
# Velocity P-wave (km/s) = 6.66875 6.88770 6.77911
#
# Compressibility (1/GPa) = 0.01959485
#
# Stress axis : x y z
#
# Youngs Moduli (GPa) = 57.23618 99.57604 56.20039
#
# Poissons Ratio (x) = -0.05491 0.59782
# Poissons Ratio (y) = -0.03156 0.15570
# Poissons Ratio (z) = 0.60884 0.27586
#
# Static dielectric constant tensor:
#      x y z
#    x 3.450460 0.000000 0.000000 
#    y 0.000000 4.214240 0.000000 
#    z 0.000000 0.000000 4.120740 
# 
# 
# High freq. dielectric constant tensor:
#      x y z
#    x 1.784890 0.000000 0.000000 
#    y 0.000000 1.835460 0.000000 
#    z 0.000000 0.000000 1.824350 
# 
# From -- ./inp_files/12747.got.cif
#   From: 2010.03.12/outbox.cif.g09.slc.cpg/sg41_7_cif.got.tgz:12747.got - 2010.04.14 01:55:53.
