data_PCOD8185450
_publ_section_title
;
Structure prediction by ZEFSAII (Michael W. Deem and Ramdas Pophale) SiO2 
 PCOD8185450
Probable space group: A B A 2
;
_chemical_formula_sum "Si O2"
_cell_formula_units_Z 56
_cell_length_a 5.481419
_cell_length_b 26.894028
_cell_length_c 14.588800
_cell_angle_alpha 90.000000
_cell_angle_beta 90.000000
_cell_angle_gamma 90.000000
_cell_volume 2150.643491
_symmetry_space_group_name_H-M "A B A 2"
_symmetry_group_IT_number 41
_symmetry_cell_setting 'orthorhombic'
loop_
_space_group_symop_operation_xyz
x,y,z
-x,-y,z
1/2-x,y,1/2+z
1/2+x,-y,1/2+z
x,1/2+y,1/2+z
-x,1/2-y,1/2+z
1/2-x,1/2+y,z
1/2+x,1/2-y,z
loop_
_atom_site_type_symbol
_atom_site_label
_atom_site_fract_x
_atom_site_fract_y
_atom_site_fract_z
Si Si1 0.000000 0.500000 0.219990
Si Si2 0.411691 0.867238 0.453981
Si Si3 0.165120 0.222675 0.029076
Si Si4 0.778373 0.584415 0.630013
Si Si5 0.259263 0.048163 0.381759
Si Si6 0.000000 0.000000 0.031523
Si Si7 0.812850 0.276867 0.745368
Si Si8 0.547359 0.132117 0.813048
O O1 0.942323 0.547331 0.155547
O O2 0.782108 0.482126 0.286579
O O3 0.635797 0.831615 0.483436
O O4 0.237862 0.879026 0.542984
O O5 0.508239 0.917291 0.405742
O O6 0.245598 0.840434 0.377014
O O7 0.923097 0.253807 0.997373
O O8 0.173456 0.216035 0.137355
O O9 0.995618 0.547812 0.597787
O O10 0.839804 0.619179 0.714940
O O11 0.024088 0.082527 0.369450
O O12 0.258923 0.008056 0.465475
O O13 0.059500 0.247844 0.776961
O O14 0.820574 0.330862 0.794496
#
# Coordination Sequence:
#
# PCOD8185450 Si02
#       8
#     4   8   8   8   8   4   8   8
#     4  11  22  44  67  96 138 188 245 288 371 420
#     4  11  25  45  66 108 140 176 247 288 361 431
#     4  10  23  46  73 104 146 192 239 299 367 443
#     4  11  23  44  68 100 135 191 226 295 356 434
#     4  10  24  43  66 100 139 183 234 309 339 442
#     4   9  22  44  63  98 142 178 245 278 363 422
#     4  10  24  46  74 106 145 192 242 299 367 446
#     4  12  25  44  72 103 140 187 240 297 367 433
#
# _framework density 26.038719
#
# number of rings (size 3 to 8) (size 9 to 14) (size 15 to 20)
#    0.000    1.429    2.857    0.857    6.000    1.143 
#    2.571    0.000    0.000    0.000    0.000    0.000 
#    0.000    0.000    0.000    0.000    0.000    0.000 
#
# Total GULP energy -346918.141885 kJ/mol
# GULP energy per Si atom -12389.933639 kJ/mol
# Density = 2.597945 g / cm^3
# Si number density = 26.038719 Si / 1000 Ang^3
#
#
#
# Elastic Constant Matrix: (Units=GPa)
#
#
# Indices 1 2 3 4 5 6 
#
# 1 75.3847 3.3887 28.1567 0.0000 0.0000 0.0000
# 2 3.3887 75.3981 24.9688 0.0000 0.0000 0.0000
# 3 28.1567 24.9688 127.1788 0.0000 0.0000 0.0000
# 4 0.0000 0.0000 0.0000 10.2170 0.0000 0.0000
# 5 0.0000 0.0000 0.0000 0.0000 26.5322 0.0000
# 6 0.0000 0.0000 0.0000 0.0000 0.0000 40.4609
#
#
#
# Elastic Compliance Matrix: (Units=1/GPa)
#
#
# Indices 1 2 3 4 5 6 
#
# 1 0.014475 0.000439 -0.003291 0.000000 0.000000 0.000000
# 2 0.000439 0.014199 -0.002885 0.000000 0.000000 0.000000
# 3 -0.003291 -0.002885 0.009158 0.000000 0.000000 0.000000
# 4 0.000000 0.000000 0.000000 0.097876 0.000000 0.000000
# 5 0.000000 0.000000 0.000000 0.000000 0.037690 0.000000
# 6 0.000000 0.000000 0.000000 0.000000 0.000000 0.024715
#
#
# Mechanical properties :
#
#
# Convention : Reuss Voigt Hill
#
# Bulk Modulus (GPa) = 37.93876 43.44332 40.69104
# Shear Modulus (GPa) = 22.89678 30.20520 26.55099
#
# Velocity S-wave (km/s) = 2.96858 3.40959 3.19670
# Velocity P-wave (km/s) = 5.13339 5.67633 5.41167
#
# Compressibility (1/GPa) = 0.02635827
#
# Stress axis : x y z
#
# Youngs Moduli (GPa) = 69.08602 70.42988 109.19540
#
# Poissons Ratio (x) = -0.03094 0.35935
# Poissons Ratio (y) = -0.03035 0.31501
# Poissons Ratio (z) = 0.22735 0.20318
#
# Static dielectric constant tensor:
#      x y z
#    x 4.241080 0.000000 0.000000 
#    y 0.000000 4.806280 0.000000 
#    z 0.000000 0.000000 5.066480 
# 
# 
# High freq. dielectric constant tensor:
#      x y z
#    x 2.010130 0.000000 0.000000 
#    y 0.000000 2.046720 0.000000 
#    z 0.000000 0.000000 2.064590 
# 
# From -- ./inp_files/6990.got.cif
#   From: 2010.03.12/outbox.cif.g09.slc.cpg/sg41_4_cif.got.tgz:6990.got - 2010.04.14 01:55:53.
