data_PCOD8185837
_publ_section_title
;
Structure prediction by ZEFSAII (Michael W. Deem and Ramdas Pophale) SiO2 
 PCOD8185837
Probable space group: F M M 2
;
_chemical_formula_sum "Si O2"
_cell_formula_units_Z 120
_cell_length_a 20.531379
_cell_length_b 12.787260
_cell_length_c 27.470439
_cell_angle_alpha 90.000000
_cell_angle_beta 90.000000
_cell_angle_gamma 90.000000
_cell_volume 7212.091292
_symmetry_space_group_name_H-M "F M M 2"
_symmetry_group_IT_number 42
_symmetry_cell_setting 'orthorhombic'
loop_
_space_group_symop_operation_xyz
x,y,z
-x,-y,z
-x,y,z
x,-y,z
x,1/2+y,1/2+z
-x,1/2-y,1/2+z
-x,1/2+y,1/2+z
x,1/2-y,1/2+z
1/2+x,y,1/2+z
1/2-x,-y,1/2+z
1/2-x,y,1/2+z
1/2+x,-y,1/2+z
1/2+x,1/2+y,z
1/2-x,1/2-y,z
1/2-x,1/2+y,z
1/2+x,1/2-y,z
loop_
_atom_site_type_symbol
_atom_site_label
_atom_site_fract_x
_atom_site_fract_y
_atom_site_fract_z
Si Si1 0.175889 0.778583 0.451290
Si Si2 0.357072 0.121514 0.227275
Si Si3 0.428492 0.123950 0.132306
Si Si4 0.669973 0.377341 0.346501
Si Si5 0.072165 0.793889 0.814811
Si Si6 0.073925 0.876497 0.523947
Si Si7 0.072899 0.619021 0.417390
Si Si8 0.250000 0.250000 0.277855
O O1 0.250000 0.750000 0.468606
O O2 0.181680 0.847112 0.402505
O O3 0.134288 0.842355 0.490627
O O4 0.132167 0.675741 0.444230
O O5 0.378984 0.161194 0.173956
O O6 0.413639 0.138445 0.266815
O O7 0.301656 0.202205 0.241527
O O8 0.335272 0.000000 0.226540
O O9 0.500000 0.168924 0.144714
O O10 0.408197 0.163245 0.078470
O O11 0.431499 0.000000 0.132949
O O12 0.655390 0.500000 0.342766
O O13 0.612085 0.312320 0.322101
O O14 0.731853 0.346319 0.313690
O O15 0.083777 0.871865 0.859737
O O16 0.000000 0.751225 0.811701
O O17 0.000000 0.836309 0.509298
O O18 0.071326 0.000000 0.522203
O O19 0.077706 0.500000 0.433701
O O20 0.000000 0.662746 0.430886
#
# Coordination Sequence:
#
# PCOD8185837 Si02
#       8
#    16  16  16  16  16  16  16   8
#     4  11  21  33  47  75  98 130 171 205 247 297
#     4  10  18  29  49  72  97 130 162 200 248 293
#     4   8  15  29  50  75  96 117 153 201 254 301
#     4  10  20  34  48  65  97 135 166 197 237 291
#     4   9  18  30  46  73  99 121 160 203 244 292
#     4   9  18  34  54  74  99 129 162 207 258 306
#     4   9  18  32  48  67  96 131 164 204 247 288
#     4  10  20  34  44  70  98 132 172 196 232 288
#
# _framework density 16.638725000000001
#
# number of rings (size 3 to 8) (size 9 to 14) (size 15 to 20)
#    0.000    2.533    0.667    2.800    0.000    3.200 
#    1.200    0.000    0.000    0.000    0.000    0.933 
#    0.000    4.267    0.000    0.000    0.000    0.000 
#
# Total GULP energy -371646.565221 kJ/mol
# GULP energy per Si atom -12388.218841 kJ/mol
# Density = 1.660085 g / cm^3
# Si number density = 16.638725 Si / 1000 Ang^3
#
#
#
# Elastic Constant Matrix: (Units=GPa)
#
#
# Indices 1 2 3 4 5 6 
#
# 1 104.7152 27.1359 52.7181 0.0000 0.0000 0.0000
# 2 27.1359 65.5512 25.4482 0.0000 0.0000 0.0000
# 3 52.7181 25.4482 106.0918 0.0000 0.0000 0.0000
# 4 0.0000 0.0000 0.0000 18.3920 0.0000 0.0000
# 5 0.0000 0.0000 0.0000 0.0000 25.4718 0.0000
# 6 0.0000 0.0000 0.0000 0.0000 0.0000 17.7433
#
#
#
# Elastic Compliance Matrix: (Units=1/GPa)
#
#
# Indices 1 2 3 4 5 6 
#
# 1 0.013336 -0.003251 -0.005847 0.000000 0.000000 0.000000
# 2 -0.003251 0.017614 -0.002610 0.000000 0.000000 0.000000
# 3 -0.005847 -0.002610 0.012957 0.000000 0.000000 0.000000
# 4 0.000000 0.000000 0.000000 0.054371 0.000000 0.000000
# 5 0.000000 0.000000 0.000000 0.000000 0.039259 0.000000
# 6 0.000000 0.000000 0.000000 0.000000 0.000000 0.056359
#
#
# Mechanical properties :
#
#
# Convention : Reuss Voigt Hill
#
# Bulk Modulus (GPa) = 48.79891 54.10694 51.45293
# Shear Modulus (GPa) = 22.30727 23.72515 23.01621
#
# Velocity S-wave (km/s) = 3.66551 3.78021 3.72330
# Velocity P-wave (km/s) = 6.87799 7.18627 7.03382
#
# Compressibility (1/GPa) = 0.02049226
#
# Stress axis : x y z
#
# Youngs Moduli (GPa) = 74.98694 56.77284 77.17714
#
# Poissons Ratio (x) = 0.18455 0.45125
# Poissons Ratio (y) = 0.24375 0.20142
# Poissons Ratio (z) = 0.43844 0.14817
#
# Static dielectric constant tensor:
#      x y z
#    x 3.273040 0.000000 0.000000 
#    y 0.000000 2.860850 0.000000 
#    z 0.000000 0.000000 3.287670 
# 
# 
# High freq. dielectric constant tensor:
#      x y z
#    x 1.646370 0.000000 0.000000 
#    y 0.000000 1.618010 0.000000 
#    z 0.000000 0.000000 1.635160 
# 
# From -- ./inp_files/32291.got.cif
#   From: 2010.03.12/outbox.cif.g09.slc.cpg/sg42_17_cif.got.tgz:32291.got - 2010.04.14 02:04:31.
