data_PCOD8185178
_publ_section_title
;
Structure prediction by ZEFSAII (Michael W. Deem and Ramdas Pophale) SiO2 
 PCOD8185178
Probable space group: A B A 2
;
_chemical_formula_sum "Si O2"
_cell_formula_units_Z 44
_cell_length_a 21.060405
_cell_length_b 9.399151
_cell_length_c 10.076961
_cell_angle_alpha 90.000000
_cell_angle_beta 90.000000
_cell_angle_gamma 90.000000
_cell_volume 1994.733691
_symmetry_space_group_name_H-M "A B A 2"
_symmetry_group_IT_number 41
_symmetry_cell_setting 'orthorhombic'
loop_
_space_group_symop_operation_xyz
x,y,z
-x,-y,z
1/2-x,y,1/2+z
1/2+x,-y,1/2+z
x,1/2+y,1/2+z
-x,1/2-y,1/2+z
1/2-x,1/2+y,z
1/2+x,1/2-y,z
loop_
_atom_site_type_symbol
_atom_site_label
_atom_site_fract_x
_atom_site_fract_y
_atom_site_fract_z
Si Si1 0.239756 0.409573 0.484660
Si Si2 0.642378 0.737722 0.405199
Si Si3 0.812622 0.990085 0.253896
Si Si4 0.000000 0.000000 0.097025
Si Si5 0.915280 0.766559 0.173821
Si Si6 0.607945 0.550572 0.887869
O O1 0.287560 0.274648 0.475443
O O2 0.234828 0.468258 0.634013
O O3 0.268585 0.531622 0.384567
O O4 0.169737 0.362973 0.436465
O O5 0.637623 0.620261 0.287629
O O6 0.591088 0.711509 0.522469
O O7 0.630415 0.893213 0.343830
O O8 0.851753 0.850893 0.216176
O O9 0.977396 0.867182 0.187439
O O10 0.059924 0.954254 0.009633
O O11 0.925640 0.629884 0.266053
#
# Coordination Sequence:
#
# PCOD8185178 Si02
#       6
#     8   8   8   4   8   8
#     4  10  21  40  69 101 139 178 219 285 355 416
#     4   9  23  41  65 102 136 174 224 278 360 414
#     4  10  22  41  68 101 142 180 227 282 357 423
#     4  10  24  46  66  96 140 186 238 280 348 414
#     4  11  23  46  70  97 135 186 232 293 340 413
#     4  11  23  44  71  96 138 183 228 292 342 416
#
# _framework density 22.058081000000001
#
# number of rings (size 3 to 8) (size 9 to 14) (size 15 to 20)
#    1.091    0.727    3.636    1.091    2.545    2.909 
#    6.545    0.000    0.000    0.000    0.000    0.000 
#    0.000    0.000    0.000    0.000    0.000    0.000 
#
# Total GULP energy -272576.341252 kJ/mol
# GULP energy per Si atom -12389.833693 kJ/mol
# Density = 2.200788 g / cm^3
# Si number density = 22.058081 Si / 1000 Ang^3
#
#
#
# Elastic Constant Matrix: (Units=GPa)
#
#
# Indices 1 2 3 4 5 6 
#
# 1 45.9599 -11.3193 -23.3649 0.0000 0.0000 0.0000
# 2 -11.3193 67.5009 22.5296 0.0000 0.0000 0.0000
# 3 -23.3649 22.5296 89.0234 0.0000 0.0000 0.0000
# 4 0.0000 0.0000 0.0000 27.7283 0.0000 0.0000
# 5 0.0000 0.0000 0.0000 0.0000 25.2532 0.0000
# 6 0.0000 0.0000 0.0000 0.0000 0.0000 34.4418
#
#
#
# Elastic Compliance Matrix: (Units=1/GPa)
#
#
# Indices 1 2 3 4 5 6 
#
# 1 0.025410 0.002223 0.006106 0.000000 0.000000 0.000000
# 2 0.002223 0.016376 -0.003561 0.000000 0.000000 0.000000
# 3 0.006106 -0.003561 0.013737 0.000000 0.000000 0.000000
# 4 0.000000 0.000000 0.000000 0.036064 0.000000 0.000000
# 5 0.000000 0.000000 0.000000 0.000000 0.039599 0.000000
# 6 0.000000 0.000000 0.000000 0.000000 0.000000 0.029035
#
#
# Mechanical properties :
#
#
# Convention : Reuss Voigt Hill
#
# Bulk Modulus (GPa) = 15.37051 19.79722 17.58387
# Shear Modulus (GPa) = 29.00736 31.79391 30.40063
#
# Velocity S-wave (km/s) = 3.63029 3.80066 3.71645
# Velocity P-wave (km/s) = 4.95533 5.31550 5.13857
#
# Compressibility (1/GPa) = 0.06505963
#
# Stress axis : x y z
#
# Youngs Moduli (GPa) = 39.35467 61.06538 72.79673
#
# Poissons Ratio (x) = -0.13574 -0.44453
# Poissons Ratio (y) = -0.08748 0.25922
# Poissons Ratio (z) = -0.24032 0.21745
#
# Static dielectric constant tensor:
#      x y z
#    x 3.969940 0.000000 0.000000 
#    y 0.000000 3.722810 0.000000 
#    z 0.000000 0.000000 3.925710 
# 
# 
# High freq. dielectric constant tensor:
#      x y z
#    x 1.859390 0.000000 0.000000 
#    y 0.000000 1.849310 0.000000 
#    z 0.000000 0.000000 1.863550 
# 
# From -- ./inp_files/6378.got.cif
#   From: 2010.03.12/outbox.cif.g09.slc.cpg/sg41_4_cif.got.tgz:6378.got - 2010.04.14 01:55:53.
