data_PCOD8185015
_publ_section_title
;
Structure prediction by ZEFSAII (Michael W. Deem and Ramdas Pophale) SiO2 
 PCOD8185015
Probable space group: A B A 2
;
_chemical_formula_sum "Si O2"
_cell_formula_units_Z 64
_cell_length_a 14.932967
_cell_length_b 17.887776
_cell_length_c 11.406933
_cell_angle_alpha 90.000000
_cell_angle_beta 90.000000
_cell_angle_gamma 90.000000
_cell_volume 3046.992209
_symmetry_space_group_name_H-M "A B A 2"
_symmetry_group_IT_number 41
_symmetry_cell_setting 'orthorhombic'
loop_
_space_group_symop_operation_xyz
x,y,z
-x,-y,z
1/2-x,y,1/2+z
1/2+x,-y,1/2+z
x,1/2+y,1/2+z
-x,1/2-y,1/2+z
1/2-x,1/2+y,z
1/2+x,1/2-y,z
loop_
_atom_site_type_symbol
_atom_site_label
_atom_site_fract_x
_atom_site_fract_y
_atom_site_fract_z
Si Si1 0.604675 0.148313 0.142080
Si Si2 0.100549 0.995767 0.052331
Si Si3 0.802788 0.993422 0.294726
Si Si4 0.397823 0.502770 0.526202
Si Si5 0.751780 0.249443 0.525998
Si Si6 0.327544 0.380248 0.882364
Si Si7 0.899371 0.844552 0.638632
Si Si8 0.333900 0.619746 0.880274
O O1 0.644369 0.072318 0.082279
O O2 0.675710 0.213008 0.113128
O O3 0.600342 0.140195 0.282603
O O4 0.503273 0.167654 0.098479
O O5 0.165350 0.006644 0.161747
O O6 0.113036 0.058221 0.953883
O O7 0.000000 0.000000 0.099497
O O8 0.121824 0.916175 0.993264
O O9 0.751062 0.916277 0.315222
O O10 0.884855 0.995426 0.386627
O O11 0.742828 0.064927 0.321257
O O12 0.500000 0.500000 0.561157
O O13 0.358435 0.577780 0.586129
O O14 0.723336 0.193424 0.423806
O O15 0.662742 0.276502 0.594662
O O16 0.802968 0.317273 0.467853
O O17 0.897996 0.847053 0.779718
#
# Coordination Sequence:
#
# PCOD8185015 Si02
#       8
#     8   8   8   8   8   8   8   8
#     4  11  24  43  68  95 130 173 221 275 328 391
#     4  11  24  41  66  96 127 164 214 270 326 383
#     4  11  21  39  66  97 129 167 210 277 326 386
#     4  10  20  40  67  97 126 167 222 271 326 387
#     4  12  24  44  64  96 132 180 218 262 332 396
#     4  11  24  40  66  95 130 167 219 269 327 386
#     4  11  24  43  68  95 130 173 221 275 328 391
#     4  11  24  40  66  95 130 167 219 269 327 386
#
# _framework density 21.00432
#
# number of rings (size 3 to 8) (size 9 to 14) (size 15 to 20)
#    0.000    1.000    2.500    4.875    3.500    3.000 
#    0.000    0.000    0.000    0.000    0.000    0.000 
#    0.000    0.000    0.000    0.000    0.000    0.000 
#
# Total GULP energy -396871.481904 kJ/mol
# GULP energy per Si atom -12402.233810 kJ/mol
# Density = 2.095651 g / cm^3
# Si number density = 21.004320 Si / 1000 Ang^3
#
#
#
# Elastic Constant Matrix: (Units=GPa)
#
#
# Indices 1 2 3 4 5 6 
#
# 1 97.9681 38.5988 26.8247 0.0000 0.0000 0.0000
# 2 38.5988 88.8384 18.0830 0.0000 0.0000 0.0000
# 3 26.8247 18.0830 111.2535 0.0000 0.0000 0.0000
# 4 0.0000 0.0000 0.0000 17.9135 0.0000 0.0000
# 5 0.0000 0.0000 0.0000 0.0000 39.0002 0.0000
# 6 0.0000 0.0000 0.0000 0.0000 0.0000 23.1533
#
#
#
# Elastic Compliance Matrix: (Units=1/GPa)
#
#
# Indices 1 2 3 4 5 6 
#
# 1 0.012845 -0.005120 -0.002265 0.000000 0.000000 0.000000
# 2 -0.005120 0.013682 -0.000989 0.000000 0.000000 0.000000
# 3 -0.002265 -0.000989 0.009695 0.000000 0.000000 0.000000
# 4 0.000000 0.000000 0.000000 0.055824 0.000000 0.000000
# 5 0.000000 0.000000 0.000000 0.000000 0.025641 0.000000
# 6 0.000000 0.000000 0.000000 0.000000 0.000000 0.043190
#
#
# Mechanical properties :
#
#
# Convention : Reuss Voigt Hill
#
# Bulk Modulus (GPa) = 51.35013 51.67477 51.51245
# Shear Modulus (GPa) = 27.15665 30.31698 28.73682
#
# Velocity S-wave (km/s) = 3.59960 3.80329 3.70285
# Velocity P-wave (km/s) = 6.46349 6.62888 6.54671
#
# Compressibility (1/GPa) = 0.01947415
#
# Stress axis : x y z
#
# Youngs Moduli (GPa) = 77.85307 73.08732 103.14174
#
# Poissons Ratio (x) = 0.37419 0.23360
# Poissons Ratio (y) = 0.39859 0.10205
# Poissons Ratio (z) = 0.17633 0.07232
#
# Static dielectric constant tensor:
#      x y z
#    x 3.691290 0.000000 0.000000 
#    y 0.000000 3.920110 0.000000 
#    z 0.000000 0.000000 3.797600 
# 
# 
# High freq. dielectric constant tensor:
#      x y z
#    x 1.822850 0.000000 0.000000 
#    y 0.000000 1.820460 0.000000 
#    z 0.000000 0.000000 1.831090 
# 
# From -- ./inp_files/5715.got.cif
#   From: 2010.03.12/outbox.cif.g09.slc.cpg/sg41_3_cif.got.tgz:5715.got - 2010.04.14 01:55:53.
