data_PCOD8185359
_publ_section_title
;
Structure prediction by ZEFSAII (Michael W. Deem and Ramdas Pophale) SiO2 
 PCOD8185359
Probable space group: A B A 2
;
_chemical_formula_sum "Si O2"
_cell_formula_units_Z 64
_cell_length_a 14.532634
_cell_length_b 8.952374
_cell_length_c 21.330183
_cell_angle_alpha 90.000000
_cell_angle_beta 90.000000
_cell_angle_gamma 90.000000
_cell_volume 2775.090398
_symmetry_space_group_name_H-M "A B A 2"
_symmetry_group_IT_number 41
_symmetry_cell_setting 'orthorhombic'
loop_
_space_group_symop_operation_xyz
x,y,z
-x,-y,z
1/2-x,y,1/2+z
1/2+x,-y,1/2+z
x,1/2+y,1/2+z
-x,1/2-y,1/2+z
1/2-x,1/2+y,z
1/2+x,1/2-y,z
loop_
_atom_site_type_symbol
_atom_site_label
_atom_site_fract_x
_atom_site_fract_y
_atom_site_fract_z
Si Si1 0.128722 0.111665 0.455270
Si Si2 0.061129 0.292080 0.936518
Si Si3 0.801640 0.136869 0.779540
Si Si4 0.184196 0.818312 0.065147
Si Si5 0.783306 0.353001 0.361637
Si Si6 0.371267 0.161085 0.554572
Si Si7 0.426028 0.697401 0.189294
Si Si8 0.371810 0.369484 0.200779
O O1 0.129194 0.208372 0.518888
O O2 0.230834 0.094399 0.424763
O O3 0.045244 0.187961 0.414041
O O4 0.098870 0.943089 0.468222
O O5 0.125027 0.240779 0.878373
O O6 0.066746 0.171226 0.992401
O O7 0.803075 0.259289 0.834105
O O8 0.875712 0.163694 0.724030
O O9 0.698998 0.171309 0.754663
O O10 0.815713 0.977883 0.812220
O O11 0.290865 0.783222 0.055395
O O12 0.156692 0.785523 0.136913
O O13 0.167347 0.993102 0.053570
O O14 0.435534 0.206576 0.613893
O O15 0.365789 0.548786 0.198454
O O16 0.526587 0.684788 0.219782
#
# Coordination Sequence:
#
# PCOD8185359 Si02
#       8
#     8   8   8   8   8   8   8   8
#     4  11  25  46  70 100 136 179 226 286 350 411
#     4  11  25  46  70 102 135 176 230 282 351 413
#     4  12  24  45  70  95 136 181 231 279 333 410
#     4  11  22  39  71 102 138 179 221 286 350 411
#     4  12  26  45  68  97 135 180 233 279 334 406
#     4  11  22  39  71 102 139 177 224 282 353 413
#     4  10  22  43  70 102 133 180 224 282 347 411
#     4  10  22  43  70 100 136 175 229 280 349 411
#
# _framework density 23.062311999999999
#
# number of rings (size 3 to 8) (size 9 to 14) (size 15 to 20)
#    0.000    1.000    5.000    1.500    1.750    2.500 
#    2.250    1.875    0.000    0.000    0.000    0.000 
#    0.000    0.000    0.000    0.000    0.000    0.000 
#
# Total GULP energy -396550.779632 kJ/mol
# GULP energy per Si atom -12392.211863 kJ/mol
# Density = 2.300982 g / cm^3
# Si number density = 23.062312 Si / 1000 Ang^3
#
#
#
# Elastic Constant Matrix: (Units=GPa)
#
#
# Indices 1 2 3 4 5 6 
#
# 1 91.9397 29.9559 25.2265 0.0000 0.0000 0.0000
# 2 29.9559 105.3630 40.9964 0.0000 0.0000 0.0000
# 3 25.2265 40.9964 90.8940 0.0000 0.0000 0.0000
# 4 0.0000 0.0000 0.0000 38.1661 0.0000 0.0000
# 5 0.0000 0.0000 0.0000 0.0000 27.4756 0.0000
# 6 0.0000 0.0000 0.0000 0.0000 0.0000 27.9591
#
#
#
# Elastic Compliance Matrix: (Units=1/GPa)
#
#
# Indices 1 2 3 4 5 6 
#
# 1 0.012351 -0.002641 -0.002237 0.000000 0.000000 0.000000
# 2 -0.002641 0.012076 -0.004714 0.000000 0.000000 0.000000
# 3 -0.002237 -0.004714 0.013749 0.000000 0.000000 0.000000
# 4 0.000000 0.000000 0.000000 0.026201 0.000000 0.000000
# 5 0.000000 0.000000 0.000000 0.000000 0.036396 0.000000
# 6 0.000000 0.000000 0.000000 0.000000 0.000000 0.035767
#
#
# Mechanical properties :
#
#
# Convention : Reuss Voigt Hill
#
# Bulk Modulus (GPa) = 52.65216 53.39494 53.02355
# Shear Modulus (GPa) = 30.85409 31.52135 31.18772
#
# Velocity S-wave (km/s) = 3.66164 3.70102 3.68139
# Velocity P-wave (km/s) = 6.38410 6.43942 6.41182
#
# Compressibility (1/GPa) = 0.01899257
#
# Stress axis : x y z
#
# Youngs Moduli (GPa) = 80.96546 82.80874 72.73478
#
# Poissons Ratio (x) = 0.21872 0.16267
# Poissons Ratio (y) = 0.21385 0.34285
# Poissons Ratio (z) = 0.18108 0.39033
#
# Static dielectric constant tensor:
#      x y z
#    x 4.133930 0.000000 0.000000 
#    y 0.000000 3.999650 0.000000 
#    z 0.000000 0.000000 4.114260 
# 
# 
# High freq. dielectric constant tensor:
#      x y z
#    x 1.913680 0.000000 0.000000 
#    y 0.000000 1.904420 0.000000 
#    z 0.000000 0.000000 1.910720 
# 
# From -- ./inp_files/12254.got.cif
#   From: 2010.03.12/outbox.cif.g09.slc.cpg/sg41_7_cif.got.tgz:12254.got - 2010.04.14 01:55:53.
