data_PCOD8185801
_publ_section_title
;
Structure prediction by ZEFSAII (Michael W. Deem and Ramdas Pophale) SiO2 
 PCOD8185801
Probable space group: F M M 2
;
_chemical_formula_sum "Si O2"
_cell_formula_units_Z 96
_cell_length_a 17.775610
_cell_length_b 15.880643
_cell_length_c 18.037494
_cell_angle_alpha 90.000000
_cell_angle_beta 90.000000
_cell_angle_gamma 90.000000
_cell_volume 5091.770208
_symmetry_space_group_name_H-M "F M M 2"
_symmetry_group_IT_number 42
_symmetry_cell_setting 'orthorhombic'
loop_
_space_group_symop_operation_xyz
x,y,z
-x,-y,z
-x,y,z
x,-y,z
x,1/2+y,1/2+z
-x,1/2-y,1/2+z
-x,1/2+y,1/2+z
x,1/2-y,1/2+z
1/2+x,y,1/2+z
1/2-x,-y,1/2+z
1/2-x,y,1/2+z
1/2+x,-y,1/2+z
1/2+x,1/2+y,z
1/2-x,1/2-y,z
1/2-x,1/2+y,z
1/2+x,1/2-y,z
loop_
_atom_site_type_symbol
_atom_site_label
_atom_site_fract_x
_atom_site_fract_y
_atom_site_fract_z
Si Si1 0.844604 0.098105 0.843290
Si Si2 0.218473 0.842538 0.253759
Si Si3 0.265826 0.406827 0.600679
Si Si4 0.180066 0.799903 0.982809
Si Si5 0.585547 0.185853 0.083275
Si Si6 0.583153 0.758524 0.247869
O O1 0.756322 0.110990 0.823936
O O2 0.857528 0.134929 0.925455
O O3 0.890480 0.152078 0.782598
O O4 0.868733 0.000000 0.840592
O O5 0.250000 0.750000 0.234573
O O6 0.235120 0.901700 0.184081
O O7 0.131238 0.823641 0.273057
O O8 0.251947 0.500000 0.570464
O O9 0.216616 0.343890 0.553245
O O10 0.355335 0.389933 0.594244
O O11 0.250000 0.750000 0.943657
O O12 0.112627 0.741795 0.013319
O O13 0.500000 0.153345 0.067784
O O14 0.586286 0.238996 0.158999
O O15 0.500000 0.741197 0.277417
#
# Coordination Sequence:
#
# PCOD8185801 Si02
#       6
#    16  16  16  16  16  16
#     4  11  22  35  57  89 117 143 182 239 292 331
#     4  10  17  34  55  79 106 148 190 225 271 332
#     4  11  19  32  56  83 112 145 183 235 284 326
#     4  10  20  37  56  81 110 152 195 228 271 331
#     4  10  20  35  56  80 111 151 190 224 269 337
#     4  10  20  35  56  80 110 151 190 225 273 335
#
# _framework density 18.853954000000002
#
# number of rings (size 3 to 8) (size 9 to 14) (size 15 to 20)
#    0.000    1.667    5.000    3.000    0.000    1.333 
#    0.000    1.667    0.000    4.500    0.000    0.000 
#    0.000    0.000    0.000    0.000    0.000    0.000 
#
# Total GULP energy -297444.305543 kJ/mol
# GULP energy per Si atom -12393.512731 kJ/mol
# Density = 1.881104 g / cm^3
# Si number density = 18.853954 Si / 1000 Ang^3
#
#
#
# Elastic Constant Matrix: (Units=GPa)
#
#
# Indices 1 2 3 4 5 6 
#
# 1 116.0758 34.1553 18.2041 0.0000 0.0000 0.0000
# 2 34.1553 73.9202 16.3954 0.0000 0.0000 0.0000
# 3 18.2041 16.3954 71.7221 0.0000 0.0000 0.0000
# 4 0.0000 0.0000 0.0000 18.7045 0.0000 0.0000
# 5 0.0000 0.0000 0.0000 0.0000 11.3962 0.0000
# 6 0.0000 0.0000 0.0000 0.0000 0.0000 16.2394
#
#
#
# Elastic Compliance Matrix: (Units=1/GPa)
#
#
# Indices 1 2 3 4 5 6 
#
# 1 0.010138 -0.004333 -0.001583 0.000000 0.000000 0.000000
# 2 -0.004333 0.016103 -0.002581 0.000000 0.000000 0.000000
# 3 -0.001583 -0.002581 0.014934 0.000000 0.000000 0.000000
# 4 0.000000 0.000000 0.000000 0.053463 0.000000 0.000000
# 5 0.000000 0.000000 0.000000 0.000000 0.087749 0.000000
# 6 0.000000 0.000000 0.000000 0.000000 0.000000 0.061579
#
#
# Mechanical properties :
#
#
# Convention : Reuss Voigt Hill
#
# Bulk Modulus (GPa) = 41.35448 44.35861 42.85654
# Shear Modulus (GPa) = 18.58589 22.13224 20.35907
#
# Velocity S-wave (km/s) = 3.14312 3.42991 3.28964
# Velocity P-wave (km/s) = 5.92908 6.26612 6.09993
#
# Compressibility (1/GPa) = 0.02418118
#
# Stress axis : x y z
#
# Youngs Moduli (GPa) = 98.63502 62.10060 66.95929
#
# Poissons Ratio (x) = 0.26911 0.10597
# Poissons Ratio (y) = 0.42743 0.17283
# Poissons Ratio (z) = 0.15610 0.16029
#
# Static dielectric constant tensor:
#      x y z
#    x 3.864750 0.000000 0.000000 
#    y 0.000000 3.239220 0.000000 
#    z 0.000000 0.000000 3.315590 
# 
# 
# High freq. dielectric constant tensor:
#      x y z
#    x 1.724500 0.000000 0.000000 
#    y 0.000000 1.707920 0.000000 
#    z 0.000000 0.000000 1.730590 
# 
# From -- ./inp_files/20798.got.cif
#   From: 2010.03.12/outbox.cif.g09.slc.cpg/sg42_11_cif.got.tgz:20798.got - 2010.04.14 02:04:31.
