data_PCOD8185256
_publ_section_title
;
Structure prediction by ZEFSAII (Michael W. Deem and Ramdas Pophale) SiO2 
 PCOD8185256
Probable space group: A B A 2
;
_chemical_formula_sum "Si O2"
_cell_formula_units_Z 48
_cell_length_a 9.429596
_cell_length_b 13.895515
_cell_length_c 16.806126
_cell_angle_alpha 90.000000
_cell_angle_beta 90.000000
_cell_angle_gamma 90.000000
_cell_volume 2202.091441
_symmetry_space_group_name_H-M "A B A 2"
_symmetry_group_IT_number 41
_symmetry_cell_setting 'orthorhombic'
loop_
_space_group_symop_operation_xyz
x,y,z
-x,-y,z
1/2-x,y,1/2+z
1/2+x,-y,1/2+z
x,1/2+y,1/2+z
-x,1/2-y,1/2+z
1/2-x,1/2+y,z
1/2+x,1/2-y,z
loop_
_atom_site_type_symbol
_atom_site_label
_atom_site_fract_x
_atom_site_fract_y
_atom_site_fract_z
Si Si1 0.704935 0.727801 0.388960
Si Si2 0.631074 0.930665 0.685637
Si Si3 0.869818 0.567070 0.166739
Si Si4 0.610592 0.377981 0.014065
Si Si5 0.293960 0.413586 0.004736
Si Si6 0.050169 0.753966 0.779134
O O1 0.691034 0.803814 0.458972
O O2 0.691906 0.624993 0.433726
O O3 0.611682 0.746375 0.309761
O O4 0.865805 0.727528 0.359473
O O5 0.669683 0.873671 0.604525
O O6 0.593604 0.851324 0.749836
O O7 0.500000 0.000000 0.664732
O O8 0.760024 0.999044 0.716353
O O9 0.924350 0.660020 0.216057
O O10 0.000000 0.500000 0.142637
O O11 0.790926 0.599977 0.086944
O O12 0.442357 0.355440 0.013279
O O13 0.659108 0.480425 0.979998
#
# Coordination Sequence:
#
# PCOD8185256 Si02
#       6
#     8   8   8   8   8   8
#     4  12  25  42  67 100 141 177 213 272 348 402
#     4  11  22  45  71  93 129 181 228 277 329 394
#     4  11  24  45  70 100 132 176 230 280 335 393
#     4  10  21  45  71  94 132 177 225 281 327 386
#     4  10  22  45  69  96 130 177 228 275 330 393
#     4  12  27  42  64 104 141 175 220 276 340 412
#
# _framework density 21.797460000000001
#
# number of rings (size 3 to 8) (size 9 to 14) (size 15 to 20)
#    0.000    1.000    5.000    3.000    0.000    6.667 
#    9.000    0.000    0.000    0.000    0.000    0.000 
#    0.000    0.000    0.000    0.000    0.000    0.000 
#
# Total GULP energy -297432.459638 kJ/mol
# GULP energy per Si atom -12393.019152 kJ/mol
# Density = 2.174785 g / cm^3
# Si number density = 21.797460 Si / 1000 Ang^3
#
#
#
# Elastic Constant Matrix: (Units=GPa)
#
#
# Indices 1 2 3 4 5 6 
#
# 1 76.7318 26.6719 27.9410 0.0000 0.0000 0.0000
# 2 26.6719 95.1807 58.2439 0.0000 0.0000 0.0000
# 3 27.9410 58.2439 99.3030 0.0000 0.0000 0.0000
# 4 0.0000 0.0000 0.0000 8.7506 0.0000 0.0000
# 5 0.0000 0.0000 0.0000 0.0000 40.2953 0.0000
# 6 0.0000 0.0000 0.0000 0.0000 0.0000 26.9200
#
#
#
# Elastic Compliance Matrix: (Units=1/GPa)
#
#
# Indices 1 2 3 4 5 6 
#
# 1 0.014895 -0.002510 -0.002719 0.000000 0.000000 0.000000
# 2 -0.002510 0.016811 -0.009154 0.000000 0.000000 0.000000
# 3 -0.002719 -0.009154 0.016204 0.000000 0.000000 0.000000
# 4 0.000000 0.000000 0.000000 0.114279 0.000000 0.000000
# 5 0.000000 0.000000 0.000000 0.000000 0.024817 0.000000
# 6 0.000000 0.000000 0.000000 0.000000 0.000000 0.037147
#
#
# Mechanical properties :
#
#
# Convention : Reuss Voigt Hill
#
# Bulk Modulus (GPa) = 52.23395 55.21433 53.72414
# Shear Modulus (GPa) = 19.28266 25.75042 22.51654
#
# Velocity S-wave (km/s) = 2.97750 3.44081 3.21750
# Velocity P-wave (km/s) = 5.98632 6.41647 6.20512
#
# Compressibility (1/GPa) = 0.01914464
#
# Stress axis : x y z
#
# Youngs Moduli (GPa) = 67.13688 59.48356 61.71237
#
# Poissons Ratio (x) = 0.14932 0.16777
# Poissons Ratio (y) = 0.16853 0.56491
# Poissons Ratio (z) = 0.18252 0.54451
#
# Static dielectric constant tensor:
#      x y z
#    x 4.107790 0.000000 0.000000 
#    y 0.000000 3.983750 0.000000 
#    z 0.000000 0.000000 3.758760 
# 
# 
# High freq. dielectric constant tensor:
#      x y z
#    x 1.862140 0.000000 0.000000 
#    y 0.000000 1.859070 0.000000 
#    z 0.000000 0.000000 1.854460 
# 
# From -- ./inp_files/9649.got.cif
#   From: 2010.03.12/outbox.cif.g09.slc.cpg/sg41_5_cif.got.tgz:9649.got - 2010.04.14 01:55:53.
