data_PCOD8185601
_publ_section_title
;
Structure prediction by ZEFSAII (Michael W. Deem and Ramdas Pophale) SiO2 
 PCOD8185601
Probable space group: A B A 2
;
_chemical_formula_sum "Si O2"
_cell_formula_units_Z 64
_cell_length_a 11.564623
_cell_length_b 14.214898
_cell_length_c 16.368862
_cell_angle_alpha 90.000000
_cell_angle_beta 90.000000
_cell_angle_gamma 90.000000
_cell_volume 2690.876182
_symmetry_space_group_name_H-M "A B A 2"
_symmetry_group_IT_number 41
_symmetry_cell_setting 'orthorhombic'
loop_
_space_group_symop_operation_xyz
x,y,z
-x,-y,z
1/2-x,y,1/2+z
1/2+x,-y,1/2+z
x,1/2+y,1/2+z
-x,1/2-y,1/2+z
1/2-x,1/2+y,z
1/2+x,1/2-y,z
loop_
_atom_site_type_symbol
_atom_site_label
_atom_site_fract_x
_atom_site_fract_y
_atom_site_fract_z
Si Si1 0.892479 0.430726 0.521120
Si Si2 0.687717 0.835134 0.259652
Si Si3 0.719796 0.632601 0.734184
Si Si4 0.995885 0.392204 0.140546
Si Si5 0.039845 0.897144 0.451666
Si Si6 0.516017 0.300254 0.903539
Si Si7 0.207108 0.423880 0.408371
Si Si8 0.630890 0.473273 0.200051
O O1 0.914455 0.325877 0.486658
O O2 0.800961 0.479471 0.459806
O O3 0.858776 0.416834 0.614997
O O4 0.000000 0.500000 0.516187
O O5 0.732631 0.729684 0.268531
O O6 0.623768 0.848175 0.172508
O O7 0.588287 0.847093 0.328881
O O8 0.797584 0.907444 0.264441
O O9 0.604331 0.657187 0.684584
O O10 0.708775 0.559445 0.810590
O O11 0.809975 0.574343 0.678963
O O12 0.000000 0.500000 0.167692
O O13 0.997559 0.381767 0.043659
O O14 0.989812 0.811454 0.396433
O O15 0.175578 0.880191 0.443014
O O16 0.000000 0.000000 0.418263
O O17 0.393621 0.348480 0.917785
O O18 0.500000 0.500000 0.229324
#
# Coordination Sequence:
#
# PCOD8185601 Si02
#       8
#     8   8   8   8   8   8   8   8
#     4   9  22  41  71 102 137 189 243 295 367 436
#     4  12  26  45  74 112 144 202 250 304 379 450
#     4  12  25  44  73 103 146 190 239 312 366 449
#     4  11  25  47  74 102 145 194 251 299 373 449
#     4  11  27  47  70 110 146 191 243 313 374 437
#     4  11  24  48  75 105 145 196 253 297 373 459
#     4  11  23  45  71 105 142 191 242 308 368 443
#     4  11  26  46  71 109 150 192 246 315 370 437
#
# _framework density 23.784072999999999
#
# number of rings (size 3 to 8) (size 9 to 14) (size 15 to 20)
#    0.000    1.000    3.750    1.500    5.250    4.500 
#    2.250    0.000    0.000    0.000    0.000    0.000 
#    0.000    0.000    0.000    0.000    0.000    0.000 
#
# Total GULP energy -396505.689626 kJ/mol
# GULP energy per Si atom -12390.802801 kJ/mol
# Density = 2.372994 g / cm^3
# Si number density = 23.784073 Si / 1000 Ang^3
#
#
#
# Elastic Constant Matrix: (Units=GPa)
#
#
# Indices 1 2 3 4 5 6 
#
# 1 125.4358 43.8250 20.1285 0.0000 0.0000 0.0000
# 2 43.8250 127.1318 22.5321 0.0000 0.0000 0.0000
# 3 20.1285 22.5321 76.0037 0.0000 0.0000 0.0000
# 4 0.0000 0.0000 0.0000 25.7146 0.0000 0.0000
# 5 0.0000 0.0000 0.0000 0.0000 -6.0924 0.0000
# 6 0.0000 0.0000 0.0000 0.0000 0.0000 33.2234
#
#
#
# Elastic Compliance Matrix: (Units=1/GPa)
#
#
# Indices 1 2 3 4 5 6 
#
# 1 0.009242 -0.002905 -0.001586 0.000000 0.000000 0.000000
# 2 -0.002905 0.009215 -0.001963 0.000000 0.000000 0.000000
# 3 -0.001586 -0.001963 0.014159 0.000000 0.000000 0.000000
# 4 0.000000 0.000000 0.000000 0.038888 0.000000 0.000000
# 5 0.000000 0.000000 0.000000 0.000000 -0.164140 0.000000
# 6 0.000000 0.000000 0.000000 0.000000 0.000000 0.030099
#
#
# Mechanical properties :
#
#
# Convention : Reuss Voigt Hill
#
# Bulk Modulus (GPa) = 50.73950 55.72696 53.23323
# Shear Modulus (GPa) = -116.11793 26.70818 -44.70487
#
# Velocity S-wave (km/s) = -6.99483 3.35467 -4.34015
# Velocity P-wave (km/s) = 6.62248 6.20373 1.63874
#
# Compressibility (1/GPa) = 0.01970851
#
# Stress axis : x y z
#
# Youngs Moduli (GPa) = 108.20650 108.51902 70.62525
#
# Poissons Ratio (x) = 0.31520 0.11204
# Poissons Ratio (y) = 0.31430 0.13861
# Poissons Ratio (z) = 0.17166 0.21298
#
# Static dielectric constant tensor:
#      x y z
#    x 5.036850 0.000000 0.000000 
#    y 0.000000 4.277670 0.000000 
#    z 0.000000 0.000000 4.477720 
# 
# 
# High freq. dielectric constant tensor:
#      x y z
#    x 1.948680 0.000000 0.000000 
#    y 0.000000 1.940290 0.000000 
#    z 0.000000 0.000000 1.939420 
# 
# From -- ./inp_files/10129.got.cif
#   From: 2010.03.12/outbox.cif.g09.slc.cpg/sg41_6_cif.got.tgz:10129.got - 2010.04.14 01:55:53.
