data_PCOD8185768
_publ_section_title
;
Structure prediction by ZEFSAII (Michael W. Deem and Ramdas Pophale) SiO2 
 PCOD8185768
Probable space group: F M M 2
;
_chemical_formula_sum "Si O2"
_cell_formula_units_Z 96
_cell_length_a 8.820834
_cell_length_b 30.431386
_cell_length_c 19.665667
_cell_angle_alpha 90.000000
_cell_angle_beta 90.000000
_cell_angle_gamma 90.000000
_cell_volume 5278.859010
_symmetry_space_group_name_H-M "F M M 2"
_symmetry_group_IT_number 42
_symmetry_cell_setting 'orthorhombic'
loop_
_space_group_symop_operation_xyz
x,y,z
-x,-y,z
-x,y,z
x,-y,z
x,1/2+y,1/2+z
-x,1/2-y,1/2+z
-x,1/2+y,1/2+z
x,1/2-y,1/2+z
1/2+x,y,1/2+z
1/2-x,-y,1/2+z
1/2-x,y,1/2+z
1/2+x,-y,1/2+z
1/2+x,1/2+y,z
1/2-x,1/2-y,z
1/2-x,1/2+y,z
1/2+x,1/2-y,z
loop_
_atom_site_type_symbol
_atom_site_label
_atom_site_fract_x
_atom_site_fract_y
_atom_site_fract_z
Si Si1 0.177332 0.881951 0.370550
Si Si2 0.173157 0.611884 0.713086
Si Si3 0.324603 0.449681 0.608501
Si Si4 0.175323 0.948713 0.969116
Si Si5 0.824046 0.208732 0.221506
Si Si6 0.821347 0.706506 0.368343
O O1 0.220440 0.889869 0.291963
O O2 0.228729 0.924286 0.412024
O O3 0.259440 0.838679 0.401215
O O4 0.000000 0.874206 0.378358
O O5 0.283254 0.579662 0.673100
O O6 0.193228 0.661792 0.683990
O O7 0.000000 0.596310 0.703529
O O8 0.500000 0.443578 0.590602
O O9 0.286625 0.500000 0.627010
O O10 0.228171 0.433759 0.543842
O O11 0.000000 0.936836 0.960615
O O12 0.207743 0.000000 0.958936
O O13 0.750000 0.250000 0.179348
O O14 0.728366 0.206252 0.290253
O O15 0.000000 0.217750 0.238266
O O16 0.750000 0.750000 0.404332
O O17 0.000000 0.708181 0.376550
#
# Coordination Sequence:
#
# PCOD8185768 Si02
#       6
#    16  16  16  16  16  16
#     4  10  20  34  52  77 107 136 170 212 257 301
#     4   9  19  33  50  75 105 135 167 206 252 299
#     4  10  21  36  54  75  99 131 171 211 252 303
#     4  10  21  37  56  76 100 133 171 209 254 310
#     4   9  16  27  44  69 100 133 168 205 248 298
#     4  10  17  27  45  70 101 135 170 207 250 299
#
# _framework density 18.185748
#
# number of rings (size 3 to 8) (size 9 to 14) (size 15 to 20)
#    0.000    2.333    0.000    5.500    0.000    6.667 
#    0.000    3.333    0.000    1.000    0.000    4.667 
#    0.000    0.000    0.000    0.000    0.000    0.000 
#
# Total GULP energy -297524.060646 kJ/mol
# GULP energy per Si atom -12396.835860 kJ/mol
# Density = 1.814436 g / cm^3
# Si number density = 18.185748 Si / 1000 Ang^3
#
#
#
# Elastic Constant Matrix: (Units=GPa)
#
#
# Indices 1 2 3 4 5 6 
#
# 1 105.0087 51.8258 34.4656 0.0000 0.0000 0.0000
# 2 51.8258 106.1825 48.7587 0.0000 0.0000 0.0000
# 3 34.4656 48.7587 56.6074 0.0000 0.0000 0.0000
# 4 0.0000 0.0000 0.0000 1.9478 0.0000 0.0000
# 5 0.0000 0.0000 0.0000 0.0000 26.4878 0.0000
# 6 0.0000 0.0000 0.0000 0.0000 0.0000 38.0120
#
#
#
# Elastic Compliance Matrix: (Units=1/GPa)
#
#
# Indices 1 2 3 4 5 6 
#
# 1 0.013091 -0.004515 -0.004081 0.000000 0.000000 0.000000
# 2 -0.004515 0.017138 -0.012012 0.000000 0.000000 0.000000
# 3 -0.004081 -0.012012 0.030497 0.000000 0.000000 0.000000
# 4 0.000000 0.000000 0.000000 0.513397 0.000000 0.000000
# 5 0.000000 0.000000 0.000000 0.000000 0.037753 0.000000
# 6 0.000000 0.000000 0.000000 0.000000 0.000000 0.026307
#
#
# Mechanical properties :
#
#
# Convention : Reuss Voigt Hill
#
# Bulk Modulus (GPa) = 51.26077 59.76654 55.51365
# Shear Modulus (GPa) = 7.28966 22.13942 14.71454
#
# Velocity S-wave (km/s) = 2.00428 3.49292 2.84760
# Velocity P-wave (km/s) = 5.79696 7.01450 6.43459
#
# Compressibility (1/GPa) = 0.01950810
#
# Stress axis : x y z
#
# Youngs Moduli (GPa) = 76.38783 58.35115 32.79004
#
# Poissons Ratio (x) = 0.26348 0.13382
# Poissons Ratio (y) = 0.34493 0.39388
# Poissons Ratio (z) = 0.31175 0.70093
#
# Static dielectric constant tensor:
#      x y z
#    x 3.437200 0.000000 0.000000 
#    y 0.000000 3.957060 0.000000 
#    z 0.000000 0.000000 2.905000 
# 
# 
# High freq. dielectric constant tensor:
#      x y z
#    x 1.720050 0.000000 0.000000 
#    y 0.000000 1.723370 0.000000 
#    z 0.000000 0.000000 1.650800 
# 
# From -- ./inp_files/23718.got.cif
#   From: 2010.03.12/outbox.cif.g09.slc.cpg/sg42_12_cif.got.tgz:23718.got - 2010.04.14 02:04:31.
