data_PCOD8185079
_publ_section_title
;
Structure prediction by ZEFSAII (Michael W. Deem and Ramdas Pophale) SiO2 
 PCOD8185079
Probable space group: A B A 2
;
_chemical_formula_sum "Si O2"
_cell_formula_units_Z 64
_cell_length_a 15.285073
_cell_length_b 22.369188
_cell_length_c 8.928247
_cell_angle_alpha 90.000000
_cell_angle_beta 90.000000
_cell_angle_gamma 90.000000
_cell_volume 3052.698640
_symmetry_space_group_name_H-M "A B A 2"
_symmetry_group_IT_number 41
_symmetry_cell_setting 'orthorhombic'
loop_
_space_group_symop_operation_xyz
x,y,z
-x,-y,z
1/2-x,y,1/2+z
1/2+x,-y,1/2+z
x,1/2+y,1/2+z
-x,1/2-y,1/2+z
1/2-x,1/2+y,z
1/2+x,1/2-y,z
loop_
_atom_site_type_symbol
_atom_site_label
_atom_site_fract_x
_atom_site_fract_y
_atom_site_fract_z
Si Si1 0.056723 0.335993 0.304690
Si Si2 0.820957 0.227337 0.011227
Si Si3 0.155926 0.644009 0.866044
Si Si4 0.019609 0.429503 0.837244
Si Si5 0.610133 0.266524 0.816922
Si Si6 0.488861 0.065899 0.499624
Si Si7 0.816785 0.869944 0.025835
Si Si8 0.137801 0.839504 0.494070
O O1 0.096060 0.310181 0.457706
O O2 0.975198 0.296896 0.244941
O O3 0.025389 0.400235 0.356500
O O4 0.125440 0.342702 0.171738
O O5 0.825473 0.241829 0.187600
O O6 0.833344 0.289042 0.924238
O O7 0.736576 0.185939 0.968880
O O8 0.062127 0.612298 0.886780
O O9 0.189655 0.649285 0.697109
O O10 0.224378 0.604782 0.964972
O O11 0.036123 0.422100 0.659289
O O12 0.000000 0.500000 0.875170
O O13 0.107503 0.403726 0.920844
O O14 0.576619 0.210014 0.914512
O O15 0.659108 0.311457 0.928795
O O16 0.386063 0.077409 0.514936
O O17 0.500000 0.000000 0.444907
#
# Coordination Sequence:
#
# PCOD8185079 Si02
#       8
#     8   8   8   8   8   8   8   8
#     4  11  23  38  61  94 127 171 212 267 330 393
#     4  12  24  39  62  95 136 170 207 271 329 395
#     4  11  21  39  64  94 126 165 217 261 335 393
#     4  10  23  45  69  91 125 178 226 275 326 401
#     4  11  21  38  61  92 130 167 210 260 332 399
#     4   9  21  44  67  89 124 169 227 270 329 396
#     4  10  21  36  64  95 124 167 209 270 325 400
#     4  12  24  39  59  94 131 165 216 272 330 389
#
# _framework density 20.965056000000001
#
# number of rings (size 3 to 8) (size 9 to 14) (size 15 to 20)
#    0.000    1.250    1.250    5.250    0.000    3.500 
#    2.250    0.000    0.000    0.000    0.000    0.000 
#    0.000    0.000    0.000    0.000    0.000    0.000 
#
# Total GULP energy -396469.333832 kJ/mol
# GULP energy per Si atom -12389.666682 kJ/mol
# Density = 2.091734 g / cm^3
# Si number density = 20.965056 Si / 1000 Ang^3
#
#
#
# Elastic Constant Matrix: (Units=GPa)
#
#
# Indices 1 2 3 4 5 6 
#
# 1 88.0475 52.5626 39.8909 0.0000 0.0000 0.0000
# 2 52.5626 98.4453 31.2774 0.0000 0.0000 0.0000
# 3 39.8909 31.2774 104.1157 0.0000 0.0000 0.0000
# 4 0.0000 0.0000 0.0000 -102.5313 0.0000 0.0000
# 5 0.0000 0.0000 0.0000 0.0000 33.2322 0.0000
# 6 0.0000 0.0000 0.0000 0.0000 0.0000 14.1966
#
#
#
# Elastic Compliance Matrix: (Units=1/GPa)
#
#
# Indices 1 2 3 4 5 6 
#
# 1 0.018426 -0.008396 -0.004537 0.000000 0.000000 0.000000
# 2 -0.008396 0.015056 -0.001306 0.000000 0.000000 0.000000
# 3 -0.004537 -0.001306 0.011735 0.000000 0.000000 0.000000
# 4 0.000000 0.000000 0.000000 -0.009753 0.000000 0.000000
# 5 0.000000 0.000000 0.000000 0.000000 0.030091 0.000000
# 6 0.000000 0.000000 0.000000 0.000000 0.000000 0.070439
#
#
# Mechanical properties :
#
#
# Convention : Reuss Voigt Hill
#
# Bulk Modulus (GPa) = 59.74505 59.78559 59.76532
# Shear Modulus (GPa) = 29.40264 0.10469 14.75367
#
# Velocity S-wave (km/s) = 3.74901 0.22371 2.65566
# Velocity P-wave (km/s) = 6.87745 5.35214 6.16217
#
# Compressibility (1/GPa) = 0.01673779
#
# Stress axis : x y z
#
# Youngs Moduli (GPa) = 54.27221 66.41918 85.21215
#
# Poissons Ratio (x) = 0.55768 0.38663
# Poissons Ratio (y) = 0.45569 0.11128
# Poissons Ratio (z) = 0.24625 0.08674
#
# Static dielectric constant tensor:
#      x y z
#    x 6.125180 0.000000 0.000000 
#    y 0.000000 4.027250 0.000000 
#    z 0.000000 0.000000 3.937010 
# 
# 
# High freq. dielectric constant tensor:
#      x y z
#    x 1.820810 0.000000 0.000000 
#    y 0.000000 1.805580 0.000000 
#    z 0.000000 0.000000 1.834340 
# 
# From -- ./inp_files/2805.got.cif
#   From: 2010.03.12/outbox.cif.g09.slc.cpg/sg41_2_cif.got.tgz:2805.got - 2010.04.14 01:55:53.
