data_PCOD8185569
_publ_section_title
;
Structure prediction by ZEFSAII (Michael W. Deem and Ramdas Pophale) SiO2 
 PCOD8185569
Probable space group: A B A 2
;
_chemical_formula_sum "Si O2"
_cell_formula_units_Z 48
_cell_length_a 11.572940
_cell_length_b 11.226559
_cell_length_c 16.083449
_cell_angle_alpha 90.000000
_cell_angle_beta 90.000000
_cell_angle_gamma 90.000000
_cell_volume 2089.630752
_symmetry_space_group_name_H-M "A B A 2"
_symmetry_group_IT_number 41
_symmetry_cell_setting 'orthorhombic'
loop_
_space_group_symop_operation_xyz
x,y,z
-x,-y,z
1/2-x,y,1/2+z
1/2+x,-y,1/2+z
x,1/2+y,1/2+z
-x,1/2-y,1/2+z
1/2-x,1/2+y,z
1/2+x,1/2-y,z
loop_
_atom_site_type_symbol
_atom_site_label
_atom_site_fract_x
_atom_site_fract_y
_atom_site_fract_z
Si Si1 0.036006 0.173971 0.525410
Si Si2 0.077400 0.606573 0.209918
Si Si3 0.833843 0.969876 0.171564
Si Si4 0.950041 0.645619 0.764351
Si Si5 0.857983 0.051437 0.434777
Si Si6 0.886953 0.059343 0.993254
O O1 0.028174 0.145875 0.621849
O O2 0.087091 0.304220 0.514120
O O3 0.902613 0.157542 0.495898
O O4 0.108717 0.078131 0.471482
O O5 0.210455 0.576214 0.198709
O O6 0.059350 0.712825 0.276571
O O7 0.000000 0.500000 0.245527
O O8 0.927991 0.891014 0.221917
O O9 0.848647 0.106818 0.200497
O O10 0.854036 0.974740 0.072354
O O11 0.922578 0.573876 0.848188
O O12 0.719073 0.057147 0.428091
O O13 0.000000 0.000000 0.951338
#
# Coordination Sequence:
#
# PCOD8185569 Si02
#       6
#     8   8   8   8   8   8
#     4  11  22  44  74 103 150 203 249 314 382 450
#     4  12  24  42  77 113 142 201 268 312 368 466
#     4  11  22  45  73 104 153 198 254 315 384 444
#     4  11  26  47  73 105 154 207 244 315 399 446
#     4  11  26  47  73 106 154 203 249 312 397 454
#     4  12  24  43  76 113 143 196 266 316 370 458
#
# _framework density 22.970566999999999
#
# number of rings (size 3 to 8) (size 9 to 14) (size 15 to 20)
#    0.000    0.667    6.667    2.000    4.667    4.000 
#    0.000    0.000    0.000    0.000    0.000    0.000 
#    0.000    0.000    0.000    0.000    0.000    0.000 
#
# Total GULP energy -297365.058729 kJ/mol
# GULP energy per Si atom -12390.210780 kJ/mol
# Density = 2.291828 g / cm^3
# Si number density = 22.970567 Si / 1000 Ang^3
#
#
#
# Elastic Constant Matrix: (Units=GPa)
#
#
# Indices 1 2 3 4 5 6 
#
# 1 169.5778 52.7036 36.5259 0.0000 0.0000 0.0000
# 2 52.7036 140.2756 22.2434 0.0000 0.0000 0.0000
# 3 36.5259 22.2434 68.8290 0.0000 0.0000 0.0000
# 4 0.0000 0.0000 0.0000 26.5479 0.0000 0.0000
# 5 0.0000 0.0000 0.0000 0.0000 24.1787 0.0000
# 6 0.0000 0.0000 0.0000 0.0000 0.0000 26.3450
#
#
#
# Elastic Compliance Matrix: (Units=1/GPa)
#
#
# Indices 1 2 3 4 5 6 
#
# 1 0.007266 -0.002233 -0.003134 0.000000 0.000000 0.000000
# 2 -0.002233 0.008200 -0.001465 0.000000 0.000000 0.000000
# 3 -0.003134 -0.001465 0.016666 0.000000 0.000000 0.000000
# 4 0.000000 0.000000 0.000000 0.037668 0.000000 0.000000
# 5 0.000000 0.000000 0.000000 0.000000 0.041359 0.000000
# 6 0.000000 0.000000 0.000000 0.000000 0.000000 0.037958
#
#
# Mechanical properties :
#
#
# Convention : Reuss Voigt Hill
#
# Bulk Modulus (GPa) = 54.15045 66.84758 60.49901
# Shear Modulus (GPa) = 29.59696 33.22831 31.41263
#
# Velocity S-wave (km/s) = 3.59343 3.80749 3.70201
# Velocity P-wave (km/s) = 6.39077 6.96376 6.68341
#
# Compressibility (1/GPa) = 0.01846707
#
# Stress axis : x y z
#
# Youngs Moduli (GPa) = 137.62546 121.94981 60.00416
#
# Poissons Ratio (x) = 0.27231 0.18807
# Poissons Ratio (y) = 0.30731 0.08791
# Poissons Ratio (z) = 0.43136 0.17866
#
# Static dielectric constant tensor:
#      x y z
#    x 4.353050 0.000000 0.000000 
#    y 0.000000 4.496400 0.000000 
#    z 0.000000 0.000000 4.144670 
# 
# 
# High freq. dielectric constant tensor:
#      x y z
#    x 1.912570 0.000000 0.000000 
#    y 0.000000 1.912060 0.000000 
#    z 0.000000 0.000000 1.898330 
# 
# From -- ./inp_files/9979.got.cif
#   From: 2010.03.12/outbox.cif.g09.slc.cpg/sg41_5_cif.got.tgz:9979.got - 2010.04.14 01:55:53.
