data_PCOD8185695
_publ_section_title
;
Structure prediction by ZEFSAII (Michael W. Deem and Ramdas Pophale) SiO2 
 PCOD8185695
Probable space group: A B A 2
;
_chemical_formula_sum "Si O2"
_cell_formula_units_Z 56
_cell_length_a 33.158499
_cell_length_b 13.491423
_cell_length_c 5.487851
_cell_angle_alpha 90.000000
_cell_angle_beta 90.000000
_cell_angle_gamma 90.000000
_cell_volume 2455.019428
_symmetry_space_group_name_H-M "A B A 2"
_symmetry_group_IT_number 41
_symmetry_cell_setting 'orthorhombic'
loop_
_space_group_symop_operation_xyz
x,y,z
-x,-y,z
1/2-x,y,1/2+z
1/2+x,-y,1/2+z
x,1/2+y,1/2+z
-x,1/2-y,1/2+z
1/2-x,1/2+y,z
1/2+x,1/2-y,z
loop_
_atom_site_type_symbol
_atom_site_label
_atom_site_fract_x
_atom_site_fract_y
_atom_site_fract_z
Si Si1 0.587699 0.374248 0.891830
Si Si2 0.475487 0.759996 0.704029
Si Si3 0.161711 0.415295 0.896123
Si Si4 0.832351 0.379833 0.103371
Si Si5 0.917100 0.078894 0.106463
Si Si6 0.774417 0.715595 0.698703
Si Si7 0.375560 0.268214 0.751565
O O1 0.558438 0.327288 0.686977
O O2 0.632590 0.397717 0.799517
O O3 0.568237 0.476407 0.986402
O O4 0.590678 0.290168 0.098249
O O5 0.498850 0.757277 0.448472
O O6 0.455152 0.868689 0.734697
O O7 0.117805 0.446959 0.798660
O O8 0.190660 0.369083 0.689284
O O9 0.182134 0.513595 0.006042
O O10 0.156512 0.328199 0.091271
O O11 0.793660 0.325611 0.218993
O O12 0.848496 0.310298 0.890921
O O13 0.900396 0.156591 0.913731
O O14 0.750928 0.700504 0.445878
#
# Coordination Sequence:
#
# PCOD8185695 Si02
#       7
#     8   8   8   8   8   8   8
#     4  12  25  44  77 108 136 194 250 310 356 428
#     4  12  28  50  73 105 160 200 232 298 374 448
#     4  12  25  43  77 107 140 191 252 308 358 426
#     4  12  25  43  77 107 140 191 252 308 358 426
#     4  12  25  44  77 108 136 194 250 310 356 428
#     4  12  28  48  71 105 158 198 232 296 372 448
#     4  12  20  44  72 108 142 174 248 312 362 406
#
# _framework density 22.810410000000001
#
# number of rings (size 3 to 8) (size 9 to 14) (size 15 to 20)
#    0.000    0.000    8.571    1.714    0.000    1.714 
#    0.000    4.286    0.000    0.000    0.000    0.000 
#    0.000    0.000    0.000    0.000    0.000    0.000 
#
# Total GULP energy -347269.535128 kJ/mol
# GULP energy per Si atom -12402.483397 kJ/mol
# Density = 2.275849 g / cm^3
# Si number density = 22.810410 Si / 1000 Ang^3
#
#
#
# Elastic Constant Matrix: (Units=GPa)
#
#
# Indices 1 2 3 4 5 6 
#
# 1 59.6722 9.6233 13.3062 0.0000 0.0000 0.0000
# 2 9.6233 144.4476 15.8635 0.0000 0.0000 0.0000
# 3 13.3062 15.8635 92.9350 0.0000 0.0000 0.0000
# 4 0.0000 0.0000 0.0000 35.8576 0.0000 0.0000
# 5 0.0000 0.0000 0.0000 0.0000 41.7387 0.0000
# 6 0.0000 0.0000 0.0000 0.0000 0.0000 15.3619
#
#
#
# Elastic Compliance Matrix: (Units=1/GPa)
#
#
# Indices 1 2 3 4 5 6 
#
# 1 0.017426 -0.000904 -0.002341 0.000000 0.000000 0.000000
# 2 -0.000904 0.007102 -0.001083 0.000000 0.000000 0.000000
# 3 -0.002341 -0.001083 0.011280 0.000000 0.000000 0.000000
# 4 0.000000 0.000000 0.000000 0.027888 0.000000 0.000000
# 5 0.000000 0.000000 0.000000 0.000000 0.023959 0.000000
# 6 0.000000 0.000000 0.000000 0.000000 0.000000 0.065096
#
#
# Mechanical properties :
#
#
# Convention : Reuss Voigt Hill
#
# Bulk Modulus (GPa) = 36.82798 41.62675 39.22737
# Shear Modulus (GPa) = 29.33289 35.80909 32.57099
#
# Velocity S-wave (km/s) = 3.58990 3.96644 3.78286
# Velocity P-wave (km/s) = 5.77611 6.26622 6.02615
#
# Compressibility (1/GPa) = 0.02715327
#
# Stress axis : x y z
#
# Youngs Moduli (GPa) = 57.38569 140.80408 88.65097
#
# Poissons Ratio (x) = 0.12727 0.20751
# Poissons Ratio (y) = 0.05187 0.09600
# Poissons Ratio (z) = 0.13432 0.15247
#
# Static dielectric constant tensor:
#      x y z
#    x 4.396420 0.000000 0.000000 
#    y 0.000000 4.302290 0.000000 
#    z 0.000000 0.000000 4.171540 
# 
# 
# High freq. dielectric constant tensor:
#      x y z
#    x 1.891560 0.000000 0.000000 
#    y 0.000000 1.912510 0.000000 
#    z 0.000000 0.000000 1.905340 
# 
# From -- ./inp_files/1352.got.cif
#   From: 2010.03.12/outbox.cif.g09.slc.cpg/sg41_1_cif.got.tgz:1352.got - 2010.04.14 01:55:53.
