data_PCOD8185907
_publ_section_title
;
Structure prediction by ZEFSAII (Michael W. Deem and Ramdas Pophale) SiO2 
 PCOD8185907
Probable space group: F M M 2
;
_chemical_formula_sum "Si O2"
_cell_formula_units_Z 80
_cell_length_a 7.621897
_cell_length_b 19.137932
_cell_length_c 29.118593
_cell_angle_alpha 90.000000
_cell_angle_beta 90.000000
_cell_angle_gamma 90.000000
_cell_volume 4247.451895
_symmetry_space_group_name_H-M "F M M 2"
_symmetry_group_IT_number 42
_symmetry_cell_setting 'orthorhombic'
loop_
_space_group_symop_operation_xyz
x,y,z
-x,-y,z
-x,y,z
x,-y,z
x,1/2+y,1/2+z
-x,1/2-y,1/2+z
-x,1/2+y,1/2+z
x,1/2-y,1/2+z
1/2+x,y,1/2+z
1/2-x,-y,1/2+z
1/2-x,y,1/2+z
1/2+x,-y,1/2+z
1/2+x,1/2+y,z
1/2-x,1/2-y,z
1/2-x,1/2+y,z
1/2+x,1/2-y,z
loop_
_atom_site_type_symbol
_atom_site_label
_atom_site_fract_x
_atom_site_fract_y
_atom_site_fract_z
Si Si1 0.291603 0.922793 0.212900
Si Si2 0.194815 0.916558 0.612030
Si Si3 0.500000 0.917122 0.548075
Si Si4 0.000000 0.916283 0.942788
Si Si5 0.197405 0.329905 0.896062
Si Si6 0.794050 0.327281 0.294042
O O1 0.500000 0.925643 0.215746
O O2 0.239998 0.892132 0.162718
O O3 0.215843 0.876016 0.254017
O O4 0.211649 0.000000 0.219286
O O5 0.327261 0.887189 0.573566
O O6 0.000000 0.887292 0.600969
O O7 0.189340 0.000000 0.612217
O O8 0.500000 0.892895 0.495728
O O9 0.500000 0.000000 0.551575
O O10 0.174448 0.884427 0.920567
O O11 0.000000 0.000000 0.936399
O O12 0.250000 0.250000 0.906556
O O13 0.199286 0.344561 0.841747
O O14 0.000000 0.342955 0.914165
O O15 0.750000 0.250000 0.277524
O O16 0.000000 0.337933 0.301821
#
# Coordination Sequence:
#
# PCOD8185907 Si02
#       6
#    16  16   8   8  16  16
#     4   8  15  28  49  76 105 143 183 222 273 321
#     4   8  14  28  49  73 105 143 182 221 268 334
#     4   9  18  32  52  79 110 141 177 228 288 333
#     4  11  24  40  60  93 123 145 191 256 303 337
#     4  11  21  40  64  84 112 159 203 235 289 362
#     4  10  18  32  52  79 109 148 189 227 270 336
#
# _framework density 18.834821999999999
#
# number of rings (size 3 to 8) (size 9 to 14) (size 15 to 20)
#    0.000    2.600    2.000    3.000    0.000    2.000 
#    3.600    2.000    0.000    1.200    0.000    0.000 
#    0.000    0.000    0.000    0.000    0.000    0.000 
#
# Total GULP energy -247909.734012 kJ/mol
# GULP energy per Si atom -12395.486701 kJ/mol
# Density = 1.879195 g / cm^3
# Si number density = 18.834822 Si / 1000 Ang^3
#
#
#
# Elastic Constant Matrix: (Units=GPa)
#
#
# Indices 1 2 3 4 5 6 
#
# 1 119.9632 37.4697 52.8318 0.0000 0.0000 0.0000
# 2 37.4697 72.6103 65.6555 0.0000 0.0000 0.0000
# 3 52.8318 65.6555 135.5316 0.0000 0.0000 0.0000
# 4 0.0000 0.0000 0.0000 8.3688 0.0000 0.0000
# 5 0.0000 0.0000 0.0000 0.0000 19.9896 0.0000
# 6 0.0000 0.0000 0.0000 0.0000 0.0000 20.6010
#
#
#
# Elastic Compliance Matrix: (Units=1/GPa)
#
#
# Indices 1 2 3 4 5 6 
#
# 1 0.010426 -0.003035 -0.002594 0.000000 0.000000 0.000000
# 2 -0.003035 0.025390 -0.011117 0.000000 0.000000 0.000000
# 3 -0.002594 -0.011117 0.013775 0.000000 0.000000 0.000000
# 4 0.000000 0.000000 0.000000 0.119492 0.000000 0.000000
# 5 0.000000 0.000000 0.000000 0.000000 0.050026 0.000000
# 6 0.000000 0.000000 0.000000 0.000000 0.000000 0.048541
#
#
# Mechanical properties :
#
#
# Convention : Reuss Voigt Hill
#
# Bulk Modulus (GPa) = 62.11169 71.11324 66.61247
# Shear Modulus (GPa) = 16.31278 21.26843 18.79060
#
# Velocity S-wave (km/s) = 2.94614 3.36401 3.16199
# Velocity P-wave (km/s) = 6.67995 7.27510 6.98386
#
# Compressibility (1/GPa) = 0.01610003
#
# Stress axis : x y z
#
# Youngs Moduli (GPa) = 95.91210 39.38541 72.59569
#
# Poissons Ratio (x) = 0.11952 0.18833
# Poissons Ratio (y) = 0.29105 0.80703
# Poissons Ratio (z) = 0.24882 0.43784
#
# Static dielectric constant tensor:
#      x y z
#    x 3.529670 0.000000 0.000000 
#    y 0.000000 3.115710 0.000000 
#    z 0.000000 0.000000 3.639240 
# 
# 
# High freq. dielectric constant tensor:
#      x y z
#    x 1.736250 0.000000 0.000000 
#    y 0.000000 1.689620 0.000000 
#    z 0.000000 0.000000 1.732670 
# 
# From -- ./inp_files/31296.got.cif
#   From: 2010.03.12/outbox.cif.g09.slc.cpg/sg42_16_cif.got.tgz:31296.got - 2010.04.14 02:04:31.
