data_PCOD8185117
_publ_section_title
;
Structure prediction by ZEFSAII (Michael W. Deem and Ramdas Pophale) SiO2 
 PCOD8185117
Probable space group: A B A 2
;
_chemical_formula_sum "Si O2"
_cell_formula_units_Z 64
_cell_length_a 18.088396
_cell_length_b 10.955550
_cell_length_c 15.749711
_cell_angle_alpha 90.000000
_cell_angle_beta 90.000000
_cell_angle_gamma 90.000000
_cell_volume 3121.093876
_symmetry_space_group_name_H-M "A B A 2"
_symmetry_group_IT_number 41
_symmetry_cell_setting 'orthorhombic'
loop_
_space_group_symop_operation_xyz
x,y,z
-x,-y,z
1/2-x,y,1/2+z
1/2+x,-y,1/2+z
x,1/2+y,1/2+z
-x,1/2-y,1/2+z
1/2-x,1/2+y,z
1/2+x,1/2-y,z
loop_
_atom_site_type_symbol
_atom_site_label
_atom_site_fract_x
_atom_site_fract_y
_atom_site_fract_z
Si Si1 0.161598 0.705880 0.143830
Si Si2 0.093084 0.746598 0.306228
Si Si3 0.172011 0.401818 0.513800
Si Si4 0.923434 0.023640 0.593700
Si Si5 0.668595 0.167663 0.972506
Si Si6 0.913094 0.019974 0.856288
Si Si7 0.325489 0.138990 0.616583
Si Si8 0.932683 0.220968 0.733240
O O1 0.138721 0.789536 0.223889
O O2 0.144576 0.776644 0.056457
O O3 0.109800 0.587051 0.147945
O O4 0.247801 0.680218 0.154539
O O5 0.121315 0.825311 0.386149
O O6 0.120100 0.607621 0.324357
O O7 0.006062 0.766970 0.283723
O O8 0.246029 0.370879 0.459585
O O9 0.109862 0.453219 0.452322
O O10 0.181088 0.497235 0.591624
O O11 0.862256 0.054548 0.525297
O O12 0.950444 0.131233 0.655954
O O13 0.000000 0.000000 0.544017
O O14 0.657640 0.288950 0.029004
O O15 0.886932 0.136595 0.800014
O O16 0.000000 0.000000 0.853212
O O17 0.385500 0.166776 0.691988
#
# Coordination Sequence:
#
# PCOD8185117 Si02
#       8
#     8   8   8   8   8   8   8   8
#     4  11  23  38  64  93 127 165 220 261 321 393
#     4  11  21  41  64  95 125 165 215 270 320 382
#     4  11  23  41  61  96 129 171 212 264 333 384
#     4  11  19  39  66  89 123 170 210 265 317 391
#     4  10  23  39  65  93 132 166 220 266 323 390
#     4  10  21  38  64  92 126 165 216 264 319 390
#     4  10  22  42  62  93 130 174 209 268 324 393
#     4  10  21  38  66  93 121 164 223 255 321 392
#
# _framework density 20.505631000000001
#
# number of rings (size 3 to 8) (size 9 to 14) (size 15 to 20)
#    0.000    1.500    5.000    0.375    1.750    3.000 
#    0.000    2.500    0.000    0.000    0.000    0.000 
#    0.000    0.000    0.000    0.000    0.000    0.000 
#
# Total GULP energy -396528.758747 kJ/mol
# GULP energy per Si atom -12391.523711 kJ/mol
# Density = 2.045896 g / cm^3
# Si number density = 20.505631 Si / 1000 Ang^3
#
#
#
# Elastic Constant Matrix: (Units=GPa)
#
#
# Indices 1 2 3 4 5 6 
#
# 1 64.7625 19.6155 37.5208 0.0000 0.0000 0.0000
# 2 19.6155 53.7918 17.8738 0.0000 0.0000 0.0000
# 3 37.5208 17.8738 93.1390 0.0000 0.0000 0.0000
# 4 0.0000 0.0000 0.0000 24.0653 0.0000 0.0000
# 5 0.0000 0.0000 0.0000 0.0000 43.7560 0.0000
# 6 0.0000 0.0000 0.0000 0.0000 0.0000 22.7507
#
#
#
# Elastic Compliance Matrix: (Units=1/GPa)
#
#
# Indices 1 2 3 4 5 6 
#
# 1 0.021465 -0.005292 -0.007632 0.000000 0.000000 0.000000
# 2 -0.005292 0.021161 -0.001929 0.000000 0.000000 0.000000
# 3 -0.007632 -0.001929 0.014181 0.000000 0.000000 0.000000
# 4 0.000000 0.000000 0.000000 0.041554 0.000000 0.000000
# 5 0.000000 0.000000 0.000000 0.000000 0.022854 0.000000
# 6 0.000000 0.000000 0.000000 0.000000 0.000000 0.043955
#
#
# Mechanical properties :
#
#
# Convention : Reuss Voigt Hill
#
# Bulk Modulus (GPa) = 36.89709 40.19038 38.54374
# Shear Modulus (GPa) = 24.52075 27.22660 25.87368
#
# Velocity S-wave (km/s) = 3.46179 3.64780 3.55601
# Velocity P-wave (km/s) = 5.83193 6.11426 5.97476
#
# Compressibility (1/GPa) = 0.02710241
#
# Stress axis : x y z
#
# Youngs Moduli (GPa) = 46.58680 47.25716 70.51546
#
# Poissons Ratio (x) = 0.25006 0.53816
# Poissons Ratio (y) = 0.24652 0.13604
# Poissons Ratio (z) = 0.35554 0.09117
#
# Static dielectric constant tensor:
#      x y z
#    x 3.613310 0.000000 0.000000 
#    y 0.000000 3.698740 0.000000 
#    z 0.000000 0.000000 3.633840 
# 
# 
# High freq. dielectric constant tensor:
#      x y z
#    x 1.799740 0.000000 0.000000 
#    y 0.000000 1.786450 0.000000 
#    z 0.000000 0.000000 1.798970 
# 
# From -- ./inp_files/8836.got.cif
#   From: 2010.03.12/outbox.cif.g09.slc.cpg/sg41_5_cif.got.tgz:8836.got - 2010.04.14 01:55:53.
