data_PCOD8185823
_publ_section_title
;
Structure prediction by ZEFSAII (Michael W. Deem and Ramdas Pophale) SiO2 
 PCOD8185823
Probable space group: F M M 2
;
_chemical_formula_sum "Si O2"
_cell_formula_units_Z 88
_cell_length_a 24.343728
_cell_length_b 9.295788
_cell_length_c 20.650255
_cell_angle_alpha 90.000000
_cell_angle_beta 90.000000
_cell_angle_gamma 90.000000
_cell_volume 4673.031585
_symmetry_space_group_name_H-M "F M M 2"
_symmetry_group_IT_number 42
_symmetry_cell_setting 'orthorhombic'
loop_
_space_group_symop_operation_xyz
x,y,z
-x,-y,z
-x,y,z
x,-y,z
x,1/2+y,1/2+z
-x,1/2-y,1/2+z
-x,1/2+y,1/2+z
x,1/2-y,1/2+z
1/2+x,y,1/2+z
1/2-x,-y,1/2+z
1/2-x,y,1/2+z
1/2+x,-y,1/2+z
1/2+x,1/2+y,z
1/2-x,1/2-y,z
1/2-x,1/2+y,z
1/2+x,1/2-y,z
loop_
_atom_site_type_symbol
_atom_site_label
_atom_site_fract_x
_atom_site_fract_y
_atom_site_fract_z
Si Si1 0.500000 0.753349 0.347021
Si Si2 0.000000 0.655484 0.483542
Si Si3 0.000000 0.661907 0.206275
Si Si4 0.109438 0.330516 0.705392
Si Si5 0.117483 0.341025 0.849195
Si Si6 0.806577 0.668367 0.594075
Si Si7 0.380974 0.328651 0.975318
O O1 0.500000 0.865484 0.405877
O O2 0.500000 0.850984 0.283512
O O3 0.448253 0.647601 0.350189
O O4 0.058641 0.732800 0.499511
O O5 0.000000 0.500000 0.518008
O O6 0.945582 0.746867 0.183644
O O7 0.000000 0.500000 0.177217
O O8 0.095740 0.500000 0.704237
O O9 0.132680 0.285197 0.776679
O O10 0.156353 0.288291 0.654934
O O11 0.142182 0.500000 0.861582
O O12 0.138523 0.235785 0.906177
O O13 0.794508 0.500000 0.592857
O O14 0.750000 0.750000 0.600236
O O15 0.836630 0.717475 0.528252
O O16 0.385694 0.500000 0.967569
#
# Coordination Sequence:
#
# PCOD8185823 Si02
#       7
#     8   8   8  16  16  16  16
#     4   8  14  24  41  69 108 142 164 191 241 300
#     4   8  13  24  44  71 101 129 157 192 238 296
#     4  10  18  28  49  82 113 139 171 211 255 306
#     4   9  19  35  54  77 108 143 174 209 260 317
#     4   9  16  28  49  76 105 136 169 204 247 303
#     4  10  22  40  58  74  97 136 182 224 268 315
#     4   9  18  32  52  78 105 133 167 208 255 306
#
# _framework density 18.831458000000001
#
# number of rings (size 3 to 8) (size 9 to 14) (size 15 to 20)
#    0.000    2.909    0.000    0.818    0.000    8.727 
#    0.000    3.636    0.000    4.364    0.000    0.000 
#    0.000    0.000    0.000    0.000    0.000    0.000 
#
# Total GULP energy -272564.356024 kJ/mol
# GULP energy per Si atom -12389.288910 kJ/mol
# Density = 1.878860 g / cm^3
# Si number density = 18.831458 Si / 1000 Ang^3
#
#
#
# Elastic Constant Matrix: (Units=GPa)
#
#
# Indices 1 2 3 4 5 6 
#
# 1 127.3240 46.4761 74.0225 0.0000 0.0000 0.0000
# 2 46.4761 63.1399 43.1574 0.0000 0.0000 0.0000
# 3 74.0225 43.1574 133.0709 0.0000 0.0000 0.0000
# 4 0.0000 0.0000 0.0000 25.0835 0.0000 0.0000
# 5 0.0000 0.0000 0.0000 0.0000 4.2564 0.0000
# 6 0.0000 0.0000 0.0000 0.0000 0.0000 26.9577
#
#
#
# Elastic Compliance Matrix: (Units=1/GPa)
#
#
# Indices 1 2 3 4 5 6 
#
# 1 0.013180 -0.006026 -0.005377 0.000000 0.000000 0.000000
# 2 -0.006026 0.023104 -0.004141 0.000000 0.000000 0.000000
# 3 -0.005377 -0.004141 0.011849 0.000000 0.000000 0.000000
# 4 0.000000 0.000000 0.000000 0.039867 0.000000 0.000000
# 5 0.000000 0.000000 0.000000 0.000000 0.234943 0.000000
# 6 0.000000 0.000000 0.000000 0.000000 0.000000 0.037095
#
#
# Mechanical properties :
#
#
# Convention : Reuss Voigt Hill
#
# Bulk Modulus (GPa) = 58.67033 72.31630 65.49332
# Shear Modulus (GPa) = 12.60060 21.91810 17.25935
#
# Velocity S-wave (km/s) = 2.58955 3.41531 3.03069
# Velocity P-wave (km/s) = 6.33752 7.35103 6.86301
#
# Compressibility (1/GPa) = 0.01704439
#
# Stress axis : x y z
#
# Youngs Moduli (GPa) = 75.87460 43.28269 84.39644
#
# Poissons Ratio (x) = 0.26082 0.45380
# Poissons Ratio (y) = 0.45722 0.34949
# Poissons Ratio (z) = 0.40798 0.17923
#
# Static dielectric constant tensor:
#      x y z
#    x 3.278960 0.000000 0.000000 
#    y 0.000000 3.159520 0.000000 
#    z 0.000000 0.000000 3.589100 
# 
# 
# High freq. dielectric constant tensor:
#      x y z
#    x 1.706650 0.000000 0.000000 
#    y 0.000000 1.709790 0.000000 
#    z 0.000000 0.000000 1.733440 
# 
# From -- ./inp_files/23559.got.cif
#   From: 2010.03.12/outbox.cif.g09.slc.cpg/sg42_12_cif.got.tgz:23559.got - 2010.04.14 02:04:31.
