data_PCOD8185474
_publ_section_title
;
Structure prediction by ZEFSAII (Michael W. Deem and Ramdas Pophale) SiO2 
 PCOD8185474
Probable space group: A B A 2
;
_chemical_formula_sum "Si O2"
_cell_formula_units_Z 40
_cell_length_a 12.981353
_cell_length_b 11.437529
_cell_length_c 12.790672
_cell_angle_alpha 90.000000
_cell_angle_beta 90.000000
_cell_angle_gamma 90.000000
_cell_volume 1899.089927
_symmetry_space_group_name_H-M "A B A 2"
_symmetry_group_IT_number 41
_symmetry_cell_setting 'orthorhombic'
loop_
_space_group_symop_operation_xyz
x,y,z
-x,-y,z
1/2-x,y,1/2+z
1/2+x,-y,1/2+z
x,1/2+y,1/2+z
-x,1/2-y,1/2+z
1/2-x,1/2+y,z
1/2+x,1/2-y,z
loop_
_atom_site_type_symbol
_atom_site_label
_atom_site_fract_x
_atom_site_fract_y
_atom_site_fract_z
Si Si1 0.451876 0.629807 0.857130
Si Si2 0.390787 0.492136 0.554136
Si Si3 0.126850 0.682901 0.879455
Si Si4 0.732443 0.370509 0.702249
Si Si5 0.188723 0.249872 0.006229
O O1 0.500000 0.500000 0.855332
O O2 0.538161 0.729077 0.844100
O O3 0.373446 0.657371 0.762574
O O4 0.388699 0.646768 0.966294
O O5 0.500000 0.500000 0.616806
O O6 0.406381 0.588145 0.463899
O O7 0.293846 0.516525 0.630296
O O8 0.375643 0.368102 0.501059
O O9 0.171918 0.610138 0.780208
O O10 0.217102 0.764208 0.925877
O O11 0.767250 0.268936 0.622570
#
# Coordination Sequence:
#
# PCOD8185474 Si02
#       5
#     8   8   8   8   8
#     4  11  24  43  68  96 134 176 217 267 325 390
#     4  11  22  44  66  94 133 170 214 275 328 383
#     4  10  24  42  65  95 132 172 218 267 329 388
#     4  10  25  39  65  99 125 171 219 264 328 380
#     4  10  24  43  66  95 131 170 219 269 329 385
#
# _framework density 21.062719999999999
#
# number of rings (size 3 to 8) (size 9 to 14) (size 15 to 20)
#    0.000    1.600    2.000    0.600   14.000    1.600 
#    0.000    1.000    0.000    0.000    0.000    0.000 
#    0.000    0.000    0.000    0.000    0.000    0.000 
#
# Total GULP energy -247835.918597 kJ/mol
# GULP energy per Si atom -12391.795930 kJ/mol
# Density = 2.101478 g / cm^3
# Si number density = 21.062720 Si / 1000 Ang^3
#
#
#
# Elastic Constant Matrix: (Units=GPa)
#
#
# Indices 1 2 3 4 5 6 
#
# 1 123.4950 52.0159 49.4625 0.0000 0.0000 0.0000
# 2 52.0159 109.8408 39.2349 0.0000 0.0000 0.0000
# 3 49.4625 39.2349 105.0487 0.0000 0.0000 0.0000
# 4 0.0000 0.0000 0.0000 16.6540 0.0000 0.0000
# 5 0.0000 0.0000 0.0000 0.0000 39.5388 0.0000
# 6 0.0000 0.0000 0.0000 0.0000 0.0000 34.4684
#
#
#
# Elastic Compliance Matrix: (Units=1/GPa)
#
#
# Indices 1 2 3 4 5 6 
#
# 1 0.011314 -0.003987 -0.003838 0.000000 0.000000 0.000000
# 2 -0.003987 0.011911 -0.002571 0.000000 0.000000 0.000000
# 3 -0.003838 -0.002571 0.012287 0.000000 0.000000 0.000000
# 4 0.000000 0.000000 0.000000 0.060046 0.000000 0.000000
# 5 0.000000 0.000000 0.000000 0.000000 0.025292 0.000000
# 6 0.000000 0.000000 0.000000 0.000000 0.000000 0.029012
#
#
# Mechanical properties :
#
#
# Convention : Reuss Voigt Hill
#
# Bulk Modulus (GPa) = 67.93979 68.86790 68.40385
# Shear Modulus (GPa) = 28.48033 31.31033 29.89533
#
# Velocity S-wave (km/s) = 3.68117 3.85974 3.77151
# Velocity P-wave (km/s) = 7.09887 7.25472 7.17722
#
# Compressibility (1/GPa) = 0.01471891
#
# Stress axis : x y z
#
# Youngs Moduli (GPa) = 88.38578 83.95926 81.38700
#
# Poissons Ratio (x) = 0.33473 0.31238
# Poissons Ratio (y) = 0.35238 0.20927
# Poissons Ratio (z) = 0.33924 0.21588
#
# Static dielectric constant tensor:
#      x y z
#    x 4.105760 0.000000 0.000000 
#    y 0.000000 3.535270 0.000000 
#    z 0.000000 0.000000 3.982370 
# 
# 
# High freq. dielectric constant tensor:
#      x y z
#    x 1.844230 0.000000 0.000000 
#    y 0.000000 1.804360 0.000000 
#    z 0.000000 0.000000 1.832040 
# 
# From -- ./inp_files/5367.got.cif
#   From: 2010.03.12/outbox.cif.g09.slc.cpg/sg41_3_cif.got.tgz:5367.got - 2010.04.14 01:55:53.
