data_PCOD8185496
_publ_section_title
;
Structure prediction by ZEFSAII (Michael W. Deem and Ramdas Pophale) SiO2 
 PCOD8185496
Probable space group: A B A 2
;
_chemical_formula_sum "Si O2"
_cell_formula_units_Z 48
_cell_length_a 8.004367
_cell_length_b 21.925074
_cell_length_c 12.037662
_cell_angle_alpha 90.000000
_cell_angle_beta 90.000000
_cell_angle_gamma 90.000000
_cell_volume 2112.565609
_symmetry_space_group_name_H-M "A B A 2"
_symmetry_group_IT_number 41
_symmetry_cell_setting 'orthorhombic'
loop_
_space_group_symop_operation_xyz
x,y,z
-x,-y,z
1/2-x,y,1/2+z
1/2+x,-y,1/2+z
x,1/2+y,1/2+z
-x,1/2-y,1/2+z
1/2-x,1/2+y,z
1/2+x,1/2-y,z
loop_
_atom_site_type_symbol
_atom_site_label
_atom_site_fract_x
_atom_site_fract_y
_atom_site_fract_z
Si Si1 0.000000 0.000000 0.232911
Si Si2 0.310666 0.422256 0.085417
Si Si3 0.187853 0.319713 0.761945
Si Si4 0.557994 0.813047 0.212668
Si Si5 0.261549 0.085348 0.834874
Si Si6 0.007486 0.863847 0.483963
Si Si7 0.000000 0.000000 0.921656
O O1 0.832723 0.018367 0.163685
O O2 0.055897 0.060288 0.297680
O O3 0.362406 0.362067 0.156158
O O4 0.123831 0.417715 0.035984
O O5 0.440972 0.438761 0.986912
O O6 0.387362 0.323027 0.781861
O O7 0.099778 0.335345 0.877719
O O8 0.140993 0.251186 0.733762
O O9 0.686785 0.865798 0.249693
O O10 0.518785 0.814708 0.081305
O O11 0.319023 0.115027 0.952064
O O12 0.147353 0.025761 0.845816
#
# Coordination Sequence:
#
# PCOD8185496 Si02
#       7
#     4   8   8   8   8   8   4
#     4  11  24  44  71  98 152 183 228 310 343 446
#     4  10  24  44  67 104 139 188 240 294 357 427
#     4  11  24  49  70 104 150 184 246 306 358 436
#     4  11  28  45  75 106 142 189 245 304 358 446
#     4  12  26  45  70 106 148 192 244 294 365 430
#     4  11  25  46  73 105 138 197 236 297 375 420
#     4  11  26  40  71 106 146 201 238 296 359 440
#
# _framework density 22.721188000000001
#
# number of rings (size 3 to 8) (size 9 to 14) (size 15 to 20)
#    0.000    1.000    1.667    3.000    9.333    6.667 
#    3.000    0.000    0.000    0.000    0.000    0.000 
#    0.000    0.000    0.000    0.000    0.000    0.000 
#
# Total GULP energy -297362.543736 kJ/mol
# GULP energy per Si atom -12390.105989 kJ/mol
# Density = 2.266947 g / cm^3
# Si number density = 22.721188 Si / 1000 Ang^3
#
#
#
# Elastic Constant Matrix: (Units=GPa)
#
#
# Indices 1 2 3 4 5 6 
#
# 1 112.8787 53.2209 51.6530 0.0000 0.0000 0.0000
# 2 53.2209 132.5455 55.5989 0.0000 0.0000 0.0000
# 3 51.6530 55.5989 120.6902 0.0000 0.0000 0.0000
# 4 0.0000 0.0000 0.0000 21.8114 0.0000 0.0000
# 5 0.0000 0.0000 0.0000 0.0000 40.7525 0.0000
# 6 0.0000 0.0000 0.0000 0.0000 0.0000 48.1567
#
#
#
# Elastic Compliance Matrix: (Units=1/GPa)
#
#
# Indices 1 2 3 4 5 6 
#
# 1 0.012096 -0.003328 -0.003643 0.000000 0.000000 0.000000
# 2 -0.003328 0.010268 -0.003306 0.000000 0.000000 0.000000
# 3 -0.003643 -0.003306 0.011368 0.000000 0.000000 0.000000
# 4 0.000000 0.000000 0.000000 0.045848 0.000000 0.000000
# 5 0.000000 0.000000 0.000000 0.000000 0.024538 0.000000
# 6 0.000000 0.000000 0.000000 0.000000 0.000000 0.020766
#
#
# Mechanical properties :
#
#
# Convention : Reuss Voigt Hill
#
# Bulk Modulus (GPa) = 75.89383 76.34000 76.11691
# Shear Modulus (GPa) = 33.37135 35.85357 34.61246
#
# Velocity S-wave (km/s) = 3.83656 3.97669 3.90725
# Velocity P-wave (km/s) = 7.28700 7.39979 7.34361
#
# Compressibility (1/GPa) = 0.01317630
#
# Stress axis : x y z
#
# Youngs Moduli (GPa) = 82.67497 97.39355 87.96838
#
# Poissons Ratio (x) = 0.32417 0.32050
# Poissons Ratio (y) = 0.27518 0.29078
# Poissons Ratio (z) = 0.30121 0.32194
#
# Static dielectric constant tensor:
#      x y z
#    x 4.289050 0.000000 0.000000 
#    y 0.000000 3.928220 0.000000 
#    z 0.000000 0.000000 4.259210 
# 
# 
# High freq. dielectric constant tensor:
#      x y z
#    x 1.902840 0.000000 0.000000 
#    y 0.000000 1.893170 0.000000 
#    z 0.000000 0.000000 1.902140 
# 
# From -- ./inp_files/4530.got.cif
#   From: 2010.03.12/outbox.cif.g09.slc.cpg/sg41_3_cif.got.tgz:4530.got - 2010.04.14 01:55:53.
