data_PCOD8185740
_publ_section_title
;
Structure prediction by ZEFSAII (Michael W. Deem and Ramdas Pophale) SiO2 
 PCOD8185740
Probable space group: A B A 2
;
_chemical_formula_sum "Si O2"
_cell_formula_units_Z 32
_cell_length_a 12.000000
_cell_length_b 18.000000
_cell_length_c 15.000000
_cell_angle_alpha 90.000000
_cell_angle_beta 90.000000
_cell_angle_gamma 90.000000
_cell_volume 3240.000000
_symmetry_space_group_name_H-M "A B A 2"
_symmetry_group_IT_number 41
_symmetry_cell_setting 'orthorhombic'
loop_
_space_group_symop_operation_xyz
x,y,z
-x,-y,z
1/2-x,y,1/2+z
1/2+x,-y,1/2+z
x,1/2+y,1/2+z
-x,1/2-y,1/2+z
1/2-x,1/2+y,z
1/2+x,1/2-y,z
loop_
_atom_site_type_symbol
_atom_site_label
_atom_site_fract_x
_atom_site_fract_y
_atom_site_fract_z
Si Si1 0.245392 0.076536 0.092710
Si Si2 0.239314 0.575902 0.385180
Si Si3 0.385471 0.812161 0.247298
Si Si4 0.624606 0.513948 0.738897
Si Si5 0.237826 0.748196 0.098905
Si Si6 0.925423 0.715078 0.745575
Si Si7 0.260189 0.249398 0.392633
Si Si8 0.427028 0.572328 0.239096
O O1 0.291724 0.160625 0.098310
O O2 0.125258 0.077301 0.139946
O O3 0.312085 0.018571 0.153567
O O4 0.247074 0.049073 0.989042
O O5 0.146737 0.527065 0.333478
O O6 0.209586 0.662632 0.387049
O O7 0.348182 0.563267 0.325240
O O8 0.350093 0.898133 0.247467
O O9 0.345298 0.768093 0.158337
O O10 0.517500 0.796921 0.245725
O O11 0.351692 0.770631 0.339686
O O12 0.500000 0.500000 0.712149
O O13 0.140642 0.791713 0.151970
O O14 0.252978 0.775890 0.996242
O O15 0.851950 0.706756 0.834827
O O16 0.008533 0.647705 0.753146
O O17 0.500000 0.500000 0.240183
#
# Coordination Sequence:
#
# PCOD8185740 Si02
#       8
#     8   8   8   8   8   8   8   8
#     4  10  22  44  63  87 129 162 199 253 305 361
#     4  10  22  44  63  87 129 162 199 253 305 361
#     4  11  21  39  61  90 122 157 205 252 301 363
#     4  11  23  39  60  89 121 163 203 245 307 360
#     4  10  22  40  63  90 119 160 202 254 307 356
#     4  11  21  41  63  88 125 159 206 253 304 369
#     4  10  22  40  63  90 119 160 202 254 307 356
#     4  11  23  41  62  92 124 168 206 244 308 367
#
# _framework density 9.8765429999999999
#
# number of rings (size 3 to 8) (size 9 to 14) (size 15 to 20)
#    0.000    1.500    2.500    3.750    7.000    3.000 
#    4.500    0.000    0.000    0.000    0.000    0.000 
#    0.000    0.000    0.000    0.000    0.000    0.000 
#
# Total GULP energy -396420.685802 kJ/mol
# GULP energy per Si atom -12388.146431 kJ/mol
# Density = 0.985406 g / cm^3
# Si number density = 9.876543 Si / 1000 Ang^3
#
#
#
# Elastic Constant Matrix: (Units=GPa)
#
#
# Indices 1 2 3 4 5 6 
#
# 1 60.6580 11.1017 32.5260 0.0000 0.0000 0.0000
# 2 11.1017 92.0547 33.7679 0.0000 0.0000 0.0000
# 3 32.5260 33.7679 213.6287 0.0000 0.0000 0.0000
# 4 0.0000 0.0000 0.0000 28.2971 0.0000 0.0000
# 5 0.0000 0.0000 0.0000 0.0000 12.7762 0.0000
# 6 0.0000 0.0000 0.0000 0.0000 0.0000 31.0978
#
#
#
# Elastic Compliance Matrix: (Units=1/GPa)
#
#
# Indices 1 2 3 4 5 6 
#
# 1 0.018084 -0.001243 -0.002557 0.000000 0.000000 0.000000
# 2 -0.001243 0.011617 -0.001647 0.000000 0.000000 0.000000
# 3 -0.002557 -0.001647 0.005331 0.000000 0.000000 0.000000
# 4 0.000000 0.000000 0.000000 0.035339 0.000000 0.000000
# 5 0.000000 0.000000 0.000000 0.000000 0.078270 0.000000
# 6 0.000000 0.000000 0.000000 0.000000 0.000000 0.032157
#
#
# Mechanical properties :
#
#
# Convention : Reuss Voigt Hill
#
# Bulk Modulus (GPa) = 41.42799 57.90362 49.66581
# Shear Modulus (GPa) = 25.03270 33.69729 29.36500
#
# Velocity S-wave (km/s) = 3.56375 4.13477 3.85983
# Velocity P-wave (km/s) = 6.16054 7.22305 6.71285
#
# Compressibility (1/GPa) = 0.02413827
#
# Stress axis : x y z
#
# Youngs Moduli (GPa) = 55.29609 86.07935 187.59349
#
# Poissons Ratio (x) = 0.10700 0.47967
# Poissons Ratio (y) = 0.06873 0.30898
# Poissons Ratio (z) = 0.14139 0.14178
#
# Static dielectric constant tensor:
#      x y z
#    x 3.501380 0.000000 0.000000 
#    y 0.000000 3.703630 0.000000 
#    z 0.000000 0.000000 4.000000 
# 
# 
# High freq. dielectric constant tensor:
#      x y z
#    x 1.759740 0.000000 0.000000 
#    y 0.000000 1.777970 0.000000 
#    z 0.000000 0.000000 1.790680 
# 
# From -- ./inp_files/8119.got.cif
#   From: 2010.03.12/outbox.ucp.g09.slc.cvg/sg41_5_cif.got.tgz:8119.got - 2010.05.04 21:17:56.
