data_PCOD8185943
_publ_section_title
;
Structure prediction by ZEFSAII (Michael W. Deem and Ramdas Pophale) SiO2 
 PCOD8185943
Probable space group: F M M 2
;
_chemical_formula_sum "Si O2"
_cell_formula_units_Z 96
_cell_length_a 21.700768
_cell_length_b 8.877093
_cell_length_c 23.569047
_cell_angle_alpha 90.000000
_cell_angle_beta 90.000000
_cell_angle_gamma 90.000000
_cell_volume 4540.334985
_symmetry_space_group_name_H-M "F M M 2"
_symmetry_group_IT_number 42
_symmetry_cell_setting 'orthorhombic'
loop_
_space_group_symop_operation_xyz
x,y,z
-x,-y,z
-x,y,z
x,-y,z
x,1/2+y,1/2+z
-x,1/2-y,1/2+z
-x,1/2+y,1/2+z
x,1/2-y,1/2+z
1/2+x,y,1/2+z
1/2-x,-y,1/2+z
1/2-x,y,1/2+z
1/2+x,-y,1/2+z
1/2+x,1/2+y,z
1/2-x,1/2-y,z
1/2-x,1/2+y,z
1/2+x,1/2-y,z
loop_
_atom_site_type_symbol
_atom_site_label
_atom_site_fract_x
_atom_site_fract_y
_atom_site_fract_z
Si Si1 0.500000 0.173787 0.705770
Si Si2 0.631187 0.676998 0.203210
Si Si3 0.814198 0.676866 0.587159
Si Si4 0.500000 0.335692 0.818184
Si Si5 0.894797 0.669709 0.408805
Si Si6 0.313934 0.823668 0.310069
Si Si7 0.071243 0.177078 0.522182
O O1 0.564094 0.235879 0.679504
O O2 0.500000 0.202677 0.773140
O O3 0.500000 0.000000 0.693616
O O4 0.629618 0.500000 0.216928
O O5 0.681068 0.711870 0.154410
O O6 0.640326 0.763583 0.261800
O O7 0.811268 0.500000 0.574216
O O8 0.750000 0.750000 0.564697
O O9 0.876212 0.740177 0.558428
O O10 0.500000 0.500000 0.787647
O O11 0.558595 0.322686 0.857503
O O12 0.891417 0.500000 0.434744
O O13 0.832040 0.715178 0.375555
O O14 0.913369 0.787275 0.456796
O O15 0.250000 0.750000 0.295631
O O16 0.309224 0.000000 0.301759
O O17 0.000000 0.229088 0.535893
O O18 0.077308 0.000000 0.532047
#
# Coordination Sequence:
#
# PCOD8185943 Si02
#       7
#     8  16  16   8  16  16  16
#     4  10  20  34  57  92 129 161 200 250 306 369
#     4  10  22  39  62  92 126 163 204 253 310 373
#     4  11  25  45  69  92 124 168 214 265 320 381
#     4  10  18  34  57  86 121 157 198 240 294 359
#     4  10  21  38  61  88 121 161 203 249 306 369
#     4  11  23  38  59  88 124 165 208 252 304 367
#     4  11  25  43  66  97 129 164 211 266 321 378
#
# _framework density 21.143816000000001
#
# number of rings (size 3 to 8) (size 9 to 14) (size 15 to 20)
#    0.000    1.500    2.500    2.000    1.167    6.333 
#    0.000    1.667    0.000    0.000    0.000    0.000 
#    0.000    0.000    0.000    0.000    0.000    0.000 
#
# Total GULP energy -297365.461017 kJ/mol
# GULP energy per Si atom -12390.227542 kJ/mol
# Density = 2.109569 g / cm^3
# Si number density = 21.143816 Si / 1000 Ang^3
#
#
#
# Elastic Constant Matrix: (Units=GPa)
#
#
# Indices 1 2 3 4 5 6 
#
# 1 147.9784 54.8705 38.4026 0.0000 0.0000 0.0000
# 2 54.8705 84.0557 32.6600 0.0000 0.0000 0.0000
# 3 38.4026 32.6600 58.0593 0.0000 0.0000 0.0000
# 4 0.0000 0.0000 0.0000 32.3059 0.0000 0.0000
# 5 0.0000 0.0000 0.0000 0.0000 40.8965 0.0000
# 6 0.0000 0.0000 0.0000 0.0000 0.0000 32.3801
#
#
#
# Elastic Compliance Matrix: (Units=1/GPa)
#
#
# Indices 1 2 3 4 5 6 
#
# 1 0.009458 -0.004791 -0.003561 0.000000 0.000000 0.000000
# 2 -0.004791 0.017651 -0.006761 0.000000 0.000000 0.000000
# 3 -0.003561 -0.006761 0.023382 0.000000 0.000000 0.000000
# 4 0.000000 0.000000 0.000000 0.030954 0.000000 0.000000
# 5 0.000000 0.000000 0.000000 0.000000 0.024452 0.000000
# 6 0.000000 0.000000 0.000000 0.000000 0.000000 0.030883
#
#
# Mechanical properties :
#
#
# Convention : Reuss Voigt Hill
#
# Bulk Modulus (GPa) = 49.34155 60.21775 54.77965
# Shear Modulus (GPa) = 28.77519 32.06051 30.41785
#
# Velocity S-wave (km/s) = 3.69308 3.89820 3.79702
# Velocity P-wave (km/s) = 6.44763 6.98593 6.72217
#
# Compressibility (1/GPa) = 0.02026690
#
# Stress axis : x y z
#
# Youngs Moduli (GPa) = 105.72768 56.65447 42.76743
#
# Poissons Ratio (x) = 0.27140 0.15231
# Poissons Ratio (y) = 0.50649 0.28913
# Poissons Ratio (z) = 0.37652 0.38301
#
# Static dielectric constant tensor:
#      x y z
#    x 2.845700 0.000000 0.000000 
#    y 0.000000 3.752230 0.000000 
#    z 0.000000 0.000000 3.658880 
# 
# 
# High freq. dielectric constant tensor:
#      x y z
#    x 1.851120 0.000000 0.000000 
#    y 0.000000 1.820710 0.000000 
#    z 0.000000 0.000000 1.818170 
# 
# From -- ./inp_files/30462.got.cif
#   From: 2010.03.12/outbox.cif.g09.slc.cpg/sg42_16_cif.got.tgz:30462.got - 2010.04.14 02:04:31.
