data_PCOD8185011
_publ_section_title
;
Structure prediction by ZEFSAII (Michael W. Deem and Ramdas Pophale) SiO2 
 PCOD8185011
Probable space group: A B A 2
;
_chemical_formula_sum "Si O2"
_cell_formula_units_Z 60
_cell_length_a 12.797131
_cell_length_b 26.217219
_cell_length_c 8.507364
_cell_angle_alpha 90.000000
_cell_angle_beta 90.000000
_cell_angle_gamma 90.000000
_cell_volume 2854.264741
_symmetry_space_group_name_H-M "A B A 2"
_symmetry_group_IT_number 41
_symmetry_cell_setting 'orthorhombic'
loop_
_space_group_symop_operation_xyz
x,y,z
-x,-y,z
1/2-x,y,1/2+z
1/2+x,-y,1/2+z
x,1/2+y,1/2+z
-x,1/2-y,1/2+z
1/2-x,1/2+y,z
1/2+x,1/2-y,z
loop_
_atom_site_type_symbol
_atom_site_label
_atom_site_fract_x
_atom_site_fract_y
_atom_site_fract_z
Si Si1 0.861447 0.068816 0.698850
Si Si2 0.456621 0.826797 0.101015
Si Si3 0.000000 0.500000 0.985383
Si Si4 0.074062 0.057281 0.199706
Si Si5 0.554362 0.332656 0.272309
Si Si6 0.605880 0.737566 0.129767
Si Si7 0.149853 0.461074 0.557295
Si Si8 0.689339 0.740116 0.796124
O O1 0.928174 0.121293 0.694880
O O2 0.917833 0.027874 0.593202
O O3 0.743311 0.072754 0.631449
O O4 0.853182 0.047145 0.872775
O O5 0.562754 0.795829 0.143932
O O6 0.363414 0.788392 0.147444
O O7 0.473298 0.841028 0.917959
O O8 0.930545 0.462464 0.878613
O O9 0.106561 0.116129 0.203716
O O10 0.957615 0.057546 0.131206
O O11 0.155061 0.022281 0.098633
O O12 0.486374 0.303213 0.143445
O O13 0.656239 0.299175 0.307068
O O14 0.687174 0.734385 0.273215
O O15 0.657394 0.719049 0.966375
#
# Coordination Sequence:
#
# PCOD8185011 Si02
#       8
#     8   8   4   8   8   8   8   8
#     4  12  23  42  64  95 122 171 204 269 305 382
#     4  10  23  39  66  95 122 166 215 257 320 365
#     4  10  20  40  66  84 130 154 208 256 314 368
#     4  10  21  43  62  94 123 167 196 270 310 378
#     4  10  21  41  66  89 127 163 206 262 316 373
#     4  10  22  41  62  95 129 162 210 261 309 388
#     4  10  24  39  63  91 129 154 221 247 318 364
#     4  10  22  40  62  93 126 163 208 256 313 378
#
# _framework density 21.021174999999999
#
# number of rings (size 3 to 8) (size 9 to 14) (size 15 to 20)
#    0.000    1.867    1.333    3.200    3.733    1.067 
#    2.400    1.333    0.000    0.000    0.000    0.000 
#    0.000    0.000    0.000    0.000    0.000    0.000 
#
# Total GULP energy -371655.619637 kJ/mol
# GULP energy per Si atom -12388.520655 kJ/mol
# Density = 2.097333 g / cm^3
# Si number density = 21.021175 Si / 1000 Ang^3
#
#
#
# Elastic Constant Matrix: (Units=GPa)
#
#
# Indices 1 2 3 4 5 6 
#
# 1 33.7555 3.3246 -2.2426 0.0000 0.0000 0.0000
# 2 3.3246 109.9177 35.2667 0.0000 0.0000 0.0000
# 3 -2.2426 35.2667 101.4139 0.0000 0.0000 0.0000
# 4 0.0000 0.0000 0.0000 1.7869 0.0000 0.0000
# 5 0.0000 0.0000 0.0000 0.0000 31.6160 0.0000
# 6 0.0000 0.0000 0.0000 0.0000 0.0000 19.3104
#
#
#
# Elastic Compliance Matrix: (Units=1/GPa)
#
#
# Indices 1 2 3 4 5 6 
#
# 1 0.029821 -0.001253 0.001095 0.000000 0.000000 0.000000
# 2 -0.001253 0.010293 -0.003607 0.000000 0.000000 0.000000
# 3 0.001095 -0.003607 0.011139 0.000000 0.000000 0.000000
# 4 0.000000 0.000000 0.000000 0.559620 0.000000 0.000000
# 5 0.000000 0.000000 0.000000 0.000000 0.031630 0.000000
# 6 0.000000 0.000000 0.000000 0.000000 0.000000 0.051785
#
#
# Mechanical properties :
#
#
# Convention : Reuss Voigt Hill
#
# Bulk Modulus (GPa) = 22.87138 35.30939 29.09039
# Shear Modulus (GPa) = 6.97941 24.45857 15.71899
#
# Velocity S-wave (km/s) = 1.82411 3.41474 2.73750
# Velocity P-wave (km/s) = 3.91667 5.69041 4.88473
#
# Compressibility (1/GPa) = 0.04372277
#
# Stress axis : x y z
#
# Youngs Moduli (GPa) = 33.53340 97.15391 89.77325
#
# Poissons Ratio (x) = 0.12177 -0.09833
# Poissons Ratio (y) = 0.04203 0.32382
# Poissons Ratio (z) = -0.03673 0.35044
#
# Static dielectric constant tensor:
#      x y z
#    x 3.764630 0.000000 0.000000 
#    y 0.000000 4.045280 0.000000 
#    z 0.000000 0.000000 3.886710 
# 
# 
# High freq. dielectric constant tensor:
#      x y z
#    x 1.810590 0.000000 0.000000 
#    y 0.000000 1.821940 0.000000 
#    z 0.000000 0.000000 1.828860 
# 
# From -- ./inp_files/2174.got.cif
#   From: 2010.03.12/outbox.cif.g09.slc.cpg/sg41_2_cif.got.tgz:2174.got - 2010.04.14 01:55:53.
