data_PCOD8185257
_publ_section_title
;
Structure prediction by ZEFSAII (Michael W. Deem and Ramdas Pophale) SiO2 
 PCOD8185257
Probable space group: A B A 2
;
_chemical_formula_sum "Si O2"
_cell_formula_units_Z 60
_cell_length_a 5.455671
_cell_length_b 27.019563
_cell_length_c 17.143167
_cell_angle_alpha 90.000000
_cell_angle_beta 90.000000
_cell_angle_gamma 90.000000
_cell_volume 2527.071612
_symmetry_space_group_name_H-M "A B A 2"
_symmetry_group_IT_number 41
_symmetry_cell_setting 'orthorhombic'
loop_
_space_group_symop_operation_xyz
x,y,z
-x,-y,z
1/2-x,y,1/2+z
1/2+x,-y,1/2+z
x,1/2+y,1/2+z
-x,1/2-y,1/2+z
1/2-x,1/2+y,z
1/2+x,1/2-y,z
loop_
_atom_site_type_symbol
_atom_site_label
_atom_site_fract_x
_atom_site_fract_y
_atom_site_fract_z
Si Si1 0.855638 0.733293 0.535630
Si Si2 0.442122 0.125780 0.785080
Si Si3 0.062543 0.394273 0.202333
Si Si4 0.135199 0.046811 0.049024
Si Si5 0.255020 0.379927 0.043351
Si Si6 0.608685 0.272503 0.362571
Si Si7 0.000000 0.000000 0.670917
Si Si8 0.008186 0.558897 0.923156
O O1 0.612100 0.753951 0.580968
O O2 0.833837 0.675067 0.520612
O O3 0.886824 0.763453 0.455148
O O4 0.694254 0.132828 0.736192
O O5 0.422596 0.169552 0.847914
O O6 0.455494 0.074986 0.834209
O O7 0.192909 0.126371 0.735353
O O8 0.040659 0.382149 0.108978
O O9 0.094862 0.453328 0.221727
O O10 0.967073 0.089101 0.088096
O O11 0.291203 0.023665 0.118319
O O12 0.270992 0.075225 0.979164
O O13 0.000000 0.000000 0.010145
O O14 0.217021 0.411343 0.963353
O O15 0.366975 0.245944 0.325415
O O16 0.000000 0.500000 0.928114
#
# Coordination Sequence:
#
# PCOD8185257 Si02
#       8
#     8   8   8   8   8   8   4   8
#     4  10  24  43  73 109 136 180 242 318 370 427
#     4  12  30  46  72 109 155 196 250 302 385 449
#     4  12  28  48  73 107 152 208 244 300 368 460
#     4  12  21  42  72 110 145 197 243 316 366 438
#     4  12  26  45  81 105 148 191 271 306 374 443
#     4  10  21  45  72  98 136 190 236 295 378 438
#     4  12  24  46  70 106 154 212 244 294 378 442
#     4  12  25  43  67 111 147 197 245 317 365 446
#
# _framework density 23.742895000000001
#
# number of rings (size 3 to 8) (size 9 to 14) (size 15 to 20)
#    0.000    0.533    4.667    3.200    9.333    0.000 
#    0.000    4.000    0.000    0.000    0.000    0.000 
#    0.000    0.000    0.000    0.000    0.000    0.000 
#
# Total GULP energy -371741.111456 kJ/mol
# GULP energy per Si atom -12391.370382 kJ/mol
# Density = 2.368885 g / cm^3
# Si number density = 23.742895 Si / 1000 Ang^3
#
#
#
# Elastic Constant Matrix: (Units=GPa)
#
#
# Indices 1 2 3 4 5 6 
#
# 1 171.5506 29.2458 15.2870 0.0000 0.0000 0.0000
# 2 29.2458 106.6732 2.2074 0.0000 0.0000 0.0000
# 3 15.2870 2.2074 59.0436 0.0000 0.0000 0.0000
# 4 0.0000 0.0000 0.0000 104.8350 0.0000 0.0000
# 5 0.0000 0.0000 0.0000 0.0000 -21.8192 0.0000
# 6 0.0000 0.0000 0.0000 0.0000 0.0000 38.9835
#
#
#
# Elastic Compliance Matrix: (Units=1/GPa)
#
#
# Indices 1 2 3 4 5 6 
#
# 1 0.006255 -0.001683 -0.001557 0.000000 0.000000 0.000000
# 2 -0.001683 0.009834 0.000068 0.000000 0.000000 0.000000
# 3 -0.001557 0.000068 0.017337 0.000000 0.000000 0.000000
# 4 0.000000 0.000000 0.000000 0.009539 0.000000 0.000000
# 5 0.000000 0.000000 0.000000 0.000000 -0.045831 0.000000
# 6 0.000000 0.000000 0.000000 0.000000 0.000000 0.025652
#
#
# Mechanical properties :
#
#
# Convention : Reuss Voigt Hill
#
# Bulk Modulus (GPa) = 36.92233 47.86086 42.39159
# Shear Modulus (GPa) = 131.04182 43.76835 87.40509
#
# Velocity S-wave (km/s) = 7.43719 4.29818 6.07397
# Velocity P-wave (km/s) = 9.45165 6.69583 8.19048
#
# Compressibility (1/GPa) = 0.02708388
#
# Stress axis : x y z
#
# Youngs Moduli (GPa) = 159.87883 101.68462 57.67984
#
# Poissons Ratio (x) = 0.17110 0.08978
# Poissons Ratio (y) = 0.26901 -0.00392
# Poissons Ratio (z) = 0.24885 -0.00691
#
# Static dielectric constant tensor:
#      x y z
#    x 5.195370 0.000000 0.000000 
#    y 0.000000 1.131220 0.000000 
#    z 0.000000 0.000000 3.823730 
# 
# 
# High freq. dielectric constant tensor:
#      x y z
#    x 1.964370 0.000000 0.000000 
#    y 0.000000 1.946810 0.000000 
#    z 0.000000 0.000000 1.900520 
# 
# From -- ./inp_files/9459.got.cif
#   From: 2010.03.12/outbox.cif.g09.slc.cpg/sg41_5_cif.got.tgz:9459.got - 2010.04.14 01:55:53.
