data_PCOD8185247
_publ_section_title
;
Structure prediction by ZEFSAII (Michael W. Deem and Ramdas Pophale) SiO2 
 PCOD8185247
Probable space group: A B A 2
;
_chemical_formula_sum "Si O2"
_cell_formula_units_Z 44
_cell_length_a 14.403726
_cell_length_b 16.206256
_cell_length_c 8.307234
_cell_angle_alpha 90.000000
_cell_angle_beta 90.000000
_cell_angle_gamma 90.000000
_cell_volume 1939.161545
_symmetry_space_group_name_H-M "A B A 2"
_symmetry_group_IT_number 41
_symmetry_cell_setting 'orthorhombic'
loop_
_space_group_symop_operation_xyz
x,y,z
-x,-y,z
1/2-x,y,1/2+z
1/2+x,-y,1/2+z
x,1/2+y,1/2+z
-x,1/2-y,1/2+z
1/2-x,1/2+y,z
1/2+x,1/2-y,z
loop_
_atom_site_type_symbol
_atom_site_label
_atom_site_fract_x
_atom_site_fract_y
_atom_site_fract_z
Si Si1 0.923231 0.135365 0.046880
Si Si2 0.205688 0.222018 0.643475
Si Si3 0.844479 0.944987 0.501209
Si Si4 0.500000 0.000000 0.780714
Si Si5 0.120703 0.175867 0.985850
Si Si6 0.840819 0.995938 0.863986
O O1 0.834034 0.190407 0.089659
O O2 0.942800 0.068815 0.184930
O O3 0.892499 0.082402 0.892175
O O4 0.011278 0.196041 0.009777
O O5 0.180466 0.151308 0.514336
O O6 0.165119 0.206198 0.819282
O O7 0.319461 0.217626 0.632133
O O8 0.859884 0.980221 0.678222
O O9 0.768215 0.998822 0.404569
O O10 0.935490 0.946548 0.395870
O O11 0.119139 0.075481 0.983589
#
# Coordination Sequence:
#
# PCOD8185247 Si02
#       6
#     8   8   8   4   8   8
#     4  12  25  44  71 104 138 182 235 289 346 417
#     4  10  26  43  68  97 137 179 222 283 354 404
#     4  10  24  43  68  99 139 180 230 286 354 414
#     4  12  26  40  68 102 136 182 236 288 342 418
#     4  10  23  44  67  96 138 175 224 282 344 407
#     4  10  21  44  70  99 133 181 225 288 340 413
#
# _framework density 22.690217000000001
#
# number of rings (size 3 to 8) (size 9 to 14) (size 15 to 20)
#    0.000    1.455    1.818    1.091   15.273    2.909 
#    0.000    0.000    0.000    0.000    0.000    0.000 
#    0.000    0.000    0.000    0.000    0.000    0.000 
#
# Total GULP energy -272687.714382 kJ/mol
# GULP energy per Si atom -12394.896108 kJ/mol
# Density = 2.263857 g / cm^3
# Si number density = 22.690217 Si / 1000 Ang^3
#
#
#
# Elastic Constant Matrix: (Units=GPa)
#
#
# Indices 1 2 3 4 5 6 
#
# 1 77.8997 47.1849 3.1792 0.0000 0.0000 0.0000
# 2 47.1849 103.9238 36.0441 0.0000 0.0000 0.0000
# 3 3.1792 36.0441 72.0713 0.0000 0.0000 0.0000
# 4 0.0000 0.0000 0.0000 18.0772 0.0000 0.0000
# 5 0.0000 0.0000 0.0000 0.0000 45.3489 0.0000
# 6 0.0000 0.0000 0.0000 0.0000 0.0000 30.1220
#
#
#
# Elastic Compliance Matrix: (Units=1/GPa)
#
#
# Indices 1 2 3 4 5 6 
#
# 1 0.018672 -0.009911 0.004133 0.000000 0.000000 0.000000
# 2 -0.009911 0.016903 -0.008016 0.000000 0.000000 0.000000
# 3 0.004133 -0.008016 0.017702 0.000000 0.000000 0.000000
# 4 0.000000 0.000000 0.000000 0.055318 0.000000 0.000000
# 5 0.000000 0.000000 0.000000 0.000000 0.022051 0.000000
# 6 0.000000 0.000000 0.000000 0.000000 0.000000 0.033198
#
#
# Mechanical properties :
#
#
# Convention : Reuss Voigt Hill
#
# Bulk Modulus (GPa) = 38.92890 47.41236 43.17063
# Shear Modulus (GPa) = 25.00067 29.87538 27.43803
#
# Velocity S-wave (km/s) = 3.32298 3.63252 3.48119
# Velocity P-wave (km/s) = 5.64950 6.20762 5.93512
#
# Compressibility (1/GPa) = 0.02568786
#
# Stress axis : x y z
#
# Youngs Moduli (GPa) = 53.55743 59.16253 56.49135
#
# Poissons Ratio (x) = 0.58636 -0.23348
# Poissons Ratio (y) = 0.53081 0.45284
# Poissons Ratio (z) = -0.22135 0.47425
#
# Static dielectric constant tensor:
#      x y z
#    x 4.311590 0.000000 0.000000 
#    y 0.000000 3.969720 0.000000 
#    z 0.000000 0.000000 3.968820 
# 
# 
# High freq. dielectric constant tensor:
#      x y z
#    x 1.904320 0.000000 0.000000 
#    y 0.000000 1.876530 0.000000 
#    z 0.000000 0.000000 1.896160 
# 
# From -- ./inp_files/2487.got.cif
#   From: 2010.03.12/outbox.cif.g09.slc.cpg/sg41_2_cif.got.tgz:2487.got - 2010.04.14 01:55:53.
