data_PCOD8185994
_publ_section_title
;
Structure prediction by ZEFSAII (Michael W. Deem and Ramdas Pophale) SiO2 
 PCOD8185994
Probable space group: F M M 2
;
_chemical_formula_sum "Si O2"
_cell_formula_units_Z 96
_cell_length_a 8.563743
_cell_length_b 18.880109
_cell_length_c 31.178083
_cell_angle_alpha 90.000000
_cell_angle_beta 90.000000
_cell_angle_gamma 90.000000
_cell_volume 5041.009683
_symmetry_space_group_name_H-M "F M M 2"
_symmetry_group_IT_number 42
_symmetry_cell_setting 'orthorhombic'
loop_
_space_group_symop_operation_xyz
x,y,z
-x,-y,z
-x,y,z
x,-y,z
x,1/2+y,1/2+z
-x,1/2-y,1/2+z
-x,1/2+y,1/2+z
x,1/2-y,1/2+z
1/2+x,y,1/2+z
1/2-x,-y,1/2+z
1/2-x,y,1/2+z
1/2+x,-y,1/2+z
1/2+x,1/2+y,z
1/2-x,1/2-y,z
1/2-x,1/2+y,z
1/2+x,1/2-y,z
loop_
_atom_site_type_symbol
_atom_site_label
_atom_site_fract_x
_atom_site_fract_y
_atom_site_fract_z
Si Si1 0.685497 0.578968 0.757980
Si Si2 0.685182 0.672150 0.091012
Si Si3 0.185639 0.172557 0.680675
Si Si4 0.314395 0.579705 0.852724
Si Si5 0.814476 0.079912 0.011210
Si Si6 0.185640 0.328554 0.431137
O O1 0.500000 0.579680 0.755996
O O2 0.748868 0.500000 0.750269
O O3 0.754171 0.627345 0.720223
O O4 0.740195 0.605201 0.805261
O O5 0.500000 0.677072 0.093342
O O6 0.750000 0.750000 0.080907
O O7 0.750713 0.641726 0.135834
O O8 0.743331 0.618536 0.054356
O O9 0.250000 0.250000 0.688018
O O10 0.000000 0.172881 0.679415
O O11 0.500000 0.577979 0.855197
O O12 0.252034 0.500000 0.861965
O O13 0.248631 0.634563 0.887842
O O14 0.000000 0.077004 0.010010
O O15 0.746284 0.000000 0.009718
O O16 0.751931 0.124576 0.970767
O O17 0.250000 0.250000 0.435079
O O18 0.000000 0.325222 0.431097
#
# Coordination Sequence:
#
# PCOD8185994 Si02
#       6
#    16  16  16  16  16  16
#     4   8  15  28  46  69  95 122 155 196 236 271
#     4  10  19  32  50  69  93 124 156 193 234 276
#     4  10  19  31  48  69  95 125 156 192 233 277
#     4   8  14  27  48  71  93 121 159 196 228 269
#     4   9  18  32  50  72  95 121 156 195 232 272
#     4  10  19  31  50  74  98 124 154 190 231 276
#
# _framework density 19.043803
#
# number of rings (size 3 to 8) (size 9 to 14) (size 15 to 20)
#    0.000    2.833    0.000    4.000    0.000    3.333 
#    0.000    0.833    0.000    8.000    0.000    4.667 
#    0.000    0.000    0.000    0.000    0.000    0.000 
#
# Total GULP energy -297493.929677 kJ/mol
# GULP energy per Si atom -12395.580403 kJ/mol
# Density = 1.900046 g / cm^3
# Si number density = 19.043803 Si / 1000 Ang^3
#
#
#
# Elastic Constant Matrix: (Units=GPa)
#
#
# Indices 1 2 3 4 5 6 
#
# 1 33.1191 16.9241 24.6797 0.0000 0.0000 0.0000
# 2 16.9241 141.6540 119.5591 0.0000 0.0000 0.0000
# 3 24.6797 119.5591 213.5308 0.0000 0.0000 0.0000
# 4 0.0000 0.0000 0.0000 46.8715 0.0000 0.0000
# 5 0.0000 0.0000 0.0000 0.0000 16.3518 0.0000
# 6 0.0000 0.0000 0.0000 0.0000 0.0000 19.7069
#
#
#
# Elastic Compliance Matrix: (Units=1/GPa)
#
#
# Indices 1 2 3 4 5 6 
#
# 1 0.033181 -0.001379 -0.003063 0.000000 0.000000 0.000000
# 2 -0.001379 0.013442 -0.007367 0.000000 0.000000 0.000000
# 3 -0.003063 -0.007367 0.009162 0.000000 0.000000 0.000000
# 4 0.000000 0.000000 0.000000 0.021335 0.000000 0.000000
# 5 0.000000 0.000000 0.000000 0.000000 0.061155 0.000000
# 6 0.000000 0.000000 0.000000 0.000000 0.000000 0.050744
#
#
# Mechanical properties :
#
#
# Convention : Reuss Voigt Hill
#
# Bulk Modulus (GPa) = 31.08752 78.95886 55.02319
# Shear Modulus (GPa) = 22.38537 31.72877 27.05707
#
# Velocity S-wave (km/s) = 3.43223 4.08621 3.77341
# Velocity P-wave (km/s) = 5.66274 7.98840 6.92391
#
# Compressibility (1/GPa) = 0.03216725
#
# Stress axis : x y z
#
# Youngs Moduli (GPa) = 30.13754 74.39243 109.14528
#
# Poissons Ratio (x) = 0.10261 0.33429
# Poissons Ratio (y) = 0.04157 0.80408
# Poissons Ratio (z) = 0.09230 0.54806
#
# Static dielectric constant tensor:
#      x y z
#    x 3.005260 0.000000 0.000000 
#    y 0.000000 3.622700 0.000000 
#    z 0.000000 0.000000 4.026630 
# 
# 
# High freq. dielectric constant tensor:
#      x y z
#    x 1.692960 0.000000 0.000000 
#    y 0.000000 1.738670 0.000000 
#    z 0.000000 0.000000 1.761080 
# 
# From -- ./inp_files/31428.got.cif
#   From: 2010.03.12/outbox.cif.g09.slc.cpg/sg42_16_cif.got.tgz:31428.got - 2010.04.14 02:04:31.
