data_PCOD8185504
_publ_section_title
;
Structure prediction by ZEFSAII (Michael W. Deem and Ramdas Pophale) SiO2 
 PCOD8185504
Probable space group: A B A 2
;
_chemical_formula_sum "Si O2"
_cell_formula_units_Z 60
_cell_length_a 24.305456
_cell_length_b 13.169080
_cell_length_c 8.342916
_cell_angle_alpha 90.000000
_cell_angle_beta 90.000000
_cell_angle_gamma 90.000000
_cell_volume 2670.404679
_symmetry_space_group_name_H-M "A B A 2"
_symmetry_group_IT_number 41
_symmetry_cell_setting 'orthorhombic'
loop_
_space_group_symop_operation_xyz
x,y,z
-x,-y,z
1/2-x,y,1/2+z
1/2+x,-y,1/2+z
x,1/2+y,1/2+z
-x,1/2-y,1/2+z
1/2-x,1/2+y,z
1/2+x,1/2-y,z
loop_
_atom_site_type_symbol
_atom_site_label
_atom_site_fract_x
_atom_site_fract_y
_atom_site_fract_z
Si Si1 0.483887 0.649582 0.254820
Si Si2 0.801230 0.638711 0.746695
Si Si3 0.000000 0.500000 0.012656
Si Si4 0.695176 0.362362 0.805952
Si Si5 0.413150 0.606950 0.973161
Si Si6 0.908416 0.101024 0.082743
Si Si7 0.479876 0.374132 0.797637
Si Si8 0.728909 0.499458 0.525214
O O1 0.464147 0.580204 0.405961
O O2 0.536916 0.589094 0.189450
O O3 0.505878 0.761341 0.293274
O O4 0.436023 0.671041 0.124088
O O5 0.777120 0.750992 0.785088
O O6 0.860578 0.664160 0.667391
O O7 0.761240 0.585422 0.621718
O O8 0.808246 0.564098 0.900325
O O9 0.963296 0.573758 0.128166
O O10 0.633140 0.338224 0.868040
O O11 0.692133 0.429071 0.642636
O O12 0.730021 0.423602 0.935643
O O13 0.466104 0.565888 0.869588
O O14 0.383495 0.510170 0.052862
O O15 0.926104 0.142677 0.907927
#
# Coordination Sequence:
#
# PCOD8185504 Si02
#       8
#     8   8   4   8   8   8   8   8
#     4  11  23  40  63  94 130 174 222 266 327 397
#     4  11  23  44  71  99 135 174 221 279 336 398
#     4  12  20  36  64  82 120 170 216 262 308 372
#     4  11  23  44  71  99 135 174 221 279 336 398
#     4  11  21  44  61  90 140 174 211 279 333 387
#     4  11  21  44  61  90 140 174 211 279 333 387
#     4  11  23  40  63  94 130 174 222 266 327 397
#     4  10  24  45  70 103 133 172 230 277 344 398
#
# _framework density 22.468502999999998
#
# number of rings (size 3 to 8) (size 9 to 14) (size 15 to 20)
#    0.000    1.067    4.000    4.000    0.000    1.067 
#    4.800    1.333    0.000    0.000    0.000    0.000 
#    0.000    0.000    0.000    0.000    0.000    0.000 
#
# Total GULP energy -371710.035240 kJ/mol
# GULP energy per Si atom -12390.334508 kJ/mol
# Density = 2.241736 g / cm^3
# Si number density = 22.468503 Si / 1000 Ang^3
#
#
#
# Elastic Constant Matrix: (Units=GPa)
#
#
# Indices 1 2 3 4 5 6 
#
# 1 87.5789 29.6174 56.7329 0.0000 0.0000 0.0000
# 2 29.6174 121.8004 38.8602 0.0000 0.0000 0.0000
# 3 56.7329 38.8602 121.8971 0.0000 0.0000 0.0000
# 4 0.0000 0.0000 0.0000 32.5755 0.0000 0.0000
# 5 0.0000 0.0000 0.0000 0.0000 16.1568 0.0000
# 6 0.0000 0.0000 0.0000 0.0000 0.0000 180.7729
#
#
#
# Elastic Compliance Matrix: (Units=1/GPa)
#
#
# Indices 1 2 3 4 5 6 
#
# 1 0.016678 -0.001758 -0.007202 0.000000 0.000000 0.000000
# 2 -0.001758 0.009325 -0.002155 0.000000 0.000000 0.000000
# 3 -0.007202 -0.002155 0.012242 0.000000 0.000000 0.000000
# 4 0.000000 0.000000 0.000000 0.030698 0.000000 0.000000
# 5 0.000000 0.000000 0.000000 0.000000 0.061894 0.000000
# 6 0.000000 0.000000 0.000000 0.000000 0.000000 0.005532
#
#
# Mechanical properties :
#
#
# Convention : Reuss Voigt Hill
#
# Bulk Modulus (GPa) = 62.43423 64.63307 63.53365
# Shear Modulus (GPa) = 30.49964 59.63875 45.06920
#
# Velocity S-wave (km/s) = 3.68834 5.15761 4.48357
# Velocity P-wave (km/s) = 6.78132 8.01850 7.42572
#
# Compressibility (1/GPa) = 0.01601685
#
# Stress axis : x y z
#
# Youngs Moduli (GPa) = 59.95914 107.23838 81.68323
#
# Poissons Ratio (x) = 0.18850 0.58827
# Poissons Ratio (y) = 0.10539 0.17600
# Poissons Ratio (z) = 0.43182 0.23107
#
# Static dielectric constant tensor:
#      x y z
#    x 3.458590 0.000000 0.000000 
#    y 0.000000 4.330900 0.000000 
#    z 0.000000 0.000000 4.450020 
# 
# 
# High freq. dielectric constant tensor:
#      x y z
#    x 1.838330 0.000000 0.000000 
#    y 0.000000 1.906750 0.000000 
#    z 0.000000 0.000000 1.901430 
# 
# From -- ./inp_files/3680.got.cif
#   From: 2010.03.12/outbox.cif.g09.slc.cpg/sg41_2_cif.got.tgz:3680.got - 2010.04.14 01:55:53.
