data_PCOD8185697
_publ_section_title
;
Structure prediction by ZEFSAII (Michael W. Deem and Ramdas Pophale) SiO2 
 PCOD8185697
Probable space group: A B A 2
;
_chemical_formula_sum "Si O2"
_cell_formula_units_Z 64
_cell_length_a 18.904204
_cell_length_b 17.282100
_cell_length_c 9.863192
_cell_angle_alpha 90.000000
_cell_angle_beta 90.000000
_cell_angle_gamma 90.000000
_cell_volume 3222.347672
_symmetry_space_group_name_H-M "A B A 2"
_symmetry_group_IT_number 41
_symmetry_cell_setting 'orthorhombic'
loop_
_space_group_symop_operation_xyz
x,y,z
-x,-y,z
1/2-x,y,1/2+z
1/2+x,-y,1/2+z
x,1/2+y,1/2+z
-x,1/2-y,1/2+z
1/2-x,1/2+y,z
1/2+x,1/2-y,z
loop_
_atom_site_type_symbol
_atom_site_label
_atom_site_fract_x
_atom_site_fract_y
_atom_site_fract_z
Si Si1 0.717118 0.536673 0.096660
Si Si2 0.213288 0.708645 0.335610
Si Si3 0.079113 0.489305 0.456167
Si Si4 0.212415 0.801246 0.612224
Si Si5 0.578483 0.988772 0.005150
Si Si6 0.579045 0.624572 0.713091
Si Si7 0.079485 0.624842 0.248288
Si Si8 0.786865 0.951816 0.361354
O O1 0.752105 0.618805 0.061837
O O2 0.740561 0.509909 0.245485
O O3 0.632066 0.529606 0.079787
O O4 0.746923 0.471687 0.997886
O O5 0.208620 0.741460 0.487941
O O6 0.239029 0.773628 0.233980
O O7 0.135273 0.692104 0.275869
O O8 0.267804 0.636708 0.326784
O O9 0.092196 0.418784 0.353718
O O10 0.093006 0.567969 0.374493
O O11 0.000000 0.500000 0.514893
O O12 0.134713 0.807969 0.681039
O O13 0.629760 0.969961 0.879607
O O14 0.500000 0.000000 0.945516
O O15 0.591600 0.918274 0.107259
O O16 0.592329 0.067451 0.086764
O O17 0.499931 0.658949 0.731473
#
# Coordination Sequence:
#
# PCOD8185697 Si02
#       8
#     8   8   8   8   8   8   8   8
#     4  12  23  39  66  92 121 163 214 258 309 375
#     4  12  25  40  61  94 132 166 210 263 319 379
#     4   9  18  35  63  94 119 154 210 267 309 370
#     4  12  25  40  61  94 132 166 210 263 319 379
#     4   9  18  35  63  94 119 154 210 267 309 370
#     4   9  18  37  63  88 120 166 208 249 320 386
#     4   9  18  37  63  88 120 166 208 249 320 386
#     4  12  23  39  66  92 121 163 214 258 309 375
#
# _framework density 19.861295999999999
#
# number of rings (size 3 to 8) (size 9 to 14) (size 15 to 20)
#    0.000    1.500    2.500    6.000    0.000    0.500 
#    0.000    6.250    0.000    0.000    0.000    0.000 
#    0.000    0.000    0.000    0.000    0.000    0.000 
#
# Total GULP energy -396550.443259 kJ/mol
# GULP energy per Si atom -12392.201352 kJ/mol
# Density = 1.981609 g / cm^3
# Si number density = 19.861296 Si / 1000 Ang^3
#
#
#
# Elastic Constant Matrix: (Units=GPa)
#
#
# Indices 1 2 3 4 5 6 
#
# 1 145.4426 40.1507 45.6941 0.0000 0.0000 0.0000
# 2 40.1507 62.9609 22.4809 0.0000 0.0000 0.0000
# 3 45.6941 22.4809 66.6836 0.0000 0.0000 0.0000
# 4 0.0000 0.0000 0.0000 24.2572 0.0000 0.0000
# 5 0.0000 0.0000 0.0000 0.0000 36.4336 0.0000
# 6 0.0000 0.0000 0.0000 0.0000 0.0000 37.1673
#
#
#
# Elastic Compliance Matrix: (Units=1/GPa)
#
#
# Indices 1 2 3 4 5 6 
#
# 1 0.009702 -0.004335 -0.005187 0.000000 0.000000 0.000000
# 2 -0.004335 0.019993 -0.003770 0.000000 0.000000 0.000000
# 3 -0.005187 -0.003770 0.019821 0.000000 0.000000 0.000000
# 4 0.000000 0.000000 0.000000 0.041225 0.000000 0.000000
# 5 0.000000 0.000000 0.000000 0.000000 0.027447 0.000000
# 6 0.000000 0.000000 0.000000 0.000000 0.000000 0.026905
#
#
# Mechanical properties :
#
#
# Convention : Reuss Voigt Hill
#
# Bulk Modulus (GPa) = 43.60430 54.63761 49.12096
# Shear Modulus (GPa) = 27.88298 30.68906 29.28602
#
# Velocity S-wave (km/s) = 3.75091 3.93513 3.84412
# Velocity P-wave (km/s) = 6.38445 6.94379 6.66999
#
# Compressibility (1/GPa) = 0.02293352
#
# Stress axis : x y z
#
# Youngs Moduli (GPa) = 103.07422 50.01658 50.45127
#
# Poissons Ratio (x) = 0.21682 0.26167
# Poissons Ratio (y) = 0.44682 0.19019
# Poissons Ratio (z) = 0.53460 0.18855
#
# Static dielectric constant tensor:
#      x y z
#    x 4.138580 0.000000 0.000000 
#    y 0.000000 3.327660 0.000000 
#    z 0.000000 0.000000 3.468710 
# 
# 
# High freq. dielectric constant tensor:
#      x y z
#    x 1.793650 0.000000 0.000000 
#    y 0.000000 1.750580 0.000000 
#    z 0.000000 0.000000 1.766570 
# 
# From -- ./inp_files/3503.got.cif
#   From: 2010.03.12/outbox.cif.g09.slc.cpg/sg41_2_cif.got.tgz:3503.got - 2010.04.14 01:55:53.
