data_PCOD8185209
_publ_section_title
;
Structure prediction by ZEFSAII (Michael W. Deem and Ramdas Pophale) SiO2 
 PCOD8185209
Probable space group: A B A 2
;
_chemical_formula_sum "Si O2"
_cell_formula_units_Z 32
_cell_length_a 13.472756
_cell_length_b 11.850513
_cell_length_c 8.239340
_cell_angle_alpha 90.000000
_cell_angle_beta 90.000000
_cell_angle_gamma 90.000000
_cell_volume 1315.485363
_symmetry_space_group_name_H-M "A B A 2"
_symmetry_group_IT_number 41
_symmetry_cell_setting 'orthorhombic'
loop_
_space_group_symop_operation_xyz
x,y,z
-x,-y,z
1/2-x,y,1/2+z
1/2+x,-y,1/2+z
x,1/2+y,1/2+z
-x,1/2-y,1/2+z
1/2-x,1/2+y,z
1/2+x,1/2-y,z
loop_
_atom_site_type_symbol
_atom_site_label
_atom_site_fract_x
_atom_site_fract_y
_atom_site_fract_z
Si Si1 0.213435 0.520880 0.675400
Si Si2 0.609489 0.048818 0.352840
Si Si3 0.911196 0.768626 0.182542
Si Si4 0.437085 0.896038 0.882697
O O1 0.332898 0.507098 0.696986
O O2 0.177406 0.473244 0.506159
O O3 0.186555 0.653179 0.681125
O O4 0.166515 0.446132 0.820533
O O5 0.601924 0.182266 0.329959
O O6 0.500000 0.000000 0.373287
O O7 0.005829 0.847460 0.222905
O O8 0.923034 0.703381 0.012784
O O9 0.500000 0.000000 0.959553
#
# Coordination Sequence:
#
# PCOD8185209 Si02
#       4
#     8   8   8   8
#     4  11  26  46  69 104 142 181 237 291 348 425
#     4  12  26  47  73 104 141 184 237 291 351 425
#     4  11  23  42  72 102 144 189 229 292 355 409
#     4  10  21  41  70 106 141 184 237 286 346 423
#
# _framework density 24.325620000000001
#
# number of rings (size 3 to 8) (size 9 to 14) (size 15 to 20)
#    0.000    1.000    0.000    7.500    0.000    8.000 
#    0.000    3.750    0.000    0.000    0.000    0.000 
#    0.000    0.000    0.000    0.000    0.000    0.000 
#
# Total GULP energy -198407.480605 kJ/mol
# GULP energy per Si atom -12400.467538 kJ/mol
# Density = 2.427025 g / cm^3
# Si number density = 24.325620 Si / 1000 Ang^3
#
#
#
# Elastic Constant Matrix: (Units=GPa)
#
#
# Indices 1 2 3 4 5 6 
#
# 1 113.0417 17.8314 37.2222 0.0000 0.0000 0.0000
# 2 17.8314 130.1371 28.4373 0.0000 0.0000 0.0000
# 3 37.2222 28.4373 98.3172 0.0000 0.0000 0.0000
# 4 0.0000 0.0000 0.0000 51.0918 0.0000 0.0000
# 5 0.0000 0.0000 0.0000 0.0000 34.3240 0.0000
# 6 0.0000 0.0000 0.0000 0.0000 0.0000 26.2556
#
#
#
# Elastic Compliance Matrix: (Units=1/GPa)
#
#
# Indices 1 2 3 4 5 6 
#
# 1 0.010148 -0.000588 -0.003672 0.000000 0.000000 0.000000
# 2 -0.000588 0.008237 -0.002160 0.000000 0.000000 0.000000
# 3 -0.003672 -0.002160 0.012186 0.000000 0.000000 0.000000
# 4 0.000000 0.000000 0.000000 0.019573 0.000000 0.000000
# 5 0.000000 0.000000 0.000000 0.000000 0.029134 0.000000
# 6 0.000000 0.000000 0.000000 0.000000 0.000000 0.038087
#
#
# Mechanical properties :
#
#
# Convention : Reuss Voigt Hill
#
# Bulk Modulus (GPa) = 56.39730 56.49753 56.44742
# Shear Modulus (GPa) = 36.73371 39.53460 38.13415
#
# Velocity S-wave (km/s) = 3.89019 4.03578 3.96366
# Velocity P-wave (km/s) = 6.58884 6.70766 6.64851
#
# Compressibility (1/GPa) = 0.01773134
#
# Stress axis : x y z
#
# Youngs Moduli (GPa) = 98.54020 121.40738 82.06135
#
# Poissons Ratio (x) = 0.07140 0.30132
# Poissons Ratio (y) = 0.05795 0.17723
# Poissons Ratio (z) = 0.36183 0.26221
#
# Static dielectric constant tensor:
#      x y z
#    x 4.479540 0.000000 0.000000 
#    y 0.000000 4.564980 0.000000 
#    z 0.000000 0.000000 4.332810 
# 
# 
# High freq. dielectric constant tensor:
#      x y z
#    x 1.969620 0.000000 0.000000 
#    y 0.000000 1.975130 0.000000 
#    z 0.000000 0.000000 1.974640 
# 
# From -- ./inp_files/2289.got.cif
#   From: 2010.03.12/outbox.cif.g09.slc.cpg/sg41_2_cif.got.tgz:2289.got - 2010.04.14 01:55:53.
