data_PCOD8185631
_publ_section_title
;
Structure prediction by ZEFSAII (Michael W. Deem and Ramdas Pophale) SiO2 
 PCOD8185631
Probable space group: A B A 2
;
_chemical_formula_sum "Si O2"
_cell_formula_units_Z 64
_cell_length_a 10.739830
_cell_length_b 29.315795
_cell_length_c 9.552703
_cell_angle_alpha 90.000000
_cell_angle_beta 90.000000
_cell_angle_gamma 90.000000
_cell_volume 3007.636582
_symmetry_space_group_name_H-M "A B A 2"
_symmetry_group_IT_number 41
_symmetry_cell_setting 'orthorhombic'
loop_
_space_group_symop_operation_xyz
x,y,z
-x,-y,z
1/2-x,y,1/2+z
1/2+x,-y,1/2+z
x,1/2+y,1/2+z
-x,1/2-y,1/2+z
1/2-x,1/2+y,z
1/2+x,1/2-y,z
loop_
_atom_site_type_symbol
_atom_site_label
_atom_site_fract_x
_atom_site_fract_y
_atom_site_fract_z
Si Si1 0.366218 0.016350 0.267800
Si Si2 0.861342 0.656170 0.308628
Si Si3 0.511702 0.805517 0.649744
Si Si4 0.309175 0.378914 0.091343
Si Si5 0.259971 0.167114 0.021296
Si Si6 0.128911 0.623278 0.276942
Si Si7 0.405197 0.748727 0.405036
Si Si8 0.361770 0.983266 0.580819
O O1 0.380693 0.069652 0.291168
O O2 0.500000 0.000000 0.204784
O O3 0.341104 0.991891 0.416181
O O4 0.249925 0.007797 0.164824
O O5 0.822243 0.632560 0.164304
O O6 0.784021 0.630506 0.429083
O O7 0.837510 0.710674 0.317212
O O8 0.006045 0.646924 0.339118
O O9 0.407233 0.844044 0.658402
O O10 0.641878 0.829897 0.622475
O O11 0.491055 0.769420 0.525794
O O12 0.510344 0.780415 0.799296
O O13 0.354507 0.430039 0.116434
O O14 0.239861 0.139383 0.878410
O O15 0.303606 0.217685 0.981715
O O16 0.358347 0.139348 0.116149
O O17 0.500000 0.000000 0.627703
#
# Coordination Sequence:
#
# PCOD8185631 Si02
#       8
#     8   8   8   8   8   8   8   8
#     4  11  25  44  74  98 137 177 224 287 352 416
#     4  11  25  42  68  95 135 178 219 278 324 412
#     4  11  26  42  66  94 134 177 224 275 327 398
#     4  11  24  43  66  94 135 172 221 272 345 390
#     4  12  25  42  68  97 135 175 222 283 327 406
#     4  12  24  47  67 100 133 174 225 279 345 398
#     4  11  25  41  66  97 135 176 227 266 337 386
#     4  11  24  43  70 101 133 175 226 284 343 424
#
# _framework density 21.279164999999999
#
# number of rings (size 3 to 8) (size 9 to 14) (size 15 to 20)
#    0.000    0.750    3.750    4.500    7.000    1.500 
#    0.000    3.750    0.000    0.000    0.000    0.000 
#    0.000    0.000    0.000    0.000    0.000    0.000 
#
# Total GULP energy -396859.760868 kJ/mol
# GULP energy per Si atom -12401.867527 kJ/mol
# Density = 2.123073 g / cm^3
# Si number density = 21.279165 Si / 1000 Ang^3
#
#
#
# Elastic Constant Matrix: (Units=GPa)
#
#
# Indices 1 2 3 4 5 6 
#
# 1 73.9439 13.2654 31.0660 0.0000 0.0000 0.0000
# 2 13.2654 121.9727 15.9043 0.0000 0.0000 0.0000
# 3 31.0660 15.9043 94.5787 0.0000 0.0000 0.0000
# 4 0.0000 0.0000 0.0000 33.5161 0.0000 0.0000
# 5 0.0000 0.0000 0.0000 0.0000 35.9973 0.0000
# 6 0.0000 0.0000 0.0000 0.0000 0.0000 29.6072
#
#
#
# Elastic Compliance Matrix: (Units=1/GPa)
#
#
# Indices 1 2 3 4 5 6 
#
# 1 0.015823 -0.001067 -0.005018 0.000000 0.000000 0.000000
# 2 -0.001067 0.008454 -0.001071 0.000000 0.000000 0.000000
# 3 -0.005018 -0.001071 0.012402 0.000000 0.000000 0.000000
# 4 0.000000 0.000000 0.000000 0.029836 0.000000 0.000000
# 5 0.000000 0.000000 0.000000 0.000000 0.027780 0.000000
# 6 0.000000 0.000000 0.000000 0.000000 0.000000 0.033776
#
#
# Mechanical properties :
#
#
# Convention : Reuss Voigt Hill
#
# Bulk Modulus (GPa) = 44.70826 45.66298 45.18562
# Shear Modulus (GPa) = 33.36919 35.17476 34.27197
#
# Velocity S-wave (km/s) = 3.96430 4.07014 4.01757
# Velocity P-wave (km/s) = 6.48153 6.60255 6.54232
#
# Compressibility (1/GPa) = 0.02236723
#
# Stress axis : x y z
#
# Youngs Moduli (GPa) = 63.19769 118.28378 80.63454
#
# Poissons Ratio (x) = 0.12616 0.40463
# Poissons Ratio (y) = 0.06741 0.08639
# Poissons Ratio (z) = 0.31713 0.12672
#
# Static dielectric constant tensor:
#      x y z
#    x 3.870490 0.000000 0.000000 
#    y 0.000000 3.933370 0.000000 
#    z 0.000000 0.000000 3.852040 
# 
# 
# High freq. dielectric constant tensor:
#      x y z
#    x 1.829550 0.000000 0.000000 
#    y 0.000000 1.848250 0.000000 
#    z 0.000000 0.000000 1.841280 
# 
# From -- ./inp_files/2236.got.cif
#   From: 2010.03.12/outbox.cif.g09.slc.cpg/sg41_2_cif.got.tgz:2236.got - 2010.04.14 01:55:53.
