data_PCOD8185420
_publ_section_title
;
Structure prediction by ZEFSAII (Michael W. Deem and Ramdas Pophale) SiO2 
 PCOD8185420
Probable space group: A B A 2
;
_chemical_formula_sum "Si O2"
_cell_formula_units_Z 64
_cell_length_a 9.373028
_cell_length_b 14.506320
_cell_length_c 21.395166
_cell_angle_alpha 90.000000
_cell_angle_beta 90.000000
_cell_angle_gamma 90.000000
_cell_volume 2909.061002
_symmetry_space_group_name_H-M "A B A 2"
_symmetry_group_IT_number 41
_symmetry_cell_setting 'orthorhombic'
loop_
_space_group_symop_operation_xyz
x,y,z
-x,-y,z
1/2-x,y,1/2+z
1/2+x,-y,1/2+z
x,1/2+y,1/2+z
-x,1/2-y,1/2+z
1/2-x,1/2+y,z
1/2+x,1/2-y,z
loop_
_atom_site_type_symbol
_atom_site_label
_atom_site_fract_x
_atom_site_fract_y
_atom_site_fract_z
Si Si1 0.919083 0.095544 0.160100
Si Si2 0.827076 0.807695 0.981747
Si Si3 0.880976 0.174769 0.028525
Si Si4 0.222729 0.746592 0.341738
Si Si5 0.482687 0.751767 0.258823
Si Si6 0.838764 0.039259 0.330004
Si Si7 0.861969 0.561668 0.215743
Si Si8 0.163069 0.497069 0.448187
O O1 0.947770 0.144522 0.094302
O O2 0.751552 0.068523 0.159567
O O3 0.965946 0.164864 0.216328
O O4 0.000000 0.000000 0.166876
O O5 0.775540 0.786978 0.912111
O O6 0.811822 0.916754 0.994341
O O7 0.736977 0.754335 0.034502
O O8 0.991902 0.780122 0.988394
O O9 0.807912 0.092472 0.989668
O O10 0.375964 0.720222 0.313854
O O11 0.166878 0.851611 0.339792
O O12 0.112182 0.696951 0.294904
O O13 0.408212 0.831908 0.220058
O O14 0.729239 0.018652 0.273233
O O15 0.773316 0.992391 0.391450
O O16 0.000000 0.000000 0.317730
O O17 0.000000 0.500000 0.199807
O O18 0.000000 0.500000 0.422285
#
# Coordination Sequence:
#
# PCOD8185420 Si02
#       8
#     8   8   8   8   8   8   8   8
#     4  12  27  49  74  98 141 187 236 293 353 410
#     4  11  24  42  73  95 140 183 223 292 351 413
#     4  11  26  48  67 103 132 184 243 281 350 414
#     4  11  24  40  69 104 140 179 225 287 352 418
#     4  11  25  44  66 105 142 179 235 283 347 417
#     4  11  23  40  67 104 146 177 227 284 354 426
#     4  11  27  45  70 105 138 188 231 289 350 425
#     4  10  23  42  65  98 134 185 230 284 347 419
#
# _framework density 22.000226999999999
#
# number of rings (size 3 to 8) (size 9 to 14) (size 15 to 20)
#    0.000    1.000    3.750    2.625   14.000    0.000 
#    2.250    0.625    0.000    0.000    0.000    0.000 
#    0.000    0.000    0.000    0.000    0.000    0.000 
#
# Total GULP energy -396567.701629 kJ/mol
# GULP energy per Si atom -12392.740676 kJ/mol
# Density = 2.195015 g / cm^3
# Si number density = 22.000227 Si / 1000 Ang^3
#
#
#
# Elastic Constant Matrix: (Units=GPa)
#
#
# Indices 1 2 3 4 5 6 
#
# 1 126.5702 69.1421 30.4986 0.0000 0.0000 0.0000
# 2 69.1421 90.7769 22.5040 0.0000 0.0000 0.0000
# 3 30.4986 22.5040 81.8449 0.0000 0.0000 0.0000
# 4 0.0000 0.0000 0.0000 17.0158 0.0000 0.0000
# 5 0.0000 0.0000 0.0000 0.0000 28.0511 0.0000
# 6 0.0000 0.0000 0.0000 0.0000 0.0000 41.8543
#
#
#
# Elastic Compliance Matrix: (Units=1/GPa)
#
#
# Indices 1 2 3 4 5 6 
#
# 1 0.013973 -0.010036 -0.002447 0.000000 0.000000 0.000000
# 2 -0.010036 0.019030 -0.001493 0.000000 0.000000 0.000000
# 3 -0.002447 -0.001493 0.013541 0.000000 0.000000 0.000000
# 4 0.000000 0.000000 0.000000 0.058769 0.000000 0.000000
# 5 0.000000 0.000000 0.000000 0.000000 0.035649 0.000000
# 6 0.000000 0.000000 0.000000 0.000000 0.000000 0.023892
#
#
# Mechanical properties :
#
#
# Convention : Reuss Voigt Hill
#
# Bulk Modulus (GPa) = 53.78784 60.38682 57.08733
# Shear Modulus (GPa) = 25.12515 29.18739 27.15627
#
# Velocity S-wave (km/s) = 3.38308 3.64632 3.51716
# Velocity P-wave (km/s) = 6.30572 6.72573 6.51911
#
# Compressibility (1/GPa) = 0.01859156
#
# Stress axis : x y z
#
# Youngs Moduli (GPa) = 71.56717 52.54805 73.85178
#
# Poissons Ratio (x) = 0.52737 0.18074
# Poissons Ratio (y) = 0.71825 0.11024
# Poissons Ratio (z) = 0.17515 0.07844
#
# Static dielectric constant tensor:
#      x y z
#    x 4.426650 0.000000 0.000000 
#    y 0.000000 4.073220 0.000000 
#    z 0.000000 0.000000 3.832670 
# 
# 
# High freq. dielectric constant tensor:
#      x y z
#    x 1.878310 0.000000 0.000000 
#    y 0.000000 1.872680 0.000000 
#    z 0.000000 0.000000 1.849630 
# 
# From -- ./inp_files/12030.got.cif
#   From: 2010.03.12/outbox.cif.g09.slc.cpg/sg41_7_cif.got.tgz:12030.got - 2010.04.14 01:55:53.
