data_PCOD8185851
_publ_section_title
;
Structure prediction by ZEFSAII (Michael W. Deem and Ramdas Pophale) SiO2 
 PCOD8185851
Probable space group: F M M 2
;
_chemical_formula_sum "Si O2"
_cell_formula_units_Z 100
_cell_length_a 7.658009
_cell_length_b 26.942288
_cell_length_c 26.645698
_cell_angle_alpha 90.000000
_cell_angle_beta 90.000000
_cell_angle_gamma 90.000000
_cell_volume 5497.654561
_symmetry_space_group_name_H-M "F M M 2"
_symmetry_group_IT_number 42
_symmetry_cell_setting 'orthorhombic'
loop_
_space_group_symop_operation_xyz
x,y,z
-x,-y,z
-x,y,z
x,-y,z
x,1/2+y,1/2+z
-x,1/2-y,1/2+z
-x,1/2+y,1/2+z
x,1/2-y,1/2+z
1/2+x,y,1/2+z
1/2-x,-y,1/2+z
1/2-x,y,1/2+z
1/2+x,-y,1/2+z
1/2+x,1/2+y,z
1/2-x,1/2-y,z
1/2-x,1/2+y,z
1/2+x,1/2-y,z
loop_
_atom_site_type_symbol
_atom_site_label
_atom_site_fract_x
_atom_site_fract_y
_atom_site_fract_z
Si Si1 0.705734 0.804432 0.931100
Si Si2 0.500000 0.055556 0.704031
Si Si3 0.500000 0.000000 0.608290
Si Si4 0.192438 0.404137 0.967430
Si Si5 0.787496 0.000000 0.526118
Si Si6 0.795756 0.304219 0.817556
Si Si7 0.802087 0.899177 0.763854
Si Si8 0.699508 0.442807 0.867481
O O1 0.500000 0.811404 0.928783
O O2 0.750000 0.750000 0.953307
O O3 0.781367 0.848596 0.968029
O O4 0.781734 0.809748 0.874333
O O5 0.500000 0.049329 0.643442
O O6 0.326999 0.086387 0.718798
O O7 0.500000 0.000000 0.728547
O O8 0.681570 0.000000 0.577732
O O9 0.181260 0.415645 0.908156
O O10 0.000000 0.400238 0.990434
O O11 0.282022 0.450161 0.996919
O O12 0.000000 0.000000 0.532998
O O13 0.750000 0.250000 0.796948
O O14 0.703766 0.341429 0.778760
O O15 0.000000 0.314586 0.816962
O O16 0.735300 0.929935 0.811984
O O17 0.000000 0.913450 0.748168
O O18 0.500000 0.425390 0.874369
O O19 0.722825 0.500000 0.877429
#
# Coordination Sequence:
#
# PCOD8185851 Si02
#       8
#    16   8   4  16   8  16  16  16
#     4   9  18  30  44  69 112 159 199 227 256 313
#     4  10  24  42  60  84 105 147 188 234 290 355
#     4  10  26  46  64  84 106 138 194 234 296 362
#     4  10  19  31  50  79 110 151 187 222 277 331
#     4  10  22  40  61  85 113 139 180 244 298 343
#     4  10  18  30  48  74 116 164 200 231 266 318
#     4  11  21  35  54  81 118 152 191 233 279 335
#     4  10  20  29  43  73 111 152 183 219 262 325
#
# _framework density 18.189575000000001
#
# number of rings (size 3 to 8) (size 9 to 14) (size 15 to 20)
#    0.240    1.760    3.200    0.960    2.240    2.880 
#    0.000    0.000    0.000    0.000    0.000    1.120 
#    0.000    0.000    0.000    0.000    0.000    0.000 
#
# Total GULP energy -309721.827603 kJ/mol
# GULP energy per Si atom -12388.873104 kJ/mol
# Density = 1.814817 g / cm^3
# Si number density = 18.189575 Si / 1000 Ang^3
#
#
#
# Elastic Constant Matrix: (Units=GPa)
#
#
# Indices 1 2 3 4 5 6 
#
# 1 59.1534 27.5797 24.5375 0.0000 0.0000 0.0000
# 2 27.5797 139.9083 49.7255 0.0000 0.0000 0.0000
# 3 24.5375 49.7255 71.6447 0.0000 0.0000 0.0000
# 4 0.0000 0.0000 0.0000 17.3833 0.0000 0.0000
# 5 0.0000 0.0000 0.0000 0.0000 19.9659 0.0000
# 6 0.0000 0.0000 0.0000 0.0000 0.0000 22.1194
#
#
#
# Elastic Compliance Matrix: (Units=1/GPa)
#
#
# Indices 1 2 3 4 5 6 
#
# 1 0.020123 -0.002014 -0.005494 0.000000 0.000000 0.000000
# 2 -0.002014 0.009690 -0.006035 0.000000 0.000000 0.000000
# 3 -0.005494 -0.006035 0.020028 0.000000 0.000000 0.000000
# 4 0.000000 0.000000 0.000000 0.057526 0.000000 0.000000
# 5 0.000000 0.000000 0.000000 0.000000 0.050085 0.000000
# 6 0.000000 0.000000 0.000000 0.000000 0.000000 0.045209
#
#
# Mechanical properties :
#
#
# Convention : Reuss Voigt Hill
#
# Bulk Modulus (GPa) = 43.94811 52.71020 48.32915
# Shear Modulus (GPa) = 21.06737 23.15131 22.10934
#
# Velocity S-wave (km/s) = 3.40694 3.57147 3.49018
# Velocity P-wave (km/s) = 6.30000 6.78590 6.54745
#
# Compressibility (1/GPa) = 0.02275411
#
# Stress axis : x y z
#
# Youngs Moduli (GPa) = 49.69365 103.20312 49.92941
#
# Poissons Ratio (x) = 0.20787 0.27431
# Poissons Ratio (y) = 0.10009 0.30134
# Poissons Ratio (z) = 0.27302 0.62286
#
# Static dielectric constant tensor:
#      x y z
#    x 3.528730 0.000000 0.000000 
#    y 0.000000 3.751900 0.000000 
#    z 0.000000 0.000000 2.839990 
# 
# 
# High freq. dielectric constant tensor:
#      x y z
#    x 1.704620 0.000000 0.000000 
#    y 0.000000 1.724040 0.000000 
#    z 0.000000 0.000000 1.631610 
# 
# From -- ./inp_files/23849.got.cif
#   From: 2010.03.12/outbox.cif.g09.slc.cpg/sg42_12_cif.got.tgz:23849.got - 2010.04.14 02:04:31.
