data_PCOD8185185
_publ_section_title
;
Structure prediction by ZEFSAII (Michael W. Deem and Ramdas Pophale) SiO2 
 PCOD8185185
Probable space group: A B A 2
;
_chemical_formula_sum "Si O2"
_cell_formula_units_Z 64
_cell_length_a 11.813757
_cell_length_b 19.834959
_cell_length_c 13.184596
_cell_angle_alpha 90.000000
_cell_angle_beta 90.000000
_cell_angle_gamma 90.000000
_cell_volume 3089.485543
_symmetry_space_group_name_H-M "A B A 2"
_symmetry_group_IT_number 41
_symmetry_cell_setting 'orthorhombic'
loop_
_space_group_symop_operation_xyz
x,y,z
-x,-y,z
1/2-x,y,1/2+z
1/2+x,-y,1/2+z
x,1/2+y,1/2+z
-x,1/2-y,1/2+z
1/2-x,1/2+y,z
1/2+x,1/2-y,z
loop_
_atom_site_type_symbol
_atom_site_label
_atom_site_fract_x
_atom_site_fract_y
_atom_site_fract_z
Si Si1 0.962127 0.312947 0.665640
Si Si2 0.411842 0.706492 0.936961
Si Si3 0.162802 0.334370 0.812677
Si Si4 0.322421 0.065953 0.421273
Si Si5 0.583107 0.179658 0.268938
Si Si6 0.930378 0.937335 0.712110
Si Si7 0.821771 0.944235 0.146397
Si Si8 0.123546 0.982363 0.338329
O O1 0.960974 0.289040 0.549715
O O2 0.900754 0.253185 0.723554
O O3 0.890415 0.379876 0.687503
O O4 0.088535 0.321866 0.711136
O O5 0.355554 0.775083 0.895080
O O6 0.316163 0.647818 0.927624
O O7 0.523317 0.685185 0.876941
O O8 0.291150 0.347309 0.780306
O O9 0.135059 0.404411 0.867846
O O10 0.407834 0.045479 0.331282
O O11 0.360903 0.038454 0.531780
O O12 0.201395 0.033631 0.400363
O O13 0.506978 0.129660 0.199297
O O14 0.812390 0.927442 0.652461
O O15 0.000000 0.000000 0.665862
O O16 0.854495 0.007375 0.217336
O O17 0.000000 0.000000 0.373662
#
# Coordination Sequence:
#
# PCOD8185185 Si02
#       8
#     8   8   8   8   8   8   8   8
#     4  10  22  41  64  92 124 167 211 259 317 377
#     4   9  22  43  63  92 121 172 213 258 315 382
#     4  11  23  41  63  97 130 158 215 270 318 374
#     4   9  21  40  66  86 121 169 214 252 316 380
#     4  10  22  38  64  91 123 163 206 264 314 366
#     4  10  21  41  63  89 126 164 209 258 319 378
#     4  10  21  41  65  89 123 171 212 250 319 388
#     4  11  22  40  61  94 130 166 199 265 323 374
#
# _framework density 20.715423999999999
#
# number of rings (size 3 to 8) (size 9 to 14) (size 15 to 20)
#    0.000    2.000    1.250    1.500    7.000    2.000 
#   13.500    0.000    0.000    0.000    0.000    0.000 
#    0.000    0.000    0.000    0.000    0.000    0.000 
#
# Total GULP energy -396660.890077 kJ/mol
# GULP energy per Si atom -12395.652815 kJ/mol
# Density = 2.066827 g / cm^3
# Si number density = 20.715424 Si / 1000 Ang^3
#
#
#
# Elastic Constant Matrix: (Units=GPa)
#
#
# Indices 1 2 3 4 5 6 
#
# 1 97.6664 37.8081 -2.6913 0.0000 0.0000 0.0000
# 2 37.8081 103.5384 21.6894 0.0000 0.0000 0.0000
# 3 -2.6913 21.6894 74.4299 0.0000 0.0000 0.0000
# 4 0.0000 0.0000 0.0000 22.0505 0.0000 0.0000
# 5 0.0000 0.0000 0.0000 0.0000 14.5966 0.0000
# 6 0.0000 0.0000 0.0000 0.0000 0.0000 37.8768
#
#
#
# Elastic Compliance Matrix: (Units=1/GPa)
#
#
# Indices 1 2 3 4 5 6 
#
# 1 0.012158 -0.004826 0.001846 0.000000 0.000000 0.000000
# 2 -0.004826 0.012202 -0.003730 0.000000 0.000000 0.000000
# 3 0.001846 -0.003730 0.014589 0.000000 0.000000 0.000000
# 4 0.000000 0.000000 0.000000 0.045351 0.000000 0.000000
# 5 0.000000 0.000000 0.000000 0.000000 0.068509 0.000000
# 6 0.000000 0.000000 0.000000 0.000000 0.000000 0.026401
#
#
# Mechanical properties :
#
#
# Convention : Reuss Voigt Hill
#
# Bulk Modulus (GPa) = 39.17224 43.24966 41.21095
# Shear Modulus (GPa) = 24.85819 29.49335 27.17577
#
# Velocity S-wave (km/s) = 3.46784 3.77734 3.62589
# Velocity P-wave (km/s) = 5.91484 6.32042 6.12099
#
# Compressibility (1/GPa) = 0.02552828
#
# Stress axis : x y z
#
# Youngs Moduli (GPa) = 82.24924 81.95323 68.54361
#
# Poissons Ratio (x) = 0.39554 -0.12654
# Poissons Ratio (y) = 0.39697 0.25569
# Poissons Ratio (z) = -0.15184 0.30571
#
# Static dielectric constant tensor:
#      x y z
#    x 3.679580 0.000000 0.000000 
#    y 0.000000 3.903640 0.000000 
#    z 0.000000 0.000000 3.706820 
# 
# 
# High freq. dielectric constant tensor:
#      x y z
#    x 1.811820 0.000000 0.000000 
#    y 0.000000 1.820170 0.000000 
#    z 0.000000 0.000000 1.796820 
# 
# From -- ./inp_files/8087.got.cif
#   From: 2010.03.12/outbox.cif.g09.slc.cpg/sg41_5_cif.got.tgz:8087.got - 2010.04.14 01:55:53.
