data_PCOD8185112
_publ_section_title
;
Structure prediction by ZEFSAII (Michael W. Deem and Ramdas Pophale) SiO2 
 PCOD8185112
Probable space group: A B A 2
;
_chemical_formula_sum "Si O2"
_cell_formula_units_Z 60
_cell_length_a 30.592175
_cell_length_b 16.468580
_cell_length_c 5.294104
_cell_angle_alpha 90.000000
_cell_angle_beta 90.000000
_cell_angle_gamma 90.000000
_cell_volume 2667.220849
_symmetry_space_group_name_H-M "A B A 2"
_symmetry_group_IT_number 41
_symmetry_cell_setting 'orthorhombic'
loop_
_space_group_symop_operation_xyz
x,y,z
-x,-y,z
1/2-x,y,1/2+z
1/2+x,-y,1/2+z
x,1/2+y,1/2+z
-x,1/2-y,1/2+z
1/2-x,1/2+y,z
1/2+x,1/2-y,z
loop_
_atom_site_type_symbol
_atom_site_label
_atom_site_fract_x
_atom_site_fract_y
_atom_site_fract_z
Si Si1 0.642800 0.045635 0.323170
Si Si2 0.122953 0.316521 0.652666
Si Si3 0.071182 0.429593 0.941722
Si Si4 0.272959 0.141060 0.661936
Si Si5 0.762927 0.037943 0.668404
Si Si6 0.000000 0.000000 0.753839
Si Si7 0.132544 0.215680 0.148256
Si Si8 0.578472 0.932659 0.566523
O O1 0.652860 0.106458 0.560042
O O2 0.686126 0.017759 0.179505
O O3 0.619185 0.963582 0.402468
O O4 0.610535 0.092967 0.132188
O O5 0.075494 0.359428 0.724849
O O6 0.120385 0.258109 0.412581
O O7 0.141337 0.272918 0.904293
O O8 0.077407 0.520267 0.831893
O O9 0.024765 0.431853 0.084731
O O10 0.251990 0.178151 0.406085
O O11 0.267064 0.043358 0.652227
O O12 0.323984 0.162090 0.685653
O O13 0.752446 0.088813 0.414637
O O14 0.032805 0.052381 0.924779
O O15 0.088986 0.161968 0.102247
#
# Coordination Sequence:
#
# PCOD8185112 Si02
#       8
#     8   8   8   8   8   4   8   8
#     4  10  22  43  71  97 134 188 230 284 343 419
#     4  11  25  45  70  98 144 190 231 278 353 438
#     4  10  22  44  76 100 139 182 230 285 352 424
#     4  10  21  38  61  96 138 173 227 300 342 387
#     4  10  22  35  61  97 131 166 231 293 335 383
#     4  10  22  44  74 110 140 168 236 302 354 408
#     4  12  25  43  72 104 142 189 241 282 356 429
#     4  10  23  39  76 104 134 177 237 288 342 418
#
# _framework density 22.495324
#
# number of rings (size 3 to 8) (size 9 to 14) (size 15 to 20)
#    0.000    1.600    1.333    2.800   11.200    0.000 
#    0.000    4.000   11.733    0.000    0.000    0.000 
#    0.000    0.000    0.000    0.000    0.000    0.000 
#
# Total GULP energy -371649.751493 kJ/mol
# GULP energy per Si atom -12388.325050 kJ/mol
# Density = 2.244412 g / cm^3
# Si number density = 22.495324 Si / 1000 Ang^3
#
#
#
# Elastic Constant Matrix: (Units=GPa)
#
#
# Indices 1 2 3 4 5 6 
#
# 1 116.0475 21.5430 43.7557 0.0000 0.0000 0.0000
# 2 21.5430 71.1468 24.5803 0.0000 0.0000 0.0000
# 3 43.7557 24.5803 163.7560 0.0000 0.0000 0.0000
# 4 0.0000 0.0000 0.0000 30.1413 0.0000 0.0000
# 5 0.0000 0.0000 0.0000 0.0000 28.7062 0.0000
# 6 0.0000 0.0000 0.0000 0.0000 0.0000 15.0190
#
#
#
# Elastic Compliance Matrix: (Units=1/GPa)
#
#
# Indices 1 2 3 4 5 6 
#
# 1 0.009898 -0.002197 -0.002315 0.000000 0.000000 0.000000
# 2 -0.002197 0.015312 -0.001711 0.000000 0.000000 0.000000
# 3 -0.002315 -0.001711 0.006982 0.000000 0.000000 0.000000
# 4 0.000000 0.000000 0.000000 0.033177 0.000000 0.000000
# 5 0.000000 0.000000 0.000000 0.000000 0.034836 0.000000
# 6 0.000000 0.000000 0.000000 0.000000 0.000000 0.066582
#
#
# Mechanical properties :
#
#
# Convention : Reuss Voigt Hill
#
# Bulk Modulus (GPa) = 50.64562 58.96759 54.80661
# Shear Modulus (GPa) = 26.90839 32.17806 29.54322
#
# Velocity S-wave (km/s) = 3.46233 3.78621 3.62789
# Velocity P-wave (km/s) = 6.20857 6.73677 6.47805
#
# Compressibility (1/GPa) = 0.01974504
#
# Stress axis : x y z
#
# Youngs Moduli (GPa) = 101.03160 65.30831 143.22432
#
# Poissons Ratio (x) = 0.14350 0.33155
# Poissons Ratio (y) = 0.22199 0.24509
# Poissons Ratio (z) = 0.23388 0.11176
#
# Static dielectric constant tensor:
#      x y z
#    x 3.891120 0.000000 0.000000 
#    y 0.000000 3.776310 0.000000 
#    z 0.000000 0.000000 5.009930 
# 
# 
# High freq. dielectric constant tensor:
#      x y z
#    x 1.870440 0.000000 0.000000 
#    y 0.000000 1.851020 0.000000 
#    z 0.000000 0.000000 1.921610 
# 
# From -- ./inp_files/1192.got.cif
#   From: 2010.03.12/outbox.cif.g09.slc.cpg/sg41_1_cif.got.tgz:1192.got - 2010.04.14 01:55:53.
