data_PCOD8185320
_publ_section_title
;
Structure prediction by ZEFSAII (Michael W. Deem and Ramdas Pophale) SiO2 
 PCOD8185320
Probable space group: A B A 2
;
_chemical_formula_sum "Si O2"
_cell_formula_units_Z 60
_cell_length_a 18.276688
_cell_length_b 27.546856
_cell_length_c 5.383238
_cell_angle_alpha 90.000000
_cell_angle_beta 90.000000
_cell_angle_gamma 90.000000
_cell_volume 2710.273494
_symmetry_space_group_name_H-M "A B A 2"
_symmetry_group_IT_number 41
_symmetry_cell_setting 'orthorhombic'
loop_
_space_group_symop_operation_xyz
x,y,z
-x,-y,z
1/2-x,y,1/2+z
1/2+x,-y,1/2+z
x,1/2+y,1/2+z
-x,1/2-y,1/2+z
1/2-x,1/2+y,z
1/2+x,1/2-y,z
loop_
_atom_site_type_symbol
_atom_site_label
_atom_site_fract_x
_atom_site_fract_y
_atom_site_fract_z
Si Si1 0.142678 0.013813 0.778400
Si Si2 0.444399 0.860638 0.264430
Si Si3 0.207256 0.910503 0.755105
Si Si4 0.000000 0.000000 0.087389
Si Si5 0.422447 0.658223 0.083398
Si Si6 0.451587 0.078452 0.944000
Si Si7 0.959227 0.741524 0.072016
Si Si8 0.709097 0.390804 0.894167
O O1 0.113179 0.042918 0.536730
O O2 0.194509 0.051592 0.924277
O O3 0.192001 0.967616 0.721558
O O4 0.072726 0.995869 0.927998
O O5 0.364986 0.880697 0.326615
O O6 0.491550 0.844167 0.503825
O O7 0.430410 0.813617 0.087992
O O8 0.490453 0.904962 0.148320
O O9 0.239391 0.896777 0.484436
O O10 0.000583 0.049290 0.244551
O O11 0.412490 0.625898 0.330005
O O12 0.401490 0.714786 0.135298
O O13 0.369326 0.636403 0.872198
O O14 0.020420 0.748682 0.285144
O O15 0.751503 0.374473 0.647402
#
# Coordination Sequence:
#
# PCOD8185320 Si02
#       8
#     8   8   8   4   8   8   8   8
#     4  12  25  43  61 100 133 190 228 285 341 418
#     4  11  24  46  72 103 135 180 238 293 344 419
#     4  12  30  47  67  98 142 190 234 282 345 410
#     4  12  24  36  68 104 132 174 240 290 344 400
#     4  11  23  43  72 104 136 180 230 294 348 415
#     4  12  21  40  71 100 136 171 237 289 347 399
#     4  10  22  40  73 108 136 170 231 295 355 403
#     4  12  26  43  66  98 141 180 223 277 346 413
#
# _framework density 22.137989000000001
#
# number of rings (size 3 to 8) (size 9 to 14) (size 15 to 20)
#    0.000    0.533    4.000    4.400    5.600    0.000 
#    0.000    1.333    0.000    0.000    0.000    0.000 
#    0.000    0.000    0.000    0.000    0.000    0.000 
#
# Total GULP energy -371839.042136 kJ/mol
# GULP energy per Si atom -12394.634738 kJ/mol
# Density = 2.208760 g / cm^3
# Si number density = 22.137989 Si / 1000 Ang^3
#
#
#
# Elastic Constant Matrix: (Units=GPa)
#
#
# Indices 1 2 3 4 5 6 
#
# 1 91.1450 23.1154 30.5393 0.0000 0.0000 0.0000
# 2 23.1154 90.5841 3.7532 0.0000 0.0000 0.0000
# 3 30.5393 3.7532 103.5854 0.0000 0.0000 0.0000
# 4 0.0000 0.0000 0.0000 34.8443 0.0000 0.0000
# 5 0.0000 0.0000 0.0000 0.0000 20.9534 0.0000
# 6 0.0000 0.0000 0.0000 0.0000 0.0000 15.4638
#
#
#
# Elastic Compliance Matrix: (Units=1/GPa)
#
#
# Indices 1 2 3 4 5 6 
#
# 1 0.013023 -0.003169 -0.003725 0.000000 0.000000 0.000000
# 2 -0.003169 0.011827 0.000506 0.000000 0.000000 0.000000
# 3 -0.003725 0.000506 0.010734 0.000000 0.000000 0.000000
# 4 0.000000 0.000000 0.000000 0.028699 0.000000 0.000000
# 5 0.000000 0.000000 0.000000 0.000000 0.047725 0.000000
# 6 0.000000 0.000000 0.000000 0.000000 0.000000 0.064667
#
#
# Mechanical properties :
#
#
# Convention : Reuss Voigt Hill
#
# Bulk Modulus (GPa) = 43.84386 44.45892 44.15139
# Shear Modulus (GPa) = 25.37378 29.44607 27.40992
#
# Velocity S-wave (km/s) = 3.38918 3.65103 3.52254
# Velocity P-wave (km/s) = 5.92985 6.15627 6.04412
#
# Compressibility (1/GPa) = 0.02280821
#
# Stress axis : x y z
#
# Youngs Moduli (GPa) = 76.78588 84.55106 93.16478
#
# Poissons Ratio (x) = 0.26794 0.34701
# Poissons Ratio (y) = 0.24333 -0.04712
# Poissons Ratio (z) = 0.28601 -0.04276
#
# Static dielectric constant tensor:
#      x y z
#    x 3.944300 0.000000 0.000000 
#    y 0.000000 4.457490 0.000000 
#    z 0.000000 0.000000 3.985790 
# 
# 
# High freq. dielectric constant tensor:
#      x y z
#    x 1.849160 0.000000 0.000000 
#    y 0.000000 1.879230 0.000000 
#    z 0.000000 0.000000 1.876650 
# 
# From -- ./inp_files/540.got.cif
#   From: 2010.03.12/outbox.cif.g09.slc.cpg/sg41_1_cif.got.tgz:540.got - 2010.04.14 01:55:53.
