data_PCOD8185593
_publ_section_title
;
Structure prediction by ZEFSAII (Michael W. Deem and Ramdas Pophale) SiO2 
 PCOD8185593
Probable space group: A B A 2
;
_chemical_formula_sum "Si O2"
_cell_formula_units_Z 60
_cell_length_a 18.241553
_cell_length_b 11.905165
_cell_length_c 12.351995
_cell_angle_alpha 90.000000
_cell_angle_beta 90.000000
_cell_angle_gamma 90.000000
_cell_volume 2682.466676
_symmetry_space_group_name_H-M "A B A 2"
_symmetry_group_IT_number 41
_symmetry_cell_setting 'orthorhombic'
loop_
_space_group_symop_operation_xyz
x,y,z
-x,-y,z
1/2-x,y,1/2+z
1/2+x,-y,1/2+z
x,1/2+y,1/2+z
-x,1/2-y,1/2+z
1/2-x,1/2+y,z
1/2+x,1/2-y,z
loop_
_atom_site_type_symbol
_atom_site_label
_atom_site_fract_x
_atom_site_fract_y
_atom_site_fract_z
Si Si1 0.754455 0.812284 0.955860
Si Si2 0.477449 0.721022 0.936523
Si Si3 0.861975 0.783189 0.774818
Si Si4 0.704232 0.460848 0.624825
Si Si5 0.500000 0.000000 0.572053
Si Si6 0.118070 0.693093 0.831658
Si Si7 0.863725 0.693428 0.103112
Si Si8 0.641023 0.526010 0.223753
O O1 0.819286 0.840319 0.874493
O O2 0.690343 0.751840 0.886729
O O3 0.721110 0.929277 0.000448
O O4 0.785921 0.739978 0.056939
O O5 0.445826 0.705150 0.814186
O O6 0.554428 0.779985 0.916265
O O7 0.486253 0.603799 0.994865
O O8 0.426173 0.800240 0.011081
O O9 0.841771 0.854094 0.669756
O O10 0.843102 0.652048 0.761964
O O11 0.650153 0.565305 0.635281
O O12 0.783216 0.477480 0.678247
O O13 0.572922 0.024340 0.640963
O O14 0.109507 0.740900 0.709871
O O15 0.121057 0.557246 0.822653
#
# Coordination Sequence:
#
# PCOD8185593 Si02
#       8
#     8   8   8   8   4   8   8   8
#     4  11  23  44  68 108 139 181 244 289 363 431
#     4  11  28  47  71 104 146 198 246 300 372 443
#     4  11  26  47  69 109 144 190 248 291 367 436
#     4  12  25  44  77 104 147 185 243 309 361 428
#     4  12  26  48  74 100 152 192 244 300 378 438
#     4  12  25  47  73 104 142 194 243 298 372 434
#     4  11  26  50  68 110 147 182 250 305 355 451
#     4  12  24  48  74 103 149 196 236 311 364 441
#
# _framework density 22.367473
#
# number of rings (size 3 to 8) (size 9 to 14) (size 15 to 20)
#    0.000    0.533    4.000    3.200    9.333    1.067 
#    0.000    1.333    0.000    0.000    0.000    0.000 
#    0.000    0.000    0.000    0.000    0.000    0.000 
#
# Total GULP energy -371906.907307 kJ/mol
# GULP energy per Si atom -12396.896910 kJ/mol
# Density = 2.231656 g / cm^3
# Si number density = 22.367473 Si / 1000 Ang^3
#
#
#
# Elastic Constant Matrix: (Units=GPa)
#
#
# Indices 1 2 3 4 5 6 
#
# 1 75.7028 16.5808 19.0071 0.0000 0.0000 0.0000
# 2 16.5808 122.4560 29.0515 0.0000 0.0000 0.0000
# 3 19.0071 29.0515 72.9000 0.0000 0.0000 0.0000
# 4 0.0000 0.0000 0.0000 25.0877 0.0000 0.0000
# 5 0.0000 0.0000 0.0000 0.0000 45.4413 0.0000
# 6 0.0000 0.0000 0.0000 0.0000 0.0000 27.1304
#
#
#
# Elastic Compliance Matrix: (Units=1/GPa)
#
#
# Indices 1 2 3 4 5 6 
#
# 1 0.014283 -0.001160 -0.003262 0.000000 0.000000 0.000000
# 2 -0.001160 0.009113 -0.003329 0.000000 0.000000 0.000000
# 3 -0.003262 -0.003329 0.015895 0.000000 0.000000 0.000000
# 4 0.000000 0.000000 0.000000 0.039860 0.000000 0.000000
# 5 0.000000 0.000000 0.000000 0.000000 0.022006 0.000000
# 6 0.000000 0.000000 0.000000 0.000000 0.000000 0.036859
#
#
# Mechanical properties :
#
#
# Convention : Reuss Voigt Hill
#
# Bulk Modulus (GPa) = 42.03720 44.48193 43.25957
# Shear Modulus (GPa) = 30.96992 33.29317 32.13155
#
# Velocity S-wave (km/s) = 3.72505 3.86225 3.79427
# Velocity P-wave (km/s) = 6.11032 6.31026 6.21109
#
# Compressibility (1/GPa) = 0.02378845
#
# Stress axis : x y z
#
# Youngs Moduli (GPa) = 70.01561 109.73210 62.91472
#
# Poissons Ratio (x) = 0.12730 0.20520
# Poissons Ratio (y) = 0.08123 0.20946
# Poissons Ratio (z) = 0.22836 0.36532
#
# Static dielectric constant tensor:
#      x y z
#    x 4.315920 0.000000 0.000000 
#    y 0.000000 3.990030 0.000000 
#    z 0.000000 0.000000 4.169310 
# 
# 
# High freq. dielectric constant tensor:
#      x y z
#    x 1.893590 0.000000 0.000000 
#    y 0.000000 1.873330 0.000000 
#    z 0.000000 0.000000 1.889470 
# 
# From -- ./inp_files/6289.got.cif
#   From: 2010.03.12/outbox.cif.g09.slc.cpg/sg41_4_cif.got.tgz:6289.got - 2010.04.14 01:55:53.
