data_PCOD8185670
_publ_section_title
;
Structure prediction by ZEFSAII (Michael W. Deem and Ramdas Pophale) SiO2 
 PCOD8185670
Probable space group: A B A 2
;
_chemical_formula_sum "Si O2"
_cell_formula_units_Z 48
_cell_length_a 13.941617
_cell_length_b 8.338107
_cell_length_c 17.282494
_cell_angle_alpha 90.000000
_cell_angle_beta 90.000000
_cell_angle_gamma 90.000000
_cell_volume 2009.032797
_symmetry_space_group_name_H-M "A B A 2"
_symmetry_group_IT_number 41
_symmetry_cell_setting 'orthorhombic'
loop_
_space_group_symop_operation_xyz
x,y,z
-x,-y,z
1/2-x,y,1/2+z
1/2+x,-y,1/2+z
x,1/2+y,1/2+z
-x,1/2-y,1/2+z
1/2-x,1/2+y,z
1/2+x,1/2-y,z
loop_
_atom_site_type_symbol
_atom_site_label
_atom_site_fract_x
_atom_site_fract_y
_atom_site_fract_z
Si Si1 0.000000 0.000000 0.557670
Si Si2 0.351034 0.553703 0.958710
Si Si3 0.169708 0.061081 0.280883
Si Si4 0.855194 0.822580 0.447716
Si Si5 0.125465 0.192609 0.797520
Si Si6 0.468020 0.771148 0.182492
Si Si7 0.000000 0.000000 0.083723
O O1 0.067296 0.898094 0.617225
O O2 0.937660 0.880925 0.505380
O O3 0.351443 0.367336 0.937700
O O4 0.245177 0.612016 0.980161
O O5 0.394573 0.661849 0.888662
O O6 0.416188 0.580057 0.033197
O O7 0.124746 0.112721 0.362436
O O8 0.284239 0.081201 0.275457
O O9 0.121817 0.170861 0.215098
O O10 0.147858 0.874478 0.275070
O O11 0.031346 0.142068 0.749118
O O12 0.537890 0.643827 0.138309
#
# Coordination Sequence:
#
# PCOD8185670 Si02
#       7
#     4   8   8   8   8   8   4
#     4  12  30  44  72 108 148 188 240 292 372 420
#     4  11  26  45  75 101 142 187 246 291 357 424
#     4  11  25  46  72 101 141 187 242 295 351 425
#     4  11  26  47  71 106 137 193 239 299 347 430
#     4  11  25  46  73 103 138 191 240 294 352 428
#     4  12  28  46  69 107 148 187 232 296 365 426
#     4  12  26  48  66 108 146 186 228 302 362 426
#
# _framework density 23.892095000000001
#
# number of rings (size 3 to 8) (size 9 to 14) (size 15 to 20)
#    0.000    0.667    3.333    4.000   14.000    2.667 
#    0.000    0.000    0.000    0.000    0.000    0.000 
#    0.000    0.000    0.000    0.000    0.000    0.000 
#
# Total GULP energy -297522.865825 kJ/mol
# GULP energy per Si atom -12396.786076 kJ/mol
# Density = 2.383772 g / cm^3
# Si number density = 23.892095 Si / 1000 Ang^3
#
#
#
# Elastic Constant Matrix: (Units=GPa)
#
#
# Indices 1 2 3 4 5 6 
#
# 1 46.2118 0.8387 23.2754 0.0000 0.0000 0.0000
# 2 0.8387 93.5104 12.1504 0.0000 0.0000 0.0000
# 3 23.2754 12.1504 86.4009 0.0000 0.0000 0.0000
# 4 0.0000 0.0000 0.0000 46.4873 0.0000 0.0000
# 5 0.0000 0.0000 0.0000 0.0000 59.1243 0.0000
# 6 0.0000 0.0000 0.0000 0.0000 0.0000 29.9734
#
#
#
# Elastic Compliance Matrix: (Units=1/GPa)
#
#
# Indices 1 2 3 4 5 6 
#
# 1 0.025077 0.000665 -0.006849 0.000000 0.000000 0.000000
# 2 0.000665 0.010911 -0.001713 0.000000 0.000000 0.000000
# 3 -0.006849 -0.001713 0.013660 0.000000 0.000000 0.000000
# 4 0.000000 0.000000 0.000000 0.021511 0.000000 0.000000
# 5 0.000000 0.000000 0.000000 0.000000 0.016914 0.000000
# 6 0.000000 0.000000 0.000000 0.000000 0.000000 0.033363
#
#
# Mechanical properties :
#
#
# Convention : Reuss Voigt Hill
#
# Bulk Modulus (GPa) = 29.53972 33.18357 31.36164
# Shear Modulus (GPa) = 33.66675 39.77425 36.72050
#
# Velocity S-wave (km/s) = 3.75789 4.08456 3.92462
# Velocity P-wave (km/s) = 5.58746 6.01364 5.80446
#
# Compressibility (1/GPa) = 0.03385273
#
# Stress axis : x y z
#
# Youngs Moduli (GPa) = 39.87714 91.65339 73.20665
#
# Poissons Ratio (x) = -0.06095 0.50139
# Poissons Ratio (y) = -0.02652 0.12544
# Poissons Ratio (z) = 0.27312 0.15705
#
# Static dielectric constant tensor:
#      x y z
#    x 3.648940 0.000000 0.000000 
#    y 0.000000 4.564480 0.000000 
#    z 0.000000 0.000000 4.591160 
# 
# 
# High freq. dielectric constant tensor:
#      x y z
#    x 1.924620 0.000000 0.000000 
#    y 0.000000 1.973770 0.000000 
#    z 0.000000 0.000000 1.961240 
# 
# From -- ./inp_files/10325.got.cif
#   From: 2010.03.12/outbox.cif.g09.slc.cpg/sg41_6_cif.got.tgz:10325.got - 2010.04.14 01:55:53.
