data_PCOD8185488
_publ_section_title
;
Structure prediction by ZEFSAII (Michael W. Deem and Ramdas Pophale) SiO2 
 PCOD8185488
Probable space group: A B A 2
;
_chemical_formula_sum "Si O2"
_cell_formula_units_Z 64
_cell_length_a 30.529751
_cell_length_b 11.493001
_cell_length_c 8.730033
_cell_angle_alpha 90.000000
_cell_angle_beta 90.000000
_cell_angle_gamma 90.000000
_cell_volume 3063.180524
_symmetry_space_group_name_H-M "A B A 2"
_symmetry_group_IT_number 41
_symmetry_cell_setting 'orthorhombic'
loop_
_space_group_symop_operation_xyz
x,y,z
-x,-y,z
1/2-x,y,1/2+z
1/2+x,-y,1/2+z
x,1/2+y,1/2+z
-x,1/2-y,1/2+z
1/2-x,1/2+y,z
1/2+x,1/2-y,z
loop_
_atom_site_type_symbol
_atom_site_label
_atom_site_fract_x
_atom_site_fract_y
_atom_site_fract_z
Si Si1 0.896275 0.327345 0.635200
Si Si2 0.745466 0.304171 0.480899
Si Si3 0.804140 0.420445 0.712539
Si Si4 0.453182 0.948112 0.629825
Si Si5 0.976897 0.876719 0.654071
Si Si6 0.191644 0.310277 0.741518
Si Si7 0.905004 0.748776 0.804490
Si Si8 0.540965 0.236885 0.370018
O O1 0.845323 0.347826 0.655066
O O2 0.920563 0.446925 0.601871
O O3 0.904254 0.245858 0.488140
O O4 0.912869 0.263478 0.789018
O O5 0.767477 0.406222 0.581619
O O6 0.711672 0.365925 0.370204
O O7 0.781719 0.229352 0.391133
O O8 0.718274 0.218030 0.588603
O O9 0.816220 0.552632 0.744790
O O10 0.432263 0.865604 0.758334
O O11 0.456770 0.880040 0.469206
O O12 0.500000 0.000000 0.681718
O O13 0.929046 0.864567 0.734765
O O14 0.972884 0.846842 0.474673
O O15 0.005834 0.776184 0.734365
O O16 0.000000 0.000000 0.678365
O O17 0.144139 0.249368 0.737626
#
# Coordination Sequence:
#
# PCOD8185488 Si02
#       8
#     8   8   8   8   8   8   8   8
#     4  12  24  41  65  97 134 170 216 272 325 387
#     4  10  24  43  70  98 135 173 220 272 336 397
#     4  11  23  42  68  99 132 175 219 267 335 399
#     4  11  24  44  67  92 130 179 217 271 334 386
#     4  11  24  44  64  91 128 172 218 267 324 382
#     4  11  22  45  69 100 136 175 219 275 331 397
#     4  11  23  42  69  99 135 175 224 274 325 396
#     4  11  25  41  64  92 125 171 220 264 325 386
#
# _framework density 20.893315999999999
#
# number of rings (size 3 to 8) (size 9 to 14) (size 15 to 20)
#    0.000    1.000    2.500    4.875    3.500    3.500 
#    0.000    1.875    0.000    0.000    0.000    0.000 
#    0.000    0.000    0.000    0.000    0.000    0.000 
#
# Total GULP energy -396879.395855 kJ/mol
# GULP energy per Si atom -12402.481120 kJ/mol
# Density = 2.084576 g / cm^3
# Si number density = 20.893316 Si / 1000 Ang^3
#
#
#
# Elastic Constant Matrix: (Units=GPa)
#
#
# Indices 1 2 3 4 5 6 
#
# 1 133.7559 52.2722 51.8694 0.0000 0.0000 0.0000
# 2 52.2722 86.8615 44.0807 0.0000 0.0000 0.0000
# 3 51.8694 44.0807 126.6393 0.0000 0.0000 0.0000
# 4 0.0000 0.0000 0.0000 20.7499 0.0000 0.0000
# 5 0.0000 0.0000 0.0000 0.0000 39.4020 0.0000
# 6 0.0000 0.0000 0.0000 0.0000 0.0000 51.0334
#
#
#
# Elastic Compliance Matrix: (Units=1/GPa)
#
#
# Indices 1 2 3 4 5 6 
#
# 1 0.010402 -0.004977 -0.002528 0.000000 0.000000 0.000000
# 2 -0.004977 0.016364 -0.003658 0.000000 0.000000 0.000000
# 3 -0.002528 -0.003658 0.010205 0.000000 0.000000 0.000000
# 4 0.000000 0.000000 0.000000 0.048193 0.000000 0.000000
# 5 0.000000 0.000000 0.000000 0.000000 0.025379 0.000000
# 6 0.000000 0.000000 0.000000 0.000000 0.000000 0.019595
#
#
# Mechanical properties :
#
#
# Convention : Reuss Voigt Hill
#
# Bulk Modulus (GPa) = 68.27892 71.52236 69.90064
# Shear Modulus (GPa) = 31.77754 35.50600 33.64177
#
# Velocity S-wave (km/s) = 3.90416 4.12684 4.01704
# Velocity P-wave (km/s) = 7.28519 7.55078 7.41917
#
# Compressibility (1/GPa) = 0.01464581
#
# Stress axis : x y z
#
# Youngs Moduli (GPa) = 96.13979 61.11145 97.99119
#
# Poissons Ratio (x) = 0.30413 0.24773
# Poissons Ratio (y) = 0.47845 0.35840
# Poissons Ratio (z) = 0.24305 0.22352
#
# Static dielectric constant tensor:
#      x y z
#    x 3.939440 0.000000 0.000000 
#    y 0.000000 3.665980 0.000000 
#    z 0.000000 0.000000 3.879110 
# 
# 
# High freq. dielectric constant tensor:
#      x y z
#    x 1.829380 0.000000 0.000000 
#    y 0.000000 1.811710 0.000000 
#    z 0.000000 0.000000 1.832850 
# 
# From -- ./inp_files/3981.got.cif
#   From: 2010.03.12/outbox.cif.g09.slc.cpg/sg41_2_cif.got.tgz:3981.got - 2010.04.14 01:55:53.
