data_PCOD8185776
_publ_section_title
;
Structure prediction by ZEFSAII (Michael W. Deem and Ramdas Pophale) SiO2 
 PCOD8185776
Probable space group: F M M 2
;
_chemical_formula_sum "Si O2"
_cell_formula_units_Z 80
_cell_length_a 29.956990
_cell_length_b 8.854107
_cell_length_c 14.980380
_cell_angle_alpha 90.000000
_cell_angle_beta 90.000000
_cell_angle_gamma 90.000000
_cell_volume 3973.431867
_symmetry_space_group_name_H-M "F M M 2"
_symmetry_group_IT_number 42
_symmetry_cell_setting 'orthorhombic'
loop_
_space_group_symop_operation_xyz
x,y,z
-x,-y,z
-x,y,z
x,-y,z
x,1/2+y,1/2+z
-x,1/2-y,1/2+z
-x,1/2+y,1/2+z
x,1/2-y,1/2+z
1/2+x,y,1/2+z
1/2-x,-y,1/2+z
1/2-x,y,1/2+z
1/2+x,-y,1/2+z
1/2+x,1/2+y,z
1/2-x,1/2-y,z
1/2-x,1/2+y,z
1/2+x,1/2-y,z
loop_
_atom_site_type_symbol
_atom_site_label
_atom_site_fract_x
_atom_site_fract_y
_atom_site_fract_z
Si Si1 0.549778 0.178174 0.187880
Si Si2 0.883610 0.822025 0.537219
Si Si3 0.791892 0.676040 0.841734
Si Si4 0.109392 0.326731 0.832554
Si Si5 0.706077 0.678257 0.034242
O O1 0.500000 0.248296 0.186399
O O2 0.575211 0.231428 0.098478
O O3 0.575297 0.228388 0.276457
O O4 0.547068 0.000000 0.190028
O O5 0.893624 0.773144 0.435490
O O6 0.839656 0.740536 0.577091
O O7 0.874861 0.000000 0.541959
O O8 0.782950 0.500000 0.862524
O O9 0.750000 0.750000 0.786340
O O10 0.839961 0.695023 0.794187
O O11 0.794100 0.771753 0.931847
O O12 0.094734 0.500000 0.824507
O O13 0.707876 0.500000 0.045809
O O14 0.750000 0.750000 0.081755
#
# Coordination Sequence:
#
# PCOD8185776 Si02
#       5
#    16  16  16  16  16
#     4  10  22  39  58  80 106 137 177 226 276 324
#     4   9  19  37  57  78 108 145 181 217 264 321
#     4   9  16  28  48  76 109 144 180 215 258 312
#     4   9  19  35  56  81 109 142 179 218 262 318
#     4  10  17  27  48  78 110 143 179 217 260 310
#
# _framework density 20.13373
#
# number of rings (size 3 to 8) (size 9 to 14) (size 15 to 20)
#    0.000    2.600    0.000    4.800    0.000    6.000 
#    0.000    3.000    0.000    2.400    0.000    0.000 
#    0.000    0.000    0.000    0.000    0.000    0.000 
#
# Total GULP energy -247855.764488 kJ/mol
# GULP energy per Si atom -12392.788224 kJ/mol
# Density = 2.008790 g / cm^3
# Si number density = 20.133730 Si / 1000 Ang^3
#
#
#
# Elastic Constant Matrix: (Units=GPa)
#
#
# Indices 1 2 3 4 5 6 
#
# 1 203.3240 56.9727 64.4232 0.0000 0.0000 0.0000
# 2 56.9727 71.8173 23.7487 0.0000 0.0000 0.0000
# 3 64.4232 23.7487 75.3529 0.0000 0.0000 0.0000
# 4 0.0000 0.0000 0.0000 19.3194 0.0000 0.0000
# 5 0.0000 0.0000 0.0000 0.0000 -140.8633 0.0000
# 6 0.0000 0.0000 0.0000 0.0000 0.0000 32.1137
#
#
#
# Elastic Compliance Matrix: (Units=1/GPa)
#
#
# Indices 1 2 3 4 5 6 
#
# 1 0.007853 -0.004476 -0.005303 0.000000 0.000000 0.000000
# 2 -0.004476 0.018095 -0.001876 0.000000 0.000000 0.000000
# 3 -0.005303 -0.001876 0.018396 0.000000 0.000000 0.000000
# 4 0.000000 0.000000 0.000000 0.051762 0.000000 0.000000
# 5 0.000000 0.000000 0.000000 0.000000 -0.007099 0.000000
# 6 0.000000 0.000000 0.000000 0.000000 0.000000 0.031139
#
#
# Mechanical properties :
#
#
# Convention : Reuss Voigt Hill
#
# Bulk Modulus (GPa) = 47.54298 71.19814 59.37056
# Shear Modulus (GPa) = 33.22965 -4.19607 14.51679
#
# Velocity S-wave (km/s) = 4.06698 -1.44521 2.68809
# Velocity P-wave (km/s) = 6.76155 5.71442 6.25992
#
# Compressibility (1/GPa) = 0.02103360
#
# Stress axis : x y z
#
# Youngs Moduli (GPa) = 127.34458 55.26241 54.35932
#
# Poissons Ratio (x) = 0.24735 0.28827
# Poissons Ratio (y) = 0.56999 0.10200
# Poissons Ratio (z) = 0.67531 0.10369
#
# Static dielectric constant tensor:
#      x y z
#    x 4.580850 0.000000 0.000000 
#    y 0.000000 3.571470 0.000000 
#    z 0.000000 0.000000 3.313380 
# 
# 
# High freq. dielectric constant tensor:
#      x y z
#    x 1.801480 0.000000 0.000000 
#    y 0.000000 1.777850 0.000000 
#    z 0.000000 0.000000 1.753840 
# 
# From -- ./inp_files/18215.got.cif
#   From: 2010.03.12/outbox.cif.g09.slc.cpg/sg42_10_cif.got.tgz:18215.got - 2010.04.14 02:04:31.
