data_PCOD8185180
_publ_section_title
;
Structure prediction by ZEFSAII (Michael W. Deem and Ramdas Pophale) SiO2 
 PCOD8185180
Probable space group: A B A 2
;
_chemical_formula_sum "Si O2"
_cell_formula_units_Z 56
_cell_length_a 13.663449
_cell_length_b 13.437162
_cell_length_c 14.639674
_cell_angle_alpha 90.000000
_cell_angle_beta 90.000000
_cell_angle_gamma 90.000000
_cell_volume 2687.814540
_symmetry_space_group_name_H-M "A B A 2"
_symmetry_group_IT_number 41
_symmetry_cell_setting 'orthorhombic'
loop_
_space_group_symop_operation_xyz
x,y,z
-x,-y,z
1/2-x,y,1/2+z
1/2+x,-y,1/2+z
x,1/2+y,1/2+z
-x,1/2-y,1/2+z
1/2-x,1/2+y,z
1/2+x,1/2-y,z
loop_
_atom_site_type_symbol
_atom_site_label
_atom_site_fract_x
_atom_site_fract_y
_atom_site_fract_z
Si Si1 0.361792 0.838786 0.257700
Si Si2 0.315121 0.427707 0.573070
Si Si3 0.022154 0.208105 0.377557
Si Si4 0.500000 0.000000 0.955281
Si Si5 0.179921 0.264472 0.507706
Si Si6 0.500000 0.500000 0.739757
Si Si7 0.198508 0.732757 0.345348
Si Si8 0.331777 0.617193 0.669011
O O1 0.353351 0.848436 0.148573
O O2 0.423459 0.739383 0.283463
O O3 0.420134 0.936653 0.297708
O O4 0.255371 0.830212 0.305288
O O5 0.407065 0.461282 0.512480
O O6 0.228919 0.374201 0.516084
O O7 0.270617 0.524930 0.625437
O O8 0.072227 0.269547 0.461847
O O9 0.910209 0.238270 0.371275
O O10 0.035781 0.090518 0.391784
O O11 0.247100 0.198454 0.438320
O O12 0.173462 0.214174 0.606290
O O13 0.444146 0.579360 0.674902
O O14 0.205164 0.644846 0.270371
#
# Coordination Sequence:
#
# PCOD8185180 Si02
#       8
#     8   8   8   4   8   4   8   8
#     4  10  22  41  67 102 133 183 237 299 350 435
#     4  11  22  43  72 100 129 190 247 286 365 449
#     4  11  24  42  64 105 141 184 234 306 360 426
#     4  12  23  42  72 100 139 188 241 292 366 444
#     4  11  24  43  67 105 143 181 235 306 358 424
#     4  10  21  40  76  96 129 190 251 274 368 440
#     4  11  23  44  67 104 142 182 238 298 363 432
#     4  11  22  43  69 101 134 186 235 297 356 441
#
# _framework density 20.834769999999999
#
# number of rings (size 3 to 8) (size 9 to 14) (size 15 to 20)
#    0.000    1.143    5.714    1.714    0.000    0.000 
#   20.571    0.000    0.000    0.000    7.429    0.000 
#    0.000    0.000    0.000    0.000    0.000    0.000 
#
# Total GULP energy -346887.894695 kJ/mol
# GULP energy per Si atom -12388.853382 kJ/mol
# Density = 2.078735 g / cm^3
# Si number density = 20.834770 Si / 1000 Ang^3
#
#
#
# Elastic Constant Matrix: (Units=GPa)
#
#
# Indices 1 2 3 4 5 6 
#
# 1 137.8804 63.0359 39.9903 0.0000 0.0000 0.0000
# 2 63.0359 120.4150 51.0953 0.0000 0.0000 0.0000
# 3 39.9903 51.0953 89.9006 0.0000 0.0000 0.0000
# 4 0.0000 0.0000 0.0000 47.7360 0.0000 0.0000
# 5 0.0000 0.0000 0.0000 0.0000 23.3500 0.0000
# 6 0.0000 0.0000 0.0000 0.0000 0.0000 47.5959
#
#
#
# Elastic Compliance Matrix: (Units=1/GPa)
#
#
# Indices 1 2 3 4 5 6 
#
# 1 0.009774 -0.004312 -0.001897 0.000000 0.000000 0.000000
# 2 -0.004312 0.012846 -0.005383 0.000000 0.000000 0.000000
# 3 -0.001897 -0.005383 0.015027 0.000000 0.000000 0.000000
# 4 0.000000 0.000000 0.000000 0.020949 0.000000 0.000000
# 5 0.000000 0.000000 0.000000 0.000000 0.042827 0.000000
# 6 0.000000 0.000000 0.000000 0.000000 0.000000 0.021010
#
#
# Mechanical properties :
#
#
# Convention : Reuss Voigt Hill
#
# Bulk Modulus (GPa) = 69.14231 72.93768 71.04000
# Shear Modulus (GPa) = 33.23650 36.67468 34.95559
#
# Velocity S-wave (km/s) = 3.99838 4.20010 4.10048
# Velocity P-wave (km/s) = 7.38743 7.65538 7.52260
#
# Compressibility (1/GPa) = 0.01446292
#
# Stress axis : x y z
#
# Youngs Moduli (GPa) = 102.31125 77.84620 66.54754
#
# Poissons Ratio (x) = 0.33564 0.12626
# Poissons Ratio (y) = 0.44112 0.35823
# Poissons Ratio (z) = 0.19412 0.41905
#
# Static dielectric constant tensor:
#      x y z
#    x 3.948850 0.000000 0.000000 
#    y 0.000000 4.033790 0.000000 
#    z 0.000000 0.000000 3.918400 
# 
# 
# High freq. dielectric constant tensor:
#      x y z
#    x 1.816460 0.000000 0.000000 
#    y 0.000000 1.801100 0.000000 
#    z 0.000000 0.000000 1.812300 
# 
# From -- ./inp_files/8495.got.cif
#   From: 2010.03.12/outbox.cif.g09.slc.cpg/sg41_5_cif.got.tgz:8495.got - 2010.04.14 01:55:53.
