data_PCOD8185998
_publ_section_title
;
Structure prediction by ZEFSAII (Michael W. Deem and Ramdas Pophale) SiO2 
 PCOD8185998
Probable space group: F M M 2
;
_chemical_formula_sum "Si O2"
_cell_formula_units_Z 80
_cell_length_a 8.942158
_cell_length_b 20.418071
_cell_length_c 28.162600
_cell_angle_alpha 90.000000
_cell_angle_beta 90.000000
_cell_angle_gamma 90.000000
_cell_volume 5141.973045
_symmetry_space_group_name_H-M "F M M 2"
_symmetry_group_IT_number 42
_symmetry_cell_setting 'orthorhombic'
loop_
_space_group_symop_operation_xyz
x,y,z
-x,-y,z
-x,y,z
x,-y,z
x,1/2+y,1/2+z
-x,1/2-y,1/2+z
-x,1/2+y,1/2+z
x,1/2-y,1/2+z
1/2+x,y,1/2+z
1/2-x,-y,1/2+z
1/2-x,y,1/2+z
1/2+x,-y,1/2+z
1/2+x,1/2+y,z
1/2-x,1/2-y,z
1/2-x,1/2+y,z
1/2+x,1/2-y,z
loop_
_atom_site_type_symbol
_atom_site_label
_atom_site_fract_x
_atom_site_fract_y
_atom_site_fract_z
Si Si1 0.177993 0.500000 0.961450
Si Si2 0.176866 0.817436 0.599965
Si Si3 0.829760 0.572391 0.538357
Si Si4 0.675800 0.500000 0.353091
Si Si5 0.168736 0.928346 0.777028
Si Si6 0.823391 0.683503 0.208493
O O1 0.231354 0.500000 0.907100
O O2 0.000000 0.500000 0.966446
O O3 0.247274 0.564827 0.987043
O O4 0.250000 0.750000 0.581616
O O5 0.238663 0.877432 0.570026
O O6 0.224633 0.830184 0.654380
O O7 0.000000 0.812696 0.593683
O O8 0.827929 0.500000 0.563003
O O9 0.000000 0.596898 0.531179
O O10 0.500000 0.500000 0.350045
O O11 0.737794 0.565363 0.326265
O O12 0.239140 0.875340 0.741221
O O13 0.000000 0.907996 0.790390
O O14 0.170932 0.000000 0.751418
O O15 0.750000 0.750000 0.227520
O O16 0.000000 0.689866 0.212466
#
# Coordination Sequence:
#
# PCOD8185998 Si02
#       6
#     8  16  16   8  16  16
#     4   9  17  31  50  71  94 119 150 191 244 291
#     4  10  19  31  49  69  97 132 164 195 233 277
#     4   9  19  32  48  72  97 122 158 197 236 283
#     4   9  17  29  48  73  94 115 150 195 238 279
#     4   8  16  30  47  67  93 123 155 189 230 277
#     4   9  18  31  47  68  94 129 161 190 226 272
#
# _framework density 15.55823
#
# number of rings (size 3 to 8) (size 9 to 14) (size 15 to 20)
#    1.200    1.800    0.000    1.200    0.000    4.000 
#    0.000    2.000    0.000    1.200    0.000    2.800 
#    0.000    0.000    0.000    0.000    0.000    0.000 
#
# Total GULP energy -247790.717935 kJ/mol
# GULP energy per Si atom -12389.535897 kJ/mol
# Density = 1.552282 g / cm^3
# Si number density = 15.558230 Si / 1000 Ang^3
#
#
#
# Elastic Constant Matrix: (Units=GPa)
#
#
# Indices 1 2 3 4 5 6 
#
# 1 66.1831 36.7135 42.2090 0.0000 0.0000 0.0000
# 2 36.7135 95.1514 66.5079 0.0000 0.0000 0.0000
# 3 42.2090 66.5079 105.7048 0.0000 0.0000 0.0000
# 4 0.0000 0.0000 0.0000 3.6539 0.0000 0.0000
# 5 0.0000 0.0000 0.0000 0.0000 24.3286 0.0000
# 6 0.0000 0.0000 0.0000 0.0000 0.0000 27.7267
#
#
#
# Elastic Compliance Matrix: (Units=1/GPa)
#
#
# Indices 1 2 3 4 5 6 
#
# 1 0.021100 -0.004020 -0.005896 0.000000 0.000000 0.000000
# 2 -0.004020 0.019526 -0.010680 0.000000 0.000000 0.000000
# 3 -0.005896 -0.010680 0.018534 0.000000 0.000000 0.000000
# 4 0.000000 0.000000 0.000000 0.273680 0.000000 0.000000
# 5 0.000000 0.000000 0.000000 0.000000 0.041104 0.000000
# 6 0.000000 0.000000 0.000000 0.000000 0.000000 0.036066
#
#
# Mechanical properties :
#
#
# Convention : Reuss Voigt Hill
#
# Bulk Modulus (GPa) = 55.65549 61.98892 58.82220
# Shear Modulus (GPa) = 10.93633 19.24909 15.09271
#
# Velocity S-wave (km/s) = 2.65416 3.52124 3.11799
# Velocity P-wave (km/s) = 6.72627 7.51411 7.13108
#
# Compressibility (1/GPa) = 0.01796768
#
# Stress axis : x y z
#
# Youngs Moduli (GPa) = 47.39356 51.21453 53.95381
#
# Poissons Ratio (x) = 0.20589 0.31811
# Poissons Ratio (y) = 0.19053 0.57623
# Poissons Ratio (z) = 0.27943 0.54697
#
# Static dielectric constant tensor:
#      x y z
#    x 2.968980 0.000000 0.000000 
#    y 0.000000 2.902230 0.000000 
#    z 0.000000 0.000000 2.885930 
# 
# 
# High freq. dielectric constant tensor:
#      x y z
#    x 1.606870 0.000000 0.000000 
#    y 0.000000 1.581770 0.000000 
#    z 0.000000 0.000000 1.576820 
# 
# From -- ./inp_files/32966.got.cif
#   From: 2010.03.12/outbox.cif.g09.slc.cpg/sg42_17_cif.got.tgz:32966.got - 2010.04.14 02:04:31.
