data_PCOD8185168
_publ_section_title
;
Structure prediction by ZEFSAII (Michael W. Deem and Ramdas Pophale) SiO2 
 PCOD8185168
Probable space group: A B A 2
;
_chemical_formula_sum "Si O2"
_cell_formula_units_Z 40
_cell_length_a 14.686577
_cell_length_b 4.763627
_cell_length_c 24.580080
_cell_angle_alpha 90.000000
_cell_angle_beta 90.000000
_cell_angle_gamma 90.000000
_cell_volume 1719.656188
_symmetry_space_group_name_H-M "A B A 2"
_symmetry_group_IT_number 41
_symmetry_cell_setting 'orthorhombic'
loop_
_space_group_symop_operation_xyz
x,y,z
-x,-y,z
1/2-x,y,1/2+z
1/2+x,-y,1/2+z
x,1/2+y,1/2+z
-x,1/2-y,1/2+z
1/2-x,1/2+y,z
1/2+x,1/2-y,z
loop_
_atom_site_type_symbol
_atom_site_label
_atom_site_fract_x
_atom_site_fract_y
_atom_site_fract_z
Si Si1 0.439516 0.737160 0.062860
Si Si2 0.688702 0.730754 0.347484
Si Si3 0.937210 0.743671 0.750750
Si Si4 0.184312 0.937001 0.151708
Si Si5 0.310155 0.720390 0.968179
O O1 0.500000 0.500000 0.034118
O O2 0.388639 0.561097 0.109950
O O3 0.500000 0.000000 0.085634
O O4 0.374283 0.843528 0.015305
O O5 0.718444 0.409038 0.340073
O O6 0.618520 0.846764 0.302991
O O7 0.645827 0.751469 0.408165
O O8 0.869184 0.591420 0.708257
O O9 0.000000 0.500000 0.773507
O O10 0.000000 0.000000 0.727234
O O11 0.276250 0.122401 0.145318
O O12 0.283611 0.395522 0.974958
#
# Coordination Sequence:
#
# PCOD8185168 Si02
#       5
#     8   8   8   8   8
#     4  12  25  41  64  96 131 165 212 274 335 386
#     4  10  21  40  65  93 128 171 217 260 314 393
#     4  12  25  41  64  96 131 165 212 274 335 386
#     4  12  25  44  67  88 122 172 222 264 319 396
#     4  10  21  40  65  93 128 171 217 260 314 393
#
# _framework density 23.260462
#
# number of rings (size 3 to 8) (size 9 to 14) (size 15 to 20)
#    0.000    0.800    0.000    7.800    0.000    3.200 
#    0.000    0.000    0.000    0.000    0.000    0.000 
#    0.000    0.000    0.000    0.000    0.000    0.000 
#
# Total GULP energy -247788.014051 kJ/mol
# GULP energy per Si atom -12389.400703 kJ/mol
# Density = 2.320752 g / cm^3
# Si number density = 23.260462 Si / 1000 Ang^3
#
#
#
# Elastic Constant Matrix: (Units=GPa)
#
#
# Indices 1 2 3 4 5 6 
#
# 1 77.2467 30.5763 52.3205 0.0000 0.0000 0.0000
# 2 30.5763 106.5098 33.3973 0.0000 0.0000 0.0000
# 3 52.3205 33.3973 138.2778 0.0000 0.0000 0.0000
# 4 0.0000 0.0000 0.0000 31.5203 0.0000 0.0000
# 5 0.0000 0.0000 0.0000 0.0000 -2.8005 0.0000
# 6 0.0000 0.0000 0.0000 0.0000 0.0000 51.5875
#
#
#
# Elastic Compliance Matrix: (Units=1/GPa)
#
#
# Indices 1 2 3 4 5 6 
#
# 1 0.018457 -0.003363 -0.006171 0.000000 0.000000 0.000000
# 2 -0.003363 0.010771 -0.001329 0.000000 0.000000 0.000000
# 3 -0.006171 -0.001329 0.009888 0.000000 0.000000 0.000000
# 4 0.000000 0.000000 0.000000 0.031726 0.000000 0.000000
# 5 0.000000 0.000000 0.000000 0.000000 -0.357080 0.000000
# 6 0.000000 0.000000 0.000000 0.000000 0.000000 0.019385
#
#
# Mechanical properties :
#
#
# Convention : Reuss Voigt Hill
#
# Bulk Modulus (GPa) = 57.50874 61.62473 59.56674
# Shear Modulus (GPa) = -20.89150 29.77748 4.44299
#
# Velocity S-wave (km/s) = -3.00017 3.58184 1.38356
# Velocity P-wave (km/s) = 3.57437 6.60734 5.31192
#
# Compressibility (1/GPa) = 0.01738866
#
# Stress axis : x y z
#
# Youngs Moduli (GPa) = 54.18091 92.84164 101.13518
#
# Poissons Ratio (x) = 0.31227 0.62412
# Poissons Ratio (y) = 0.18223 0.13439
# Poissons Ratio (z) = 0.33436 0.12337
#
# Static dielectric constant tensor:
#      x y z
#    x 4.422350 0.000000 0.000000 
#    y 0.000000 4.319640 0.000000 
#    z 0.000000 0.000000 4.090950 
# 
# 
# High freq. dielectric constant tensor:
#      x y z
#    x 1.911290 0.000000 0.000000 
#    y 0.000000 1.941840 0.000000 
#    z 0.000000 0.000000 1.916530 
# 
# From -- ./inp_files/12485.got.cif
#   From: 2010.03.12/outbox.cif.g09.slc.cpg/sg41_7_cif.got.tgz:12485.got - 2010.04.14 01:55:53.
