data_PCOD8185891
_publ_section_title
;
Structure prediction by ZEFSAII (Michael W. Deem and Ramdas Pophale) SiO2 
 PCOD8185891
Probable space group: F M M 2
;
_chemical_formula_sum "Si O2"
_cell_formula_units_Z 96
_cell_length_a 18.492197
_cell_length_b 22.539783
_cell_length_c 13.547232
_cell_angle_alpha 90.000000
_cell_angle_beta 90.000000
_cell_angle_gamma 90.000000
_cell_volume 5646.623227
_symmetry_space_group_name_H-M "F M M 2"
_symmetry_group_IT_number 42
_symmetry_cell_setting 'orthorhombic'
loop_
_space_group_symop_operation_xyz
x,y,z
-x,-y,z
-x,y,z
x,-y,z
x,1/2+y,1/2+z
-x,1/2-y,1/2+z
-x,1/2+y,1/2+z
x,1/2-y,1/2+z
1/2+x,y,1/2+z
1/2-x,-y,1/2+z
1/2-x,y,1/2+z
1/2+x,-y,1/2+z
1/2+x,1/2+y,z
1/2-x,1/2-y,z
1/2-x,1/2+y,z
1/2+x,1/2-y,z
loop_
_atom_site_type_symbol
_atom_site_label
_atom_site_fract_x
_atom_site_fract_y
_atom_site_fract_z
Si Si1 0.175726 0.221779 0.084010
Si Si2 0.841208 0.701176 0.799210
Si Si3 0.809282 0.170214 0.877717
Si Si4 0.916372 0.563458 0.086860
Si Si5 0.417127 0.568211 0.816697
Si Si6 0.916712 0.822968 0.484322
O O1 0.250000 0.250000 0.123291
O O2 0.142769 0.190839 0.182706
O O3 0.194860 0.176549 0.996425
O O4 0.120952 0.269167 0.040129
O O5 0.838378 0.771392 0.822500
O O6 0.771625 0.663050 0.835252
O O7 0.907381 0.677620 0.865828
O O8 0.860253 0.113252 0.864667
O O9 0.879334 0.500000 0.060600
O O10 0.907264 0.577025 0.201265
O O11 0.000000 0.559107 0.058844
O O12 0.880598 0.616334 0.024779
O O13 0.500000 0.583882 0.847803
O O14 0.399979 0.500000 0.847493
O O15 0.000000 0.818756 0.512835
#
# Coordination Sequence:
#
# PCOD8185891 Si02
#       6
#    16  16  16  16  16  16
#     4  11  19  34  53  74 103 141 172 208 265 318
#     4  10  20  32  51  75 107 137 170 213 266 322
#     4  10  18  31  52  74  99 140 172 212 265 317
#     4   8  15  29  50  75 101 131 168 216 264 297
#     4   9  18  32  52  79 108 139 181 227 264 304
#     4  10  20  33  51  78 106 133 176 221 260 311
#
# _framework density 17.001311999999999
#
# number of rings (size 3 to 8) (size 9 to 14) (size 15 to 20)
#    0.000    2.333    5.000    2.000    0.000    3.333 
#    0.000    0.833    0.000    2.000    0.000    2.333 
#    0.000    0.000    0.000    0.000    0.000    0.000 
#
# Total GULP energy -297337.403120 kJ/mol
# GULP energy per Si atom -12389.058463 kJ/mol
# Density = 1.696262 g / cm^3
# Si number density = 17.001312 Si / 1000 Ang^3
#
#
#
# Elastic Constant Matrix: (Units=GPa)
#
#
# Indices 1 2 3 4 5 6 
#
# 1 57.3189 40.5481 22.4075 0.0000 0.0000 0.0000
# 2 40.5481 75.8487 38.8927 0.0000 0.0000 0.0000
# 3 22.4075 38.8927 122.7461 0.0000 0.0000 0.0000
# 4 0.0000 0.0000 0.0000 23.8007 0.0000 0.0000
# 5 0.0000 0.0000 0.0000 0.0000 21.8079 0.0000
# 6 0.0000 0.0000 0.0000 0.0000 0.0000 23.2651
#
#
#
# Elastic Compliance Matrix: (Units=1/GPa)
#
#
# Indices 1 2 3 4 5 6 
#
# 1 0.028077 -0.014783 -0.000441 0.000000 0.000000 0.000000
# 2 -0.014783 0.023526 -0.004756 0.000000 0.000000 0.000000
# 3 -0.000441 -0.004756 0.009734 0.000000 0.000000 0.000000
# 4 0.000000 0.000000 0.000000 0.042016 0.000000 0.000000
# 5 0.000000 0.000000 0.000000 0.000000 0.045855 0.000000
# 6 0.000000 0.000000 0.000000 0.000000 0.000000 0.042983
#
#
# Mechanical properties :
#
#
# Convention : Reuss Voigt Hill
#
# Bulk Modulus (GPa) = 46.78055 51.06782 48.92418
# Shear Modulus (GPa) = 20.89642 24.04576 22.47109
#
# Velocity S-wave (km/s) = 3.50966 3.76486 3.63950
# Velocity P-wave (km/s) = 6.63319 7.00012 6.81912
#
# Compressibility (1/GPa) = 0.02137641
#
# Stress axis : x y z
#
# Youngs Moduli (GPa) = 35.61684 42.50687 102.72991
#
# Poissons Ratio (x) = 0.62839 0.04533
# Poissons Ratio (y) = 0.52653 0.48853
# Poissons Ratio (z) = 0.01572 0.20214
#
# Static dielectric constant tensor:
#      x y z
#    x 3.034830 0.000000 0.000000 
#    y 0.000000 3.175360 0.000000 
#    z 0.000000 0.000000 3.243630 
# 
# 
# High freq. dielectric constant tensor:
#      x y z
#    x 1.637690 0.000000 0.000000 
#    y 0.000000 1.635890 0.000000 
#    z 0.000000 0.000000 1.655030 
# 
# From -- ./inp_files/9614.got.cif
#   From: 2010.03.12/outbox.cif.g09.slc.cpg/sg42_5_cif.got.tgz:9614.got - 2010.04.14 02:04:31.
