data_PCOD8185446
_publ_section_title
;
Structure prediction by ZEFSAII (Michael W. Deem and Ramdas Pophale) SiO2 
 PCOD8185446
Probable space group: A B A 2
;
_chemical_formula_sum "Si O2"
_cell_formula_units_Z 40
_cell_length_a 25.479099
_cell_length_b 12.951928
_cell_length_c 5.148498
_cell_angle_alpha 90.000000
_cell_angle_beta 90.000000
_cell_angle_gamma 90.000000
_cell_volume 1699.022132
_symmetry_space_group_name_H-M "A B A 2"
_symmetry_group_IT_number 41
_symmetry_cell_setting 'orthorhombic'
loop_
_space_group_symop_operation_xyz
x,y,z
-x,-y,z
1/2-x,y,1/2+z
1/2+x,-y,1/2+z
x,1/2+y,1/2+z
-x,1/2-y,1/2+z
1/2-x,1/2+y,z
1/2+x,1/2-y,z
loop_
_atom_site_type_symbol
_atom_site_label
_atom_site_fract_x
_atom_site_fract_y
_atom_site_fract_z
Si Si1 0.650826 0.525657 0.035940
Si Si2 0.471776 0.788534 0.120692
Si Si3 0.412390 0.473653 0.516501
Si Si4 0.876191 0.329773 0.802443
Si Si5 0.717603 0.210512 0.537320
O O1 0.614145 0.576780 0.259609
O O2 0.657674 0.403993 0.108172
O O3 0.705928 0.587194 0.031893
O O4 0.625480 0.542414 0.758338
O O5 0.501575 0.774916 0.390852
O O6 0.467235 0.912048 0.061315
O O7 0.411443 0.750059 0.142248
O O8 0.417805 0.597833 0.467671
O O9 0.836721 0.271840 0.995113
O O10 0.759123 0.240836 0.315578
#
# Coordination Sequence:
#
# PCOD8185446 Si02
#       5
#     8   8   8   8   8
#     4  10  23  45  73  96 143 186 232 289 356 414
#     4  12  27  46  75 109 143 188 243 294 354 426
#     4  10  23  46  73  98 139 188 233 286 355 419
#     4  10  28  47  76  97 153 188 232 297 365 413
#     4  12  27  44  74 110 141 187 244 292 353 427
#
# _framework density 23.542954999999999
#
# number of rings (size 3 to 8) (size 9 to 14) (size 15 to 20)
#    1.200    0.000    2.000    2.400    5.600    2.400 
#    0.000    0.000    0.000    0.000    0.000    0.000 
#    0.000    0.000    0.000    0.000    0.000    0.000 
#
# Total GULP energy -247854.714620 kJ/mol
# GULP energy per Si atom -12392.735731 kJ/mol
# Density = 2.348937 g / cm^3
# Si number density = 23.542955 Si / 1000 Ang^3
#
#
#
# Elastic Constant Matrix: (Units=GPa)
#
#
# Indices 1 2 3 4 5 6 
#
# 1 18.1945 11.0610 9.4208 0.0000 0.0000 0.0000
# 2 11.0610 93.2142 10.7971 0.0000 0.0000 0.0000
# 3 9.4208 10.7971 68.6692 0.0000 0.0000 0.0000
# 4 0.0000 0.0000 0.0000 19.9629 0.0000 0.0000
# 5 0.0000 0.0000 0.0000 0.0000 40.0078 0.0000
# 6 0.0000 0.0000 0.0000 0.0000 0.0000 3.9150
#
#
#
# Elastic Compliance Matrix: (Units=1/GPa)
#
#
# Indices 1 2 3 4 5 6 
#
# 1 0.062896 -0.006584 -0.007594 0.000000 0.000000 0.000000
# 2 -0.006584 0.011616 -0.000923 0.000000 0.000000 0.000000
# 3 -0.007594 -0.000923 0.015749 0.000000 0.000000 0.000000
# 4 0.000000 0.000000 0.000000 0.050093 0.000000 0.000000
# 5 0.000000 0.000000 0.000000 0.000000 0.024995 0.000000
# 6 0.000000 0.000000 0.000000 0.000000 0.000000 0.255429
#
#
# Mechanical properties :
#
#
# Convention : Reuss Voigt Hill
#
# Bulk Modulus (GPa) = 16.64990 26.95953 21.80471
# Shear Modulus (GPa) = 10.61572 22.69709 16.65640
#
# Velocity S-wave (km/s) = 2.12576 3.10832 2.66275
# Velocity P-wave (km/s) = 3.62114 4.93541 4.32845
#
# Compressibility (1/GPa) = 0.06006044
#
# Stress axis : x y z
#
# Youngs Moduli (GPa) = 15.89930 86.08694 63.49415
#
# Poissons Ratio (x) = 0.56678 0.48214
# Poissons Ratio (y) = 0.10468 0.05862
# Poissons Ratio (z) = 0.12073 0.07948
#
# Static dielectric constant tensor:
#      x y z
#    x 3.914580 0.000000 0.000000 
#    y 0.000000 4.517640 0.000000 
#    z 0.000000 0.000000 4.157770 
# 
# 
# High freq. dielectric constant tensor:
#      x y z
#    x 1.907030 0.000000 0.000000 
#    y 0.000000 1.938730 0.000000 
#    z 0.000000 0.000000 1.941070 
# 
# From -- ./inp_files/1090.got.cif
#   From: 2010.03.12/outbox.cif.g09.slc.cpg/sg41_1_cif.got.tgz:1090.got - 2010.04.14 01:55:53.
