data_PCOD8185657
_publ_section_title
;
Structure prediction by ZEFSAII (Michael W. Deem and Ramdas Pophale) SiO2 
 PCOD8185657
Probable space group: A B A 2
;
_chemical_formula_sum "Si O2"
_cell_formula_units_Z 32
_cell_length_a 8.544995
_cell_length_b 9.922976
_cell_length_c 15.371550
_cell_angle_alpha 90.000000
_cell_angle_beta 90.000000
_cell_angle_gamma 90.000000
_cell_volume 1303.381091
_symmetry_space_group_name_H-M "A B A 2"
_symmetry_group_IT_number 41
_symmetry_cell_setting 'orthorhombic'
loop_
_space_group_symop_operation_xyz
x,y,z
-x,-y,z
1/2-x,y,1/2+z
1/2+x,-y,1/2+z
x,1/2+y,1/2+z
-x,1/2-y,1/2+z
1/2-x,1/2+y,z
1/2+x,1/2-y,z
loop_
_atom_site_type_symbol
_atom_site_label
_atom_site_fract_x
_atom_site_fract_y
_atom_site_fract_z
Si Si1 0.377621 0.612877 0.528740
Si Si2 0.783335 0.925377 0.716494
Si Si3 0.592073 0.186281 0.284515
Si Si4 0.549136 0.854802 0.473283
O O1 0.500000 0.500000 0.495247
O O2 0.275629 0.562839 0.611865
O O3 0.484500 0.745970 0.542904
O O4 0.238172 0.647793 0.459878
O O5 0.647824 0.834811 0.758304
O O6 0.948424 0.851299 0.724119
O O7 0.776406 0.070854 0.764865
O O8 0.533959 0.181674 0.382951
O O9 0.500000 0.000000 0.507553
#
# Coordination Sequence:
#
# PCOD8185657 Si02
#       4
#     8   8   8   8
#     4  12  26  48  75 110 150 199 252 314 383 450
#     4  11  24  47  74 103 147 194 249 308 372 446
#     4  11  24  48  71 107 149 192 250 304 373 451
#     4  12  26  45  73 109 151 198 250 313 380 453
#
# _framework density 24.551531000000001
#
# number of rings (size 3 to 8) (size 9 to 14) (size 15 to 20)
#    0.000    0.500    5.000    4.500    3.500    1.000 
#    0.000    0.000    0.000    0.000    0.000    0.000 
#    0.000    0.000    0.000    0.000    0.000    0.000 
#
# Total GULP energy -198328.261110 kJ/mol
# GULP energy per Si atom -12395.516319 kJ/mol
# Density = 2.449565 g / cm^3
# Si number density = 24.551531 Si / 1000 Ang^3
#
#
#
# Elastic Constant Matrix: (Units=GPa)
#
#
# Indices 1 2 3 4 5 6 
#
# 1 113.3935 46.3404 15.1966 0.0000 0.0000 0.0000
# 2 46.3404 76.9866 13.9043 0.0000 0.0000 0.0000
# 3 15.1966 13.9043 85.0345 0.0000 0.0000 0.0000
# 4 0.0000 0.0000 0.0000 21.6430 0.0000 0.0000
# 5 0.0000 0.0000 0.0000 0.0000 28.1011 0.0000
# 6 0.0000 0.0000 0.0000 0.0000 0.0000 51.6997
#
#
#
# Elastic Compliance Matrix: (Units=1/GPa)
#
#
# Indices 1 2 3 4 5 6 
#
# 1 0.011774 -0.006911 -0.000974 0.000000 0.000000 0.000000
# 2 -0.006911 0.017441 -0.001617 0.000000 0.000000 0.000000
# 3 -0.000974 -0.001617 0.012198 0.000000 0.000000 0.000000
# 4 0.000000 0.000000 0.000000 0.046204 0.000000 0.000000
# 5 0.000000 0.000000 0.000000 0.000000 0.035586 0.000000
# 6 0.000000 0.000000 0.000000 0.000000 0.000000 0.019342
#
#
# Mechanical properties :
#
#
# Convention : Reuss Voigt Hill
#
# Bulk Modulus (GPa) = 44.62378 47.36636 45.99507
# Shear Modulus (GPa) = 29.58238 33.62031 31.60135
#
# Velocity S-wave (km/s) = 3.47495 3.70452 3.59157
# Velocity P-wave (km/s) = 5.85793 6.13453 5.99783
#
# Compressibility (1/GPa) = 0.02240958
#
# Stress axis : x y z
#
# Youngs Moduli (GPa) = 84.93511 57.33545 81.97814
#
# Poissons Ratio (x) = 0.39625 0.07985
# Poissons Ratio (y) = 0.58699 0.13254
# Poissons Ratio (z) = 0.08273 0.09270
#
# Static dielectric constant tensor:
#      x y z
#    x 4.533030 0.000000 0.000000 
#    y 0.000000 4.725790 0.000000 
#    z 0.000000 0.000000 4.242660 
# 
# 
# High freq. dielectric constant tensor:
#      x y z
#    x 1.978260 0.000000 0.000000 
#    y 0.000000 1.983840 0.000000 
#    z 0.000000 0.000000 1.969130 
# 
# From -- ./inp_files/7077.got.cif
#   From: 2010.03.12/outbox.cif.g09.slc.cpg/sg41_4_cif.got.tgz:7077.got - 2010.04.14 01:55:53.
