data_PCOD8185337
_publ_section_title
;
Structure prediction by ZEFSAII (Michael W. Deem and Ramdas Pophale) SiO2 
 PCOD8185337
Probable space group: A B A 2
;
_chemical_formula_sum "Si O2"
_cell_formula_units_Z 44
_cell_length_a 7.707278
_cell_length_b 23.440359
_cell_length_c 11.781850
_cell_angle_alpha 90.000000
_cell_angle_beta 90.000000
_cell_angle_gamma 90.000000
_cell_volume 2128.525082
_symmetry_space_group_name_H-M "A B A 2"
_symmetry_group_IT_number 41
_symmetry_cell_setting 'orthorhombic'
loop_
_space_group_symop_operation_xyz
x,y,z
-x,-y,z
1/2-x,y,1/2+z
1/2+x,-y,1/2+z
x,1/2+y,1/2+z
-x,1/2-y,1/2+z
1/2-x,1/2+y,z
1/2+x,1/2-y,z
loop_
_atom_site_type_symbol
_atom_site_label
_atom_site_fract_x
_atom_site_fract_y
_atom_site_fract_z
Si Si1 0.500000 0.500000 0.217680
Si Si2 0.308728 0.402882 0.319532
Si Si3 0.097776 0.616590 0.658659
Si Si4 0.176050 0.698923 0.454271
Si Si5 0.963717 0.354845 0.244520
Si Si6 0.440594 0.321726 0.497076
O O1 0.363791 0.469241 0.304884
O O2 0.420785 0.548271 0.133426
O O3 0.432411 0.364599 0.235817
O O4 0.338903 0.376669 0.445859
O O5 0.106722 0.399847 0.287201
O O6 0.096631 0.656504 0.548991
O O7 0.277411 0.616778 0.727537
O O8 0.061814 0.693128 0.340830
O O9 0.375558 0.682778 0.433140
O O10 0.173723 0.764984 0.487245
O O11 0.031800 0.326708 0.130529
#
# Coordination Sequence:
#
# PCOD8185337 Si02
#       6
#     4   8   8   8   8   8
#     4   8  20  42  70  88 132 168 214 274 300 386
#     4  10  22  42  64  91 128 166 215 264 314 372
#     4   9  22  43  60  96 124 167 216 264 309 380
#     4  11  23  40  64  92 136 169 214 266 318 380
#     4  11  24  40  65  93 130 169 211 264 329 375
#     4  11  25  40  64  97 131 169 218 264 315 392
#
# _framework density 20.671590999999999
#
# number of rings (size 3 to 8) (size 9 to 14) (size 15 to 20)
#    1.091    0.727    1.818    1.091    7.636    2.182 
#    0.000   10.909    0.000    0.000    0.000    0.000 
#    0.000    0.000    0.000    0.000    0.000    0.000 
#
# Total GULP energy -272558.112148 kJ/mol
# GULP energy per Si atom -12389.005098 kJ/mol
# Density = 2.062454 g / cm^3
# Si number density = 20.671591 Si / 1000 Ang^3
#
#
#
# Elastic Constant Matrix: (Units=GPa)
#
#
# Indices 1 2 3 4 5 6 
#
# 1 72.2997 -14.8962 17.8088 0.0000 0.0000 0.0000
# 2 -14.8962 88.2022 21.1231 0.0000 0.0000 0.0000
# 3 17.8088 21.1231 90.2181 0.0000 0.0000 0.0000
# 4 0.0000 0.0000 0.0000 28.3198 0.0000 0.0000
# 5 0.0000 0.0000 0.0000 0.0000 26.0479 0.0000
# 6 0.0000 0.0000 0.0000 0.0000 0.0000 22.9114
#
#
#
# Elastic Compliance Matrix: (Units=1/GPa)
#
#
# Indices 1 2 3 4 5 6 
#
# 1 0.015524 0.003555 -0.003897 0.000000 0.000000 0.000000
# 2 0.003555 0.012825 -0.003705 0.000000 0.000000 0.000000
# 3 -0.003897 -0.003705 0.012721 0.000000 0.000000 0.000000
# 4 0.000000 0.000000 0.000000 0.035311 0.000000 0.000000
# 5 0.000000 0.000000 0.000000 0.000000 0.038391 0.000000
# 6 0.000000 0.000000 0.000000 0.000000 0.000000 0.043646
#
#
# Mechanical properties :
#
#
# Convention : Reuss Voigt Hill
#
# Bulk Modulus (GPa) = 30.32417 33.19904 31.76160
# Shear Modulus (GPa) = 28.16861 30.56810 29.36836
#
# Velocity S-wave (km/s) = 3.69544 3.84962 3.77332
# Velocity P-wave (km/s) = 5.73670 5.98787 5.86363
#
# Compressibility (1/GPa) = 0.03297700
#
# Stress axis : x y z
#
# Youngs Moduli (GPa) = 64.41819 77.97186 78.61142
#
# Poissons Ratio (x) = -0.27718 0.30632
# Poissons Ratio (y) = -0.22900 0.29122
# Poissons Ratio (z) = 0.25101 0.28885
#
# Static dielectric constant tensor:
#      x y z
#    x 3.935230 0.000000 0.000000 
#    y 0.000000 3.429480 0.000000 
#    z 0.000000 0.000000 3.612780 
# 
# 
# High freq. dielectric constant tensor:
#      x y z
#    x 1.822560 0.000000 0.000000 
#    y 0.000000 1.787240 0.000000 
#    z 0.000000 0.000000 1.799320 
# 
# From -- ./inp_files/4464.got.cif
#   From: 2010.03.12/outbox.cif.g09.slc.cpg/sg41_3_cif.got.tgz:4464.got - 2010.04.14 01:55:53.
