data_PCOD8185228
_publ_section_title
;
Structure prediction by ZEFSAII (Michael W. Deem and Ramdas Pophale) SiO2 
 PCOD8185228
Probable space group: A B A 2
;
_chemical_formula_sum "Si O2"
_cell_formula_units_Z 52
_cell_length_a 8.979541
_cell_length_b 15.854178
_cell_length_c 16.866232
_cell_angle_alpha 90.000000
_cell_angle_beta 90.000000
_cell_angle_gamma 90.000000
_cell_volume 2401.131457
_symmetry_space_group_name_H-M "A B A 2"
_symmetry_group_IT_number 41
_symmetry_cell_setting 'orthorhombic'
loop_
_space_group_symop_operation_xyz
x,y,z
-x,-y,z
1/2-x,y,1/2+z
1/2+x,-y,1/2+z
x,1/2+y,1/2+z
-x,1/2-y,1/2+z
1/2-x,1/2+y,z
1/2+x,1/2-y,z
loop_
_atom_site_type_symbol
_atom_site_label
_atom_site_fract_x
_atom_site_fract_y
_atom_site_fract_z
Si Si1 0.599545 0.068815 0.933280
Si Si2 0.053746 0.093641 0.982939
Si Si3 0.335961 0.686305 0.453726
Si Si4 0.883366 0.198772 0.099591
Si Si5 0.426704 0.340571 0.675229
Si Si6 0.000000 0.500000 0.083171
Si Si7 0.142359 0.835065 0.856339
O O1 0.504613 0.153292 0.950131
O O2 0.741045 0.091886 0.881270
O O3 0.500000 0.000000 0.884327
O O4 0.635213 0.026456 0.021167
O O5 0.231078 0.105471 0.971703
O O6 0.995699 0.156432 0.915209
O O7 0.000000 0.000000 0.965399
O O8 0.990530 0.123753 0.068167
O O9 0.314855 0.749632 0.526901
O O10 0.297113 0.739531 0.373050
O O11 0.742983 0.159619 0.145060
O O12 0.983337 0.255420 0.157857
O O13 0.523559 0.418477 0.639112
O O14 0.414722 0.351188 0.768865
#
# Coordination Sequence:
#
# PCOD8185228 Si02
#       7
#     8   8   8   8   8   4   8
#     4  10  21  42  69  92 127 182 229 270 339 417
#     4  11  24  40  69 100 129 176 240 287 329 430
#     4  11  21  40  68  93 131 177 229 280 331 431
#     4  11  23  44  66  99 132 185 227 282 348 425
#     4  12  26  43  71 100 145 176 228 293 363 405
#     4  10  22  44  72  96 132 184 230 288 342 424
#     4  11  25  41  66  99 138 177 227 282 357 418
#
# _framework density 21.656455999999999
#
# number of rings (size 3 to 8) (size 9 to 14) (size 15 to 20)
#    0.462    0.615    3.077    4.615    7.538    0.000 
#    0.000    0.769    0.000    0.000    0.000    0.000 
#    0.000    0.000    0.000    0.000    0.000    0.000 
#
# Total GULP energy -322125.488241 kJ/mol
# GULP energy per Si atom -12389.441855 kJ/mol
# Density = 2.160716 g / cm^3
# Si number density = 21.656456 Si / 1000 Ang^3
#
#
#
# Elastic Constant Matrix: (Units=GPa)
#
#
# Indices 1 2 3 4 5 6 
#
# 1 70.9139 17.2781 27.8135 0.0000 0.0000 0.0000
# 2 17.2781 103.3998 40.0732 0.0000 0.0000 0.0000
# 3 27.8135 40.0732 123.6128 0.0000 0.0000 0.0000
# 4 0.0000 0.0000 0.0000 29.6847 0.0000 0.0000
# 5 0.0000 0.0000 0.0000 0.0000 28.9467 0.0000
# 6 0.0000 0.0000 0.0000 0.0000 0.0000 29.0944
#
#
#
# Elastic Compliance Matrix: (Units=1/GPa)
#
#
# Indices 1 2 3 4 5 6 
#
# 1 0.015649 -0.001430 -0.003058 0.000000 0.000000 0.000000
# 2 -0.001430 0.011192 -0.003306 0.000000 0.000000 0.000000
# 3 -0.003058 -0.003306 0.009850 0.000000 0.000000 0.000000
# 4 0.000000 0.000000 0.000000 0.033687 0.000000 0.000000
# 5 0.000000 0.000000 0.000000 0.000000 0.034546 0.000000
# 6 0.000000 0.000000 0.000000 0.000000 0.000000 0.034371
#
#
# Mechanical properties :
#
#
# Convention : Reuss Voigt Hill
#
# Bulk Modulus (GPa) = 47.38767 52.02847 49.70807
# Shear Modulus (GPa) = 30.88001 31.72926 31.30463
#
# Velocity S-wave (km/s) = 3.78021 3.83184 3.80611
# Velocity P-wave (km/s) = 6.40175 6.60711 6.50524
#
# Compressibility (1/GPa) = 0.02110254
#
# Stress axis : x y z
#
# Youngs Moduli (GPa) = 63.90074 89.35310 101.52679
#
# Poissons Ratio (x) = 0.12778 0.31043
# Poissons Ratio (y) = 0.09138 0.33568
# Poissons Ratio (z) = 0.19538 0.29543
#
# Static dielectric constant tensor:
#      x y z
#    x 3.853670 0.000000 0.000000 
#    y 0.000000 4.214640 0.000000 
#    z 0.000000 0.000000 3.711560 
# 
# 
# High freq. dielectric constant tensor:
#      x y z
#    x 1.846260 0.000000 0.000000 
#    y 0.000000 1.866120 0.000000 
#    z 0.000000 0.000000 1.820680 
# 
# From -- ./inp_files/9722.got.cif
#   From: 2010.03.12/outbox.cif.g09.slc.cpg/sg41_5_cif.got.tgz:9722.got - 2010.04.14 01:55:53.
