data_PCOD8185173
_publ_section_title
;
Structure prediction by ZEFSAII (Michael W. Deem and Ramdas Pophale) SiO2 
 PCOD8185173
Probable space group: A B A 2
;
_chemical_formula_sum "Si O2"
_cell_formula_units_Z 56
_cell_length_a 14.034731
_cell_length_b 13.993899
_cell_length_c 13.660022
_cell_angle_alpha 90.000000
_cell_angle_beta 90.000000
_cell_angle_gamma 90.000000
_cell_volume 2682.836628
_symmetry_space_group_name_H-M "A B A 2"
_symmetry_group_IT_number 41
_symmetry_cell_setting 'orthorhombic'
loop_
_space_group_symop_operation_xyz
x,y,z
-x,-y,z
1/2-x,y,1/2+z
1/2+x,-y,1/2+z
x,1/2+y,1/2+z
-x,1/2-y,1/2+z
1/2-x,1/2+y,z
1/2+x,1/2-y,z
loop_
_atom_site_type_symbol
_atom_site_label
_atom_site_fract_x
_atom_site_fract_y
_atom_site_fract_z
Si Si1 0.283075 0.646957 0.308300
Si Si2 0.610357 0.172382 0.398660
Si Si3 0.216925 0.646957 0.587032
Si Si4 0.076604 0.722788 0.088228
Si Si5 0.389643 0.327618 0.496672
Si Si6 0.750000 0.013411 0.447666
Si Si7 0.923396 0.277212 0.307104
O O1 0.331276 0.737345 0.358799
O O2 0.321039 0.636795 0.197666
O O3 0.307093 0.551511 0.369179
O O4 0.169156 0.656600 0.311739
O O5 0.583933 0.188814 0.512846
O O6 0.514571 0.157835 0.335761
O O7 0.674316 0.078345 0.389169
O O8 0.330844 0.656600 0.583593
O O9 0.168724 0.737345 0.536533
O O10 0.192907 0.551511 0.526153
O O11 0.063879 0.764890 0.197666
O O12 0.985429 0.657835 0.059571
O O13 0.325684 0.421655 0.506163
O O14 0.416067 0.311186 0.382486
#
# Coordination Sequence:
#
# PCOD8185173 Si02
#       7
#     8   8   8   8   8   8   8
#     4  11  23  42  63  93 129 164 210 259 309 372
#     4  11  22  42  65  90 131 163 210 259 316 368
#     4  11  23  42  63  93 129 164 210 259 309 372
#     4  10  21  40  66  91 123 169 210 256 312 371
#     4  11  22  42  65  90 131 163 210 259 316 368
#     4  12  22  40  62  96 122 166 204 260 310 366
#     4  10  21  40  66  91 123 169 210 256 312 371
#
# _framework density 20.873429000000002
#
# number of rings (size 3 to 8) (size 9 to 14) (size 15 to 20)
#    0.000    1.143    5.714    0.857    0.000    4.571 
#    0.000    2.857    0.000    5.143    0.000    0.000 
#    0.000    0.000    0.000    0.000    0.000    0.000 
#
# Total GULP energy -347229.198564 kJ/mol
# GULP energy per Si atom -12401.042806 kJ/mol
# Density = 2.082592 g / cm^3
# Si number density = 20.873429 Si / 1000 Ang^3
#
#
#
# Elastic Constant Matrix: (Units=GPa)
#
#
# Indices 1 2 3 4 5 6 
#
# 1 100.6461 24.9709 16.2306 0.0000 0.0000 0.0000
# 2 24.9709 113.8317 44.1361 0.0000 0.0000 0.0000
# 3 16.2306 44.1361 165.6244 0.0000 0.0000 0.0000
# 4 0.0000 0.0000 0.0000 14.7289 0.0000 0.0000
# 5 0.0000 0.0000 0.0000 0.0000 32.4969 0.0000
# 6 0.0000 0.0000 0.0000 0.0000 0.0000 6.2069
#
#
#
# Elastic Compliance Matrix: (Units=1/GPa)
#
#
# Indices 1 2 3 4 5 6 
#
# 1 0.010540 -0.002132 -0.000465 0.000000 0.000000 0.000000
# 2 -0.002132 0.010228 -0.002517 0.000000 0.000000 0.000000
# 3 -0.000465 -0.002517 0.006754 0.000000 0.000000 0.000000
# 4 0.000000 0.000000 0.000000 0.067894 0.000000 0.000000
# 5 0.000000 0.000000 0.000000 0.000000 0.030772 0.000000
# 6 0.000000 0.000000 0.000000 0.000000 0.000000 0.161112
#
#
# Mechanical properties :
#
#
# Convention : Reuss Voigt Hill
#
# Bulk Modulus (GPa) = 57.81925 61.19749 59.50837
# Shear Modulus (GPa) = 16.48580 30.33752 23.41166
#
# Velocity S-wave (km/s) = 2.81338 3.81649 3.35266
# Velocity P-wave (km/s) = 6.18980 6.98590 6.59986
#
# Compressibility (1/GPa) = 0.01729528
#
# Stress axis : x y z
#
# Youngs Moduli (GPa) = 94.87958 97.76712 148.06085
#
# Poissons Ratio (x) = 0.20843 0.06881
# Poissons Ratio (y) = 0.20227 0.37264
# Poissons Ratio (z) = 0.04409 0.24606
#
# Static dielectric constant tensor:
#      x y z
#    x 4.026060 0.000000 0.000000 
#    y 0.000000 3.382210 0.000000 
#    z 0.000000 0.000000 4.195050 
# 
# 
# High freq. dielectric constant tensor:
#      x y z
#    x 1.825110 0.000000 0.000000 
#    y 0.000000 1.782040 0.000000 
#    z 0.000000 0.000000 1.833760 
# 
# From -- ./inp_files/8464.got.cif
#   From: 2010.03.12/outbox.cif.g09.slc.cpg/sg41_5_cif.got.tgz:8464.got - 2010.04.14 01:55:53.
