data_PCOD8185311
_publ_section_title
;
Structure prediction by ZEFSAII (Michael W. Deem and Ramdas Pophale) SiO2 
 PCOD8185311
Probable space group: A B A 2
;
_chemical_formula_sum "Si O2"
_cell_formula_units_Z 64
_cell_length_a 12.535180
_cell_length_b 17.976342
_cell_length_c 13.551182
_cell_angle_alpha 90.000000
_cell_angle_beta 90.000000
_cell_angle_gamma 90.000000
_cell_volume 3053.578399
_symmetry_space_group_name_H-M "A B A 2"
_symmetry_group_IT_number 41
_symmetry_cell_setting 'orthorhombic'
loop_
_space_group_symop_operation_xyz
x,y,z
-x,-y,z
1/2-x,y,1/2+z
1/2+x,-y,1/2+z
x,1/2+y,1/2+z
-x,1/2-y,1/2+z
1/2-x,1/2+y,z
1/2+x,1/2-y,z
loop_
_atom_site_type_symbol
_atom_site_label
_atom_site_fract_x
_atom_site_fract_y
_atom_site_fract_z
Si Si1 0.651819 0.571878 0.881470
Si Si2 0.488514 0.686584 0.536598
Si Si3 0.486148 0.583674 0.713564
Si Si4 0.657756 0.144003 0.776652
Si Si5 0.846793 0.679848 0.558191
Si Si6 0.949609 0.919068 0.366841
Si Si7 0.179533 0.241614 0.928160
Si Si8 0.205726 0.087022 0.843002
O O1 0.558417 0.598389 0.809181
O O2 0.768306 0.586046 0.835097
O O3 0.652794 0.483512 0.898681
O O4 0.628883 0.612197 0.984590
O O5 0.528054 0.640288 0.630806
O O6 0.440949 0.762709 0.579763
O O7 0.424835 0.628122 0.466883
O O8 0.575629 0.716835 0.463226
O O9 0.500000 0.500000 0.673376
O O10 0.361522 0.598566 0.741219
O O11 0.687059 0.142668 0.661122
O O12 0.533088 0.122524 0.793751
O O13 0.694417 0.224851 0.818003
O O14 0.764685 0.735910 0.508988
O O15 0.831668 0.923217 0.316684
O O16 0.000000 0.000000 0.392034
O O17 0.180680 0.153352 0.919075
#
# Coordination Sequence:
#
# PCOD8185311 Si02
#       8
#     8   8   8   8   8   8   8   8
#     4  10  22  42  67  90 132 168 211 271 328 381
#     4  11  22  41  66  95 126 166 220 264 320 389
#     4  10  22  40  65  97 128 171 217 267 324 390
#     4  10  22  41  63  92 129 171 212 265 327 385
#     4  11  22  40  60  95 125 165 214 256 326 385
#     4  11  22  42  66  93 131 171 213 270 324 382
#     4  10  22  40  64  91 127 165 212 273 316 381
#     4  11  21  43  66  94 130 172 215 266 325 390
#
# _framework density 20.959018
#
# number of rings (size 3 to 8) (size 9 to 14) (size 15 to 20)
#    0.000    1.500    2.500    2.625    0.000    1.000 
#    9.000    3.125    0.000    0.000    0.000    0.000 
#    0.000    0.000    0.000    0.000    0.000    0.000 
#
# Total GULP energy -396498.223108 kJ/mol
# GULP energy per Si atom -12390.569472 kJ/mol
# Density = 2.091131 g / cm^3
# Si number density = 20.959018 Si / 1000 Ang^3
#
#
#
# Elastic Constant Matrix: (Units=GPa)
#
#
# Indices 1 2 3 4 5 6 
#
# 1 91.1119 17.0486 25.1415 0.0000 0.0000 0.0000
# 2 17.0486 128.8675 65.7888 0.0000 0.0000 0.0000
# 3 25.1415 65.7888 136.6079 0.0000 0.0000 0.0000
# 4 0.0000 0.0000 0.0000 20.9320 0.0000 0.0000
# 5 0.0000 0.0000 0.0000 0.0000 20.8250 0.0000
# 6 0.0000 0.0000 0.0000 0.0000 0.0000 33.3437
#
#
#
# Elastic Compliance Matrix: (Units=1/GPa)
#
#
# Indices 1 2 3 4 5 6 
#
# 1 0.011596 -0.000590 -0.001850 0.000000 0.000000 0.000000
# 2 -0.000590 0.010320 -0.004861 0.000000 0.000000 0.000000
# 3 -0.001850 -0.004861 0.010002 0.000000 0.000000 0.000000
# 4 0.000000 0.000000 0.000000 0.047774 0.000000 0.000000
# 5 0.000000 0.000000 0.000000 0.000000 0.048019 0.000000
# 6 0.000000 0.000000 0.000000 0.000000 0.000000 0.029991
#
#
# Mechanical properties :
#
#
# Convention : Reuss Voigt Hill
#
# Bulk Modulus (GPa) = 57.75127 63.61612 60.68370
# Shear Modulus (GPa) = 28.07794 31.59405 29.83600
#
# Velocity S-wave (km/s) = 3.66411 3.88676 3.77708
# Velocity P-wave (km/s) = 6.74649 7.11063 6.93095
#
# Compressibility (1/GPa) = 0.01731564
#
# Stress axis : x y z
#
# Youngs Moduli (GPa) = 86.23364 96.90205 99.98082
#
# Poissons Ratio (x) = 0.05713 0.18499
# Poissons Ratio (y) = 0.05084 0.48604
# Poissons Ratio (z) = 0.15956 0.47107
#
# Static dielectric constant tensor:
#      x y z
#    x 3.800840 0.000000 0.000000 
#    y 0.000000 4.105450 0.000000 
#    z 0.000000 0.000000 3.502660 
# 
# 
# High freq. dielectric constant tensor:
#      x y z
#    x 1.821390 0.000000 0.000000 
#    y 0.000000 1.838060 0.000000 
#    z 0.000000 0.000000 1.800310 
# 
# From -- ./inp_files/5716.got.cif
#   From: 2010.03.12/outbox.cif.g09.slc.cpg/sg41_3_cif.got.tgz:5716.got - 2010.04.14 01:55:53.
