data_PCOD8185086
_publ_section_title
;
Structure prediction by ZEFSAII (Michael W. Deem and Ramdas Pophale) SiO2 
 PCOD8185086
Probable space group: A B A 2
;
_chemical_formula_sum "Si O2"
_cell_formula_units_Z 60
_cell_length_a 9.025654
_cell_length_b 12.252778
_cell_length_c 25.054737
_cell_angle_alpha 90.000000
_cell_angle_beta 90.000000
_cell_angle_gamma 90.000000
_cell_volume 2770.786698
_symmetry_space_group_name_H-M "A B A 2"
_symmetry_group_IT_number 41
_symmetry_cell_setting 'orthorhombic'
loop_
_space_group_symop_operation_xyz
x,y,z
-x,-y,z
1/2-x,y,1/2+z
1/2+x,-y,1/2+z
x,1/2+y,1/2+z
-x,1/2-y,1/2+z
1/2-x,1/2+y,z
1/2+x,1/2-y,z
loop_
_atom_site_type_symbol
_atom_site_label
_atom_site_fract_x
_atom_site_fract_y
_atom_site_fract_z
Si Si1 0.168073 0.681418 0.762200
Si Si2 0.000178 0.382688 0.265010
Si Si3 0.802320 0.250752 0.104349
Si Si4 0.954158 0.882787 0.158389
Si Si5 0.049623 0.386151 0.053506
Si Si6 0.164220 0.172705 0.384342
Si Si7 0.500000 0.500000 0.451642
Si Si8 0.003157 0.119847 0.886391
O O1 0.342883 0.674019 0.759035
O O2 0.110389 0.661600 0.822545
O O3 0.124328 0.802972 0.740671
O O4 0.084540 0.601037 0.721204
O O5 0.047586 0.402726 0.326053
O O6 0.000000 0.500000 0.235145
O O7 0.908132 0.199726 0.149990
O O8 0.695223 0.341777 0.129333
O O9 0.911986 0.302565 0.060052
O O10 0.703135 0.157274 0.077176
O O11 0.000000 0.000000 0.134597
O O12 0.000000 0.500000 0.082208
O O13 0.078842 0.410463 0.990386
O O14 0.339074 0.177372 0.389074
O O15 0.114557 0.063650 0.414454
O O16 0.106486 0.287126 0.410106
O O17 0.000000 0.000000 0.915839
#
# Coordination Sequence:
#
# PCOD8185086 Si02
#       8
#     8   8   8   8   8   8   4   8
#     4  10  21  37  57  92 130 169 207 246 298 370
#     4   9  19  37  56  80 121 172 212 252 290 344
#     4  10  21  42  67  89 126 151 205 264 310 361
#     4  11  23  37  63  97 123 163 203 242 311 381
#     4   9  21  42  66  91 120 156 201 264 318 368
#     4  10  22  39  62  90 133 172 211 259 302 381
#     4  10  24  40  66  92 124 162 220 248 336 366
#     4   9  20  38  60  84 121 172 215 258 307 349
#
# _framework density 21.654499999999999
#
# number of rings (size 3 to 8) (size 9 to 14) (size 15 to 20)
#    0.400    1.867    0.000    1.600    2.800    3.200 
#    4.800    3.333    0.000    0.000    0.000    0.000 
#    0.000    0.000    0.000    0.000    0.000    0.000 
#
# Total GULP energy -371731.285871 kJ/mol
# GULP energy per Si atom -12391.042862 kJ/mol
# Density = 2.160521 g / cm^3
# Si number density = 21.654500 Si / 1000 Ang^3
#
#
#
# Elastic Constant Matrix: (Units=GPa)
#
#
# Indices 1 2 3 4 5 6 
#
# 1 105.5478 57.1582 24.4056 0.0000 0.0000 0.0000
# 2 57.1582 130.9426 27.1699 0.0000 0.0000 0.0000
# 3 24.4056 27.1699 70.5599 0.0000 0.0000 0.0000
# 4 0.0000 0.0000 0.0000 30.2580 0.0000 0.0000
# 5 0.0000 0.0000 0.0000 0.0000 10.9119 0.0000
# 6 0.0000 0.0000 0.0000 0.0000 0.0000 36.6032
#
#
#
# Elastic Compliance Matrix: (Units=1/GPa)
#
#
# Indices 1 2 3 4 5 6 
#
# 1 0.012792 -0.005071 -0.002472 0.000000 0.000000 0.000000
# 2 -0.005071 0.010310 -0.002216 0.000000 0.000000 0.000000
# 3 -0.002472 -0.002216 0.015881 0.000000 0.000000 0.000000
# 4 0.000000 0.000000 0.000000 0.033049 0.000000 0.000000
# 5 0.000000 0.000000 0.000000 0.000000 0.091643 0.000000
# 6 0.000000 0.000000 0.000000 0.000000 0.000000 0.027320
#
#
# Mechanical properties :
#
#
# Convention : Reuss Voigt Hill
#
# Bulk Modulus (GPa) = 51.37429 58.27973 54.82701
# Shear Modulus (GPa) = 23.04130 28.77574 25.90852
#
# Velocity S-wave (km/s) = 3.26550 3.64930 3.46273
# Velocity P-wave (km/s) = 6.16393 6.68793 6.43127
#
# Compressibility (1/GPa) = 0.01946499
#
# Stress axis : x y z
#
# Youngs Moduli (GPa) = 78.17314 96.99006 62.96955
#
# Poissons Ratio (x) = 0.49184 0.15566
# Poissons Ratio (y) = 0.39642 0.13955
# Poissons Ratio (z) = 0.19324 0.21494
#
# Static dielectric constant tensor:
#      x y z
#    x 3.757680 0.000000 0.000000 
#    y 0.000000 4.188580 0.000000 
#    z 0.000000 0.000000 3.644230 
# 
# 
# High freq. dielectric constant tensor:
#      x y z
#    x 1.851030 0.000000 0.000000 
#    y 0.000000 1.860260 0.000000 
#    z 0.000000 0.000000 1.815750 
# 
# From -- ./inp_files/12470.got.cif
#   From: 2010.03.12/outbox.cif.g09.slc.cpg/sg41_7_cif.got.tgz:12470.got - 2010.04.14 01:55:53.
