data_PCOD8185231
_publ_section_title
;
Structure prediction by ZEFSAII (Michael W. Deem and Ramdas Pophale) SiO2 
 PCOD8185231
Probable space group: A B A 2
;
_chemical_formula_sum "Si O2"
_cell_formula_units_Z 60
_cell_length_a 27.568239
_cell_length_b 17.005106
_cell_length_c 5.354927
_cell_angle_alpha 90.000000
_cell_angle_beta 90.000000
_cell_angle_gamma 90.000000
_cell_volume 2510.394203
_symmetry_space_group_name_H-M "A B A 2"
_symmetry_group_IT_number 41
_symmetry_cell_setting 'orthorhombic'
loop_
_space_group_symop_operation_xyz
x,y,z
-x,-y,z
1/2-x,y,1/2+z
1/2+x,-y,1/2+z
x,1/2+y,1/2+z
-x,1/2-y,1/2+z
1/2-x,1/2+y,z
1/2+x,1/2-y,z
loop_
_atom_site_type_symbol
_atom_site_label
_atom_site_fract_x
_atom_site_fract_y
_atom_site_fract_z
Si Si1 0.227282 0.680786 0.857740
Si Si2 0.500000 0.000000 0.536965
Si Si3 0.270912 0.861414 0.276598
Si Si4 0.628165 0.077609 0.130307
Si Si5 0.540886 0.349801 0.752295
Si Si6 0.396768 0.003886 0.648299
Si Si7 0.385852 0.660380 0.359334
Si Si8 0.441215 0.784531 0.110550
O O1 0.243633 0.641359 0.592631
O O2 0.243107 0.770946 0.821502
O O3 0.170496 0.672618 0.917986
O O4 0.485191 0.076147 0.378081
O O5 0.547056 0.021360 0.702684
O O6 0.260997 0.900661 0.549805
O O7 0.325731 0.868846 0.186685
O O8 0.618125 0.028470 0.379087
O O9 0.584519 0.134000 0.048154
O O10 0.636346 0.024388 0.882279
O O11 0.582834 0.384363 0.573222
O O12 0.498293 0.299503 0.621056
O O13 0.568533 0.285881 0.919041
O O14 0.391237 0.098978 0.626825
O O15 0.413165 0.745314 0.347201
#
# Coordination Sequence:
#
# PCOD8185231 Si02
#       8
#     8   4   8   8   8   8   8   8
#     4  10  24  44  73 107 139 183 245 309 370 426
#     4  12  26  48  68 102 154 196 240 290 360 452
#     4  10  21  42  72 105 137 179 237 303 367 423
#     4  12  27  47  71 106 144 189 239 301 357 437
#     4  12  27  46  70 110 150 198 245 299 370 439
#     4  12  29  45  71 102 150 195 238 283 378 427
#     4  12  27  47  72 104 149 196 243 304 363 443
#     4  12  26  42  71 107 144 190 245 300 354 427
#
# _framework density 23.900631000000001
#
# number of rings (size 3 to 8) (size 9 to 14) (size 15 to 20)
#    0.000    0.533    5.333    1.600    7.467    1.600 
#    0.000    4.000    0.000    0.000    0.000    0.000 
#    0.000    0.000    0.000    0.000    0.000    0.000 
#
# Total GULP energy -371683.990809 kJ/mol
# GULP energy per Si atom -12389.466360 kJ/mol
# Density = 2.384623 g / cm^3
# Si number density = 23.900631 Si / 1000 Ang^3
#
#
#
# Elastic Constant Matrix: (Units=GPa)
#
#
# Indices 1 2 3 4 5 6 
#
# 1 134.8485 6.5477 46.5902 0.0000 0.0000 0.0000
# 2 6.5477 82.9392 42.2963 0.0000 0.0000 0.0000
# 3 46.5902 42.2963 145.2498 0.0000 0.0000 0.0000
# 4 0.0000 0.0000 0.0000 16.7318 0.0000 0.0000
# 5 0.0000 0.0000 0.0000 0.0000 38.5672 0.0000
# 6 0.0000 0.0000 0.0000 0.0000 0.0000 30.9538
#
#
#
# Elastic Compliance Matrix: (Units=1/GPa)
#
#
# Indices 1 2 3 4 5 6 
#
# 1 0.008389 0.000834 -0.002934 0.000000 0.000000 0.000000
# 2 0.000834 0.014243 -0.004415 0.000000 0.000000 0.000000
# 3 -0.002934 -0.004415 0.009111 0.000000 0.000000 0.000000
# 4 0.000000 0.000000 0.000000 0.059766 0.000000 0.000000
# 5 0.000000 0.000000 0.000000 0.000000 0.025929 0.000000
# 6 0.000000 0.000000 0.000000 0.000000 0.000000 0.032306
#
#
# Mechanical properties :
#
#
# Convention : Reuss Voigt Hill
#
# Bulk Modulus (GPa) = 53.43775 61.54511 57.49143
# Shear Modulus (GPa) = 29.58383 35.09077 32.33730
#
# Velocity S-wave (km/s) = 3.52203 3.83586 3.68229
# Velocity P-wave (km/s) = 6.24071 6.73979 6.49504
#
# Compressibility (1/GPa) = 0.01871336
#
# Stress axis : x y z
#
# Youngs Moduli (GPa) = 119.20658 70.21175 109.75433
#
# Poissons Ratio (x) = -0.05854 0.32197
# Poissons Ratio (y) = -0.09939 0.48455
# Poissons Ratio (z) = 0.34970 0.30997
#
# Static dielectric constant tensor:
#      x y z
#    x 4.263290 0.000000 0.000000 
#    y 0.000000 4.148250 0.000000 
#    z 0.000000 0.000000 4.563520 
# 
# 
# High freq. dielectric constant tensor:
#      x y z
#    x 1.948650 0.000000 0.000000 
#    y 0.000000 1.940030 0.000000 
#    z 0.000000 0.000000 1.950780 
# 
# From -- ./inp_files/1198.got.cif
#   From: 2010.03.12/outbox.cif.g09.slc.cpg/sg41_1_cif.got.tgz:1198.got - 2010.04.14 01:55:53.
