data_PCOD8185880
_publ_section_title
;
Structure prediction by ZEFSAII (Michael W. Deem and Ramdas Pophale) SiO2 
 PCOD8185880
Probable space group: F M M 2
;
_chemical_formula_sum "Si O2"
_cell_formula_units_Z 96
_cell_length_a 8.916669
_cell_length_b 27.817589
_cell_length_c 25.783233
_cell_angle_alpha 90.000000
_cell_angle_beta 90.000000
_cell_angle_gamma 90.000000
_cell_volume 6395.279133
_symmetry_space_group_name_H-M "F M M 2"
_symmetry_group_IT_number 42
_symmetry_cell_setting 'orthorhombic'
loop_
_space_group_symop_operation_xyz
x,y,z
-x,-y,z
-x,y,z
x,-y,z
x,1/2+y,1/2+z
-x,1/2-y,1/2+z
-x,1/2+y,1/2+z
x,1/2-y,1/2+z
1/2+x,y,1/2+z
1/2-x,-y,1/2+z
1/2-x,y,1/2+z
1/2+x,-y,1/2+z
1/2+x,1/2+y,z
1/2-x,1/2-y,z
1/2-x,1/2+y,z
1/2+x,1/2-y,z
loop_
_atom_site_type_symbol
_atom_site_label
_atom_site_fract_x
_atom_site_fract_y
_atom_site_fract_z
Si Si1 0.822399 0.198140 0.932650
Si Si2 0.830388 0.121719 0.491491
Si Si3 0.669382 0.057149 0.687439
Si Si4 0.675298 0.444041 0.791167
Si Si5 0.322489 0.554685 0.583476
Si Si6 0.330152 0.382138 0.377886
O O1 0.750000 0.250000 0.933831
O O2 0.756421 0.169219 0.882588
O O3 0.000000 0.202067 0.928947
O O4 0.772903 0.169498 0.985300
O O5 0.764504 0.086593 0.535370
O O6 0.830782 0.094052 0.435712
O O7 0.000000 0.137660 0.505779
O O8 0.500000 0.076435 0.688270
O O9 0.753982 0.076848 0.738230
O O10 0.750463 0.076356 0.635728
O O11 0.676388 0.000000 0.687580
O O12 0.500000 0.434280 0.789076
O O13 0.713381 0.500000 0.797683
O O14 0.744409 0.417221 0.839840
O O15 0.500000 0.556882 0.589339
O O16 0.268919 0.500000 0.573774
O O17 0.500000 0.373587 0.358131
#
# Coordination Sequence:
#
# PCOD8185880 Si02
#       6
#    16  16  16  16  16  16
#     4  10  18  31  49  67  90 116 146 185 226 270
#     4   8  17  30  44  66  93 119 151 183 222 272
#     4   9  17  28  42  61  85 118 158 193 224 258
#     4  10  19  30  44  64  91 123 157 191 225 262
#     4   9  16  28  45  64  90 123 155 187 220 258
#     4   9  18  31  46  67  92 118 151 184 223 272
#
# _framework density 15.011073
#
# number of rings (size 3 to 8) (size 9 to 14) (size 15 to 20)
#    1.000    1.833    0.000    2.500    0.000    4.333 
#    0.000    1.667    0.000    0.000    0.000    1.167 
#    0.000    5.333    0.000    0.000    0.000    0.000 
#
# Total GULP energy -297387.773582 kJ/mol
# GULP energy per Si atom -12391.157233 kJ/mol
# Density = 1.497691 g / cm^3
# Si number density = 15.011073 Si / 1000 Ang^3
#
#
#
# Elastic Constant Matrix: (Units=GPa)
#
#
# Indices 1 2 3 4 5 6 
#
# 1 85.3303 54.4857 47.5239 0.0000 0.0000 0.0000
# 2 54.4857 68.1365 50.9709 0.0000 0.0000 0.0000
# 3 47.5239 50.9709 103.6330 0.0000 0.0000 0.0000
# 4 0.0000 0.0000 0.0000 1.4710 0.0000 0.0000
# 5 0.0000 0.0000 0.0000 0.0000 27.2230 0.0000
# 6 0.0000 0.0000 0.0000 0.0000 0.0000 20.8972
#
#
#
# Elastic Compliance Matrix: (Units=1/GPa)
#
#
# Indices 1 2 3 4 5 6 
#
# 1 0.024354 -0.017593 -0.002515 0.000000 0.000000 0.000000
# 2 -0.017593 0.035929 -0.009603 0.000000 0.000000 0.000000
# 3 -0.002515 -0.009603 0.015526 0.000000 0.000000 0.000000
# 4 0.000000 0.000000 0.000000 0.679804 0.000000 0.000000
# 5 0.000000 0.000000 0.000000 0.000000 0.036734 0.000000
# 6 0.000000 0.000000 0.000000 0.000000 0.000000 0.047853
#
#
# Mechanical properties :
#
#
# Convention : Reuss Voigt Hill
#
# Bulk Modulus (GPa) = 61.02971 62.56232 61.79602
# Shear Modulus (GPa) = 5.52435 16.85952 11.19193
#
# Velocity S-wave (km/s) = 1.92046 3.35496 2.73349
# Velocity P-wave (km/s) = 6.75739 7.53496 7.15674
#
# Compressibility (1/GPa) = 0.01638546
#
# Stress axis : x y z
#
# Youngs Moduli (GPa) = 41.06183 27.83280 64.40733
#
# Poissons Ratio (x) = 0.48966 0.16199
# Poissons Ratio (y) = 0.72240 0.61853
# Poissons Ratio (z) = 0.10327 0.26729
#
# Static dielectric constant tensor:
#      x y z
#    x 2.985250 0.000000 0.000000 
#    y 0.000000 2.597200 0.000000 
#    z 0.000000 0.000000 2.907960 
# 
# 
# High freq. dielectric constant tensor:
#      x y z
#    x 1.588260 0.000000 0.000000 
#    y 0.000000 1.534040 0.000000 
#    z 0.000000 0.000000 1.567580 
# 
# From -- ./inp_files/31776.got.cif
#   From: 2010.03.12/outbox.cif.g09.slc.cpg/sg42_16_cif.got.tgz:31776.got - 2010.04.14 02:04:31.
