data_PCOD8185813
_publ_section_title
;
Structure prediction by ZEFSAII (Michael W. Deem and Ramdas Pophale) SiO2 
 PCOD8185813
Probable space group: F M M 2
;
_chemical_formula_sum "Si O2"
_cell_formula_units_Z 96
_cell_length_a 23.753898
_cell_length_b 17.480464
_cell_length_c 15.108131
_cell_angle_alpha 90.000000
_cell_angle_beta 90.000000
_cell_angle_gamma 90.000000
_cell_volume 6273.336527
_symmetry_space_group_name_H-M "F M M 2"
_symmetry_group_IT_number 42
_symmetry_cell_setting 'orthorhombic'
loop_
_space_group_symop_operation_xyz
x,y,z
-x,-y,z
-x,y,z
x,-y,z
x,1/2+y,1/2+z
-x,1/2-y,1/2+z
-x,1/2+y,1/2+z
x,1/2-y,1/2+z
1/2+x,y,1/2+z
1/2-x,-y,1/2+z
1/2-x,y,1/2+z
1/2+x,-y,1/2+z
1/2+x,1/2+y,z
1/2-x,1/2-y,z
1/2-x,1/2+y,z
1/2+x,1/2-y,z
loop_
_atom_site_type_symbol
_atom_site_label
_atom_site_fract_x
_atom_site_fract_y
_atom_site_fract_z
Si Si1 0.435946 0.588968 0.829690
Si Si2 0.852274 0.683598 0.431004
Si Si3 0.737738 0.914691 0.348257
Si Si4 0.653759 0.914437 0.185816
Si Si5 0.309944 0.291532 0.292295
Si Si6 0.184118 0.740355 0.103502
O O1 0.500000 0.616213 0.818812
O O2 0.431356 0.500000 0.853719
O O3 0.407813 0.633382 0.912456
O O4 0.404356 0.605093 0.736738
O O5 0.796138 0.631263 0.423863
O O6 0.853232 0.750446 0.357443
O O7 0.853807 0.722173 0.527102
O O8 0.702764 0.912256 0.257958
O O9 0.798843 0.877751 0.326812
O O10 0.747852 0.000000 0.383065
O O11 0.667479 0.849705 0.112703
O O12 0.651011 0.000000 0.142672
O O13 0.250000 0.250000 0.295909
O O14 0.332647 0.286620 0.192294
O O15 0.250000 0.750000 0.080120
#
# Coordination Sequence:
#
# PCOD8185813 Si02
#       6
#    16  16  16  16  16  16
#     4   9  17  32  52  69  87 113 150 200 245 270
#     4  10  18  28  45  66  93 125 154 183 229 274
#     4   9  15  28  44  61  90 125 157 188 219 260
#     4   9  16  28  46  67  89 118 151 190 233 269
#     4   9  15  28  41  62  93 125 152 183 220 266
#     4  11  17  28  45  69  99 129 149 179 226 277
#
# _framework density 15.302861999999999
#
# number of rings (size 3 to 8) (size 9 to 14) (size 15 to 20)
#    0.000    2.500    6.667    3.000    0.000    0.000 
#    0.000    6.667    0.000    0.000    0.000    0.000 
#    0.000    2.000    0.000    0.000    0.000    0.000 
#
# Total GULP energy -297442.753708 kJ/mol
# GULP energy per Si atom -12393.448071 kJ/mol
# Density = 1.526803 g / cm^3
# Si number density = 15.302862 Si / 1000 Ang^3
#
#
#
# Elastic Constant Matrix: (Units=GPa)
#
#
# Indices 1 2 3 4 5 6 
#
# 1 65.7638 38.8109 26.2199 0.0000 0.0000 0.0000
# 2 38.8109 111.7586 42.0512 0.0000 0.0000 0.0000
# 3 26.2199 42.0512 75.8969 0.0000 0.0000 0.0000
# 4 0.0000 0.0000 0.0000 26.0861 0.0000 0.0000
# 5 0.0000 0.0000 0.0000 0.0000 8.4673 0.0000
# 6 0.0000 0.0000 0.0000 0.0000 0.0000 18.3916
#
#
#
# Elastic Compliance Matrix: (Units=1/GPa)
#
#
# Indices 1 2 3 4 5 6 
#
# 1 0.019984 -0.005486 -0.003864 0.000000 0.000000 0.000000
# 2 -0.005486 0.012811 -0.005203 0.000000 0.000000 0.000000
# 3 -0.003864 -0.005203 0.017393 0.000000 0.000000 0.000000
# 4 0.000000 0.000000 0.000000 0.038335 0.000000 0.000000
# 5 0.000000 0.000000 0.000000 0.000000 0.118102 0.000000
# 6 0.000000 0.000000 0.000000 0.000000 0.000000 0.054373
#
#
# Mechanical properties :
#
#
# Convention : Reuss Voigt Hill
#
# Bulk Modulus (GPa) = 47.43314 51.95370 49.69342
# Shear Modulus (GPa) = 16.82765 20.34482 18.58624
#
# Velocity S-wave (km/s) = 3.31968 3.65016 3.48883
# Velocity P-wave (km/s) = 6.76441 7.19645 6.98377
#
# Compressibility (1/GPa) = 0.02108231
#
# Stress axis : x y z
#
# Youngs Moduli (GPa) = 50.03945 78.06066 57.49345
#
# Poissons Ratio (x) = 0.42824 0.22217
# Poissons Ratio (y) = 0.27452 0.29911
# Poissons Ratio (z) = 0.19337 0.40611
#
# Static dielectric constant tensor:
#      x y z
#    x 2.715480 0.000000 0.000000 
#    y 0.000000 3.407000 0.000000 
#    z 0.000000 0.000000 2.736900 
# 
# 
# High freq. dielectric constant tensor:
#      x y z
#    x 1.539750 0.000000 0.000000 
#    y 0.000000 1.594430 0.000000 
#    z 0.000000 0.000000 1.563840 
# 
# From -- ./inp_files/21752.got.cif
#   From: 2010.03.12/outbox.cif.g09.slc.cpg/sg42_11_cif.got.tgz:21752.got - 2010.04.14 02:04:31.
