data_PCOD8185303
_publ_section_title
;
Structure prediction by ZEFSAII (Michael W. Deem and Ramdas Pophale) SiO2 
 PCOD8185303
Probable space group: A B A 2
;
_chemical_formula_sum "Si O2"
_cell_formula_units_Z 44
_cell_length_a 26.026194
_cell_length_b 14.730210
_cell_length_c 5.119291
_cell_angle_alpha 90.000000
_cell_angle_beta 90.000000
_cell_angle_gamma 90.000000
_cell_volume 1962.589262
_symmetry_space_group_name_H-M "A B A 2"
_symmetry_group_IT_number 41
_symmetry_cell_setting 'orthorhombic'
loop_
_space_group_symop_operation_xyz
x,y,z
-x,-y,z
1/2-x,y,1/2+z
1/2+x,-y,1/2+z
x,1/2+y,1/2+z
-x,1/2-y,1/2+z
1/2-x,1/2+y,z
1/2+x,1/2-y,z
loop_
_atom_site_type_symbol
_atom_site_label
_atom_site_fract_x
_atom_site_fract_y
_atom_site_fract_z
Si Si1 0.779665 0.943031 0.346190
Si Si2 0.381459 0.858303 0.313204
Si Si3 0.388856 0.972780 0.810754
Si Si4 0.000000 0.500000 0.017997
Si Si5 0.485139 0.299901 0.702182
Si Si6 0.223065 0.770279 0.841066
O O1 0.750269 0.985826 0.596998
O O2 0.770935 0.836617 0.342971
O O3 0.841336 0.957829 0.348230
O O4 0.387218 0.941785 0.511352
O O5 0.429354 0.790483 0.333280
O O6 0.334580 0.797131 0.398728
O O7 0.378420 0.892473 0.015448
O O8 0.446939 0.011421 0.852495
O O9 0.001559 0.407630 0.189862
O O10 0.480868 0.255089 0.413058
O O11 0.241761 0.812753 0.568822
#
# Coordination Sequence:
#
# PCOD8185303 Si02
#       6
#     8   8   8   4   8   8
#     4  10  22  41  61  94 125 169 220 258 332 403
#     4  11  24  42  62  99 125 163 227 260 331 398
#     4  11  24  42  67  92 135 171 213 282 325 397
#     4  10  26  48  66 106 140 176 234 284 338 402
#     4  11  25  45  69  99 133 181 225 276 337 405
#     4  10  22  40  62  91 130 166 210 270 324 392
#
# _framework density 22.419363000000001
#
# number of rings (size 3 to 8) (size 9 to 14) (size 15 to 20)
#    0.000    1.455    0.000    4.364    2.545   10.909 
#    6.545    0.000    0.000    0.000    0.000    0.000 
#    0.000    0.000    0.000    0.000    0.000    0.000 
#
# Total GULP energy -272659.302521 kJ/mol
# GULP energy per Si atom -12393.604660 kJ/mol
# Density = 2.236834 g / cm^3
# Si number density = 22.419363 Si / 1000 Ang^3
#
#
#
# Elastic Constant Matrix: (Units=GPa)
#
#
# Indices 1 2 3 4 5 6 
#
# 1 177.4991 17.6596 55.8470 0.0000 0.0000 0.0000
# 2 17.6596 65.0457 42.4052 0.0000 0.0000 0.0000
# 3 55.8470 42.4052 131.2082 0.0000 0.0000 0.0000
# 4 0.0000 0.0000 0.0000 -2.0942 0.0000 0.0000
# 5 0.0000 0.0000 0.0000 0.0000 31.0599 0.0000
# 6 0.0000 0.0000 0.0000 0.0000 0.0000 33.3370
#
#
#
# Elastic Compliance Matrix: (Units=1/GPa)
#
#
# Indices 1 2 3 4 5 6 
#
# 1 0.006505 0.000049 -0.002785 0.000000 0.000000 0.000000
# 2 0.000049 0.019478 -0.006316 0.000000 0.000000 0.000000
# 3 -0.002785 -0.006316 0.010848 0.000000 0.000000 0.000000
# 4 0.000000 0.000000 0.000000 -0.477507 0.000000 0.000000
# 5 0.000000 0.000000 0.000000 0.000000 0.032196 0.000000
# 6 0.000000 0.000000 0.000000 0.000000 0.000000 0.029997
#
#
# Mechanical properties :
#
#
# Convention : Reuss Voigt Hill
#
# Bulk Modulus (GPa) = 53.39542 67.28628 60.34085
# Shear Modulus (GPa) = -14.11881 29.64996 7.76557
#
# Velocity S-wave (km/s) = -2.51222 3.64059 1.86314
# Velocity P-wave (km/s) = 3.93107 6.91011 5.62152
#
# Compressibility (1/GPa) = 0.01872820
#
# Stress axis : x y z
#
# Youngs Moduli (GPa) = 153.72569 51.33977 92.18220
#
# Poissons Ratio (x) = -0.00253 0.25671
# Poissons Ratio (y) = -0.00759 0.58224
# Poissons Ratio (z) = 0.42809 0.32427
#
# Static dielectric constant tensor:
#      x y z
#    x 4.368870 0.000000 0.000000 
#    y 0.000000 3.721070 0.000000 
#    z 0.000000 0.000000 4.329870 
# 
# 
# High freq. dielectric constant tensor:
#      x y z
#    x 1.900140 0.000000 0.000000 
#    y 0.000000 1.866380 0.000000 
#    z 0.000000 0.000000 1.895240 
# 
# From -- ./inp_files/936.got.cif
#   From: 2010.03.12/outbox.cif.g09.slc.cpg/sg41_1_cif.got.tgz:936.got - 2010.04.14 01:55:53.
