data_PCOD8185724
_publ_section_title
;
Structure prediction by ZEFSAII (Michael W. Deem and Ramdas Pophale) SiO2 
 PCOD8185724
Probable space group: A B A 2
;
_chemical_formula_sum "Si O2"
_cell_formula_units_Z 64
_cell_length_a 27.860111
_cell_length_b 8.830331
_cell_length_c 11.378363
_cell_angle_alpha 90.000000
_cell_angle_beta 90.000000
_cell_angle_gamma 90.000000
_cell_volume 2799.236616
_symmetry_space_group_name_H-M "A B A 2"
_symmetry_group_IT_number 41
_symmetry_cell_setting 'orthorhombic'
loop_
_space_group_symop_operation_xyz
x,y,z
-x,-y,z
1/2-x,y,1/2+z
1/2+x,-y,1/2+z
x,1/2+y,1/2+z
-x,1/2-y,1/2+z
1/2-x,1/2+y,z
1/2+x,1/2-y,z
loop_
_atom_site_type_symbol
_atom_site_label
_atom_site_fract_x
_atom_site_fract_y
_atom_site_fract_z
Si Si1 0.411655 0.828706 0.944150
Si Si2 0.380560 0.016908 0.551200
Si Si3 0.529561 0.638681 0.659022
Si Si4 0.038564 0.385235 0.719122
Si Si5 0.666674 0.926650 0.894295
Si Si6 0.710875 0.588302 0.196368
Si Si7 0.123030 0.867345 0.803203
Si Si8 0.306205 0.572702 0.655611
O O1 0.437653 0.782134 0.822261
O O2 0.377360 0.961018 0.903234
O O3 0.384436 0.693011 0.012454
O O4 0.449724 0.903423 0.031823
O O5 0.422647 0.973562 0.640739
O O6 0.329648 0.982129 0.611368
O O7 0.386417 0.920814 0.434441
O O8 0.500000 0.500000 0.712619
O O9 0.492562 0.775309 0.637327
O O10 0.572376 0.679054 0.748040
O O11 0.000000 0.500000 0.776366
O O12 0.654660 0.783799 0.811614
O O13 0.708835 0.015182 0.826321
O O14 0.681262 0.876426 0.023876
O O15 0.762802 0.545993 0.146020
O O16 0.706850 0.768711 0.217153
O O17 0.149519 0.994364 0.723581
#
# Coordination Sequence:
#
# PCOD8185724 Si02
#       8
#     8   8   8   8   8   8   8   8
#     4  12  25  47  74 104 152 200 249 314 375 448
#     4  12  27  47  76 109 155 198 251 317 379 450
#     4  12  27  42  73 107 148 198 257 310 374 447
#     4  12  26  48  72 109 149 201 256 307 379 449
#     4  12  26  49  82 109 153 201 245 310 379 453
#     4  12  28  51  79 113 152 195 251 309 381 455
#     4  12  27  50  75 112 153 200 253 311 383 448
#     4  12  29  51  78 115 152 196 251 311 379 457
#
# _framework density 22.863377
#
# number of rings (size 3 to 8) (size 9 to 14) (size 15 to 20)
#    0.000    0.000    5.000    4.125    8.750    1.500 
#    0.000    0.000    0.000    0.000    0.000    0.000 
#    0.000    0.000    0.000    0.000    0.000    0.000 
#
# Total GULP energy -396827.105680 kJ/mol
# GULP energy per Si atom -12400.847052 kJ/mol
# Density = 2.281134 g / cm^3
# Si number density = 22.863377 Si / 1000 Ang^3
#
#
#
# Elastic Constant Matrix: (Units=GPa)
#
#
# Indices 1 2 3 4 5 6 
#
# 1 91.0022 21.9428 23.7810 0.0000 0.0000 0.0000
# 2 21.9428 125.3156 15.6127 0.0000 0.0000 0.0000
# 3 23.7810 15.6127 110.6115 0.0000 0.0000 0.0000
# 4 0.0000 0.0000 0.0000 41.7350 0.0000 0.0000
# 5 0.0000 0.0000 0.0000 0.0000 19.3258 0.0000
# 6 0.0000 0.0000 0.0000 0.0000 0.0000 38.4547
#
#
#
# Elastic Compliance Matrix: (Units=1/GPa)
#
#
# Indices 1 2 3 4 5 6 
#
# 1 0.012036 -0.001817 -0.002331 0.000000 0.000000 0.000000
# 2 -0.001817 0.008397 -0.000795 0.000000 0.000000 0.000000
# 3 -0.002331 -0.000795 0.009654 0.000000 0.000000 0.000000
# 4 0.000000 0.000000 0.000000 0.023961 0.000000 0.000000
# 5 0.000000 0.000000 0.000000 0.000000 0.051744 0.000000
# 6 0.000000 0.000000 0.000000 0.000000 0.000000 0.026005
#
#
# Mechanical properties :
#
#
# Convention : Reuss Voigt Hill
#
# Bulk Modulus (GPa) = 49.50158 49.95578 49.72868
# Shear Modulus (GPa) = 33.68903 37.60930 35.64917
#
# Velocity S-wave (km/s) = 3.84278 4.06021 3.95299
# Velocity P-wave (km/s) = 6.43329 6.62401 6.52935
#
# Compressibility (1/GPa) = 0.02020137
#
# Stress axis : x y z
#
# Youngs Moduli (GPa) = 83.08347 119.08991 103.58395
#
# Poissons Ratio (x) = 0.21640 0.24148
# Poissons Ratio (y) = 0.15097 0.08230
# Poissons Ratio (z) = 0.19369 0.09462
#
# Static dielectric constant tensor:
#      x y z
#    x 4.172420 0.000000 0.000000 
#    y 0.000000 4.273240 0.000000 
#    z 0.000000 0.000000 4.422380 
# 
# 
# High freq. dielectric constant tensor:
#      x y z
#    x 1.906880 0.000000 0.000000 
#    y 0.000000 1.914140 0.000000 
#    z 0.000000 0.000000 1.912840 
# 
# From -- ./inp_files/6678.got.cif
#   From: 2010.03.12/outbox.cif.g09.slc.cpg/sg41_4_cif.got.tgz:6678.got - 2010.04.14 01:55:53.
