data_PCOD8185542
_publ_section_title
;
Structure prediction by ZEFSAII (Michael W. Deem and Ramdas Pophale) SiO2 
 PCOD8185542
Probable space group: A B A 2
;
_chemical_formula_sum "Si O2"
_cell_formula_units_Z 40
_cell_length_a 18.696492
_cell_length_b 17.006533
_cell_length_c 4.856297
_cell_angle_alpha 90.000000
_cell_angle_beta 90.000000
_cell_angle_gamma 90.000000
_cell_volume 1544.120375
_symmetry_space_group_name_H-M "A B A 2"
_symmetry_group_IT_number 41
_symmetry_cell_setting 'orthorhombic'
loop_
_space_group_symop_operation_xyz
x,y,z
-x,-y,z
1/2-x,y,1/2+z
1/2+x,-y,1/2+z
x,1/2+y,1/2+z
-x,1/2-y,1/2+z
1/2-x,1/2+y,z
1/2+x,1/2-y,z
loop_
_atom_site_type_symbol
_atom_site_label
_atom_site_fract_x
_atom_site_fract_y
_atom_site_fract_z
Si Si1 0.138495 0.898156 0.372740
Si Si2 0.793644 0.758953 0.829638
Si Si3 0.055317 0.345701 0.369257
Si Si4 0.586121 0.325148 0.169735
Si Si5 0.300025 0.069141 0.936481
O O1 0.197334 0.831051 0.425351
O O2 0.068416 0.885786 0.570723
O O3 0.179563 0.978373 0.419242
O O4 0.115766 0.885169 0.057982
O O5 0.777690 0.781428 0.509654
O O6 0.864682 0.803842 0.911012
O O7 0.062768 0.250779 0.350248
O O8 0.980328 0.366294 0.513857
O O9 0.626101 0.385829 0.370660
O O10 0.232388 0.089395 0.737342
#
# Coordination Sequence:
#
# PCOD8185542 Si02
#       5
#     8   8   8   8   8
#     4  11  24  45  70  98 135 184 231 279 346 420
#     4  11  21  36  63  95 130 173 218 270 335 405
#     4  11  25  45  71  99 137 185 232 281 340 424
#     4  11  25  45  70 103 138 177 233 290 348 407
#     4  12  27  47  72 106 144 181 232 300 357 415
#
# _framework density 25.904713999999998
#
# number of rings (size 3 to 8) (size 9 to 14) (size 15 to 20)
#    0.000    0.800    0.000    8.400    0.000    8.800 
#    0.000    4.000    0.000    0.000    0.000    0.000 
#    0.000    0.000    0.000    0.000    0.000    0.000 
#
# Total GULP energy -248025.075118 kJ/mol
# GULP energy per Si atom -12401.253756 kJ/mol
# Density = 2.584575 g / cm^3
# Si number density = 25.904714 Si / 1000 Ang^3
#
#
#
# Elastic Constant Matrix: (Units=GPa)
#
#
# Indices 1 2 3 4 5 6 
#
# 1 107.0301 6.5307 29.0814 0.0000 0.0000 0.0000
# 2 6.5307 61.6715 10.8355 0.0000 0.0000 0.0000
# 3 29.0814 10.8355 133.1274 0.0000 0.0000 0.0000
# 4 0.0000 0.0000 0.0000 37.3720 0.0000 0.0000
# 5 0.0000 0.0000 0.0000 0.0000 39.9540 0.0000
# 6 0.0000 0.0000 0.0000 0.0000 0.0000 32.0344
#
#
#
# Elastic Compliance Matrix: (Units=1/GPa)
#
#
# Indices 1 2 3 4 5 6 
#
# 1 0.009961 -0.000682 -0.002120 0.000000 0.000000 0.000000
# 2 -0.000682 0.016497 -0.001194 0.000000 0.000000 0.000000
# 3 -0.002120 -0.001194 0.008072 0.000000 0.000000 0.000000
# 4 0.000000 0.000000 0.000000 0.026758 0.000000 0.000000
# 5 0.000000 0.000000 0.000000 0.000000 0.025029 0.000000
# 6 0.000000 0.000000 0.000000 0.000000 0.000000 0.031216
#
#
# Mechanical properties :
#
#
# Convention : Reuss Voigt Hill
#
# Bulk Modulus (GPa) = 37.68310 43.85825 40.77067
# Shear Modulus (GPa) = 37.21028 38.89750 38.05389
#
# Velocity S-wave (km/s) = 3.79414 3.87920 3.83690
# Velocity P-wave (km/s) = 5.81140 6.08536 5.94996
#
# Compressibility (1/GPa) = 0.02653709
#
# Stress axis : x y z
#
# Youngs Moduli (GPa) = 100.39216 60.61740 123.88567
#
# Poissons Ratio (x) = 0.04136 0.26269
# Poissons Ratio (y) = 0.06849 0.14788
# Poissons Ratio (z) = 0.21287 0.07236
#
# Static dielectric constant tensor:
#      x y z
#    x 4.683580 0.000000 0.000000 
#    y 0.000000 4.892240 0.000000 
#    z 0.000000 0.000000 4.743010 
# 
# 
# High freq. dielectric constant tensor:
#      x y z
#    x 2.039930 0.000000 0.000000 
#    y 0.000000 2.038880 0.000000 
#    z 0.000000 0.000000 2.053220 
# 
# From -- ./inp_files/430.got.cif
#   From: 2010.03.12/outbox.cif.g09.slc.cpg/sg41_1_cif.got.tgz:430.got - 2010.04.14 01:55:53.
