data_PCOD8185254
_publ_section_title
;
Structure prediction by ZEFSAII (Michael W. Deem and Ramdas Pophale) SiO2 
 PCOD8185254
Probable space group: A B A 2
;
_chemical_formula_sum "Si O2"
_cell_formula_units_Z 60
_cell_length_a 29.044258
_cell_length_b 8.652490
_cell_length_c 11.315087
_cell_angle_alpha 90.000000
_cell_angle_beta 90.000000
_cell_angle_gamma 90.000000
_cell_volume 2843.539657
_symmetry_space_group_name_H-M "A B A 2"
_symmetry_group_IT_number 41
_symmetry_cell_setting 'orthorhombic'
loop_
_space_group_symop_operation_xyz
x,y,z
-x,-y,z
1/2-x,y,1/2+z
1/2+x,-y,1/2+z
x,1/2+y,1/2+z
-x,1/2-y,1/2+z
1/2-x,1/2+y,z
1/2+x,1/2-y,z
loop_
_atom_site_type_symbol
_atom_site_label
_atom_site_fract_x
_atom_site_fract_y
_atom_site_fract_z
Si Si1 0.840983 0.448616 0.661900
Si Si2 0.665594 0.130514 0.039181
Si Si3 0.933721 0.720814 0.025901
Si Si4 0.577956 0.806760 0.789619
Si Si5 0.188067 0.524400 0.272978
Si Si6 0.000000 0.000000 0.401692
Si Si7 0.394364 0.973210 0.444998
Si Si8 0.776157 0.642884 0.813229
O O1 0.823023 0.300220 0.590174
O O2 0.873216 0.392889 0.770857
O O3 0.870167 0.557913 0.571927
O O4 0.797531 0.542263 0.707434
O O5 0.612943 0.127309 0.991723
O O6 0.672164 0.000942 0.138769
O O7 0.700962 0.092274 0.935708
O O8 0.936500 0.725658 0.167696
O O9 0.978989 0.634217 0.982693
O O10 0.932105 0.891103 0.965889
O O11 0.581870 0.681421 0.895235
O O12 0.539479 0.931534 0.819512
O O13 0.142948 0.535304 0.352212
O O14 0.221400 0.386310 0.317476
O O15 0.217152 0.679452 0.283381
#
# Coordination Sequence:
#
# PCOD8185254 Si02
#       8
#     8   8   8   8   8   4   8   8
#     4  10  22  43  68  95 130 174 217 266 329 383
#     4  10  22  46  65  91 138 169 217 269 330 383
#     4  10  23  44  68  96 130 168 216 269 332 396
#     4  10  23  44  65  96 134 165 215 272 327 394
#     4  12  24  41  65  95 129 178 218 267 318 380
#     4  12  26  40  70 102 124 164 224 274 320 396
#     4  10  21  45  68  88 134 177 208 262 332 386
#     4  12  26  39  64  98 132 171 226 273 311 378
#
# _framework density 21.100463000000001
#
# number of rings (size 3 to 8) (size 9 to 14) (size 15 to 20)
#    0.000    1.600    5.333    1.600    1.867    6.933 
#    0.000    0.000    0.000    0.000    0.000    0.000 
#    0.000    0.000    0.000    0.000    0.000    0.000 
#
# Total GULP energy -372055.143786 kJ/mol
# GULP energy per Si atom -12401.838126 kJ/mol
# Density = 2.105244 g / cm^3
# Si number density = 21.100463 Si / 1000 Ang^3
#
#
#
# Elastic Constant Matrix: (Units=GPa)
#
#
# Indices 1 2 3 4 5 6 
#
# 1 48.7831 19.0546 16.3214 0.0000 0.0000 0.0000
# 2 19.0546 74.7753 27.4722 0.0000 0.0000 0.0000
# 3 16.3214 27.4722 88.3353 0.0000 0.0000 0.0000
# 4 0.0000 0.0000 0.0000 36.6839 0.0000 0.0000
# 5 0.0000 0.0000 0.0000 0.0000 20.3164 0.0000
# 6 0.0000 0.0000 0.0000 0.0000 0.0000 41.2814
#
#
#
# Elastic Compliance Matrix: (Units=1/GPa)
#
#
# Indices 1 2 3 4 5 6 
#
# 1 0.023355 -0.004929 -0.002782 0.000000 0.000000 0.000000
# 2 -0.004929 0.016139 -0.004108 0.000000 0.000000 0.000000
# 3 -0.002782 -0.004108 0.013112 0.000000 0.000000 0.000000
# 4 0.000000 0.000000 0.000000 0.027260 0.000000 0.000000
# 5 0.000000 0.000000 0.000000 0.000000 0.049221 0.000000
# 6 0.000000 0.000000 0.000000 0.000000 0.000000 0.024224
#
#
# Mechanical properties :
#
#
# Convention : Reuss Voigt Hill
#
# Bulk Modulus (GPa) = 34.52271 37.51002 36.01637
# Shear Modulus (GPa) = 26.79428 29.59270 28.19349
#
# Velocity S-wave (km/s) = 3.56735 3.74902 3.65931
# Velocity P-wave (km/s) = 5.77621 6.04612 5.91271
#
# Compressibility (1/GPa) = 0.02896644
#
# Stress axis : x y z
#
# Youngs Moduli (GPa) = 42.81714 61.96204 76.26439
#
# Poissons Ratio (x) = 0.30543 0.21219
# Poissons Ratio (y) = 0.21106 0.31333
# Poissons Ratio (z) = 0.11913 0.25457
#
# Static dielectric constant tensor:
#      x y z
#    x 3.736640 0.000000 0.000000 
#    y 0.000000 3.732690 0.000000 
#    z 0.000000 0.000000 3.898650 
# 
# 
# High freq. dielectric constant tensor:
#      x y z
#    x 1.819520 0.000000 0.000000 
#    y 0.000000 1.821340 0.000000 
#    z 0.000000 0.000000 1.833020 
# 
# From -- ./inp_files/6639.got.cif
#   From: 2010.03.12/outbox.cif.g09.slc.cpg/sg41_4_cif.got.tgz:6639.got - 2010.04.14 01:55:53.
