data_PCOD8185733
_publ_section_title
;
Structure prediction by ZEFSAII (Michael W. Deem and Ramdas Pophale) SiO2 
 PCOD8185733
Probable space group: A B A 2
;
_chemical_formula_sum "Si O2"
_cell_formula_units_Z 32
_cell_length_a 10.656895
_cell_length_b 13.569819
_cell_length_c 9.194769
_cell_angle_alpha 90.000000
_cell_angle_beta 90.000000
_cell_angle_gamma 90.000000
_cell_volume 1329.675187
_symmetry_space_group_name_H-M "A B A 2"
_symmetry_group_IT_number 41
_symmetry_cell_setting 'orthorhombic'
loop_
_space_group_symop_operation_xyz
x,y,z
-x,-y,z
1/2-x,y,1/2+z
1/2+x,-y,1/2+z
x,1/2+y,1/2+z
-x,1/2-y,1/2+z
1/2-x,1/2+y,z
1/2+x,1/2-y,z
loop_
_atom_site_type_symbol
_atom_site_label
_atom_site_fract_x
_atom_site_fract_y
_atom_site_fract_z
Si Si1 0.375326 0.754172 0.221310
Si Si2 0.730207 0.057896 0.085459
Si Si3 0.275651 0.073070 0.345979
Si Si4 0.976756 0.643326 0.503781
O O1 0.313719 0.828831 0.102514
O O2 0.285200 0.663491 0.260652
O O3 0.405872 0.803149 0.373389
O O4 0.499692 0.715853 0.140223
O O5 0.676250 0.002483 0.225092
O O6 0.882861 0.059185 0.065199
O O7 0.680446 0.993096 0.947106
O O8 0.390394 0.105475 0.446662
#
# Coordination Sequence:
#
# PCOD8185733 Si02
#       4
#     8   8   8   8
#     4  12  28  48  78 110 156 198 254 314 380 454
#     4  12  27  49  76 108 153 197 255 314 375 456
#     4  12  27  49  76 108 153 197 255 314 375 456
#     4  12  27  50  73 112 152 196 251 310 385 450
#
# _framework density 24.066026999999998
#
# number of rings (size 3 to 8) (size 9 to 14) (size 15 to 20)
#    0.000    0.000    5.000    3.750    7.000    0.000 
#    0.000    0.000    0.000    0.000    0.000    0.000 
#    0.000    0.000    0.000    0.000    0.000    0.000 
#
# Total GULP energy -198249.448717 kJ/mol
# GULP energy per Si atom -12390.590545 kJ/mol
# Density = 2.401125 g / cm^3
# Si number density = 24.066027 Si / 1000 Ang^3
#
#
#
# Elastic Constant Matrix: (Units=GPa)
#
#
# Indices 1 2 3 4 5 6 
#
# 1 49.5071 15.8738 1.1640 0.0000 0.0000 0.0000
# 2 15.8738 129.7972 24.0030 0.0000 0.0000 0.0000
# 3 1.1640 24.0030 79.4521 0.0000 0.0000 0.0000
# 4 0.0000 0.0000 0.0000 53.5473 0.0000 0.0000
# 5 0.0000 0.0000 0.0000 0.0000 44.2499 0.0000
# 6 0.0000 0.0000 0.0000 0.0000 0.0000 12.7221
#
#
#
# Elastic Compliance Matrix: (Units=1/GPa)
#
#
# Indices 1 2 3 4 5 6 
#
# 1 0.021042 -0.002665 0.000497 0.000000 0.000000 0.000000
# 2 -0.002665 0.008498 -0.002528 0.000000 0.000000 0.000000
# 3 0.000497 -0.002528 0.013343 0.000000 0.000000 0.000000
# 4 0.000000 0.000000 0.000000 0.018675 0.000000 0.000000
# 5 0.000000 0.000000 0.000000 0.000000 0.022599 0.000000
# 6 0.000000 0.000000 0.000000 0.000000 0.000000 0.078603
#
#
# Mechanical properties :
#
#
# Convention : Reuss Voigt Hill
#
# Bulk Modulus (GPa) = 29.86012 37.87087 33.86550
# Shear Modulus (GPa) = 27.27527 36.61822 31.94674
#
# Velocity S-wave (km/s) = 3.37018 3.90497 3.64739
# Velocity P-wave (km/s) = 5.25154 6.00850 5.64273
#
# Compressibility (1/GPa) = 0.03348948
#
# Stress axis : x y z
#
# Youngs Moduli (GPa) = 47.52391 117.67733 74.94727
#
# Poissons Ratio (x) = 0.31364 -0.03724
# Poissons Ratio (y) = 0.12666 0.18948
# Poissons Ratio (z) = -0.02362 0.29751
#
# Static dielectric constant tensor:
#      x y z
#    x 4.039040 0.000000 0.000000 
#    y 0.000000 4.867130 0.000000 
#    z 0.000000 0.000000 4.701200 
# 
# 
# High freq. dielectric constant tensor:
#      x y z
#    x 1.920420 0.000000 0.000000 
#    y 0.000000 1.985020 0.000000 
#    z 0.000000 0.000000 1.977680 
# 
# From -- ./inp_files/1897.got.cif
#   From: 2010.03.12/outbox.cif.g09.slc.cpg/sg41_1_cif.got.tgz:1897.got - 2010.04.14 01:55:53.
