data_PCOD8185382
_publ_section_title
;
Structure prediction by ZEFSAII (Michael W. Deem and Ramdas Pophale) SiO2 
 PCOD8185382
Probable space group: A B A 2
;
_chemical_formula_sum "Si O2"
_cell_formula_units_Z 64
_cell_length_a 11.234862
_cell_length_b 18.997427
_cell_length_c 13.788263
_cell_angle_alpha 90.000000
_cell_angle_beta 90.000000
_cell_angle_gamma 90.000000
_cell_volume 2942.876827
_symmetry_space_group_name_H-M "A B A 2"
_symmetry_group_IT_number 41
_symmetry_cell_setting 'orthorhombic'
loop_
_space_group_symop_operation_xyz
x,y,z
-x,-y,z
1/2-x,y,1/2+z
1/2+x,-y,1/2+z
x,1/2+y,1/2+z
-x,1/2-y,1/2+z
1/2-x,1/2+y,z
1/2+x,1/2-y,z
loop_
_atom_site_type_symbol
_atom_site_label
_atom_site_fract_x
_atom_site_fract_y
_atom_site_fract_z
Si Si1 0.766040 0.845897 0.382290
Si Si2 0.862636 0.698400 0.371164
Si Si3 0.936528 0.428530 0.650878
Si Si4 0.830490 0.937233 0.713688
Si Si5 0.403611 0.408397 0.699029
Si Si6 0.931110 0.303973 0.512145
Si Si7 0.838035 0.157238 0.509038
Si Si8 0.494043 0.579418 0.373343
O O1 0.811110 0.772942 0.332800
O O2 0.687583 0.891507 0.309395
O O3 0.696575 0.832538 0.480538
O O4 0.876118 0.890251 0.421367
O O5 0.864765 0.647240 0.279849
O O6 0.791549 0.674429 0.467683
O O7 0.994855 0.704258 0.413050
O O8 0.791266 0.433429 0.649717
O O9 0.980222 0.360440 0.589699
O O10 0.988006 0.414405 0.757420
O O11 0.000000 0.500000 0.610095
O O12 0.955248 0.907618 0.669366
O O13 0.856943 0.017871 0.741831
O O14 0.331209 0.395612 0.599473
O O15 0.910200 0.225009 0.552084
O O16 0.896214 0.123127 0.413579
O O17 0.500000 0.500000 0.409256
#
# Coordination Sequence:
#
# PCOD8185382 Si02
#       8
#     8   8   8   8   8   8   8   8
#     4  10  22  45  69  95 139 181 223 290 347 405
#     4  11  25  45  69 101 141 181 233 289 348 422
#     4  10  25  42  70 101 140 188 233 282 347 414
#     4  10  24  46  67 101 140 180 236 284 349 408
#     4  11  26  45  70 103 136 185 235 290 348 420
#     4  11  24  44  66 104 136 184 234 280 352 415
#     4  11  27  41  69 101 137 179 231 293 344 420
#     4  10  23  43  67  96 132 183 230 282 345 410
#
# _framework density 21.747427999999999
#
# number of rings (size 3 to 8) (size 9 to 14) (size 15 to 20)
#    0.000    1.500    2.500    0.000   14.000    1.000 
#    0.000    0.000    0.000    0.000    0.000    0.000 
#    0.000    0.000    0.000    0.000    0.000    0.000 
#
# Total GULP energy -396589.336606 kJ/mol
# GULP energy per Si atom -12393.416769 kJ/mol
# Density = 2.169793 g / cm^3
# Si number density = 21.747428 Si / 1000 Ang^3
#
#
#
# Elastic Constant Matrix: (Units=GPa)
#
#
# Indices 1 2 3 4 5 6 
#
# 1 64.8810 38.6495 24.8452 0.0000 0.0000 0.0000
# 2 38.6495 150.2122 50.7094 0.0000 0.0000 0.0000
# 3 24.8452 50.7094 75.3177 0.0000 0.0000 0.0000
# 4 0.0000 0.0000 0.0000 32.2403 0.0000 0.0000
# 5 0.0000 0.0000 0.0000 0.0000 26.7480 0.0000
# 6 0.0000 0.0000 0.0000 0.0000 0.0000 40.2572
#
#
#
# Elastic Compliance Matrix: (Units=1/GPa)
#
#
# Indices 1 2 3 4 5 6 
#
# 1 0.019031 -0.003594 -0.003858 0.000000 0.000000 0.000000
# 2 -0.003594 0.009294 -0.005072 0.000000 0.000000 0.000000
# 3 -0.003858 -0.005072 0.017964 0.000000 0.000000 0.000000
# 4 0.000000 0.000000 0.000000 0.031017 0.000000 0.000000
# 5 0.000000 0.000000 0.000000 0.000000 0.037386 0.000000
# 6 0.000000 0.000000 0.000000 0.000000 0.000000 0.024840
#
#
# Mechanical properties :
#
#
# Convention : Reuss Voigt Hill
#
# Bulk Modulus (GPa) = 47.07717 57.64657 52.36187
# Shear Modulus (GPa) = 29.12694 31.59622 30.36158
#
# Velocity S-wave (km/s) = 3.66365 3.81579 3.74050
# Velocity P-wave (km/s) = 6.29211 6.78075 6.54099
#
# Compressibility (1/GPa) = 0.02124172
#
# Stress axis : x y z
#
# Youngs Moduli (GPa) = 52.54489 107.59301 55.66537
#
# Poissons Ratio (x) = 0.38673 0.21475
# Poissons Ratio (y) = 0.18887 0.28233
# Poissons Ratio (z) = 0.20271 0.54570
#
# Static dielectric constant tensor:
#      x y z
#    x 4.131650 0.000000 0.000000 
#    y 0.000000 4.190660 0.000000 
#    z 0.000000 0.000000 3.470100 
# 
# 
# High freq. dielectric constant tensor:
#      x y z
#    x 1.864760 0.000000 0.000000 
#    y 0.000000 1.871800 0.000000 
#    z 0.000000 0.000000 1.830580 
# 
# From -- ./inp_files/8099.got.cif
#   From: 2010.03.12/outbox.cif.g09.slc.cpg/sg41_5_cif.got.tgz:8099.got - 2010.04.14 01:55:53.
