data_PCOD8185376
_publ_section_title
;
Structure prediction by ZEFSAII (Michael W. Deem and Ramdas Pophale) SiO2 
 PCOD8185376
Probable space group: A B A 2
;
_chemical_formula_sum "Si O2"
_cell_formula_units_Z 60
_cell_length_a 19.253504
_cell_length_b 16.743569
_cell_length_c 8.389679
_cell_angle_alpha 90.000000
_cell_angle_beta 90.000000
_cell_angle_gamma 90.000000
_cell_volume 2704.600726
_symmetry_space_group_name_H-M "A B A 2"
_symmetry_group_IT_number 41
_symmetry_cell_setting 'orthorhombic'
loop_
_space_group_symop_operation_xyz
x,y,z
-x,-y,z
1/2-x,y,1/2+z
1/2+x,-y,1/2+z
x,1/2+y,1/2+z
-x,1/2-y,1/2+z
1/2-x,1/2+y,z
1/2+x,1/2-y,z
loop_
_atom_site_type_symbol
_atom_site_label
_atom_site_fract_x
_atom_site_fract_y
_atom_site_fract_z
Si Si1 0.153323 0.495503 0.652500
Si Si2 0.878263 0.594601 0.157866
Si Si3 0.711178 0.470422 0.493268
Si Si4 0.903388 0.652000 0.509464
Si Si5 0.813144 0.794093 0.433200
Si Si6 0.441906 0.609198 0.990595
Si Si7 0.166450 0.236130 0.064040
Si Si8 0.500000 0.500000 0.722802
O O1 0.205750 0.527827 0.515100
O O2 0.190109 0.501153 0.820259
O O3 0.134195 0.402062 0.641531
O O4 0.083749 0.549148 0.631203
O O5 0.881736 0.610515 0.344922
O O6 0.867220 0.676222 0.063102
O O7 0.951624 0.553843 0.108121
O O8 0.818060 0.530873 0.125234
O O9 0.682519 0.380671 0.515164
O O10 0.874158 0.741915 0.514361
O O11 0.985912 0.651924 0.539085
O O12 0.822609 0.798692 0.242313
O O13 0.738491 0.755459 0.469947
O O14 0.385402 0.679030 0.966048
O O15 0.451306 0.557079 0.831157
#
# Coordination Sequence:
#
# PCOD8185376 Si02
#       8
#     8   8   8   8   8   8   8   4
#     4  12  22  41  66  97 125 172 219 267 328 387
#     4  10  23  43  63  97 128 171 218 270 329 393
#     4  12  24  39  68  96 131 168 220 278 321 391
#     4  10  23  43  70  90 131 173 220 264 337 395
#     4  11  23  42  63  98 130 170 216 276 319 393
#     4  11  20  41  71  90 125 178 218 260 332 396
#     4  11  24  42  66  95 135 171 220 270 330 393
#     4  10  22  44  72  92 128 180 218 272 330 410
#
# _framework density 22.184421
#
# number of rings (size 3 to 8) (size 9 to 14) (size 15 to 20)
#    0.000    1.067    5.333    1.600    0.000    5.333 
#    2.400    6.667    0.000    0.000    0.000    0.000 
#    0.000    0.000    0.000    0.000    0.000    0.000 
#
# Total GULP energy -372002.115761 kJ/mol
# GULP energy per Si atom -12400.070525 kJ/mol
# Density = 2.213393 g / cm^3
# Si number density = 22.184421 Si / 1000 Ang^3
#
#
#
# Elastic Constant Matrix: (Units=GPa)
#
#
# Indices 1 2 3 4 5 6 
#
# 1 120.6420 44.8223 38.2885 0.0000 0.0000 0.0000
# 2 44.8223 121.8088 14.2596 0.0000 0.0000 0.0000
# 3 38.2885 14.2596 44.2784 0.0000 0.0000 0.0000
# 4 0.0000 0.0000 0.0000 23.9139 0.0000 0.0000
# 5 0.0000 0.0000 0.0000 0.0000 29.0368 0.0000
# 6 0.0000 0.0000 0.0000 0.0000 0.0000 51.8584
#
#
#
# Elastic Compliance Matrix: (Units=1/GPa)
#
#
# Indices 1 2 3 4 5 6 
#
# 1 0.012735 -0.003530 -0.009875 0.000000 0.000000 0.000000
# 2 -0.003530 0.009510 -0.000010 0.000000 0.000000 0.000000
# 3 -0.009875 -0.000010 0.031127 0.000000 0.000000 0.000000
# 4 0.000000 0.000000 0.000000 0.041817 0.000000 0.000000
# 5 0.000000 0.000000 0.000000 0.000000 0.034439 0.000000
# 6 0.000000 0.000000 0.000000 0.000000 0.000000 0.019283
#
#
# Mechanical properties :
#
#
# Convention : Reuss Voigt Hill
#
# Bulk Modulus (GPa) = 37.67782 53.49668 45.58725
# Shear Modulus (GPa) = 27.08748 33.58575 30.33662
#
# Velocity S-wave (km/s) = 3.49809 3.89515 3.70195
# Velocity P-wave (km/s) = 5.77376 6.66307 6.23429
#
# Compressibility (1/GPa) = 0.02654081
#
# Stress axis : x y z
#
# Youngs Moduli (GPa) = 78.52666 105.15588 32.12666
#
# Poissons Ratio (x) = 0.37119 0.31725
# Poissons Ratio (y) = 0.27719 0.00033
# Poissons Ratio (z) = 0.77545 0.00107
#
# Static dielectric constant tensor:
#      x y z
#    x 4.296550 0.000000 0.000000 
#    y 0.000000 4.258900 0.000000 
#    z 0.000000 0.000000 3.639520 
# 
# 
# High freq. dielectric constant tensor:
#      x y z
#    x 1.881930 0.000000 0.000000 
#    y 0.000000 1.890680 0.000000 
#    z 0.000000 0.000000 1.841530 
# 
# From -- ./inp_files/3172.got.cif
#   From: 2010.03.12/outbox.cif.g09.slc.cpg/sg41_2_cif.got.tgz:3172.got - 2010.04.14 01:55:53.
