data_PCOD8185741
_publ_section_title
;
Structure prediction by ZEFSAII (Michael W. Deem and Ramdas Pophale) SiO2 
 PCOD8185741
Probable space group: F M M 2
;
_chemical_formula_sum "Si O2"
_cell_formula_units_Z 104
_cell_length_a 18.280480
_cell_length_b 12.062739
_cell_length_c 24.715776
_cell_angle_alpha 90.000000
_cell_angle_beta 90.000000
_cell_angle_gamma 90.000000
_cell_volume 5450.141486
_symmetry_space_group_name_H-M "F M M 2"
_symmetry_group_IT_number 42
_symmetry_cell_setting 'orthorhombic'
loop_
_space_group_symop_operation_xyz
x,y,z
-x,-y,z
-x,y,z
x,-y,z
x,1/2+y,1/2+z
-x,1/2-y,1/2+z
-x,1/2+y,1/2+z
x,1/2-y,1/2+z
1/2+x,y,1/2+z
1/2-x,-y,1/2+z
1/2-x,y,1/2+z
1/2+x,-y,1/2+z
1/2+x,1/2+y,z
1/2-x,1/2-y,z
1/2-x,1/2+y,z
1/2+x,1/2-y,z
loop_
_atom_site_type_symbol
_atom_site_label
_atom_site_fract_x
_atom_site_fract_y
_atom_site_fract_z
Si Si1 0.079055 0.000000 0.907260
Si Si2 0.610848 0.500000 0.024854
Si Si3 0.412961 0.712460 0.851774
Si Si4 0.416833 0.000000 0.644369
Si Si5 0.168758 0.735866 0.526800
Si Si6 0.413542 0.872560 0.238385
Si Si7 0.086923 0.623940 0.939612
Si Si8 0.665260 0.767169 0.650688
O O1 0.120282 0.889748 0.886969
O O2 0.000000 0.000000 0.877716
O O3 0.061877 0.000000 0.971164
O O4 0.565254 0.500000 0.080323
O O5 0.661827 0.605415 0.022218
O O6 0.500000 0.711279 0.853579
O O7 0.385697 0.700122 0.790018
O O8 0.385655 0.823678 0.882286
O O9 0.368266 0.108498 0.660559
O O10 0.500000 0.000000 0.670895
O O11 0.250000 0.750000 0.505329
O O12 0.112832 0.804853 0.490636
O O13 0.156547 0.772022 0.588850
O O14 0.500000 0.866510 0.233267
O O15 0.380480 0.820420 0.184816
O O16 0.387874 0.000000 0.245177
O O17 0.119050 0.500000 0.942876
O O18 0.000000 0.623156 0.942395
O O19 0.750000 0.750000 0.667981
#
# Coordination Sequence:
#
# PCOD8185741 Si02
#       8
#     8   8  16   8  16  16  16  16
#     4  10  15  26  53  83 105 131 171 231 289 327
#     4  10  19  32  56  82 105 152 193 231 290 341
#     4   9  17  32  54  82 113 142 182 233 288 341
#     4  10  21  38  59  89 120 149 202 256 293 354
#     4  10  22  37  55  81 114 152 190 235 284 348
#     4  10  20  36  61  88 111 143 195 250 292 341
#     4  10  21  36  56  85 119 153 186 229 287 352
#     4  10  23  40  59  82 117 160 196 239 304 360
#
# _framework density 19.082073999999999
#
# number of rings (size 3 to 8) (size 9 to 14) (size 15 to 20)
#    0.000    2.154    2.308    0.692    2.154    3.692 
#    1.385    2.308    0.000    1.846    0.000    0.000 
#    0.000    0.000    0.000    0.000    0.000    0.000 
#
# Total GULP energy -322128.846465 kJ/mol
# GULP energy per Si atom -12389.571018 kJ/mol
# Density = 1.903864 g / cm^3
# Si number density = 19.082074 Si / 1000 Ang^3
#
#
#
# Elastic Constant Matrix: (Units=GPa)
#
#
# Indices 1 2 3 4 5 6 
#
# 1 57.5275 42.5624 19.9995 0.0000 0.0000 0.0000
# 2 42.5624 137.6786 52.3176 0.0000 0.0000 0.0000
# 3 19.9995 52.3176 100.3865 0.0000 0.0000 0.0000
# 4 0.0000 0.0000 0.0000 28.8756 0.0000 0.0000
# 5 0.0000 0.0000 0.0000 0.0000 2.2281 0.0000
# 6 0.0000 0.0000 0.0000 0.0000 0.0000 16.3743
#
#
#
# Elastic Compliance Matrix: (Units=1/GPa)
#
#
# Indices 1 2 3 4 5 6 
#
# 1 0.022631 -0.006587 -0.001075 0.000000 0.000000 0.000000
# 2 -0.006587 0.010974 -0.004407 0.000000 0.000000 0.000000
# 3 -0.001075 -0.004407 0.012473 0.000000 0.000000 0.000000
# 4 0.000000 0.000000 0.000000 0.034631 0.000000 0.000000
# 5 0.000000 0.000000 0.000000 0.000000 0.448814 0.000000
# 6 0.000000 0.000000 0.000000 0.000000 0.000000 0.061071
#
#
# Mechanical properties :
#
#
# Convention : Reuss Voigt Hill
#
# Bulk Modulus (GPa) = 45.58362 58.37241 51.97802
# Shear Modulus (GPa) = 8.03798 21.54314 14.79056
#
# Velocity S-wave (km/s) = 2.05462 3.36366 2.78709
# Velocity P-wave (km/s) = 5.43771 6.76330 6.13640
#
# Compressibility (1/GPa) = 0.02193770
#
# Stress axis : x y z
#
# Youngs Moduli (GPa) = 44.18775 91.12084 80.17603
#
# Poissons Ratio (x) = 0.60025 0.08623
# Poissons Ratio (y) = 0.29108 0.35334
# Poissons Ratio (z) = 0.04752 0.40158
#
# Static dielectric constant tensor:
#      x y z
#    x 3.195000 0.000000 0.000000 
#    y 0.000000 3.792010 0.000000 
#    z 0.000000 0.000000 3.608310 
# 
# 
# High freq. dielectric constant tensor:
#      x y z
#    x 1.710910 0.000000 0.000000 
#    y 0.000000 1.750580 0.000000 
#    z 0.000000 0.000000 1.742800 
# 
# From -- ./inp_files/32216.got.cif
#   From: 2010.03.12/outbox.cif.g09.slc.cpg/sg42_17_cif.got.tgz:32216.got - 2010.04.14 02:04:31.
