data_PCOD8185126
_publ_section_title
;
Structure prediction by ZEFSAII (Michael W. Deem and Ramdas Pophale) SiO2 
 PCOD8185126
Probable space group: A B A 2
;
_chemical_formula_sum "Si O2"
_cell_formula_units_Z 48
_cell_length_a 8.744828
_cell_length_b 15.125064
_cell_length_c 16.908264
_cell_angle_alpha 90.000000
_cell_angle_beta 90.000000
_cell_angle_gamma 90.000000
_cell_volume 2236.389852
_symmetry_space_group_name_H-M "A B A 2"
_symmetry_group_IT_number 41
_symmetry_cell_setting 'orthorhombic'
loop_
_space_group_symop_operation_xyz
x,y,z
-x,-y,z
1/2-x,y,1/2+z
1/2+x,-y,1/2+z
x,1/2+y,1/2+z
-x,1/2-y,1/2+z
1/2-x,1/2+y,z
1/2+x,1/2-y,z
loop_
_atom_site_type_symbol
_atom_site_label
_atom_site_fract_x
_atom_site_fract_y
_atom_site_fract_z
Si Si1 0.360098 0.177960 0.547620
Si Si2 0.574889 0.806487 0.369437
Si Si3 0.331760 0.032966 0.284055
Si Si4 0.673559 0.481158 0.602201
Si Si5 0.252308 0.345483 0.299063
Si Si6 0.321739 0.334662 0.118939
O O1 0.441662 0.181461 0.462701
O O2 0.247886 0.093829 0.547941
O O3 0.258723 0.264171 0.562114
O O4 0.494725 0.171267 0.612345
O O5 0.698653 0.877511 0.333952
O O6 0.628598 0.706497 0.353290
O O7 0.416653 0.819819 0.325255
O O8 0.319764 0.055339 0.191583
O O9 0.500000 0.000000 0.305743
O O10 0.218329 0.951633 0.307028
O O11 0.500000 0.500000 0.575820
O O12 0.771334 0.569044 0.590436
O O13 0.271991 0.315943 0.208417
#
# Coordination Sequence:
#
# PCOD8185126 Si02
#       6
#     8   8   8   8   8   8
#     4  12  24  38  61  93 127 161 204 259 315 366
#     4  11  22  38  60  88 120 156 195 250 309 359
#     4   8  18  37  60  82 111 153 195 238 294 360
#     4  10  21  40  64  90 121 160 206 252 303 368
#     4  10  21  39  61  83 115 160 204 244 296 364
#     4  11  23  40  62  88 121 164 208 253 304 373
#
# _framework density 21.463162000000001
#
# number of rings (size 3 to 8) (size 9 to 14) (size 15 to 20)
#    0.000    1.667    0.000    5.500    0.000    5.333 
#    0.000    2.500    0.000    0.000    0.000    0.000 
#    0.000    0.000    0.000    0.000    0.000    0.000 
#
# Total GULP energy -297645.234994 kJ/mol
# GULP energy per Si atom -12401.884791 kJ/mol
# Density = 2.141431 g / cm^3
# Si number density = 21.463162 Si / 1000 Ang^3
#
#
#
# Elastic Constant Matrix: (Units=GPa)
#
#
# Indices 1 2 3 4 5 6 
#
# 1 83.0829 10.4435 37.5165 0.0000 0.0000 0.0000
# 2 10.4435 52.6600 39.4330 0.0000 0.0000 0.0000
# 3 37.5165 39.4330 101.1231 0.0000 0.0000 0.0000
# 4 0.0000 0.0000 0.0000 12.0707 0.0000 0.0000
# 5 0.0000 0.0000 0.0000 0.0000 24.3413 0.0000
# 6 0.0000 0.0000 0.0000 0.0000 0.0000 30.0268
#
#
#
# Elastic Compliance Matrix: (Units=1/GPa)
#
#
# Indices 1 2 3 4 5 6 
#
# 1 0.014557 0.001634 -0.006038 0.000000 0.000000 0.000000
# 2 0.001634 0.027005 -0.011137 0.000000 0.000000 0.000000
# 3 -0.006038 -0.011137 0.016472 0.000000 0.000000 0.000000
# 4 0.000000 0.000000 0.000000 0.082846 0.000000 0.000000
# 5 0.000000 0.000000 0.000000 0.000000 0.041083 0.000000
# 6 0.000000 0.000000 0.000000 0.000000 0.000000 0.033304
#
#
# Mechanical properties :
#
#
# Convention : Reuss Voigt Hill
#
# Bulk Modulus (GPa) = 37.10148 45.73911 41.42030
# Shear Modulus (GPa) = 19.58233 23.25260 21.41747
#
# Velocity S-wave (km/s) = 3.02382 3.29503 3.16234
# Velocity P-wave (km/s) = 5.43277 5.98608 5.71612
#
# Compressibility (1/GPa) = 0.02695310
#
# Stress axis : x y z
#
# Youngs Moduli (GPa) = 68.69433 37.02966 60.70904
#
# Poissons Ratio (x) = -0.06052 0.36657
# Poissons Ratio (y) = -0.11228 0.67613
# Poissons Ratio (z) = 0.41478 0.41241
#
# Static dielectric constant tensor:
#      x y z
#    x 3.775300 0.000000 0.000000 
#    y 0.000000 4.392720 0.000000 
#    z 0.000000 0.000000 3.696990 
# 
# 
# High freq. dielectric constant tensor:
#      x y z
#    x 1.829850 0.000000 0.000000 
#    y 0.000000 1.859440 0.000000 
#    z 0.000000 0.000000 1.830930 
# 
# From -- ./inp_files/7309.got.cif
#   From: 2010.03.12/outbox.cif.g09.slc.cpg/sg41_4_cif.got.tgz:7309.got - 2010.04.14 01:55:53.
