data_PCOD8185807
_publ_section_title
;
Structure prediction by ZEFSAII (Michael W. Deem and Ramdas Pophale) SiO2 
 PCOD8185807
Probable space group: F M M 2
;
_chemical_formula_sum "Si O2"
_cell_formula_units_Z 128
_cell_length_a 18.822467
_cell_length_b 16.815212
_cell_length_c 26.319563
_cell_angle_alpha 90.000000
_cell_angle_beta 90.000000
_cell_angle_gamma 90.000000
_cell_volume 8330.240992
_symmetry_space_group_name_H-M "F M M 2"
_symmetry_group_IT_number 42
_symmetry_cell_setting 'orthorhombic'
loop_
_space_group_symop_operation_xyz
x,y,z
-x,-y,z
-x,y,z
x,-y,z
x,1/2+y,1/2+z
-x,1/2-y,1/2+z
-x,1/2+y,1/2+z
x,1/2-y,1/2+z
1/2+x,y,1/2+z
1/2-x,-y,1/2+z
1/2-x,y,1/2+z
1/2+x,-y,1/2+z
1/2+x,1/2+y,z
1/2-x,1/2-y,z
1/2-x,1/2+y,z
1/2+x,1/2-y,z
loop_
_atom_site_type_symbol
_atom_site_label
_atom_site_fract_x
_atom_site_fract_y
_atom_site_fract_z
Si Si1 0.921255 0.300549 0.416740
Si Si2 0.078235 0.824741 0.325757
Si Si3 0.082770 0.593357 0.048802
Si Si4 0.305003 0.589292 0.382610
Si Si5 0.349822 0.088634 0.345591
Si Si6 0.083052 0.686526 0.258408
Si Si7 0.083370 0.587628 0.164371
Si Si8 0.680045 0.798312 0.978465
O O1 0.921912 0.240685 0.369705
O O2 0.886240 0.381578 0.397355
O O3 0.877176 0.268127 0.464106
O O4 0.000000 0.317585 0.436951
O O5 0.133454 0.892268 0.341554
O O6 0.097518 0.779833 0.272170
O O7 0.000000 0.863940 0.321357
O O8 0.092316 0.500000 0.036108
O O9 0.102901 0.611301 0.107058
O O10 0.000000 0.617271 0.036684
O O11 0.141385 0.644136 0.018543
O O12 0.316977 0.500000 0.403719
O O13 0.234226 0.596259 0.350295
O O14 0.300031 0.650082 0.429168
O O15 0.370483 0.134935 0.295766
O O16 0.376319 0.000000 0.337876
O O17 0.108025 0.659213 0.201982
O O18 0.000000 0.668231 0.267492
O O19 0.116413 0.500000 0.178085
O O20 0.000000 0.578154 0.168502
O O21 0.750000 0.750000 0.998781
#
# Coordination Sequence:
#
# PCOD8185807 Si02
#       8
#    16  16  16  16  16  16  16  16
#     4   9  17  28  41  61  85 113 150 186 217 259
#     4   8  16  28  43  62  87 116 147 183 223 266
#     4   9  18  32  51  73  94 117 151 197 242 284
#     4  10  20  31  43  62  88 120 158 190 222 268
#     4  10  18  27  40  61  88 120 151 180 220 267
#     4   9  16  26  44  68  92 118 146 177 221 276
#     4   8  14  26  45  70  95 116 143 185 235 280
#     4  11  19  31  47  63  89 127 155 189 232 279
#
# _framework density 15.365703
#
# number of rings (size 3 to 8) (size 9 to 14) (size 15 to 20)
#    0.000    2.750    1.250    3.000    0.000    2.250 
#    0.000    0.000    2.750    0.000    0.000    0.000 
#    0.000    1.000    0.000    6.625    0.000    0.000 
#
# Total GULP energy -396457.241608 kJ/mol
# GULP energy per Si atom -12389.288800 kJ/mol
# Density = 1.533073 g / cm^3
# Si number density = 15.365703 Si / 1000 Ang^3
#
#
#
# Elastic Constant Matrix: (Units=GPa)
#
#
# Indices 1 2 3 4 5 6 
#
# 1 84.6733 42.9898 27.7469 0.0000 0.0000 0.0000
# 2 42.9898 51.7585 27.4513 0.0000 0.0000 0.0000
# 3 27.7469 27.4513 69.9593 0.0000 0.0000 0.0000
# 4 0.0000 0.0000 0.0000 19.5057 0.0000 0.0000
# 5 0.0000 0.0000 0.0000 0.0000 12.0915 0.0000
# 6 0.0000 0.0000 0.0000 0.0000 0.0000 20.9199
#
#
#
# Elastic Compliance Matrix: (Units=1/GPa)
#
#
# Indices 1 2 3 4 5 6 
#
# 1 0.020608 -0.016141 -0.001840 0.000000 0.000000 0.000000
# 2 -0.016141 0.037040 -0.008132 0.000000 0.000000 0.000000
# 3 -0.001840 -0.008132 0.018215 0.000000 0.000000 0.000000
# 4 0.000000 0.000000 0.000000 0.051267 0.000000 0.000000
# 5 0.000000 0.000000 0.000000 0.000000 0.082703 0.000000
# 6 0.000000 0.000000 0.000000 0.000000 0.000000 0.047801
#
#
# Mechanical properties :
#
#
# Convention : Reuss Voigt Hill
#
# Bulk Modulus (GPa) = 42.30746 44.75189 43.52968
# Shear Modulus (GPa) = 15.73619 17.71696 16.72657
#
# Velocity S-wave (km/s) = 3.20365 3.39930 3.30292
# Velocity P-wave (km/s) = 6.42479 6.67793 6.55258
#
# Compressibility (1/GPa) = 0.02363649
#
# Stress axis : x y z
#
# Youngs Moduli (GPa) = 48.52509 26.99789 54.90025
#
# Poissons Ratio (x) = 0.43577 0.10101
# Poissons Ratio (y) = 0.78323 0.44647
# Poissons Ratio (z) = 0.08928 0.21956
#
# Static dielectric constant tensor:
#      x y z
#    x 2.989950 0.000000 0.000000 
#    y 0.000000 3.065430 0.000000 
#    z 0.000000 0.000000 2.957150 
# 
# 
# High freq. dielectric constant tensor:
#      x y z
#    x 1.584480 0.000000 0.000000 
#    y 0.000000 1.579340 0.000000 
#    z 0.000000 0.000000 1.562690 
# 
# From -- ./inp_files/29990.got.cif
#   From: 2010.03.12/outbox.cif.g09.slc.cpg/sg42_15_cif.got.tgz:29990.got - 2010.04.14 02:04:31.
