data_PCOD8185201
_publ_section_title
;
Structure prediction by ZEFSAII (Michael W. Deem and Ramdas Pophale) SiO2 
 PCOD8185201
Probable space group: A B A 2
;
_chemical_formula_sum "Si O2"
_cell_formula_units_Z 40
_cell_length_a 18.602984
_cell_length_b 10.660563
_cell_length_c 8.768742
_cell_angle_alpha 90.000000
_cell_angle_beta 90.000000
_cell_angle_gamma 90.000000
_cell_volume 1739.001857
_symmetry_space_group_name_H-M "A B A 2"
_symmetry_group_IT_number 41
_symmetry_cell_setting 'orthorhombic'
loop_
_space_group_symop_operation_xyz
x,y,z
-x,-y,z
1/2-x,y,1/2+z
1/2+x,-y,1/2+z
x,1/2+y,1/2+z
-x,1/2-y,1/2+z
1/2-x,1/2+y,z
1/2+x,1/2-y,z
loop_
_atom_site_type_symbol
_atom_site_label
_atom_site_fract_x
_atom_site_fract_y
_atom_site_fract_z
Si Si1 0.917963 0.030364 0.313790
Si Si2 0.292482 0.081846 0.939252
Si Si3 0.081033 0.003160 0.975494
Si Si4 0.165900 0.253158 0.989744
Si Si5 0.805915 0.563245 0.239305
O O1 0.870956 0.905355 0.359829
O O2 0.882723 0.144421 0.405606
O O3 0.912339 0.069728 0.136525
O O4 0.000000 0.000000 0.360627
O O5 0.259461 0.954337 0.858995
O O6 0.239013 0.199268 0.907988
O O7 0.300607 0.052805 0.119061
O O8 0.121737 0.937930 0.837513
O O9 0.110908 0.140249 0.013128
O O10 0.000000 0.000000 0.918574
O O11 0.194441 0.304961 0.151642
#
# Coordination Sequence:
#
# PCOD8185201 Si02
#       5
#     8   8   8   8   8
#     4  10  23  45  69 100 137 174 224 274 331 409
#     4  10  21  41  66  98 130 168 225 271 322 400
#     4  10  23  43  65  99 137 174 227 274 328 407
#     4  10  23  44  68  95 134 179 215 278 342 379
#     4  10  22  39  65  96 129 171 223 271 326 397
#
# _framework density 23.0017
#
# number of rings (size 3 to 8) (size 9 to 14) (size 15 to 20)
#    0.000    2.000    0.000    2.400    0.000   16.000 
#    0.000   30.000    0.000    0.000    0.000    0.000 
#    0.000    0.000    0.000    0.000    0.000    0.000 
#
# Total GULP energy -247788.322182 kJ/mol
# GULP energy per Si atom -12389.416109 kJ/mol
# Density = 2.294935 g / cm^3
# Si number density = 23.001700 Si / 1000 Ang^3
#
#
#
# Elastic Constant Matrix: (Units=GPa)
#
#
# Indices 1 2 3 4 5 6 
#
# 1 206.9993 49.8941 70.1092 0.0000 0.0000 0.0000
# 2 49.8941 91.9597 12.1103 0.0000 0.0000 0.0000
# 3 70.1092 12.1103 110.7789 0.0000 0.0000 0.0000
# 4 0.0000 0.0000 0.0000 21.0475 0.0000 0.0000
# 5 0.0000 0.0000 0.0000 0.0000 47.2584 0.0000
# 6 0.0000 0.0000 0.0000 0.0000 0.0000 33.1034
#
#
#
# Elastic Compliance Matrix: (Units=1/GPa)
#
#
# Indices 1 2 3 4 5 6 
#
# 1 0.006995 -0.003259 -0.004071 0.000000 0.000000 0.000000
# 2 -0.003259 0.012552 0.000691 0.000000 0.000000 0.000000
# 3 -0.004071 0.000691 0.011528 0.000000 0.000000 0.000000
# 4 0.000000 0.000000 0.000000 0.047512 0.000000 0.000000
# 5 0.000000 0.000000 0.000000 0.000000 0.021160 0.000000
# 6 0.000000 0.000000 0.000000 0.000000 0.000000 0.030208
#
#
# Mechanical properties :
#
#
# Convention : Reuss Voigt Hill
#
# Bulk Modulus (GPa) = 56.19317 74.88499 65.53908
# Shear Modulus (GPa) = 33.51967 38.79015 36.15491
#
# Velocity S-wave (km/s) = 3.82156 4.11104 3.96894
# Velocity P-wave (km/s) = 6.62989 7.42706 7.03977
#
# Compressibility (1/GPa) = 0.01779576
#
# Stress axis : x y z
#
# Youngs Moduli (GPa) = 142.95289 79.66999 86.74657
#
# Poissons Ratio (x) = 0.25967 0.35313
# Poissons Ratio (y) = 0.46593 -0.05991
# Poissons Ratio (z) = 0.58194 -0.05502
#
# Static dielectric constant tensor:
#      x y z
#    x 4.448950 0.000000 0.000000 
#    y 0.000000 4.296080 0.000000 
#    z 0.000000 0.000000 4.187110 
# 
# 
# High freq. dielectric constant tensor:
#      x y z
#    x 1.920380 0.000000 0.000000 
#    y 0.000000 1.889090 0.000000 
#    z 0.000000 0.000000 1.923820 
# 
# From -- ./inp_files/2912.got.cif
#   From: 2010.03.12/outbox.cif.g09.slc.cpg/sg41_2_cif.got.tgz:2912.got - 2010.04.14 01:55:53.
