data_PCOD8185791
_publ_section_title
;
Structure prediction by ZEFSAII (Michael W. Deem and Ramdas Pophale) SiO2 
 PCOD8185791
Probable space group: F M M 2
;
_chemical_formula_sum "Si O2"
_cell_formula_units_Z 92
_cell_length_a 7.542621
_cell_length_b 24.891354
_cell_length_c 27.152370
_cell_angle_alpha 90.000000
_cell_angle_beta 90.000000
_cell_angle_gamma 90.000000
_cell_volume 5097.750199
_symmetry_space_group_name_H-M "F M M 2"
_symmetry_group_IT_number 42
_symmetry_cell_setting 'orthorhombic'
loop_
_space_group_symop_operation_xyz
x,y,z
-x,-y,z
-x,y,z
x,-y,z
x,1/2+y,1/2+z
-x,1/2-y,1/2+z
-x,1/2+y,1/2+z
x,1/2-y,1/2+z
1/2+x,y,1/2+z
1/2-x,-y,1/2+z
1/2-x,y,1/2+z
1/2+x,-y,1/2+z
1/2+x,1/2+y,z
1/2-x,1/2-y,z
1/2-x,1/2+y,z
1/2+x,1/2-y,z
loop_
_atom_site_type_symbol
_atom_site_label
_atom_site_fract_x
_atom_site_fract_y
_atom_site_fract_z
Si Si1 0.000000 0.562906 0.769728
Si Si2 0.204732 0.691097 0.010929
Si Si3 0.791326 0.310720 0.123310
Si Si4 0.701475 0.437031 0.845885
Si Si5 0.800161 0.905793 0.949442
Si Si6 0.500000 0.500000 0.105479
Si Si7 0.000000 0.111560 0.164425
Si Si8 0.198803 0.000000 0.011798
O O1 0.824149 0.578525 0.799982
O O2 0.000000 0.500000 0.755531
O O3 0.000000 0.599799 0.721953
O O4 0.250000 0.750000 0.991963
O O5 0.272634 0.683555 0.066721
O O6 0.000000 0.678184 0.008132
O O7 0.301924 0.652782 0.972807
O O8 0.750000 0.250000 0.141487
O O9 0.676684 0.354161 0.153047
O O10 0.000000 0.323122 0.130080
O O11 0.500000 0.418878 0.833328
O O12 0.711700 0.500000 0.856632
O O13 0.784471 0.408211 0.894809
O O14 0.000000 0.923948 0.939793
O O15 0.707563 0.946702 0.989081
O O16 0.500000 0.554411 0.136647
O O17 0.681348 0.500000 0.071672
O O18 0.000000 0.000000 0.991049
#
# Coordination Sequence:
#
# PCOD8185791 Si02
#       8
#     8  16  16  16  16   4   8   8
#     4  10  22  38  56  85 112 147 197 232 292 350
#     4  10  21  33  50  80 114 149 186 228 274 335
#     4  10  21  38  60  89 115 151 203 245 285 343
#     4   9  18  34  56  80 112 145 191 242 276 332
#     4  10  17  30  53  81 109 150 188 220 275 331
#     4  10  20  32  52  90 126 166 188 226 294 362
#     4  12  22  38  64  83 121 159 192 245 301 350
#     4   8  16  28  48  79 109 149 182 211 263 337
#
# _framework density 18.047176
#
# number of rings (size 3 to 8) (size 9 to 14) (size 15 to 20)
#    0.261    1.913    2.174    1.565    3.652    0.696 
#    0.000    0.870    0.000    4.174    0.000    0.000 
#    0.000    0.000    0.000    0.000    0.000    0.000 
#
# Total GULP energy -285006.824098 kJ/mol
# GULP energy per Si atom -12391.601048 kJ/mol
# Density = 1.800610 g / cm^3
# Si number density = 18.047176 Si / 1000 Ang^3
#
#
#
# Elastic Constant Matrix: (Units=GPa)
#
#
# Indices 1 2 3 4 5 6 
#
# 1 79.5691 32.5179 41.9785 0.0000 0.0000 0.0000
# 2 32.5179 119.5423 72.5859 0.0000 0.0000 0.0000
# 3 41.9785 72.5859 132.3155 0.0000 0.0000 0.0000
# 4 0.0000 0.0000 0.0000 27.8915 0.0000 0.0000
# 5 0.0000 0.0000 0.0000 0.0000 18.9142 0.0000
# 6 0.0000 0.0000 0.0000 0.0000 0.0000 22.1266
#
#
#
# Elastic Compliance Matrix: (Units=1/GPa)
#
#
# Indices 1 2 3 4 5 6 
#
# 1 0.015356 -0.001828 -0.003869 0.000000 0.000000 0.000000
# 2 -0.001828 0.012761 -0.006421 0.000000 0.000000 0.000000
# 3 -0.003869 -0.006421 0.012307 0.000000 0.000000 0.000000
# 4 0.000000 0.000000 0.000000 0.035853 0.000000 0.000000
# 5 0.000000 0.000000 0.000000 0.000000 0.052870 0.000000
# 6 0.000000 0.000000 0.000000 0.000000 0.000000 0.045194
#
#
# Mechanical properties :
#
#
# Convention : Reuss Voigt Hill
#
# Bulk Modulus (GPa) = 61.76895 69.51016 65.63956
# Shear Modulus (GPa) = 24.51298 26.07612 25.29455
#
# Velocity S-wave (km/s) = 3.68947 3.80529 3.74783
# Velocity P-wave (km/s) = 7.24226 7.60963 7.42821
#
# Compressibility (1/GPa) = 0.01618936
#
# Stress axis : x y z
#
# Youngs Moduli (GPa) = 65.12147 78.36378 81.25172
#
# Poissons Ratio (x) = 0.14323 0.31437
# Poissons Ratio (y) = 0.11903 0.52168
# Poissons Ratio (z) = 0.25196 0.50314
#
# Static dielectric constant tensor:
#      x y z
#    x 3.316890 0.000000 0.000000 
#    y 0.000000 3.214570 0.000000 
#    z 0.000000 0.000000 3.204260 
# 
# 
# High freq. dielectric constant tensor:
#      x y z
#    x 1.693890 0.000000 0.000000 
#    y 0.000000 1.689500 0.000000 
#    z 0.000000 0.000000 1.681500 
# 
# From -- ./inp_files/31499.got.cif
#   From: 2010.03.12/outbox.cif.g09.slc.cpg/sg42_16_cif.got.tgz:31499.got - 2010.04.14 02:04:31.
