data_PCOD8185771
_publ_section_title
;
Structure prediction by ZEFSAII (Michael W. Deem and Ramdas Pophale) SiO2 
 PCOD8185771
Probable space group: F M M 2
;
_chemical_formula_sum "Si O2"
_cell_formula_units_Z 80
_cell_length_a 26.419157
_cell_length_b 8.598065
_cell_length_c 18.755631
_cell_angle_alpha 90.000000
_cell_angle_beta 90.000000
_cell_angle_gamma 90.000000
_cell_volume 4260.409648
_symmetry_space_group_name_H-M "F M M 2"
_symmetry_group_IT_number 42
_symmetry_cell_setting 'orthorhombic'
loop_
_space_group_symop_operation_xyz
x,y,z
-x,-y,z
-x,y,z
x,-y,z
x,1/2+y,1/2+z
-x,1/2-y,1/2+z
-x,1/2+y,1/2+z
x,1/2-y,1/2+z
1/2+x,y,1/2+z
1/2-x,-y,1/2+z
1/2-x,y,1/2+z
1/2+x,-y,1/2+z
1/2+x,1/2+y,z
1/2-x,1/2-y,z
1/2-x,1/2+y,z
1/2+x,1/2-y,z
loop_
_atom_site_type_symbol
_atom_site_label
_atom_site_fract_x
_atom_site_fract_y
_atom_site_fract_z
Si Si1 0.591106 0.681334 0.333570
Si Si2 0.701413 0.818099 0.828043
Si Si3 0.094067 0.315574 0.672094
Si Si4 0.500000 0.314048 0.426416
Si Si5 0.000000 0.315765 0.087649
Si Si6 0.801259 0.817880 0.672375
O O1 0.579997 0.500000 0.328330
O O2 0.647436 0.711592 0.366658
O O3 0.587165 0.748136 0.253156
O O4 0.549296 0.755480 0.385743
O O5 0.750000 0.750000 0.872463
O O6 0.700468 0.720811 0.755641
O O7 0.708205 0.000000 0.810955
O O8 0.092257 0.500000 0.670069
O O9 0.049865 0.246815 0.624854
O O10 0.147924 0.259257 0.639962
O O11 0.500000 0.500000 0.426442
O O12 0.500000 0.252118 0.506834
O O13 0.000000 0.500000 0.090549
O O14 0.750000 0.750000 0.635633
O O15 0.803462 0.000000 0.658515
#
# Coordination Sequence:
#
# PCOD8185771 Si02
#       6
#    16  16  16   8   8  16
#     4   8  15  28  49  73  92 121 164 202 237 283
#     4   9  15  24  41  68  99 128 159 194 239 289
#     4  10  19  33  53  74  99 131 167 205 245 291
#     4   9  17  31  49  69  94 123 160 204 248 293
#     4  11  22  33  49  73  98 127 164 208 256 301
#     4  10  17  27  45  72 104 131 160 198 243 292
#
# _framework density 18.777536999999999
#
# number of rings (size 3 to 8) (size 9 to 14) (size 15 to 20)
#    0.000    2.600    0.000    6.300    0.000    1.600 
#    0.000    0.000    0.000   18.000    0.000    2.800 
#    0.000    0.000    0.000    0.000    0.000    0.000 
#
# Total GULP energy -247804.902874 kJ/mol
# GULP energy per Si atom -12390.245144 kJ/mol
# Density = 1.873480 g / cm^3
# Si number density = 18.777537 Si / 1000 Ang^3
#
#
#
# Elastic Constant Matrix: (Units=GPa)
#
#
# Indices 1 2 3 4 5 6 
#
# 1 223.8625 45.5080 72.7765 0.0000 0.0000 0.0000
# 2 45.5080 73.5983 25.1441 0.0000 0.0000 0.0000
# 3 72.7765 25.1441 73.3061 0.0000 0.0000 0.0000
# 4 0.0000 0.0000 0.0000 11.5347 0.0000 0.0000
# 5 0.0000 0.0000 0.0000 0.0000 -0.6479 0.0000
# 6 0.0000 0.0000 0.0000 0.0000 0.0000 33.0184
#
#
#
# Elastic Compliance Matrix: (Units=1/GPa)
#
#
# Indices 1 2 3 4 5 6 
#
# 1 0.006891 -0.002179 -0.006094 0.000000 0.000000 0.000000
# 2 -0.002179 0.016080 -0.003352 0.000000 0.000000 0.000000
# 3 -0.006094 -0.003352 0.020841 0.000000 0.000000 0.000000
# 4 0.000000 0.000000 0.000000 0.086695 0.000000 0.000000
# 5 0.000000 0.000000 0.000000 0.000000 -1.543361 0.000000
# 6 0.000000 0.000000 0.000000 0.000000 0.000000 0.030286
#
#
# Mechanical properties :
#
#
# Convention : Reuss Voigt Hill
#
# Bulk Modulus (GPa) = 48.63355 73.06933 60.85144
# Shear Modulus (GPa) = -3.69695 23.93693 10.11999
#
# Velocity S-wave (km/s) = -1.40467 3.57426 2.32403
# Velocity P-wave (km/s) = 4.82963 7.48541 6.29907
#
# Compressibility (1/GPa) = 0.02056194
#
# Stress axis : x y z
#
# Youngs Moduli (GPa) = 145.11501 62.18968 47.98216
#
# Poissons Ratio (x) = 0.13551 0.29240
# Poissons Ratio (y) = 0.31621 0.16084
# Poissons Ratio (z) = 0.88431 0.20847
#
# Static dielectric constant tensor:
#      x y z
#    x 4.415280 0.000000 0.000000 
#    y 0.000000 3.268210 0.000000 
#    z 0.000000 0.000000 3.082590 
# 
# 
# High freq. dielectric constant tensor:
#      x y z
#    x 1.766130 0.000000 0.000000 
#    y 0.000000 1.713560 0.000000 
#    z 0.000000 0.000000 1.660970 
# 
# From -- ./inp_files/22440.got.cif
#   From: 2010.03.12/outbox.cif.g09.slc.cpg/sg42_12_cif.got.tgz:22440.got - 2010.04.14 02:04:31.
