data_PCOD8185028
_publ_section_title
;
Structure prediction by ZEFSAII (Michael W. Deem and Ramdas Pophale) SiO2 
 PCOD8185028
Probable space group: A B A 2
;
_chemical_formula_sum "Si O2"
_cell_formula_units_Z 60
_cell_length_a 12.513009
_cell_length_b 13.908685
_cell_length_c 14.350477
_cell_angle_alpha 90.000000
_cell_angle_beta 90.000000
_cell_angle_gamma 90.000000
_cell_volume 2497.549850
_symmetry_space_group_name_H-M "A B A 2"
_symmetry_group_IT_number 41
_symmetry_cell_setting 'orthorhombic'
loop_
_space_group_symop_operation_xyz
x,y,z
-x,-y,z
1/2-x,y,1/2+z
1/2+x,-y,1/2+z
x,1/2+y,1/2+z
-x,1/2-y,1/2+z
1/2-x,1/2+y,z
1/2+x,1/2-y,z
loop_
_atom_site_type_symbol
_atom_site_label
_atom_site_fract_x
_atom_site_fract_y
_atom_site_fract_z
Si Si1 0.708157 0.952813 0.701560
Si Si2 0.395934 0.368154 0.283217
Si Si3 0.401403 0.600999 0.582175
Si Si4 0.629557 0.171724 0.115901
Si Si5 0.500000 0.000000 0.927296
Si Si6 0.290946 0.245965 0.802728
Si Si7 0.836327 0.195812 0.009214
Si Si8 0.971574 0.863462 0.103714
O O1 0.825756 0.954322 0.656011
O O2 0.695301 0.865491 0.775157
O O3 0.612527 0.950106 0.622465
O O4 0.692426 0.052275 0.754264
O O5 0.463645 0.408395 0.368408
O O6 0.334805 0.271135 0.312230
O O7 0.476281 0.337636 0.203053
O O8 0.528234 0.599217 0.610529
O O9 0.399180 0.540463 0.486512
O O10 0.355604 0.708834 0.572478
O O11 0.659775 0.185218 0.223670
O O12 0.597124 0.273012 0.069815
O O13 0.730629 0.142028 0.049841
O O14 0.341391 0.273190 0.902005
O O15 0.934695 0.120696 0.027456
#
# Coordination Sequence:
#
# PCOD8185028 Si02
#       8
#     8   8   8   8   4   8   8   8
#     4  11  23  46  68  97 139 184 227 291 352 416
#     4  12  23  42  70  98 136 181 235 283 343 421
#     4  11  24  42  63  99 142 173 231 292 348 412
#     4  10  21  42  65  98 134 177 222 280 354 399
#     4  12  26  38  64 108 134 188 242 286 348 428
#     4  11  23  41  70 101 134 177 228 278 351 415
#     4  11  21  41  69 100 133 179 231 285 343 430
#     4  10  20  41  65  92 129 176 225 278 342 403
#
# _framework density 24.023543
#
# number of rings (size 3 to 8) (size 9 to 14) (size 15 to 20)
#    0.000    1.067    5.333    2.400    3.733    1.067 
#    4.800    0.000    0.000    0.000    0.000    0.000 
#    0.000    0.000    0.000    0.000    0.000    0.000 
#
# Total GULP energy -371818.742768 kJ/mol
# GULP energy per Si atom -12393.958092 kJ/mol
# Density = 2.396886 g / cm^3
# Si number density = 24.023543 Si / 1000 Ang^3
#
#
#
# Elastic Constant Matrix: (Units=GPa)
#
#
# Indices 1 2 3 4 5 6 
#
# 1 139.6805 19.6248 45.3658 0.0000 0.0000 0.0000
# 2 19.6248 42.2521 3.7469 0.0000 0.0000 0.0000
# 3 45.3658 3.7469 119.1891 0.0000 0.0000 0.0000
# 4 0.0000 0.0000 0.0000 27.2939 0.0000 0.0000
# 5 0.0000 0.0000 0.0000 0.0000 33.5040 0.0000
# 6 0.0000 0.0000 0.0000 0.0000 0.0000 34.6959
#
#
#
# Elastic Compliance Matrix: (Units=1/GPa)
#
#
# Indices 1 2 3 4 5 6 
#
# 1 0.008730 -0.003770 -0.003204 0.000000 0.000000 0.000000
# 2 -0.003770 0.025362 0.000638 0.000000 0.000000 0.000000
# 3 -0.003204 0.000638 0.009590 0.000000 0.000000 0.000000
# 4 0.000000 0.000000 0.000000 0.036638 0.000000 0.000000
# 5 0.000000 0.000000 0.000000 0.000000 0.029847 0.000000
# 6 0.000000 0.000000 0.000000 0.000000 0.000000 0.028822
#
#
# Mechanical properties :
#
#
# Convention : Reuss Voigt Hill
#
# Bulk Modulus (GPa) = 32.25002 48.73295 40.49149
# Shear Modulus (GPa) = 30.86456 34.59103 32.72779
#
# Velocity S-wave (km/s) = 3.58825 3.79869 3.69497
# Velocity P-wave (km/s) = 5.53361 6.29044 5.92412
#
# Compressibility (1/GPa) = 0.03100773
#
# Stress axis : x y z
#
# Youngs Moduli (GPa) = 114.55297 39.42878 104.28034
#
# Poissons Ratio (x) = 0.14867 0.33413
# Poissons Ratio (y) = 0.43192 -0.06651
# Poissons Ratio (z) = 0.36704 -0.02515
#
# Static dielectric constant tensor:
#      x y z
#    x 4.660620 0.000000 0.000000 
#    y 0.000000 4.419190 0.000000 
#    z 0.000000 0.000000 4.157790 
# 
# 
# High freq. dielectric constant tensor:
#      x y z
#    x 1.970190 0.000000 0.000000 
#    y 0.000000 1.948900 0.000000 
#    z 0.000000 0.000000 1.930040 
# 
# From -- ./inp_files/8075.got.cif
#   From: 2010.03.12/outbox.cif.g09.slc.cpg/sg41_5_cif.got.tgz:8075.got - 2010.04.14 01:55:53.
