data_PCOD8185220
_publ_section_title
;
Structure prediction by ZEFSAII (Michael W. Deem and Ramdas Pophale) SiO2 
 PCOD8185220
Probable space group: A B A 2
;
_chemical_formula_sum "Si O2"
_cell_formula_units_Z 48
_cell_length_a 16.080345
_cell_length_b 25.152348
_cell_length_c 5.221453
_cell_angle_alpha 90.000000
_cell_angle_beta 90.000000
_cell_angle_gamma 90.000000
_cell_volume 2111.860700
_symmetry_space_group_name_H-M "A B A 2"
_symmetry_group_IT_number 41
_symmetry_cell_setting 'orthorhombic'
loop_
_space_group_symop_operation_xyz
x,y,z
-x,-y,z
1/2-x,y,1/2+z
1/2+x,-y,1/2+z
x,1/2+y,1/2+z
-x,1/2-y,1/2+z
1/2-x,1/2+y,z
1/2+x,1/2-y,z
loop_
_atom_site_type_symbol
_atom_site_label
_atom_site_fract_x
_atom_site_fract_y
_atom_site_fract_z
Si Si1 0.805525 0.687264 0.395180
Si Si2 0.279034 0.595256 0.458567
Si Si3 0.434777 0.908361 0.411210
Si Si4 0.951216 0.766232 0.406785
Si Si5 0.208006 0.479356 0.480920
Si Si6 0.462464 0.110383 0.913512
O O1 0.737708 0.686169 0.618933
O O2 0.866062 0.637340 0.424729
O O3 0.860124 0.740589 0.416641
O O4 0.255680 0.628354 0.714843
O O5 0.221131 0.542579 0.486955
O O6 0.375379 0.579131 0.439284
O O7 0.389556 0.965030 0.456310
O O8 0.475985 0.910115 0.132141
O O9 0.502254 0.899679 0.631857
O O10 0.940783 0.828315 0.458531
O O11 0.008909 0.742037 0.628116
O O12 0.256273 0.453154 0.240333
#
# Coordination Sequence:
#
# PCOD8185220 Si02
#       6
#     8   8   8   8   8   8
#     4  12  24  39  65  99 129 174 222 264 327 396
#     4  10  23  44  66  93 132 173 220 281 328 400
#     4  12  23  41  67 100 132 175 219 279 337 393
#     4  12  23  44  64  94 141 174 215 278 331 384
#     4  10  21  42  64  91 132 171 213 277 339 377
#     4  12  24  42  70  97 131 182 223 269 341 402
#
# _framework density 22.728770999999998
#
# number of rings (size 3 to 8) (size 9 to 14) (size 15 to 20)
#    0.000    0.667    3.333    5.000    0.000    1.333 
#    0.000   20.000    0.000    0.000    0.000    0.000 
#    0.000    0.000    0.000    0.000    0.000    0.000 
#
# Total GULP energy -297607.512135 kJ/mol
# GULP energy per Si atom -12400.313006 kJ/mol
# Density = 2.267704 g / cm^3
# Si number density = 22.728771 Si / 1000 Ang^3
#
#
#
# Elastic Constant Matrix: (Units=GPa)
#
#
# Indices 1 2 3 4 5 6 
#
# 1 100.3893 15.8172 26.0453 0.0000 0.0000 0.0000
# 2 15.8172 48.0221 -1.8260 0.0000 0.0000 0.0000
# 3 26.0453 -1.8260 142.9406 0.0000 0.0000 0.0000
# 4 0.0000 0.0000 0.0000 11.0213 0.0000 0.0000
# 5 0.0000 0.0000 0.0000 0.0000 57.7388 0.0000
# 6 0.0000 0.0000 0.0000 0.0000 0.0000 41.5653
#
#
#
# Elastic Compliance Matrix: (Units=1/GPa)
#
#
# Indices 1 2 3 4 5 6 
#
# 1 0.011085 -0.003730 -0.002068 0.000000 0.000000 0.000000
# 2 -0.003730 0.022089 0.000962 0.000000 0.000000 0.000000
# 3 -0.002068 0.000962 0.007385 0.000000 0.000000 0.000000
# 4 0.000000 0.000000 0.000000 0.090734 0.000000 0.000000
# 5 0.000000 0.000000 0.000000 0.000000 0.017319 0.000000
# 6 0.000000 0.000000 0.000000 0.000000 0.000000 0.024059
#
#
# Mechanical properties :
#
#
# Convention : Reuss Voigt Hill
#
# Bulk Modulus (GPa) = 32.37509 41.26945 36.82227
# Shear Modulus (GPa) = 25.95545 38.81943 32.38744
#
# Velocity S-wave (km/s) = 3.38296 4.13721 3.77895
# Velocity P-wave (km/s) = 5.43454 6.40459 5.93940
#
# Compressibility (1/GPa) = 0.03088795
#
# Stress axis : x y z
#
# Youngs Moduli (GPa) = 90.20966 45.27180 135.41103
#
# Poissons Ratio (x) = 0.16886 0.27996
# Poissons Ratio (y) = 0.33647 -0.13024
# Poissons Ratio (z) = 0.18651 -0.04354
#
# Static dielectric constant tensor:
#      x y z
#    x 4.218610 0.000000 0.000000 
#    y 0.000000 3.962970 0.000000 
#    z 0.000000 0.000000 5.573650 
# 
# 
# High freq. dielectric constant tensor:
#      x y z
#    x 1.903730 0.000000 0.000000 
#    y 0.000000 1.873820 0.000000 
#    z 0.000000 0.000000 1.931790 
# 
# From -- ./inp_files/300.got.cif
#   From: 2010.03.12/outbox.cif.g09.slc.cpg/sg41_1_cif.got.tgz:300.got - 2010.04.14 01:55:53.
