data_PCOD8185561
_publ_section_title
;
Structure prediction by ZEFSAII (Michael W. Deem and Ramdas Pophale) SiO2 
 PCOD8185561
Probable space group: A B A 2
;
_chemical_formula_sum "Si O2"
_cell_formula_units_Z 48
_cell_length_a 8.013930
_cell_length_b 13.937010
_cell_length_c 17.373545
_cell_angle_alpha 90.000000
_cell_angle_beta 90.000000
_cell_angle_gamma 90.000000
_cell_volume 1940.455108
_symmetry_space_group_name_H-M "A B A 2"
_symmetry_group_IT_number 41
_symmetry_cell_setting 'orthorhombic'
loop_
_space_group_symop_operation_xyz
x,y,z
-x,-y,z
1/2-x,y,1/2+z
1/2+x,-y,1/2+z
x,1/2+y,1/2+z
-x,1/2-y,1/2+z
1/2-x,1/2+y,z
1/2+x,1/2-y,z
loop_
_atom_site_type_symbol
_atom_site_label
_atom_site_fract_x
_atom_site_fract_y
_atom_site_fract_z
Si Si1 0.115567 0.783120 0.050390
Si Si2 0.995926 0.766998 0.382512
Si Si3 0.686779 0.869981 0.629642
Si Si4 0.670934 0.543076 0.376665
Si Si5 0.297572 0.124698 0.302958
Si Si6 0.819515 0.034969 0.549830
O O1 0.173034 0.678146 0.075076
O O2 0.281508 0.851141 0.052866
O O3 0.992687 0.824115 0.115565
O O4 0.024231 0.777846 0.967789
O O5 0.158258 0.840419 0.376887
O O6 0.028194 0.678445 0.323385
O O7 0.832878 0.826671 0.361941
O O8 0.740199 0.855834 0.717078
O O9 0.684463 0.981191 0.603804
O O10 0.500000 0.500000 0.342721
O O11 0.809535 0.490530 0.321854
O O12 0.703019 0.502283 0.461881
O O13 0.000000 0.000000 0.580623
#
# Coordination Sequence:
#
# PCOD8185561 Si02
#       6
#     8   8   8   8   8   8
#     4  12  24  43  71  96 131 181 238 290 345 425
#     4  11  22  42  68  94 126 177 232 280 340 417
#     4  12  25  41  63  99 136 177 226 289 365 426
#     4   9  19  38  63  88 122 166 216 275 338 407
#     4  11  24  40  63  95 135 175 221 286 359 421
#     4  11  23  42  67  96 131 174 228 290 351 420
#
# _framework density 24.736466
#
# number of rings (size 3 to 8) (size 9 to 14) (size 15 to 20)
#    0.000    1.000    0.000    9.500    0.000    5.333 
#    0.000    4.167    0.000    0.000    0.000    0.000 
#    0.000    0.000    0.000    0.000    0.000    0.000 
#
# Total GULP energy -297492.310492 kJ/mol
# GULP energy per Si atom -12395.512937 kJ/mol
# Density = 2.468017 g / cm^3
# Si number density = 24.736466 Si / 1000 Ang^3
#
#
#
# Elastic Constant Matrix: (Units=GPa)
#
#
# Indices 1 2 3 4 5 6 
#
# 1 37.4447 15.8792 11.4259 0.0000 0.0000 0.0000
# 2 15.8792 136.9083 25.9407 0.0000 0.0000 0.0000
# 3 11.4259 25.9407 111.0019 0.0000 0.0000 0.0000
# 4 0.0000 0.0000 0.0000 18.2840 0.0000 0.0000
# 5 0.0000 0.0000 0.0000 0.0000 30.9183 0.0000
# 6 0.0000 0.0000 0.0000 0.0000 0.0000 37.8247
#
#
#
# Elastic Compliance Matrix: (Units=1/GPa)
#
#
# Indices 1 2 3 4 5 6 
#
# 1 0.028624 -0.002890 -0.002271 0.000000 0.000000 0.000000
# 2 -0.002890 0.007934 -0.001557 0.000000 0.000000 0.000000
# 3 -0.002271 -0.001557 0.009606 0.000000 0.000000 0.000000
# 4 0.000000 0.000000 0.000000 0.054693 0.000000 0.000000
# 5 0.000000 0.000000 0.000000 0.000000 0.032343 0.000000
# 6 0.000000 0.000000 0.000000 0.000000 0.000000 0.026438
#
#
# Mechanical properties :
#
#
# Convention : Reuss Voigt Hill
#
# Bulk Modulus (GPa) = 30.55295 43.53851 37.04573
# Shear Modulus (GPa) = 27.17627 32.87934 30.02781
#
# Velocity S-wave (km/s) = 3.31816 3.64975 3.48790
# Velocity P-wave (km/s) = 5.20177 5.94980 5.58831
#
# Compressibility (1/GPa) = 0.03273007
#
# Stress axis : x y z
#
# Youngs Moduli (GPa) = 34.93511 126.03534 104.09681
#
# Poissons Ratio (x) = 0.36420 0.23642
# Poissons Ratio (y) = 0.10095 0.16205
# Poissons Ratio (z) = 0.07934 0.19621
#
# Static dielectric constant tensor:
#      x y z
#    x 4.347930 0.000000 0.000000 
#    y 0.000000 4.917180 0.000000 
#    z 0.000000 0.000000 4.026760 
# 
# 
# High freq. dielectric constant tensor:
#      x y z
#    x 1.974250 0.000000 0.000000 
#    y 0.000000 2.002960 0.000000 
#    z 0.000000 0.000000 1.961770 
# 
# From -- ./inp_files/9666.got.cif
#   From: 2010.03.12/outbox.cif.g09.slc.cpg/sg41_5_cif.got.tgz:9666.got - 2010.04.14 01:55:53.
