data_PCOD8185284
_publ_section_title
;
Structure prediction by ZEFSAII (Michael W. Deem and Ramdas Pophale) SiO2 
 PCOD8185284
Probable space group: A B A 2
;
_chemical_formula_sum "Si O2"
_cell_formula_units_Z 64
_cell_length_a 20.309889
_cell_length_b 12.533113
_cell_length_c 12.565437
_cell_angle_alpha 90.000000
_cell_angle_beta 90.000000
_cell_angle_gamma 90.000000
_cell_volume 3198.483409
_symmetry_space_group_name_H-M "A B A 2"
_symmetry_group_IT_number 41
_symmetry_cell_setting 'orthorhombic'
loop_
_space_group_symop_operation_xyz
x,y,z
-x,-y,z
1/2-x,y,1/2+z
1/2+x,-y,1/2+z
x,1/2+y,1/2+z
-x,1/2-y,1/2+z
1/2-x,1/2+y,z
1/2+x,1/2-y,z
loop_
_atom_site_type_symbol
_atom_site_label
_atom_site_fract_x
_atom_site_fract_y
_atom_site_fract_z
Si Si1 0.190188 0.517459 0.556540
Si Si2 0.696605 0.157783 0.384761
Si Si3 0.826281 0.248783 0.478957
Si Si4 0.439888 0.921564 0.643927
Si Si5 0.932807 0.753633 0.473653
Si Si6 0.680971 0.076105 0.154905
Si Si7 0.060644 0.075473 0.651178
Si Si8 0.446837 0.752620 0.822662
O O1 0.191693 0.456002 0.443978
O O2 0.191434 0.643253 0.539936
O O3 0.125954 0.488021 0.624202
O O4 0.252977 0.486010 0.625840
O O5 0.764685 0.216744 0.407453
O O6 0.637993 0.234187 0.422214
O O7 0.693736 0.144642 0.259376
O O8 0.842610 0.156327 0.563108
O O9 0.889703 0.267595 0.407016
O O10 0.456946 0.846819 0.543459
O O11 0.428021 0.852777 0.749748
O O12 0.500000 0.000000 0.663013
O O13 0.924690 0.857089 0.546211
O O14 0.984913 0.776129 0.381399
O O15 0.624728 0.991518 0.179657
O O16 0.043117 0.147217 0.752619
O O17 0.000000 0.000000 0.625470
#
# Coordination Sequence:
#
# PCOD8185284 Si02
#       8
#     8   8   8   8   8   8   8   8
#     4  10  22  40  61  85 117 156 194 238 290 348
#     4  10  22  40  61  86 118 156 195 238 294 350
#     4  11  23  39  61  89 119 153 196 243 290 348
#     4  10  22  39  59  84 115 152 194 240 290 347
#     4  10  22  40  60  85 117 154 198 242 288 348
#     4  11  23  39  61  90 120 153 196 243 293 348
#     4  11  23  40  61  87 120 157 198 243 293 349
#     4  11  23  39  60  86 118 155 194 241 295 348
#
# _framework density 20.009482999999999
#
# number of rings (size 3 to 8) (size 9 to 14) (size 15 to 20)
#    0.000    1.500    0.000    4.500    0.000   11.000 
#    0.000    0.000    0.000    0.000    0.000    0.000 
#    0.000    0.000    0.000    0.000    0.000    0.000 
#
# Total GULP energy -397035.888793 kJ/mol
# GULP energy per Si atom -12407.371525 kJ/mol
# Density = 1.996394 g / cm^3
# Si number density = 20.009483 Si / 1000 Ang^3
#
#
#
# Elastic Constant Matrix: (Units=GPa)
#
#
# Indices 1 2 3 4 5 6 
#
# 1 81.7265 10.9032 14.0920 0.0000 0.0000 0.0000
# 2 10.9032 83.2934 14.2449 0.0000 0.0000 0.0000
# 3 14.0920 14.2449 92.9882 0.0000 0.0000 0.0000
# 4 0.0000 0.0000 0.0000 14.4290 0.0000 0.0000
# 5 0.0000 0.0000 0.0000 0.0000 92.2166 0.0000
# 6 0.0000 0.0000 0.0000 0.0000 0.0000 37.3937
#
#
#
# Elastic Compliance Matrix: (Units=1/GPa)
#
#
# Indices 1 2 3 4 5 6 
#
# 1 0.012715 -0.001371 -0.001717 0.000000 0.000000 0.000000
# 2 -0.001371 0.012477 -0.001704 0.000000 0.000000 0.000000
# 3 -0.001717 -0.001704 0.011275 0.000000 0.000000 0.000000
# 4 0.000000 0.000000 0.000000 0.069305 0.000000 0.000000
# 5 0.000000 0.000000 0.000000 0.000000 0.010844 0.000000
# 6 0.000000 0.000000 0.000000 0.000000 0.000000 0.026742
#
#
# Mechanical properties :
#
#
# Convention : Reuss Voigt Hill
#
# Bulk Modulus (GPa) = 37.19660 37.38757 37.29208
# Shear Modulus (GPa) = 30.88290 43.39239 37.13765
#
# Velocity S-wave (km/s) = 3.93289 4.66187 4.31281
# Velocity P-wave (km/s) = 6.26525 6.90672 6.59379
#
# Compressibility (1/GPa) = 0.02688418
#
# Stress axis : x y z
#
# Youngs Moduli (GPa) = 78.64818 80.15053 88.69014
#
# Poissons Ratio (x) = 0.10987 0.15227
# Poissons Ratio (y) = 0.10781 0.15109
# Poissons Ratio (z) = 0.13503 0.13654
#
# Static dielectric constant tensor:
#      x y z
#    x 3.166050 0.000000 0.000000 
#    y 0.000000 3.697140 0.000000 
#    z 0.000000 0.000000 3.660120 
# 
# 
# High freq. dielectric constant tensor:
#      x y z
#    x 1.796570 0.000000 0.000000 
#    y 0.000000 1.788030 0.000000 
#    z 0.000000 0.000000 1.788410 
# 
# From -- ./inp_files/6027.got.cif
#   From: 2010.03.12/outbox.cif.g09.slc.cpg/sg41_4_cif.got.tgz:6027.got - 2010.04.14 01:55:53.
