data_PCOD8185711
_publ_section_title
;
Structure prediction by ZEFSAII (Michael W. Deem and Ramdas Pophale) SiO2 
 PCOD8185711
Probable space group: A B A 2
;
_chemical_formula_sum "Si O2"
_cell_formula_units_Z 48
_cell_length_a 14.031921
_cell_length_b 8.299071
_cell_length_c 17.075337
_cell_angle_alpha 90.000000
_cell_angle_beta 90.000000
_cell_angle_gamma 90.000000
_cell_volume 1988.455584
_symmetry_space_group_name_H-M "A B A 2"
_symmetry_group_IT_number 41
_symmetry_cell_setting 'orthorhombic'
loop_
_space_group_symop_operation_xyz
x,y,z
-x,-y,z
1/2-x,y,1/2+z
1/2+x,-y,1/2+z
x,1/2+y,1/2+z
-x,1/2-y,1/2+z
1/2-x,1/2+y,z
1/2+x,1/2-y,z
loop_
_atom_site_type_symbol
_atom_site_label
_atom_site_fract_x
_atom_site_fract_y
_atom_site_fract_z
Si Si1 0.114216 0.322231 0.106930
Si Si2 0.527186 0.821883 0.454552
Si Si3 0.662811 0.696176 0.337994
Si Si4 0.840779 0.339470 0.900457
Si Si5 0.306307 0.668885 0.578738
Si Si6 0.449727 0.328390 0.179983
O O1 0.153632 0.501804 0.111378
O O2 0.202326 0.198945 0.115522
O O3 0.038669 0.296882 0.177313
O O4 0.054744 0.290371 0.027602
O O5 0.614575 0.829948 0.393874
O O6 0.443288 0.741598 0.404192
O O7 0.500000 0.000000 0.483966
O O8 0.644710 0.520530 0.372592
O O9 0.774888 0.741877 0.338360
O O10 0.619179 0.708086 0.252065
O O11 0.792195 0.332595 0.985825
O O12 0.381680 0.808498 0.603274
O O13 0.500000 0.500000 0.181223
#
# Coordination Sequence:
#
# PCOD8185711 Si02
#       6
#     8   8   8   8   8   8
#     4  12  26  46  76 116 151 202 258 324 390 458
#     4  12  25  42  76 111 152 202 259 317 378 468
#     4  12  28  49  76 111 163 203 257 325 395 470
#     4  12  24  47  77 113 148 206 261 315 390 458
#     4  12  25  45  82 111 154 199 263 325 379 471
#     4  12  28  49  75 114 160 208 256 328 398 463
#
# _framework density 24.139337000000001
#
# number of rings (size 3 to 8) (size 9 to 14) (size 15 to 20)
#    0.000    0.000    5.000    4.500    2.333    5.333 
#    0.000    1.667    0.000    0.000    0.000    0.000 
#    0.000    0.000    0.000    0.000    0.000    0.000 
#
# Total GULP energy -297677.299178 kJ/mol
# GULP energy per Si atom -12403.220799 kJ/mol
# Density = 2.408439 g / cm^3
# Si number density = 24.139337 Si / 1000 Ang^3
#
#
#
# Elastic Constant Matrix: (Units=GPa)
#
#
# Indices 1 2 3 4 5 6 
#
# 1 164.5144 38.4293 51.5854 0.0000 0.0000 0.0000
# 2 38.4293 96.2197 34.6054 0.0000 0.0000 0.0000
# 3 51.5854 34.6054 91.9917 0.0000 0.0000 0.0000
# 4 0.0000 0.0000 0.0000 27.1948 0.0000 0.0000
# 5 0.0000 0.0000 0.0000 0.0000 60.3814 0.0000
# 6 0.0000 0.0000 0.0000 0.0000 0.0000 47.7496
#
#
#
# Elastic Compliance Matrix: (Units=1/GPa)
#
#
# Indices 1 2 3 4 5 6 
#
# 1 0.007620 -0.001742 -0.003617 0.000000 0.000000 0.000000
# 2 -0.001742 0.012417 -0.003694 0.000000 0.000000 0.000000
# 3 -0.003617 -0.003694 0.014289 0.000000 0.000000 0.000000
# 4 0.000000 0.000000 0.000000 0.036772 0.000000 0.000000
# 5 0.000000 0.000000 0.000000 0.000000 0.016561 0.000000
# 6 0.000000 0.000000 0.000000 0.000000 0.000000 0.020943
#
#
# Mechanical properties :
#
#
# Convention : Reuss Voigt Hill
#
# Bulk Modulus (GPa) = 61.65956 66.88510 64.27233
# Shear Modulus (GPa) = 37.84573 42.27222 40.05897
#
# Velocity S-wave (km/s) = 3.96385 4.18924 4.07810
# Velocity P-wave (km/s) = 6.82261 7.15317 6.98984
#
# Compressibility (1/GPa) = 0.01621809
#
# Stress axis : x y z
#
# Youngs Moduli (GPa) = 131.23755 80.53265 69.98511
#
# Poissons Ratio (x) = 0.14031 0.25317
# Poissons Ratio (y) = 0.22865 0.25854
# Poissons Ratio (z) = 0.47475 0.29750
#
# Static dielectric constant tensor:
#      x y z
#    x 4.784540 0.000000 0.000000 
#    y 0.000000 4.250780 0.000000 
#    z 0.000000 0.000000 4.275050 
# 
# 
# High freq. dielectric constant tensor:
#      x y z
#    x 1.990900 0.000000 0.000000 
#    y 0.000000 1.955920 0.000000 
#    z 0.000000 0.000000 1.940960 
# 
# From -- ./inp_files/10298.got.cif
#   From: 2010.03.12/outbox.cif.g09.slc.cpg/sg41_6_cif.got.tgz:10298.got - 2010.04.14 01:55:53.
