data_PCOD8185037
_publ_section_title
;
Structure prediction by ZEFSAII (Michael W. Deem and Ramdas Pophale) SiO2 
 PCOD8185037
Probable space group: A B A 2
;
_chemical_formula_sum "Si O2"
_cell_formula_units_Z 60
_cell_length_a 18.634295
_cell_length_b 10.798062
_cell_length_c 14.524473
_cell_angle_alpha 90.000000
_cell_angle_beta 90.000000
_cell_angle_gamma 90.000000
_cell_volume 2922.531272
_symmetry_space_group_name_H-M "A B A 2"
_symmetry_group_IT_number 41
_symmetry_cell_setting 'orthorhombic'
loop_
_space_group_symop_operation_xyz
x,y,z
-x,-y,z
1/2-x,y,1/2+z
1/2+x,-y,1/2+z
x,1/2+y,1/2+z
-x,1/2-y,1/2+z
1/2-x,1/2+y,z
1/2+x,1/2-y,z
loop_
_atom_site_type_symbol
_atom_site_label
_atom_site_fract_x
_atom_site_fract_y
_atom_site_fract_z
Si Si1 0.652647 0.964670 0.120760
Si Si2 0.709452 0.475362 0.813672
Si Si3 0.034335 0.200475 0.526880
Si Si4 0.500000 0.000000 0.883058
Si Si5 0.768685 0.840784 0.999339
Si Si6 0.363920 0.083647 0.796265
Si Si7 0.609155 0.249505 0.121547
Si Si8 0.654977 0.197112 0.426341
O O1 0.669435 0.919046 0.224868
O O2 0.583013 0.891564 0.087147
O O3 0.720362 0.941640 0.053593
O O4 0.636398 0.109619 0.126351
O O5 0.792255 0.499227 0.780831
O O6 0.667475 0.598410 0.846439
O O7 0.707143 0.381062 0.897608
O O8 0.081652 0.316577 0.486155
O O9 0.973594 0.258348 0.591470
O O10 0.997025 0.123622 0.444704
O O11 0.569422 0.006504 0.816644
O O12 0.843312 0.824811 0.049984
O O13 0.725062 0.709483 0.992778
O O14 0.382489 0.181775 0.717824
O O15 0.350604 0.163201 0.887895
#
# Coordination Sequence:
#
# PCOD8185037 Si02
#       8
#     8   8   8   4   8   8   8   8
#     4  11  21  41  64  90 126 165 211 258 313 382
#     4  11  21  41  64  93 126 157 209 266 308 367
#     4  10  22  40  64  87 119 171 213 252 316 379
#     4  10  20  42  60  84 122 160 214 252 304 376
#     4  10  23  37  61  95 121 157 213 256 313 372
#     4  10  22  38  62  93 121 160 207 254 312 375
#     4  12  21  41  60  91 126 164 202 258 318 378
#     4   9  20  40  62  89 121 161 206 256 307 371
#
# _framework density 20.530149000000002
#
# number of rings (size 3 to 8) (size 9 to 14) (size 15 to 20)
#    0.000    1.600    4.000    1.600    1.867    0.000 
#    7.200    1.333    0.000    0.000    0.000    0.000 
#    0.000    0.000    0.000    0.000    0.000    0.000 
#
# Total GULP energy -371822.317436 kJ/mol
# GULP energy per Si atom -12394.077248 kJ/mol
# Density = 2.048342 g / cm^3
# Si number density = 20.530149 Si / 1000 Ang^3
#
#
#
# Elastic Constant Matrix: (Units=GPa)
#
#
# Indices 1 2 3 4 5 6 
#
# 1 142.7790 51.9711 62.4337 0.0000 0.0000 0.0000
# 2 51.9711 51.1298 36.4205 0.0000 0.0000 0.0000
# 3 62.4337 36.4205 119.9364 0.0000 0.0000 0.0000
# 4 0.0000 0.0000 0.0000 33.1281 0.0000 0.0000
# 5 0.0000 0.0000 0.0000 0.0000 36.2550 0.0000
# 6 0.0000 0.0000 0.0000 0.0000 0.0000 22.4194
#
#
#
# Elastic Compliance Matrix: (Units=1/GPa)
#
#
# Indices 1 2 3 4 5 6 
#
# 1 0.012036 -0.009916 -0.003254 0.000000 0.000000 0.000000
# 2 -0.009916 0.033126 -0.004897 0.000000 0.000000 0.000000
# 3 -0.003254 -0.004897 0.011519 0.000000 0.000000 0.000000
# 4 0.000000 0.000000 0.000000 0.030186 0.000000 0.000000
# 5 0.000000 0.000000 0.000000 0.000000 0.027582 0.000000
# 6 0.000000 0.000000 0.000000 0.000000 0.000000 0.044604
#
#
# Mechanical properties :
#
#
# Convention : Reuss Voigt Hill
#
# Bulk Modulus (GPa) = 48.67251 68.38840 58.53046
# Shear Modulus (GPa) = 24.74784 29.22850 26.98817
#
# Velocity S-wave (km/s) = 3.47571 3.77727 3.62962
# Velocity P-wave (km/s) = 6.31401 7.23928 6.79242
#
# Compressibility (1/GPa) = 0.02054548
#
# Stress axis : x y z
#
# Youngs Moduli (GPa) = 83.08146 30.18791 86.81348
#
# Poissons Ratio (x) = 0.29935 0.28252
# Poissons Ratio (y) = 0.82386 0.42514
# Poissons Ratio (z) = 0.27038 0.14784
#
# Static dielectric constant tensor:
#      x y z
#    x 4.086080 0.000000 0.000000 
#    y 0.000000 3.357280 0.000000 
#    z 0.000000 0.000000 3.810310 
# 
# 
# High freq. dielectric constant tensor:
#      x y z
#    x 1.814870 0.000000 0.000000 
#    y 0.000000 1.768020 0.000000 
#    z 0.000000 0.000000 1.813890 
# 
# From -- ./inp_files/8791.got.cif
#   From: 2010.03.12/outbox.cif.g09.slc.cpg/sg41_5_cif.got.tgz:8791.got - 2010.04.14 01:55:53.
