data_PCOD8185286
_publ_section_title
;
Structure prediction by ZEFSAII (Michael W. Deem and Ramdas Pophale) SiO2 
 PCOD8185286
Probable space group: A B A 2
;
_chemical_formula_sum "Si O2"
_cell_formula_units_Z 36
_cell_length_a 19.335226
_cell_length_b 9.127643
_cell_length_c 9.149378
_cell_angle_alpha 90.000000
_cell_angle_beta 90.000000
_cell_angle_gamma 90.000000
_cell_volume 1614.728345
_symmetry_space_group_name_H-M "A B A 2"
_symmetry_group_IT_number 41
_symmetry_cell_setting 'orthorhombic'
loop_
_space_group_symop_operation_xyz
x,y,z
-x,-y,z
1/2-x,y,1/2+z
1/2+x,-y,1/2+z
x,1/2+y,1/2+z
-x,1/2-y,1/2+z
1/2-x,1/2+y,z
1/2+x,1/2-y,z
loop_
_atom_site_type_symbol
_atom_site_label
_atom_site_fract_x
_atom_site_fract_y
_atom_site_fract_z
Si Si1 0.154671 0.029170 0.147780
Si Si2 0.500000 0.000000 0.048144
Si Si3 0.711144 0.969284 0.972282
Si Si4 0.885417 0.218396 0.482274
Si Si5 0.888260 0.289781 0.166709
O O1 0.196342 0.049454 0.299169
O O2 0.106494 0.885554 0.141483
O O3 0.208306 0.032426 0.011765
O O4 0.103643 0.168178 0.117080
O O5 0.541407 0.880112 0.142062
O O6 0.447265 0.899980 0.954404
O O7 0.683074 0.127264 0.022762
O O8 0.673006 0.842625 0.062691
O O9 0.872031 0.312903 0.336923
#
# Coordination Sequence:
#
# PCOD8185286 Si02
#       5
#     8   4   8   8   8
#     4  11  22  38  64  92 122 160 199 244 305 367
#     4  10  24  42  60  88 124 156 208 260 294 350
#     4  10  22  39  60  93 127 153 196 249 303 366
#     4  10  23  41  62  89 122 161 202 250 302 357
#     4  10  23  40  62  89 121 163 203 249 303 356
#
# _framework density 22.294771000000001
#
# number of rings (size 3 to 8) (size 9 to 14) (size 15 to 20)
#    0.000    1.778    0.000    2.667    0.000   16.889 
#    0.000    0.000    0.000    1.333    0.000    0.000 
#    0.000    0.000    0.000    0.000    0.000    0.000 
#
# Total GULP energy -223033.170893 kJ/mol
# GULP energy per Si atom -12390.731716 kJ/mol
# Density = 2.224403 g / cm^3
# Si number density = 22.294771 Si / 1000 Ang^3
#
#
#
# Elastic Constant Matrix: (Units=GPa)
#
#
# Indices 1 2 3 4 5 6 
#
# 1 79.4590 44.7048 22.1135 0.0000 0.0000 0.0000
# 2 44.7048 131.4107 82.7802 0.0000 0.0000 0.0000
# 3 22.1135 82.7802 101.4027 0.0000 0.0000 0.0000
# 4 0.0000 0.0000 0.0000 39.6106 0.0000 0.0000
# 5 0.0000 0.0000 0.0000 0.0000 18.9047 0.0000
# 6 0.0000 0.0000 0.0000 0.0000 0.0000 34.6686
#
#
#
# Elastic Compliance Matrix: (Units=1/GPa)
#
#
# Indices 1 2 3 4 5 6 
#
# 1 0.015746 -0.006574 0.001933 0.000000 0.000000 0.000000
# 2 -0.006574 0.018411 -0.013596 0.000000 0.000000 0.000000
# 3 0.001933 -0.013596 0.020539 0.000000 0.000000 0.000000
# 4 0.000000 0.000000 0.000000 0.025246 0.000000 0.000000
# 5 0.000000 0.000000 0.000000 0.000000 0.052897 0.000000
# 6 0.000000 0.000000 0.000000 0.000000 0.000000 0.028845
#
#
# Mechanical properties :
#
#
# Convention : Reuss Voigt Hill
#
# Bulk Modulus (GPa) = 54.87989 67.94105 61.41047
# Shear Modulus (GPa) = 24.48197 29.48170 26.98184
#
# Velocity S-wave (km/s) = 3.31736 3.64037 3.48261
# Velocity P-wave (km/s) = 6.27234 6.94333 6.61635
#
# Compressibility (1/GPa) = 0.01822161
#
# Stress axis : x y z
#
# Youngs Moduli (GPa) = 63.50829 54.31539 48.68720
#
# Poissons Ratio (x) = 0.35710 -0.09413
# Poissons Ratio (y) = 0.41754 0.66196
# Poissons Ratio (z) = -0.12278 0.73848
#
# Static dielectric constant tensor:
#      x y z
#    x 3.849400 0.000000 0.000000 
#    y 0.000000 4.348680 0.000000 
#    z 0.000000 0.000000 3.964950 
# 
# 
# High freq. dielectric constant tensor:
#      x y z
#    x 1.860920 0.000000 0.000000 
#    y 0.000000 1.899300 0.000000 
#    z 0.000000 0.000000 1.872020 
# 
# From -- ./inp_files/3290.got.cif
#   From: 2010.03.12/outbox.cif.g09.slc.cpg/sg41_2_cif.got.tgz:3290.got - 2010.04.14 01:55:53.
