data_PCOD8185287
_publ_section_title
;
Structure prediction by ZEFSAII (Michael W. Deem and Ramdas Pophale) SiO2 
 PCOD8185287
Probable space group: A B A 2
;
_chemical_formula_sum "Si O2"
_cell_formula_units_Z 36
_cell_length_a 19.244361
_cell_length_b 9.215257
_cell_length_c 9.049628
_cell_angle_alpha 90.000000
_cell_angle_beta 90.000000
_cell_angle_gamma 90.000000
_cell_volume 1604.876707
_symmetry_space_group_name_H-M "A B A 2"
_symmetry_group_IT_number 41
_symmetry_cell_setting 'orthorhombic'
loop_
_space_group_symop_operation_xyz
x,y,z
-x,-y,z
1/2-x,y,1/2+z
1/2+x,-y,1/2+z
x,1/2+y,1/2+z
-x,1/2-y,1/2+z
1/2-x,1/2+y,z
1/2+x,1/2-y,z
loop_
_atom_site_type_symbol
_atom_site_label
_atom_site_fract_x
_atom_site_fract_y
_atom_site_fract_z
Si Si1 0.390539 0.140609 0.699780
Si Si2 0.500000 0.000000 0.503175
Si Si3 0.345073 0.123893 0.022725
Si Si4 0.615298 0.047522 0.270817
Si Si5 0.711490 0.055405 0.522311
O O1 0.375512 0.309385 0.670779
O O2 0.462777 0.111610 0.614513
O O3 0.329866 0.037166 0.643143
O O4 0.392905 0.120487 0.877429
O O5 0.444210 0.925156 0.394642
O O6 0.396886 0.090276 0.161692
O O7 0.302672 0.272963 0.047353
O O8 0.291992 0.987312 0.027448
O O9 0.686437 0.014313 0.357853
#
# Coordination Sequence:
#
# PCOD8185287 Si02
#       5
#     8   4   8   8   8
#     4  10  23  41  62  89 122 161 202 250 303 356
#     4  10  24  42  60  88 124 156 208 260 294 350
#     4  11  22  38  64  93 123 162 200 244 306 366
#     4  10  23  40  62  89 121 163 203 249 302 357
#     4  10  22  39  60  94 128 155 197 249 304 365
#
# _framework density 22.431629999999998
#
# number of rings (size 3 to 8) (size 9 to 14) (size 15 to 20)
#    0.000    1.778    0.000    2.667    0.000   16.889 
#    0.000    0.000    0.000    0.000    0.000    0.000 
#    0.000    0.000    0.000    0.000    0.000    0.000 
#
# Total GULP energy -223045.704765 kJ/mol
# GULP energy per Si atom -12391.428042 kJ/mol
# Density = 2.238057 g / cm^3
# Si number density = 22.431630 Si / 1000 Ang^3
#
#
#
# Elastic Constant Matrix: (Units=GPa)
#
#
# Indices 1 2 3 4 5 6 
#
# 1 67.5958 23.8419 31.2342 0.0000 0.0000 0.0000
# 2 23.8419 114.5171 81.4602 0.0000 0.0000 0.0000
# 3 31.2342 81.4602 101.7349 0.0000 0.0000 0.0000
# 4 0.0000 0.0000 0.0000 40.1456 0.0000 0.0000
# 5 0.0000 0.0000 0.0000 0.0000 32.0755 0.0000
# 6 0.0000 0.0000 0.0000 0.0000 0.0000 20.6361
#
#
#
# Elastic Compliance Matrix: (Units=1/GPa)
#
#
# Indices 1 2 3 4 5 6 
#
# 1 0.017248 0.000409 -0.005622 0.000000 0.000000 0.000000
# 2 0.000409 0.020297 -0.016378 0.000000 0.000000 0.000000
# 3 -0.005622 -0.016378 0.024669 0.000000 0.000000 0.000000
# 4 0.000000 0.000000 0.000000 0.024909 0.000000 0.000000
# 5 0.000000 0.000000 0.000000 0.000000 0.031176 0.000000
# 6 0.000000 0.000000 0.000000 0.000000 0.000000 0.048459
#
#
# Mechanical properties :
#
#
# Convention : Reuss Voigt Hill
#
# Bulk Modulus (GPa) = 52.54512 61.88006 57.21259
# Shear Modulus (GPa) = 23.11753 28.39219 25.75486
#
# Velocity S-wave (km/s) = 3.21374 3.56156 3.39211
# Velocity P-wave (km/s) = 6.10297 6.67524 6.39551
#
# Compressibility (1/GPa) = 0.01903126
#
# Stress axis : x y z
#
# Youngs Moduli (GPa) = 57.97878 49.26757 40.53599
#
# Poissons Ratio (x) = -0.02013 0.22791
# Poissons Ratio (y) = -0.02369 0.66389
# Poissons Ratio (z) = 0.32598 0.80689
#
# Static dielectric constant tensor:
#      x y z
#    x 3.920360 0.000000 0.000000 
#    y 0.000000 4.098170 0.000000 
#    z 0.000000 0.000000 4.255600 
# 
# 
# High freq. dielectric constant tensor:
#      x y z
#    x 1.866820 0.000000 0.000000 
#    y 0.000000 1.883450 0.000000 
#    z 0.000000 0.000000 1.901560 
# 
# From -- ./inp_files/3292.got.cif
#   From: 2010.03.12/outbox.cif.g09.slc.cpg/sg41_2_cif.got.tgz:3292.got - 2010.04.14 01:55:53.
