data_PCOD8185630
_publ_section_title
;
Structure prediction by ZEFSAII (Michael W. Deem and Ramdas Pophale) SiO2 
 PCOD8185630
Probable space group: A B A 2
;
_chemical_formula_sum "Si O2"
_cell_formula_units_Z 64
_cell_length_a 9.562865
_cell_length_b 29.708330
_cell_length_c 10.295695
_cell_angle_alpha 90.000000
_cell_angle_beta 90.000000
_cell_angle_gamma 90.000000
_cell_volume 2924.973480
_symmetry_space_group_name_H-M "A B A 2"
_symmetry_group_IT_number 41
_symmetry_cell_setting 'orthorhombic'
loop_
_space_group_symop_operation_xyz
x,y,z
-x,-y,z
1/2-x,y,1/2+z
1/2+x,-y,1/2+z
x,1/2+y,1/2+z
-x,1/2-y,1/2+z
1/2-x,1/2+y,z
1/2+x,1/2-y,z
loop_
_atom_site_type_symbol
_atom_site_label
_atom_site_fract_x
_atom_site_fract_y
_atom_site_fract_z
Si Si1 0.378599 0.668545 0.223030
Si Si2 0.588705 0.376371 0.758289
Si Si3 0.838754 0.653232 0.827860
Si Si4 0.219512 0.752792 0.866023
Si Si5 0.837394 0.006056 0.572412
Si Si6 0.862395 0.472270 0.354886
Si Si7 0.826812 0.109154 0.597628
Si Si8 0.033781 0.697230 0.459413
O O1 0.244671 0.636412 0.213390
O O2 0.491996 0.649111 0.325144
O O3 0.337563 0.720028 0.253918
O O4 0.462692 0.667444 0.088106
O O5 0.595767 0.420010 0.849250
O O6 0.491093 0.385610 0.633747
O O7 0.517531 0.335536 0.836298
O O8 0.795521 0.704800 0.799650
O O9 0.768467 0.621752 0.720238
O O10 0.788850 0.639178 0.972121
O O11 0.322845 0.724968 0.957157
O O12 0.094564 0.768381 0.959791
O O13 0.793999 0.057919 0.561385
O O14 0.800794 0.987880 0.715997
O O15 0.752498 0.977900 0.466225
O O16 0.000000 0.000000 0.541721
O O17 0.000000 0.500000 0.392517
#
# Coordination Sequence:
#
# PCOD8185630 Si02
#       8
#     8   8   8   8   8   8   8   8
#     4  11  28  42  69 102 140 188 240 290 363 423
#     4  11  26  46  70 102 143 185 234 300 354 423
#     4  12  27  45  75 104 141 186 241 295 356 430
#     4  11  24  43  62 101 134 188 230 297 346 424
#     4  11  25  47  73 106 142 188 231 292 357 431
#     4  11  25  47  75 105 144 185 234 289 360 426
#     4  12  26  48  74 104 144 185 237 298 360 422
#     4  11  25  42  68  95 142 181 240 291 356 416
#
# _framework density 21.880541999999998
#
# number of rings (size 3 to 8) (size 9 to 14) (size 15 to 20)
#    0.000    0.750    5.000    1.500   10.500    0.500 
#    0.000    0.000    0.000    0.000    0.000    0.000 
#    0.000    0.000    0.000    0.000    0.000    0.000 
#
# Total GULP energy -396984.900219 kJ/mol
# GULP energy per Si atom -12405.778132 kJ/mol
# Density = 2.183074 g / cm^3
# Si number density = 21.880542 Si / 1000 Ang^3
#
#
#
# Elastic Constant Matrix: (Units=GPa)
#
#
# Indices 1 2 3 4 5 6 
#
# 1 99.9890 28.6124 36.8178 0.0000 0.0000 0.0000
# 2 28.6124 107.0761 15.7864 0.0000 0.0000 0.0000
# 3 36.8178 15.7864 98.2690 0.0000 0.0000 0.0000
# 4 0.0000 0.0000 0.0000 25.4609 0.0000 0.0000
# 5 0.0000 0.0000 0.0000 0.0000 31.9011 0.0000
# 6 0.0000 0.0000 0.0000 0.0000 0.0000 33.7281
#
#
#
# Elastic Compliance Matrix: (Units=1/GPa)
#
#
# Indices 1 2 3 4 5 6 
#
# 1 0.012305 -0.002672 -0.004181 0.000000 0.000000 0.000000
# 2 -0.002672 0.010146 -0.000629 0.000000 0.000000 0.000000
# 3 -0.004181 -0.000629 0.011844 0.000000 0.000000 0.000000
# 4 0.000000 0.000000 0.000000 0.039276 0.000000 0.000000
# 5 0.000000 0.000000 0.000000 0.000000 0.031347 0.000000
# 6 0.000000 0.000000 0.000000 0.000000 0.000000 0.029649
#
#
# Mechanical properties :
#
#
# Convention : Reuss Voigt Hill
#
# Bulk Modulus (GPa) = 51.72967 51.97416 51.85191
# Shear Modulus (GPa) = 32.05674 33.15919 32.60797
#
# Velocity S-wave (km/s) = 3.83179 3.89712 3.86459
# Velocity P-wave (km/s) = 6.57799 6.63741 6.60777
#
# Compressibility (1/GPa) = 0.01933127
#
# Stress axis : x y z
#
# Youngs Moduli (GPa) = 81.26657 98.56306 84.43321
#
# Poissons Ratio (x) = 0.26333 0.35302
# Poissons Ratio (y) = 0.21712 0.05310
# Poissons Ratio (z) = 0.33978 0.06198
#
# Static dielectric constant tensor:
#      x y z
#    x 4.071670 0.000000 0.000000 
#    y 0.000000 4.018320 0.000000 
#    z 0.000000 0.000000 3.710370 
# 
# 
# High freq. dielectric constant tensor:
#      x y z
#    x 1.873130 0.000000 0.000000 
#    y 0.000000 1.867550 0.000000 
#    z 0.000000 0.000000 1.851770 
# 
# From -- ./inp_files/4652.got.cif
#   From: 2010.03.12/outbox.cif.g09.slc.cpg/sg41_3_cif.got.tgz:4652.got - 2010.04.14 01:55:53.
