data_PCOD8185921
_publ_section_title
;
Structure prediction by ZEFSAII (Michael W. Deem and Ramdas Pophale) SiO2 
 PCOD8185921
Probable space group: F M M 2
;
_chemical_formula_sum "Si O2"
_cell_formula_units_Z 64
_cell_length_a 12.222894
_cell_length_b 13.533315
_cell_length_c 14.294407
_cell_angle_alpha 90.000000
_cell_angle_beta 90.000000
_cell_angle_gamma 90.000000
_cell_volume 2364.527555
_symmetry_space_group_name_H-M "F M M 2"
_symmetry_group_IT_number 42
_symmetry_cell_setting 'orthorhombic'
loop_
_space_group_symop_operation_xyz
x,y,z
-x,-y,z
-x,y,z
x,-y,z
x,1/2+y,1/2+z
-x,1/2-y,1/2+z
-x,1/2+y,1/2+z
x,1/2-y,1/2+z
1/2+x,y,1/2+z
1/2-x,-y,1/2+z
1/2-x,y,1/2+z
1/2+x,-y,1/2+z
1/2+x,1/2+y,z
1/2-x,1/2-y,z
1/2-x,1/2+y,z
1/2+x,1/2-y,z
loop_
_atom_site_type_symbol
_atom_site_label
_atom_site_fract_x
_atom_site_fract_y
_atom_site_fract_z
Si Si1 0.379227 0.500000 0.789490
Si Si2 0.625395 0.198282 0.205100
Si Si3 0.619237 0.500000 0.008565
Si Si4 0.370951 0.111845 0.809702
Si Si5 0.679743 0.889847 0.018393
O O1 0.500000 0.500000 0.741656
O O2 0.319127 0.398331 0.755617
O O3 0.393160 0.500000 0.898722
O O4 0.500000 0.201651 0.238043
O O5 0.677091 0.304254 0.237432
O O6 0.633735 0.187934 0.092896
O O7 0.500000 0.500000 0.058571
O O8 0.688582 0.598194 0.035506
O O9 0.500000 0.101555 0.793935
O O10 0.346655 0.150108 0.914845
O O11 0.318551 0.000000 0.795752
O O12 0.625821 0.000000 0.030094
#
# Coordination Sequence:
#
# PCOD8185921 Si02
#       5
#     8  16   8  16  16
#     4   9  17  32  58  97 137 177 230 301 372 432
#     4  10  18  32  64 107 146 186 239 292 355 447
#     4   9  19  36  63  97 137 183 243 313 375 424
#     4   9  18  33  59 100 151 199 239 292 361 436
#     4   9  18  34  63  99 136 187 243 302 353 432
#
# _framework density 27.066717000000001
#
# number of rings (size 3 to 8) (size 9 to 14) (size 15 to 20)
#    0.750    2.000    1.250    0.750    0.000    1.000 
#    0.000    1.250    2.750   10.500    0.000   28.000 
#    0.000    0.000    0.000    0.000    0.000    0.000 
#
# Total GULP energy -198351.826369 kJ/mol
# GULP energy per Si atom -12396.989148 kJ/mol
# Density = 2.700511 g / cm^3
# Si number density = 27.066717 Si / 1000 Ang^3
#
#
#
# Elastic Constant Matrix: (Units=GPa)
#
#
# Indices 1 2 3 4 5 6 
#
# 1 77.2851 61.3478 0.2622 0.0000 0.0000 0.0000
# 2 61.3478 201.2435 105.6731 0.0000 0.0000 0.0000
# 3 0.2622 105.6731 166.1078 0.0000 0.0000 0.0000
# 4 0.0000 0.0000 0.0000 52.5918 0.0000 0.0000
# 5 0.0000 0.0000 0.0000 0.0000 20.7129 0.0000
# 6 0.0000 0.0000 0.0000 0.0000 0.0000 29.3511
#
#
#
# Elastic Compliance Matrix: (Units=1/GPa)
#
#
# Indices 1 2 3 4 5 6 
#
# 1 0.020262 -0.009250 0.005852 0.000000 0.000000 0.000000
# 2 -0.009250 0.011684 -0.007419 0.000000 0.000000 0.000000
# 3 0.005852 -0.007419 0.010730 0.000000 0.000000 0.000000
# 4 0.000000 0.000000 0.000000 0.019014 0.000000 0.000000
# 5 0.000000 0.000000 0.000000 0.000000 0.048279 0.000000
# 6 0.000000 0.000000 0.000000 0.000000 0.000000 0.034070
#
#
# Mechanical properties :
#
#
# Convention : Reuss Voigt Hill
#
# Bulk Modulus (GPa) = 47.51838 86.57808 67.04823
# Shear Modulus (GPa) = 28.95415 39.02138 33.98777
#
# Velocity S-wave (km/s) = 3.27423 3.80106 3.54743
# Velocity P-wave (km/s) = 5.64696 7.16383 6.45014
#
# Compressibility (1/GPa) = 0.02104449
#
# Stress axis : x y z
#
# Youngs Moduli (GPa) = 49.35459 85.58439 93.19233
#
# Poissons Ratio (x) = 0.79163 -0.54540
# Poissons Ratio (y) = 0.45652 0.69136
# Poissons Ratio (z) = -0.28884 0.63492
#
# Static dielectric constant tensor:
#      x y z
#    x 5.738400 0.000000 0.000000 
#    y 0.000000 5.101950 0.000000 
#    z 0.000000 0.000000 4.344530 
# 
# 
# High freq. dielectric constant tensor:
#      x y z
#    x 2.139740 0.000000 0.000000 
#    y 0.000000 2.090920 0.000000 
#    z 0.000000 0.000000 2.064220 
# 
# From -- ./inp_files/19615.got.cif
#   From: 2010.03.12/outbox.cif.g09.slc.cpg/sg42_10_cif.got.tgz:19615.got - 2010.04.14 02:04:31.
