data_PCOD8185279
_publ_section_title
;
Structure prediction by ZEFSAII (Michael W. Deem and Ramdas Pophale) SiO2 
 PCOD8185279
Probable space group: A B A 2
;
_chemical_formula_sum "Si O2"
_cell_formula_units_Z 60
_cell_length_a 24.708441
_cell_length_b 9.608130
_cell_length_c 10.669022
_cell_angle_alpha 90.000000
_cell_angle_beta 90.000000
_cell_angle_gamma 90.000000
_cell_volume 2532.846235
_symmetry_space_group_name_H-M "A B A 2"
_symmetry_group_IT_number 41
_symmetry_cell_setting 'orthorhombic'
loop_
_space_group_symop_operation_xyz
x,y,z
-x,-y,z
1/2-x,y,1/2+z
1/2+x,-y,1/2+z
x,1/2+y,1/2+z
-x,1/2-y,1/2+z
1/2-x,1/2+y,z
1/2+x,1/2-y,z
loop_
_atom_site_type_symbol
_atom_site_label
_atom_site_fract_x
_atom_site_fract_y
_atom_site_fract_z
Si Si1 0.890524 0.132763 0.417140
Si Si2 0.105285 0.621887 0.751670
Si Si3 0.517774 0.256090 0.091445
Si Si4 0.345919 0.417409 0.776963
Si Si5 0.779686 0.678496 0.064218
Si Si6 0.500000 0.500000 0.928411
Si Si7 0.924067 0.871481 0.740817
Si Si8 0.186850 0.526284 0.536169
O O1 0.934901 0.171307 0.521471
O O2 0.830122 0.145800 0.472223
O O3 0.898008 0.229859 0.294061
O O4 0.899745 0.975645 0.372276
O O5 0.045390 0.650343 0.699316
O O6 0.127144 0.768465 0.802508
O O7 0.141613 0.546363 0.643771
O O8 0.473116 0.152349 0.145473
O O9 0.484573 0.362094 0.005442
O O10 0.290768 0.379195 0.704457
O O11 0.379806 0.521177 0.682770
O O12 0.340290 0.515471 0.899688
O O13 0.721713 0.614756 0.033647
O O14 0.771857 0.844622 0.052762
O O15 0.553897 0.468074 0.852701
#
# Coordination Sequence:
#
# PCOD8185279 Si02
#       8
#     8   8   8   8   8   4   8   8
#     4  11  24  48  70 106 151 184 251 307 358 453
#     4  11  25  47  68 108 147 189 240 308 363 438
#     4  11  22  47  68 105 150 191 245 297 364 440
#     4  11  24  48  69 103 152 184 247 310 367 447
#     4  11  26  46  71 106 143 190 246 311 371 443
#     4  10  22  38  66  98 140 188 232 286 356 426
#     4  11  23  45  73 100 144 197 235 306 369 431
#     4  11  25  47  75 101 148 193 244 311 375 436
#
# _framework density 23.688765
#
# number of rings (size 3 to 8) (size 9 to 14) (size 15 to 20)
#    0.000    1.067    4.000    2.400    3.733    2.133 
#    9.600    0.000    0.000    0.000    0.000    0.000 
#    0.000    0.000    0.000    0.000    0.000    0.000 
#
# Total GULP energy -371806.128529 kJ/mol
# GULP energy per Si atom -12393.537618 kJ/mol
# Density = 2.363485 g / cm^3
# Si number density = 23.688765 Si / 1000 Ang^3
#
#
#
# Elastic Constant Matrix: (Units=GPa)
#
#
# Indices 1 2 3 4 5 6 
#
# 1 56.7667 21.3216 4.4402 0.0000 0.0000 0.0000
# 2 21.3216 108.7178 21.0587 0.0000 0.0000 0.0000
# 3 4.4402 21.0587 62.0141 0.0000 0.0000 0.0000
# 4 0.0000 0.0000 0.0000 36.9880 0.0000 0.0000
# 5 0.0000 0.0000 0.0000 0.0000 16.3556 0.0000
# 6 0.0000 0.0000 0.0000 0.0000 0.0000 47.0309
#
#
#
# Elastic Compliance Matrix: (Units=1/GPa)
#
#
# Indices 1 2 3 4 5 6 
#
# 1 0.019017 -0.003710 -0.000102 0.000000 0.000000 0.000000
# 2 -0.003710 0.010569 -0.003324 0.000000 0.000000 0.000000
# 3 -0.000102 -0.003324 0.017261 0.000000 0.000000 0.000000
# 4 0.000000 0.000000 0.000000 0.027036 0.000000 0.000000
# 5 0.000000 0.000000 0.000000 0.000000 0.061141 0.000000
# 6 0.000000 0.000000 0.000000 0.000000 0.000000 0.021263
#
#
# Mechanical properties :
#
#
# Convention : Reuss Voigt Hill
#
# Bulk Modulus (GPa) = 30.69604 35.68219 33.18912
# Shear Modulus (GPa) = 27.56075 32.12010 29.84043
#
# Velocity S-wave (km/s) = 3.41464 3.68628 3.55306
# Velocity P-wave (km/s) = 5.34159 5.76314 5.55636
#
# Compressibility (1/GPa) = 0.03257749
#
# Stress axis : x y z
#
# Youngs Moduli (GPa) = 52.58347 94.61195 57.93323
#
# Poissons Ratio (x) = 0.35101 0.00590
# Poissons Ratio (y) = 0.19508 0.19254
# Poissons Ratio (z) = 0.00535 0.31445
#
# Static dielectric constant tensor:
#      x y z
#    x 4.066850 0.000000 0.000000 
#    y 0.000000 4.535670 0.000000 
#    z 0.000000 0.000000 4.229710 
# 
# 
# High freq. dielectric constant tensor:
#      x y z
#    x 1.932660 0.000000 0.000000 
#    y 0.000000 1.958090 0.000000 
#    z 0.000000 0.000000 1.929390 
# 
# From -- ./inp_files/6579.got.cif
#   From: 2010.03.12/outbox.cif.g09.slc.cpg/sg41_4_cif.got.tgz:6579.got - 2010.04.14 01:55:53.
