data_PCOD8185814
_publ_section_title
;
Structure prediction by ZEFSAII (Michael W. Deem and Ramdas Pophale) SiO2 
 PCOD8185814
Probable space group: F M M 2
;
_chemical_formula_sum "Si O2"
_cell_formula_units_Z 80
_cell_length_a 8.751409
_cell_length_b 19.902925
_cell_length_c 25.975085
_cell_angle_alpha 90.000000
_cell_angle_beta 90.000000
_cell_angle_gamma 90.000000
_cell_volume 4524.304901
_symmetry_space_group_name_H-M "F M M 2"
_symmetry_group_IT_number 42
_symmetry_cell_setting 'orthorhombic'
loop_
_space_group_symop_operation_xyz
x,y,z
-x,-y,z
-x,y,z
x,-y,z
x,1/2+y,1/2+z
-x,1/2-y,1/2+z
-x,1/2+y,1/2+z
x,1/2-y,1/2+z
1/2+x,y,1/2+z
1/2-x,-y,1/2+z
1/2-x,y,1/2+z
1/2+x,-y,1/2+z
1/2+x,1/2+y,z
1/2-x,1/2-y,z
1/2-x,1/2+y,z
1/2+x,1/2-y,z
loop_
_atom_site_type_symbol
_atom_site_label
_atom_site_fract_x
_atom_site_fract_y
_atom_site_fract_z
Si Si1 0.181455 0.575018 0.480650
Si Si2 0.681771 0.074923 0.365811
Si Si3 0.321171 0.822870 0.282086
Si Si4 0.818586 0.324149 0.566995
Si Si5 0.321457 0.822747 0.168990
O O1 0.242613 0.500000 0.493743
O O2 0.235240 0.596100 0.423224
O O3 0.246032 0.628837 0.521318
O O4 0.000000 0.574236 0.483058
O O5 0.500000 0.075286 0.362531
O O6 0.751115 0.126753 0.324236
O O7 0.742238 0.000000 0.353209
O O8 0.500000 0.813747 0.290886
O O9 0.250000 0.750000 0.289222
O O10 0.290839 0.855488 0.225202
O O11 0.750000 0.250000 0.559956
O O12 0.762663 0.358661 0.620851
O O13 0.000000 0.319577 0.566396
O O14 0.500000 0.818318 0.156430
O O15 0.250000 0.750000 0.172685
#
# Coordination Sequence:
#
# PCOD8185814 Si02
#       5
#    16  16  16  16  16
#     4   8  15  28  45  64  86 114 147 179 211 252
#     4   8  14  27  46  65  86 113 145 179 213 252
#     4   9  17  28  45  68  89 112 143 178 215 254
#     4  10  18  28  45  67  89 113 144 180 215 253
#     4   9  16  27  42  62  89 117 144 173 211 257
#
# _framework density 17.682275000000001
#
# number of rings (size 3 to 8) (size 9 to 14) (size 15 to 20)
#    0.000    3.200    0.000    3.600    0.000    1.600 
#    0.000    1.000    0.000    5.400    0.000    5.600 
#    0.000    0.000    0.000    0.000    0.000    0.000 
#
# Total GULP energy -247769.677373 kJ/mol
# GULP energy per Si atom -12388.483869 kJ/mol
# Density = 1.764203 g / cm^3
# Si number density = 17.682275 Si / 1000 Ang^3
#
#
#
# Elastic Constant Matrix: (Units=GPa)
#
#
# Indices 1 2 3 4 5 6 
#
# 1 40.0426 20.3282 32.4955 0.0000 0.0000 0.0000
# 2 20.3282 92.4392 94.1616 0.0000 0.0000 0.0000
# 3 32.4955 94.1616 186.6178 0.0000 0.0000 0.0000
# 4 0.0000 0.0000 0.0000 19.8068 0.0000 0.0000
# 5 0.0000 0.0000 0.0000 0.0000 14.3186 0.0000
# 6 0.0000 0.0000 0.0000 0.0000 0.0000 12.3086
#
#
#
# Elastic Compliance Matrix: (Units=1/GPa)
#
#
# Indices 1 2 3 4 5 6 
#
# 1 0.029377 -0.002571 -0.003818 0.000000 0.000000 0.000000
# 2 -0.002571 0.022483 -0.010896 0.000000 0.000000 0.000000
# 3 -0.003818 -0.010896 0.011521 0.000000 0.000000 0.000000
# 4 0.000000 0.000000 0.000000 0.050488 0.000000 0.000000
# 5 0.000000 0.000000 0.000000 0.000000 0.069839 0.000000
# 6 0.000000 0.000000 0.000000 0.000000 0.000000 0.081244
#
#
# Mechanical properties :
#
#
# Convention : Reuss Voigt Hill
#
# Bulk Modulus (GPa) = 34.71003 68.11891 51.41447
# Shear Modulus (GPa) = 16.17459 20.76108 18.46784
#
# Velocity S-wave (km/s) = 3.02774 3.43026 3.23526
# Velocity P-wave (km/s) = 5.64760 7.36861 6.56475
#
# Compressibility (1/GPa) = 0.02881012
#
# Stress axis : x y z
#
# Youngs Moduli (GPa) = 34.04009 44.47854 86.79509
#
# Poissons Ratio (x) = 0.11435 0.33140
# Poissons Ratio (y) = 0.08752 0.94576
# Poissons Ratio (z) = 0.12997 0.48466
#
# Static dielectric constant tensor:
#      x y z
#    x 2.972350 0.000000 0.000000 
#    y 0.000000 3.264040 0.000000 
#    z 0.000000 0.000000 4.199880 
# 
# 
# High freq. dielectric constant tensor:
#      x y z
#    x 1.650960 0.000000 0.000000 
#    y 0.000000 1.654360 0.000000 
#    z 0.000000 0.000000 1.705580 
# 
# From -- ./inp_files/33575.got.cif
#   From: 2010.03.12/outbox.cif.g09.slc.cpg/sg42_17_cif.got.tgz:33575.got - 2010.04.14 02:04:31.
