data_PCOD8185414
_publ_section_title
;
Structure prediction by ZEFSAII (Michael W. Deem and Ramdas Pophale) SiO2 
 PCOD8185414
Probable space group: A B A 2
;
_chemical_formula_sum "Si O2"
_cell_formula_units_Z 64
_cell_length_a 13.994751
_cell_length_b 9.468459
_cell_length_c 21.692482
_cell_angle_alpha 90.000000
_cell_angle_beta 90.000000
_cell_angle_gamma 90.000000
_cell_volume 2874.443155
_symmetry_space_group_name_H-M "A B A 2"
_symmetry_group_IT_number 41
_symmetry_cell_setting 'orthorhombic'
loop_
_space_group_symop_operation_xyz
x,y,z
-x,-y,z
1/2-x,y,1/2+z
1/2+x,-y,1/2+z
x,1/2+y,1/2+z
-x,1/2-y,1/2+z
1/2-x,1/2+y,z
1/2+x,1/2-y,z
loop_
_atom_site_type_symbol
_atom_site_label
_atom_site_fract_x
_atom_site_fract_y
_atom_site_fract_z
Si Si1 0.234985 0.888950 0.511110
Si Si2 0.149699 0.791657 0.740347
Si Si3 0.432257 0.863647 0.110787
Si Si4 0.972007 0.345282 0.318189
Si Si5 0.780122 0.932390 0.789920
Si Si6 0.520216 0.335159 0.425787
Si Si7 0.546534 0.152400 0.542086
Si Si8 0.765185 0.351868 0.925162
O O1 0.146776 0.882112 0.557598
O O2 0.337710 0.854222 0.543164
O O3 0.213802 0.787472 0.452409
O O4 0.237140 0.044775 0.483559
O O5 0.132451 0.835502 0.670404
O O6 0.050197 0.779069 0.774328
O O7 0.198370 0.639368 0.749079
O O8 0.221167 0.902895 0.773115
O O9 0.502656 0.728265 0.102508
O O10 0.500000 0.000000 0.117287
O O11 0.952672 0.236700 0.374338
O O12 0.000000 0.500000 0.345128
O O13 0.881538 0.361912 0.272618
O O14 0.782102 0.915868 0.864319
O O15 0.500000 0.500000 0.435203
O O16 0.505549 0.254313 0.489291
O O17 0.628406 0.312363 0.403502
O O18 0.500000 0.000000 0.533769
#
# Coordination Sequence:
#
# PCOD8185414 Si02
#       8
#     8   8   8   8   8   8   8   8
#     4  11  25  41  66 105 137 181 225 290 358 422
#     4  11  26  48  68 101 135 189 237 288 344 414
#     4  12  26  49  73  96 143 187 241 286 357 425
#     4  10  23  41  65  96 133 184 233 281 348 407
#     4  11  24  42  70  99 138 185 230 293 350 413
#     4  11  23  38  65 100 144 181 221 284 354 421
#     4  11  25  43  69 104 137 183 236 293 354 424
#     4  11  23  40  65 101 145 167 226 288 350 420
#
# _framework density 22.265181999999999
#
# number of rings (size 3 to 8) (size 9 to 14) (size 15 to 20)
#    0.000    1.000    1.250    5.625   12.250    4.000 
#    0.000    0.625    0.000    0.000    0.000    0.000 
#    0.000    0.000    0.000    0.000    0.000    0.000 
#
# Total GULP energy -396746.437067 kJ/mol
# GULP energy per Si atom -12398.326158 kJ/mol
# Density = 2.221451 g / cm^3
# Si number density = 22.265182 Si / 1000 Ang^3
#
#
#
# Elastic Constant Matrix: (Units=GPa)
#
#
# Indices 1 2 3 4 5 6 
#
# 1 74.9586 -0.1173 20.1950 0.0000 0.0000 0.0000
# 2 -0.1173 70.9697 13.4325 0.0000 0.0000 0.0000
# 3 20.1950 13.4325 75.2369 0.0000 0.0000 0.0000
# 4 0.0000 0.0000 0.0000 23.2373 0.0000 0.0000
# 5 0.0000 0.0000 0.0000 0.0000 29.8208 0.0000
# 6 0.0000 0.0000 0.0000 0.0000 0.0000 39.6862
#
#
#
# Elastic Compliance Matrix: (Units=1/GPa)
#
#
# Indices 1 2 3 4 5 6 
#
# 1 0.014423 0.000783 -0.004011 0.000000 0.000000 0.000000
# 2 0.000783 0.014626 -0.002821 0.000000 0.000000 0.000000
# 3 -0.004011 -0.002821 0.014872 0.000000 0.000000 0.000000
# 4 0.000000 0.000000 0.000000 0.043034 0.000000 0.000000
# 5 0.000000 0.000000 0.000000 0.000000 0.033534 0.000000
# 6 0.000000 0.000000 0.000000 0.000000 0.000000 0.025198
#
#
# Mechanical properties :
#
#
# Convention : Reuss Voigt Hill
#
# Bulk Modulus (GPa) = 31.42562 32.02061 31.72312
# Shear Modulus (GPa) = 29.69266 31.05918 30.37592
#
# Velocity S-wave (km/s) = 3.65580 3.73898 3.69762
# Velocity P-wave (km/s) = 5.65373 5.74914 5.70164
#
# Compressibility (1/GPa) = 0.03182117
#
# Stress axis : x y z
#
# Youngs Moduli (GPa) = 69.33575 68.37221 67.24164
#
# Poissons Ratio (x) = -0.05354 0.26971
# Poissons Ratio (y) = -0.05429 0.18972
# Poissons Ratio (z) = 0.27811 0.19291
#
# Static dielectric constant tensor:
#      x y z
#    x 4.314600 0.000000 0.000000 
#    y 0.000000 4.061510 0.000000 
#    z 0.000000 0.000000 3.935230 
# 
# 
# High freq. dielectric constant tensor:
#      x y z
#    x 1.894890 0.000000 0.000000 
#    y 0.000000 1.883000 0.000000 
#    z 0.000000 0.000000 1.860620 
# 
# From -- ./inp_files/12243.got.cif
#   From: 2010.03.12/outbox.cif.g09.slc.cpg/sg41_7_cif.got.tgz:12243.got - 2010.04.14 01:55:53.
