data_PCOD8185392
_publ_section_title
;
Structure prediction by ZEFSAII (Michael W. Deem and Ramdas Pophale) SiO2 
 PCOD8185392
Probable space group: A B A 2
;
_chemical_formula_sum "Si O2"
_cell_formula_units_Z 48
_cell_length_a 5.296967
_cell_length_b 16.283615
_cell_length_c 26.201091
_cell_angle_alpha 90.000000
_cell_angle_beta 90.000000
_cell_angle_gamma 90.000000
_cell_volume 2259.942911
_symmetry_space_group_name_H-M "A B A 2"
_symmetry_group_IT_number 41
_symmetry_cell_setting 'orthorhombic'
loop_
_space_group_symop_operation_xyz
x,y,z
-x,-y,z
1/2-x,y,1/2+z
1/2+x,-y,1/2+z
x,1/2+y,1/2+z
-x,1/2-y,1/2+z
1/2-x,1/2+y,z
1/2+x,1/2-y,z
loop_
_atom_site_type_symbol
_atom_site_label
_atom_site_fract_x
_atom_site_fract_y
_atom_site_fract_z
Si Si1 0.500000 0.000000 0.522220
Si Si2 0.624653 0.085967 0.783654
Si Si3 0.312551 0.069435 0.940357
Si Si4 0.921209 0.802435 0.367093
Si Si5 0.704875 0.696037 0.186846
Si Si6 0.000000 0.000000 0.850864
Si Si7 0.243577 0.954766 0.120063
O O1 0.604770 0.926260 0.485600
O O2 0.284511 0.959314 0.558228
O O3 0.429606 0.136402 0.818591
O O4 0.718885 0.136775 0.735268
O O5 0.500000 0.000000 0.766100
O O6 0.874151 0.070147 0.816725
O O7 0.443640 0.154863 0.923871
O O8 0.500000 0.000000 0.960677
O O9 0.204512 0.043654 0.885751
O O10 0.152482 0.740727 0.363127
O O11 0.432995 0.739451 0.186820
O O12 0.742145 0.640145 0.136561
O O13 0.500000 0.000000 0.137658
O O14 0.000000 0.000000 0.145551
#
# Coordination Sequence:
#
# PCOD8185392 Si02
#       7
#     4   8   8   8   8   4   8
#     4   9  24  40  80  96 132 170 252 291 334 404
#     4  12  25  41  68 100 136 193 242 277 328 415
#     4  11  21  42  67 101 132 183 238 279 337 399
#     4  12  25  41  61  97 147 182 218 276 344 401
#     4  12  28  46  70 106 148 181 220 293 364 417
#     4  11  20  38  68  96 136 172 246 283 308 392
#     4  10  22  47  74 105 126 183 237 292 343 418
#
# _framework density 21.239474999999999
#
# number of rings (size 3 to 8) (size 9 to 14) (size 15 to 20)
#    0.500    0.333    3.333    4.000    5.833    0.000 
#    0.000    1.667    0.000    0.000    0.000    0.000 
#    0.000    0.000    0.000    0.000    0.000    0.000 
#
# Total GULP energy -297481.457629 kJ/mol
# GULP energy per Si atom -12395.060735 kJ/mol
# Density = 2.119113 g / cm^3
# Si number density = 21.239475 Si / 1000 Ang^3
#
#
#
# Elastic Constant Matrix: (Units=GPa)
#
#
# Indices 1 2 3 4 5 6 
#
# 1 106.3212 33.7392 25.5848 0.0000 0.0000 0.0000
# 2 33.7392 105.9143 51.0664 0.0000 0.0000 0.0000
# 3 25.5848 51.0664 116.2451 0.0000 0.0000 0.0000
# 4 0.0000 0.0000 0.0000 20.7891 0.0000 0.0000
# 5 0.0000 0.0000 0.0000 0.0000 27.5920 0.0000
# 6 0.0000 0.0000 0.0000 0.0000 0.0000 50.6705
#
#
#
# Elastic Compliance Matrix: (Units=1/GPa)
#
#
# Indices 1 2 3 4 5 6 
#
# 1 0.010568 -0.002848 -0.001075 0.000000 0.000000 0.000000
# 2 -0.002848 0.012746 -0.004973 0.000000 0.000000 0.000000
# 3 -0.001075 -0.004973 0.011024 0.000000 0.000000 0.000000
# 4 0.000000 0.000000 0.000000 0.048102 0.000000 0.000000
# 5 0.000000 0.000000 0.000000 0.000000 0.036242 0.000000
# 6 0.000000 0.000000 0.000000 0.000000 0.000000 0.019735
#
#
# Mechanical properties :
#
#
# Convention : Reuss Voigt Hill
#
# Bulk Modulus (GPa) = 60.43492 61.02905 60.73198
# Shear Modulus (GPa) = 30.91678 34.34967 32.63322
#
# Velocity S-wave (km/s) = 3.81941 4.02587 3.92400
# Velocity P-wave (km/s) = 6.92577 7.09975 7.01330
#
# Compressibility (1/GPa) = 0.01654673
#
# Stress axis : x y z
#
# Youngs Moduli (GPa) = 94.62592 78.45309 90.71511
#
# Poissons Ratio (x) = 0.22346 0.09749
# Poissons Ratio (y) = 0.26952 0.45109
# Poissons Ratio (z) = 0.10169 0.39012
#
# Static dielectric constant tensor:
#      x y z
#    x 3.885590 0.000000 0.000000 
#    y 0.000000 3.924280 0.000000 
#    z 0.000000 0.000000 3.746590 
# 
# 
# High freq. dielectric constant tensor:
#      x y z
#    x 1.848430 0.000000 0.000000 
#    y 0.000000 1.823800 0.000000 
#    z 0.000000 0.000000 1.826350 
# 
# From -- ./inp_files/12396.got.cif
#   From: 2010.03.12/outbox.cif.g09.slc.cpg/sg41_7_cif.got.tgz:12396.got - 2010.04.14 01:55:53.
