data_PCOD8185046
_publ_section_title
;
Structure prediction by ZEFSAII (Michael W. Deem and Ramdas Pophale) SiO2 
 PCOD8185046
Probable space group: A B A 2
;
_chemical_formula_sum "Si O2"
_cell_formula_units_Z 60
_cell_length_a 20.862911
_cell_length_b 25.968289
_cell_length_c 5.172454
_cell_angle_alpha 90.000000
_cell_angle_beta 90.000000
_cell_angle_gamma 90.000000
_cell_volume 2802.301622
_symmetry_space_group_name_H-M "A B A 2"
_symmetry_group_IT_number 41
_symmetry_cell_setting 'orthorhombic'
loop_
_space_group_symop_operation_xyz
x,y,z
-x,-y,z
1/2-x,y,1/2+z
1/2+x,-y,1/2+z
x,1/2+y,1/2+z
-x,1/2-y,1/2+z
1/2-x,1/2+y,z
1/2+x,1/2-y,z
loop_
_atom_site_type_symbol
_atom_site_label
_atom_site_fract_x
_atom_site_fract_y
_atom_site_fract_z
Si Si1 0.789606 0.626954 0.976000
Si Si2 0.101493 0.027311 0.800886
Si Si3 0.947426 0.376205 0.062459
Si Si4 0.210877 0.579877 0.555836
Si Si5 0.887265 0.831754 0.050755
Si Si6 0.500000 0.500000 0.143678
Si Si7 0.789767 0.747829 0.994697
Si Si8 0.578463 0.071374 0.005680
O O1 0.741724 0.610072 0.747018
O O2 0.857363 0.600095 0.920262
O O3 0.802969 0.687416 0.987145
O O4 0.093685 0.069609 0.569193
O O5 0.164787 0.033215 0.973072
O O6 0.097209 0.966885 0.738604
O O7 0.039069 0.041459 0.973100
O O8 0.934355 0.340661 0.310340
O O9 0.925677 0.344295 0.811672
O O10 0.023579 0.386879 0.065710
O O11 0.229598 0.575440 0.856838
O O12 0.175698 0.633554 0.512036
O O13 0.859297 0.773919 0.042506
O O14 0.552595 0.532124 0.294152
O O15 0.741516 0.764818 0.223325
#
# Coordination Sequence:
#
# PCOD8185046 Si02
#       8
#     8   8   8   8   8   4   8   8
#     4  10  26  46  68  98 128 168 220 269 315 378
#     4  11  24  38  61  87 124 172 217 254 304 393
#     4  11  22  39  60  98 124 164 214 263 314 383
#     4  11  23  36  53  86 124 152 194 256 316 359
#     4  11  22  37  65  92 128 162 209 261 323 391
#     4  12  22  42  66  90 118 178 228 250 318 388
#     4  10  20  42  69  93 126 172 217 257 324 397
#     4  12  24  41  68  89 130 175 217 264 319 380
#
# _framework density 21.410972999999998
#
# number of rings (size 3 to 8) (size 9 to 14) (size 15 to 20)
#    0.000    1.067    2.667    4.800    3.733    1.067 
#    0.000    1.333    0.000    0.000    0.000    0.000 
#    0.000    0.000    0.000    0.000    0.000    0.000 
#
# Total GULP energy -371895.184147 kJ/mol
# GULP energy per Si atom -12396.506138 kJ/mol
# Density = 2.136224 g / cm^3
# Si number density = 21.410973 Si / 1000 Ang^3
#
#
#
# Elastic Constant Matrix: (Units=GPa)
#
#
# Indices 1 2 3 4 5 6 
#
# 1 113.8640 45.5937 30.1785 0.0000 0.0000 0.0000
# 2 45.5937 63.5814 30.2199 0.0000 0.0000 0.0000
# 3 30.1785 30.2199 120.4437 0.0000 0.0000 0.0000
# 4 0.0000 0.0000 0.0000 -8.9789 0.0000 0.0000
# 5 0.0000 0.0000 0.0000 0.0000 23.5346 0.0000
# 6 0.0000 0.0000 0.0000 0.0000 0.0000 43.3629
#
#
#
# Elastic Compliance Matrix: (Units=1/GPa)
#
#
# Indices 1 2 3 4 5 6 
#
# 1 0.012424 -0.008436 -0.000996 0.000000 0.000000 0.000000
# 2 -0.008436 0.023585 -0.003804 0.000000 0.000000 0.000000
# 3 -0.000996 -0.003804 0.009507 0.000000 0.000000 0.000000
# 4 0.000000 0.000000 0.000000 -0.111372 0.000000 0.000000
# 5 0.000000 0.000000 0.000000 0.000000 0.042491 0.000000
# 6 0.000000 0.000000 0.000000 0.000000 0.000000 0.023061
#
#
# Mechanical properties :
#
#
# Convention : Reuss Voigt Hill
#
# Bulk Modulus (GPa) = 52.51053 56.65258 54.58155
# Shear Modulus (GPa) = 153.76830 24.37686 89.07258
#
# Velocity S-wave (km/s) = 8.48372 3.37786 6.45691
# Velocity P-wave (km/s) = 10.97920 6.45990 9.00758
#
# Compressibility (1/GPa) = 0.01904380
#
# Stress axis : x y z
#
# Youngs Moduli (GPa) = 80.48666 42.39958 105.18858
#
# Poissons Ratio (x) = 0.35768 0.10482
# Poissons Ratio (y) = 0.67897 0.40013
# Poissons Ratio (z) = 0.08020 0.16128
#
# Static dielectric constant tensor:
#      x y z
#    x 3.909420 0.000000 0.000000 
#    y 0.000000 3.784940 0.000000 
#    z 0.000000 0.000000 4.044100 
# 
# 
# High freq. dielectric constant tensor:
#      x y z
#    x 1.839520 0.000000 0.000000 
#    y 0.000000 1.818400 0.000000 
#    z 0.000000 0.000000 1.854760 
# 
# From -- ./inp_files/795.got.cif
#   From: 2010.03.12/outbox.cif.g09.slc.cpg/sg41_1_cif.got.tgz:795.got - 2010.04.14 01:55:53.
