data_PCOD8185275
_publ_section_title
;
Structure prediction by ZEFSAII (Michael W. Deem and Ramdas Pophale) SiO2 
 PCOD8185275
Probable space group: A B A 2
;
_chemical_formula_sum "Si O2"
_cell_formula_units_Z 56
_cell_length_a 21.828415
_cell_length_b 10.780326
_cell_length_c 11.402728
_cell_angle_alpha 90.000000
_cell_angle_beta 90.000000
_cell_angle_gamma 90.000000
_cell_volume 2683.260645
_symmetry_space_group_name_H-M "A B A 2"
_symmetry_group_IT_number 41
_symmetry_cell_setting 'orthorhombic'
loop_
_space_group_symop_operation_xyz
x,y,z
-x,-y,z
1/2-x,y,1/2+z
1/2+x,-y,1/2+z
x,1/2+y,1/2+z
-x,1/2-y,1/2+z
1/2-x,1/2+y,z
1/2+x,1/2-y,z
loop_
_atom_site_type_symbol
_atom_site_label
_atom_site_fract_x
_atom_site_fract_y
_atom_site_fract_z
Si Si1 0.433060 0.966740 0.013250
Si Si2 0.187424 0.116670 0.551025
Si Si3 0.167519 0.818174 0.231629
Si Si4 0.809284 0.373322 0.425339
Si Si5 0.066355 0.003455 0.244209
Si Si6 0.709575 0.071550 0.251109
Si Si7 0.873660 0.765931 0.142325
O O1 0.413356 0.839323 0.076886
O O2 0.500000 0.000000 0.068050
O O3 0.382458 0.076424 0.023201
O O4 0.440563 0.951096 0.875462
O O5 0.188039 0.248451 0.614730
O O6 0.234703 0.135013 0.441644
O O7 0.213348 0.011061 0.635189
O O8 0.157728 0.725669 0.340403
O O9 0.220123 0.906462 0.282788
O O10 0.110700 0.900916 0.188529
O O11 0.822768 0.505075 0.362243
O O12 0.841458 0.359261 0.550512
O O13 0.088264 0.145534 0.229223
O O14 0.000000 0.000000 0.182196
O O15 0.675940 0.200765 0.225481
#
# Coordination Sequence:
#
# PCOD8185275 Si02
#       7
#     8   8   8   8   8   8   8
#     4  10  23  44  66  90 127 173 215 256 316 379
#     4  10  22  38  63  94 126 170 207 259 325 373
#     4  11  22  38  62  95 131 159 217 260 313 387
#     4  11  22  38  65  92 132 163 203 268 324 376
#     4  11  25  43  65  93 126 171 219 259 308 384
#     4  10  23  38  61  98 125 163 209 259 322 382
#     4  11  23  45  64  94 129 167 207 268 317 376
#
# _framework density 20.870128999999999
#
# number of rings (size 3 to 8) (size 9 to 14) (size 15 to 20)
#    0.000    1.429    2.857    1.714    8.000    1.143 
#    0.000    0.000    0.000    0.000    0.000    0.000 
#    0.000    0.000    0.000    0.000    0.000    0.000 
#
# Total GULP energy -346942.963363 kJ/mol
# GULP energy per Si atom -12390.820120 kJ/mol
# Density = 2.082263 g / cm^3
# Si number density = 20.870129 Si / 1000 Ang^3
#
#
#
# Elastic Constant Matrix: (Units=GPa)
#
#
# Indices 1 2 3 4 5 6 
#
# 1 117.2962 50.1324 15.7593 0.0000 0.0000 0.0000
# 2 50.1324 105.0320 27.5732 0.0000 0.0000 0.0000
# 3 15.7593 27.5732 57.6477 0.0000 0.0000 0.0000
# 4 0.0000 0.0000 0.0000 27.8780 0.0000 0.0000
# 5 0.0000 0.0000 0.0000 0.0000 22.6485 0.0000
# 6 0.0000 0.0000 0.0000 0.0000 0.0000 30.7293
#
#
#
# Elastic Compliance Matrix: (Units=1/GPa)
#
#
# Indices 1 2 3 4 5 6 
#
# 1 0.010726 -0.004974 -0.000553 0.000000 0.000000 0.000000
# 2 -0.004974 0.013195 -0.004951 0.000000 0.000000 0.000000
# 3 -0.000553 -0.004951 0.019866 0.000000 0.000000 0.000000
# 4 0.000000 0.000000 0.000000 0.035871 0.000000 0.000000
# 5 0.000000 0.000000 0.000000 0.000000 0.044153 0.000000
# 6 0.000000 0.000000 0.000000 0.000000 0.000000 0.032542
#
#
# Mechanical properties :
#
#
# Convention : Reuss Voigt Hill
#
# Bulk Modulus (GPa) = 43.80255 51.87842 47.84049
# Shear Modulus (GPa) = 27.03874 28.68523 27.86198
#
# Velocity S-wave (km/s) = 3.60331 3.71140 3.65775
# Velocity P-wave (km/s) = 6.19237 6.57858 6.38839
#
# Compressibility (1/GPa) = 0.02282972
#
# Stress axis : x y z
#
# Youngs Moduli (GPa) = 93.23376 75.78608 50.33680
#
# Poissons Ratio (x) = 0.37698 0.02783
# Poissons Ratio (y) = 0.46377 0.24924
# Poissons Ratio (z) = 0.05155 0.37525
#
# Static dielectric constant tensor:
#      x y z
#    x 4.140380 0.000000 0.000000 
#    y 0.000000 3.833090 0.000000 
#    z 0.000000 0.000000 3.646140 
# 
# 
# High freq. dielectric constant tensor:
#      x y z
#    x 1.810190 0.000000 0.000000 
#    y 0.000000 1.824480 0.000000 
#    z 0.000000 0.000000 1.807810 
# 
# From -- ./inp_files/6219.got.cif
#   From: 2010.03.12/outbox.cif.g09.slc.cpg/sg41_4_cif.got.tgz:6219.got - 2010.04.14 01:55:53.
