data_PCOD8185876
_publ_section_title
;
Structure prediction by ZEFSAII (Michael W. Deem and Ramdas Pophale) SiO2 
 PCOD8185876
Probable space group: F M M 2
;
_chemical_formula_sum "Si O2"
_cell_formula_units_Z 104
_cell_length_a 18.672278
_cell_length_b 21.835605
_cell_length_c 15.138272
_cell_angle_alpha 90.000000
_cell_angle_beta 90.000000
_cell_angle_gamma 90.000000
_cell_volume 6172.183630
_symmetry_space_group_name_H-M "F M M 2"
_symmetry_group_IT_number 42
_symmetry_cell_setting 'orthorhombic'
loop_
_space_group_symop_operation_xyz
x,y,z
-x,-y,z
-x,y,z
x,-y,z
x,1/2+y,1/2+z
-x,1/2-y,1/2+z
-x,1/2+y,1/2+z
x,1/2-y,1/2+z
1/2+x,y,1/2+z
1/2-x,-y,1/2+z
1/2-x,y,1/2+z
1/2+x,-y,1/2+z
1/2+x,1/2+y,z
1/2-x,1/2-y,z
1/2-x,1/2+y,z
1/2+x,1/2-y,z
loop_
_atom_site_type_symbol
_atom_site_label
_atom_site_fract_x
_atom_site_fract_y
_atom_site_fract_z
Si Si1 0.750000 0.750000 0.993371
Si Si2 0.844754 0.736862 0.156845
Si Si3 0.777717 0.349343 0.716134
Si Si4 0.078239 0.376629 0.142115
Si Si5 0.216748 0.929735 0.569576
Si Si6 0.581008 0.428523 0.833698
Si Si7 0.724832 0.875687 0.399100
O O1 0.734268 0.693171 0.931153
O O2 0.818993 0.740311 0.055280
O O3 0.848165 0.805414 0.200371
O O4 0.789766 0.695811 0.213004
O O5 0.917905 0.697497 0.159705
O O6 0.773065 0.398504 0.637051
O O7 0.773191 0.383599 0.810313
O O8 0.138999 0.397565 0.073756
O O9 0.090229 0.415058 0.230624
O O10 0.000000 0.390653 0.102184
O O11 0.244944 0.923371 0.470209
O O12 0.209945 0.000000 0.595767
O O13 0.500000 0.410476 0.864547
O O14 0.595140 0.500000 0.850200
O O15 0.640512 0.389728 0.886002
#
# Coordination Sequence:
#
# PCOD8185876 Si02
#       7
#     8  16  16  16  16  16  16
#     4  10  18  30  54  74 104 136 172 220 262 302
#     4   9  15  35  49  74 104 136 171 219 262 311
#     4   9  18  31  51  73 103 135 171 218 260 305
#     4  10  19  34  54  77 108 141 174 218 269 317
#     4  11  21  33  51  81 109 138 181 217 262 321
#     4  10  21  35  52  78 110 141 175 219 273 323
#     4  12  19  32  56  79 104 143 176 222 265 317
#
# _framework density 16.849791
#
# number of rings (size 3 to 8) (size 9 to 14) (size 15 to 20)
#    0.000    2.000    7.692    1.846    0.000    1.538 
#    0.000    0.769    0.000    0.923    0.000    0.000 
#    0.000    0.000    0.000    0.000    0.000    0.000 
#
# Total GULP energy -322147.813346 kJ/mol
# GULP energy per Si atom -12390.300513 kJ/mol
# Density = 1.681144 g / cm^3
# Si number density = 16.849791 Si / 1000 Ang^3
#
#
#
# Elastic Constant Matrix: (Units=GPa)
#
#
# Indices 1 2 3 4 5 6 
#
# 1 64.3196 27.6712 23.9207 0.0000 0.0000 0.0000
# 2 27.6712 92.0908 23.1634 0.0000 0.0000 0.0000
# 3 23.9207 23.1634 90.4452 0.0000 0.0000 0.0000
# 4 0.0000 0.0000 0.0000 20.5421 0.0000 0.0000
# 5 0.0000 0.0000 0.0000 0.0000 18.7687 0.0000
# 6 0.0000 0.0000 0.0000 0.0000 0.0000 19.2945
#
#
#
# Elastic Compliance Matrix: (Units=1/GPa)
#
#
# Indices 1 2 3 4 5 6 
#
# 1 0.019009 -0.004754 -0.003810 0.000000 0.000000 0.000000
# 2 -0.004754 0.012795 -0.002020 0.000000 0.000000 0.000000
# 3 -0.003810 -0.002020 0.012581 0.000000 0.000000 0.000000
# 4 0.000000 0.000000 0.000000 0.048681 0.000000 0.000000
# 5 0.000000 0.000000 0.000000 0.000000 0.053280 0.000000
# 6 0.000000 0.000000 0.000000 0.000000 0.000000 0.051828
#
#
# Mechanical properties :
#
#
# Convention : Reuss Voigt Hill
#
# Bulk Modulus (GPa) = 43.06785 44.04070 43.55428
# Shear Modulus (GPa) = 22.01852 23.19441 22.60646
#
# Velocity S-wave (km/s) = 3.61883 3.71420 3.66682
# Velocity P-wave (km/s) = 6.56327 6.67740 6.62058
#
# Compressibility (1/GPa) = 0.02321918
#
# Stress axis : x y z
#
# Youngs Moduli (GPa) = 52.60553 78.15435 79.48259
#
# Poissons Ratio (x) = 0.37151 0.30284
# Poissons Ratio (y) = 0.25006 0.16053
# Poissons Ratio (z) = 0.20044 0.15785
#
# Static dielectric constant tensor:
#      x y z
#    x 3.101750 0.000000 0.000000 
#    y 0.000000 3.498120 0.000000 
#    z 0.000000 0.000000 3.098400 
# 
# 
# High freq. dielectric constant tensor:
#      x y z
#    x 1.610010 0.000000 0.000000 
#    y 0.000000 1.658990 0.000000 
#    z 0.000000 0.000000 1.639430 
# 
# From -- ./inp_files/15341.got.cif
#   From: 2010.03.12/outbox.cif.g09.slc.cpg/sg42_8_cif.got.tgz:15341.got - 2010.04.14 02:04:31.
