data_PCOD8185313
_publ_section_title
;
Structure prediction by ZEFSAII (Michael W. Deem and Ramdas Pophale) SiO2 
 PCOD8185313
Probable space group: A B A 2
;
_chemical_formula_sum "Si O2"
_cell_formula_units_Z 64
_cell_length_a 9.726471
_cell_length_b 14.973924
_cell_length_c 21.096512
_cell_angle_alpha 90.000000
_cell_angle_beta 90.000000
_cell_angle_gamma 90.000000
_cell_volume 3072.568528
_symmetry_space_group_name_H-M "A B A 2"
_symmetry_group_IT_number 41
_symmetry_cell_setting 'orthorhombic'
loop_
_space_group_symop_operation_xyz
x,y,z
-x,-y,z
1/2-x,y,1/2+z
1/2+x,-y,1/2+z
x,1/2+y,1/2+z
-x,1/2-y,1/2+z
1/2-x,1/2+y,z
1/2+x,1/2-y,z
loop_
_atom_site_type_symbol
_atom_site_label
_atom_site_fract_x
_atom_site_fract_y
_atom_site_fract_z
Si Si1 0.587592 0.802708 0.974440
Si Si2 0.376610 0.098286 0.202500
Si Si3 0.791431 0.215537 0.250401
Si Si4 0.390694 0.066727 0.346139
Si Si5 0.530404 0.247491 0.336887
Si Si6 0.295874 0.847866 0.015262
Si Si7 0.679935 0.583993 0.654820
Si Si8 0.344997 0.017516 0.934814
O O1 0.574786 0.802795 0.897922
O O2 0.655028 0.900754 0.986404
O O3 0.440272 0.796822 0.008087
O O4 0.676436 0.722785 0.002008
O O5 0.296478 0.192058 0.209530
O O6 0.388607 0.052937 0.271030
O O7 0.525379 0.115097 0.171598
O O8 0.299460 0.023609 0.159854
O O9 0.663433 0.215463 0.298464
O O10 0.931002 0.197730 0.289759
O O11 0.782547 0.133383 0.202652
O O12 0.438573 0.166015 0.363290
O O13 0.241545 0.045063 0.373429
O O14 0.500000 0.000000 0.377512
O O15 0.279615 0.886594 0.084942
O O16 0.281202 0.929267 0.966204
O O17 0.500000 0.000000 0.911830
#
# Coordination Sequence:
#
# PCOD8185313 Si02
#       8
#     8   8   8   8   8   8   8   8
#     4  11  23  43  61  96 125 172 213 276 334 383
#     4  10  22  40  65  94 126 174 216 267 327 394
#     4  11  21  40  67 101 127 174 212 274 339 389
#     4  11  18  37  64  93 125 167 209 265 335 393
#     4  11  22  38  66  97 137 161 218 275 334 400
#     4  11  26  41  66  91 129 175 223 267 322 402
#     4  11  23  41  65  94 129 178 225 261 323 404
#     4  10  24  40  62  94 127 170 219 272 329 390
#
# _framework density 20.829478000000002
#
# number of rings (size 3 to 8) (size 9 to 14) (size 15 to 20)
#    0.000    1.250    3.750    3.750    7.000    3.000 
#    0.000    0.625    0.000    3.000    0.000    0.000 
#    0.000    0.000    0.000    0.000    0.000    0.000 
#
# Total GULP energy -396755.252171 kJ/mol
# GULP energy per Si atom -12398.601630 kJ/mol
# Density = 2.078207 g / cm^3
# Si number density = 20.829478 Si / 1000 Ang^3
#
#
#
# Elastic Constant Matrix: (Units=GPa)
#
#
# Indices 1 2 3 4 5 6 
#
# 1 78.2635 32.6661 28.8819 0.0000 0.0000 0.0000
# 2 32.6661 116.6502 21.7347 0.0000 0.0000 0.0000
# 3 28.8819 21.7347 65.1661 0.0000 0.0000 0.0000
# 4 0.0000 0.0000 0.0000 26.2899 0.0000 0.0000
# 5 0.0000 0.0000 0.0000 0.0000 20.9891 0.0000
# 6 0.0000 0.0000 0.0000 0.0000 0.0000 42.4260
#
#
#
# Elastic Compliance Matrix: (Units=1/GPa)
#
#
# Indices 1 2 3 4 5 6 
#
# 1 0.016498 -0.003473 -0.006153 0.000000 0.000000 0.000000
# 2 -0.003473 0.009872 -0.001753 0.000000 0.000000 0.000000
# 3 -0.006153 -0.001753 0.018657 0.000000 0.000000 0.000000
# 4 0.000000 0.000000 0.000000 0.038037 0.000000 0.000000
# 5 0.000000 0.000000 0.000000 0.000000 0.047644 0.000000
# 6 0.000000 0.000000 0.000000 0.000000 0.000000 0.023570
#
#
# Mechanical properties :
#
#
# Convention : Reuss Voigt Hill
#
# Bulk Modulus (GPa) = 44.90915 47.40503 46.15709
# Shear Modulus (GPa) = 27.10592 29.72746 28.41669
#
# Velocity S-wave (km/s) = 3.61130 3.78190 3.69759
# Velocity P-wave (km/s) = 6.24467 6.47136 6.35902
#
# Compressibility (1/GPa) = 0.02226718
#
# Stress axis : x y z
#
# Youngs Moduli (GPa) = 60.61357 101.29678 53.59813
#
# Poissons Ratio (x) = 0.35185 0.32981
# Poissons Ratio (y) = 0.21054 0.09396
# Poissons Ratio (z) = 0.37298 0.17759
#
# Static dielectric constant tensor:
#      x y z
#    x 3.744080 0.000000 0.000000 
#    y 0.000000 4.053620 0.000000 
#    z 0.000000 0.000000 3.634060 
# 
# 
# High freq. dielectric constant tensor:
#      x y z
#    x 1.807490 0.000000 0.000000 
#    y 0.000000 1.830230 0.000000 
#    z 0.000000 0.000000 1.801440 
# 
# From -- ./inp_files/12053.got.cif
#   From: 2010.03.12/outbox.cif.g09.slc.cpg/sg41_7_cif.got.tgz:12053.got - 2010.04.14 01:55:53.
