data_PCOD8185788
_publ_section_title
;
Structure prediction by ZEFSAII (Michael W. Deem and Ramdas Pophale) SiO2 
 PCOD8185788
Probable space group: F M M 2
;
_chemical_formula_sum "Si O2"
_cell_formula_units_Z 128
_cell_length_a 23.182297
_cell_length_b 23.161442
_cell_length_c 12.603720
_cell_angle_alpha 90.000000
_cell_angle_beta 90.000000
_cell_angle_gamma 90.000000
_cell_volume 6767.383785
_symmetry_space_group_name_H-M "F M M 2"
_symmetry_group_IT_number 42
_symmetry_cell_setting 'orthorhombic'
loop_
_space_group_symop_operation_xyz
x,y,z
-x,-y,z
-x,y,z
x,-y,z
x,1/2+y,1/2+z
-x,1/2-y,1/2+z
-x,1/2+y,1/2+z
x,1/2-y,1/2+z
1/2+x,y,1/2+z
1/2-x,-y,1/2+z
1/2-x,y,1/2+z
1/2+x,-y,1/2+z
1/2+x,1/2+y,z
1/2-x,1/2-y,z
1/2-x,1/2+y,z
1/2+x,1/2-y,z
loop_
_atom_site_type_symbol
_atom_site_label
_atom_site_fract_x
_atom_site_fract_y
_atom_site_fract_z
Si Si1 0.374273 0.776934 0.741060
Si Si2 0.433022 0.067535 0.622829
Si Si3 0.267010 0.813085 0.622175
Si Si4 0.154109 0.646717 0.232910
Si Si5 0.933242 0.373234 0.839261
Si Si6 0.643585 0.641390 0.966535
Si Si7 0.434532 0.235366 0.531693
Si Si8 0.565366 0.370035 0.566716
O O1 0.311155 0.802649 0.718143
O O2 0.371859 0.709233 0.758092
O O3 0.399805 0.811472 0.841073
O O4 0.418351 0.792721 0.645529
O O5 0.500000 0.082928 0.603933
O O6 0.412884 0.087095 0.741223
O O7 0.395476 0.096046 0.530175
O O8 0.421860 0.000000 0.616502
O O9 0.250000 0.750000 0.576292
O O10 0.214079 0.849629 0.669626
O O11 0.295680 0.848947 0.526590
O O12 0.158925 0.616760 0.348747
O O13 0.109193 0.610697 0.159350
O O14 0.000000 0.357870 0.831672
O O15 0.921842 0.403224 0.954806
O O16 0.609076 0.702419 0.951827
O O17 0.500000 0.220173 0.501204
O O18 0.423976 0.303218 0.538176
O O19 0.500000 0.381249 0.606307
#
# Coordination Sequence:
#
# PCOD8185788 Si02
#       8
#    16  16  16  16  16  16  16  16
#     4   9  16  28  47  72 106 144 178 214 256 320
#     4  10  21  37  59  85 106 133 184 239 276 308
#     4   9  19  32  46  73 106 143 185 221 258 318
#     4  10  21  32  46  75 110 144 175 211 262 329
#     4  10  17  30  52  74 103 140 176 220 268 309
#     4  11  20  33  53  75 105 144 181 220 276 321
#     4   9  15  26  44  72 106 138 176 214 257 320
#     4   9  19  30  44  73 109 145 175 206 258 329
#
# _framework density 18.914252000000001
#
# number of rings (size 3 to 8) (size 9 to 14) (size 15 to 20)
#    0.000    2.375    2.500    2.250    0.000    4.000 
#    0.000    0.000    0.000    1.500    0.000    1.750 
#    0.000    0.000    0.000    0.000    0.000    0.000 
#
# Total GULP energy -396549.621814 kJ/mol
# GULP energy per Si atom -12392.175682 kJ/mol
# Density = 1.887120 g / cm^3
# Si number density = 18.914252 Si / 1000 Ang^3
#
#
#
# Elastic Constant Matrix: (Units=GPa)
#
#
# Indices 1 2 3 4 5 6 
#
# 1 88.9491 14.9100 62.9158 0.0000 0.0000 0.0000
# 2 14.9100 34.0380 18.9795 0.0000 0.0000 0.0000
# 3 62.9158 18.9795 136.0594 0.0000 0.0000 0.0000
# 4 0.0000 0.0000 0.0000 9.5924 0.0000 0.0000
# 5 0.0000 0.0000 0.0000 0.0000 22.7196 0.0000
# 6 0.0000 0.0000 0.0000 0.0000 0.0000 14.4350
#
#
#
# Elastic Compliance Matrix: (Units=1/GPa)
#
#
# Indices 1 2 3 4 5 6 
#
# 1 0.017048 -0.003331 -0.007419 0.000000 0.000000 0.000000
# 2 -0.003331 0.032508 -0.002994 0.000000 0.000000 0.000000
# 3 -0.007419 -0.002994 0.011198 0.000000 0.000000 0.000000
# 4 0.000000 0.000000 0.000000 0.104250 0.000000 0.000000
# 5 0.000000 0.000000 0.000000 0.000000 0.044015 0.000000
# 6 0.000000 0.000000 0.000000 0.000000 0.000000 0.069276
#
#
# Mechanical properties :
#
#
# Convention : Reuss Voigt Hill
#
# Bulk Modulus (GPa) = 30.06106 50.29523 40.17815
# Shear Modulus (GPa) = 15.77928 20.16546 17.97237
#
# Velocity S-wave (km/s) = 2.89148 3.26874 3.08588
# Velocity P-wave (km/s) = 5.20340 6.39493 5.82969
#
# Compressibility (1/GPa) = 0.03326563
#
# Stress axis : x y z
#
# Youngs Moduli (GPa) = 58.65740 30.76196 89.30260
#
# Poissons Ratio (x) = 0.10247 0.66250
# Poissons Ratio (y) = 0.19540 0.26739
# Poissons Ratio (z) = 0.43516 0.09211
#
# Static dielectric constant tensor:
#      x y z
#    x 3.506830 0.000000 0.000000 
#    y 0.000000 2.967230 0.000000 
#    z 0.000000 0.000000 3.726330 
# 
# 
# High freq. dielectric constant tensor:
#      x y z
#    x 1.732290 0.000000 0.000000 
#    y 0.000000 1.670920 0.000000 
#    z 0.000000 0.000000 1.743440 
# 
# From -- ./inp_files/10406.got.cif
#   From: 2010.03.12/outbox.cif.g09.slc.cpg/sg42_6_cif.got.tgz:10406.got - 2010.04.14 02:04:31.
