data_PCOD8185892
_publ_section_title
;
Structure prediction by ZEFSAII (Michael W. Deem and Ramdas Pophale) SiO2 
 PCOD8185892
Probable space group: F M M 2
;
_chemical_formula_sum "Si O2"
_cell_formula_units_Z 128
_cell_length_a 20.104783
_cell_length_b 16.655600
_cell_length_c 20.550121
_cell_angle_alpha 90.000000
_cell_angle_beta 90.000000
_cell_angle_gamma 90.000000
_cell_volume 6881.356465
_symmetry_space_group_name_H-M "F M M 2"
_symmetry_group_IT_number 42
_symmetry_cell_setting 'orthorhombic'
loop_
_space_group_symop_operation_xyz
x,y,z
-x,-y,z
-x,y,z
x,-y,z
x,1/2+y,1/2+z
-x,1/2-y,1/2+z
-x,1/2+y,1/2+z
x,1/2-y,1/2+z
1/2+x,y,1/2+z
1/2-x,-y,1/2+z
1/2-x,y,1/2+z
1/2+x,-y,1/2+z
1/2+x,1/2+y,z
1/2-x,1/2-y,z
1/2-x,1/2+y,z
1/2+x,1/2-y,z
loop_
_atom_site_type_symbol
_atom_site_label
_atom_site_fract_x
_atom_site_fract_y
_atom_site_fract_z
Si Si1 0.428223 0.909168 0.962260
Si Si2 0.925115 0.332976 0.537756
Si Si3 0.696910 0.594436 0.818305
Si Si4 0.426673 0.340616 0.594771
Si Si5 0.210002 0.406021 0.562380
Si Si6 0.574170 0.908286 0.400768
Si Si7 0.809375 0.404404 0.173197
Si Si8 0.785497 0.596415 0.934209
O O1 0.500000 0.866805 0.943376
O O2 0.361418 0.869197 0.932385
O O3 0.432054 0.000000 0.937799
O O4 0.420424 0.910063 0.040593
O O5 0.913034 0.240580 0.554341
O O6 0.866700 0.381645 0.573528
O O7 0.916810 0.347985 0.460875
O O8 0.000000 0.360797 0.559531
O O9 0.705934 0.500000 0.816948
O O10 0.623373 0.617801 0.843161
O O11 0.708304 0.627277 0.745539
O O12 0.751011 0.629823 0.868779
O O13 0.500000 0.338829 0.626607
O O14 0.375753 0.357441 0.652468
O O15 0.213544 0.500000 0.556989
O O16 0.250246 0.376849 0.625718
O O17 0.244437 0.370079 0.496900
O O18 0.500000 0.903041 0.372086
O O19 0.590147 0.000000 0.424331
O O20 0.821931 0.500000 0.171744
O O21 0.786672 0.500000 0.937585
#
# Coordination Sequence:
#
# PCOD8185892 Si02
#       8
#    16  16  16  16  16  16  16  16
#     4   9  16  28  48  71  97 131 169 211 255 295
#     4  10  20  32  49  73 101 134 172 215 260 300
#     4   9  17  29  48  75 106 132 159 205 261 313
#     4  10  20  32  47  72 104 136 173 210 250 304
#     4  10  18  31  52  76 100 131 171 211 256 306
#     4   9  16  28  48  75 104 133 166 205 255 313
#     4  10  20  33  50  76 107 139 171 207 256 311
#     4   9  15  27  48  74 100 127 163 210 254 298
#
# _framework density 18.600984
#
# number of rings (size 3 to 8) (size 9 to 14) (size 15 to 20)
#    0.000    2.500    2.500    0.750    0.000    2.500 
#    0.000    1.250    0.000    3.750    0.000    7.000 
#    0.000    0.000    0.000    0.000    0.000    0.375 
#
# Total GULP energy -396498.988466 kJ/mol
# GULP energy per Si atom -12390.593390 kJ/mol
# Density = 1.855865 g / cm^3
# Si number density = 18.600984 Si / 1000 Ang^3
#
#
#
# Elastic Constant Matrix: (Units=GPa)
#
#
# Indices 1 2 3 4 5 6 
#
# 1 177.9583 15.6651 86.9998 0.0000 0.0000 0.0000
# 2 15.6651 11.9193 23.6235 0.0000 0.0000 0.0000
# 3 86.9998 23.6235 141.5039 0.0000 0.0000 0.0000
# 4 0.0000 0.0000 0.0000 12.2231 0.0000 0.0000
# 5 0.0000 0.0000 0.0000 0.0000 26.5951 0.0000
# 6 0.0000 0.0000 0.0000 0.0000 0.0000 19.1727
#
#
#
# Elastic Compliance Matrix: (Units=1/GPa)
#
#
# Indices 1 2 3 4 5 6 
#
# 1 0.008045 -0.001151 -0.004754 0.000000 0.000000 0.000000
# 2 -0.001151 0.125550 -0.020253 0.000000 0.000000 0.000000
# 3 -0.004754 -0.020253 0.013371 0.000000 0.000000 0.000000
# 4 0.000000 0.000000 0.000000 0.081812 0.000000 0.000000
# 5 0.000000 0.000000 0.000000 0.000000 0.037601 0.000000
# 6 0.000000 0.000000 0.000000 0.000000 0.000000 0.052158
#
#
# Mechanical properties :
#
#
# Convention : Reuss Voigt Hill
#
# Bulk Modulus (GPa) = 10.56514 64.88424 37.72469
# Shear Modulus (GPa) = 12.42543 25.27106 18.84824
#
# Velocity S-wave (km/s) = 2.58737 3.68990 3.18668
# Velocity P-wave (km/s) = 3.82337 7.28778 5.81936
#
# Compressibility (1/GPa) = 0.09465090
#
# Stress axis : x y z
#
# Youngs Moduli (GPa) = 124.30571 7.96497 74.78952
#
# Poissons Ratio (x) = 0.00917 0.35554
# Poissons Ratio (y) = 0.14304 1.51468
# Poissons Ratio (z) = 0.59094 0.16131
#
# Static dielectric constant tensor:
#      x y z
#    x 3.880840 0.000000 0.000000 
#    y 0.000000 3.023420 0.000000 
#    z 0.000000 0.000000 3.369020 
# 
# 
# High freq. dielectric constant tensor:
#      x y z
#    x 1.744070 0.000000 0.000000 
#    y 0.000000 1.682390 0.000000 
#    z 0.000000 0.000000 1.687370 
# 
# From -- ./inp_files/21935.got.cif
#   From: 2010.03.12/outbox.cif.g09.slc.cpg/sg42_11_cif.got.tgz:21935.got - 2010.04.14 02:04:31.
