data_PCOD8185954
_publ_section_title
;
Structure prediction by ZEFSAII (Michael W. Deem and Ramdas Pophale) SiO2 
 PCOD8185954
Probable space group: F M M 2
;
_chemical_formula_sum "Si O2"
_cell_formula_units_Z 80
_cell_length_a 16.804011
_cell_length_b 10.095965
_cell_length_c 22.914353
_cell_angle_alpha 90.000000
_cell_angle_beta 90.000000
_cell_angle_gamma 90.000000
_cell_volume 3887.482014
_symmetry_space_group_name_H-M "F M M 2"
_symmetry_group_IT_number 42
_symmetry_cell_setting 'orthorhombic'
loop_
_space_group_symop_operation_xyz
x,y,z
-x,-y,z
-x,y,z
x,-y,z
x,1/2+y,1/2+z
-x,1/2-y,1/2+z
-x,1/2+y,1/2+z
x,1/2-y,1/2+z
1/2+x,y,1/2+z
1/2-x,-y,1/2+z
1/2-x,y,1/2+z
1/2+x,-y,1/2+z
1/2+x,1/2+y,z
1/2-x,1/2-y,z
1/2-x,1/2+y,z
1/2+x,1/2-y,z
loop_
_atom_site_type_symbol
_atom_site_label
_atom_site_fract_x
_atom_site_fract_y
_atom_site_fract_z
Si Si1 0.655925 0.765028 0.963560
Si Si2 0.655722 0.235118 0.208125
Si Si3 0.092323 0.500000 0.758520
Si Si4 0.910508 0.000000 0.778966
Si Si5 0.141129 0.500000 0.405960
Si Si6 0.828531 0.000000 0.382817
Si Si7 0.675378 0.153414 0.085326
O O1 0.750000 0.750000 0.969031
O O2 0.617502 0.626235 0.945098
O O3 0.634348 0.871755 0.914135
O O4 0.623747 0.811976 0.027260
O O5 0.750000 0.250000 0.209972
O O6 0.611981 0.372996 0.219443
O O7 0.626350 0.179998 0.144937
O O8 0.633703 0.131443 0.258008
O O9 0.146884 0.500000 0.815743
O O10 0.000000 0.500000 0.776481
O O11 0.912348 0.000000 0.848714
O O12 0.000000 0.000000 0.754965
O O13 0.233300 0.500000 0.386989
O O14 0.750000 0.250000 0.087593
O O15 0.703075 0.000000 0.082430
#
# Coordination Sequence:
#
# PCOD8185954 Si02
#       7
#    16  16   8   8   8   8  16
#     4   9  18  31  55  87 121 148 193 248 309 354
#     4  11  23  40  65  92 123 160 209 258 302 369
#     4  12  26  41  60  90 128 167 207 256 313 362
#     4  12  24  41  62  88 126 169 207 256 311 364
#     4  10  20  33  56  90 116 161 199 250 295 368
#     4  10  18  35  58  82 120 155 201 248 293 362
#     4  10  20  34  59  92 123 154 197 257 313 361
#
# _framework density 20.578873000000002
#
# number of rings (size 3 to 8) (size 9 to 14) (size 15 to 20)
#    0.000    1.600    2.000    3.600    8.400    1.600 
#    0.000    0.000    0.000    7.200    0.000    0.000 
#    0.000    0.000    0.000    0.000    0.000    0.000 
#
# Total GULP energy -247990.883670 kJ/mol
# GULP energy per Si atom -12399.544184 kJ/mol
# Density = 2.053203 g / cm^3
# Si number density = 20.578873 Si / 1000 Ang^3
#
#
#
# Elastic Constant Matrix: (Units=GPa)
#
#
# Indices 1 2 3 4 5 6 
#
# 1 49.2196 16.4183 13.4608 0.0000 0.0000 0.0000
# 2 16.4183 191.7275 67.7993 0.0000 0.0000 0.0000
# 3 13.4608 67.7993 148.6969 0.0000 0.0000 0.0000
# 4 0.0000 0.0000 0.0000 38.1394 0.0000 0.0000
# 5 0.0000 0.0000 0.0000 0.0000 3.4127 0.0000
# 6 0.0000 0.0000 0.0000 0.0000 0.0000 61.1309
#
#
#
# Elastic Compliance Matrix: (Units=1/GPa)
#
#
# Indices 1 2 3 4 5 6 
#
# 1 0.021122 -0.001350 -0.001296 0.000000 0.000000 0.000000
# 2 -0.001350 0.006305 -0.002752 0.000000 0.000000 0.000000
# 3 -0.001296 -0.002752 0.008097 0.000000 0.000000 0.000000
# 4 0.000000 0.000000 0.000000 0.026220 0.000000 0.000000
# 5 0.000000 0.000000 0.000000 0.000000 0.293021 0.000000
# 6 0.000000 0.000000 0.000000 0.000000 0.000000 0.016358
#
#
# Mechanical properties :
#
#
# Convention : Reuss Voigt Hill
#
# Bulk Modulus (GPa) = 40.44336 65.00007 52.72171
# Shear Modulus (GPa) = 12.81513 40.00097 26.40805
#
# Velocity S-wave (km/s) = 2.49817 4.41362 3.58615
# Velocity P-wave (km/s) = 5.29308 7.59130 6.54387
#
# Compressibility (1/GPa) = 0.02472594
#
# Stress axis : x y z
#
# Youngs Moduli (GPa) = 47.34382 158.61208 123.49600
#
# Poissons Ratio (x) = 0.21418 0.16010
# Poissons Ratio (y) = 0.06393 0.33991
# Poissons Ratio (z) = 0.06138 0.43657
#
# Static dielectric constant tensor:
#      x y z
#    x 3.253300 0.000000 0.000000 
#    y 0.000000 3.995100 0.000000 
#    z 0.000000 0.000000 4.383690 
# 
# 
# High freq. dielectric constant tensor:
#      x y z
#    x 1.745730 0.000000 0.000000 
#    y 0.000000 1.827370 0.000000 
#    z 0.000000 0.000000 1.826650 
# 
# From -- ./inp_files/30150.got.cif
#   From: 2010.03.12/outbox.cif.g09.slc.cpg/sg42_16_cif.got.tgz:30150.got - 2010.04.14 02:04:31.
