data_PCOD8185025
_publ_section_title
;
Structure prediction by ZEFSAII (Michael W. Deem and Ramdas Pophale) SiO2 
 PCOD8185025
Probable space group: A B A 2
;
_chemical_formula_sum "Si O2"
_cell_formula_units_Z 52
_cell_length_a 23.388304
_cell_length_b 5.264939
_cell_length_c 18.174030
_cell_angle_alpha 90.000000
_cell_angle_beta 90.000000
_cell_angle_gamma 90.000000
_cell_volume 2237.913595
_symmetry_space_group_name_H-M "A B A 2"
_symmetry_group_IT_number 41
_symmetry_cell_setting 'orthorhombic'
loop_
_space_group_symop_operation_xyz
x,y,z
-x,-y,z
1/2-x,y,1/2+z
1/2+x,-y,1/2+z
x,1/2+y,1/2+z
-x,1/2-y,1/2+z
1/2-x,1/2+y,z
1/2+x,1/2-y,z
loop_
_atom_site_type_symbol
_atom_site_label
_atom_site_fract_x
_atom_site_fract_y
_atom_site_fract_z
Si Si1 0.721414 0.816728 0.068180
Si Si2 0.000000 0.000000 0.988591
Si Si3 0.231244 0.090855 0.229476
Si Si4 0.593098 0.869600 0.027811
Si Si5 0.438909 0.394001 0.665256
Si Si6 0.106610 0.894134 0.230682
Si Si7 0.559320 0.619019 0.387329
O O1 0.756817 0.581138 0.032544
O O2 0.734382 0.823772 0.155306
O O3 0.654591 0.763533 0.052338
O O4 0.954564 0.867751 0.934084
O O5 0.039725 0.824927 0.041180
O O6 0.237027 0.359902 0.273430
O O7 0.166402 0.026456 0.213589
O O8 0.574635 0.116538 0.077353
O O9 0.594445 0.933187 0.941532
O O10 0.500000 0.500000 0.688252
O O11 0.435636 0.114381 0.700579
O O12 0.395952 0.619715 0.692004
O O13 0.098518 0.834878 0.316826
O O14 0.500000 0.500000 0.359886
#
# Coordination Sequence:
#
# PCOD8185025 Si02
#       7
#     8   4   8   8   8   8   8
#     4  10  21  39  66  97 132 179 234 291 360 423
#     4  10  24  44  74 100 150 198 248 298 380 448
#     4  10  20  41  63  94 127 176 226 283 352 416
#     4  11  25  43  71 101 144 190 244 302 363 442
#     4  12  25  40  65 106 137 176 231 297 358 423
#     4  12  26  43  71  99 140 183 234 298 356 425
#     4  10  24  45  67 100 140 195 234 287 364 439
#
# _framework density 23.235928999999999
#
# number of rings (size 3 to 8) (size 9 to 14) (size 15 to 20)
#    0.000    1.231    0.000    7.385   11.846    0.000 
#    0.000    1.538    0.000    0.000    0.000    0.000 
#    0.000    0.000    0.000    0.000    0.000    0.000 
#
# Total GULP energy -322139.046171 kJ/mol
# GULP energy per Si atom -12389.963314 kJ/mol
# Density = 2.318304 g / cm^3
# Si number density = 23.235929 Si / 1000 Ang^3
#
#
#
# Elastic Constant Matrix: (Units=GPa)
#
#
# Indices 1 2 3 4 5 6 
#
# 1 114.5831 12.2975 28.6556 0.0000 0.0000 0.0000
# 2 12.2975 128.8467 17.0530 0.0000 0.0000 0.0000
# 3 28.6556 17.0530 85.6493 0.0000 0.0000 0.0000
# 4 0.0000 0.0000 0.0000 14.1851 0.0000 0.0000
# 5 0.0000 0.0000 0.0000 0.0000 15.5805 0.0000
# 6 0.0000 0.0000 0.0000 0.0000 0.0000 37.4246
#
#
#
# Elastic Compliance Matrix: (Units=1/GPa)
#
#
# Indices 1 2 3 4 5 6 
#
# 1 0.009556 -0.000502 -0.003097 0.000000 0.000000 0.000000
# 2 -0.000502 0.007998 -0.001424 0.000000 0.000000 0.000000
# 3 -0.003097 -0.001424 0.012995 0.000000 0.000000 0.000000
# 4 0.000000 0.000000 0.000000 0.070497 0.000000 0.000000
# 5 0.000000 0.000000 0.000000 0.000000 0.064183 0.000000
# 6 0.000000 0.000000 0.000000 0.000000 0.000000 0.026720
#
#
# Mechanical properties :
#
#
# Convention : Reuss Voigt Hill
#
# Bulk Modulus (GPa) = 48.77688 49.45459 49.11574
# Shear Modulus (GPa) = 23.94301 31.50958 27.72629
#
# Velocity S-wave (km/s) = 3.21351 3.68648 3.45809
# Velocity P-wave (km/s) = 5.89970 6.28093 6.09330
#
# Compressibility (1/GPa) = 0.02050151
#
# Stress axis : x y z
#
# Youngs Moduli (GPa) = 104.64937 125.03749 76.95095
#
# Poissons Ratio (x) = 0.06278 0.23832
# Poissons Ratio (y) = 0.05255 0.10961
# Poissons Ratio (z) = 0.32411 0.17810
#
# Static dielectric constant tensor:
#      x y z
#    x 4.122460 0.000000 0.000000 
#    y 0.000000 4.976350 0.000000 
#    z 0.000000 0.000000 3.776990 
# 
# 
# High freq. dielectric constant tensor:
#      x y z
#    x 1.922010 0.000000 0.000000 
#    y 0.000000 1.938940 0.000000 
#    z 0.000000 0.000000 1.878210 
# 
# From -- ./inp_files/11702.got.cif
#   From: 2010.03.12/outbox.cif.g09.slc.cpg/sg41_6_cif.got.tgz:11702.got - 2010.04.14 01:55:53.
