data_PCOD8185749
_publ_section_title
;
Structure prediction by ZEFSAII (Michael W. Deem and Ramdas Pophale) SiO2 
 PCOD8185749
Probable space group: F M M 2
;
_chemical_formula_sum "Si O2"
_cell_formula_units_Z 128
_cell_length_a 19.494951
_cell_length_b 20.419985
_cell_length_c 17.982181
_cell_angle_alpha 90.000000
_cell_angle_beta 90.000000
_cell_angle_gamma 90.000000
_cell_volume 7158.465421
_symmetry_space_group_name_H-M "F M M 2"
_symmetry_group_IT_number 42
_symmetry_cell_setting 'orthorhombic'
loop_
_space_group_symop_operation_xyz
x,y,z
-x,-y,z
-x,y,z
x,-y,z
x,1/2+y,1/2+z
-x,1/2-y,1/2+z
-x,1/2+y,1/2+z
x,1/2-y,1/2+z
1/2+x,y,1/2+z
1/2-x,-y,1/2+z
1/2-x,y,1/2+z
1/2+x,-y,1/2+z
1/2+x,1/2+y,z
1/2-x,1/2-y,z
1/2-x,1/2+y,z
1/2+x,1/2-y,z
loop_
_atom_site_type_symbol
_atom_site_label
_atom_site_fract_x
_atom_site_fract_y
_atom_site_fract_z
Si Si1 0.422516 0.699949 0.583990
Si Si2 0.297356 0.572295 0.359950
Si Si3 0.786187 0.683416 0.165649
Si Si4 0.185940 0.574889 0.684348
Si Si5 0.791881 0.811287 0.839598
Si Si6 0.575808 0.864491 0.928031
Si Si7 0.575949 0.752137 0.810542
Si Si8 0.923300 0.823895 0.164427
O O1 0.500000 0.677269 0.608590
O O2 0.363748 0.670973 0.637773
O O3 0.406091 0.677504 0.500946
O O4 0.419224 0.779600 0.589599
O O5 0.269411 0.500000 0.378305
O O6 0.315956 0.578169 0.273503
O O7 0.236459 0.623462 0.380091
O O8 0.364909 0.583087 0.411016
O O9 0.750000 0.750000 0.132523
O O10 0.745530 0.616950 0.144051
O O11 0.777976 0.684527 0.253106
O O12 0.190507 0.500000 0.656409
O O13 0.116079 0.608284 0.655427
O O14 0.750000 0.750000 0.873803
O O15 0.873764 0.801005 0.849174
O O16 0.500000 0.897842 0.936639
O O17 0.573497 0.816489 0.859104
O O18 0.500000 0.720709 0.802512
O O19 0.606084 0.775913 0.730367
O O20 0.000000 0.843559 0.186286
#
# Coordination Sequence:
#
# PCOD8185749 Si02
#       8
#    16  16  16  16  16  16  16  16
#     4  10  20  33  52  76 104 140 183 226 269 310
#     4  10  20  33  50  75 109 143 174 216 271 327
#     4  10  17  31  51  72 101 139 177 219 264 308
#     4  10  19  31  50  79 109 140 174 216 270 324
#     4  10  16  29  51  76 101 134 175 219 264 309
#     4  10  20  34  50  77 111 140 175 220 267 323
#     4  10  17  29  51  76 104 136 177 225 266 306
#     4  10  17  30  51  77 107 142 179 221 267 317
#
# _framework density 17.880928000000001
#
# number of rings (size 3 to 8) (size 9 to 14) (size 15 to 20)
#    0.000    2.000    5.000    0.750    0.000    0.500 
#    2.250    1.875    0.000    1.500    0.000    3.500 
#    0.000    3.000    0.000    0.000    0.000    0.250 
#
# Total GULP energy -396447.254844 kJ/mol
# GULP energy per Si atom -12388.976714 kJ/mol
# Density = 1.784023 g / cm^3
# Si number density = 17.880928 Si / 1000 Ang^3
#
#
#
# Elastic Constant Matrix: (Units=GPa)
#
#
# Indices 1 2 3 4 5 6 
#
# 1 121.2836 65.6556 12.9171 0.0000 0.0000 0.0000
# 2 65.6556 132.5767 22.4770 0.0000 0.0000 0.0000
# 3 12.9171 22.4770 36.3666 0.0000 0.0000 0.0000
# 4 0.0000 0.0000 0.0000 16.5946 0.0000 0.0000
# 5 0.0000 0.0000 0.0000 0.0000 18.1380 0.0000
# 6 0.0000 0.0000 0.0000 0.0000 0.0000 27.4618
#
#
#
# Elastic Compliance Matrix: (Units=1/GPa)
#
#
# Indices 1 2 3 4 5 6 
#
# 1 0.011278 -0.005480 -0.000619 0.000000 0.000000 0.000000
# 2 -0.005480 0.011089 -0.004907 0.000000 0.000000 0.000000
# 3 -0.000619 -0.004907 0.030750 0.000000 0.000000 0.000000
# 4 0.000000 0.000000 0.000000 0.060261 0.000000 0.000000
# 5 0.000000 0.000000 0.000000 0.000000 0.055133 0.000000
# 6 0.000000 0.000000 0.000000 0.000000 0.000000 0.036414
#
#
# Mechanical properties :
#
#
# Convention : Reuss Voigt Hill
#
# Bulk Modulus (GPa) = 32.14911 54.70291 43.42601
# Shear Modulus (GPa) = 21.07000 25.05070 23.06035
#
# Velocity S-wave (km/s) = 3.43644 3.74702 3.59508
# Velocity P-wave (km/s) = 5.81068 7.02705 6.44762
#
# Compressibility (1/GPa) = 0.03110506
#
# Stress axis : x y z
#
# Youngs Moduli (GPa) = 88.67120 90.18244 32.51995
#
# Poissons Ratio (x) = 0.49421 0.02012
# Poissons Ratio (y) = 0.48593 0.15958
# Poissons Ratio (z) = 0.05486 0.44253
#
# Static dielectric constant tensor:
#      x y z
#    x 3.708410 0.000000 0.000000 
#    y 0.000000 3.310660 0.000000 
#    z 0.000000 0.000000 3.054890 
# 
# 
# High freq. dielectric constant tensor:
#      x y z
#    x 1.705830 0.000000 0.000000 
#    y 0.000000 1.662800 0.000000 
#    z 0.000000 0.000000 1.655030 
# 
# From -- ./inp_files/21966.got.cif
#   From: 2010.03.12/outbox.cif.g09.slc.cpg/sg42_11_cif.got.tgz:21966.got - 2010.04.14 02:04:31.
