data_PCOD8185034
_publ_section_title
;
Structure prediction by ZEFSAII (Michael W. Deem and Ramdas Pophale) SiO2 
 PCOD8185034
Probable space group: A B A 2
;
_chemical_formula_sum "Si O2"
_cell_formula_units_Z 56
_cell_length_a 11.655841
_cell_length_b 13.365072
_cell_length_c 14.368045
_cell_angle_alpha 90.000000
_cell_angle_beta 90.000000
_cell_angle_gamma 90.000000
_cell_volume 2238.270633
_symmetry_space_group_name_H-M "A B A 2"
_symmetry_group_IT_number 41
_symmetry_cell_setting 'orthorhombic'
loop_
_space_group_symop_operation_xyz
x,y,z
-x,-y,z
1/2-x,y,1/2+z
1/2+x,-y,1/2+z
x,1/2+y,1/2+z
-x,1/2-y,1/2+z
1/2-x,1/2+y,z
1/2+x,1/2-y,z
loop_
_atom_site_type_symbol
_atom_site_label
_atom_site_fract_x
_atom_site_fract_y
_atom_site_fract_z
Si Si1 0.678200 0.154140 0.955420
Si Si2 0.461837 0.799510 0.202538
Si Si3 0.650408 0.385114 0.293096
Si Si4 0.743117 0.093034 0.751530
Si Si5 0.884270 0.680092 0.591825
Si Si6 0.618464 0.843485 0.373073
Si Si7 0.000000 0.500000 0.487618
Si Si8 0.500000 0.500000 0.432338
O O1 0.744571 0.121461 0.860724
O O2 0.591637 0.247655 0.938430
O O3 0.599173 0.059418 0.990597
O O4 0.769407 0.194070 0.031227
O O5 0.402421 0.692296 0.220614
O O6 0.362862 0.884078 0.197555
O O7 0.534315 0.779827 0.105602
O O8 0.542715 0.840856 0.282079
O O9 0.711705 0.476494 0.238424
O O10 0.747856 0.328925 0.351425
O O11 0.552648 0.417276 0.364311
O O12 0.645705 0.157119 0.699612
O O13 0.948938 0.585750 0.550760
O O14 0.597681 0.949690 0.423472
#
# Coordination Sequence:
#
# PCOD8185034 Si02
#       8
#     8   8   8   8   8   8   4   4
#     4  11  23  45  76 111 153 195 266 315 397 467
#     4  12  22  45  75 111 148 205 253 315 396 458
#     4  11  21  41  76 103 146 196 253 316 389 466
#     4  11  24  47  73 110 151 197 264 320 386 479
#     4  12  26  46  70 111 149 204 256 320 383 476
#     4  12  24  46  75 112 149 202 251 324 385 477
#     4  12  28  45  74 115 160 202 260 319 412 459
#     4  10  20  41  72 107 136 208 244 317 388 471
#
# _framework density 25.019317000000001
#
# number of rings (size 3 to 8) (size 9 to 14) (size 15 to 20)
#    0.000    0.571    4.286    5.143    2.000    0.571 
#    2.571    1.429    0.000    0.000    0.000    0.000 
#    0.000    0.000    0.000    0.000    0.000    0.000 
#
# Total GULP energy -347017.429864 kJ/mol
# GULP energy per Si atom -12393.479638 kJ/mol
# Density = 2.496237 g / cm^3
# Si number density = 25.019317 Si / 1000 Ang^3
#
#
#
# Elastic Constant Matrix: (Units=GPa)
#
#
# Indices 1 2 3 4 5 6 
#
# 1 110.2644 18.0873 30.8098 0.0000 0.0000 0.0000
# 2 18.0873 58.7529 11.2409 0.0000 0.0000 0.0000
# 3 30.8098 11.2409 89.2326 0.0000 0.0000 0.0000
# 4 0.0000 0.0000 0.0000 13.1500 0.0000 0.0000
# 5 0.0000 0.0000 0.0000 0.0000 41.0488 0.0000
# 6 0.0000 0.0000 0.0000 0.0000 0.0000 54.3441
#
#
#
# Elastic Compliance Matrix: (Units=1/GPa)
#
#
# Indices 1 2 3 4 5 6 
#
# 1 0.010405 -0.002578 -0.003268 0.000000 0.000000 0.000000
# 2 -0.002578 0.018080 -0.001387 0.000000 0.000000 0.000000
# 3 -0.003268 -0.001387 0.012510 0.000000 0.000000 0.000000
# 4 0.000000 0.000000 0.000000 0.076046 0.000000 0.000000
# 5 0.000000 0.000000 0.000000 0.000000 0.024361 0.000000
# 6 0.000000 0.000000 0.000000 0.000000 0.000000 0.018401
#
#
# Mechanical properties :
#
#
# Convention : Reuss Voigt Hill
#
# Bulk Modulus (GPa) = 37.69629 42.05842 39.87736
# Shear Modulus (GPa) = 27.30575 34.91603 31.11089
#
# Velocity S-wave (km/s) = 3.30720 3.73978 3.53012
# Velocity P-wave (km/s) = 5.44821 5.95775 5.70867
#
# Compressibility (1/GPa) = 0.02652781
#
# Stress axis : x y z
#
# Youngs Moduli (GPa) = 96.10682 55.31117 79.93764
#
# Poissons Ratio (x) = 0.14259 0.26122
# Poissons Ratio (y) = 0.24776 0.11091
# Poissons Ratio (z) = 0.31406 0.07674
#
# Static dielectric constant tensor:
#      x y z
#    x 5.036150 0.000000 0.000000 
#    y 0.000000 4.756030 0.000000 
#    z 0.000000 0.000000 4.276020 
# 
# 
# High freq. dielectric constant tensor:
#      x y z
#    x 2.013000 0.000000 0.000000 
#    y 0.000000 2.002780 0.000000 
#    z 0.000000 0.000000 1.974410 
# 
# From -- ./inp_files/7995.got.cif
#   From: 2010.03.12/outbox.cif.g09.slc.cpg/sg41_4_cif.got.tgz:7995.got - 2010.04.14 01:55:53.
