data_PCOD8185821
_publ_section_title
;
Structure prediction by ZEFSAII (Michael W. Deem and Ramdas Pophale) SiO2 
 PCOD8185821
Probable space group: F M M 2
;
_chemical_formula_sum "Si O2"
_cell_formula_units_Z 96
_cell_length_a 23.585743
_cell_length_b 9.150557
_cell_length_c 24.711249
_cell_angle_alpha 90.000000
_cell_angle_beta 90.000000
_cell_angle_gamma 90.000000
_cell_volume 5333.248126
_symmetry_space_group_name_H-M "F M M 2"
_symmetry_group_IT_number 42
_symmetry_cell_setting 'orthorhombic'
loop_
_space_group_symop_operation_xyz
x,y,z
-x,-y,z
-x,y,z
x,-y,z
x,1/2+y,1/2+z
-x,1/2-y,1/2+z
-x,1/2+y,1/2+z
x,1/2-y,1/2+z
1/2+x,y,1/2+z
1/2-x,-y,1/2+z
1/2-x,y,1/2+z
1/2+x,-y,1/2+z
1/2+x,1/2+y,z
1/2-x,1/2-y,z
1/2-x,1/2+y,z
1/2+x,1/2-y,z
loop_
_atom_site_type_symbol
_atom_site_label
_atom_site_fract_x
_atom_site_fract_y
_atom_site_fract_z
Si Si1 0.116387 0.171331 0.211450
Si Si2 0.500000 0.668767 0.255497
Si Si3 0.064482 0.166105 0.100648
Si Si4 0.934916 0.171461 0.491442
Si Si5 0.619459 0.839096 0.402132
Si Si6 0.690320 0.174601 0.297473
Si Si7 0.500000 0.153118 0.353350
O O1 0.112251 0.195342 0.146812
O O2 0.165359 0.263538 0.240960
O O3 0.057242 0.238214 0.232666
O O4 0.124534 0.000000 0.225797
O O5 0.500000 0.500000 0.241045
O O6 0.500000 0.698992 0.319153
O O7 0.000000 0.190290 0.123353
O O8 0.070058 0.000000 0.079827
O O9 0.077771 0.273301 0.051697
O O10 0.883097 0.232485 0.453917
O O11 0.000000 0.214760 0.474728
O O12 0.928026 0.000000 0.490697
O O13 0.652546 0.777904 0.349472
O O14 0.553665 0.850229 0.390905
O O15 0.644017 0.000000 0.417314
O O16 0.750000 0.250000 0.307410
O O17 0.695592 0.000000 0.292768
O O18 0.500000 0.000000 0.318292
#
# Coordination Sequence:
#
# PCOD8185821 Si02
#       7
#    16   8  16  16  16  16   8
#     4  10  19  33  54  80 110 143 178 217 263 317
#     4  10  18  28  47  78 111 139 170 210 262 319
#     4   9  17  31  51  76 110 149 181 209 251 312
#     4  10  20  31  47  77 113 145 177 214 258 309
#     4  10  20  34  53  75 104 141 176 213 263 322
#     4  11  24  40  57  78 104 139 182 227 274 320
#     4  10  18  30  47  74 107 137 172 212 262 323
#
# _framework density 18.000288000000001
#
# number of rings (size 3 to 8) (size 9 to 14) (size 15 to 20)
#    0.000    2.000    3.333    1.000    0.000    3.333 
#    0.000    0.000    0.000    1.000    0.000    4.667 
#    0.000    0.000    0.000    0.000    0.000    0.000 
#
# Total GULP energy -297318.440390 kJ/mol
# GULP energy per Si atom -12388.268350 kJ/mol
# Density = 1.795932 g / cm^3
# Si number density = 18.000288 Si / 1000 Ang^3
#
#
#
# Elastic Constant Matrix: (Units=GPa)
#
#
# Indices 1 2 3 4 5 6 
#
# 1 75.3031 34.8413 35.8684 0.0000 0.0000 0.0000
# 2 34.8413 71.8659 51.2723 0.0000 0.0000 0.0000
# 3 35.8684 51.2723 98.0498 0.0000 0.0000 0.0000
# 4 0.0000 0.0000 0.0000 31.1624 0.0000 0.0000
# 5 0.0000 0.0000 0.0000 0.0000 13.8855 0.0000
# 6 0.0000 0.0000 0.0000 0.0000 0.0000 21.4856
#
#
#
# Elastic Compliance Matrix: (Units=1/GPa)
#
#
# Indices 1 2 3 4 5 6 
#
# 1 0.017718 -0.006326 -0.003174 0.000000 0.000000 0.000000
# 2 -0.006326 0.024454 -0.010473 0.000000 0.000000 0.000000
# 3 -0.003174 -0.010473 0.016837 0.000000 0.000000 0.000000
# 4 0.000000 0.000000 0.000000 0.032090 0.000000 0.000000
# 5 0.000000 0.000000 0.000000 0.000000 0.072017 0.000000
# 6 0.000000 0.000000 0.000000 0.000000 0.000000 0.046543
#
#
# Mechanical properties :
#
#
# Convention : Reuss Voigt Hill
#
# Bulk Modulus (GPa) = 52.45765 54.35363 53.40564
# Shear Modulus (GPa) = 19.53443 21.52249 20.52846
#
# Velocity S-wave (km/s) = 3.29785 3.46160 3.38072
# Velocity P-wave (km/s) = 6.61113 6.79989 6.70617
#
# Compressibility (1/GPa) = 0.01906300
#
# Stress axis : x y z
#
# Youngs Moduli (GPa) = 56.43934 40.89373 59.39424
#
# Poissons Ratio (x) = 0.25868 0.18851
# Poissons Ratio (y) = 0.35701 0.62205
# Poissons Ratio (z) = 0.17913 0.42829
#
# Static dielectric constant tensor:
#      x y z
#    x 3.160090 0.000000 0.000000 
#    y 0.000000 3.507360 0.000000 
#    z 0.000000 0.000000 3.262910 
# 
# 
# High freq. dielectric constant tensor:
#      x y z
#    x 1.659610 0.000000 0.000000 
#    y 0.000000 1.696810 0.000000 
#    z 0.000000 0.000000 1.695390 
# 
# From -- ./inp_files/28105.got.cif
#   From: 2010.03.12/outbox.cif.g09.slc.cpg/sg42_15_cif.got.tgz:28105.got - 2010.04.14 02:04:31.
