data_PCOD8185632
_publ_section_title
;
Structure prediction by ZEFSAII (Michael W. Deem and Ramdas Pophale) SiO2 
 PCOD8185632
Probable space group: A B A 2
;
_chemical_formula_sum "Si O2"
_cell_formula_units_Z 44
_cell_length_a 27.827781
_cell_length_b 5.271374
_cell_length_c 13.319885
_cell_angle_alpha 90.000000
_cell_angle_beta 90.000000
_cell_angle_gamma 90.000000
_cell_volume 1953.902472
_symmetry_space_group_name_H-M "A B A 2"
_symmetry_group_IT_number 41
_symmetry_cell_setting 'orthorhombic'
loop_
_space_group_symop_operation_xyz
x,y,z
-x,-y,z
1/2-x,y,1/2+z
1/2+x,-y,1/2+z
x,1/2+y,1/2+z
-x,1/2-y,1/2+z
1/2-x,1/2+y,z
1/2+x,1/2-y,z
loop_
_atom_site_type_symbol
_atom_site_label
_atom_site_fract_x
_atom_site_fract_y
_atom_site_fract_z
Si Si1 0.648981 0.013933 0.376460
Si Si2 0.542669 0.172969 0.047778
Si Si3 0.000000 0.000000 0.219045
Si Si4 0.718359 0.527420 0.691968
Si Si5 0.854943 0.512088 0.010207
Si Si6 0.451088 0.622101 0.840846
O O1 0.692116 0.029392 0.298606
O O2 0.652588 0.251637 0.450506
O O3 0.653008 0.749672 0.436471
O O4 0.598721 0.016474 0.312398
O O5 0.550224 0.382771 0.961919
O O6 0.500000 0.000000 0.006113
O O7 0.527055 0.291669 0.152550
O O8 0.591680 0.012790 0.058922
O O9 0.955730 0.102445 0.288138
O O10 0.750511 0.279260 0.683703
O O11 0.681920 0.526103 0.600261
O O12 0.500000 0.500000 0.798980
#
# Coordination Sequence:
#
# PCOD8185632 Si02
#       6
#     8   8   4   8   8   8
#     4  11  27  47  75 106 145 191 239 294 357 430
#     4  11  24  43  67 101 147 189 240 283 346 427
#     4  12  26  38  68 100 144 204 228 292 350 402
#     4  12  28  49  77 110 143 180 245 308 368 432
#     4  11  27  47  75 106 145 191 239 294 357 430
#     4  11  24  43  67 101 147 189 240 283 346 427
#
# _framework density 22.519037000000001
#
# number of rings (size 3 to 8) (size 9 to 14) (size 15 to 20)
#    0.000    0.727    1.818    3.818   10.182    5.818 
#    0.000    0.000    0.000    0.000    0.000    0.000 
#    0.000    0.000    0.000    0.000    0.000    0.000 
#
# Total GULP energy -272726.623912 kJ/mol
# GULP energy per Si atom -12396.664723 kJ/mol
# Density = 2.246778 g / cm^3
# Si number density = 22.519037 Si / 1000 Ang^3
#
#
#
# Elastic Constant Matrix: (Units=GPa)
#
#
# Indices 1 2 3 4 5 6 
#
# 1 171.5497 52.9857 55.2884 0.0000 0.0000 0.0000
# 2 52.9857 119.7058 32.4992 0.0000 0.0000 0.0000
# 3 55.2884 32.4992 106.3444 0.0000 0.0000 0.0000
# 4 0.0000 0.0000 0.0000 77.1846 0.0000 0.0000
# 5 0.0000 0.0000 0.0000 0.0000 44.5942 0.0000
# 6 0.0000 0.0000 0.0000 0.0000 0.0000 36.1044
#
#
#
# Elastic Compliance Matrix: (Units=1/GPa)
#
#
# Indices 1 2 3 4 5 6 
#
# 1 0.007637 -0.002511 -0.003203 0.000000 0.000000 0.000000
# 2 -0.002511 0.009935 -0.001731 0.000000 0.000000 0.000000
# 3 -0.003203 -0.001731 0.011598 0.000000 0.000000 0.000000
# 4 0.000000 0.000000 0.000000 0.012956 0.000000 0.000000
# 5 0.000000 0.000000 0.000000 0.000000 0.022424 0.000000
# 6 0.000000 0.000000 0.000000 0.000000 0.000000 0.027697
#
#
# Mechanical properties :
#
#
# Convention : Reuss Voigt Hill
#
# Bulk Modulus (GPa) = 70.02699 75.46072 72.74386
# Shear Modulus (GPa) = 44.68381 48.69842 46.69111
#
# Velocity S-wave (km/s) = 4.45935 4.65536 4.55841
# Velocity P-wave (km/s) = 7.59465 7.90437 7.75105
#
# Compressibility (1/GPa) = 0.01428021
#
# Stress axis : x y z
#
# Youngs Moduli (GPa) = 130.94055 100.65357 86.22398
#
# Poissons Ratio (x) = 0.25272 0.27619
# Poissons Ratio (y) = 0.32876 0.14924
# Poissons Ratio (z) = 0.41943 0.17422
#
# Static dielectric constant tensor:
#      x y z
#    x 4.410120 0.000000 0.000000 
#    y 0.000000 3.897650 0.000000 
#    z 0.000000 0.000000 3.992620 
# 
# 
# High freq. dielectric constant tensor:
#      x y z
#    x 1.896580 0.000000 0.000000 
#    y 0.000000 1.895090 0.000000 
#    z 0.000000 0.000000 1.902910 
# 
# From -- ./inp_files/9197.got.cif
#   From: 2010.03.12/outbox.cif.g09.slc.cpg/sg41_5_cif.got.tgz:9197.got - 2010.04.14 01:55:53.
