data_PCOD8185429
_publ_section_title
;
Structure prediction by ZEFSAII (Michael W. Deem and Ramdas Pophale) SiO2 
 PCOD8185429
Probable space group: A B A 2
;
_chemical_formula_sum "Si O2"
_cell_formula_units_Z 56
_cell_length_a 17.927629
_cell_length_b 8.453550
_cell_length_c 17.576694
_cell_angle_alpha 90.000000
_cell_angle_beta 90.000000
_cell_angle_gamma 90.000000
_cell_volume 2663.785030
_symmetry_space_group_name_H-M "A B A 2"
_symmetry_group_IT_number 41
_symmetry_cell_setting 'orthorhombic'
loop_
_space_group_symop_operation_xyz
x,y,z
-x,-y,z
1/2-x,y,1/2+z
1/2+x,-y,1/2+z
x,1/2+y,1/2+z
-x,1/2-y,1/2+z
1/2-x,1/2+y,z
1/2+x,1/2-y,z
loop_
_atom_site_type_symbol
_atom_site_label
_atom_site_fract_x
_atom_site_fract_y
_atom_site_fract_z
Si Si1 0.000000 0.000000 0.167620
Si Si2 0.624955 0.500000 0.544387
Si Si3 0.344436 0.524288 0.853456
Si Si4 0.800465 0.870455 0.693050
Si Si5 0.500000 0.500000 0.921155
Si Si6 0.655564 0.024288 0.735319
Si Si7 1.000000 0.254633 0.044387
Si Si8 0.699535 0.129545 0.895725
O O1 0.071907 0.032625 0.219053
O O2 0.020787 0.849306 0.117048
O O3 0.677040 0.453571 0.614677
O O4 0.572105 0.355038 0.521158
O O5 0.572105 0.644962 0.567617
O O6 0.677040 0.546429 0.474098
O O7 0.341245 0.541306 0.762593
O O8 0.428093 0.467375 0.869722
O O9 0.321725 0.686408 0.896105
O O10 0.288637 0.388223 0.883741
O O11 0.821725 0.686408 0.692670
O O12 0.711363 0.888223 0.705034
O O13 0.479213 0.650694 0.971727
O O14 0.658755 0.041306 0.826182
#
# Coordination Sequence:
#
# PCOD8185429 Si02
#       8
#     4   8   8   8   4   8   8   8
#     4  11  22  44  64  91 128 174 206 271 322 382
#     4  11  22  42  62  95 128 172 206 273 322 382
#     4  10  23  44  65  95 128 170 217 264 318 394
#     4  10  23  43  65  94 129 166 221 261 320 393
#     4  11  22  44  64  91 128 174 206 271 322 382
#     4  10  23  44  65  95 128 170 217 264 318 394
#     4  10  24  38  62  98 132 156 220 270 318 388
#     4  10  23  43  65  94 129 166 221 261 320 393
#
# _framework density 21.022717
#
# number of rings (size 3 to 8) (size 9 to 14) (size 15 to 20)
#    0.000    1.714    2.857    0.000    4.000    5.714 
#    0.000    0.000    0.000    0.000    0.000    0.000 
#    0.000    0.000    0.000    0.000    0.000    0.000 
#
# Total GULP energy -347274.467550 kJ/mol
# GULP energy per Si atom -12402.659555 kJ/mol
# Density = 2.097487 g / cm^3
# Si number density = 21.022717 Si / 1000 Ang^3
#
#
#
# Elastic Constant Matrix: (Units=GPa)
#
#
# Indices 1 2 3 4 5 6 
#
# 1 142.0878 17.4622 42.4984 0.0000 0.0000 0.0000
# 2 17.4622 62.7336 19.8903 0.0000 0.0000 0.0000
# 3 42.4984 19.8903 122.2320 0.0000 0.0000 0.0000
# 4 0.0000 0.0000 0.0000 17.4189 0.0000 0.0000
# 5 0.0000 0.0000 0.0000 0.0000 31.9188 0.0000
# 6 0.0000 0.0000 0.0000 0.0000 0.0000 27.1459
#
#
#
# Elastic Compliance Matrix: (Units=1/GPa)
#
#
# Indices 1 2 3 4 5 6 
#
# 1 0.007972 -0.001413 -0.002542 0.000000 0.000000 0.000000
# 2 -0.001413 0.017058 -0.002284 0.000000 0.000000 0.000000
# 3 -0.002542 -0.002284 0.009437 0.000000 0.000000 0.000000
# 4 0.000000 0.000000 0.000000 0.057409 0.000000 0.000000
# 5 0.000000 0.000000 0.000000 0.000000 0.031330 0.000000
# 6 0.000000 0.000000 0.000000 0.000000 0.000000 0.036838
#
#
# Mechanical properties :
#
#
# Convention : Reuss Voigt Hill
#
# Bulk Modulus (GPa) = 45.47959 54.08391 49.78175
# Shear Modulus (GPa) = 27.80083 31.77689 29.78886
#
# Velocity S-wave (km/s) = 3.64045 3.89208 3.76837
# Velocity P-wave (km/s) = 6.27304 6.78086 6.53189
#
# Compressibility (1/GPa) = 0.02198789
#
# Stress axis : x y z
#
# Youngs Moduli (GPa) = 125.44213 58.62327 105.97001
#
# Poissons Ratio (x) = 0.08284 0.26935
# Poissons Ratio (y) = 0.17726 0.24209
# Poissons Ratio (z) = 0.31884 0.13392
#
# Static dielectric constant tensor:
#      x y z
#    x 3.713590 0.000000 0.000000 
#    y 0.000000 3.816440 0.000000 
#    z 0.000000 0.000000 3.743230 
# 
# 
# High freq. dielectric constant tensor:
#      x y z
#    x 1.827720 0.000000 0.000000 
#    y 0.000000 1.824460 0.000000 
#    z 0.000000 0.000000 1.821790 
# 
# From -- ./inp_files/10589.got.cif
#   From: 2010.03.12/outbox.cif.g09.slc.cpg/sg41_6_cif.got.tgz:10589.got - 2010.04.14 01:55:53.
