data_PCOD8185221
_publ_section_title
;
Structure prediction by ZEFSAII (Michael W. Deem and Ramdas Pophale) SiO2 
 PCOD8185221
Probable space group: A B A 2
;
_chemical_formula_sum "Si O2"
_cell_formula_units_Z 60
_cell_length_a 16.104906
_cell_length_b 14.552641
_cell_length_c 11.653526
_cell_angle_alpha 90.000000
_cell_angle_beta 90.000000
_cell_angle_gamma 90.000000
_cell_volume 2731.224249
_symmetry_space_group_name_H-M "A B A 2"
_symmetry_group_IT_number 41
_symmetry_cell_setting 'orthorhombic'
loop_
_space_group_symop_operation_xyz
x,y,z
-x,-y,z
1/2-x,y,1/2+z
1/2+x,-y,1/2+z
x,1/2+y,1/2+z
-x,1/2-y,1/2+z
1/2-x,1/2+y,z
1/2+x,1/2-y,z
loop_
_atom_site_type_symbol
_atom_site_label
_atom_site_fract_x
_atom_site_fract_y
_atom_site_fract_z
Si Si1 0.793684 0.386842 0.341750
Si Si2 0.637809 0.445189 0.488946
Si Si3 0.874259 0.741256 0.975136
Si Si4 0.500000 0.000000 0.809901
Si Si5 0.011642 0.667259 0.136387
Si Si6 0.137301 0.442309 0.201898
Si Si7 0.754249 0.722065 0.175413
Si Si8 0.088691 0.331488 0.746393
O O1 0.722005 0.411495 0.431419
O O2 0.869192 0.339396 0.410646
O O3 0.837134 0.474984 0.284784
O O4 0.755009 0.316766 0.247130
O O5 0.574501 0.465930 0.387952
O O6 0.594450 0.370305 0.573656
O O7 0.659467 0.532900 0.568897
O O8 0.956758 0.727829 0.048867
O O9 0.790622 0.739153 0.049979
O O10 0.874799 0.662741 0.876427
O O11 0.468784 0.919848 0.724918
O O12 0.961015 0.583777 0.196657
O O13 0.036561 0.737861 0.235654
O O14 0.185804 0.350460 0.240693
O O15 0.665529 0.671431 0.158227
#
# Coordination Sequence:
#
# PCOD8185221 Si02
#       8
#     8   8   8   4   8   8   8   8
#     4  11  24  41  70  96 134 168 230 277 331 389
#     4  12  22  42  67  98 125 182 222 270 328 417
#     4  10  21  42  64  95 128 172 216 269 331 396
#     4  12  22  38  66  94 124 170 224 266 320 398
#     4  11  23  41  69  90 136 177 219 269 341 400
#     4  11  23  42  65  98 129 177 221 274 333 403
#     4  10  23  43  65  92 131 173 218 278 330 393
#     4  11  23  42  66  97 131 171 222 274 331 398
#
# _framework density 21.968171000000002
#
# number of rings (size 3 to 8) (size 9 to 14) (size 15 to 20)
#    0.000    1.067    2.667    4.800    3.733    2.133 
#    2.400    1.333    0.000    0.000    0.000    0.000 
#    0.000    0.000    0.000    0.000    0.000    0.000 
#
# Total GULP energy -371760.314361 kJ/mol
# GULP energy per Si atom -12392.010479 kJ/mol
# Density = 2.191817 g / cm^3
# Si number density = 21.968171 Si / 1000 Ang^3
#
#
#
# Elastic Constant Matrix: (Units=GPa)
#
#
# Indices 1 2 3 4 5 6 
#
# 1 91.6206 30.0190 49.9548 0.0000 0.0000 0.0000
# 2 30.0190 106.4321 50.6544 0.0000 0.0000 0.0000
# 3 49.9548 50.6544 79.2505 0.0000 0.0000 0.0000
# 4 0.0000 0.0000 0.0000 34.2041 0.0000 0.0000
# 5 0.0000 0.0000 0.0000 0.0000 53.0645 0.0000
# 6 0.0000 0.0000 0.0000 0.0000 0.0000 44.3040
#
#
#
# Elastic Compliance Matrix: (Units=1/GPa)
#
#
# Indices 1 2 3 4 5 6 
#
# 1 0.016644 0.000429 -0.010766 0.000000 0.000000 0.000000
# 2 0.000429 0.013514 -0.008909 0.000000 0.000000 0.000000
# 3 -0.010766 -0.008909 0.025098 0.000000 0.000000 0.000000
# 4 0.000000 0.000000 0.000000 0.029236 0.000000 0.000000
# 5 0.000000 0.000000 0.000000 0.000000 0.018845 0.000000
# 6 0.000000 0.000000 0.000000 0.000000 0.000000 0.022571
#
#
# Mechanical properties :
#
#
# Convention : Reuss Voigt Hill
#
# Bulk Modulus (GPa) = 59.64212 59.83995 59.74103
# Shear Modulus (GPa) = 29.41386 36.09286 32.75336
#
# Velocity S-wave (km/s) = 3.66311 4.05774 3.86547
# Velocity P-wave (km/s) = 6.71561 7.01799 6.86847
#
# Compressibility (1/GPa) = 0.01676668
#
# Stress axis : x y z
#
# Youngs Moduli (GPa) = 60.08279 73.99473 39.84323
#
# Poissons Ratio (x) = -0.03177 0.42894
# Poissons Ratio (y) = -0.02580 0.35495
# Poissons Ratio (z) = 0.64683 0.65920
#
# Static dielectric constant tensor:
#      x y z
#    x 3.456550 0.000000 0.000000 
#    y 0.000000 4.187090 0.000000 
#    z 0.000000 0.000000 3.911160 
# 
# 
# High freq. dielectric constant tensor:
#      x y z
#    x 1.869160 0.000000 0.000000 
#    y 0.000000 1.874240 0.000000 
#    z 0.000000 0.000000 1.849530 
# 
# From -- ./inp_files/5998.got.cif
#   From: 2010.03.12/outbox.cif.g09.slc.cpg/sg41_3_cif.got.tgz:5998.got - 2010.04.14 01:55:53.
