data_PCOD8185626
_publ_section_title
;
Structure prediction by ZEFSAII (Michael W. Deem and Ramdas Pophale) SiO2 
 PCOD8185626
Probable space group: A B A 2
;
_chemical_formula_sum "Si O2"
_cell_formula_units_Z 48
_cell_length_a 25.987105
_cell_length_b 9.254889
_cell_length_c 9.722552
_cell_angle_alpha 90.000000
_cell_angle_beta 90.000000
_cell_angle_gamma 90.000000
_cell_volume 2338.349322
_symmetry_space_group_name_H-M "A B A 2"
_symmetry_group_IT_number 41
_symmetry_cell_setting 'orthorhombic'
loop_
_space_group_symop_operation_xyz
x,y,z
-x,-y,z
1/2-x,y,1/2+z
1/2+x,-y,1/2+z
x,1/2+y,1/2+z
-x,1/2-y,1/2+z
1/2-x,1/2+y,z
1/2+x,1/2-y,z
loop_
_atom_site_type_symbol
_atom_site_label
_atom_site_fract_x
_atom_site_fract_y
_atom_site_fract_z
Si Si1 0.023465 0.842433 0.939780
Si Si2 0.704498 0.545425 0.094961
Si Si3 0.363087 0.781829 0.381763
Si Si4 0.809273 0.712656 0.091027
Si Si5 0.642418 0.048072 0.858003
Si Si6 0.964776 0.637754 0.746600
O O1 0.078274 0.835422 0.862452
O O2 0.981238 0.745742 0.865608
O O3 0.030686 0.787929 0.096770
O O4 0.000000 0.000000 0.937628
O O5 0.760414 0.610344 0.071515
O O6 0.705773 0.376621 0.055607
O O7 0.690809 0.561395 0.255427
O O8 0.663086 0.626958 0.001799
O O9 0.332959 0.807508 0.240777
O O10 0.362357 0.612659 0.420252
O O11 0.851702 0.661046 0.981593
O O12 0.593170 0.087606 0.768273
O O13 0.000000 0.500000 0.755806
#
# Coordination Sequence:
#
# PCOD8185626 Si02
#       6
#     8   8   8   8   8   8
#     4  11  26  42  67  98 134 171 217 270 318 388
#     4  11  24  46  63  97 131 170 215 275 319 388
#     4  11  24  44  66  99 132 169 222 266 323 389
#     4  11  26  41  71  94 131 170 221 266 333 385
#     4  11  24  42  69  96 130 174 212 271 324 384
#     4  11  24  44  66  94 136 171 213 266 325 381
#
# _framework density 20.527298999999999
#
# number of rings (size 3 to 8) (size 9 to 14) (size 15 to 20)
#    0.000    1.000    3.333    2.000    4.667    7.333 
#    0.000    0.000    0.000    0.000    0.000    0.000 
#    0.000    0.000    0.000    0.000    0.000    0.000 
#
# Total GULP energy -297737.778059 kJ/mol
# GULP energy per Si atom -12405.740752 kJ/mol
# Density = 2.048058 g / cm^3
# Si number density = 20.527299 Si / 1000 Ang^3
#
#
#
# Elastic Constant Matrix: (Units=GPa)
#
#
# Indices 1 2 3 4 5 6 
#
# 1 85.3403 40.7016 24.0954 0.0000 0.0000 0.0000
# 2 40.7016 127.3322 66.7776 0.0000 0.0000 0.0000
# 3 24.0954 66.7776 89.9938 0.0000 0.0000 0.0000
# 4 0.0000 0.0000 0.0000 42.2260 0.0000 0.0000
# 5 0.0000 0.0000 0.0000 0.0000 34.7611 0.0000
# 6 0.0000 0.0000 0.0000 0.0000 0.0000 38.2439
#
#
#
# Elastic Compliance Matrix: (Units=1/GPa)
#
#
# Indices 1 2 3 4 5 6 
#
# 1 0.013852 -0.004064 -0.000693 0.000000 0.000000 0.000000
# 2 -0.004064 0.014049 -0.009337 0.000000 0.000000 0.000000
# 3 -0.000693 -0.009337 0.018225 0.000000 0.000000 0.000000
# 4 0.000000 0.000000 0.000000 0.023682 0.000000 0.000000
# 5 0.000000 0.000000 0.000000 0.000000 0.028768 0.000000
# 6 0.000000 0.000000 0.000000 0.000000 0.000000 0.026148
#
#
# Mechanical properties :
#
#
# Convention : Reuss Voigt Hill
#
# Bulk Modulus (GPa) = 55.74554 62.86838 59.30696
# Shear Modulus (GPa) = 31.46807 34.45232 32.96019
#
# Velocity S-wave (km/s) = 3.91958 4.10123 4.01144
# Velocity P-wave (km/s) = 6.90651 7.28835 7.10000
#
# Compressibility (1/GPa) = 0.01793865
#
# Stress axis : x y z
#
# Youngs Moduli (GPa) = 72.19256 71.17917 54.86864
#
# Poissons Ratio (x) = 0.28930 0.03802
# Poissons Ratio (y) = 0.29341 0.51228
# Poissons Ratio (z) = 0.05002 0.66457
#
# Static dielectric constant tensor:
#      x y z
#    x 3.718530 0.000000 0.000000 
#    y 0.000000 3.749410 0.000000 
#    z 0.000000 0.000000 3.864130 
# 
# 
# High freq. dielectric constant tensor:
#      x y z
#    x 1.817000 0.000000 0.000000 
#    y 0.000000 1.808050 0.000000 
#    z 0.000000 0.000000 1.811900 
# 
# From -- ./inp_files/3915.got.cif
#   From: 2010.03.12/outbox.cif.g09.slc.cpg/sg41_2_cif.got.tgz:3915.got - 2010.04.14 01:55:53.
