data_PCOD8185543
_publ_section_title
;
Structure prediction by ZEFSAII (Michael W. Deem and Ramdas Pophale) SiO2 
 PCOD8185543
Probable space group: A B A 2
;
_chemical_formula_sum "Si O2"
_cell_formula_units_Z 48
_cell_length_a 14.757171
_cell_length_b 13.202652
_cell_length_c 12.599088
_cell_angle_alpha 90.000000
_cell_angle_beta 90.000000
_cell_angle_gamma 90.000000
_cell_volume 2454.728106
_symmetry_space_group_name_H-M "A B A 2"
_symmetry_group_IT_number 41
_symmetry_cell_setting 'orthorhombic'
loop_
_space_group_symop_operation_xyz
x,y,z
-x,-y,z
1/2-x,y,1/2+z
1/2+x,-y,1/2+z
x,1/2+y,1/2+z
-x,1/2-y,1/2+z
1/2-x,1/2+y,z
1/2+x,1/2-y,z
loop_
_atom_site_type_symbol
_atom_site_label
_atom_site_fract_x
_atom_site_fract_y
_atom_site_fract_z
Si Si1 0.910678 0.378771 0.777500
Si Si2 0.666921 0.521333 0.953048
Si Si3 0.000000 0.000000 0.457959
Si Si4 0.309808 0.314332 0.777500
Si Si5 0.000000 0.000000 0.097040
Si Si6 0.333078 0.978667 0.101951
Si Si7 0.791903 0.879869 0.777500
O O1 0.899255 0.256981 0.777500
O O2 0.810010 0.430023 0.777500
O O3 0.964430 0.409537 0.883428
O O4 0.964430 0.409537 0.671572
O O5 0.689403 0.619218 0.882847
O O6 0.653907 0.420923 0.880239
O O7 0.578244 0.543418 0.021826
O O8 0.750000 0.496750 0.027500
O O9 0.078244 0.956582 0.533174
O O10 0.310597 0.380782 0.672152
O O11 0.218892 0.242652 0.777500
O O12 0.346093 0.079076 0.174761
#
# Coordination Sequence:
#
# PCOD8185543 Si02
#       7
#     8   8   4   8   4   8   8
#     4   9  20  41  57  84 119 158 188 241 299 341
#     4  11  21  38  63  88 114 160 201 238 296 353
#     4  11  22  37  66  84 118 161 196 241 296 352
#     4   9  22  37  60  89 119 154 196 245 295 345
#     4  11  22  37  66  84 118 161 196 241 296 352
#     4  11  21  38  63  88 114 160 201 238 296 353
#     4   9  20  42  57  80 128 152 188 247 294 340
#
# _framework density 19.554100999999999
#
# number of rings (size 3 to 8) (size 9 to 14) (size 15 to 20)
#    1.000    1.000    3.333    0.000    0.000    8.000 
#    0.000    3.333    0.000    0.000    0.000    0.000 
#    0.000    0.000    0.000    0.000    0.000    0.000 
#
# Total GULP energy -297487.240169 kJ/mol
# GULP energy per Si atom -12395.301674 kJ/mol
# Density = 1.950960 g / cm^3
# Si number density = 19.554101 Si / 1000 Ang^3
#
#
#
# Elastic Constant Matrix: (Units=GPa)
#
#
# Indices 1 2 3 4 5 6 
#
# 1 56.6496 -11.8961 22.5782 0.0000 0.0000 0.0000
# 2 -11.8961 88.8716 32.2946 0.0000 0.0000 0.0000
# 3 22.5782 32.2946 124.8448 0.0000 0.0000 0.0000
# 4 0.0000 0.0000 0.0000 27.0425 0.0000 0.0000
# 5 0.0000 0.0000 0.0000 0.0000 24.5996 0.0000
# 6 0.0000 0.0000 0.0000 0.0000 0.0000 21.5450
#
#
#
# Elastic Compliance Matrix: (Units=1/GPa)
#
#
# Indices 1 2 3 4 5 6 
#
# 1 0.020551 0.004527 -0.004888 0.000000 0.000000 0.000000
# 2 0.004527 0.013417 -0.004289 0.000000 0.000000 0.000000
# 3 -0.004888 -0.004289 0.010003 0.000000 0.000000 0.000000
# 4 0.000000 0.000000 0.000000 0.036979 0.000000 0.000000
# 5 0.000000 0.000000 0.000000 0.000000 0.040651 0.000000
# 6 0.000000 0.000000 0.000000 0.000000 0.000000 0.046415
#
#
# Mechanical properties :
#
#
# Convention : Reuss Voigt Hill
#
# Bulk Modulus (GPa) = 28.84233 39.59104 34.21669
# Shear Modulus (GPa) = 26.47283 29.79670 28.13477
#
# Velocity S-wave (km/s) = 3.68343 3.90783 3.79729
# Velocity P-wave (km/s) = 5.73343 6.37593 6.06319
#
# Compressibility (1/GPa) = 0.03467127
#
# Stress axis : x y z
#
# Youngs Moduli (GPa) = 48.65930 74.53323 99.96559
#
# Poissons Ratio (x) = -0.33741 0.48860
# Poissons Ratio (y) = -0.22028 0.42879
# Poissons Ratio (z) = 0.23783 0.31970
#
# Static dielectric constant tensor:
#      x y z
#    x 3.716350 0.000000 0.000000 
#    y 0.000000 3.291360 0.000000 
#    z 0.000000 0.000000 3.708640 
# 
# 
# High freq. dielectric constant tensor:
#      x y z
#    x 1.747730 0.000000 0.000000 
#    y 0.000000 1.742380 0.000000 
#    z 0.000000 0.000000 1.781120 
# 
# From -- ./inp_files/5568.got.cif
#   From: 2010.03.12/outbox.cif.g09.slc.cpg/sg41_3_cif.got.tgz:5568.got - 2010.04.14 01:55:53.
