data_PCOD8185550
_publ_section_title
;
Structure prediction by ZEFSAII (Michael W. Deem and Ramdas Pophale) SiO2 
 PCOD8185550
Probable space group: A B A 2
;
_chemical_formula_sum "Si O2"
_cell_formula_units_Z 64
_cell_length_a 10.626279
_cell_length_b 17.278910
_cell_length_c 16.026256
_cell_angle_alpha 90.000000
_cell_angle_beta 90.000000
_cell_angle_gamma 90.000000
_cell_volume 2942.589173
_symmetry_space_group_name_H-M "A B A 2"
_symmetry_group_IT_number 41
_symmetry_cell_setting 'orthorhombic'
loop_
_space_group_symop_operation_xyz
x,y,z
-x,-y,z
1/2-x,y,1/2+z
1/2+x,-y,1/2+z
x,1/2+y,1/2+z
-x,1/2-y,1/2+z
1/2-x,1/2+y,z
1/2+x,1/2-y,z
loop_
_atom_site_type_symbol
_atom_site_label
_atom_site_fract_x
_atom_site_fract_y
_atom_site_fract_z
Si Si1 0.104795 0.445584 0.662550
Si Si2 0.608301 0.167029 0.530069
Si Si3 0.159940 0.393727 0.965526
Si Si4 0.493391 0.302200 0.749888
Si Si5 0.262031 0.046560 0.522224
Si Si6 0.296417 0.826788 0.784142
Si Si7 0.965519 0.913355 0.893578
Si Si8 0.441736 0.660148 0.566617
O O1 0.040439 0.376108 0.607947
O O2 0.172455 0.499621 0.595633
O O3 0.196746 0.406548 0.730329
O O4 0.000000 0.500000 0.707291
O O5 0.758491 0.152937 0.535851
O O6 0.581458 0.126319 0.441165
O O7 0.575587 0.255717 0.528024
O O8 0.178262 0.351082 0.878033
O O9 0.187352 0.485570 0.963988
O O10 0.019175 0.386353 0.997824
O O11 0.586771 0.227988 0.755205
O O12 0.343905 0.288239 0.772572
O O13 0.558451 0.365560 0.809760
O O14 0.495690 0.336340 0.657140
O O15 0.351612 0.092010 0.458379
O O16 0.186953 0.112868 0.570838
O O17 0.000000 0.000000 0.867831
#
# Coordination Sequence:
#
# PCOD8185550 Si02
#       8
#     8   8   8   8   8   8   8   8
#     4  11  22  44  76 102 145 189 244 295 358 446
#     4  11  21  44  69  98 133 187 235 288 352 429
#     4  11  25  45  68  99 144 187 239 299 358 439
#     4  12  28  46  72 110 150 191 245 312 369 435
#     4  11  24  44  72 107 136 196 242 293 367 447
#     4  12  27  48  71 109 152 192 244 312 371 434
#     4  12  22  44  77  98 139 192 252 289 360 438
#     4  12  28  42  73 105 147 186 238 303 374 432
#
# _framework density 21.749554
#
# number of rings (size 3 to 8) (size 9 to 14) (size 15 to 20)
#    0.000    0.500    6.250    2.625    3.500    5.000 
#    0.000    0.000    0.000    0.000    0.000    0.000 
#    0.000    0.000    0.000    0.000    0.000    0.000 
#
# Total GULP energy -396565.487212 kJ/mol
# GULP energy per Si atom -12392.671475 kJ/mol
# Density = 2.170005 g / cm^3
# Si number density = 21.749554 Si / 1000 Ang^3
#
#
#
# Elastic Constant Matrix: (Units=GPa)
#
#
# Indices 1 2 3 4 5 6 
#
# 1 103.0455 49.8962 36.3643 0.0000 0.0000 0.0000
# 2 49.8962 100.0323 37.4287 0.0000 0.0000 0.0000
# 3 36.3643 37.4287 106.8409 0.0000 0.0000 0.0000
# 4 0.0000 0.0000 0.0000 38.8153 0.0000 0.0000
# 5 0.0000 0.0000 0.0000 0.0000 29.3813 0.0000
# 6 0.0000 0.0000 0.0000 0.0000 0.0000 19.5909
#
#
#
# Elastic Compliance Matrix: (Units=1/GPa)
#
#
# Indices 1 2 3 4 5 6 
#
# 1 0.013372 -0.005716 -0.002549 0.000000 0.000000 0.000000
# 2 -0.005716 0.013948 -0.002941 0.000000 0.000000 0.000000
# 3 -0.002549 -0.002941 0.011257 0.000000 0.000000 0.000000
# 4 0.000000 0.000000 0.000000 0.025763 0.000000 0.000000
# 5 0.000000 0.000000 0.000000 0.000000 0.034035 0.000000
# 6 0.000000 0.000000 0.000000 0.000000 0.000000 0.051044
#
#
# Mechanical properties :
#
#
# Convention : Reuss Voigt Hill
#
# Bulk Modulus (GPa) = 61.85803 61.92192 61.88997
# Shear Modulus (GPa) = 28.21351 29.97281 29.09316
#
# Velocity S-wave (km/s) = 3.60557 3.71629 3.66135
# Velocity P-wave (km/s) = 6.77025 6.85176 6.81113
#
# Compressibility (1/GPa) = 0.01616605
#
# Stress axis : x y z
#
# Youngs Moduli (GPa) = 74.78453 71.69285 88.83023
#
# Poissons Ratio (x) = 0.40981 0.22640
# Poissons Ratio (y) = 0.42748 0.26124
# Poissons Ratio (z) = 0.19060 0.21084
#
# Static dielectric constant tensor:
#      x y z
#    x 4.034280 0.000000 0.000000 
#    y 0.000000 4.066810 0.000000 
#    z 0.000000 0.000000 3.921710 
# 
# 
# High freq. dielectric constant tensor:
#      x y z
#    x 1.852410 0.000000 0.000000 
#    y 0.000000 1.859910 0.000000 
#    z 0.000000 0.000000 1.857820 
# 
# From -- ./inp_files/8096.got.cif
#   From: 2010.03.12/outbox.cif.g09.slc.cpg/sg41_5_cif.got.tgz:8096.got - 2010.04.14 01:55:53.
