data_PCOD8185845
_publ_section_title
;
Structure prediction by ZEFSAII (Michael W. Deem and Ramdas Pophale) SiO2 
 PCOD8185845
Probable space group: F M M 2
;
_chemical_formula_sum "Si O2"
_cell_formula_units_Z 96
_cell_length_a 8.533008
_cell_length_b 25.347012
_cell_length_c 25.555882
_cell_angle_alpha 90.000000
_cell_angle_beta 90.000000
_cell_angle_gamma 90.000000
_cell_volume 5527.386041
_symmetry_space_group_name_H-M "F M M 2"
_symmetry_group_IT_number 42
_symmetry_cell_setting 'orthorhombic'
loop_
_space_group_symop_operation_xyz
x,y,z
-x,-y,z
-x,y,z
x,-y,z
x,1/2+y,1/2+z
-x,1/2-y,1/2+z
-x,1/2+y,1/2+z
x,1/2-y,1/2+z
1/2+x,y,1/2+z
1/2-x,-y,1/2+z
1/2-x,y,1/2+z
1/2+x,-y,1/2+z
1/2+x,1/2+y,z
1/2-x,1/2-y,z
1/2-x,1/2+y,z
1/2+x,1/2-y,z
loop_
_atom_site_type_symbol
_atom_site_label
_atom_site_fract_x
_atom_site_fract_y
_atom_site_fract_z
Si Si1 0.680987 0.613755 0.501450
Si Si2 0.184345 0.191704 0.801853
Si Si3 0.179888 0.000000 0.491541
Si Si4 0.685296 0.691275 0.195333
Si Si5 0.686324 0.808642 0.088080
Si Si6 0.814414 0.610217 0.882235
Si Si7 0.318801 0.500000 0.881797
O O1 0.500000 0.627987 0.499454
O O2 0.707232 0.553941 0.524123
O O3 0.758595 0.655514 0.541224
O O4 0.745659 0.617230 0.442221
O O5 0.250000 0.250000 0.811972
O O6 0.255855 0.164495 0.749175
O O7 0.229070 0.155848 0.850617
O O8 0.000000 0.195649 0.795422
O O9 0.300847 0.000000 0.444099
O O10 0.000000 0.000000 0.468933
O O11 0.500000 0.690326 0.192447
O O12 0.750000 0.750000 0.197343
O O13 0.754844 0.665172 0.142619
O O14 0.500000 0.807592 0.088365
O O15 0.750000 0.750000 0.080101
O O16 0.763176 0.553039 0.859624
O O17 0.000000 0.616101 0.877259
O O18 0.500000 0.500000 0.865576
#
# Coordination Sequence:
#
# PCOD8185845 Si02
#       7
#    16  16   8  16  16  16   8
#     4   8  16  29  49  71  94 123 159 196 238 285
#     4  11  21  34  51  74 100 129 162 202 246 295
#     4   8  14  30  50  67  88 123 164 202 238 280
#     4  10  18  31  49  69  91 123 162 200 238 284
#     4  10  18  30  46  69  96 125 157 194 236 285
#     4  10  19  34  52  73 100 133 166 202 244 290
#     4  10  18  30  48  73  98 127 166 206 242 286
#
# _framework density 17.368065000000001
#
# number of rings (size 3 to 8) (size 9 to 14) (size 15 to 20)
#    0.000    2.333    0.000    7.750    0.000    0.667 
#    0.000   10.000    0.000    1.000    0.000    4.667 
#    0.000    0.000    0.000    0.000    0.000    0.000 
#
# Total GULP energy -297399.466251 kJ/mol
# GULP energy per Si atom -12391.644427 kJ/mol
# Density = 1.732853 g / cm^3
# Si number density = 17.368065 Si / 1000 Ang^3
#
#
#
# Elastic Constant Matrix: (Units=GPa)
#
#
# Indices 1 2 3 4 5 6 
#
# 1 90.3315 26.4442 26.6345 0.0000 0.0000 0.0000
# 2 26.4442 101.9412 64.4055 0.0000 0.0000 0.0000
# 3 26.6345 64.4055 109.3138 0.0000 0.0000 0.0000
# 4 0.0000 0.0000 0.0000 4.4849 0.0000 0.0000
# 5 0.0000 0.0000 0.0000 0.0000 19.8460 0.0000
# 6 0.0000 0.0000 0.0000 0.0000 0.0000 22.0889
#
#
#
# Elastic Compliance Matrix: (Units=1/GPa)
#
#
# Indices 1 2 3 4 5 6 
#
# 1 0.012190 -0.002048 -0.001763 0.000000 0.000000 0.000000
# 2 -0.002048 0.015970 -0.008910 0.000000 0.000000 0.000000
# 3 -0.001763 -0.008910 0.014827 0.000000 0.000000 0.000000
# 4 0.000000 0.000000 0.000000 0.222971 0.000000 0.000000
# 5 0.000000 0.000000 0.000000 0.000000 0.050388 0.000000
# 6 0.000000 0.000000 0.000000 0.000000 0.000000 0.045272
#
#
# Mechanical properties :
#
#
# Convention : Reuss Voigt Hill
#
# Bulk Modulus (GPa) = 56.99964 59.61721 58.30843
# Shear Modulus (GPa) = 12.72557 21.55745 17.14151
#
# Velocity S-wave (km/s) = 2.70978 3.52691 3.14499
# Velocity P-wave (km/s) = 6.53303 7.14043 6.84347
#
# Compressibility (1/GPa) = 0.01754397
#
# Stress axis : x y z
#
# Youngs Moduli (GPa) = 82.03560 62.61597 67.44232
#
# Poissons Ratio (x) = 0.12824 0.11893
# Poissons Ratio (y) = 0.16801 0.60094
# Poissons Ratio (z) = 0.14466 0.55793
#
# Static dielectric constant tensor:
#      x y z
#    x 3.167800 0.000000 0.000000 
#    y 0.000000 3.389580 0.000000 
#    z 0.000000 0.000000 3.683810 
# 
# 
# High freq. dielectric constant tensor:
#      x y z
#    x 1.672820 0.000000 0.000000 
#    y 0.000000 1.654910 0.000000 
#    z 0.000000 0.000000 1.657890 
# 
# From -- ./inp_files/30639.got.cif
#   From: 2010.03.12/outbox.cif.g09.slc.cpg/sg42_16_cif.got.tgz:30639.got - 2010.04.14 02:04:31.
