data_PCOD8185049
_publ_section_title
;
Structure prediction by ZEFSAII (Michael W. Deem and Ramdas Pophale) SiO2 
 PCOD8185049
Probable space group: A B A 2
;
_chemical_formula_sum "Si O2"
_cell_formula_units_Z 32
_cell_length_a 19.635475
_cell_length_b 14.163784
_cell_length_c 5.068752
_cell_angle_alpha 90.000000
_cell_angle_beta 90.000000
_cell_angle_gamma 90.000000
_cell_volume 1409.683932
_symmetry_space_group_name_H-M "A B A 2"
_symmetry_group_IT_number 41
_symmetry_cell_setting 'orthorhombic'
loop_
_space_group_symop_operation_xyz
x,y,z
-x,-y,z
1/2-x,y,1/2+z
1/2+x,-y,1/2+z
x,1/2+y,1/2+z
-x,1/2-y,1/2+z
1/2-x,1/2+y,z
1/2+x,1/2-y,z
loop_
_atom_site_type_symbol
_atom_site_label
_atom_site_fract_x
_atom_site_fract_y
_atom_site_fract_z
Si Si1 0.901217 0.798457 0.705570
Si Si2 0.395350 0.892518 0.947658
Si Si3 0.295000 0.057845 0.037286
Si Si4 0.025695 0.360948 0.463303
O O1 0.847983 0.855341 0.526676
O O2 0.955851 0.750873 0.502266
O O3 0.867141 0.713460 0.878182
O O4 0.944975 0.867940 0.898432
O O5 0.431063 0.903270 0.226000
O O6 0.330548 0.960216 0.959330
O O7 0.450977 0.920749 0.721011
O O8 0.266495 0.066359 0.333072
#
# Coordination Sequence:
#
# PCOD8185049 Si02
#       4
#     8   8   8   8
#     4  10  23  43  74  97 135 170 237 284 365 402
#     4  10  22  43  66  96 137 171 223 288 351 406
#     4  12  29  44  63 100 141 190 239 268 333 437
#     4  10  20  42  71 101 128 168 222 300 363 407
#
# _framework density 22.700123999999999
#
# number of rings (size 3 to 8) (size 9 to 14) (size 15 to 20)
#    1.500    0.000    2.500    1.500    3.500    3.000 
#    0.000    5.000    0.000    0.000    0.000    0.000 
#    0.000    0.000    0.000    0.000    0.000    0.000 
#
# Total GULP energy -198253.619364 kJ/mol
# GULP energy per Si atom -12390.851210 kJ/mol
# Density = 2.264846 g / cm^3
# Si number density = 22.700124 Si / 1000 Ang^3
#
#
#
# Elastic Constant Matrix: (Units=GPa)
#
#
# Indices 1 2 3 4 5 6 
#
# 1 83.6789 55.4008 14.2685 0.0000 0.0000 0.0000
# 2 55.4008 68.8586 28.4391 0.0000 0.0000 0.0000
# 3 14.2685 28.4391 110.5037 0.0000 0.0000 0.0000
# 4 0.0000 0.0000 0.0000 22.8833 0.0000 0.0000
# 5 0.0000 0.0000 0.0000 0.0000 36.9220 0.0000
# 6 0.0000 0.0000 0.0000 0.0000 0.0000 41.9078
#
#
#
# Elastic Compliance Matrix: (Units=1/GPa)
#
#
# Indices 1 2 3 4 5 6 
#
# 1 0.026072 -0.021916 0.002274 0.000000 0.000000 0.000000
# 2 -0.021916 0.034672 -0.006093 0.000000 0.000000 0.000000
# 3 0.002274 -0.006093 0.010324 0.000000 0.000000 0.000000
# 4 0.000000 0.000000 0.000000 0.043700 0.000000 0.000000
# 5 0.000000 0.000000 0.000000 0.000000 0.027084 0.000000
# 6 0.000000 0.000000 0.000000 0.000000 0.000000 0.023862
#
#
# Mechanical properties :
#
#
# Convention : Reuss Voigt Hill
#
# Bulk Modulus (GPa) = 51.02731 51.02869 51.02800
# Shear Modulus (GPa) = 22.34963 31.33816 26.84390
#
# Velocity S-wave (km/s) = 3.14117 3.71958 3.44254
# Velocity P-wave (km/s) = 5.97358 6.40119 6.19108
#
# Compressibility (1/GPa) = 0.01959735
#
# Stress axis : x y z
#
# Youngs Moduli (GPa) = 38.35467 28.84200 96.86138
#
# Poissons Ratio (x) = 0.63210 -0.22023
# Poissons Ratio (y) = 0.84058 0.59020
# Poissons Ratio (z) = -0.08721 0.17574
#
# Static dielectric constant tensor:
#      x y z
#    x 3.768690 0.000000 0.000000 
#    y 0.000000 3.847580 0.000000 
#    z 0.000000 0.000000 4.076020 
# 
# 
# High freq. dielectric constant tensor:
#      x y z
#    x 1.875910 0.000000 0.000000 
#    y 0.000000 1.883080 0.000000 
#    z 0.000000 0.000000 1.907290 
# 
# From -- ./inp_files/397.got.cif
#   From: 2010.03.12/outbox.cif.g09.slc.cpg/sg41_1_cif.got.tgz:397.got - 2010.04.14 01:55:53.
