data_PCOD8185114
_publ_section_title
;
Structure prediction by ZEFSAII (Michael W. Deem and Ramdas Pophale) SiO2 
 PCOD8185114
Probable space group: A B A 2
;
_chemical_formula_sum "Si O2"
_cell_formula_units_Z 40
_cell_length_a 17.713334
_cell_length_b 19.699007
_cell_length_c 5.257304
_cell_angle_alpha 90.000000
_cell_angle_beta 90.000000
_cell_angle_gamma 90.000000
_cell_volume 1834.457847
_symmetry_space_group_name_H-M "A B A 2"
_symmetry_group_IT_number 41
_symmetry_cell_setting 'orthorhombic'
loop_
_space_group_symop_operation_xyz
x,y,z
-x,-y,z
1/2-x,y,1/2+z
1/2+x,-y,1/2+z
x,1/2+y,1/2+z
-x,1/2-y,1/2+z
1/2-x,1/2+y,z
1/2+x,1/2-y,z
loop_
_atom_site_type_symbol
_atom_site_label
_atom_site_fract_x
_atom_site_fract_y
_atom_site_fract_z
Si Si1 0.794626 0.596025 0.896160
Si Si2 0.296666 0.745731 0.910124
Si Si3 0.031801 0.213899 0.921425
Si Si4 0.945710 0.435046 0.458825
Si Si5 0.087527 0.515647 0.959246
O O1 0.762389 0.575805 0.621278
O O2 0.814590 0.674692 0.911501
O O3 0.871580 0.555978 0.935495
O O4 0.250866 0.724318 0.658358
O O5 0.377526 0.709728 0.913892
O O6 0.006267 0.134928 0.938361
O O7 0.998065 0.246089 0.666359
O O8 0.895933 0.435455 0.718005
O O9 0.000000 0.500000 0.489295
O O10 0.889646 0.444028 0.216994
O O11 0.000000 0.500000 0.995226
#
# Coordination Sequence:
#
# PCOD8185114 Si02
#       5
#     8   8   8   8   8
#     4  10  21  38  63  93 125 172 224 265 325 403
#     4  10  23  43  65  94 135 178 216 277 340 400
#     4  12  26  42  70 104 133 177 236 279 333 403
#     4  10  23  39  62  97 131 168 209 268 342 371
#     4  10  21  38  62  88 131 167 209 265 332 377
#
# _framework density 21.804808999999999
#
# number of rings (size 3 to 8) (size 9 to 14) (size 15 to 20)
#    0.000    1.600    0.000    3.600   11.200    0.000 
#    0.000    6.000    0.000    0.000    0.000    0.000 
#    0.000    0.000    0.000    0.000    0.000    0.000 
#
# Total GULP energy -247942.127959 kJ/mol
# GULP energy per Si atom -12397.106398 kJ/mol
# Density = 2.175518 g / cm^3
# Si number density = 21.804809 Si / 1000 Ang^3
#
#
#
# Elastic Constant Matrix: (Units=GPa)
#
#
# Indices 1 2 3 4 5 6 
#
# 1 85.7299 16.2040 8.7892 0.0000 0.0000 0.0000
# 2 16.2040 95.8687 15.4195 0.0000 0.0000 0.0000
# 3 8.7892 15.4195 181.9791 0.0000 0.0000 0.0000
# 4 0.0000 0.0000 0.0000 26.5489 0.0000 0.0000
# 5 0.0000 0.0000 0.0000 0.0000 31.7671 0.0000
# 6 0.0000 0.0000 0.0000 0.0000 0.0000 36.0724
#
#
#
# Elastic Compliance Matrix: (Units=1/GPa)
#
#
# Indices 1 2 3 4 5 6 
#
# 1 0.012080 -0.001975 -0.000416 0.000000 0.000000 0.000000
# 2 -0.001975 0.010898 -0.000828 0.000000 0.000000 0.000000
# 3 -0.000416 -0.000828 0.005585 0.000000 0.000000 0.000000
# 4 0.000000 0.000000 0.000000 0.037666 0.000000 0.000000
# 5 0.000000 0.000000 0.000000 0.000000 0.031479 0.000000
# 6 0.000000 0.000000 0.000000 0.000000 0.000000 0.027722
#
#
# Mechanical properties :
#
#
# Convention : Reuss Voigt Hill
#
# Bulk Modulus (GPa) = 45.19646 49.37813 47.28729
# Shear Modulus (GPa) = 35.90804 40.42202 38.16503
#
# Velocity S-wave (km/s) = 4.06247 4.31026 4.18820
# Velocity P-wave (km/s) = 6.54046 6.88955 6.71727
#
# Compressibility (1/GPa) = 0.02212563
#
# Stress axis : x y z
#
# Youngs Moduli (GPa) = 82.77813 91.76059 179.03834
#
# Poissons Ratio (x) = 0.18122 0.07450
# Poissons Ratio (y) = 0.16348 0.14825
# Poissons Ratio (z) = 0.03445 0.07598
#
# Static dielectric constant tensor:
#      x y z
#    x 3.548450 0.000000 0.000000 
#    y 0.000000 3.866590 0.000000 
#    z 0.000000 0.000000 5.941130 
# 
# 
# High freq. dielectric constant tensor:
#      x y z
#    x 1.825580 0.000000 0.000000 
#    y 0.000000 1.850990 0.000000 
#    z 0.000000 0.000000 1.897360 
# 
# From -- ./inp_files/428.got.cif
#   From: 2010.03.12/outbox.cif.g09.slc.cpg/sg41_1_cif.got.tgz:428.got - 2010.04.14 01:55:53.
