data_PCOD8185519
_publ_section_title
;
Structure prediction by ZEFSAII (Michael W. Deem and Ramdas Pophale) SiO2 
 PCOD8185519
Probable space group: A B A 2
;
_chemical_formula_sum "Si O2"
_cell_formula_units_Z 60
_cell_length_a 11.047563
_cell_length_b 21.659083
_cell_length_c 11.516426
_cell_angle_alpha 90.000000
_cell_angle_beta 90.000000
_cell_angle_gamma 90.000000
_cell_volume 2755.651380
_symmetry_space_group_name_H-M "A B A 2"
_symmetry_group_IT_number 41
_symmetry_cell_setting 'orthorhombic'
loop_
_space_group_symop_operation_xyz
x,y,z
-x,-y,z
1/2-x,y,1/2+z
1/2+x,-y,1/2+z
x,1/2+y,1/2+z
-x,1/2-y,1/2+z
1/2-x,1/2+y,z
1/2+x,1/2-y,z
loop_
_atom_site_type_symbol
_atom_site_label
_atom_site_fract_x
_atom_site_fract_y
_atom_site_fract_z
Si Si1 0.582872 0.606539 0.513180
Si Si2 0.331216 0.801960 0.198848
Si Si3 0.157521 0.099467 0.651984
Si Si4 0.500000 0.500000 0.964846
Si Si5 0.389268 0.670454 0.102713
Si Si6 0.894375 0.129525 0.248530
Si Si7 0.726802 0.521778 0.116103
Si Si8 0.484865 0.634888 0.863714
O O1 0.636926 0.664980 0.579145
O O2 0.452625 0.589052 0.563917
O O3 0.566194 0.624586 0.380504
O O4 0.676379 0.550275 0.526343
O O5 0.372273 0.732371 0.176984
O O6 0.187065 0.809075 0.224268
O O7 0.397075 0.832197 0.310394
O O8 0.260114 0.138495 0.587258
O O9 0.120462 0.135960 0.767808
O O10 0.208729 0.032646 0.687879
O O11 0.515031 0.562980 0.890757
O O12 0.617697 0.492053 0.044073
O O13 0.483936 0.628824 0.173374
O O14 0.443876 0.676442 0.973044
O O15 0.814724 0.070828 0.211590
#
# Coordination Sequence:
#
# PCOD8185519 Si02
#       8
#     8   8   8   4   8   8   8   8
#     4  10  25  45  70 105 143 192 242 294 366 442
#     4  10  27  46  74 103 141 190 247 299 366 436
#     4  11  26  45  69 110 143 190 237 301 367 434
#     4  12  22  44  74 102 150 182 246 296 372 434
#     4  12  27  47  72 105 142 190 250 301 365 438
#     4  11  25  45  71 103 142 192 241 303 366 437
#     4  11  22  44  68 110 144 188 241 294 373 440
#     4  11  26  47  72 104 143 196 229 310 367 430
#
# _framework density 21.773437000000001
#
# number of rings (size 3 to 8) (size 9 to 14) (size 15 to 20)
#    0.000    1.067    2.667    1.200   16.800    0.000 
#    4.800    0.000    0.000    0.000    0.000    0.000 
#    0.000    0.000    0.000    0.000    0.000    0.000 
#
# Total GULP energy -372063.398322 kJ/mol
# GULP energy per Si atom -12402.113277 kJ/mol
# Density = 2.172388 g / cm^3
# Si number density = 21.773437 Si / 1000 Ang^3
#
#
#
# Elastic Constant Matrix: (Units=GPa)
#
#
# Indices 1 2 3 4 5 6 
#
# 1 138.8429 30.6015 49.4877 0.0000 0.0000 0.0000
# 2 30.6015 91.6771 19.7851 0.0000 0.0000 0.0000
# 3 49.4877 19.7851 140.6862 0.0000 0.0000 0.0000
# 4 0.0000 0.0000 0.0000 30.1986 0.0000 0.0000
# 5 0.0000 0.0000 0.0000 0.0000 19.5598 0.0000
# 6 0.0000 0.0000 0.0000 0.0000 0.0000 24.6327
#
#
#
# Elastic Compliance Matrix: (Units=1/GPa)
#
#
# Indices 1 2 3 4 5 6 
#
# 1 0.008685 -0.002310 -0.002730 0.000000 0.000000 0.000000
# 2 -0.002310 0.011864 -0.000856 0.000000 0.000000 0.000000
# 3 -0.002730 -0.000856 0.008189 0.000000 0.000000 0.000000
# 4 0.000000 0.000000 0.000000 0.033114 0.000000 0.000000
# 5 0.000000 0.000000 0.000000 0.000000 0.051125 0.000000
# 6 0.000000 0.000000 0.000000 0.000000 0.000000 0.040596
#
#
# Mechanical properties :
#
#
# Convention : Reuss Voigt Hill
#
# Bulk Modulus (GPa) = 59.01302 63.43943 61.22622
# Shear Modulus (GPa) = 29.23766 32.96703 31.10235
#
# Velocity S-wave (km/s) = 3.66842 3.89536 3.78359
# Velocity P-wave (km/s) = 6.71603 7.03073 6.87518
#
# Compressibility (1/GPa) = 0.01694541
#
# Stress axis : x y z
#
# Youngs Moduli (GPa) = 115.14746 84.29185 122.11936
#
# Poissons Ratio (x) = 0.19469 0.33339
# Poissons Ratio (y) = 0.26595 0.10453
# Poissons Ratio (z) = 0.31436 0.07215
#
# Static dielectric constant tensor:
#      x y z
#    x 4.124500 0.000000 0.000000 
#    y 0.000000 3.952140 0.000000 
#    z 0.000000 0.000000 3.808860 
# 
# 
# High freq. dielectric constant tensor:
#      x y z
#    x 1.872120 0.000000 0.000000 
#    y 0.000000 1.851500 0.000000 
#    z 0.000000 0.000000 1.852920 
# 
# From -- ./inp_files/5152.got.cif
#   From: 2010.03.12/outbox.cif.g09.slc.cpg/sg41_3_cif.got.tgz:5152.got - 2010.04.14 01:55:53.
