data_PCOD8185485
_publ_section_title
;
Structure prediction by ZEFSAII (Michael W. Deem and Ramdas Pophale) SiO2 
 PCOD8185485
Probable space group: A B A 2
;
_chemical_formula_sum "Si O2"
_cell_formula_units_Z 64
_cell_length_a 8.427145
_cell_length_b 21.883506
_cell_length_c 15.807742
_cell_angle_alpha 90.000000
_cell_angle_beta 90.000000
_cell_angle_gamma 90.000000
_cell_volume 2915.192300
_symmetry_space_group_name_H-M "A B A 2"
_symmetry_group_IT_number 41
_symmetry_cell_setting 'orthorhombic'
loop_
_space_group_symop_operation_xyz
x,y,z
-x,-y,z
1/2-x,y,1/2+z
1/2+x,-y,1/2+z
x,1/2+y,1/2+z
-x,1/2-y,1/2+z
1/2-x,1/2+y,z
1/2+x,1/2-y,z
loop_
_atom_site_type_symbol
_atom_site_label
_atom_site_fract_x
_atom_site_fract_y
_atom_site_fract_z
Si Si1 0.633316 0.802263 0.975820
Si Si2 0.620756 0.556084 0.768192
Si Si3 0.947760 0.217950 0.129502
Si Si4 0.857966 0.890928 0.051829
Si Si5 0.686634 0.200557 0.899489
Si Si6 0.355376 0.311156 0.724056
Si Si7 0.310288 0.493301 0.604501
Si Si8 0.335102 0.916768 0.456819
O O1 0.500686 0.813183 0.903843
O O2 0.782995 0.767432 0.936595
O O3 0.554520 0.765705 0.052896
O O4 0.701756 0.867092 0.003929
O O5 0.500000 0.500000 0.769829
O O6 0.554842 0.623483 0.739132
O O7 0.743567 0.540656 0.691771
O O8 0.696527 0.558935 0.861465
O O9 0.064754 0.161547 0.109867
O O10 0.015919 0.257624 0.209043
O O11 0.772739 0.190720 0.147401
O O12 0.789682 0.944539 0.109842
O O13 0.980181 0.918918 0.983101
O O14 0.746779 0.199873 0.804947
O O15 0.780695 0.153462 0.960145
O O16 0.500000 0.500000 0.604075
O O17 0.268295 0.455854 0.520928
#
# Coordination Sequence:
#
# PCOD8185485 Si02
#       8
#     8   8   8   8   8   8   8   8
#     4  12  22  40  67  97 132 177 226 270 345 410
#     4  10  24  43  68  97 132 184 226 282 341 407
#     4  12  23  41  66 100 134 176 222 275 346 407
#     4  12  24  40  70 100 129 183 226 286 340 417
#     4  11  22  41  63  96 134 176 220 280 337 413
#     4  11  25  40  65  97 139 174 222 283 342 404
#     4  11  25  43  67 100 132 180 236 283 346 408
#     4  11  23  46  69  98 138 179 234 284 351 409
#
# _framework density 21.953955000000001
#
# number of rings (size 3 to 8) (size 9 to 14) (size 15 to 20)
#    0.000    0.750    3.750    3.375    5.250    1.000 
#    0.000    8.750    0.000    0.000    0.000    0.000 
#    0.000    0.000    0.000    0.000    0.000    0.000 
#
# Total GULP energy -396628.222484 kJ/mol
# GULP energy per Si atom -12394.631953 kJ/mol
# Density = 2.190399 g / cm^3
# Si number density = 21.953955 Si / 1000 Ang^3
#
#
#
# Elastic Constant Matrix: (Units=GPa)
#
#
# Indices 1 2 3 4 5 6 
#
# 1 88.3487 23.7677 20.8785 0.0000 0.0000 0.0000
# 2 23.7677 98.5064 52.1307 0.0000 0.0000 0.0000
# 3 20.8785 52.1307 117.5783 0.0000 0.0000 0.0000
# 4 0.0000 0.0000 0.0000 34.4798 0.0000 0.0000
# 5 0.0000 0.0000 0.0000 0.0000 30.7280 0.0000
# 6 0.0000 0.0000 0.0000 0.0000 0.0000 36.8592
#
#
#
# Elastic Compliance Matrix: (Units=1/GPa)
#
#
# Indices 1 2 3 4 5 6 
#
# 1 0.012218 -0.002352 -0.001127 0.000000 0.000000 0.000000
# 2 -0.002352 0.013716 -0.005664 0.000000 0.000000 0.000000
# 3 -0.001127 -0.005664 0.011216 0.000000 0.000000 0.000000
# 4 0.000000 0.000000 0.000000 0.029003 0.000000 0.000000
# 5 0.000000 0.000000 0.000000 0.000000 0.032544 0.000000
# 6 0.000000 0.000000 0.000000 0.000000 0.000000 0.027130
#
#
# Mechanical properties :
#
#
# Convention : Reuss Voigt Hill
#
# Bulk Modulus (GPa) = 53.00611 55.33189 54.16900
# Shear Modulus (GPa) = 33.24471 34.25718 33.75094
#
# Velocity S-wave (km/s) = 3.89561 3.95449 3.92516
# Velocity P-wave (km/s) = 6.66566 6.79036 6.72830
#
# Compressibility (1/GPa) = 0.01886575
#
# Stress axis : x y z
#
# Youngs Moduli (GPa) = 81.84843 72.90553 89.15617
#
# Poissons Ratio (x) = 0.17144 0.10047
# Poissons Ratio (y) = 0.19247 0.50497
# Poissons Ratio (z) = 0.09224 0.41293
#
# Static dielectric constant tensor:
#      x y z
#    x 3.806240 0.000000 0.000000 
#    y 0.000000 4.218320 0.000000 
#    z 0.000000 0.000000 4.279110 
# 
# 
# High freq. dielectric constant tensor:
#      x y z
#    x 1.848350 0.000000 0.000000 
#    y 0.000000 1.874470 0.000000 
#    z 0.000000 0.000000 1.871790 
# 
# From -- ./inp_files/9822.got.cif
#   From: 2010.03.12/outbox.cif.g09.slc.cpg/sg41_5_cif.got.tgz:9822.got - 2010.04.14 01:55:53.
