data_PCOD8185687
_publ_section_title
;
Structure prediction by ZEFSAII (Michael W. Deem and Ramdas Pophale) SiO2 
 PCOD8185687
Probable space group: A B A 2
;
_chemical_formula_sum "Si O2"
_cell_formula_units_Z 36
_cell_length_a 9.137261
_cell_length_b 12.342737
_cell_length_c 13.524102
_cell_angle_alpha 90.000000
_cell_angle_beta 90.000000
_cell_angle_gamma 90.000000
_cell_volume 1525.232122
_symmetry_space_group_name_H-M "A B A 2"
_symmetry_group_IT_number 41
_symmetry_cell_setting 'orthorhombic'
loop_
_space_group_symop_operation_xyz
x,y,z
-x,-y,z
1/2-x,y,1/2+z
1/2+x,-y,1/2+z
x,1/2+y,1/2+z
-x,1/2-y,1/2+z
1/2-x,1/2+y,z
1/2+x,1/2-y,z
loop_
_atom_site_type_symbol
_atom_site_label
_atom_site_fract_x
_atom_site_fract_y
_atom_site_fract_z
Si Si1 0.558335 0.227389 0.523850
Si Si2 0.500000 0.000000 0.457013
Si Si3 0.449477 0.170354 0.820724
Si Si4 0.334976 0.318463 0.648907
Si Si5 0.766195 0.044026 0.311500
O O1 0.478542 0.108318 0.523055
O O2 0.608824 0.260185 0.413806
O O3 0.447515 0.323624 0.557292
O O4 0.686002 0.227125 0.603948
O O5 0.644120 0.027643 0.394361
O O6 0.415129 0.238058 0.724120
O O7 0.623908 0.145929 0.831705
O O8 0.360247 0.062093 0.807393
O O9 0.309832 0.433059 0.704566
#
# Coordination Sequence:
#
# PCOD8185687 Si02
#       5
#     8   4   8   8   8
#     4  12  27  46  77 113 152 201 258 320 390 465
#     4  12  26  46  78 112 152 202 258 314 396 466
#     4  11  26  53  71 110 160 199 251 332 388 466
#     4  12  26  46  77 111 148 201 260 313 389 460
#     4  11  26  48  77 106 151 203 252 316 399 454
#
# _framework density 23.602965999999999
#
# number of rings (size 3 to 8) (size 9 to 14) (size 15 to 20)
#    0.000    0.444    4.444    2.667    9.333    0.000 
#    8.000    0.000    0.000    0.000    0.000    0.000 
#    0.000    0.000    0.000    0.000    0.000    0.000 
#
# Total GULP energy -223102.294903 kJ/mol
# GULP energy per Si atom -12394.571939 kJ/mol
# Density = 2.354924 g / cm^3
# Si number density = 23.602966 Si / 1000 Ang^3
#
#
#
# Elastic Constant Matrix: (Units=GPa)
#
#
# Indices 1 2 3 4 5 6 
#
# 1 135.8913 33.3674 44.6459 0.0000 0.0000 0.0000
# 2 33.3674 86.7484 30.6663 0.0000 0.0000 0.0000
# 3 44.6459 30.6663 101.4253 0.0000 0.0000 0.0000
# 4 0.0000 0.0000 0.0000 -200.0339 0.0000 0.0000
# 5 0.0000 0.0000 0.0000 0.0000 8.8948 0.0000
# 6 0.0000 0.0000 0.0000 0.0000 0.0000 28.1869
#
#
#
# Elastic Compliance Matrix: (Units=1/GPa)
#
#
# Indices 1 2 3 4 5 6 
#
# 1 0.008997 -0.002307 -0.003263 0.000000 0.000000 0.000000
# 2 -0.002307 0.013499 -0.003066 0.000000 0.000000 0.000000
# 3 -0.003263 -0.003066 0.012223 0.000000 0.000000 0.000000
# 4 0.000000 0.000000 0.000000 -0.004999 0.000000 0.000000
# 5 0.000000 0.000000 0.000000 0.000000 0.112425 0.000000
# 6 0.000000 0.000000 0.000000 0.000000 0.000000 0.035477
#
#
# Mechanical properties :
#
#
# Convention : Reuss Voigt Hill
#
# Bulk Modulus (GPa) = 57.31660 60.15822 58.73741
# Shear Modulus (GPa) = 24.91161 -18.23140 3.34010
#
# Velocity S-wave (km/s) = 3.25228 -2.78226 1.19088
# Velocity P-wave (km/s) = 6.19996 3.90149 5.17982
#
# Compressibility (1/GPa) = 0.01744695
#
# Stress axis : x y z
#
# Youngs Moduli (GPa) = 111.14360 74.08027 81.81507
#
# Poissons Ratio (x) = 0.17093 0.26695
# Poissons Ratio (y) = 0.25645 0.25083
# Poissons Ratio (z) = 0.36265 0.22711
#
# Static dielectric constant tensor:
#      x y z
#    x 4.921850 0.000000 0.000000 
#    y 0.000000 5.823470 0.000000 
#    z 0.000000 0.000000 4.456540 
# 
# 
# High freq. dielectric constant tensor:
#      x y z
#    x 1.949840 0.000000 0.000000 
#    y 0.000000 1.924370 0.000000 
#    z 0.000000 0.000000 1.946750 
# 
# From -- ./inp_files/7143.got.cif
#   From: 2010.03.12/outbox.cif.g09.slc.cpg/sg41_4_cif.got.tgz:7143.got - 2010.04.14 01:55:53.
