data_PCOD8185431
_publ_section_title
;
Structure prediction by ZEFSAII (Michael W. Deem and Ramdas Pophale) SiO2 
 PCOD8185431
Probable space group: A B A 2
;
_chemical_formula_sum "Si O2"
_cell_formula_units_Z 48
_cell_length_a 10.246129
_cell_length_b 13.803198
_cell_length_c 16.273631
_cell_angle_alpha 90.000000
_cell_angle_beta 90.000000
_cell_angle_gamma 90.000000
_cell_volume 2301.569011
_symmetry_space_group_name_H-M "A B A 2"
_symmetry_group_IT_number 41
_symmetry_cell_setting 'orthorhombic'
loop_
_space_group_symop_operation_xyz
x,y,z
-x,-y,z
1/2-x,y,1/2+z
1/2+x,-y,1/2+z
x,1/2+y,1/2+z
-x,1/2-y,1/2+z
1/2-x,1/2+y,z
1/2+x,1/2-y,z
loop_
_atom_site_type_symbol
_atom_site_label
_atom_site_fract_x
_atom_site_fract_y
_atom_site_fract_z
Si Si1 0.029788 0.398264 0.587320
Si Si2 0.242890 0.179635 0.043660
Si Si3 0.190323 0.859362 0.938867
Si Si4 0.126181 0.250113 0.695808
Si Si5 0.638973 0.462007 0.412216
Si Si6 0.125033 0.221603 0.301585
O O1 0.088808 0.415054 0.496940
O O2 0.135179 0.353403 0.649936
O O3 0.000000 0.500000 0.628359
O O4 0.899814 0.333901 0.581738
O O5 0.346511 0.176437 0.119805
O O6 0.231744 0.281145 0.994487
O O7 0.285804 0.093192 0.984367
O O8 0.105445 0.798187 0.874384
O O9 0.279532 0.939531 0.892524
O O10 0.230519 0.237973 0.767008
O O11 0.981953 0.247315 0.734781
O O12 0.500000 0.500000 0.443720
O O13 0.617649 0.390125 0.333800
#
# Coordination Sequence:
#
# PCOD8185431 Si02
#       6
#     8   8   8   8   8   8
#     4  11  22  42  71  95 128 173 228 271 327 394
#     4  10  23  43  66  98 131 171 225 270 327 393
#     4  10  24  39  71  93 131 173 217 274 330 383
#     4  11  24  44  65  93 137 174 212 273 334 392
#     4  11  24  42  67 100 129 172 228 274 323 394
#     4  11  25  43  67  96 136 176 217 267 343 398
#
# _framework density 20.855339000000001
#
# number of rings (size 3 to 8) (size 9 to 14) (size 15 to 20)
#    0.000    1.333    3.333    1.000   11.667    2.000 
#    0.000    0.000    0.000    0.000    0.000    0.000 
#    0.000    0.000    0.000    0.000    0.000    0.000 
#
# Total GULP energy -297379.609383 kJ/mol
# GULP energy per Si atom -12390.817058 kJ/mol
# Density = 2.080787 g / cm^3
# Si number density = 20.855339 Si / 1000 Ang^3
#
#
#
# Elastic Constant Matrix: (Units=GPa)
#
#
# Indices 1 2 3 4 5 6 
#
# 1 86.8333 34.8581 21.6321 0.0000 0.0000 0.0000
# 2 34.8581 109.3958 27.4438 0.0000 0.0000 0.0000
# 3 21.6321 27.4438 80.8086 0.0000 0.0000 0.0000
# 4 0.0000 0.0000 0.0000 17.0348 0.0000 0.0000
# 5 0.0000 0.0000 0.0000 0.0000 39.8372 0.0000
# 6 0.0000 0.0000 0.0000 0.0000 0.0000 34.3688
#
#
#
# Elastic Compliance Matrix: (Units=1/GPa)
#
#
# Indices 1 2 3 4 5 6 
#
# 1 0.013609 -0.003741 -0.002373 0.000000 0.000000 0.000000
# 2 -0.003741 0.011021 -0.002741 0.000000 0.000000 0.000000
# 3 -0.002373 -0.002741 0.013941 0.000000 0.000000 0.000000
# 4 0.000000 0.000000 0.000000 0.058703 0.000000 0.000000
# 5 0.000000 0.000000 0.000000 0.000000 0.025102 0.000000
# 6 0.000000 0.000000 0.000000 0.000000 0.000000 0.029096
#
#
# Mechanical properties :
#
#
# Convention : Reuss Voigt Hill
#
# Bulk Modulus (GPa) = 47.93658 49.43397 48.68527
# Shear Modulus (GPa) = 28.38701 31.12175 29.75438
#
# Velocity S-wave (km/s) = 3.69336 3.86718 3.78127
# Velocity P-wave (km/s) = 6.42052 6.61021 6.51605
#
# Compressibility (1/GPa) = 0.02086090
#
# Stress axis : x y z
#
# Youngs Moduli (GPa) = 73.47939 90.73613 71.73070
#
# Poissons Ratio (x) = 0.33947 0.17018
# Poissons Ratio (y) = 0.27491 0.19664
# Poissons Ratio (z) = 0.17433 0.24874
#
# Static dielectric constant tensor:
#      x y z
#    x 3.692290 0.000000 0.000000 
#    y 0.000000 3.823850 0.000000 
#    z 0.000000 0.000000 3.932570 
# 
# 
# High freq. dielectric constant tensor:
#      x y z
#    x 1.814710 0.000000 0.000000 
#    y 0.000000 1.816590 0.000000 
#    z 0.000000 0.000000 1.823090 
# 
# From -- ./inp_files/7878.got.cif
#   From: 2010.03.12/outbox.cif.g09.slc.cpg/sg41_4_cif.got.tgz:7878.got - 2010.04.14 01:55:53.
