data_PCOD8185362
_publ_section_title
;
Structure prediction by ZEFSAII (Michael W. Deem and Ramdas Pophale) SiO2 
 PCOD8185362
Probable space group: A B A 2
;
_chemical_formula_sum "Si O2"
_cell_formula_units_Z 64
_cell_length_a 14.122707
_cell_length_b 9.219917
_cell_length_c 21.231318
_cell_angle_alpha 90.000000
_cell_angle_beta 90.000000
_cell_angle_gamma 90.000000
_cell_volume 2764.533873
_symmetry_space_group_name_H-M "A B A 2"
_symmetry_group_IT_number 41
_symmetry_cell_setting 'orthorhombic'
loop_
_space_group_symop_operation_xyz
x,y,z
-x,-y,z
1/2-x,y,1/2+z
1/2+x,-y,1/2+z
x,1/2+y,1/2+z
-x,1/2-y,1/2+z
1/2-x,1/2+y,z
1/2+x,1/2-y,z
loop_
_atom_site_type_symbol
_atom_site_label
_atom_site_fract_x
_atom_site_fract_y
_atom_site_fract_z
Si Si1 0.637330 0.851068 0.192960
Si Si2 0.425453 0.620000 0.287536
Si Si3 0.123341 0.856853 0.546585
Si Si4 0.090094 0.681360 0.055149
Si Si5 0.172814 0.309127 0.184843
Si Si6 0.749950 0.443122 0.370644
Si Si7 0.051577 0.645990 0.321804
Si Si8 0.218053 0.295461 0.457291
O O1 0.587354 0.791411 0.129817
O O2 0.724697 0.745683 0.205749
O O3 0.558573 0.837919 0.246377
O O4 0.669320 0.018635 0.194152
O O5 0.500000 0.500000 0.263627
O O6 0.400164 0.723929 0.229132
O O7 0.330361 0.543665 0.316282
O O8 0.482416 0.718729 0.340121
O O9 0.153542 0.775788 0.611160
O O10 0.178494 0.792850 0.487534
O O11 0.015436 0.825546 0.529828
O O12 0.144610 0.028208 0.549087
O O13 0.142293 0.808775 0.014875
O O14 0.841246 0.349780 0.348299
O O15 0.789072 0.593864 0.398657
O O16 0.699425 0.361609 0.427955
O O17 0.000000 0.500000 0.343613
#
# Coordination Sequence:
#
# PCOD8185362 Si02
#       8
#     8   8   8   8   8   8   8   8
#     4  11  23  41  75 102 143 182 226 297 367 445
#     4  12  27  46  71 106 143 190 240 299 368 430
#     4  10  22  44  70 102 137 179 231 292 353 433
#     4  10  22  43  71 101 138 182 229 288 364 418
#     4  11  23  43  72 106 141 181 227 294 376 430
#     4  12  28  45  69  98 144 187 245 296 340 417
#     4  12  25  46  71 101 142 185 237 295 368 430
#     4  12  24  45  69  99 135 189 239 286 345 412
#
# _framework density 23.150376000000001
#
# number of rings (size 3 to 8) (size 9 to 14) (size 15 to 20)
#    0.000    0.750    5.000    2.250    3.500    3.000 
#    0.000    0.000    0.000    0.000    0.000    0.000 
#    0.000    0.000    0.000    0.000    0.000    0.000 
#
# Total GULP energy -396632.205066 kJ/mol
# GULP energy per Si atom -12394.756408 kJ/mol
# Density = 2.309768 g / cm^3
# Si number density = 23.150376 Si / 1000 Ang^3
#
#
#
# Elastic Constant Matrix: (Units=GPa)
#
#
# Indices 1 2 3 4 5 6 
#
# 1 99.3166 19.9310 22.1865 0.0000 0.0000 0.0000
# 2 19.9310 65.8880 12.1633 0.0000 0.0000 0.0000
# 3 22.1865 12.1633 90.5420 0.0000 0.0000 0.0000
# 4 0.0000 0.0000 0.0000 32.7531 0.0000 0.0000
# 5 0.0000 0.0000 0.0000 0.0000 27.4850 0.0000
# 6 0.0000 0.0000 0.0000 0.0000 0.0000 38.5768
#
#
#
# Elastic Compliance Matrix: (Units=1/GPa)
#
#
# Indices 1 2 3 4 5 6 
#
# 1 0.011185 -0.002951 -0.002344 0.000000 0.000000 0.000000
# 2 -0.002951 0.016342 -0.001472 0.000000 0.000000 0.000000
# 3 -0.002344 -0.001472 0.011817 0.000000 0.000000 0.000000
# 4 0.000000 0.000000 0.000000 0.030531 0.000000 0.000000
# 5 0.000000 0.000000 0.000000 0.000000 0.036384 0.000000
# 6 0.000000 0.000000 0.000000 0.000000 0.000000 0.025922
#
#
# Mechanical properties :
#
#
# Convention : Reuss Voigt Hill
#
# Bulk Modulus (GPa) = 38.74661 40.47870 39.61266
# Shear Modulus (GPa) = 32.40070 33.19403 32.79737
#
# Velocity S-wave (km/s) = 3.74515 3.79072 3.76800
# Velocity P-wave (km/s) = 5.95607 6.05661 6.00655
#
# Compressibility (1/GPa) = 0.02580871
#
# Stress axis : x y z
#
# Youngs Moduli (GPa) = 89.40835 61.19351 84.62495
#
# Poissons Ratio (x) = 0.18056 0.19839
# Poissons Ratio (y) = 0.26380 0.12459
# Poissons Ratio (z) = 0.20960 0.09010
#
# Static dielectric constant tensor:
#      x y z
#    x 4.161460 0.000000 0.000000 
#    y 0.000000 4.037680 0.000000 
#    z 0.000000 0.000000 4.188710 
# 
# 
# High freq. dielectric constant tensor:
#      x y z
#    x 1.928360 0.000000 0.000000 
#    y 0.000000 1.899520 0.000000 
#    z 0.000000 0.000000 1.913650 
# 
# From -- ./inp_files/12256.got.cif
#   From: 2010.03.12/outbox.cif.g09.slc.cpg/sg41_7_cif.got.tgz:12256.got - 2010.04.14 01:55:53.
