data_PCOD8185345
_publ_section_title
;
Structure prediction by ZEFSAII (Michael W. Deem and Ramdas Pophale) SiO2 
 PCOD8185345
Probable space group: A B A 2
;
_chemical_formula_sum "Si O2"
_cell_formula_units_Z 64
_cell_length_a 28.010624
_cell_length_b 10.842509
_cell_length_c 8.801189
_cell_angle_alpha 90.000000
_cell_angle_beta 90.000000
_cell_angle_gamma 90.000000
_cell_volume 2672.969003
_symmetry_space_group_name_H-M "A B A 2"
_symmetry_group_IT_number 41
_symmetry_cell_setting 'orthorhombic'
loop_
_space_group_symop_operation_xyz
x,y,z
-x,-y,z
1/2-x,y,1/2+z
1/2+x,-y,1/2+z
x,1/2+y,1/2+z
-x,1/2-y,1/2+z
1/2-x,1/2+y,z
1/2+x,1/2-y,z
loop_
_atom_site_type_symbol
_atom_site_label
_atom_site_fract_x
_atom_site_fract_y
_atom_site_fract_z
Si Si1 0.008004 0.867155 0.504070
Si Si2 0.652020 0.409411 0.718747
Si Si3 0.133043 0.155353 0.064732
Si Si4 0.778635 0.134251 0.723807
Si Si5 0.112794 0.920166 0.507705
Si Si6 0.191794 0.016788 0.300858
Si Si7 0.782066 0.777329 0.513864
Si Si8 0.026982 0.624628 0.675522
O O1 0.062738 0.869158 0.445283
O O2 0.000475 0.747023 0.608969
O O3 0.973421 0.860869 0.358104
O O4 0.000000 0.000000 0.589248
O O5 0.690615 0.516510 0.678742
O O6 0.606127 0.465712 0.628210
O O7 0.674940 0.289269 0.638219
O O8 0.638439 0.383330 0.889655
O O9 0.139003 0.303006 0.088951
O O10 0.176287 0.100071 0.159158
O O11 0.081231 0.112255 0.121819
O O12 0.768799 0.237025 0.589825
O O13 0.723523 0.094238 0.742886
O O14 0.799327 0.183328 0.883060
O O15 0.142588 0.964781 0.365304
O O16 0.223908 0.093126 0.422809
O O17 0.000000 0.500000 0.623156
#
# Coordination Sequence:
#
# PCOD8185345 Si02
#       8
#     8   8   8   8   8   8   8   8
#     4  10  22  42  67  98 136 176 223 281 342 414
#     4  11  25  42  63  92 128 173 221 273 331 391
#     4  11  24  44  68  99 135 169 220 280 338 406
#     4  12  24  40  61  89 123 167 216 267 321 379
#     4  10  23  42  63  94 134 173 218 273 336 405
#     4  11  23  40  65  92 127 172 217 272 330 389
#     4  11  24  39  59  86 120 162 212 263 317 377
#     4  10  23  43  70 102 138 178 222 279 346 419
#
# _framework density 23.94341
#
# number of rings (size 3 to 8) (size 9 to 14) (size 15 to 20)
#    0.000    1.250    0.000    6.000    0.000    9.500 
#    0.000    6.250    0.000    0.000    0.000    0.000 
#    0.000    0.000    0.000    0.000    0.000    0.000 
#
# Total GULP energy -396623.918252 kJ/mol
# GULP energy per Si atom -12394.497445 kJ/mol
# Density = 2.388891 g / cm^3
# Si number density = 23.943410 Si / 1000 Ang^3
#
#
#
# Elastic Constant Matrix: (Units=GPa)
#
#
# Indices 1 2 3 4 5 6 
#
# 1 26.5257 12.3504 14.3761 0.0000 0.0000 0.0000
# 2 12.3504 123.3092 23.9819 0.0000 0.0000 0.0000
# 3 14.3761 23.9819 110.1965 0.0000 0.0000 0.0000
# 4 0.0000 0.0000 0.0000 35.0392 0.0000 0.0000
# 5 0.0000 0.0000 0.0000 0.0000 36.7269 0.0000
# 6 0.0000 0.0000 0.0000 0.0000 0.0000 36.8803
#
#
#
# Elastic Compliance Matrix: (Units=1/GPa)
#
#
# Indices 1 2 3 4 5 6 
#
# 1 0.041788 -0.003263 -0.004741 0.000000 0.000000 0.000000
# 2 -0.003263 0.008723 -0.001473 0.000000 0.000000 0.000000
# 3 -0.004741 -0.001473 0.010014 0.000000 0.000000 0.000000
# 4 0.000000 0.000000 0.000000 0.028540 0.000000 0.000000
# 5 0.000000 0.000000 0.000000 0.000000 0.027228 0.000000
# 6 0.000000 0.000000 0.000000 0.000000 0.000000 0.027115
#
#
# Mechanical properties :
#
#
# Convention : Reuss Voigt Hill
#
# Bulk Modulus (GPa) = 24.05568 40.16094 32.10831
# Shear Modulus (GPa) = 28.37381 35.68415 32.02898
#
# Velocity S-wave (km/s) = 3.44617 3.86470 3.66142
# Velocity P-wave (km/s) = 5.08955 6.06005 5.59588
#
# Compressibility (1/GPa) = 0.04157022
#
# Stress axis : x y z
#
# Youngs Moduli (GPa) = 23.93011 114.64011 99.86262
#
# Poissons Ratio (x) = 0.37410 0.47350
# Poissons Ratio (y) = 0.07809 0.14706
# Poissons Ratio (z) = 0.11346 0.16882
#
# Static dielectric constant tensor:
#      x y z
#    x 4.280540 0.000000 0.000000 
#    y 0.000000 4.784180 0.000000 
#    z 0.000000 0.000000 4.259230 
# 
# 
# High freq. dielectric constant tensor:
#      x y z
#    x 1.942420 0.000000 0.000000 
#    y 0.000000 1.970080 0.000000 
#    z 0.000000 0.000000 1.948730 
# 
# From -- ./inp_files/3990.got.cif
#   From: 2010.03.12/outbox.cif.g09.slc.cpg/sg41_2_cif.got.tgz:3990.got - 2010.04.14 01:55:53.
