data_PCOD8185355
_publ_section_title
;
Structure prediction by ZEFSAII (Michael W. Deem and Ramdas Pophale) SiO2 
 PCOD8185355
Probable space group: A B A 2
;
_chemical_formula_sum "Si O2"
_cell_formula_units_Z 32
_cell_length_a 12.960198
_cell_length_b 11.702781
_cell_length_c 8.851756
_cell_angle_alpha 90.000000
_cell_angle_beta 90.000000
_cell_angle_gamma 90.000000
_cell_volume 1342.549010
_symmetry_space_group_name_H-M "A B A 2"
_symmetry_group_IT_number 41
_symmetry_cell_setting 'orthorhombic'
loop_
_space_group_symop_operation_xyz
x,y,z
-x,-y,z
1/2-x,y,1/2+z
1/2+x,-y,1/2+z
x,1/2+y,1/2+z
-x,1/2-y,1/2+z
1/2-x,1/2+y,z
1/2+x,1/2-y,z
loop_
_atom_site_type_symbol
_atom_site_label
_atom_site_fract_x
_atom_site_fract_y
_atom_site_fract_z
Si Si1 0.603040 0.353639 0.230810
Si Si2 0.183117 0.555548 0.232130
Si Si3 0.957255 0.787275 0.910557
Si Si4 0.843750 0.553863 0.915406
O O1 0.726570 0.349590 0.195109
O O2 0.568776 0.255961 0.351799
O O3 0.581234 0.476759 0.309030
O O4 0.534856 0.337864 0.079526
O O5 0.081987 0.615260 0.297878
O O6 0.146723 0.488301 0.086044
O O7 0.226183 0.464335 0.355713
O O8 0.874840 0.684764 0.906019
#
# Coordination Sequence:
#
# PCOD8185355 Si02
#       4
#     8   8   8   8
#     4  10  23  41  63 100 125 168 226 260 325 405
#     4  10  22  43  64  95 128 166 229 257 321 407
#     4  12  23  43  69  90 137 173 206 288 322 379
#     4  10  23  42  64  93 129 170 215 271 326 388
#
# _framework density 23.835256000000001
#
# number of rings (size 3 to 8) (size 9 to 14) (size 15 to 20)
#    1.500    0.000    2.500    2.250    3.500    0.000 
#    0.000    5.000    0.000    0.000    0.000    0.000 
#    0.000    0.000    0.000    0.000    0.000    0.000 
#
# Total GULP energy -198268.598883 kJ/mol
# GULP energy per Si atom -12391.787430 kJ/mol
# Density = 2.378101 g / cm^3
# Si number density = 23.835256 Si / 1000 Ang^3
#
#
#
# Elastic Constant Matrix: (Units=GPa)
#
#
# Indices 1 2 3 4 5 6 
#
# 1 29.7531 1.8265 -15.6381 0.0000 0.0000 0.0000
# 2 1.8265 78.2402 39.3020 0.0000 0.0000 0.0000
# 3 -15.6381 39.3020 140.7487 0.0000 0.0000 0.0000
# 4 0.0000 0.0000 0.0000 16.7721 0.0000 0.0000
# 5 0.0000 0.0000 0.0000 0.0000 33.9568 0.0000
# 6 0.0000 0.0000 0.0000 0.0000 0.0000 5.0191
#
#
#
# Elastic Compliance Matrix: (Units=1/GPa)
#
#
# Indices 1 2 3 4 5 6 
#
# 1 0.036436 -0.003355 0.004985 0.000000 0.000000 0.000000
# 2 -0.003355 0.015175 -0.004610 0.000000 0.000000 0.000000
# 3 0.004985 -0.004610 0.008946 0.000000 0.000000 0.000000
# 4 0.000000 0.000000 0.000000 0.059623 0.000000 0.000000
# 5 0.000000 0.000000 0.000000 0.000000 0.029449 0.000000
# 6 0.000000 0.000000 0.000000 0.000000 0.000000 0.199238
#
#
# Mechanical properties :
#
#
# Convention : Reuss Voigt Hill
#
# Bulk Modulus (GPa) = 18.31580 33.30252 25.80916
# Shear Modulus (GPa) = 13.40386 26.03304 19.71845
#
# Velocity S-wave (km/s) = 2.37397 3.30844 2.87937
# Velocity P-wave (km/s) = 3.90069 5.34758 4.68039
#
# Compressibility (1/GPa) = 0.05459766
#
# Stress axis : x y z
#
# Youngs Moduli (GPa) = 27.44537 65.89667 111.78115
#
# Poissons Ratio (x) = 0.22106 -0.55723
# Poissons Ratio (y) = 0.09207 0.51533
# Poissons Ratio (z) = -0.13682 0.30380
#
# Static dielectric constant tensor:
#      x y z
#    x 3.952760 0.000000 0.000000 
#    y 0.000000 3.963430 0.000000 
#    z 0.000000 0.000000 4.264010 
# 
# 
# High freq. dielectric constant tensor:
#      x y z
#    x 1.929790 0.000000 0.000000 
#    y 0.000000 1.929180 0.000000 
#    z 0.000000 0.000000 1.952730 
# 
# From -- ./inp_files/2298.got.cif
#   From: 2010.03.12/outbox.cif.g09.slc.cpg/sg41_2_cif.got.tgz:2298.got - 2010.04.14 01:55:53.
