data_PCOD8185609
_publ_section_title
;
Structure prediction by ZEFSAII (Michael W. Deem and Ramdas Pophale) SiO2 
 PCOD8185609
Probable space group: A B A 2
;
_chemical_formula_sum "Si O2"
_cell_formula_units_Z 64
_cell_length_a 31.613963
_cell_length_b 8.381814
_cell_length_c 10.906700
_cell_angle_alpha 90.000000
_cell_angle_beta 90.000000
_cell_angle_gamma 90.000000
_cell_volume 2890.083080
_symmetry_space_group_name_H-M "A B A 2"
_symmetry_group_IT_number 41
_symmetry_cell_setting 'orthorhombic'
loop_
_space_group_symop_operation_xyz
x,y,z
-x,-y,z
1/2-x,y,1/2+z
1/2+x,-y,1/2+z
x,1/2+y,1/2+z
-x,1/2-y,1/2+z
1/2-x,1/2+y,z
1/2+x,1/2-y,z
loop_
_atom_site_type_symbol
_atom_site_label
_atom_site_fract_x
_atom_site_fract_y
_atom_site_fract_z
Si Si1 0.520246 0.667742 0.674600
Si Si2 0.771910 0.990314 0.632224
Si Si3 0.187824 0.355947 0.661238
Si Si4 0.672162 0.520036 0.415465
Si Si5 0.476396 0.334592 0.945976
Si Si6 0.115438 0.452764 0.478312
Si Si7 0.889675 0.703635 0.068652
Si Si8 0.169246 0.810461 0.785167
O O1 0.500000 0.500000 0.699393
O O2 0.518103 0.753106 0.810980
O O3 0.495503 0.746375 0.563028
O O4 0.568619 0.643515 0.635834
O O5 0.788642 0.810387 0.638711
O O6 0.789164 0.063302 0.505330
O O7 0.720931 0.999276 0.632627
O O8 0.787791 0.098772 0.746693
O O9 0.174436 0.360847 0.802080
O O10 0.145625 0.379350 0.582961
O O11 0.627755 0.558211 0.484476
O O12 0.676782 0.335067 0.378165
O O13 0.500000 0.500000 0.939587
O O14 0.426839 0.348551 0.974435
O O15 0.101555 0.636122 0.492754
O O16 0.139760 0.442288 0.349595
O O17 0.854471 0.756640 0.166578
#
# Coordination Sequence:
#
# PCOD8185609 Si02
#       8
#     8   8   8   8   8   8   8   8
#     4  11  26  44  70 106 141 186 236 296 358 424
#     4  11  27  44  68  98 141 182 230 288 354 412
#     4  12  26  44  70 105 134 190 234 293 357 427
#     4  11  25  44  69 100 137 180 232 282 348 423
#     4  11  25  47  70 103 144 190 238 296 359 426
#     4  12  24  44  74  99 140 187 236 289 360 420
#     4  11  24  44  70 100 138 182 230 285 355 422
#     4  11  23  46  68  99 140 179 230 291 339 425
#
# _framework density 22.144691999999999
#
# number of rings (size 3 to 8) (size 9 to 14) (size 15 to 20)
#    0.000    0.750    5.000    1.500    5.250    2.500 
#    0.000    0.000    0.000    0.000    0.000    0.000 
#    0.000    0.000    0.000    0.000    0.000    0.000 
#
# Total GULP energy -396686.721055 kJ/mol
# GULP energy per Si atom -12396.460033 kJ/mol
# Density = 2.209429 g / cm^3
# Si number density = 22.144692 Si / 1000 Ang^3
#
#
#
# Elastic Constant Matrix: (Units=GPa)
#
#
# Indices 1 2 3 4 5 6 
#
# 1 128.9686 13.7857 65.0074 0.0000 0.0000 0.0000
# 2 13.7857 69.7292 42.1817 0.0000 0.0000 0.0000
# 3 65.0074 42.1817 150.1416 0.0000 0.0000 0.0000
# 4 0.0000 0.0000 0.0000 38.6901 0.0000 0.0000
# 5 0.0000 0.0000 0.0000 0.0000 32.7974 0.0000
# 6 0.0000 0.0000 0.0000 0.0000 0.0000 32.3564
#
#
#
# Elastic Compliance Matrix: (Units=1/GPa)
#
#
# Indices 1 2 3 4 5 6 
#
# 1 0.009953 0.000770 -0.004526 0.000000 0.000000 0.000000
# 2 0.000770 0.017337 -0.005204 0.000000 0.000000 0.000000
# 3 -0.004526 -0.005204 0.010082 0.000000 0.000000 0.000000
# 4 0.000000 0.000000 0.000000 0.025846 0.000000 0.000000
# 5 0.000000 0.000000 0.000000 0.000000 0.030490 0.000000
# 6 0.000000 0.000000 0.000000 0.000000 0.000000 0.030906
#
#
# Mechanical properties :
#
#
# Convention : Reuss Voigt Hill
#
# Bulk Modulus (GPa) = 51.40802 65.64324 58.52563
# Shear Modulus (GPa) = 33.55304 35.95975 34.75639
#
# Velocity S-wave (km/s) = 3.89675 4.03408 3.96601
# Velocity P-wave (km/s) = 6.59630 7.16977 6.88901
#
# Compressibility (1/GPa) = 0.01945222
#
# Stress axis : x y z
#
# Youngs Moduli (GPa) = 100.47563 57.67953 99.18725
#
# Poissons Ratio (x) = -0.04441 0.44888
# Poissons Ratio (y) = -0.07737 0.51619
# Poissons Ratio (z) = 0.45471 0.30018
#
# Static dielectric constant tensor:
#      x y z
#    x 4.093720 0.000000 0.000000 
#    y 0.000000 3.697320 0.000000 
#    z 0.000000 0.000000 4.660070 
# 
# 
# High freq. dielectric constant tensor:
#      x y z
#    x 1.877770 0.000000 0.000000 
#    y 0.000000 1.856790 0.000000 
#    z 0.000000 0.000000 1.893870 
# 
# From -- ./inp_files/6685.got.cif
#   From: 2010.03.12/outbox.cif.g09.slc.cpg/sg41_4_cif.got.tgz:6685.got - 2010.04.14 01:55:53.
