data_PCOD8185176
_publ_section_title
;
Structure prediction by ZEFSAII (Michael W. Deem and Ramdas Pophale) SiO2 
 PCOD8185176
Probable space group: A B A 2
;
_chemical_formula_sum "Si O2"
_cell_formula_units_Z 40
_cell_length_a 18.164098
_cell_length_b 8.502374
_cell_length_c 10.938311
_cell_angle_alpha 90.000000
_cell_angle_beta 90.000000
_cell_angle_gamma 90.000000
_cell_volume 1689.290377
_symmetry_space_group_name_H-M "A B A 2"
_symmetry_group_IT_number 41
_symmetry_cell_setting 'orthorhombic'
loop_
_space_group_symop_operation_xyz
x,y,z
-x,-y,z
1/2-x,y,1/2+z
1/2+x,-y,1/2+z
x,1/2+y,1/2+z
-x,1/2-y,1/2+z
1/2-x,1/2+y,z
1/2+x,1/2-y,z
loop_
_atom_site_type_symbol
_atom_site_label
_atom_site_fract_x
_atom_site_fract_y
_atom_site_fract_z
Si Si1 0.424067 0.430106 0.474540
Si Si2 0.576502 0.910315 0.395610
Si Si3 0.200759 0.462023 0.528397
Si Si4 0.323348 0.923578 0.203150
Si Si5 0.811104 0.342287 0.890257
O O1 0.500000 0.500000 0.527065
O O2 0.438630 0.275311 0.393093
O O3 0.368689 0.383037 0.581655
O O4 0.387961 0.563807 0.389287
O O5 0.500000 0.000000 0.386896
O O6 0.619280 0.961010 0.521383
O O7 0.628250 0.955339 0.281300
O O8 0.244235 0.494786 0.655601
O O9 0.244479 0.533224 0.408227
O O10 0.193209 0.274928 0.507412
O O11 0.306794 0.758036 0.267285
#
# Coordination Sequence:
#
# PCOD8185176 Si02
#       5
#     8   8   8   8   8
#     4  11  23  42  67 100 140 179 227 284 339 405
#     4  11  24  46  72 100 139 181 227 284 341 402
#     4  10  21  40  66  98 131 171 225 280 329 398
#     4  10  23  44  69  98 134 182 226 274 344 406
#     4  10  22  40  65  96 131 173 225 278 333 399
#
# _framework density 23.678581000000001
#
# number of rings (size 3 to 8) (size 9 to 14) (size 15 to 20)
#    0.000    1.600    0.000    5.400    0.000    9.600 
#    0.000   21.000    0.000    0.000    0.000    5.600 
#    0.000    0.000    0.000    0.000    0.000    0.000 
#
# Total GULP energy -247925.391093 kJ/mol
# GULP energy per Si atom -12396.269555 kJ/mol
# Density = 2.362469 g / cm^3
# Si number density = 23.678581 Si / 1000 Ang^3
#
#
#
# Elastic Constant Matrix: (Units=GPa)
#
#
# Indices 1 2 3 4 5 6 
#
# 1 131.4994 40.9792 39.1565 0.0000 0.0000 0.0000
# 2 40.9792 152.4910 31.7345 0.0000 0.0000 0.0000
# 3 39.1565 31.7345 99.7231 0.0000 0.0000 0.0000
# 4 0.0000 0.0000 0.0000 32.1820 0.0000 0.0000
# 5 0.0000 0.0000 0.0000 0.0000 35.1157 0.0000
# 6 0.0000 0.0000 0.0000 0.0000 0.0000 43.5715
#
#
#
# Elastic Compliance Matrix: (Units=1/GPa)
#
#
# Indices 1 2 3 4 5 6 
#
# 1 0.009057 -0.001814 -0.002979 0.000000 0.000000 0.000000
# 2 -0.001814 0.007386 -0.001638 0.000000 0.000000 0.000000
# 3 -0.002979 -0.001638 0.011719 0.000000 0.000000 0.000000
# 4 0.000000 0.000000 0.000000 0.031073 0.000000 0.000000
# 5 0.000000 0.000000 0.000000 0.000000 0.028477 0.000000
# 6 0.000000 0.000000 0.000000 0.000000 0.000000 0.022951
#
#
# Mechanical properties :
#
#
# Convention : Reuss Voigt Hill
#
# Bulk Modulus (GPa) = 65.36119 67.49487 66.42803
# Shear Modulus (GPa) = 38.87260 40.29674 39.58467
#
# Velocity S-wave (km/s) = 4.05616 4.12979 4.09314
# Velocity P-wave (km/s) = 7.04273 7.16287 7.10305
#
# Compressibility (1/GPa) = 0.01529960
#
# Stress axis : x y z
#
# Youngs Moduli (GPa) = 110.41282 135.38854 85.33305
#
# Poissons Ratio (x) = 0.24559 0.25420
# Poissons Ratio (y) = 0.20028 0.13979
# Poissons Ratio (z) = 0.32892 0.22180
#
# Static dielectric constant tensor:
#      x y z
#    x 4.480110 0.000000 0.000000 
#    y 0.000000 4.274860 0.000000 
#    z 0.000000 0.000000 4.013750 
# 
# 
# High freq. dielectric constant tensor:
#      x y z
#    x 1.944540 0.000000 0.000000 
#    y 0.000000 1.954680 0.000000 
#    z 0.000000 0.000000 1.917160 
# 
# From -- ./inp_files/6152.got.cif
#   From: 2010.03.12/outbox.cif.g09.slc.cpg/sg41_4_cif.got.tgz:6152.got - 2010.04.14 01:55:53.
