data_PCOD8185358
_publ_section_title
;
Structure prediction by ZEFSAII (Michael W. Deem and Ramdas Pophale) SiO2 
 PCOD8185358
Probable space group: A B A 2
;
_chemical_formula_sum "Si O2"
_cell_formula_units_Z 64
_cell_length_a 12.824466
_cell_length_b 11.897760
_cell_length_c 18.295635
_cell_angle_alpha 90.000000
_cell_angle_beta 90.000000
_cell_angle_gamma 90.000000
_cell_volume 2791.592238
_symmetry_space_group_name_H-M "A B A 2"
_symmetry_group_IT_number 41
_symmetry_cell_setting 'orthorhombic'
loop_
_space_group_symop_operation_xyz
x,y,z
-x,-y,z
1/2-x,y,1/2+z
1/2+x,-y,1/2+z
x,1/2+y,1/2+z
-x,1/2-y,1/2+z
1/2-x,1/2+y,z
1/2+x,1/2-y,z
loop_
_atom_site_type_symbol
_atom_site_label
_atom_site_fract_x
_atom_site_fract_y
_atom_site_fract_z
Si Si1 0.113735 0.462693 0.466600
Si Si2 0.833491 0.795473 0.697721
Si Si3 0.408645 0.589696 0.319906
Si Si4 0.673700 0.966923 0.314144
Si Si5 0.978790 0.736246 0.103888
Si Si6 0.211127 0.611712 0.570288
Si Si7 0.385611 0.703330 0.472727
Si Si8 0.369078 0.313822 0.738392
O O1 0.148429 0.543596 0.399630
O O2 0.190937 0.488078 0.535656
O O3 0.117793 0.332203 0.446422
O O4 0.000000 0.500000 0.491012
O O5 0.879044 0.865657 0.767087
O O6 0.774805 0.888456 0.646007
O O7 0.754100 0.704302 0.728639
O O8 0.919856 0.726959 0.651919
O O9 0.500000 0.500000 0.303853
O O10 0.297921 0.533453 0.300332
O O11 0.408233 0.623193 0.404849
O O12 0.424712 0.701349 0.270456
O O13 0.617503 0.082149 0.291665
O O14 0.904245 0.838499 0.083176
O O15 0.916159 0.653346 0.158588
O O16 0.020167 0.678220 0.029903
O O17 0.273971 0.682449 0.509588
#
# Coordination Sequence:
#
# PCOD8185358 Si02
#       8
#     8   8   8   8   8   8   8   8
#     4  12  24  42  72 100 131 184 226 274 341 410
#     4   9  23  41  66  98 137 178 224 278 340 402
#     4  11  25  46  70 101 135 184 229 280 353 412
#     4  11  24  44  68 100 138 175 228 286 338 413
#     4  10  22  43  66  97 135 179 224 274 338 403
#     4  10  22  45  65 101 136 179 228 278 337 404
#     4  11  23  45  67 101 140 173 227 287 335 405
#     4  10  23  44  66 101 133 178 225 286 339 399
#
# _framework density 22.925982999999999
#
# number of rings (size 3 to 8) (size 9 to 14) (size 15 to 20)
#    0.000    1.500    3.750    0.000    3.500    4.000 
#   11.250    0.000    0.000    0.000    0.000    0.000 
#    0.000    0.000    0.000    0.000    0.000    0.000 
#
# Total GULP energy -396570.365425 kJ/mol
# GULP energy per Si atom -12392.823920 kJ/mol
# Density = 2.287380 g / cm^3
# Si number density = 22.925983 Si / 1000 Ang^3
#
#
#
# Elastic Constant Matrix: (Units=GPa)
#
#
# Indices 1 2 3 4 5 6 
#
# 1 78.9466 24.8896 19.3380 0.0000 0.0000 0.0000
# 2 24.8896 59.5499 20.6171 0.0000 0.0000 0.0000
# 3 19.3380 20.6171 106.4407 0.0000 0.0000 0.0000
# 4 0.0000 0.0000 0.0000 30.0956 0.0000 0.0000
# 5 0.0000 0.0000 0.0000 0.0000 44.3417 0.0000
# 6 0.0000 0.0000 0.0000 0.0000 0.0000 21.7124
#
#
#
# Elastic Compliance Matrix: (Units=1/GPa)
#
#
# Indices 1 2 3 4 5 6 
#
# 1 0.014840 -0.005648 -0.001602 0.000000 0.000000 0.000000
# 2 -0.005648 0.020149 -0.002877 0.000000 0.000000 0.000000
# 3 -0.001602 -0.002877 0.010243 0.000000 0.000000 0.000000
# 4 0.000000 0.000000 0.000000 0.033227 0.000000 0.000000
# 5 0.000000 0.000000 0.000000 0.000000 0.022552 0.000000
# 6 0.000000 0.000000 0.000000 0.000000 0.000000 0.046057
#
#
# Mechanical properties :
#
#
# Convention : Reuss Voigt Hill
#
# Bulk Modulus (GPa) = 40.03383 41.62519 40.82951
# Shear Modulus (GPa) = 28.46604 31.23611 29.85108
#
# Velocity S-wave (km/s) = 3.52753 3.69518 3.61233
# Velocity P-wave (km/s) = 5.83878 6.03337 5.93687
#
# Compressibility (1/GPa) = 0.02497887
#
# Stress axis : x y z
#
# Youngs Moduli (GPa) = 67.38630 49.62987 97.62592
#
# Poissons Ratio (x) = 0.28030 0.15641
# Poissons Ratio (y) = 0.38058 0.28084
# Poissons Ratio (z) = 0.10796 0.14277
#
# Static dielectric constant tensor:
#      x y z
#    x 4.230720 0.000000 0.000000 
#    y 0.000000 3.736540 0.000000 
#    z 0.000000 0.000000 4.379830 
# 
# 
# High freq. dielectric constant tensor:
#      x y z
#    x 1.913620 0.000000 0.000000 
#    y 0.000000 1.867250 0.000000 
#    z 0.000000 0.000000 1.927080 
# 
# From -- ./inp_files/10400.got.cif
#   From: 2010.03.12/outbox.cif.g09.slc.cpg/sg41_6_cif.got.tgz:10400.got - 2010.04.14 01:55:53.
