data_PCOD8185769
_publ_section_title
;
Structure prediction by ZEFSAII (Michael W. Deem and Ramdas Pophale) SiO2 
 PCOD8185769
Probable space group: F M M 2
;
_chemical_formula_sum "Si O2"
_cell_formula_units_Z 96
_cell_length_a 8.681109
_cell_length_b 19.192364
_cell_length_c 31.062232
_cell_angle_alpha 90.000000
_cell_angle_beta 90.000000
_cell_angle_gamma 90.000000
_cell_volume 5175.309655
_symmetry_space_group_name_H-M "F M M 2"
_symmetry_group_IT_number 42
_symmetry_cell_setting 'orthorhombic'
loop_
_space_group_symop_operation_xyz
x,y,z
-x,-y,z
-x,y,z
x,-y,z
x,1/2+y,1/2+z
-x,1/2-y,1/2+z
-x,1/2+y,1/2+z
x,1/2-y,1/2+z
1/2+x,y,1/2+z
1/2-x,-y,1/2+z
1/2-x,y,1/2+z
1/2+x,-y,1/2+z
1/2+x,1/2+y,z
1/2-x,1/2-y,z
1/2-x,1/2+y,z
1/2+x,1/2-y,z
loop_
_atom_site_type_symbol
_atom_site_label
_atom_site_fract_x
_atom_site_fract_y
_atom_site_fract_z
Si Si1 0.180832 0.826120 0.656110
Si Si2 0.821806 0.918715 0.083785
Si Si3 0.820789 0.673571 0.421832
Si Si4 0.818092 0.672589 0.743018
Si Si5 0.177574 0.825318 0.826721
Si Si6 0.321610 0.419728 0.494391
O O1 0.250000 0.750000 0.647345
O O2 0.217996 0.876213 0.616721
O O3 0.251048 0.861612 0.699460
O O4 0.000000 0.818154 0.661767
O O5 0.775436 0.895567 0.035808
O O6 0.000000 0.900934 0.091431
O O7 0.786485 0.000000 0.090583
O O8 0.750000 0.750000 0.425327
O O9 0.800547 0.640111 0.373793
O O10 0.730792 0.623439 0.453464
O O11 0.000000 0.677671 0.434235
O O12 0.750000 0.750000 0.745165
O O13 0.762229 0.633685 0.787161
O O14 0.000000 0.672520 0.740431
O O15 0.250000 0.750000 0.831250
O O16 0.000000 0.818408 0.814197
O O17 0.500000 0.405911 0.504168
O O18 0.288706 0.500000 0.483829
#
# Coordination Sequence:
#
# PCOD8185769 Si02
#       6
#    16  16  16  16  16  16
#     4  11  21  34  53  78 108 137 171 213 256 301
#     4  10  21  38  58  78 102 133 170 210 255 309
#     4  10  20  33  52  78 107 137 171 213 258 302
#     4  10  17  27  45  70 101 135 170 207 251 301
#     4   9  16  27  44  69 100 133 168 206 250 300
#     4  10  21  37  56  77 102 134 172 211 254 307
#
# _framework density 18.549613999999998
#
# number of rings (size 3 to 8) (size 9 to 14) (size 15 to 20)
#    0.000    2.000    0.000    7.000    0.000    4.667 
#    0.000    3.333    0.000    1.000    0.000    4.667 
#    0.000    0.000    0.000    0.000    0.000    0.000 
#
# Total GULP energy -297505.279766 kJ/mol
# GULP energy per Si atom -12396.053324 kJ/mol
# Density = 1.850739 g / cm^3
# Si number density = 18.549614 Si / 1000 Ang^3
#
#
#
# Elastic Constant Matrix: (Units=GPa)
#
#
# Indices 1 2 3 4 5 6 
#
# 1 133.6834 29.9882 52.3994 0.0000 0.0000 0.0000
# 2 29.9882 40.6070 46.5025 0.0000 0.0000 0.0000
# 3 52.3994 46.5025 141.4850 0.0000 0.0000 0.0000
# 4 0.0000 0.0000 0.0000 7.1108 0.0000 0.0000
# 5 0.0000 0.0000 0.0000 0.0000 37.6231 0.0000
# 6 0.0000 0.0000 0.0000 0.0000 0.0000 22.7902
#
#
#
# Elastic Compliance Matrix: (Units=1/GPa)
#
#
# Indices 1 2 3 4 5 6 
#
# 1 0.009273 -0.004675 -0.001898 0.000000 0.000000 0.000000
# 2 -0.004675 0.041847 -0.012023 0.000000 0.000000 0.000000
# 3 -0.001898 -0.012023 0.011722 0.000000 0.000000 0.000000
# 4 0.000000 0.000000 0.000000 0.140630 0.000000 0.000000
# 5 0.000000 0.000000 0.000000 0.000000 0.026579 0.000000
# 6 0.000000 0.000000 0.000000 0.000000 0.000000 0.043878
#
#
# Mechanical properties :
#
#
# Convention : Reuss Voigt Hill
#
# Bulk Modulus (GPa) = 38.98395 63.72842 51.35618
# Shear Modulus (GPa) = 15.64108 25.96385 20.80247
#
# Velocity S-wave (km/s) = 2.90695 3.74531 3.35244
# Velocity P-wave (km/s) = 5.68584 7.28927 6.53690
#
# Compressibility (1/GPa) = 0.02565158
#
# Stress axis : x y z
#
# Youngs Moduli (GPa) = 107.84157 23.89674 85.30763
#
# Poissons Ratio (x) = 0.11171 0.16190
# Poissons Ratio (y) = 0.50413 1.02563
# Poissons Ratio (z) = 0.20466 0.28730
#
# Static dielectric constant tensor:
#      x y z
#    x 3.582630 0.000000 0.000000 
#    y 0.000000 2.920660 0.000000 
#    z 0.000000 0.000000 4.288540 
# 
# 
# High freq. dielectric constant tensor:
#      x y z
#    x 1.742470 0.000000 0.000000 
#    y 0.000000 1.661760 0.000000 
#    z 0.000000 0.000000 1.747190 
# 
# From -- ./inp_files/31448.got.cif
#   From: 2010.03.12/outbox.cif.g09.slc.cpg/sg42_16_cif.got.tgz:31448.got - 2010.04.14 02:04:31.
