data_PCOD8185370
_publ_section_title
;
Structure prediction by ZEFSAII (Michael W. Deem and Ramdas Pophale) SiO2 
 PCOD8185370
Probable space group: A B A 2
;
_chemical_formula_sum "Si O2"
_cell_formula_units_Z 64
_cell_length_a 8.456070
_cell_length_b 27.933285
_cell_length_c 13.243037
_cell_angle_alpha 90.000000
_cell_angle_beta 90.000000
_cell_angle_gamma 90.000000
_cell_volume 3128.082325
_symmetry_space_group_name_H-M "A B A 2"
_symmetry_group_IT_number 41
_symmetry_cell_setting 'orthorhombic'
loop_
_space_group_symop_operation_xyz
x,y,z
-x,-y,z
1/2-x,y,1/2+z
1/2+x,-y,1/2+z
x,1/2+y,1/2+z
-x,1/2-y,1/2+z
1/2-x,1/2+y,z
1/2+x,1/2-y,z
loop_
_atom_site_type_symbol
_atom_site_label
_atom_site_fract_x
_atom_site_fract_y
_atom_site_fract_z
Si Si1 0.163620 0.068100 0.108140
Si Si2 0.189185 0.893236 0.454845
Si Si3 0.688443 0.790387 0.575088
Si Si4 0.844712 0.356250 0.218596
Si Si5 0.466618 0.809033 0.063750
Si Si6 0.047000 0.634798 0.442098
Si Si7 0.832351 0.024972 0.619899
Si Si8 0.088026 0.451571 0.768850
O O1 0.304278 0.091079 0.175532
O O2 0.003340 0.071171 0.173422
O O3 0.207297 0.014068 0.077675
O O4 0.147076 0.095782 0.003394
O O5 0.115043 0.841839 0.479898
O O6 0.370594 0.883967 0.426367
O O7 0.167735 0.929724 0.546837
O O8 0.093614 0.914366 0.360233
O O9 0.705091 0.819020 0.682531
O O10 0.641926 0.735814 0.593033
O O11 0.556114 0.815492 0.504501
O O12 0.861581 0.792376 0.521478
O O13 0.862452 0.357569 0.337576
O O14 0.010007 0.339255 0.167579
O O15 0.767981 0.039060 0.731404
O O16 0.000000 0.000000 0.630699
O O17 0.000000 0.500000 0.806024
#
# Coordination Sequence:
#
# PCOD8185370 Si02
#       8
#     8   8   8   8   8   8   8   8
#     4  10  22  44  66  89 142 171 214 271 323 386
#     4  12  25  39  68  97 132 171 228 268 322 394
#     4   9  22  45  66  92 134 166 209 270 333 390
#     4   9  23  39  70  94 127 170 217 261 333 384
#     4  10  22  45  66  93 131 170 211 271 330 388
#     4  11  23  42  67 100 126 168 223 264 327 388
#     4  11  24  41  63  93 133 174 220 270 323 381
#     4  10  24  43  60  97 131 182 218 267 327 384
#
# _framework density 20.459820000000001
#
# number of rings (size 3 to 8) (size 9 to 14) (size 15 to 20)
#    0.750    1.000    1.250    1.875    5.250    2.000 
#    4.500    0.000    0.000    0.000    0.000    0.000 
#    0.000    0.000    0.000    0.000    0.000    0.000 
#
# Total GULP energy -396669.946866 kJ/mol
# GULP energy per Si atom -12395.935840 kJ/mol
# Density = 2.041325 g / cm^3
# Si number density = 20.459820 Si / 1000 Ang^3
#
#
#
# Elastic Constant Matrix: (Units=GPa)
#
#
# Indices 1 2 3 4 5 6 
#
# 1 80.7249 28.3172 32.8601 0.0000 0.0000 0.0000
# 2 28.3172 107.8619 42.5200 0.0000 0.0000 0.0000
# 3 32.8601 42.5200 111.7791 0.0000 0.0000 0.0000
# 4 0.0000 0.0000 0.0000 20.5110 0.0000 0.0000
# 5 0.0000 0.0000 0.0000 0.0000 21.4575 0.0000
# 6 0.0000 0.0000 0.0000 0.0000 0.0000 36.8028
#
#
#
# Elastic Compliance Matrix: (Units=1/GPa)
#
#
# Indices 1 2 3 4 5 6 
#
# 1 0.014634 -0.002524 -0.003342 0.000000 0.000000 0.000000
# 2 -0.002524 0.011342 -0.003572 0.000000 0.000000 0.000000
# 3 -0.003342 -0.003572 0.011287 0.000000 0.000000 0.000000
# 4 0.000000 0.000000 0.000000 0.048754 0.000000 0.000000
# 5 0.000000 0.000000 0.000000 0.000000 0.046604 0.000000
# 6 0.000000 0.000000 0.000000 0.000000 0.000000 0.027172
#
#
# Mechanical properties :
#
#
# Convention : Reuss Voigt Hill
#
# Bulk Modulus (GPa) = 54.38833 56.41783 55.40308
# Shear Modulus (GPa) = 27.05649 28.86550 27.96100
#
# Velocity S-wave (km/s) = 3.64046 3.76019 3.70081
# Velocity P-wave (km/s) = 6.65667 6.81812 6.73788
#
# Compressibility (1/GPa) = 0.01838630
#
# Stress axis : x y z
#
# Youngs Moduli (GPa) = 68.33622 88.16694 88.59405
#
# Poissons Ratio (x) = 0.22258 0.29604
# Poissons Ratio (y) = 0.17251 0.31649
# Poissons Ratio (z) = 0.22835 0.31496
#
# Static dielectric constant tensor:
#      x y z
#    x 3.705690 0.000000 0.000000 
#    y 0.000000 3.782920 0.000000 
#    z 0.000000 0.000000 3.410360 
# 
# 
# High freq. dielectric constant tensor:
#      x y z
#    x 1.801440 0.000000 0.000000 
#    y 0.000000 1.808360 0.000000 
#    z 0.000000 0.000000 1.777540 
# 
# From -- ./inp_files/4641.got.cif
#   From: 2010.03.12/outbox.cif.g09.slc.cpg/sg41_3_cif.got.tgz:4641.got - 2010.04.14 01:55:53.
