data_PCOD8185703
_publ_section_title
;
Structure prediction by ZEFSAII (Michael W. Deem and Ramdas Pophale) SiO2 
 PCOD8185703
Probable space group: A B A 2
;
_chemical_formula_sum "Si O2"
_cell_formula_units_Z 48
_cell_length_a 14.148078
_cell_length_b 9.209499
_cell_length_c 16.617492
_cell_angle_alpha 90.000000
_cell_angle_beta 90.000000
_cell_angle_gamma 90.000000
_cell_volume 2165.204539
_symmetry_space_group_name_H-M "A B A 2"
_symmetry_group_IT_number 41
_symmetry_cell_setting 'orthorhombic'
loop_
_space_group_symop_operation_xyz
x,y,z
-x,-y,z
1/2-x,y,1/2+z
1/2+x,-y,1/2+z
x,1/2+y,1/2+z
-x,1/2-y,1/2+z
1/2-x,1/2+y,z
1/2+x,1/2-y,z
loop_
_atom_site_type_symbol
_atom_site_label
_atom_site_fract_x
_atom_site_fract_y
_atom_site_fract_z
Si Si1 0.720395 0.454107 0.579090
Si Si2 0.347927 0.273141 0.498978
Si Si3 0.000000 0.000000 0.177304
Si Si4 0.831322 0.340186 0.320030
Si Si5 0.000000 0.000000 0.737391
Si Si6 0.691545 0.033298 0.743903
Si Si7 0.023406 0.206012 0.600424
O O1 0.714163 0.582938 0.513694
O O2 0.808773 0.355634 0.554623
O O3 0.739203 0.517061 0.667569
O O4 0.623356 0.364431 0.579799
O O5 0.345354 0.226810 0.407101
O O6 0.455774 0.307753 0.523218
O O7 0.910765 0.957740 0.232674
O O8 0.960782 0.126436 0.120291
O O9 0.917526 0.444270 0.295399
O O10 0.820531 0.205169 0.259036
O O11 0.738694 0.443169 0.317243
O O12 0.970693 0.130657 0.676747
#
# Coordination Sequence:
#
# PCOD8185703 Si02
#       7
#     8   8   4   8   4   8   8
#     4  12  24  47  78 102 144 196 246 296 357 451
#     4  12  26  47  69 109 148 188 240 304 376 436
#     4  12  24  41  75 114 128 192 262 296 346 441
#     4  12  28  46  71 110 150 189 236 315 379 430
#     4  12  24  49  71 102 146 196 244 300 368 433
#     4  12  24  47  75 106 143 195 251 299 361 447
#     4  12  24  46  76 105 142 193 253 301 356 449
#
# _framework density 22.168807000000001
#
# number of rings (size 3 to 8) (size 9 to 14) (size 15 to 20)
#    0.000    0.000    6.667    3.000    2.333    0.667 
#    9.000    0.000    0.000    0.000    0.000    0.000 
#    0.000    0.000    0.000    0.000    0.000    0.000 
#
# Total GULP energy -297669.319757 kJ/mol
# GULP energy per Si atom -12402.888323 kJ/mol
# Density = 2.211835 g / cm^3
# Si number density = 22.168807 Si / 1000 Ang^3
#
#
#
# Elastic Constant Matrix: (Units=GPa)
#
#
# Indices 1 2 3 4 5 6 
#
# 1 128.9139 28.5569 50.6421 0.0000 0.0000 0.0000
# 2 28.5569 115.4511 40.2264 0.0000 0.0000 0.0000
# 3 50.6421 40.2264 112.9391 0.0000 0.0000 0.0000
# 4 0.0000 0.0000 0.0000 38.4290 0.0000 0.0000
# 5 0.0000 0.0000 0.0000 0.0000 24.3904 0.0000
# 6 0.0000 0.0000 0.0000 0.0000 0.0000 43.1732
#
#
#
# Elastic Compliance Matrix: (Units=1/GPa)
#
#
# Indices 1 2 3 4 5 6 
#
# 1 0.009514 -0.000990 -0.003913 0.000000 0.000000 0.000000
# 2 -0.000990 0.009992 -0.003115 0.000000 0.000000 0.000000
# 3 -0.003913 -0.003115 0.011719 0.000000 0.000000 0.000000
# 4 0.000000 0.000000 0.000000 0.026022 0.000000 0.000000
# 5 0.000000 0.000000 0.000000 0.000000 0.041000 0.000000
# 6 0.000000 0.000000 0.000000 0.000000 0.000000 0.023163
#
#
# Mechanical properties :
#
#
# Convention : Reuss Voigt Hill
#
# Bulk Modulus (GPa) = 65.84253 66.23944 66.04099
# Shear Modulus (GPa) = 35.08584 37.05708 36.07146
#
# Velocity S-wave (km/s) = 3.98259 4.09294 4.03814
# Velocity P-wave (km/s) = 7.13534 7.23054 7.18309
#
# Compressibility (1/GPa) = 0.01518775
#
# Stress axis : x y z
#
# Youngs Moduli (GPa) = 105.11164 100.08145 85.33387
#
# Poissons Ratio (x) = 0.09905 0.33395
# Poissons Ratio (y) = 0.10402 0.26582
# Poissons Ratio (z) = 0.41135 0.31177
#
# Static dielectric constant tensor:
#      x y z
#    x 4.087320 0.000000 0.000000 
#    y 0.000000 4.379840 0.000000 
#    z 0.000000 0.000000 3.759000 
# 
# 
# High freq. dielectric constant tensor:
#      x y z
#    x 1.884060 0.000000 0.000000 
#    y 0.000000 1.894190 0.000000 
#    z 0.000000 0.000000 1.850830 
# 
# From -- ./inp_files/10321.got.cif
#   From: 2010.03.12/outbox.cif.g09.slc.cpg/sg41_6_cif.got.tgz:10321.got - 2010.04.14 01:55:53.
