data_PCOD8185298
_publ_section_title
;
Structure prediction by ZEFSAII (Michael W. Deem and Ramdas Pophale) SiO2 
 PCOD8185298
Probable space group: A B A 2
;
_chemical_formula_sum "Si O2"
_cell_formula_units_Z 56
_cell_length_a 14.347063
_cell_length_b 20.751500
_cell_length_c 8.848958
_cell_angle_alpha 90.000000
_cell_angle_beta 90.000000
_cell_angle_gamma 90.000000
_cell_volume 2634.539011
_symmetry_space_group_name_H-M "A B A 2"
_symmetry_group_IT_number 41
_symmetry_cell_setting 'orthorhombic'
loop_
_space_group_symop_operation_xyz
x,y,z
-x,-y,z
1/2-x,y,1/2+z
1/2+x,-y,1/2+z
x,1/2+y,1/2+z
-x,1/2-y,1/2+z
1/2-x,1/2+y,z
1/2+x,1/2-y,z
loop_
_atom_site_type_symbol
_atom_site_label
_atom_site_fract_x
_atom_site_fract_y
_atom_site_fract_z
Si Si1 0.955823 0.396827 0.625000
Si Si2 0.771233 0.588812 0.938986
Si Si3 0.318349 0.824803 0.196746
Si Si4 0.043251 0.228722 0.329054
Si Si5 0.872034 0.313605 0.384518
Si Si6 0.138335 0.474472 0.662597
Si Si7 0.305755 0.218868 0.084130
O O1 0.958802 0.340528 0.749313
O O2 0.931411 0.371150 0.457203
O O3 0.880020 0.449512 0.675976
O O4 0.052907 0.432152 0.604527
O O5 0.698241 0.633467 0.847629
O O6 0.837406 0.549252 0.829435
O O7 0.836115 0.631575 0.049322
O O8 0.719203 0.536506 0.041841
O O9 0.408429 0.779424 0.214621
O O10 0.222067 0.784950 0.170497
O O11 0.104312 0.227840 0.480702
O O12 0.938557 0.250686 0.368627
O O13 0.784403 0.302577 0.492938
O O14 0.833214 0.331677 0.217487
#
# Coordination Sequence:
#
# PCOD8185298 Si02
#       7
#     8   8   8   8   8   8   8
#     4  11  25  45  66  92 142 173 230 279 333 420
#     4  10  22  39  72  89 131 175 231 273 327 407
#     4  11  20  39  64 101 129 168 214 287 329 405
#     4  12  25  40  68 103 135 179 211 284 362 402
#     4  12  25  41  66  99 132 180 210 283 352 401
#     4  10  25  46  64  95 124 188 232 277 325 396
#     4  12  24  40  60 105 139 162 221 266 352 418
#
# _framework density 21.25609
#
# number of rings (size 3 to 8) (size 9 to 14) (size 15 to 20)
#    0.000    0.857    4.286    1.714    8.000    2.286 
#    0.000    1.429    0.000    8.571    0.000    0.000 
#    0.000    0.000    0.000    0.000    0.000    0.000 
#
# Total GULP energy -347202.514405 kJ/mol
# GULP energy per Si atom -12400.089800 kJ/mol
# Density = 2.120771 g / cm^3
# Si number density = 21.256090 Si / 1000 Ang^3
#
#
#
# Elastic Constant Matrix: (Units=GPa)
#
#
# Indices 1 2 3 4 5 6 
#
# 1 98.0909 35.2389 55.2650 0.0000 0.0000 0.0000
# 2 35.2389 117.5898 51.8463 0.0000 0.0000 0.0000
# 3 55.2650 51.8463 152.8872 0.0000 0.0000 0.0000
# 4 0.0000 0.0000 0.0000 26.9994 0.0000 0.0000
# 5 0.0000 0.0000 0.0000 0.0000 34.2833 0.0000
# 6 0.0000 0.0000 0.0000 0.0000 0.0000 31.6048
#
#
#
# Elastic Compliance Matrix: (Units=1/GPa)
#
#
# Indices 1 2 3 4 5 6 
#
# 1 0.013264 -0.002188 -0.004053 0.000000 0.000000 0.000000
# 2 -0.002188 0.010360 -0.002722 0.000000 0.000000 0.000000
# 3 -0.004053 -0.002722 0.008929 0.000000 0.000000 0.000000
# 4 0.000000 0.000000 0.000000 0.037038 0.000000 0.000000
# 5 0.000000 0.000000 0.000000 0.000000 0.029169 0.000000
# 6 0.000000 0.000000 0.000000 0.000000 0.000000 0.031641
#
#
# Mechanical properties :
#
#
# Convention : Reuss Voigt Hill
#
# Bulk Modulus (GPa) = 68.36691 72.58536 70.47614
# Shear Modulus (GPa) = 32.63668 33.65870 33.14769
#
# Velocity S-wave (km/s) = 3.92267 3.98362 3.95326
# Velocity P-wave (km/s) = 7.26290 7.44185 7.35292
#
# Compressibility (1/GPa) = 0.01462696
#
# Stress axis : x y z
#
# Youngs Moduli (GPa) = 75.39245 96.52365 111.99628
#
# Poissons Ratio (x) = 0.21120 0.45387
# Poissons Ratio (y) = 0.16496 0.30489
# Poissons Ratio (z) = 0.30553 0.26277
#
# Static dielectric constant tensor:
#      x y z
#    x 3.874590 0.000000 0.000000 
#    y 0.000000 3.791710 0.000000 
#    z 0.000000 0.000000 4.143990 
# 
# 
# High freq. dielectric constant tensor:
#      x y z
#    x 1.836360 0.000000 0.000000 
#    y 0.000000 1.812540 0.000000 
#    z 0.000000 0.000000 1.853950 
# 
# From -- ./inp_files/2679.got.cif
#   From: 2010.03.12/outbox.cif.g09.slc.cpg/sg41_2_cif.got.tgz:2679.got - 2010.04.14 01:55:53.
