data_PCOD8185651
_publ_section_title
;
Structure prediction by ZEFSAII (Michael W. Deem and Ramdas Pophale) SiO2 
 PCOD8185651
Probable space group: A B A 2
;
_chemical_formula_sum "Si O2"
_cell_formula_units_Z 52
_cell_length_a 9.027099
_cell_length_b 10.785295
_cell_length_c 25.194977
_cell_angle_alpha 90.000000
_cell_angle_beta 90.000000
_cell_angle_gamma 90.000000
_cell_volume 2452.981089
_symmetry_space_group_name_H-M "A B A 2"
_symmetry_group_IT_number 41
_symmetry_cell_setting 'orthorhombic'
loop_
_space_group_symop_operation_xyz
x,y,z
-x,-y,z
1/2-x,y,1/2+z
1/2+x,-y,1/2+z
x,1/2+y,1/2+z
-x,1/2-y,1/2+z
1/2-x,1/2+y,z
1/2+x,1/2-y,z
loop_
_atom_site_type_symbol
_atom_site_label
_atom_site_fract_x
_atom_site_fract_y
_atom_site_fract_z
Si Si1 0.511697 0.361843 0.078740
Si Si2 0.929047 0.871227 0.866708
Si Si3 0.420395 0.129850 0.700606
Si Si4 0.852932 0.291200 0.927776
Si Si5 0.912623 0.873036 0.742725
Si Si6 0.500000 0.000000 0.995430
Si Si7 0.776063 0.679545 0.027838
O O1 0.500000 0.500000 0.057104
O O2 0.572233 0.351661 0.137759
O O3 0.344915 0.309041 0.074552
O O4 0.613948 0.293363 0.036520
O O5 0.780038 0.861452 0.899819
O O6 0.888831 0.863796 0.805196
O O7 0.046648 0.765887 0.881526
O O8 0.000000 0.000000 0.882579
O O9 0.248288 0.123452 0.715861
O O10 0.497822 0.249944 0.726064
O O11 0.500000 0.000000 0.717521
O O12 0.953148 0.386810 0.959234
O O13 0.794368 0.188111 0.969107
O O14 0.000000 0.000000 0.727191
O O15 0.365497 0.950820 0.032449
#
# Coordination Sequence:
#
# PCOD8185651 Si02
#       7
#     8   8   8   8   8   4   8
#     4  11  25  43  67  96 132 172 221 270 333 393
#     4  11  25  43  66  97 133 177 220 271 329 394
#     4  11  24  46  71 100 136 176 225 285 344 404
#     4  12  23  43  64  96 134 177 220 268 324 390
#     4  11  24  46  71 102 136 176 227 282 343 404
#     4  12  24  40  66  96 132 176 220 270 324 382
#     4  12  23  43  66  97 133 176 218 268 325 390
#
# _framework density 21.198696000000002
#
# number of rings (size 3 to 8) (size 9 to 14) (size 15 to 20)
#    0.000    0.615    3.077    4.615    0.000    3.692 
#    4.154    0.000    0.000    0.000    0.000    0.000 
#    0.000    0.000    0.000    0.000    0.000    0.000 
#
# Total GULP energy -322440.353473 kJ/mol
# GULP energy per Si atom -12401.552057 kJ/mol
# Density = 2.115045 g / cm^3
# Si number density = 21.198696 Si / 1000 Ang^3
#
#
#
# Elastic Constant Matrix: (Units=GPa)
#
#
# Indices 1 2 3 4 5 6 
#
# 1 165.8017 51.6473 58.1285 0.0000 0.0000 0.0000
# 2 51.6473 119.0495 30.5661 0.0000 0.0000 0.0000
# 3 58.1285 30.5661 91.8260 0.0000 0.0000 0.0000
# 4 0.0000 0.0000 0.0000 -3.5596 0.0000 0.0000
# 5 0.0000 0.0000 0.0000 0.0000 42.0030 0.0000
# 6 0.0000 0.0000 0.0000 0.0000 0.0000 38.9976
#
#
#
# Elastic Compliance Matrix: (Units=1/GPa)
#
#
# Indices 1 2 3 4 5 6 
#
# 1 0.008374 -0.002484 -0.004474 0.000000 0.000000 0.000000
# 2 -0.002484 0.009922 -0.001730 0.000000 0.000000 0.000000
# 3 -0.004474 -0.001730 0.014298 0.000000 0.000000 0.000000
# 4 0.000000 0.000000 0.000000 -0.280932 0.000000 0.000000
# 5 0.000000 0.000000 0.000000 0.000000 0.023808 0.000000
# 6 0.000000 0.000000 0.000000 0.000000 0.000000 0.025643
#
#
# Mechanical properties :
#
#
# Convention : Reuss Voigt Hill
#
# Bulk Modulus (GPa) = 65.71451 73.04011 69.37731
# Shear Modulus (GPa) = -28.33839 31.24389 1.45275
#
# Velocity S-wave (km/s) = -3.66019 3.84325 0.82873
# Velocity P-wave (km/s) = 3.63372 7.36369 5.80637
#
# Compressibility (1/GPa) = 0.01521734
#
# Stress axis : x y z
#
# Youngs Moduli (GPa) = 119.42334 100.78867 69.93900
#
# Poissons Ratio (x) = 0.25036 0.31290
# Poissons Ratio (y) = 0.29665 0.12101
# Poissons Ratio (z) = 0.53428 0.17438
#
# Static dielectric constant tensor:
#      x y z
#    x 4.158090 0.000000 0.000000 
#    y 0.000000 4.226580 0.000000 
#    z 0.000000 0.000000 3.760800 
# 
# 
# High freq. dielectric constant tensor:
#      x y z
#    x 1.856080 0.000000 0.000000 
#    y 0.000000 1.843640 0.000000 
#    z 0.000000 0.000000 1.827630 
# 
# From -- ./inp_files/12441.got.cif
#   From: 2010.03.12/outbox.cif.g09.slc.cpg/sg41_7_cif.got.tgz:12441.got - 2010.04.14 01:55:53.
