data_PCOD8185972
_publ_section_title
;
Structure prediction by ZEFSAII (Michael W. Deem and Ramdas Pophale) SiO2 
 PCOD8185972
Probable space group: F M M 2
;
_chemical_formula_sum "Si O2"
_cell_formula_units_Z 96
_cell_length_a 25.821843
_cell_length_b 13.344996
_cell_length_c 14.413256
_cell_angle_alpha 90.000000
_cell_angle_beta 90.000000
_cell_angle_gamma 90.000000
_cell_volume 4966.698355
_symmetry_space_group_name_H-M "F M M 2"
_symmetry_group_IT_number 42
_symmetry_cell_setting 'orthorhombic'
loop_
_space_group_symop_operation_xyz
x,y,z
-x,-y,z
-x,y,z
x,-y,z
x,1/2+y,1/2+z
-x,1/2-y,1/2+z
-x,1/2+y,1/2+z
x,1/2-y,1/2+z
1/2+x,y,1/2+z
1/2-x,-y,1/2+z
1/2-x,y,1/2+z
1/2+x,-y,1/2+z
1/2+x,1/2+y,z
1/2-x,1/2-y,z
1/2-x,1/2+y,z
1/2+x,1/2-y,z
loop_
_atom_site_type_symbol
_atom_site_label
_atom_site_fract_x
_atom_site_fract_y
_atom_site_fract_z
Si Si1 0.879153 0.381227 0.755260
Si Si2 0.875233 0.249021 0.578712
Si Si3 0.222436 0.646715 0.138812
Si Si4 0.268388 0.392195 0.317445
Si Si5 0.703543 0.610353 0.979471
Si Si6 0.439162 0.385106 0.442967
O O1 0.878479 0.500000 0.728600
O O2 0.896815 0.316089 0.664987
O O3 0.821912 0.340772 0.784147
O O4 0.916721 0.358928 0.841308
O O5 0.837657 0.160363 0.613725
O O6 0.844154 0.320715 0.508509
O O7 0.920120 0.192951 0.521557
O O8 0.250000 0.750000 0.161859
O O9 0.229024 0.585574 0.233074
O O10 0.254144 0.592442 0.058823
O O11 0.284305 0.500000 0.360919
O O12 0.235015 0.334480 0.395837
O O13 0.682085 0.500000 0.951259
O O14 0.500000 0.371311 0.435593
O O15 0.424490 0.500000 0.469623
#
# Coordination Sequence:
#
# PCOD8185972 Si02
#       6
#    16  16  16  16  16  16
#     4  10  20  38  63  90 121 157 200 247 293 348
#     4  11  22  35  61  88 115 153 197 251 292 348
#     4  10  19  29  46  80 116 155 188 219 265 338
#     4  10  19  31  50  77 120 162 187 220 274 343
#     4  10  20  33  51  82 123 160 192 232 284 345
#     4  10  24  45  65  85 111 149 201 256 308 359
#
# _framework density 19.328735000000002
#
# number of rings (size 3 to 8) (size 9 to 14) (size 15 to 20)
#    0.000    1.833    3.333    2.000    2.333    5.333 
#    0.000    0.000    0.000    1.500    0.000    0.000 
#    0.000    0.000    0.000    0.000    0.000    0.000 
#
# Total GULP energy -297325.154694 kJ/mol
# GULP energy per Si atom -12388.548112 kJ/mol
# Density = 1.928474 g / cm^3
# Si number density = 19.328735 Si / 1000 Ang^3
#
#
#
# Elastic Constant Matrix: (Units=GPa)
#
#
# Indices 1 2 3 4 5 6 
#
# 1 95.3838 41.0780 58.6639 0.0000 0.0000 0.0000
# 2 41.0780 87.3709 44.5553 0.0000 0.0000 0.0000
# 3 58.6639 44.5553 146.2965 0.0000 0.0000 0.0000
# 4 0.0000 0.0000 0.0000 31.9857 0.0000 0.0000
# 5 0.0000 0.0000 0.0000 0.0000 29.3154 0.0000
# 6 0.0000 0.0000 0.0000 0.0000 0.0000 8.3049
#
#
#
# Elastic Compliance Matrix: (Units=1/GPa)
#
#
# Indices 1 2 3 4 5 6 
#
# 1 0.015490 -0.004872 -0.004728 0.000000 0.000000 0.000000
# 2 -0.004872 0.015082 -0.002640 0.000000 0.000000 0.000000
# 3 -0.004728 -0.002640 0.009535 0.000000 0.000000 0.000000
# 4 0.000000 0.000000 0.000000 0.031264 0.000000 0.000000
# 5 0.000000 0.000000 0.000000 0.000000 0.034112 0.000000
# 6 0.000000 0.000000 0.000000 0.000000 0.000000 0.120411
#
#
# Mechanical properties :
#
#
# Convention : Reuss Voigt Hill
#
# Bulk Modulus (GPa) = 63.98471 68.62727 66.30599
# Shear Modulus (GPa) = 19.56328 26.23813 22.90070
#
# Velocity S-wave (km/s) = 3.18486 3.68838 3.44583
# Velocity P-wave (km/s) = 6.83372 7.32948 7.08594
#
# Compressibility (1/GPa) = 0.01562873
#
# Stress axis : x y z
#
# Youngs Moduli (GPa) = 64.55965 66.30380 104.87568
#
# Poissons Ratio (x) = 0.32301 0.49580
# Poissons Ratio (y) = 0.31451 0.27685
# Poissons Ratio (z) = 0.30521 0.17503
#
# Static dielectric constant tensor:
#      x y z
#    x 3.235410 0.000000 0.000000 
#    y 0.000000 3.752680 0.000000 
#    z 0.000000 0.000000 3.727690 
# 
# 
# High freq. dielectric constant tensor:
#      x y z
#    x 1.708370 0.000000 0.000000 
#    y 0.000000 1.760090 0.000000 
#    z 0.000000 0.000000 1.763880 
# 
# From -- ./inp_files/15841.got.cif
#   From: 2010.03.12/outbox.cif.g09.slc.cpg/sg42_8_cif.got.tgz:15841.got - 2010.04.14 02:04:31.
