data_PCOD8185715
_publ_section_title
;
Structure prediction by ZEFSAII (Michael W. Deem and Ramdas Pophale) SiO2 
 PCOD8185715
Probable space group: A B A 2
;
_chemical_formula_sum "Si O2"
_cell_formula_units_Z 40
_cell_length_a 11.397638
_cell_length_b 16.030488
_cell_length_c 8.912369
_cell_angle_alpha 90.000000
_cell_angle_beta 90.000000
_cell_angle_gamma 90.000000
_cell_volume 1628.376259
_symmetry_space_group_name_H-M "A B A 2"
_symmetry_group_IT_number 41
_symmetry_cell_setting 'orthorhombic'
loop_
_space_group_symop_operation_xyz
x,y,z
-x,-y,z
1/2-x,y,1/2+z
1/2+x,-y,1/2+z
x,1/2+y,1/2+z
-x,1/2-y,1/2+z
1/2-x,1/2+y,z
1/2+x,1/2-y,z
loop_
_atom_site_type_symbol
_atom_site_label
_atom_site_fract_x
_atom_site_fract_y
_atom_site_fract_z
Si Si1 0.275418 0.169722 0.837860
Si Si2 0.494923 0.407859 0.460924
Si Si3 0.326349 0.427471 0.193050
Si Si4 0.190753 0.784848 0.574937
Si Si5 0.135497 0.510676 0.385561
O O1 0.375865 0.129001 0.940734
O O2 0.328190 0.203778 0.681123
O O3 0.173182 0.101379 0.823878
O O4 0.217265 0.251086 0.910228
O O5 0.500000 0.500000 0.538745
O O6 0.440334 0.422271 0.296366
O O7 0.422732 0.344875 0.566837
O O8 0.305663 0.337599 0.118806
O O9 0.213302 0.444072 0.296701
O O10 0.343647 0.498075 0.064736
O O11 0.000000 0.500000 0.345985
#
# Coordination Sequence:
#
# PCOD8185715 Si02
#       5
#     8   8   8   8   8
#     4  12  28  48  77 120 156 204 267 326 405 460
#     4  12  26  50  78 106 157 211 260 328 391 489
#     4  12  24  52  73 112 154 208 265 319 394 481
#     4  12  27  48  73 115 156 198 262 329 396 459
#     4  12  28  49  80 112 159 213 265 323 392 485
#
# _framework density 24.564347000000001
#
# number of rings (size 3 to 8) (size 9 to 14) (size 15 to 20)
#    0.000    0.000    6.000    1.800    5.600    5.600 
#    0.000    0.000    0.000    0.000    0.000    0.000 
#    0.000    0.000    0.000    0.000    0.000    0.000 
#
# Total GULP energy -248061.048935 kJ/mol
# GULP energy per Si atom -12403.052447 kJ/mol
# Density = 2.450844 g / cm^3
# Si number density = 24.564347 Si / 1000 Ang^3
#
#
#
# Elastic Constant Matrix: (Units=GPa)
#
#
# Indices 1 2 3 4 5 6 
#
# 1 123.8198 50.7787 11.6194 0.0000 0.0000 0.0000
# 2 50.7787 149.3756 32.8043 0.0000 0.0000 0.0000
# 3 11.6194 32.8043 86.3291 0.0000 0.0000 0.0000
# 4 0.0000 0.0000 0.0000 52.1477 0.0000 0.0000
# 5 0.0000 0.0000 0.0000 0.0000 21.6411 0.0000
# 6 0.0000 0.0000 0.0000 0.0000 0.0000 53.8345
#
#
#
# Elastic Compliance Matrix: (Units=1/GPa)
#
#
# Indices 1 2 3 4 5 6 
#
# 1 0.009385 -0.003178 -0.000056 0.000000 0.000000 0.000000
# 2 -0.003178 0.008380 -0.002757 0.000000 0.000000 0.000000
# 3 -0.000056 -0.002757 0.012639 0.000000 0.000000 0.000000
# 4 0.000000 0.000000 0.000000 0.019176 0.000000 0.000000
# 5 0.000000 0.000000 0.000000 0.000000 0.046208 0.000000
# 6 0.000000 0.000000 0.000000 0.000000 0.000000 0.018575
#
#
# Mechanical properties :
#
#
# Convention : Reuss Voigt Hill
#
# Bulk Modulus (GPa) = 54.27962 61.10328 57.69145
# Shear Modulus (GPa) = 37.74001 43.14611 40.44306
#
# Velocity S-wave (km/s) = 3.92391 4.19555 4.06200
# Velocity P-wave (km/s) = 6.53256 6.95694 6.74809
#
# Compressibility (1/GPa) = 0.01842312
#
# Stress axis : x y z
#
# Youngs Moduli (GPa) = 106.55529 119.32772 79.12285
#
# Poissons Ratio (x) = 0.37923 0.00439
# Poissons Ratio (y) = 0.33864 0.21812
# Poissons Ratio (z) = 0.00591 0.32895
#
# Static dielectric constant tensor:
#      x y z
#    x 4.201000 0.000000 0.000000 
#    y 0.000000 4.561980 0.000000 
#    z 0.000000 0.000000 4.478590 
# 
# 
# High freq. dielectric constant tensor:
#      x y z
#    x 1.967920 0.000000 0.000000 
#    y 0.000000 1.990460 0.000000 
#    z 0.000000 0.000000 1.984690 
# 
# From -- ./inp_files/1982.got.cif
#   From: 2010.03.12/outbox.cif.g09.slc.cpg/sg41_1_cif.got.tgz:1982.got - 2010.04.14 01:55:53.
