data_PCOD8185227
_publ_section_title
;
Structure prediction by ZEFSAII (Michael W. Deem and Ramdas Pophale) SiO2 
 PCOD8185227
Probable space group: A B A 2
;
_chemical_formula_sum "Si O2"
_cell_formula_units_Z 60
_cell_length_a 11.603810
_cell_length_b 18.511732
_cell_length_c 12.621680
_cell_angle_alpha 90.000000
_cell_angle_beta 90.000000
_cell_angle_gamma 90.000000
_cell_volume 2711.220431
_symmetry_space_group_name_H-M "A B A 2"
_symmetry_group_IT_number 41
_symmetry_cell_setting 'orthorhombic'
loop_
_space_group_symop_operation_xyz
x,y,z
-x,-y,z
1/2-x,y,1/2+z
1/2+x,-y,1/2+z
x,1/2+y,1/2+z
-x,1/2-y,1/2+z
1/2-x,1/2+y,z
1/2+x,1/2-y,z
loop_
_atom_site_type_symbol
_atom_site_label
_atom_site_fract_x
_atom_site_fract_y
_atom_site_fract_z
Si Si1 0.704248 0.310577 0.697820
Si Si2 0.000000 0.500000 0.468204
Si Si3 0.135258 0.566553 0.048371
Si Si4 0.774384 0.563243 0.578911
Si Si5 0.077797 0.867735 0.461798
Si Si6 0.087783 0.717716 0.568395
Si Si7 0.825584 0.392352 0.401734
Si Si8 0.403939 0.336105 0.221043
O O1 0.649473 0.356318 0.603617
O O2 0.819564 0.269576 0.661419
O O3 0.724655 0.367375 0.790594
O O4 0.621734 0.248065 0.739665
O O5 0.103012 0.469027 0.541441
O O6 0.056632 0.560749 0.392344
O O7 0.180532 0.497920 0.117550
O O8 0.222045 0.560212 0.948761
O O9 0.003177 0.567259 0.007190
O O10 0.710693 0.611407 0.487593
O O11 0.798458 0.613922 0.680925
O O12 0.042328 0.793279 0.521207
O O13 0.054425 0.864206 0.335563
O O14 0.147740 0.676884 0.472433
O O15 0.994119 0.664760 0.622975
#
# Coordination Sequence:
#
# PCOD8185227 Si02
#       8
#     8   4   8   8   8   8   8   8
#     4  11  22  41  67 103 137 179 229 282 349 408
#     4  10  22  46  70  94 140 188 224 286 338 412
#     4  10  24  44  68  96 143 183 224 289 341 411
#     4  11  25  47  67 101 142 181 235 287 342 414
#     4  12  24  44  71 103 140 180 231 291 346 414
#     4  11  22  41  67 101 142 173 227 288 342 410
#     4  10  21  42  68  98 135 181 229 274 344 407
#     4  12  24  43  72 103 135 185 234 286 350 418
#
# _framework density 22.130255999999999
#
# number of rings (size 3 to 8) (size 9 to 14) (size 15 to 20)
#    0.000    1.067    5.333    1.200    0.000    2.133 
#   12.000    0.000    0.000    0.000    0.000    0.000 
#    0.000    0.000    0.000    0.000    0.000    0.000 
#
# Total GULP energy -371726.482815 kJ/mol
# GULP energy per Si atom -12390.882761 kJ/mol
# Density = 2.207989 g / cm^3
# Si number density = 22.130256 Si / 1000 Ang^3
#
#
#
# Elastic Constant Matrix: (Units=GPa)
#
#
# Indices 1 2 3 4 5 6 
#
# 1 97.6683 26.0243 42.0392 0.0000 0.0000 0.0000
# 2 26.0243 94.2213 33.5324 0.0000 0.0000 0.0000
# 3 42.0392 33.5324 101.2501 0.0000 0.0000 0.0000
# 4 0.0000 0.0000 0.0000 26.8297 0.0000 0.0000
# 5 0.0000 0.0000 0.0000 0.0000 20.1901 0.0000
# 6 0.0000 0.0000 0.0000 0.0000 0.0000 41.5702
#
#
#
# Elastic Compliance Matrix: (Units=1/GPa)
#
#
# Indices 1 2 3 4 5 6 
#
# 1 0.012747 -0.001856 -0.004678 0.000000 0.000000 0.000000
# 2 -0.001856 0.012302 -0.003304 0.000000 0.000000 0.000000
# 3 -0.004678 -0.003304 0.012913 0.000000 0.000000 0.000000
# 4 0.000000 0.000000 0.000000 0.037272 0.000000 0.000000
# 5 0.000000 0.000000 0.000000 0.000000 0.049529 0.000000
# 6 0.000000 0.000000 0.000000 0.000000 0.000000 0.024056
#
#
# Mechanical properties :
#
#
# Convention : Reuss Voigt Hill
#
# Bulk Modulus (GPa) = 54.68459 55.14795 54.91627
# Shear Modulus (GPa) = 28.63881 30.48758 29.56320
#
# Velocity S-wave (km/s) = 3.60127 3.71569 3.65892
# Velocity P-wave (km/s) = 6.48507 6.58652 6.53599
#
# Compressibility (1/GPa) = 0.01828669
#
# Stress axis : x y z
#
# Youngs Moduli (GPa) = 78.45159 81.29015 77.44229
#
# Poissons Ratio (x) = 0.15087 0.36226
# Poissons Ratio (y) = 0.14560 0.25583
# Poissons Ratio (z) = 0.36698 0.26854
#
# Static dielectric constant tensor:
#      x y z
#    x 4.045860 0.000000 0.000000 
#    y 0.000000 4.078630 0.000000 
#    z 0.000000 0.000000 3.738200 
# 
# 
# High freq. dielectric constant tensor:
#      x y z
#    x 1.869720 0.000000 0.000000 
#    y 0.000000 1.887080 0.000000 
#    z 0.000000 0.000000 1.848430 
# 
# From -- ./inp_files/5143.got.cif
#   From: 2010.03.12/outbox.cif.g09.slc.cpg/sg41_3_cif.got.tgz:5143.got - 2010.04.14 01:55:53.
