data_PCOD8185308
_publ_section_title
;
Structure prediction by ZEFSAII (Michael W. Deem and Ramdas Pophale) SiO2 
 PCOD8185308
Probable space group: A B A 2
;
_chemical_formula_sum "Si O2"
_cell_formula_units_Z 40
_cell_length_a 4.912498
_cell_length_b 15.270476
_cell_length_c 22.917580
_cell_angle_alpha 90.000000
_cell_angle_beta 90.000000
_cell_angle_gamma 90.000000
_cell_volume 1719.189371
_symmetry_space_group_name_H-M "A B A 2"
_symmetry_group_IT_number 41
_symmetry_cell_setting 'orthorhombic'
loop_
_space_group_symop_operation_xyz
x,y,z
-x,-y,z
1/2-x,y,1/2+z
1/2+x,-y,1/2+z
x,1/2+y,1/2+z
-x,1/2-y,1/2+z
1/2-x,1/2+y,z
1/2+x,1/2-y,z
loop_
_atom_site_type_symbol
_atom_site_label
_atom_site_fract_x
_atom_site_fract_y
_atom_site_fract_z
Si Si1 0.625625 0.194784 0.168190
Si Si2 0.475560 0.307630 0.856778
Si Si3 0.015551 0.599149 0.053388
Si Si4 0.736440 0.059951 0.264102
Si Si5 0.474486 0.899968 0.476562
O O1 0.310036 0.218717 0.178521
O O2 0.618951 0.160046 0.102343
O O3 0.772616 0.127920 0.211868
O O4 0.774916 0.272905 0.840300
O O5 0.375256 0.393063 0.822335
O O6 0.504707 0.331818 0.924351
O O7 0.000000 0.500000 0.077288
O O8 0.833084 0.612582 0.996677
O O9 0.320161 0.621624 0.030647
O O10 0.500000 0.000000 0.239447
O O11 0.000000 0.000000 0.277411
O O12 0.500000 0.000000 0.454583
#
# Coordination Sequence:
#
# PCOD8185308 Si02
#       5
#     8   8   8   8   8
#     4  12  25  42  66  97 133 167 214 276 335 389
#     4  12  25  42  66  97 133 167 214 276 335 389
#     4  10  22  40  63  92 129 174 222 268 322 394
#     4  12  26  46  70  94 128 176 226 270 328 404
#     4  10  22  40  63  92 129 174 222 268 322 394
#
# _framework density 23.266779
#
# number of rings (size 3 to 8) (size 9 to 14) (size 15 to 20)
#    0.000    0.800    0.000    7.200    0.000    9.600 
#    0.000    0.000    0.000    0.000    0.000    0.000 
#    0.000    0.000    0.000    0.000    0.000    0.000 
#
# Total GULP energy -247882.134767 kJ/mol
# GULP energy per Si atom -12394.106738 kJ/mol
# Density = 2.321382 g / cm^3
# Si number density = 23.266779 Si / 1000 Ang^3
#
#
#
# Elastic Constant Matrix: (Units=GPa)
#
#
# Indices 1 2 3 4 5 6 
#
# 1 111.9811 26.7010 15.7376 0.0000 0.0000 0.0000
# 2 26.7010 77.8839 36.0180 0.0000 0.0000 0.0000
# 3 15.7376 36.0180 86.5348 0.0000 0.0000 0.0000
# 4 0.0000 0.0000 0.0000 51.6491 0.0000 0.0000
# 5 0.0000 0.0000 0.0000 0.0000 53.1760 0.0000
# 6 0.0000 0.0000 0.0000 0.0000 0.0000 49.7786
#
#
#
# Elastic Compliance Matrix: (Units=1/GPa)
#
#
# Indices 1 2 3 4 5 6 
#
# 1 0.009741 -0.003121 -0.000472 0.000000 0.000000 0.000000
# 2 -0.003121 0.016900 -0.006467 0.000000 0.000000 0.000000
# 3 -0.000472 -0.006467 0.014334 0.000000 0.000000 0.000000
# 4 0.000000 0.000000 0.000000 0.019361 0.000000 0.000000
# 5 0.000000 0.000000 0.000000 0.000000 0.018805 0.000000
# 6 0.000000 0.000000 0.000000 0.000000 0.000000 0.020089
#
#
# Mechanical properties :
#
#
# Convention : Reuss Voigt Hill
#
# Bulk Modulus (GPa) = 47.95192 48.14589 48.04890
# Shear Modulus (GPa) = 39.58774 44.11696 41.85235
#
# Velocity S-wave (km/s) = 4.12936 4.35919 4.24583
# Velocity P-wave (km/s) = 6.58710 6.78783 6.68822
#
# Compressibility (1/GPa) = 0.02085422
#
# Stress axis : x y z
#
# Youngs Moduli (GPa) = 102.66277 59.17110 69.76623
#
# Poissons Ratio (x) = 0.18467 0.03296
# Poissons Ratio (y) = 0.32040 0.45116
# Poissons Ratio (z) = 0.04851 0.38264
#
# Static dielectric constant tensor:
#      x y z
#    x 3.303940 0.000000 0.000000 
#    y 0.000000 4.359810 0.000000 
#    z 0.000000 0.000000 3.908850 
# 
# 
# High freq. dielectric constant tensor:
#      x y z
#    x 1.934870 0.000000 0.000000 
#    y 0.000000 1.927340 0.000000 
#    z 0.000000 0.000000 1.914100 
# 
# From -- ./inp_files/11821.got.cif
#   From: 2010.03.12/outbox.cif.g09.slc.cpg/sg41_6_cif.got.tgz:11821.got - 2010.04.14 01:55:53.
