data_PCOD8185522
_publ_section_title
;
Structure prediction by ZEFSAII (Michael W. Deem and Ramdas Pophale) SiO2 
 PCOD8185522
Probable space group: A B A 2
;
_chemical_formula_sum "Si O2"
_cell_formula_units_Z 64
_cell_length_a 21.348275
_cell_length_b 16.581127
_cell_length_c 9.123716
_cell_angle_alpha 90.000000
_cell_angle_beta 90.000000
_cell_angle_gamma 90.000000
_cell_volume 3229.598930
_symmetry_space_group_name_H-M "A B A 2"
_symmetry_group_IT_number 41
_symmetry_cell_setting 'orthorhombic'
loop_
_space_group_symop_operation_xyz
x,y,z
-x,-y,z
1/2-x,y,1/2+z
1/2+x,-y,1/2+z
x,1/2+y,1/2+z
-x,1/2-y,1/2+z
1/2-x,1/2+y,z
1/2+x,1/2-y,z
loop_
_atom_site_type_symbol
_atom_site_label
_atom_site_fract_x
_atom_site_fract_y
_atom_site_fract_z
Si Si1 0.166705 0.267147 0.841900
Si Si2 0.442213 0.833035 0.361341
Si Si3 0.323083 0.419255 0.847743
Si Si4 0.520746 0.680039 0.351418
Si Si5 0.984363 0.409376 0.585633
Si Si6 0.881182 0.904672 0.849716
Si Si7 0.987295 0.913230 0.628254
Si Si8 0.247052 0.346507 0.094616
O O1 0.095179 0.302556 0.833966
O O2 0.167255 0.169687 0.841119
O O3 0.206252 0.294452 0.698452
O O4 0.200225 0.292636 0.994579
O O5 0.367889 0.839219 0.350807
O O6 0.477050 0.754344 0.300932
O O7 0.461207 0.849450 0.528724
O O8 0.465664 0.909496 0.265861
O O9 0.350203 0.508374 0.863621
O O10 0.288731 0.411108 0.694240
O O11 0.281129 0.408722 0.989263
O O12 0.489901 0.606576 0.258671
O O13 0.504744 0.658410 0.518041
O O14 0.921018 0.387031 0.498428
O O15 0.000000 0.500000 0.548236
O O16 0.918264 0.901750 0.695210
O O17 0.000000 0.000000 0.553167
#
# Coordination Sequence:
#
# PCOD8185522 Si02
#       8
#     8   8   8   8   8   8   8   8
#     4  11  24  44  64  92 123 163 213 262 300 372
#     4  11  20  37  66  89 125 164 195 244 322 382
#     4  11  22  44  65  88 123 168 213 257 311 373
#     4  12  24  35  65  99 132 156 201 259 317 378
#     4  11  21  38  56  99 128 161 190 241 321 381
#     4  11  23  39  66  88 127 165 201 251 312 376
#     4  11  21  38  56  99 128 161 190 241 321 381
#     4  10  26  44  66  86 118 170 220 262 302 352
#
# _framework density 19.816701999999999
#
# number of rings (size 3 to 8) (size 9 to 14) (size 15 to 20)
#    0.000    1.000    5.000    3.375    3.500    1.000 
#    0.000    0.000    0.000    0.000    0.000    0.000 
#    0.000    0.000    0.000    0.000    0.000    0.000 
#
# Total GULP energy -396421.906784 kJ/mol
# GULP energy per Si atom -12388.184587 kJ/mol
# Density = 1.977160 g / cm^3
# Si number density = 19.816702 Si / 1000 Ang^3
#
#
#
# Elastic Constant Matrix: (Units=GPa)
#
#
# Indices 1 2 3 4 5 6 
#
# 1 109.6697 50.9513 54.2400 0.0000 0.0000 0.0000
# 2 50.9513 97.0091 44.7820 0.0000 0.0000 0.0000
# 3 54.2400 44.7820 112.8095 0.0000 0.0000 0.0000
# 4 0.0000 0.0000 0.0000 -4.9479 0.0000 0.0000
# 5 0.0000 0.0000 0.0000 0.0000 14.4452 0.0000
# 6 0.0000 0.0000 0.0000 0.0000 0.0000 31.1874
#
#
#
# Elastic Compliance Matrix: (Units=1/GPa)
#
#
# Indices 1 2 3 4 5 6 
#
# 1 0.013761 -0.005110 -0.004588 0.000000 0.000000 0.000000
# 2 -0.005110 0.014518 -0.003307 0.000000 0.000000 0.000000
# 3 -0.004588 -0.003307 0.012383 0.000000 0.000000 0.000000
# 4 0.000000 0.000000 0.000000 -0.202105 0.000000 0.000000
# 5 0.000000 0.000000 0.000000 0.000000 0.069227 0.000000
# 6 0.000000 0.000000 0.000000 0.000000 0.000000 0.032064
#
#
# Mechanical properties :
#
#
# Convention : Reuss Voigt Hill
#
# Bulk Modulus (GPa) = 68.24087 68.82611 68.53349
# Shear Modulus (GPa) = -170.89722 19.43795 -75.72964
#
# Velocity S-wave (km/s) = -9.29657 3.13531 -6.18854
# Velocity P-wave (km/s) = 8.98466 6.92197 4.05034
#
# Compressibility (1/GPa) = 0.01465397
#
# Stress axis : x y z
#
# Youngs Moduli (GPa) = 72.66678 68.87781 80.75474
#
# Poissons Ratio (x) = 0.35195 0.37052
# Poissons Ratio (y) = 0.37131 0.26702
# Poissons Ratio (z) = 0.33341 0.22775
#
# Static dielectric constant tensor:
#      x y z
#    x 3.705670 0.000000 0.000000 
#    y 0.000000 4.057880 0.000000 
#    z 0.000000 0.000000 3.590230 
# 
# 
# High freq. dielectric constant tensor:
#      x y z
#    x 1.761290 0.000000 0.000000 
#    y 0.000000 1.776060 0.000000 
#    z 0.000000 0.000000 1.786890 
# 
# From -- ./inp_files/3489.got.cif
#   From: 2010.03.12/outbox.cif.g09.slc.cpg/sg41_2_cif.got.tgz:3489.got - 2010.04.14 01:55:53.
