data_PCOD8185314
_publ_section_title
;
Structure prediction by ZEFSAII (Michael W. Deem and Ramdas Pophale) SiO2 
 PCOD8185314
Probable space group: A B A 2
;
_chemical_formula_sum "Si O2"
_cell_formula_units_Z 52
_cell_length_a 23.130075
_cell_length_b 19.097924
_cell_length_c 5.142970
_cell_angle_alpha 90.000000
_cell_angle_beta 90.000000
_cell_angle_gamma 90.000000
_cell_volume 2271.837127
_symmetry_space_group_name_H-M "A B A 2"
_symmetry_group_IT_number 41
_symmetry_cell_setting 'orthorhombic'
loop_
_space_group_symop_operation_xyz
x,y,z
-x,-y,z
1/2-x,y,1/2+z
1/2+x,-y,1/2+z
x,1/2+y,1/2+z
-x,1/2-y,1/2+z
1/2-x,1/2+y,z
1/2+x,1/2-y,z
loop_
_atom_site_type_symbol
_atom_site_label
_atom_site_fract_x
_atom_site_fract_y
_atom_site_fract_z
Si Si1 0.094437 0.336414 0.252050
Si Si2 0.535760 0.359511 0.812809
Si Si3 0.723354 0.509188 0.106320
Si Si4 0.394543 0.680675 0.314895
Si Si5 0.892618 0.573871 0.729519
Si Si6 0.000000 0.000000 0.988245
Si Si7 0.228670 0.144613 0.468884
O O1 0.122583 0.259738 0.233556
O O2 0.123087 0.372643 0.500286
O O3 0.026659 0.323158 0.307685
O O4 0.105033 0.384363 0.999761
O O5 0.570922 0.324047 0.583351
O O6 0.528399 0.443696 0.790690
O O7 0.567037 0.351116 0.088226
O O8 0.764915 0.545029 0.326841
O O9 0.658185 0.515936 0.216149
O O10 0.741797 0.427885 0.076501
O O11 0.336301 0.636618 0.363468
O O12 0.953624 0.536501 0.677334
O O13 0.267613 0.184830 0.248095
#
# Coordination Sequence:
#
# PCOD8185314 Si02
#       7
#     8   8   8   8   8   4   8
#     4  11  24  45  64 103 137 185 230 278 351 440
#     4  11  24  41  67 104 137 181 226 286 360 424
#     4  10  22  40  65  95 132 176 236 280 351 423
#     4  12  24  42  73  93 139 187 229 291 344 418
#     4  11  24  43  67  97 146 177 230 293 354 431
#     4  10  26  40  68 108 140 178 230 302 368 426
#     4  10  23  41  62 100 127 171 238 292 339 407
#
# _framework density 22.888967000000001
#
# number of rings (size 3 to 8) (size 9 to 14) (size 15 to 20)
#    0.000    1.231    0.000    5.538    8.615    5.538 
#    0.000    4.615    0.000    0.000    0.000    0.000 
#    0.000    0.000    0.000    0.000    0.000    0.000 
#
# Total GULP energy -322142.193457 kJ/mol
# GULP energy per Si atom -12390.084364 kJ/mol
# Density = 2.283687 g / cm^3
# Si number density = 22.888967 Si / 1000 Ang^3
#
#
#
# Elastic Constant Matrix: (Units=GPa)
#
#
# Indices 1 2 3 4 5 6 
#
# 1 111.5566 37.2493 51.6318 0.0000 0.0000 0.0000
# 2 37.2493 102.1796 14.8414 0.0000 0.0000 0.0000
# 3 51.6318 14.8414 165.9706 0.0000 0.0000 0.0000
# 4 0.0000 0.0000 0.0000 29.6123 0.0000 0.0000
# 5 0.0000 0.0000 0.0000 0.0000 41.8188 0.0000
# 6 0.0000 0.0000 0.0000 0.0000 0.0000 15.9900
#
#
#
# Elastic Compliance Matrix: (Units=1/GPa)
#
#
# Indices 1 2 3 4 5 6 
#
# 1 0.011774 -0.003810 -0.003322 0.000000 0.000000 0.000000
# 2 -0.003810 0.011148 0.000188 0.000000 0.000000 0.000000
# 3 -0.003322 0.000188 0.007042 0.000000 0.000000 0.000000
# 4 0.000000 0.000000 0.000000 0.033770 0.000000 0.000000
# 5 0.000000 0.000000 0.000000 0.000000 0.023913 0.000000
# 6 0.000000 0.000000 0.000000 0.000000 0.000000 0.062539
#
#
# Mechanical properties :
#
#
# Convention : Reuss Voigt Hill
#
# Bulk Modulus (GPa) = 62.20113 65.23909 63.72011
# Shear Modulus (GPa) = 29.51064 35.88317 32.69691
#
# Velocity S-wave (km/s) = 3.59457 3.96372 3.78365
# Velocity P-wave (km/s) = 6.66799 7.03651 6.85472
#
# Compressibility (1/GPa) = 0.01607688
#
# Stress axis : x y z
#
# Youngs Moduli (GPa) = 84.93583 89.70143 142.00970
#
# Poissons Ratio (x) = 0.34172 0.47176
# Poissons Ratio (y) = 0.32356 -0.02673
# Poissons Ratio (z) = 0.28216 -0.01688
#
# Static dielectric constant tensor:
#      x y z
#    x 3.968560 0.000000 0.000000 
#    y 0.000000 3.979090 0.000000 
#    z 0.000000 0.000000 5.218060 
# 
# 
# High freq. dielectric constant tensor:
#      x y z
#    x 1.900870 0.000000 0.000000 
#    y 0.000000 1.878300 0.000000 
#    z 0.000000 0.000000 1.935920 
# 
# From -- ./inp_files/728.got.cif
#   From: 2010.03.12/outbox.cif.g09.slc.cpg/sg41_1_cif.got.tgz:728.got - 2010.04.14 01:55:53.
