data_PCOD8185840
_publ_section_title
;
Structure prediction by ZEFSAII (Michael W. Deem and Ramdas Pophale) SiO2 
 PCOD8185840
Probable space group: F M M 2
;
_chemical_formula_sum "Si O2"
_cell_formula_units_Z 112
_cell_length_a 18.304266
_cell_length_b 29.064590
_cell_length_c 11.730652
_cell_angle_alpha 90.000000
_cell_angle_beta 90.000000
_cell_angle_gamma 90.000000
_cell_volume 6240.777090
_symmetry_space_group_name_H-M "F M M 2"
_symmetry_group_IT_number 42
_symmetry_cell_setting 'orthorhombic'
loop_
_space_group_symop_operation_xyz
x,y,z
-x,-y,z
-x,y,z
x,-y,z
x,1/2+y,1/2+z
-x,1/2-y,1/2+z
-x,1/2+y,1/2+z
x,1/2-y,1/2+z
1/2+x,y,1/2+z
1/2-x,-y,1/2+z
1/2-x,y,1/2+z
1/2+x,-y,1/2+z
1/2+x,1/2+y,z
1/2-x,1/2-y,z
1/2-x,1/2+y,z
1/2+x,1/2-y,z
loop_
_atom_site_type_symbol
_atom_site_label
_atom_site_fract_x
_atom_site_fract_y
_atom_site_fract_z
Si Si1 0.309785 0.447640 0.796280
Si Si2 0.581415 0.820773 0.286719
Si Si3 0.301528 0.126925 0.869966
Si Si4 0.418434 0.406731 0.955620
Si Si5 0.195598 0.292169 0.442176
Si Si6 0.164431 0.621846 0.114829
Si Si7 0.332854 0.646773 0.132950
O O1 0.288441 0.500000 0.770400
O O2 0.236254 0.420726 0.831925
O O3 0.368494 0.446109 0.899202
O O4 0.347799 0.425862 0.682942
O O5 0.500000 0.800885 0.266405
O O6 0.579842 0.863335 0.372349
O O7 0.632488 0.781918 0.347851
O O8 0.614706 0.837106 0.166011
O O9 0.236679 0.162141 0.899605
O O10 0.351750 0.148328 0.768164
O O11 0.353186 0.117626 0.979882
O O12 0.500000 0.425894 0.976438
O O13 0.384007 0.391825 0.076279
O O14 0.250000 0.250000 0.454516
O O15 0.159503 0.304131 0.566220
O O16 0.248551 0.633640 0.128470
#
# Coordination Sequence:
#
# PCOD8185840 Si02
#       7
#    16  16  16  16  16  16  16
#     4  10  18  29  49  76 106 139 178 226 271 312
#     4   9  16  31  53  76 104 138 175 221 273 314
#     4  10  18  34  49  75 112 135 180 221 262 323
#     4   9  16  30  50  73 103 138 176 225 274 315
#     4  10  18  30  53  82  98 138 183 220 266 316
#     4   9  16  32  49  72 104 142 175 218 259 319
#     4   9  16  32  49  72 105 139 178 220 260 324
#
# _framework density 17.946483000000001
#
# number of rings (size 3 to 8) (size 9 to 14) (size 15 to 20)
#    0.000    2.571    7.143    0.000    0.000    1.429 
#    0.000    0.714    0.000    4.286    0.000    0.000 
#    0.000    1.429    0.000    0.000    0.000    0.000 
#
# Total GULP energy -346917.284320 kJ/mol
# GULP energy per Si atom -12389.903011 kJ/mol
# Density = 1.790564 g / cm^3
# Si number density = 17.946483 Si / 1000 Ang^3
#
#
#
# Elastic Constant Matrix: (Units=GPa)
#
#
# Indices 1 2 3 4 5 6 
#
# 1 75.7058 20.4491 44.8907 0.0000 0.0000 0.0000
# 2 20.4491 67.3598 32.0786 0.0000 0.0000 0.0000
# 3 44.8907 32.0786 163.3698 0.0000 0.0000 0.0000
# 4 0.0000 0.0000 0.0000 11.7735 0.0000 0.0000
# 5 0.0000 0.0000 0.0000 0.0000 22.0746 0.0000
# 6 0.0000 0.0000 0.0000 0.0000 0.0000 14.3997
#
#
#
# Elastic Compliance Matrix: (Units=1/GPa)
#
#
# Indices 1 2 3 4 5 6 
#
# 1 0.016352 -0.003116 -0.003881 0.000000 0.000000 0.000000
# 2 -0.003116 0.016971 -0.002476 0.000000 0.000000 0.000000
# 3 -0.003881 -0.002476 0.007674 0.000000 0.000000 0.000000
# 4 0.000000 0.000000 0.000000 0.084937 0.000000 0.000000
# 5 0.000000 0.000000 0.000000 0.000000 0.045301 0.000000
# 6 0.000000 0.000000 0.000000 0.000000 0.000000 0.069446
#
#
# Mechanical properties :
#
#
# Convention : Reuss Voigt Hill
#
# Bulk Modulus (GPa) = 45.35137 55.69690 50.52413
# Shear Modulus (GPa) = 18.72822 23.58403 21.15613
#
# Velocity S-wave (km/s) = 3.23392 3.62903 3.43716
# Velocity P-wave (km/s) = 6.26654 6.97583 6.63067
#
# Compressibility (1/GPa) = 0.02205005
#
# Stress axis : x y z
#
# Youngs Moduli (GPa) = 61.15387 58.92495 130.31291
#
# Poissons Ratio (x) = 0.18360 0.50580
# Poissons Ratio (y) = 0.19054 0.32268
# Poissons Ratio (z) = 0.23737 0.14591
#
# Static dielectric constant tensor:
#      x y z
#    x 3.342050 0.000000 0.000000 
#    y 0.000000 2.912270 0.000000 
#    z 0.000000 0.000000 4.285400 
# 
# 
# High freq. dielectric constant tensor:
#      x y z
#    x 1.665010 0.000000 0.000000 
#    y 0.000000 1.651560 0.000000 
#    z 0.000000 0.000000 1.704920 
# 
# From -- ./inp_files/9765.got.cif
#   From: 2010.03.12/outbox.cif.g09.slc.cpg/sg42_5_cif.got.tgz:9765.got - 2010.04.14 02:04:31.
