data_PCOD8185806
_publ_section_title
;
Structure prediction by ZEFSAII (Michael W. Deem and Ramdas Pophale) SiO2 
 PCOD8185806
Probable space group: F M M 2
;
_chemical_formula_sum "Si O2"
_cell_formula_units_Z 96
_cell_length_a 9.521379
_cell_length_b 25.857300
_cell_length_c 23.532103
_cell_angle_alpha 90.000000
_cell_angle_beta 90.000000
_cell_angle_gamma 90.000000
_cell_volume 5793.536768
_symmetry_space_group_name_H-M "F M M 2"
_symmetry_group_IT_number 42
_symmetry_cell_setting 'orthorhombic'
loop_
_space_group_symop_operation_xyz
x,y,z
-x,-y,z
-x,y,z
x,-y,z
x,1/2+y,1/2+z
-x,1/2-y,1/2+z
-x,1/2+y,1/2+z
x,1/2-y,1/2+z
1/2+x,y,1/2+z
1/2-x,-y,1/2+z
1/2-x,y,1/2+z
1/2+x,-y,1/2+z
1/2+x,1/2+y,z
1/2-x,1/2-y,z
1/2-x,1/2+y,z
1/2+x,1/2-y,z
loop_
_atom_site_type_symbol
_atom_site_label
_atom_site_fract_x
_atom_site_fract_y
_atom_site_fract_z
Si Si1 0.161286 0.646952 0.885120
Si Si2 0.846246 0.207609 0.805721
Si Si3 0.663663 0.941479 0.800280
Si Si4 0.160578 0.700546 0.995776
Si Si5 0.665504 0.301677 0.624375
Si Si6 0.654234 0.618576 0.716734
O O1 0.259748 0.692175 0.861607
O O2 0.204575 0.592033 0.856533
O O3 0.183586 0.651088 0.953502
O O4 0.000000 0.658519 0.869085
O O5 0.750000 0.250000 0.773625
O O6 0.866372 0.159692 0.765706
O O7 0.000000 0.229569 0.822621
O O8 0.500000 0.936568 0.786721
O O9 0.741107 0.924534 0.741818
O O10 0.707480 0.000000 0.814766
O O11 0.250000 0.750000 0.976550
O O12 0.000000 0.718970 0.993876
O O13 0.200308 0.682919 0.059460
O O14 0.500000 0.291230 0.635126
O O15 0.750000 0.250000 0.641867
O O16 0.715083 0.351292 0.661568
O O17 0.500000 0.594152 0.703129
#
# Coordination Sequence:
#
# PCOD8185806 Si02
#       6
#    16  16  16  16  16  16
#     4   9  17  29  44  62  85 113 143 177 217 258
#     4  10  18  26  38  59  86 114 142 173 211 255
#     4   9  18  32  49  67  85 108 142 184 227 267
#     4   9  17  28  43  63  89 120 149 176 206 246
#     4   9  17  29  44  64  91 121 151 178 206 246
#     4   9  18  30  44  63  87 114 143 177 216 259
#
# _framework density 16.570188999999999
#
# number of rings (size 3 to 8) (size 9 to 14) (size 15 to 20)
#    0.000    2.833    0.000    1.500    0.000    3.667 
#    0.000    0.000    0.000    1.000    0.000    4.667 
#    0.000    0.000    0.000    0.000    0.000    0.000 
#
# Total GULP energy -297334.512317 kJ/mol
# GULP energy per Si atom -12388.938013 kJ/mol
# Density = 1.653247 g / cm^3
# Si number density = 16.570189 Si / 1000 Ang^3
#
#
#
# Elastic Constant Matrix: (Units=GPa)
#
#
# Indices 1 2 3 4 5 6 
#
# 1 71.2416 38.4683 28.8906 0.0000 0.0000 0.0000
# 2 38.4683 84.1490 46.4662 0.0000 0.0000 0.0000
# 3 28.8906 46.4662 101.5696 0.0000 0.0000 0.0000
# 4 0.0000 0.0000 0.0000 22.2056 0.0000 0.0000
# 5 0.0000 0.0000 0.0000 0.0000 19.5844 0.0000
# 6 0.0000 0.0000 0.0000 0.0000 0.0000 21.3904
#
#
#
# Elastic Compliance Matrix: (Units=1/GPa)
#
#
# Indices 1 2 3 4 5 6 
#
# 1 0.018909 -0.007592 -0.001905 0.000000 0.000000 0.000000
# 2 -0.007592 0.018949 -0.006509 0.000000 0.000000 0.000000
# 3 -0.001905 -0.006509 0.013365 0.000000 0.000000 0.000000
# 4 0.000000 0.000000 0.000000 0.045034 0.000000 0.000000
# 5 0.000000 0.000000 0.000000 0.000000 0.051061 0.000000
# 6 0.000000 0.000000 0.000000 0.000000 0.000000 0.046750
#
#
# Mechanical properties :
#
#
# Convention : Reuss Voigt Hill
#
# Bulk Modulus (GPa) = 52.05670 53.84559 52.95114
# Shear Modulus (GPa) = 21.50688 22.17840 21.84264
#
# Velocity S-wave (km/s) = 3.60658 3.66245 3.63463
# Velocity P-wave (km/s) = 6.98766 7.10287 7.04550
#
# Compressibility (1/GPa) = 0.01920982
#
# Stress axis : x y z
#
# Youngs Moduli (GPa) = 52.88533 52.77423 74.82113
#
# Poissons Ratio (x) = 0.40066 0.14255
# Poissons Ratio (y) = 0.40151 0.48702
# Poissons Ratio (z) = 0.10076 0.34352
#
# Static dielectric constant tensor:
#      x y z
#    x 3.632660 0.000000 0.000000 
#    y 0.000000 3.013850 0.000000 
#    z 0.000000 0.000000 3.240980 
# 
# 
# High freq. dielectric constant tensor:
#      x y z
#    x 1.643830 0.000000 0.000000 
#    y 0.000000 1.603560 0.000000 
#    z 0.000000 0.000000 1.633100 
# 
# From -- ./inp_files/26838.got.cif
#   From: 2010.03.12/outbox.cif.g09.slc.cpg/sg42_14_cif.got.tgz:26838.got - 2010.04.14 02:04:31.
