data_PCOD8185143
_publ_section_title
;
Structure prediction by ZEFSAII (Michael W. Deem and Ramdas Pophale) SiO2 
 PCOD8185143
Probable space group: A B A 2
;
_chemical_formula_sum "Si O2"
_cell_formula_units_Z 60
_cell_length_a 5.051204
_cell_length_b 27.720373
_cell_length_c 20.335945
_cell_angle_alpha 90.000000
_cell_angle_beta 90.000000
_cell_angle_gamma 90.000000
_cell_volume 2847.464621
_symmetry_space_group_name_H-M "A B A 2"
_symmetry_group_IT_number 41
_symmetry_cell_setting 'orthorhombic'
loop_
_space_group_symop_operation_xyz
x,y,z
-x,-y,z
1/2-x,y,1/2+z
1/2+x,-y,1/2+z
x,1/2+y,1/2+z
-x,1/2-y,1/2+z
1/2-x,1/2+y,z
1/2+x,1/2-y,z
loop_
_atom_site_type_symbol
_atom_site_label
_atom_site_fract_x
_atom_site_fract_y
_atom_site_fract_z
Si Si1 0.544400 0.098022 0.105860
Si Si2 0.521130 0.944545 0.402814
Si Si3 0.000000 0.500000 0.160541
Si Si4 0.035894 0.218635 0.403916
Si Si5 0.023078 0.721109 0.750751
Si Si6 0.980157 0.110933 0.454665
Si Si7 0.325982 0.042278 0.774523
Si Si8 0.033768 0.123507 0.184325
O O1 0.614715 0.041560 0.113818
O O2 0.246503 0.107835 0.129670
O O3 0.746849 0.127374 0.151323
O O4 0.592601 0.111115 0.030839
O O5 0.245990 0.915868 0.411855
O O6 0.593382 0.943111 0.324985
O O7 0.746930 0.917519 0.444003
O O8 0.500000 0.000000 0.427423
O O9 0.771554 0.480142 0.206736
O O10 0.301628 0.245750 0.426221
O O11 0.042407 0.207930 0.326974
O O12 0.009683 0.166761 0.437146
O O13 0.224966 0.763976 0.733034
O O14 0.113622 0.676017 0.708366
O O15 0.483099 0.089598 0.749827
O O16 0.500000 0.000000 0.809737
#
# Coordination Sequence:
#
# PCOD8185143 Si02
#       8
#     8   8   4   8   8   8   8   8
#     4  11  25  42  64  92 131 179 223 250 316 387
#     4  12  26  40  65  98 133 172 216 273 331 384
#     4  10  22  38  62  90 128 174 210 266 304 384
#     4  10  22  42  70  97 125 168 217 273 339 388
#     4  10  21  39  64  97 128 159 208 272 335 382
#     4  12  26  46  64  96 137 176 223 271 317 395
#     4  11  21  40  63  94 128 163 215 269 329 378
#     4  11  23  41  66  94 126 171 215 269 320 387
#
# _framework density 21.071379
#
# number of rings (size 3 to 8) (size 9 to 14) (size 15 to 20)
#    0.000    1.067    2.000    4.400    1.867    4.267 
#    0.000    4.000    0.000    0.000    0.000    0.000 
#    0.000    0.000    0.000    0.000    0.000    0.000 
#
# Total GULP energy -372042.852592 kJ/mol
# GULP energy per Si atom -12401.428420 kJ/mol
# Density = 2.102342 g / cm^3
# Si number density = 21.071379 Si / 1000 Ang^3
#
#
#
# Elastic Constant Matrix: (Units=GPa)
#
#
# Indices 1 2 3 4 5 6 
#
# 1 88.4002 24.5735 23.3900 0.0000 0.0000 0.0000
# 2 24.5735 138.4372 64.8168 0.0000 0.0000 0.0000
# 3 23.3900 64.8168 83.8201 0.0000 0.0000 0.0000
# 4 0.0000 0.0000 0.0000 25.7073 0.0000 0.0000
# 5 0.0000 0.0000 0.0000 0.0000 29.0545 0.0000
# 6 0.0000 0.0000 0.0000 0.0000 0.0000 21.6797
#
#
#
# Elastic Compliance Matrix: (Units=1/GPa)
#
#
# Indices 1 2 3 4 5 6 
#
# 1 0.012285 -0.000902 -0.002731 0.000000 0.000000 0.000000
# 2 -0.000902 0.011389 -0.008555 0.000000 0.000000 0.000000
# 3 -0.002731 -0.008555 0.019308 0.000000 0.000000 0.000000
# 4 0.000000 0.000000 0.000000 0.038899 0.000000 0.000000
# 5 0.000000 0.000000 0.000000 0.000000 0.034418 0.000000
# 6 0.000000 0.000000 0.000000 0.000000 0.000000 0.046126
#
#
# Mechanical properties :
#
#
# Convention : Reuss Voigt Hill
#
# Bulk Modulus (GPa) = 53.74506 59.57981 56.66243
# Shear Modulus (GPa) = 25.90605 28.48011 27.19308
#
# Velocity S-wave (km/s) = 3.51014 3.68040 3.59628
# Velocity P-wave (km/s) = 6.47995 6.81154 6.64781
#
# Compressibility (1/GPa) = 0.01860636
#
# Stress axis : x y z
#
# Youngs Moduli (GPa) = 81.39681 87.80151 51.79197
#
# Poissons Ratio (x) = 0.07922 0.14142
# Poissons Ratio (y) = 0.07345 0.44310
# Poissons Ratio (z) = 0.22226 0.75118
#
# Static dielectric constant tensor:
#      x y z
#    x 3.948170 0.000000 0.000000 
#    y 0.000000 3.968370 0.000000 
#    z 0.000000 0.000000 3.620060 
# 
# 
# High freq. dielectric constant tensor:
#      x y z
#    x 1.836430 0.000000 0.000000 
#    y 0.000000 1.834540 0.000000 
#    z 0.000000 0.000000 1.810530 
# 
# From -- ./inp_files/9465.got.cif
#   From: 2010.03.12/outbox.cif.g09.slc.cpg/sg41_5_cif.got.tgz:9465.got - 2010.04.14 01:55:53.
