data_PCOD8185805
_publ_section_title
;
Structure prediction by ZEFSAII (Michael W. Deem and Ramdas Pophale) SiO2 
 PCOD8185805
Probable space group: F M M 2
;
_chemical_formula_sum "Si O2"
_cell_formula_units_Z 96
_cell_length_a 11.939361
_cell_length_b 21.887722
_cell_length_c 19.158979
_cell_angle_alpha 90.000000
_cell_angle_beta 90.000000
_cell_angle_gamma 90.000000
_cell_volume 5006.728127
_symmetry_space_group_name_H-M "F M M 2"
_symmetry_group_IT_number 42
_symmetry_cell_setting 'orthorhombic'
loop_
_space_group_symop_operation_xyz
x,y,z
-x,-y,z
-x,y,z
x,-y,z
x,1/2+y,1/2+z
-x,1/2-y,1/2+z
-x,1/2+y,1/2+z
x,1/2-y,1/2+z
1/2+x,y,1/2+z
1/2-x,-y,1/2+z
1/2-x,y,1/2+z
1/2+x,-y,1/2+z
1/2+x,1/2+y,z
1/2-x,1/2-y,z
1/2-x,1/2+y,z
1/2+x,1/2-y,z
loop_
_atom_site_type_symbol
_atom_site_label
_atom_site_fract_x
_atom_site_fract_y
_atom_site_fract_z
Si Si1 0.000000 0.353832 0.477430
Si Si2 0.677419 0.432424 0.340940
Si Si3 0.376056 0.890570 0.259759
Si Si4 0.000000 0.628320 0.632821
Si Si5 0.500000 0.792645 0.334603
Si Si6 0.000000 0.341530 0.782289
Si Si7 0.738821 0.070872 0.634468
Si Si8 0.779407 0.929962 0.980907
O O1 0.000000 0.333171 0.559683
O O2 0.000000 0.300497 0.419174
O O3 0.110426 0.392342 0.462923
O O4 0.625079 0.500000 0.329504
O O5 0.803067 0.433144 0.310361
O O6 0.608278 0.380996 0.301457
O O7 0.683862 0.417371 0.423225
O O8 0.500000 0.920028 0.249651
O O9 0.390927 0.823759 0.297080
O O10 0.312907 0.886202 0.185065
O O11 0.000000 0.673761 0.699472
O O12 0.893103 0.584390 0.639391
O O13 0.500000 0.720699 0.324451
O O14 0.776155 0.086444 0.555406
O O15 0.758959 0.000000 0.654318
O O16 0.818030 0.000000 0.980856
#
# Coordination Sequence:
#
# PCOD8185805 Si02
#       8
#     8  16  16   8   8   8  16  16
#     4  10  17  38  57  86 116 151 202 243 287 339
#     4  11  22  38  62  89 118 150 194 249 306 352
#     4  10  21  38  56  88 115 157 194 238 287 350
#     4  10  21  34  60  88 117 150 199 248 294 336
#     4  10  24  42  60  83 117 162 206 240 282 346
#     4  12  25  42  59  87 118 159 198 247 289 353
#     4  10  19  34  57  87 124 158 192 241 301 356
#     4   9  18  33  56  88 121 154 192 243 300 350
#
# _framework density 19.174198000000001
#
# number of rings (size 3 to 8) (size 9 to 14) (size 15 to 20)
#    0.500    1.333    3.333    1.250    0.000    4.667 
#    1.500    1.667    0.000    4.000    0.000    0.000 
#    0.000    0.000    0.000    0.000    0.000    0.000 
#
# Total GULP energy -297383.950849 kJ/mol
# GULP energy per Si atom -12390.997952 kJ/mol
# Density = 1.913056 g / cm^3
# Si number density = 19.174198 Si / 1000 Ang^3
#
#
#
# Elastic Constant Matrix: (Units=GPa)
#
#
# Indices 1 2 3 4 5 6 
#
# 1 88.7019 26.2518 47.8636 0.0000 0.0000 0.0000
# 2 26.2518 88.5824 59.0702 0.0000 0.0000 0.0000
# 3 47.8636 59.0702 180.9827 0.0000 0.0000 0.0000
# 4 0.0000 0.0000 0.0000 24.4315 0.0000 0.0000
# 5 0.0000 0.0000 0.0000 0.0000 26.9042 0.0000
# 6 0.0000 0.0000 0.0000 0.0000 0.0000 17.4102
#
#
#
# Elastic Compliance Matrix: (Units=1/GPa)
#
#
# Indices 1 2 3 4 5 6 
#
# 1 0.013438 -0.002061 -0.002881 0.000000 0.000000 0.000000
# 2 -0.002061 0.014746 -0.004268 0.000000 0.000000 0.000000
# 3 -0.002881 -0.004268 0.007680 0.000000 0.000000 0.000000
# 4 0.000000 0.000000 0.000000 0.040931 0.000000 0.000000
# 5 0.000000 0.000000 0.000000 0.000000 0.037169 0.000000
# 6 0.000000 0.000000 0.000000 0.000000 0.000000 0.057437
#
#
# Mechanical properties :
#
#
# Convention : Reuss Voigt Hill
#
# Bulk Modulus (GPa) = 57.32587 69.40424 63.36506
# Shear Modulus (GPa) = 25.55760 28.75461 27.15611
#
# Velocity S-wave (km/s) = 3.65487 3.87673 3.76744
# Velocity P-wave (km/s) = 6.91181 7.50427 7.21412
#
# Compressibility (1/GPa) = 0.01744413
#
# Stress axis : x y z
#
# Youngs Moduli (GPa) = 74.41321 67.81680 130.20375
#
# Poissons Ratio (x) = 0.13979 0.37515
# Poissons Ratio (y) = 0.15338 0.55566
# Poissons Ratio (z) = 0.21440 0.28942
#
# Static dielectric constant tensor:
#      x y z
#    x 3.367090 0.000000 0.000000 
#    y 0.000000 2.995870 0.000000 
#    z 0.000000 0.000000 4.045040 
# 
# 
# High freq. dielectric constant tensor:
#      x y z
#    x 1.735560 0.000000 0.000000 
#    y 0.000000 1.697980 0.000000 
#    z 0.000000 0.000000 1.773880 
# 
# From -- ./inp_files/24539.got.cif
#   From: 2010.03.12/outbox.cif.g09.slc.cpg/sg42_13_cif.got.tgz:24539.got - 2010.04.14 02:04:31.
