data_PCOD8185602
_publ_section_title
;
Structure prediction by ZEFSAII (Michael W. Deem and Ramdas Pophale) SiO2 
 PCOD8185602
Probable space group: A B A 2
;
_chemical_formula_sum "Si O2"
_cell_formula_units_Z 32
_cell_length_a 9.703982
_cell_length_b 16.127633
_cell_length_c 8.708210
_cell_angle_alpha 90.000000
_cell_angle_beta 90.000000
_cell_angle_gamma 90.000000
_cell_volume 1362.854548
_symmetry_space_group_name_H-M "A B A 2"
_symmetry_group_IT_number 41
_symmetry_cell_setting 'orthorhombic'
loop_
_space_group_symop_operation_xyz
x,y,z
-x,-y,z
1/2-x,y,1/2+z
1/2+x,-y,1/2+z
x,1/2+y,1/2+z
-x,1/2-y,1/2+z
1/2-x,1/2+y,z
1/2+x,1/2-y,z
loop_
_atom_site_type_symbol
_atom_site_label
_atom_site_fract_x
_atom_site_fract_y
_atom_site_fract_z
Si Si1 0.930980 0.230897 0.510100
Si Si2 0.599747 0.931407 0.016234
Si Si3 0.156870 0.815017 0.843380
Si Si4 0.144683 0.504876 0.349657
O O1 0.885288 0.232353 0.687166
O O2 0.793865 0.228417 0.407633
O O3 0.035043 0.155955 0.474381
O O4 0.026605 0.309436 0.461883
O O5 0.612251 0.942611 0.197803
O O6 0.500000 0.000000 0.942578
O O7 0.750577 0.940961 0.946768
O O8 0.195222 0.911301 0.811735
O O9 0.000000 0.500000 0.442622
#
# Coordination Sequence:
#
# PCOD8185602 Si02
#       4
#     8   8   8   8
#     4  12  27  47  72 105 146 187 237 294 360 424
#     4  11  23  46  71  99 140 184 236 287 349 414
#     4  12  25  47  71 103 143 189 233 294 353 426
#     4  11  23  45  72 101 141 181 236 288 346 422
#
# _framework density 23.480127
#
# number of rings (size 3 to 8) (size 9 to 14) (size 15 to 20)
#    0.000    0.500    7.500    1.500    3.500    3.000 
#    4.500    0.000    0.000    0.000    0.000    0.000 
#    0.000    0.000    0.000    0.000    0.000    0.000 
#
# Total GULP energy -198389.685649 kJ/mol
# GULP energy per Si atom -12399.355353 kJ/mol
# Density = 2.342669 g / cm^3
# Si number density = 23.480127 Si / 1000 Ang^3
#
#
#
# Elastic Constant Matrix: (Units=GPa)
#
#
# Indices 1 2 3 4 5 6 
#
# 1 201.0314 16.8542 60.5300 0.0000 0.0000 0.0000
# 2 16.8542 43.4030 18.4555 0.0000 0.0000 0.0000
# 3 60.5300 18.4555 98.1628 0.0000 0.0000 0.0000
# 4 0.0000 0.0000 0.0000 13.9488 0.0000 0.0000
# 5 0.0000 0.0000 0.0000 0.0000 50.7069 0.0000
# 6 0.0000 0.0000 0.0000 0.0000 0.0000 48.3842
#
#
#
# Elastic Compliance Matrix: (Units=1/GPa)
#
#
# Indices 1 2 3 4 5 6 
#
# 1 0.006137 -0.000841 -0.003626 0.000000 0.000000 0.000000
# 2 -0.000841 0.025157 -0.004211 0.000000 0.000000 0.000000
# 3 -0.003626 -0.004211 0.013215 0.000000 0.000000 0.000000
# 4 0.000000 0.000000 0.000000 0.071691 0.000000 0.000000
# 5 0.000000 0.000000 0.000000 0.000000 0.019721 0.000000
# 6 0.000000 0.000000 0.000000 0.000000 0.000000 0.020668
#
#
# Mechanical properties :
#
#
# Convention : Reuss Voigt Hill
#
# Bulk Modulus (GPa) = 36.82946 59.36408 48.09677
# Shear Modulus (GPa) = 27.32308 39.05847 33.19077
#
# Velocity S-wave (km/s) = 3.41496 4.08299 3.76382
# Velocity P-wave (km/s) = 5.59184 6.89676 6.27830
#
# Compressibility (1/GPa) = 0.02715218
#
# Stress axis : x y z
#
# Youngs Moduli (GPa) = 162.95648 39.75015 75.67342
#
# Poissons Ratio (x) = 0.03344 0.27438
# Poissons Ratio (y) = 0.13708 0.31867
# Poissons Ratio (z) = 0.59086 0.16739
#
# Static dielectric constant tensor:
#      x y z
#    x 4.960020 0.000000 0.000000 
#    y 0.000000 4.125280 0.000000 
#    z 0.000000 0.000000 3.972280 
# 
# 
# High freq. dielectric constant tensor:
#      x y z
#    x 1.958160 0.000000 0.000000 
#    y 0.000000 1.928820 0.000000 
#    z 0.000000 0.000000 1.908300 
# 
# From -- ./inp_files/1635.got.cif
#   From: 2010.03.12/outbox.cif.g09.slc.cpg/sg41_1_cif.got.tgz:1635.got - 2010.04.14 01:55:53.
