data_PCOD8185192
_publ_section_title
;
Structure prediction by ZEFSAII (Michael W. Deem and Ramdas Pophale) SiO2 
 PCOD8185192
Probable space group: A B A 2
;
_chemical_formula_sum "Si O2"
_cell_formula_units_Z 48
_cell_length_a 5.195219
_cell_length_b 14.348766
_cell_length_c 27.468429
_cell_angle_alpha 90.000000
_cell_angle_beta 90.000000
_cell_angle_gamma 90.000000
_cell_volume 2047.633538
_symmetry_space_group_name_H-M "A B A 2"
_symmetry_group_IT_number 41
_symmetry_cell_setting 'orthorhombic'
loop_
_space_group_symop_operation_xyz
x,y,z
-x,-y,z
1/2-x,y,1/2+z
1/2+x,-y,1/2+z
x,1/2+y,1/2+z
-x,1/2-y,1/2+z
1/2-x,1/2+y,z
1/2+x,1/2-y,z
loop_
_atom_site_type_symbol
_atom_site_label
_atom_site_fract_x
_atom_site_fract_y
_atom_site_fract_z
Si Si1 0.746962 0.448614 0.557590
Si Si2 0.523632 0.294195 0.713484
Si Si3 0.000000 0.500000 0.245193
Si Si4 0.000000 0.500000 0.809002
Si Si5 0.100167 0.690152 0.865798
Si Si6 0.466080 0.214814 0.605871
Si Si7 0.652507 0.306053 0.478290
O O1 0.500000 0.500000 0.580678
O O2 0.859293 0.389589 0.603524
O O3 0.619054 0.395209 0.512360
O O4 0.000000 0.500000 0.537155
O O5 0.774563 0.250143 0.740466
O O6 0.535376 0.406487 0.712762
O O7 0.540720 0.253043 0.659000
O O8 0.250879 0.479598 0.276763
O O9 0.935407 0.408979 0.840276
O O10 0.368366 0.739870 0.851366
O O11 0.107739 0.664763 0.922633
O O12 0.743008 0.223210 0.578524
O O13 0.439337 0.228880 0.490504
#
# Coordination Sequence:
#
# PCOD8185192 Si02
#       7
#     8   8   4   4   8   8   8
#     4  12  24  38  62 103 134 178 233 289 338 401
#     4  10  23  45  68  97 133 174 219 285 343 408
#     4  12  26  44  70 104 131 180 229 280 350 418
#     4  12  26  42  70 106 139 170 233 286 334 424
#     4  10  23  43  66 100 137 185 221 275 344 402
#     4  10  21  43  64  89 130 176 216 277 341 395
#     4  10  21  41  65  89 135 183 230 270 335 409
#
# _framework density 23.441694999999999
#
# number of rings (size 3 to 8) (size 9 to 14) (size 15 to 20)
#    0.000    1.333    0.000    5.000    1.167    4.000 
#   19.500    0.000    0.000    0.000    0.000    0.000 
#    0.000    0.000    0.000    0.000    0.000    0.000 
#
# Total GULP energy -297363.602887 kJ/mol
# GULP energy per Si atom -12390.150120 kJ/mol
# Density = 2.338834 g / cm^3
# Si number density = 23.441695 Si / 1000 Ang^3
#
#
#
# Elastic Constant Matrix: (Units=GPa)
#
#
# Indices 1 2 3 4 5 6 
#
# 1 159.2839 19.8637 15.4895 0.0000 0.0000 0.0000
# 2 19.8637 135.7426 40.2375 0.0000 0.0000 0.0000
# 3 15.4895 40.2375 58.8564 0.0000 0.0000 0.0000
# 4 0.0000 0.0000 0.0000 21.5603 0.0000 0.0000
# 5 0.0000 0.0000 0.0000 0.0000 10.2128 0.0000
# 6 0.0000 0.0000 0.0000 0.0000 0.0000 45.9054
#
#
#
# Elastic Compliance Matrix: (Units=1/GPa)
#
#
# Indices 1 2 3 4 5 6 
#
# 1 0.006476 -0.000555 -0.001325 0.000000 0.000000 0.000000
# 2 -0.000555 0.009287 -0.006203 0.000000 0.000000 0.000000
# 3 -0.001325 -0.006203 0.021580 0.000000 0.000000 0.000000
# 4 0.000000 0.000000 0.000000 0.046382 0.000000 0.000000
# 5 0.000000 0.000000 0.000000 0.000000 0.097916 0.000000
# 6 0.000000 0.000000 0.000000 0.000000 0.000000 0.021784
#
#
# Mechanical properties :
#
#
# Convention : Reuss Voigt Hill
#
# Bulk Modulus (GPa) = 47.22071 56.11827 51.66949
# Shear Modulus (GPa) = 22.06052 34.08852 28.07452
#
# Velocity S-wave (km/s) = 3.07103 3.81751 3.46444
# Velocity P-wave (km/s) = 5.72386 6.58959 6.17192
#
# Compressibility (1/GPa) = 0.02117715
#
# Stress axis : x y z
#
# Youngs Moduli (GPa) = 154.41280 107.67985 46.33950
#
# Poissons Ratio (x) = 0.05975 0.06140
# Poissons Ratio (y) = 0.08569 0.28744
# Poissons Ratio (z) = 0.20459 0.66793
#
# Static dielectric constant tensor:
#      x y z
#    x 6.447100 0.000000 0.000000 
#    y 0.000000 4.201350 0.000000 
#    z 0.000000 0.000000 4.181700 
# 
# 
# High freq. dielectric constant tensor:
#      x y z
#    x 1.971880 0.000000 0.000000 
#    y 0.000000 1.923350 0.000000 
#    z 0.000000 0.000000 1.916590 
# 
# From -- ./inp_files/12395.got.cif
#   From: 2010.03.12/outbox.cif.g09.slc.cpg/sg41_7_cif.got.tgz:12395.got - 2010.04.14 01:55:53.
