data_PCOD8185026
_publ_section_title
;
Structure prediction by ZEFSAII (Michael W. Deem and Ramdas Pophale) SiO2 
 PCOD8185026
Probable space group: A B A 2
;
_chemical_formula_sum "Si O2"
_cell_formula_units_Z 64
_cell_length_a 29.163535
_cell_length_b 11.709764
_cell_length_c 8.830014
_cell_angle_alpha 90.000000
_cell_angle_beta 90.000000
_cell_angle_gamma 90.000000
_cell_volume 3015.433112
_symmetry_space_group_name_H-M "A B A 2"
_symmetry_group_IT_number 41
_symmetry_cell_setting 'orthorhombic'
loop_
_space_group_symop_operation_xyz
x,y,z
-x,-y,z
1/2-x,y,1/2+z
1/2+x,-y,1/2+z
x,1/2+y,1/2+z
-x,1/2-y,1/2+z
1/2-x,1/2+y,z
1/2+x,1/2-y,z
loop_
_atom_site_type_symbol
_atom_site_label
_atom_site_fract_x
_atom_site_fract_y
_atom_site_fract_z
Si Si1 0.920553 0.289328 0.065420
Si Si2 0.234446 0.602051 0.083221
Si Si3 0.804675 0.776347 0.869080
Si Si4 0.886214 0.057164 0.114316
Si Si5 0.297065 0.476546 0.300021
Si Si6 0.508164 0.866305 0.551026
Si Si7 0.596739 0.364158 0.886690
Si Si8 0.455174 0.550450 0.335725
O O1 0.880653 0.192119 0.073120
O O2 0.918223 0.369483 0.212227
O O3 0.916861 0.385555 0.935402
O O4 0.966089 0.218093 0.025530
O O5 0.204287 0.675502 0.199973
O O6 0.255319 0.500575 0.185224
O O7 0.276643 0.668293 0.006401
O O8 0.201981 0.560131 0.946153
O O9 0.789125 0.646704 0.869229
O O10 0.858655 0.784402 0.907345
O O11 0.843332 0.009783 0.205805
O O12 0.930439 0.043033 0.225335
O O13 0.891715 0.988721 0.956922
O O14 0.552399 0.811608 0.468078
O O15 0.520769 0.857971 0.726962
O O16 0.500000 0.000000 0.499023
O O17 0.500000 0.500000 0.427082
#
# Coordination Sequence:
#
# PCOD8185026 Si02
#       8
#     8   8   8   8   8   8   8   8
#     4  12  22  40  66  85 125 169 205 263 312 365
#     4  10  24  41  66  96 126 161 212 260 318 380
#     4  11  22  42  65  96 127 166 213 258 321 383
#     4  11  23  43  60  89 129 163 202 261 311 367
#     4  11  22  41  68  88 128 164 199 259 318 370
#     4  10  20  41  65  85 127 167 207 260 322 360
#     4  11  23  39  65  93 125 167 214 260 308 381
#     4  10  22  41  59  90 121 161 214 250 303 375
#
# _framework density 21.224148
#
# number of rings (size 3 to 8) (size 9 to 14) (size 15 to 20)
#    0.000    1.250    6.250    1.500    1.750    0.500 
#    2.250    2.500    0.000    0.000    0.000    0.000 
#    0.000    0.000    0.000    0.000    0.000    0.000 
#
# Total GULP energy -396423.514329 kJ/mol
# GULP energy per Si atom -12388.234823 kJ/mol
# Density = 2.117584 g / cm^3
# Si number density = 21.224148 Si / 1000 Ang^3
#
#
#
# Elastic Constant Matrix: (Units=GPa)
#
#
# Indices 1 2 3 4 5 6 
#
# 1 76.3927 5.4879 11.7676 0.0000 0.0000 0.0000
# 2 5.4879 77.7108 33.6901 0.0000 0.0000 0.0000
# 3 11.7676 33.6901 75.6629 0.0000 0.0000 0.0000
# 4 0.0000 0.0000 0.0000 26.8255 0.0000 0.0000
# 5 0.0000 0.0000 0.0000 0.0000 32.3367 0.0000
# 6 0.0000 0.0000 0.0000 0.0000 0.0000 24.4872
#
#
#
# Elastic Compliance Matrix: (Units=1/GPa)
#
#
# Indices 1 2 3 4 5 6 
#
# 1 0.013412 -0.000053 -0.002062 0.000000 0.000000 0.000000
# 2 -0.000053 0.015947 -0.007092 0.000000 0.000000 0.000000
# 3 -0.002062 -0.007092 0.016695 0.000000 0.000000 0.000000
# 4 0.000000 0.000000 0.000000 0.037278 0.000000 0.000000
# 5 0.000000 0.000000 0.000000 0.000000 0.030925 0.000000
# 6 0.000000 0.000000 0.000000 0.000000 0.000000 0.040838
#
#
# Mechanical properties :
#
#
# Convention : Reuss Voigt Hill
#
# Bulk Modulus (GPa) = 36.18147 36.85083 36.51615
# Shear Modulus (GPa) = 27.36398 28.65126 28.00762
#
# Velocity S-wave (km/s) = 3.59456 3.67813 3.63659
# Velocity P-wave (km/s) = 5.85765 5.95303 5.90554
#
# Compressibility (1/GPa) = 0.02763845
#
# Stress axis : x y z
#
# Youngs Moduli (GPa) = 74.56151 62.70886 59.89743
#
# Poissons Ratio (x) = 0.00333 0.12352
# Poissons Ratio (y) = 0.00396 0.42481
# Poissons Ratio (z) = 0.15376 0.44475
#
# Static dielectric constant tensor:
#      x y z
#    x 3.971850 0.000000 0.000000 
#    y 0.000000 3.699240 0.000000 
#    z 0.000000 0.000000 3.860320 
# 
# 
# High freq. dielectric constant tensor:
#      x y z
#    x 1.840420 0.000000 0.000000 
#    y 0.000000 1.815920 0.000000 
#    z 0.000000 0.000000 1.830810 
# 
# From -- ./inp_files/3972.got.cif
#   From: 2010.03.12/outbox.cif.g09.slc.cpg/sg41_2_cif.got.tgz:3972.got - 2010.04.14 01:55:53.
