data_PCOD8185696
_publ_section_title
;
Structure prediction by ZEFSAII (Michael W. Deem and Ramdas Pophale) SiO2 
 PCOD8185696
Probable space group: A B A 2
;
_chemical_formula_sum "Si O2"
_cell_formula_units_Z 64
_cell_length_a 20.793185
_cell_length_b 14.676756
_cell_length_c 9.090319
_cell_angle_alpha 90.000000
_cell_angle_beta 90.000000
_cell_angle_gamma 90.000000
_cell_volume 2774.151761
_symmetry_space_group_name_H-M "A B A 2"
_symmetry_group_IT_number 41
_symmetry_cell_setting 'orthorhombic'
loop_
_space_group_symop_operation_xyz
x,y,z
-x,-y,z
1/2-x,y,1/2+z
1/2+x,-y,1/2+z
x,1/2+y,1/2+z
-x,1/2-y,1/2+z
1/2-x,1/2+y,z
1/2+x,1/2-y,z
loop_
_atom_site_type_symbol
_atom_site_label
_atom_site_fract_x
_atom_site_fract_y
_atom_site_fract_z
Si Si1 0.170083 0.423782 0.096250
Si Si2 0.364459 0.474736 0.285055
Si Si3 0.631594 0.820410 0.376959
Si Si4 0.242194 0.763986 0.515714
Si Si5 0.868158 0.208674 0.833994
Si Si6 0.935594 0.863610 0.161726
Si Si7 0.762821 0.911825 0.713799
Si Si8 0.079498 0.808672 0.143131
O O1 0.130404 0.384921 0.237891
O O2 0.192886 0.526816 0.112037
O O3 0.127037 0.433519 0.948787
O O4 0.236171 0.363300 0.090622
O O5 0.423886 0.539918 0.240573
O O6 0.299431 0.532786 0.265556
O O7 0.368437 0.387126 0.178066
O O8 0.669410 0.735823 0.449253
O O9 0.579967 0.867078 0.486348
O O10 0.691528 0.890387 0.353768
O O11 0.597447 0.785676 0.227150
O O12 0.297709 0.764206 0.394497
O O13 0.249264 0.683247 0.632642
O O14 0.887549 0.289683 0.727630
O O15 0.918362 0.205029 0.968016
O O16 0.008685 0.836948 0.191887
#
# Coordination Sequence:
#
# PCOD8185696 Si02
#       8
#     8   8   8   8   8   8   8   8
#     4  12  25  43  70 107 147 183 235 303 380 442
#     4  12  25  46  69 107 143 192 240 307 374 435
#     4  12  24  47  70 105 143 190 243 299 372 436
#     4  12  22  46  71 107 147 187 233 314 381 441
#     4  12  25  44  74 108 141 190 244 305 378 444
#     4  12  26  48  73 101 145 198 252 297 360 448
#     4  12  25  41  75 110 144 185 240 310 380 442
#     4  12  27  47  74 100 148 197 248 298 365 446
#
# _framework density 23.070115999999999
#
# number of rings (size 3 to 8) (size 9 to 14) (size 15 to 20)
#    0.000    0.000    5.000    5.625    1.750    0.000 
#    0.000    0.000    2.750    0.000    0.000    0.000 
#    0.000    0.000    0.000    0.000    0.000    0.000 
#
# Total GULP energy -396613.411478 kJ/mol
# GULP energy per Si atom -12394.169109 kJ/mol
# Density = 2.301761 g / cm^3
# Si number density = 23.070116 Si / 1000 Ang^3
#
#
#
# Elastic Constant Matrix: (Units=GPa)
#
#
# Indices 1 2 3 4 5 6 
#
# 1 74.1974 12.8020 24.9985 0.0000 0.0000 0.0000
# 2 12.8020 95.4104 42.1409 0.0000 0.0000 0.0000
# 3 24.9985 42.1409 132.2459 0.0000 0.0000 0.0000
# 4 0.0000 0.0000 0.0000 35.1609 0.0000 0.0000
# 5 0.0000 0.0000 0.0000 0.0000 34.8487 0.0000
# 6 0.0000 0.0000 0.0000 0.0000 0.0000 26.2711
#
#
#
# Elastic Compliance Matrix: (Units=1/GPa)
#
#
# Indices 1 2 3 4 5 6 
#
# 1 0.014454 -0.000853 -0.002460 0.000000 0.000000 0.000000
# 2 -0.000853 0.012248 -0.003742 0.000000 0.000000 0.000000
# 3 -0.002460 -0.003742 0.009219 0.000000 0.000000 0.000000
# 4 0.000000 0.000000 0.000000 0.028441 0.000000 0.000000
# 5 0.000000 0.000000 0.000000 0.000000 0.028695 0.000000
# 6 0.000000 0.000000 0.000000 0.000000 0.000000 0.038065
#
#
# Mechanical properties :
#
#
# Convention : Reuss Voigt Hill
#
# Bulk Modulus (GPa) = 45.84811 51.30405 48.57608
# Shear Modulus (GPa) = 32.78652 34.05031 33.41842
#
# Velocity S-wave (km/s) = 3.77393 3.84598 3.81012
# Velocity P-wave (km/s) = 6.23751 6.48141 6.36063
#
# Compressibility (1/GPa) = 0.02181115
#
# Stress axis : x y z
#
# Youngs Moduli (GPa) = 69.18666 81.64532 108.47031
#
# Poissons Ratio (x) = 0.06961 0.26689
# Poissons Ratio (y) = 0.05899 0.40587
# Poissons Ratio (z) = 0.17023 0.30550
#
# Static dielectric constant tensor:
#      x y z
#    x 3.913070 0.000000 0.000000 
#    y 0.000000 4.296490 0.000000 
#    z 0.000000 0.000000 4.333050 
# 
# 
# High freq. dielectric constant tensor:
#      x y z
#    x 1.892190 0.000000 0.000000 
#    y 0.000000 1.921100 0.000000 
#    z 0.000000 0.000000 1.924340 
# 
# From -- ./inp_files/3713.got.cif
#   From: 2010.03.12/outbox.cif.g09.slc.cpg/sg41_2_cif.got.tgz:3713.got - 2010.04.14 01:55:53.
