data_PCOD8185884
_publ_section_title
;
Structure prediction by ZEFSAII (Michael W. Deem and Ramdas Pophale) SiO2 
 PCOD8185884
Probable space group: F M M 2
;
_chemical_formula_sum "Si O2"
_cell_formula_units_Z 128
_cell_length_a 26.864948
_cell_length_b 17.006985
_cell_length_c 16.526320
_cell_angle_alpha 90.000000
_cell_angle_beta 90.000000
_cell_angle_gamma 90.000000
_cell_volume 7550.739558
_symmetry_space_group_name_H-M "F M M 2"
_symmetry_group_IT_number 42
_symmetry_cell_setting 'orthorhombic'
loop_
_space_group_symop_operation_xyz
x,y,z
-x,-y,z
-x,y,z
x,-y,z
x,1/2+y,1/2+z
-x,1/2-y,1/2+z
-x,1/2+y,1/2+z
x,1/2-y,1/2+z
1/2+x,y,1/2+z
1/2-x,-y,1/2+z
1/2-x,y,1/2+z
1/2+x,-y,1/2+z
1/2+x,1/2+y,z
1/2-x,1/2-y,z
1/2-x,1/2+y,z
1/2+x,1/2-y,z
loop_
_atom_site_type_symbol
_atom_site_label
_atom_site_fract_x
_atom_site_fract_y
_atom_site_fract_z
Si Si1 0.360235 0.831992 0.734520
Si Si2 0.729742 0.092101 0.824953
Si Si3 0.443937 0.589008 0.138714
Si Si4 0.119433 0.223271 0.879407
Si Si5 0.141367 0.188493 0.623062
Si Si6 0.943706 0.734989 0.529695
Si Si7 0.704827 0.802007 0.974133
Si Si8 0.841533 0.908333 0.776397
O O1 0.311173 0.878431 0.761317
O O2 0.402560 0.892633 0.706207
O O3 0.385929 0.785506 0.807590
O O4 0.342958 0.770701 0.665429
O O5 0.722009 0.130301 0.912792
O O6 0.783577 0.114486 0.788746
O O7 0.724078 0.000000 0.837358
O O8 0.500000 0.599625 0.174672
O O9 0.436063 0.500000 0.107890
O O10 0.436248 0.647009 0.063394
O O11 0.167671 0.241286 0.932270
O O12 0.125311 0.135684 0.843636
O O13 0.071108 0.230634 0.935563
O O14 0.087601 0.201435 0.581334
O O15 0.180222 0.161398 0.554309
O O16 0.140229 0.118232 0.687699
O O17 0.000000 0.764329 0.535953
O O18 0.750000 0.750000 0.004852
O O19 0.851258 0.000000 0.786901
#
# Coordination Sequence:
#
# PCOD8185884 Si02
#       8
#    16  16  16  16  16  16  16  16
#     4   9  18  31  50  72  99 125 168 207 242 295
#     4  10  20  32  48  70 100 137 165 202 249 290
#     4   9  17  30  48  71 100 128 154 197 253 298
#     4   9  18  32  50  74  93 130 165 199 251 287
#     4   9  20  32  52  75  94 132 169 202 253 289
#     4   9  18  34  53  74  97 123 164 208 244 295
#     4  10  18  31  50  68  96 129 166 204 238 290
#     4  10  20  34  49  71 106 135 165 204 247 298
#
# _framework density 16.951982000000001
#
# number of rings (size 3 to 8) (size 9 to 14) (size 15 to 20)
#    0.000    2.625    1.250    0.375    1.750    1.500 
#    0.000    1.875    0.000    1.125    0.000    0.000 
#    0.000    0.000    0.000    0.000    0.000    0.000 
#
# Total GULP energy -396744.871600 kJ/mol
# GULP energy per Si atom -12398.277238 kJ/mol
# Density = 1.691340 g / cm^3
# Si number density = 16.951982 Si / 1000 Ang^3
#
#
#
# Elastic Constant Matrix: (Units=GPa)
#
#
# Indices 1 2 3 4 5 6 
#
# 1 85.6078 29.3336 44.6920 0.0000 0.0000 0.0000
# 2 29.3336 61.0850 29.1170 0.0000 0.0000 0.0000
# 3 44.6920 29.1170 102.7465 0.0000 0.0000 0.0000
# 4 0.0000 0.0000 0.0000 14.9796 0.0000 0.0000
# 5 0.0000 0.0000 0.0000 0.0000 22.5260 0.0000
# 6 0.0000 0.0000 0.0000 0.0000 0.0000 20.2998
#
#
#
# Elastic Compliance Matrix: (Units=1/GPa)
#
#
# Indices 1 2 3 4 5 6 
#
# 1 0.016418 -0.005180 -0.005673 0.000000 0.000000 0.000000
# 2 -0.005180 0.020561 -0.003574 0.000000 0.000000 0.000000
# 3 -0.005673 -0.003574 0.013213 0.000000 0.000000 0.000000
# 4 0.000000 0.000000 0.000000 0.066758 0.000000 0.000000
# 5 0.000000 0.000000 0.000000 0.000000 0.044393 0.000000
# 6 0.000000 0.000000 0.000000 0.000000 0.000000 0.049262
#
#
# Mechanical properties :
#
#
# Convention : Reuss Voigt Hill
#
# Bulk Modulus (GPa) = 46.86334 50.63606 48.74970
# Shear Modulus (GPa) = 20.27805 21.31417 20.79611
#
# Velocity S-wave (km/s) = 3.46237 3.54973 3.50632
# Velocity P-wave (km/s) = 6.60975 6.83636 6.72401
#
# Compressibility (1/GPa) = 0.02133864
#
# Stress axis : x y z
#
# Youngs Moduli (GPa) = 60.90922 48.63465 75.68141
#
# Poissons Ratio (x) = 0.25191 0.42938
# Poissons Ratio (y) = 0.31549 0.27047
# Poissons Ratio (z) = 0.34557 0.17381
#
# Static dielectric constant tensor:
#      x y z
#    x 3.195940 0.000000 0.000000 
#    y 0.000000 3.047290 0.000000 
#    z 0.000000 0.000000 3.354110 
# 
# 
# High freq. dielectric constant tensor:
#      x y z
#    x 1.650670 0.000000 0.000000 
#    y 0.000000 1.642820 0.000000 
#    z 0.000000 0.000000 1.656210 
# 
# From -- ./inp_files/22335.got.cif
#   From: 2010.03.12/outbox.cif.g09.slc.cpg/sg42_12_cif.got.tgz:22335.got - 2010.04.14 02:04:31.
