data_PCOD8185153
_publ_section_title
;
Structure prediction by ZEFSAII (Michael W. Deem and Ramdas Pophale) SiO2 
 PCOD8185153
Probable space group: A B A 2
;
_chemical_formula_sum "Si O2"
_cell_formula_units_Z 64
_cell_length_a 12.476611
_cell_length_b 8.640778
_cell_length_c 28.757076
_cell_angle_alpha 90.000000
_cell_angle_beta 90.000000
_cell_angle_gamma 90.000000
_cell_volume 3100.232090
_symmetry_space_group_name_H-M "A B A 2"
_symmetry_group_IT_number 41
_symmetry_cell_setting 'orthorhombic'
loop_
_space_group_symop_operation_xyz
x,y,z
-x,-y,z
1/2-x,y,1/2+z
1/2+x,-y,1/2+z
x,1/2+y,1/2+z
-x,1/2-y,1/2+z
1/2-x,1/2+y,z
1/2+x,1/2-y,z
loop_
_atom_site_type_symbol
_atom_site_label
_atom_site_fract_x
_atom_site_fract_y
_atom_site_fract_z
Si Si1 0.121127 0.026323 0.727600
Si Si2 0.627408 0.974654 0.619450
Si Si3 0.620094 0.947471 0.337208
Si Si4 0.351816 0.295588 0.968775
Si Si5 0.791135 0.662334 0.887419
Si Si6 0.750295 0.224850 0.675077
Si Si7 0.803027 0.387353 0.516989
Si Si8 0.560564 0.145129 0.967598
O O1 0.192412 0.881269 0.712879
O O2 0.130615 0.045276 0.782305
O O3 0.160637 0.179786 0.702153
O O4 0.000000 0.000000 0.711496
O O5 0.658195 0.832337 0.652580
O O6 0.669884 0.938322 0.568423
O O7 0.500000 0.000000 0.619716
O O8 0.688902 0.128637 0.635442
O O9 0.643022 0.772687 0.352781
O O10 0.500000 0.000000 0.352858
O O11 0.716039 0.048036 0.358620
O O12 0.284267 0.244457 0.923315
O O13 0.475920 0.280889 0.956091
O O14 0.331923 0.474206 0.982082
O O15 0.320368 0.168213 0.009162
O O16 0.880688 0.582727 0.920764
O O17 0.860645 0.223650 0.504765
O O18 0.500000 0.000000 0.990573
#
# Coordination Sequence:
#
# PCOD8185153 Si02
#       8
#     8   8   8   8   8   8   8   8
#     4  10  21  40  62  88 119 156 196 244 310 372
#     4  11  22  39  62  91 122 157 203 253 303 360
#     4  11  23  39  62  88 120 156 199 253 304 361
#     4  11  21  37  56  80 117 159 199 243 298 351
#     4  11  22  37  57  85 116 154 202 245 292 352
#     4  10  22  39  63  89 120 156 196 249 308 371
#     4  11  23  38  59  86 119 159 205 251 296 356
#     4  11  22  37  57  81 117 159 200 246 296 351
#
# _framework density 20.643615
#
# number of rings (size 3 to 8) (size 9 to 14) (size 15 to 20)
#    0.000    1.250    0.000    7.875    0.000    0.000 
#    0.000    1.875    0.000    7.500    0.000    0.000 
#    0.000    0.000    0.000    0.000    0.000    0.000 
#
# Total GULP energy -396626.676814 kJ/mol
# GULP energy per Si atom -12394.583650 kJ/mol
# Density = 2.059663 g / cm^3
# Si number density = 20.643615 Si / 1000 Ang^3
#
#
#
# Elastic Constant Matrix: (Units=GPa)
#
#
# Indices 1 2 3 4 5 6 
#
# 1 107.3901 30.4996 43.8644 0.0000 0.0000 0.0000
# 2 30.4996 94.5074 36.9366 0.0000 0.0000 0.0000
# 3 43.8644 36.9366 105.3298 0.0000 0.0000 0.0000
# 4 0.0000 0.0000 0.0000 29.8829 0.0000 0.0000
# 5 0.0000 0.0000 0.0000 0.0000 26.0001 0.0000
# 6 0.0000 0.0000 0.0000 0.0000 0.0000 37.9770
#
#
#
# Elastic Compliance Matrix: (Units=1/GPa)
#
#
# Indices 1 2 3 4 5 6 
#
# 1 0.011585 -0.002147 -0.004071 0.000000 0.000000 0.000000
# 2 -0.002147 0.012660 -0.003545 0.000000 0.000000 0.000000
# 3 -0.004071 -0.003545 0.012433 0.000000 0.000000 0.000000
# 4 0.000000 0.000000 0.000000 0.033464 0.000000 0.000000
# 5 0.000000 0.000000 0.000000 0.000000 0.038461 0.000000
# 6 0.000000 0.000000 0.000000 0.000000 0.000000 0.026332
#
#
# Mechanical properties :
#
#
# Convention : Reuss Voigt Hill
#
# Bulk Modulus (GPa) = 58.31163 58.86984 58.59073
# Shear Modulus (GPa) = 31.21514 31.83378 31.52446
#
# Velocity S-wave (km/s) = 3.89279 3.93117 3.91203
# Velocity P-wave (km/s) = 6.96514 7.01317 6.98920
#
# Compressibility (1/GPa) = 0.01714924
#
# Stress axis : x y z
#
# Youngs Moduli (GPa) = 86.32061 78.99032 80.43290
#
# Poissons Ratio (x) = 0.16962 0.32747
# Poissons Ratio (y) = 0.18537 0.28515
# Poissons Ratio (z) = 0.35144 0.28004
#
# Static dielectric constant tensor:
#      x y z
#    x 4.168890 0.000000 0.000000 
#    y 0.000000 3.769080 0.000000 
#    z 0.000000 0.000000 3.682020 
# 
# 
# High freq. dielectric constant tensor:
#      x y z
#    x 1.827950 0.000000 0.000000 
#    y 0.000000 1.818420 0.000000 
#    z 0.000000 0.000000 1.796620 
# 
# From -- ./inp_files/12710.got.cif
#   From: 2010.03.12/outbox.cif.g09.slc.cpg/sg41_7_cif.got.tgz:12710.got - 2010.04.14 01:55:53.
