data_PCOD8185986
_publ_section_title
;
Structure prediction by ZEFSAII (Michael W. Deem and Ramdas Pophale) SiO2 
 PCOD8185986
Probable space group: F M M 2
;
_chemical_formula_sum "Si O2"
_cell_formula_units_Z 104
_cell_length_a 13.658437
_cell_length_b 31.490972
_cell_length_c 12.634854
_cell_angle_alpha 90.000000
_cell_angle_beta 90.000000
_cell_angle_gamma 90.000000
_cell_volume 5434.471274
_symmetry_space_group_name_H-M "F M M 2"
_symmetry_group_IT_number 42
_symmetry_cell_setting 'orthorhombic'
loop_
_space_group_symop_operation_xyz
x,y,z
-x,-y,z
-x,y,z
x,-y,z
x,1/2+y,1/2+z
-x,1/2-y,1/2+z
-x,1/2+y,1/2+z
x,1/2-y,1/2+z
1/2+x,y,1/2+z
1/2-x,-y,1/2+z
1/2-x,y,1/2+z
1/2+x,-y,1/2+z
1/2+x,1/2+y,z
1/2-x,1/2-y,z
1/2-x,1/2+y,z
1/2+x,1/2-y,z
loop_
_atom_site_type_symbol
_atom_site_label
_atom_site_fract_x
_atom_site_fract_y
_atom_site_fract_z
Si Si1 0.888709 0.130692 0.725490
Si Si2 0.886378 0.189034 0.529376
Si Si3 0.750000 0.250000 0.658032
Si Si4 0.705718 0.174111 0.800489
Si Si5 0.107731 0.046875 0.451112
Si Si6 0.110283 0.092176 0.238852
Si Si7 0.709677 0.951828 0.163178
O O1 0.878326 0.147745 0.604843
O O2 0.819278 0.158323 0.803198
O O3 0.856469 0.081237 0.729805
O O4 0.000000 0.135175 0.766316
O O5 0.832113 0.228530 0.584407
O O6 0.834527 0.178966 0.418540
O O7 0.000000 0.201005 0.509940
O O8 0.694939 0.217457 0.735693
O O9 0.643641 0.140797 0.730047
O O10 0.123537 0.081773 0.362394
O O11 0.188578 0.052681 0.539700
O O12 0.000000 0.052512 0.503375
O O13 0.116438 0.000000 0.399186
O O14 0.176384 0.060230 0.171271
O O15 0.000000 0.086309 0.198494
O O16 0.689618 0.000000 0.203366
#
# Coordination Sequence:
#
# PCOD8185986 Si02
#       7
#    16  16   8  16  16  16  16
#     4   9  19  35  54  78 107 140 180 221 262 312
#     4  10  20  36  58  79 105 143 178 213 261 314
#     4  10  22  38  54  82 112 132 166 218 266 320
#     4  10  20  35  57  80 106 136 174 219 266 316
#     4   9  17  30  50  76 104 137 180 222 255 295
#     4  10  20  34  54  78 104 138 179 218 258 310
#     4  10  19  30  50  79 109 140 176 222 267 304
#
# _framework density 19.137097000000001
#
# number of rings (size 3 to 8) (size 9 to 14) (size 15 to 20)
#    0.000    2.308    0.000    2.769    0.000    5.538 
#    0.000    3.846    0.000   20.308    0.000    8.615 
#    0.000    0.000    0.000    0.000    0.000    0.000 
#
# Total GULP energy -322346.127164 kJ/mol
# GULP energy per Si atom -12397.927968 kJ/mol
# Density = 1.909354 g / cm^3
# Si number density = 19.137097 Si / 1000 Ang^3
#
#
#
# Elastic Constant Matrix: (Units=GPa)
#
#
# Indices 1 2 3 4 5 6 
#
# 1 163.9874 52.7479 57.2028 0.0000 0.0000 0.0000
# 2 52.7479 121.9153 30.0868 0.0000 0.0000 0.0000
# 3 57.2028 30.0868 65.0272 0.0000 0.0000 0.0000
# 4 0.0000 0.0000 0.0000 22.0627 0.0000 0.0000
# 5 0.0000 0.0000 0.0000 0.0000 35.4966 0.0000
# 6 0.0000 0.0000 0.0000 0.0000 0.0000 22.7994
#
#
#
# Elastic Compliance Matrix: (Units=1/GPa)
#
#
# Indices 1 2 3 4 5 6 
#
# 1 0.009322 -0.002269 -0.007151 0.000000 0.000000 0.000000
# 2 -0.002269 0.009812 -0.002544 0.000000 0.000000 0.000000
# 3 -0.007151 -0.002544 0.022846 0.000000 0.000000 0.000000
# 4 0.000000 0.000000 0.000000 0.045325 0.000000 0.000000
# 5 0.000000 0.000000 0.000000 0.000000 0.028172 0.000000
# 6 0.000000 0.000000 0.000000 0.000000 0.000000 0.043861
#
#
# Mechanical properties :
#
#
# Convention : Reuss Voigt Hill
#
# Bulk Modulus (GPa) = 55.39371 70.11167 62.75269
# Shear Modulus (GPa) = 26.41564 30.13125 28.27344
#
# Velocity S-wave (km/s) = 3.71932 3.97229 3.84789
# Velocity P-wave (km/s) = 6.88861 7.59966 7.25286
#
# Compressibility (1/GPa) = 0.01805259
#
# Stress axis : x y z
#
# Youngs Moduli (GPa) = 107.27172 101.91819 43.77199
#
# Poissons Ratio (x) = 0.23121 0.31300
# Poissons Ratio (y) = 0.24336 0.11136
# Poissons Ratio (z) = 0.76708 0.25929
#
# Static dielectric constant tensor:
#      x y z
#    x 3.663990 0.000000 0.000000 
#    y 0.000000 3.717010 0.000000 
#    z 0.000000 0.000000 3.190390 
# 
# 
# High freq. dielectric constant tensor:
#      x y z
#    x 1.747560 0.000000 0.000000 
#    y 0.000000 1.760210 0.000000 
#    z 0.000000 0.000000 1.714190 
# 
# From -- ./inp_files/8125.got.cif
#   From: 2010.03.12/outbox.cif.g09.slc.cpg/sg42_5_cif.got.tgz:8125.got - 2010.04.14 02:04:31.
