data_PCOD8185809
_publ_section_title
;
Structure prediction by ZEFSAII (Michael W. Deem and Ramdas Pophale) SiO2 
 PCOD8185809
Probable space group: F M M 2
;
_chemical_formula_sum "Si O2"
_cell_formula_units_Z 104
_cell_length_a 25.659063
_cell_length_b 8.889607
_cell_length_c 25.316348
_cell_angle_alpha 90.000000
_cell_angle_beta 90.000000
_cell_angle_gamma 90.000000
_cell_volume 5774.633309
_symmetry_space_group_name_H-M "F M M 2"
_symmetry_group_IT_number 42
_symmetry_cell_setting 'orthorhombic'
loop_
_space_group_symop_operation_xyz
x,y,z
-x,-y,z
-x,y,z
x,-y,z
x,1/2+y,1/2+z
-x,1/2-y,1/2+z
-x,1/2+y,1/2+z
x,1/2-y,1/2+z
1/2+x,y,1/2+z
1/2-x,-y,1/2+z
1/2-x,y,1/2+z
1/2+x,-y,1/2+z
1/2+x,1/2+y,z
1/2-x,1/2-y,z
1/2-x,1/2+y,z
1/2+x,1/2-y,z
loop_
_atom_site_type_symbol
_atom_site_label
_atom_site_fract_x
_atom_site_fract_y
_atom_site_fract_z
Si Si1 0.607051 0.319839 0.409590
Si Si2 0.000000 0.167881 0.681140
Si Si3 0.695797 0.177591 0.108468
Si Si4 0.000000 0.743854 0.795116
Si Si5 0.387864 0.837878 0.795117
Si Si6 0.500000 0.333042 0.909413
Si Si7 0.108154 0.680866 0.680093
Si Si8 0.302969 0.324585 0.486619
O O1 0.602410 0.500000 0.407026
O O2 0.625174 0.255983 0.351145
O O3 0.551599 0.254938 0.428416
O O4 0.649341 0.263117 0.451691
O O5 0.948419 0.257526 0.662641
O O6 0.000000 0.148858 0.744218
O O7 0.000000 0.000000 0.656191
O O8 0.750000 0.250000 0.127592
O O9 0.649541 0.256295 0.139402
O O10 0.696714 0.000000 0.119437
O O11 0.685976 0.216075 0.047285
O O12 0.950141 0.635763 0.794952
O O13 0.000000 0.850064 0.846258
O O14 0.374492 0.757421 0.739057
O O15 0.359867 0.000000 0.795298
O O16 0.500000 0.500000 0.934289
O O17 0.106664 0.500000 0.679855
O O18 0.296190 0.500000 0.478334
O O19 0.250000 0.250000 0.466193
#
# Coordination Sequence:
#
# PCOD8185809 Si02
#       8
#    16   8  16   8  16   8  16  16
#     4   9  17  32  51  72  99 132 164 196 238 291
#     4  10  18  29  47  72 102 136 168 203 244 289
#     4  10  20  36  56  76  95 123 164 209 251 294
#     4   8  14  24  40  64  97 132 167 200 233 276
#     4   8  14  25  45  70  98 130 163 195 234 285
#     4  10  18  27  43  72 104 132 162 199 238 281
#     4  10  19  32  50  75 104 134 166 202 243 292
#     4   9  19  35  56  76  94 121 162 206 247 289
#
# _framework density 18.009801
#
# number of rings (size 3 to 8) (size 9 to 14) (size 15 to 20)
#    0.000    2.769    0.000    1.846    0.000    4.923 
#    0.000    2.308    0.000    3.692    0.000    0.000 
#    0.000    0.000    0.000    0.000    0.000    0.000 
#
# Total GULP energy -322106.787771 kJ/mol
# GULP energy per Si atom -12388.722607 kJ/mol
# Density = 1.796881 g / cm^3
# Si number density = 18.009801 Si / 1000 Ang^3
#
#
#
# Elastic Constant Matrix: (Units=GPa)
#
#
# Indices 1 2 3 4 5 6 
#
# 1 145.3433 46.4233 75.3693 0.0000 0.0001 -0.0001
# 2 46.4233 71.7501 31.1419 0.0000 0.0002 -0.0002
# 3 75.3693 31.1419 83.9968 0.0000 0.0000 0.0000
# 4 0.0000 0.0000 0.0000 15.5847 0.0000 0.0000
# 5 0.0001 0.0002 0.0000 0.0000 69.2073 -0.0001
# 6 -0.0001 -0.0002 0.0000 0.0000 -0.0001 29.6790
#
#
#
# Elastic Compliance Matrix: (Units=1/GPa)
#
#
# Indices 1 2 3 4 5 6 
#
# 1 0.013881 -0.004261 -0.010875 0.000000 0.000000 0.000000
# 2 -0.004261 0.017918 -0.002820 0.000000 0.000000 0.000000
# 3 -0.010875 -0.002820 0.022709 0.000000 0.000000 0.000000
# 4 0.000000 0.000000 0.000000 0.064166 0.000000 0.000000
# 5 0.000000 0.000000 0.000000 0.000000 0.014449 0.000000
# 6 0.000000 0.000000 0.000000 0.000000 0.000000 0.033694
#
#
# Mechanical properties :
#
#
# Convention : Reuss Voigt Hill
#
# Bulk Modulus (GPa) = 53.77613 67.43991 60.60802
# Shear Modulus (GPa) = 23.93182 32.77124 28.35153
#
# Velocity S-wave (km/s) = 3.64926 4.27034 3.97196
# Velocity P-wave (km/s) = 6.90509 7.86397 7.40008
#
# Compressibility (1/GPa) = 0.01859561
#
# Stress axis : x y z
#
# Youngs Moduli (GPa) = 72.04275 55.80984 44.03546
#
# Poissons Ratio (x) = 0.23779 0.47890
# Poissons Ratio (y) = 0.30696 0.12418
# Poissons Ratio (z) = 0.78348 0.15738
#
# Static dielectric constant tensor:
#      x y z
#    x 3.110420 0.000000 0.000000 
#    y 0.000000 3.113160 0.000000 
#    z 0.000000 0.000000 3.445940 
# 
# 
# High freq. dielectric constant tensor:
#      x y z
#    x 1.684000 0.000000 0.000000 
#    y 0.000000 1.684600 0.000000 
#    z 0.000000 0.000000 1.687700 
# 
# From -- ./inp_files/30705.got.cif
#   From: 2010.03.12/outbox.cif.g09.slc.cpg/sg42_16_cif.got.tgz:30705.got - 2010.04.14 02:04:31.
