data_PCOD8185882
_publ_section_title
;
Structure prediction by ZEFSAII (Michael W. Deem and Ramdas Pophale) SiO2 
 PCOD8185882
Probable space group: F M M 2
;
_chemical_formula_sum "Si O2"
_cell_formula_units_Z 96
_cell_length_a 24.351474
_cell_length_b 24.239273
_cell_length_c 8.968679
_cell_angle_alpha 90.000000
_cell_angle_beta 90.000000
_cell_angle_gamma 90.000000
_cell_volume 5293.870639
_symmetry_space_group_name_H-M "F M M 2"
_symmetry_group_IT_number 42
_symmetry_cell_setting 'orthorhombic'
loop_
_space_group_symop_operation_xyz
x,y,z
-x,-y,z
-x,y,z
x,-y,z
x,1/2+y,1/2+z
-x,1/2-y,1/2+z
-x,1/2+y,1/2+z
x,1/2-y,1/2+z
1/2+x,y,1/2+z
1/2-x,-y,1/2+z
1/2-x,y,1/2+z
1/2+x,-y,1/2+z
1/2+x,1/2+y,z
1/2-x,1/2-y,z
1/2-x,1/2+y,z
1/2+x,1/2-y,z
loop_
_atom_site_type_symbol
_atom_site_label
_atom_site_fract_x
_atom_site_fract_y
_atom_site_fract_z
Si Si1 0.713089 0.344210 0.882580
Si Si2 0.842586 0.564309 0.555427
Si Si3 0.163192 0.860454 0.325097
Si Si4 0.127739 0.785296 0.075257
Si Si5 0.063539 0.372576 0.408252
Si Si6 0.872090 0.840647 0.634280
O O1 0.777254 0.335227 0.863633
O O2 0.686004 0.341879 0.719350
O O3 0.702378 0.404320 0.955163
O O4 0.685258 0.297449 0.988082
O O5 0.831209 0.500000 0.545899
O O6 0.835700 0.584027 0.726670
O O7 0.903088 0.578983 0.492347
O O8 0.130960 0.811974 0.239334
O O9 0.132676 0.874594 0.480091
O O10 0.113337 0.721824 0.090194
O O11 0.078366 0.814004 0.983516
O O12 0.080379 0.368563 0.233891
O O13 0.000000 0.386591 0.422773
#
# Coordination Sequence:
#
# PCOD8185882 Si02
#       6
#    16  16  16  16  16  16
#     4   9  19  31  48  74 107 141 166 193 238 301
#     4   9  20  37  53  71  96 130 170 210 258 310
#     4  10  18  31  49  76 106 132 167 205 238 285
#     4   9  19  31  48  74 107 141 166 193 238 301
#     4   9  20  37  53  71  96 130 170 210 258 310
#     4  10  18  31  49  76 106 132 167 205 238 285
#
# _framework density 18.134180000000001
#
# number of rings (size 3 to 8) (size 9 to 14) (size 15 to 20)
#    0.000    3.333    0.000    4.000    0.000    5.667 
#    0.000    6.667    0.000    0.000    0.000    0.000 
#    0.000    0.000    0.000    0.000    0.000    0.000 
#
# Total GULP energy -297495.588344 kJ/mol
# GULP energy per Si atom -12395.649514 kJ/mol
# Density = 1.809291 g / cm^3
# Si number density = 18.134180 Si / 1000 Ang^3
#
#
#
# Elastic Constant Matrix: (Units=GPa)
#
#
# Indices 1 2 3 4 5 6 
#
# 1 65.5991 -24.9554 12.3860 0.0008 -0.0007 -0.0003
# 2 -24.9554 53.9016 2.3072 0.0002 -0.0017 -0.0006
# 3 12.3860 2.3072 127.1913 -0.0021 0.0000 0.0004
# 4 0.0008 0.0002 -0.0021 15.0422 -0.0005 0.0001
# 5 -0.0007 -0.0017 0.0000 -0.0005 14.1038 0.0001
# 6 -0.0003 -0.0006 0.0004 0.0001 0.0001 7.8146
#
#
#
# Elastic Compliance Matrix: (Units=1/GPa)
#
#
# Indices 1 2 3 4 5 6 
#
# 1 0.019004 0.008885 -0.002012 -0.000001 0.000002 0.000002
# 2 0.008885 0.022720 -0.001277 -0.000001 0.000003 0.000002
# 3 -0.002012 -0.001277 0.008081 0.000001 0.000000 -0.000001
# 4 -0.000001 -0.000001 0.000001 0.066480 0.000002 -0.000001
# 5 0.000002 0.000003 0.000000 0.000002 0.070903 -0.000001
# 6 0.000002 0.000002 -0.000001 -0.000001 -0.000001 0.127965
#
#
# Mechanical properties :
#
#
# Convention : Reuss Voigt Hill
#
# Bulk Modulus (GPa) = 16.39443 25.12972 20.76208
# Shear Modulus (GPa) = 15.41811 24.52241 19.97026
#
# Velocity S-wave (km/s) = 2.91902 3.68132 3.32211
# Velocity P-wave (km/s) = 4.51898 5.65307 5.11754
#
# Compressibility (1/GPa) = 0.06099632
#
# Stress axis : x y z
#
# Youngs Moduli (GPa) = 52.62093 44.01339 123.74325
#
# Poissons Ratio (x) = -0.39104 0.24894
# Poissons Ratio (y) = -0.46751 0.15806
# Poissons Ratio (z) = 0.10586 0.05622
#
# Static dielectric constant tensor:
#      x y z
#    x 3.009930 0.000000 0.000000 
#    y 0.000000 2.978300 0.000000 
#    z 0.000000 0.000000 3.637970 
# 
# 
# High freq. dielectric constant tensor:
#      x y z
#    x 1.672190 0.000000 0.000000 
#    y 0.000000 1.671700 0.000000 
#    z 0.000000 0.000000 1.723590 
# 
# From -- ./inp_files/5319.got.cif
#   From: 2010.03.12/outbox.cif.g09.slc.cpg/sg42_3_cif.got.tgz:5319.got - 2010.04.14 02:04:31.
