data_PCOD8185239
_publ_section_title
;
Structure prediction by ZEFSAII (Michael W. Deem and Ramdas Pophale) SiO2 
 PCOD8185239
Probable space group: A B A 2
;
_chemical_formula_sum "Si O2"
_cell_formula_units_Z 60
_cell_length_a 16.773022
_cell_length_b 12.349157
_cell_length_c 13.029248
_cell_angle_alpha 90.000000
_cell_angle_beta 90.000000
_cell_angle_gamma 90.000000
_cell_volume 2698.783083
_symmetry_space_group_name_H-M "A B A 2"
_symmetry_group_IT_number 41
_symmetry_cell_setting 'orthorhombic'
loop_
_space_group_symop_operation_xyz
x,y,z
-x,-y,z
1/2-x,y,1/2+z
1/2+x,-y,1/2+z
x,1/2+y,1/2+z
-x,1/2-y,1/2+z
1/2-x,1/2+y,z
1/2+x,1/2-y,z
loop_
_atom_site_type_symbol
_atom_site_label
_atom_site_fract_x
_atom_site_fract_y
_atom_site_fract_z
Si Si1 0.929977 0.415456 0.031260
Si Si2 0.653855 0.213346 0.947803
Si Si3 0.000000 0.500000 0.486691
Si Si4 0.167725 0.048364 0.926990
Si Si5 0.486141 0.719281 0.100707
Si Si6 0.437578 0.095006 0.792084
Si Si7 0.701384 0.551089 0.289032
Si Si8 0.769264 0.548391 0.079196
O O1 0.848263 0.473816 0.065389
O O2 0.000000 0.500000 0.052382
O O3 0.942617 0.307937 0.101822
O O4 0.932064 0.374705 0.912687
O O5 0.683002 0.326397 0.901986
O O6 0.641065 0.135643 0.847331
O O7 0.577760 0.228539 0.021494
O O8 0.722864 0.158384 0.014535
O O9 0.924652 0.482570 0.411999
O O10 0.015241 0.395987 0.558178
O O11 0.224809 0.975895 0.860454
O O12 0.193321 0.023621 0.044381
O O13 0.455970 0.698884 0.218131
O O14 0.500000 0.000000 0.771800
O O15 0.350126 0.053357 0.759405
O O16 0.747993 0.594572 0.190460
#
# Coordination Sequence:
#
# PCOD8185239 Si02
#       8
#     8   8   4   8   8   8   8   8
#     4  11  22  46  69  99 138 180 234 293 348 424
#     4  10  21  43  68  96 136 179 227 290 339 419
#     4  10  22  44  64 100 144 174 232 292 346 412
#     4  10  23  44  65  98 138 181 231 294 349 414
#     4  11  22  42  73 103 136 181 234 291 347 425
#     4  11  22  44  73 100 132 187 234 283 354 429
#     4  11  23  44  70  99 140 184 230 283 357 431
#     4  11  23  44  67  99 139 176 236 296 348 422
#
# _framework density 22.232243
#
# number of rings (size 3 to 8) (size 9 to 14) (size 15 to 20)
#    0.000    1.333    4.667    2.400    0.000    4.267 
#   10.800    0.000    0.000    0.000    0.000    0.000 
#    0.000    0.000    0.000    0.000    0.000    0.000 
#
# Total GULP energy -371721.364607 kJ/mol
# GULP energy per Si atom -12390.712154 kJ/mol
# Density = 2.218164 g / cm^3
# Si number density = 22.232243 Si / 1000 Ang^3
#
#
#
# Elastic Constant Matrix: (Units=GPa)
#
#
# Indices 1 2 3 4 5 6 
#
# 1 110.7929 38.8070 37.1020 0.0000 0.0000 0.0000
# 2 38.8070 117.4668 43.7984 0.0000 0.0000 0.0000
# 3 37.1020 43.7984 122.5551 0.0000 0.0000 0.0000
# 4 0.0000 0.0000 0.0000 26.2797 0.0000 0.0000
# 5 0.0000 0.0000 0.0000 0.0000 26.4463 0.0000
# 6 0.0000 0.0000 0.0000 0.0000 0.0000 26.7481
#
#
#
# Elastic Compliance Matrix: (Units=1/GPa)
#
#
# Indices 1 2 3 4 5 6 
#
# 1 0.010735 -0.002694 -0.002287 0.000000 0.000000 0.000000
# 2 -0.002694 0.010498 -0.002936 0.000000 0.000000 0.000000
# 3 -0.002287 -0.002936 0.009901 0.000000 0.000000 0.000000
# 4 0.000000 0.000000 0.000000 0.038052 0.000000 0.000000
# 5 0.000000 0.000000 0.000000 0.000000 0.037813 0.000000
# 6 0.000000 0.000000 0.000000 0.000000 0.000000 0.037386
#
#
# Mechanical properties :
#
#
# Convention : Reuss Voigt Hill
#
# Bulk Modulus (GPa) = 65.35936 65.58106 65.47021
# Shear Modulus (GPa) = 30.24448 31.30197 30.77323
#
# Velocity S-wave (km/s) = 3.69235 3.75634 3.72448
# Velocity P-wave (km/s) = 6.90219 6.95526 6.92878
#
# Compressibility (1/GPa) = 0.01530003
#
# Stress axis : x y z
#
# Youngs Moduli (GPa) = 93.15031 95.25862 100.99619
#
# Poissons Ratio (x) = 0.25660 0.23101
# Poissons Ratio (y) = 0.25092 0.29654
# Poissons Ratio (z) = 0.21306 0.27969
#
# Static dielectric constant tensor:
#      x y z
#    x 4.037440 0.000000 0.000000 
#    y 0.000000 4.371960 0.000000 
#    z 0.000000 0.000000 4.165260 
# 
# 
# High freq. dielectric constant tensor:
#      x y z
#    x 1.877510 0.000000 0.000000 
#    y 0.000000 1.870310 0.000000 
#    z 0.000000 0.000000 1.868810 
# 
# From -- ./inp_files/8808.got.cif
#   From: 2010.03.12/outbox.cif.g09.slc.cpg/sg41_5_cif.got.tgz:8808.got - 2010.04.14 01:55:53.
