data_PCOD8185725
_publ_section_title
;
Structure prediction by ZEFSAII (Michael W. Deem and Ramdas Pophale) SiO2 
 PCOD8185725
Probable space group: A B A 2
;
_chemical_formula_sum "Si O2"
_cell_formula_units_Z 20
_cell_length_a 9.111120
_cell_length_b 13.312386
_cell_length_c 6.746806
_cell_angle_alpha 90.000000
_cell_angle_beta 90.000000
_cell_angle_gamma 90.000000
_cell_volume 818.325135
_symmetry_space_group_name_H-M "A B A 2"
_symmetry_group_IT_number 41
_symmetry_cell_setting 'orthorhombic'
loop_
_space_group_symop_operation_xyz
x,y,z
-x,-y,z
1/2-x,y,1/2+z
1/2+x,-y,1/2+z
x,1/2+y,1/2+z
-x,1/2-y,1/2+z
1/2-x,1/2+y,z
1/2+x,1/2-y,z
loop_
_atom_site_type_symbol
_atom_site_label
_atom_site_fract_x
_atom_site_fract_y
_atom_site_fract_z
Si Si1 0.962851 0.837497 0.445690
Si Si2 0.635331 0.857697 0.518360
Si Si3 0.500000 0.000000 0.233075
O O1 0.803460 0.825066 0.550942
O O2 0.937909 0.883881 0.228642
O O3 0.043268 0.731974 0.417084
O O4 0.059677 0.911965 0.585710
O O5 0.627166 0.955647 0.375459
#
# Coordination Sequence:
#
# PCOD8185725 Si02
#       3
#     8   8   4
#     4  12  25  50  74 107 148 190 245 302 364 432
#     4  12  25  50  74 107 148 190 245 302 364 432
#     4  12  26  44  76 106 144 192 238 304 356 442
#
# _framework density 24.440162000000001
#
# number of rings (size 3 to 8) (size 9 to 14) (size 15 to 20)
#    0.000    0.000    8.000    1.200    0.000    3.200 
#   14.400    0.000    0.000    0.000    0.000    0.000 
#    0.000    0.000    0.000    0.000    0.000    0.000 
#
# Total GULP energy -123963.614568 kJ/mol
# GULP energy per Si atom -12396.361457 kJ/mol
# Density = 2.438454 g / cm^3
# Si number density = 24.440162 Si / 1000 Ang^3
#
#
#
# Elastic Constant Matrix: (Units=GPa)
#
#
# Indices 1 2 3 4 5 6 
#
# 1 94.9356 61.9360 31.4470 0.0000 0.0000 0.0000
# 2 61.9360 120.8167 65.7567 0.0000 0.0000 0.0000
# 3 31.4470 65.7567 166.8527 0.0000 0.0000 0.0000
# 4 0.0000 0.0000 0.0000 61.9287 0.0000 0.0000
# 5 0.0000 0.0000 0.0000 0.0000 38.3026 0.0000
# 6 0.0000 0.0000 0.0000 0.0000 0.0000 27.3495
#
#
#
# Elastic Compliance Matrix: (Units=1/GPa)
#
#
# Indices 1 2 3 4 5 6 
#
# 1 0.015836 -0.008267 0.000273 0.000000 0.000000 0.000000
# 2 -0.008267 0.014853 -0.004295 0.000000 0.000000 0.000000
# 3 0.000273 -0.004295 0.007635 0.000000 0.000000 0.000000
# 4 0.000000 0.000000 0.000000 0.016148 0.000000 0.000000
# 5 0.000000 0.000000 0.000000 0.000000 0.026108 0.000000
# 6 0.000000 0.000000 0.000000 0.000000 0.000000 0.036564
#
#
# Mechanical properties :
#
#
# Convention : Reuss Voigt Hill
#
# Bulk Modulus (GPa) = 72.75106 77.87604 75.31355
# Shear Modulus (GPa) = 34.17546 40.41385 37.29465
#
# Velocity S-wave (km/s) = 3.74348 4.07084 3.91059
# Velocity P-wave (km/s) = 6.96538 7.35043 7.16049
#
# Compressibility (1/GPa) = 0.01374550
#
# Stress axis : x y z
#
# Youngs Moduli (GPa) = 63.14546 67.32630 130.98246
#
# Poissons Ratio (x) = 0.55660 -0.03581
# Poissons Ratio (y) = 0.52204 0.56263
# Poissons Ratio (z) = -0.01726 0.28920
#
# Static dielectric constant tensor:
#      x y z
#    x 4.078620 0.000000 0.000000 
#    y 0.000000 4.308890 0.000000 
#    z 0.000000 0.000000 4.803730 
# 
# 
# High freq. dielectric constant tensor:
#      x y z
#    x 1.930280 0.000000 0.000000 
#    y 0.000000 1.958690 0.000000 
#    z 0.000000 0.000000 2.019410 
# 
# From -- ./inp_files/36.got.cif
#   From: 2010.03.12/outbox.cif.g09.slc.cpg/sg41_1_cif.got.tgz:36.got - 2010.04.14 01:55:53.
