data_PCOD8185354
_publ_section_title
;
Structure prediction by ZEFSAII (Michael W. Deem and Ramdas Pophale) SiO2 
 PCOD8185354
Probable space group: A B A 2
;
_chemical_formula_sum "Si O2"
_cell_formula_units_Z 28
_cell_length_a 19.648092
_cell_length_b 5.105563
_cell_length_c 14.253528
_cell_angle_alpha 90.000000
_cell_angle_beta 90.000000
_cell_angle_gamma 90.000000
_cell_volume 1429.836554
_symmetry_space_group_name_H-M "A B A 2"
_symmetry_group_IT_number 41
_symmetry_cell_setting 'orthorhombic'
loop_
_space_group_symop_operation_xyz
x,y,z
-x,-y,z
1/2-x,y,1/2+z
1/2+x,-y,1/2+z
x,1/2+y,1/2+z
-x,1/2-y,1/2+z
1/2-x,1/2+y,z
1/2+x,1/2-y,z
loop_
_atom_site_type_symbol
_atom_site_label
_atom_site_fract_x
_atom_site_fract_y
_atom_site_fract_z
Si Si1 0.705554 0.721472 0.143900
Si Si2 0.130131 0.241659 0.836969
Si Si3 0.869295 0.237707 0.951145
Si Si4 0.500000 0.000000 0.395535
O O1 0.732487 0.425418 0.144395
O O2 0.657982 0.762263 0.232823
O O3 0.659798 0.777095 0.053769
O O4 0.146525 0.511360 0.888184
O O5 0.165878 0.009773 0.898062
O O6 0.048566 0.184981 0.831432
O O7 0.950911 0.183301 0.959643
#
# Coordination Sequence:
#
# PCOD8185354 Si02
#       4
#     8   8   8   4
#     4  12  26  42  64  98 126 168 214 246 320 378
#     4  10  22  43  64  93 125 165 205 267 308 369
#     4  10  22  43  64  93 125 165 205 267 308 369
#     4   8  22  44  62  92 124 164 214 254 330 348
#
# _framework density 19.582656
#
# number of rings (size 3 to 8) (size 9 to 14) (size 15 to 20)
#    1.714    0.000    0.000    4.286    0.000    6.857 
#   10.286    0.000    0.000    0.000    0.000    0.000 
#    0.000    0.000    0.000    0.000    0.000    0.000 
#
# Total GULP energy -173505.975202 kJ/mol
# GULP energy per Si atom -12393.283943 kJ/mol
# Density = 1.953808 g / cm^3
# Si number density = 19.582656 Si / 1000 Ang^3
#
#
#
# Elastic Constant Matrix: (Units=GPa)
#
#
# Indices 1 2 3 4 5 6 
#
# 1 83.4423 15.7258 59.8776 0.0000 0.0000 0.0000
# 2 15.7258 120.1791 34.8717 0.0000 0.0000 0.0000
# 3 59.8776 34.8717 156.7953 0.0000 0.0000 0.0000
# 4 0.0000 0.0000 0.0000 25.3043 0.0000 0.0000
# 5 0.0000 0.0000 0.0000 0.0000 38.4801 0.0000
# 6 0.0000 0.0000 0.0000 0.0000 0.0000 9.9612
#
#
#
# Elastic Compliance Matrix: (Units=1/GPa)
#
#
# Indices 1 2 3 4 5 6 
#
# 1 0.016522 -0.000354 -0.006231 0.000000 0.000000 0.000000
# 2 -0.000354 0.008903 -0.001845 0.000000 0.000000 0.000000
# 3 -0.006231 -0.001845 0.009167 0.000000 0.000000 0.000000
# 4 0.000000 0.000000 0.000000 0.039519 0.000000 0.000000
# 5 0.000000 0.000000 0.000000 0.000000 0.025987 0.000000
# 6 0.000000 0.000000 0.000000 0.000000 0.000000 0.100390
#
#
# Mechanical properties :
#
#
# Convention : Reuss Voigt Hill
#
# Bulk Modulus (GPa) = 56.39197 64.59634 60.49415
# Shear Modulus (GPa) = 22.39553 31.41189 26.90371
#
# Velocity S-wave (km/s) = 3.38544 4.00943 3.71057
# Velocity P-wave (km/s) = 6.64387 7.38188 7.02258
#
# Compressibility (1/GPa) = 0.01773302
#
# Stress axis : x y z
#
# Youngs Moduli (GPa) = 60.52439 112.32771 109.08123
#
# Poissons Ratio (x) = 0.03977 0.67967
# Poissons Ratio (y) = 0.02143 0.20123
# Poissons Ratio (z) = 0.37712 0.20722
#
# Static dielectric constant tensor:
#      x y z
#    x 3.457230 0.000000 0.000000 
#    y 0.000000 3.772500 0.000000 
#    z 0.000000 0.000000 3.417720 
# 
# 
# High freq. dielectric constant tensor:
#      x y z
#    x 1.757670 0.000000 0.000000 
#    y 0.000000 1.781350 0.000000 
#    z 0.000000 0.000000 1.751440 
# 
# From -- ./inp_files/377.got.cif
#   From: 2010.03.12/outbox.cif.g09.slc.cpg/sg41_1_cif.got.tgz:377.got - 2010.04.14 01:55:53.
