data_PCOD8185647
_publ_section_title
;
Structure prediction by ZEFSAII (Michael W. Deem and Ramdas Pophale) SiO2 
 PCOD8185647
Probable space group: A B A 2
;
_chemical_formula_sum "Si O2"
_cell_formula_units_Z 64
_cell_length_a 11.587239
_cell_length_b 29.234065
_cell_length_c 8.589323
_cell_angle_alpha 90.000000
_cell_angle_beta 90.000000
_cell_angle_gamma 90.000000
_cell_volume 2909.565294
_symmetry_space_group_name_H-M "A B A 2"
_symmetry_group_IT_number 41
_symmetry_cell_setting 'orthorhombic'
loop_
_space_group_symop_operation_xyz
x,y,z
-x,-y,z
1/2-x,y,1/2+z
1/2+x,-y,1/2+z
x,1/2+y,1/2+z
-x,1/2-y,1/2+z
1/2-x,1/2+y,z
1/2+x,1/2-y,z
loop_
_atom_site_type_symbol
_atom_site_label
_atom_site_fract_x
_atom_site_fract_y
_atom_site_fract_z
Si Si1 0.172336 0.620459 0.295410
Si Si2 0.908960 0.873204 0.446894
Si Si3 0.544681 0.550182 0.272466
Si Si4 0.557353 0.209945 0.053171
Si Si5 0.002084 0.194577 0.905862
Si Si6 0.777502 0.089577 0.743303
Si Si7 0.269335 0.345050 0.988204
Si Si8 0.498863 0.553212 0.914396
O O1 0.308430 0.627778 0.317960
O O2 0.110275 0.661352 0.387323
O O3 0.126009 0.572822 0.367078
O O4 0.148253 0.617628 0.112884
O O5 0.994527 0.913945 0.396869
O O6 0.977006 0.825236 0.456384
O O7 0.500000 0.500000 0.317152
O O8 0.684439 0.550258 0.284290
O O9 0.514732 0.564131 0.096062
O O10 0.540022 0.208523 0.236283
O O11 0.690899 0.198112 0.026768
O O12 0.539440 0.261058 0.998685
O O13 0.903258 0.169258 0.007639
O O14 0.767387 0.105308 0.564006
O O15 0.904762 0.076126 0.802359
O O16 0.747612 0.140294 0.809980
O O17 0.500000 0.500000 0.879761
#
# Coordination Sequence:
#
# PCOD8185647 Si02
#       8
#     8   8   8   8   8   8   8   8
#     4  11  24  46  65  95 136 179 222 273 341 397
#     4  11  25  45  67  94 137 179 221 277 336 404
#     4  11  25  43  68 102 136 175 228 280 341 401
#     4  11  26  43  67 101 133 176 228 279 343 399
#     4  11  26  44  68 100 134 176 226 283 338 407
#     4  12  22  44  72  96 132 181 225 286 338 404
#     4  12  23  45  71  97 133 176 233 281 340 404
#     4  11  25  44  68 101 137 176 225 283 339 404
#
# _framework density 21.996410999999998
#
# number of rings (size 3 to 8) (size 9 to 14) (size 15 to 20)
#    0.000    0.750    5.000    1.500    5.250    2.500 
#    0.000    0.000    0.000    0.000    0.000    0.000 
#    0.000    0.000    0.000    0.000    0.000    0.000 
#
# Total GULP energy -396699.216825 kJ/mol
# GULP energy per Si atom -12396.850526 kJ/mol
# Density = 2.194635 g / cm^3
# Si number density = 21.996411 Si / 1000 Ang^3
#
#
#
# Elastic Constant Matrix: (Units=GPa)
#
#
# Indices 1 2 3 4 5 6 
#
# 1 92.2170 15.5829 19.8042 0.0000 0.0000 0.0000
# 2 15.5829 107.8987 34.5889 0.0000 0.0000 0.0000
# 3 19.8042 34.5889 61.6889 0.0000 0.0000 0.0000
# 4 0.0000 0.0000 0.0000 37.6350 0.0000 0.0000
# 5 0.0000 0.0000 0.0000 0.0000 35.3511 0.0000
# 6 0.0000 0.0000 0.0000 0.0000 0.0000 40.3219
#
#
#
# Elastic Compliance Matrix: (Units=1/GPa)
#
#
# Indices 1 2 3 4 5 6 
#
# 1 0.011678 -0.000591 -0.003418 0.000000 0.000000 0.000000
# 2 -0.000591 0.011329 -0.006162 0.000000 0.000000 0.000000
# 3 -0.003418 -0.006162 0.020763 0.000000 0.000000 0.000000
# 4 0.000000 0.000000 0.000000 0.026571 0.000000 0.000000
# 5 0.000000 0.000000 0.000000 0.000000 0.028288 0.000000
# 6 0.000000 0.000000 0.000000 0.000000 0.000000 0.024800
#
#
# Mechanical properties :
#
#
# Convention : Reuss Voigt Hill
#
# Bulk Modulus (GPa) = 42.68478 44.63962 43.66220
# Shear Modulus (GPa) = 32.98605 35.45019 34.21812
#
# Velocity S-wave (km/s) = 3.87668 4.01887 3.94842
# Velocity P-wave (km/s) = 6.28376 6.47095 6.37804
#
# Compressibility (1/GPa) = 0.02342755
#
# Stress axis : x y z
#
# Youngs Moduli (GPa) = 85.63255 88.27110 48.16320
#
# Poissons Ratio (x) = 0.05216 0.16460
# Poissons Ratio (y) = 0.05060 0.29680
# Poissons Ratio (z) = 0.29266 0.54395
#
# Static dielectric constant tensor:
#      x y z
#    x 4.136400 0.000000 0.000000 
#    y 0.000000 3.953200 0.000000 
#    z 0.000000 0.000000 4.049690 
# 
# 
# High freq. dielectric constant tensor:
#      x y z
#    x 1.869790 0.000000 0.000000 
#    y 0.000000 1.859930 0.000000 
#    z 0.000000 0.000000 1.880610 
# 
# From -- ./inp_files/2233.got.cif
#   From: 2010.03.12/outbox.cif.g09.slc.cpg/sg41_2_cif.got.tgz:2233.got - 2010.04.14 01:55:53.
