data_PCOD8185249
_publ_section_title
;
Structure prediction by ZEFSAII (Michael W. Deem and Ramdas Pophale) SiO2 
 PCOD8185249
Probable space group: A B A 2
;
_chemical_formula_sum "Si O2"
_cell_formula_units_Z 60
_cell_length_a 8.654803
_cell_length_b 12.923790
_cell_length_c 23.504388
_cell_angle_alpha 90.000000
_cell_angle_beta 90.000000
_cell_angle_gamma 90.000000
_cell_volume 2629.032937
_symmetry_space_group_name_H-M "A B A 2"
_symmetry_group_IT_number 41
_symmetry_cell_setting 'orthorhombic'
loop_
_space_group_symop_operation_xyz
x,y,z
-x,-y,z
1/2-x,y,1/2+z
1/2+x,-y,1/2+z
x,1/2+y,1/2+z
-x,1/2-y,1/2+z
1/2-x,1/2+y,z
1/2+x,1/2-y,z
loop_
_atom_site_type_symbol
_atom_site_label
_atom_site_fract_x
_atom_site_fract_y
_atom_site_fract_z
Si Si1 0.892769 0.404530 0.730860
Si Si2 0.993235 0.700515 0.620226
Si Si3 0.631749 0.320261 0.447349
Si Si4 0.446494 0.603267 0.693347
Si Si5 0.000000 0.000000 0.507363
Si Si6 0.122539 0.746395 0.369050
Si Si7 0.624541 0.694154 0.792034
Si Si8 0.220854 0.317516 0.045313
O O1 0.944988 0.376510 0.667305
O O2 0.708687 0.422953 0.728248
O O3 0.913532 0.313060 0.775782
O O4 0.000000 0.500000 0.751522
O O5 0.123493 0.724622 0.573540
O O6 0.925134 0.804751 0.649123
O O7 0.850633 0.644050 0.589404
O O8 0.628836 0.434740 0.473425
O O9 0.741687 0.325632 0.392922
O O10 0.456872 0.302822 0.423343
O O11 0.689890 0.229832 0.490308
O O12 0.500000 0.500000 0.659787
O O13 0.590762 0.624930 0.736859
O O14 0.896445 0.086266 0.539175
O O15 0.203953 0.819394 0.319697
O O16 0.999637 0.668620 0.341112
#
# Coordination Sequence:
#
# PCOD8185249 Si02
#       8
#     8   8   8   8   4   8   8   8
#     4  11  25  41  64 103 139 180 236 289 344 424
#     4  11  25  43  71  95 142 185 227 287 358 418
#     4  11  23  46  70 103 136 178 236 299 351 423
#     4  11  25  41  65 101 140 181 232 287 345 422
#     4  12  26  44  78  98 140 188 238 300 366 412
#     4  10  21  44  72  90 138 181 224 294 356 412
#     4  10  22  44  65  94 136 184 224 281 357 407
#     4  12  24  46  71 103 139 185 240 298 354 430
#
# _framework density 22.822081000000001
#
# number of rings (size 3 to 8) (size 9 to 14) (size 15 to 20)
#    0.000    1.067    5.333    0.000    4.667    1.067 
#    7.200    2.000    0.000    0.000    0.000    0.000 
#    0.000    0.000    0.000    0.000    0.000    0.000 
#
# Total GULP energy -371655.428501 kJ/mol
# GULP energy per Si atom -12388.514283 kJ/mol
# Density = 2.277014 g / cm^3
# Si number density = 22.822081 Si / 1000 Ang^3
#
#
#
# Elastic Constant Matrix: (Units=GPa)
#
#
# Indices 1 2 3 4 5 6 
#
# 1 114.2501 17.0368 35.0983 0.0000 0.0000 0.0000
# 2 17.0368 88.2773 21.8333 0.0000 0.0000 0.0000
# 3 35.0983 21.8333 86.2525 0.0000 0.0000 0.0000
# 4 0.0000 0.0000 0.0000 13.8126 0.0000 0.0000
# 5 0.0000 0.0000 0.0000 0.0000 45.8449 0.0000
# 6 0.0000 0.0000 0.0000 0.0000 0.0000 32.5683
#
#
#
# Elastic Compliance Matrix: (Units=1/GPa)
#
#
# Indices 1 2 3 4 5 6 
#
# 1 0.010084 -0.000993 -0.003852 0.000000 0.000000 0.000000
# 2 -0.000993 0.012182 -0.002679 0.000000 0.000000 0.000000
# 3 -0.003852 -0.002679 0.013840 0.000000 0.000000 0.000000
# 4 0.000000 0.000000 0.000000 0.072398 0.000000 0.000000
# 5 0.000000 0.000000 0.000000 0.000000 0.021813 0.000000
# 6 0.000000 0.000000 0.000000 0.000000 0.000000 0.030705
#
#
# Mechanical properties :
#
#
# Convention : Reuss Voigt Hill
#
# Bulk Modulus (GPa) = 47.49187 48.52409 48.00798
# Shear Modulus (GPa) = 27.30898 32.76593 30.03746
#
# Velocity S-wave (km/s) = 3.46295 3.79319 3.63182
# Velocity P-wave (km/s) = 6.06994 6.36337 6.21838
#
# Compressibility (1/GPa) = 0.02105624
#
# Stress axis : x y z
#
# Youngs Moduli (GPa) = 99.16454 82.08578 72.25627
#
# Poissons Ratio (x) = 0.08155 0.27834
# Poissons Ratio (y) = 0.09852 0.19361
# Poissons Ratio (z) = 0.38199 0.21995
#
# Static dielectric constant tensor:
#      x y z
#    x 4.419590 0.000000 0.000000 
#    y 0.000000 3.832020 0.000000 
#    z 0.000000 0.000000 4.192160 
# 
# 
# High freq. dielectric constant tensor:
#      x y z
#    x 1.925620 0.000000 0.000000 
#    y 0.000000 1.860540 0.000000 
#    z 0.000000 0.000000 1.910000 
# 
# From -- ./inp_files/12448.got.cif
#   From: 2010.03.12/outbox.cif.g09.slc.cpg/sg41_7_cif.got.tgz:12448.got - 2010.04.14 01:55:53.
