data_PCOD8185766
_publ_section_title
;
Structure prediction by ZEFSAII (Michael W. Deem and Ramdas Pophale) SiO2 
 PCOD8185766
Probable space group: F M M 2
;
_chemical_formula_sum "Si O2"
_cell_formula_units_Z 96
_cell_length_a 31.088068
_cell_length_b 8.720917
_cell_length_c 19.881762
_cell_angle_alpha 90.000000
_cell_angle_beta 90.000000
_cell_angle_gamma 90.000000
_cell_volume 5390.272946
_symmetry_space_group_name_H-M "F M M 2"
_symmetry_group_IT_number 42
_symmetry_cell_setting 'orthorhombic'
loop_
_space_group_symop_operation_xyz
x,y,z
-x,-y,z
-x,y,z
x,-y,z
x,1/2+y,1/2+z
-x,1/2-y,1/2+z
-x,1/2+y,1/2+z
x,1/2-y,1/2+z
1/2+x,y,1/2+z
1/2-x,-y,1/2+z
1/2-x,y,1/2+z
1/2+x,-y,1/2+z
1/2+x,1/2+y,z
1/2-x,1/2-y,z
1/2-x,1/2+y,z
1/2+x,1/2-y,z
loop_
_atom_site_type_symbol
_atom_site_label
_atom_site_fract_x
_atom_site_fract_y
_atom_site_fract_z
Si Si1 0.952350 0.682722 0.087910
Si Si2 0.049926 0.322686 0.239210
Si Si3 0.615301 0.821860 0.983688
Si Si4 0.209316 0.821604 0.476899
Si Si5 0.119364 0.819521 0.332357
Si Si6 0.706907 0.180255 0.330639
O O1 0.951391 0.500000 0.086750
O O2 0.940755 0.735367 0.163409
O O3 0.000000 0.741288 0.068114
O O4 0.918565 0.756296 0.034920
O O5 0.062862 0.500000 0.247861
O O6 0.077873 0.219797 0.288784
O O7 0.000000 0.298323 0.257207
O O8 0.663571 0.797021 0.013907
O O9 0.611630 0.754185 0.908192
O O10 0.604076 0.000000 0.979805
O O11 0.250000 0.750000 0.518623
O O12 0.207334 0.727232 0.408256
O O13 0.217038 0.000000 0.461255
O O14 0.162373 0.745444 0.299460
O O15 0.126901 0.000000 0.335212
O O16 0.750000 0.250000 0.295328
O O17 0.707697 0.000000 0.320812
#
# Coordination Sequence:
#
# PCOD8185766 Si02
#       6
#    16  16  16  16  16  16
#     4   8  14  27  47  67  87 115 153 192 229 275
#     4   9  18  32  49  68  90 120 158 196 236 283
#     4   8  15  26  42  67  93 115 147 192 232 266
#     4   9  15  24  39  62  92 122 152 186 225 272
#     4  10  19  30  46  71  99 124 154 192 234 279
#     4  10  17  27  44  66  94 125 156 190 229 274
#
# _framework density 17.809858999999999
#
# number of rings (size 3 to 8) (size 9 to 14) (size 15 to 20)
#    0.000    3.000    0.000    5.500    0.000    1.000 
#    0.000    1.667    0.000    7.000    0.000    2.333 
#    0.000    0.000    0.000    0.000    0.000    0.000 
#
# Total GULP energy -297358.063646 kJ/mol
# GULP energy per Si atom -12389.919319 kJ/mol
# Density = 1.776932 g / cm^3
# Si number density = 17.809859 Si / 1000 Ang^3
#
#
#
# Elastic Constant Matrix: (Units=GPa)
#
#
# Indices 1 2 3 4 5 6 
#
# 1 148.3073 38.0183 65.8469 0.0000 0.0000 0.0000
# 2 38.0183 69.4396 19.3701 0.0000 0.0000 0.0000
# 3 65.8469 19.3701 65.4542 0.0000 0.0000 0.0000
# 4 0.0000 0.0000 0.0000 11.6661 0.0000 0.0000
# 5 0.0000 0.0000 0.0000 0.0000 6.2305 0.0000
# 6 0.0000 0.0000 0.0000 0.0000 0.0000 26.7383
#
#
#
# Elastic Compliance Matrix: (Units=1/GPa)
#
#
# Indices 1 2 3 4 5 6 
#
# 1 0.013042 -0.003794 -0.011998 0.000000 0.000000 0.000000
# 2 -0.003794 0.016800 -0.001155 0.000000 0.000000 0.000000
# 3 -0.011998 -0.001155 0.027689 0.000000 0.000000 0.000000
# 4 0.000000 0.000000 0.000000 0.085719 0.000000 0.000000
# 5 0.000000 0.000000 0.000000 0.000000 0.160501 0.000000
# 6 0.000000 0.000000 0.000000 0.000000 0.000000 0.037400
#
#
# Mechanical properties :
#
#
# Convention : Reuss Voigt Hill
#
# Bulk Modulus (GPa) = 42.30386 58.85241 50.57813
# Shear Modulus (GPa) = 13.05742 19.59136 16.32439
#
# Velocity S-wave (km/s) = 2.71062 3.32027 3.03081
# Velocity P-wave (km/s) = 5.79666 6.91487 6.38031
#
# Compressibility (1/GPa) = 0.02363851
#
# Stress axis : x y z
#
# Youngs Moduli (GPa) = 76.67447 59.52245 36.11494
#
# Poissons Ratio (x) = 0.22582 0.43330
# Poissons Ratio (y) = 0.29089 0.04172
# Poissons Ratio (z) = 0.91992 0.06876
#
# Static dielectric constant tensor:
#      x y z
#    x 4.096580 0.000000 0.000000 
#    y 0.000000 3.038150 0.000000 
#    z 0.000000 0.000000 3.043980 
# 
# 
# High freq. dielectric constant tensor:
#      x y z
#    x 1.713860 0.000000 0.000000 
#    y 0.000000 1.664920 0.000000 
#    z 0.000000 0.000000 1.637030 
# 
# From -- ./inp_files/28180.got.cif
#   From: 2010.03.12/outbox.cif.g09.slc.cpg/sg42_15_cif.got.tgz:28180.got - 2010.04.14 02:04:31.
