data_PCOD8185492
_publ_section_title
;
Structure prediction by ZEFSAII (Michael W. Deem and Ramdas Pophale) SiO2 
 PCOD8185492
Probable space group: A B A 2
;
_chemical_formula_sum "Si O2"
_cell_formula_units_Z 48
_cell_length_a 10.757206
_cell_length_b 22.092794
_cell_length_c 8.845016
_cell_angle_alpha 90.000000
_cell_angle_beta 90.000000
_cell_angle_gamma 90.000000
_cell_volume 2102.077634
_symmetry_space_group_name_H-M "A B A 2"
_symmetry_group_IT_number 41
_symmetry_cell_setting 'orthorhombic'
loop_
_space_group_symop_operation_xyz
x,y,z
-x,-y,z
1/2-x,y,1/2+z
1/2+x,-y,1/2+z
x,1/2+y,1/2+z
-x,1/2-y,1/2+z
1/2-x,1/2+y,z
1/2+x,1/2-y,z
loop_
_atom_site_type_symbol
_atom_site_label
_atom_site_fract_x
_atom_site_fract_y
_atom_site_fract_z
Si Si1 0.127678 0.825816 0.359220
Si Si2 0.251498 0.748375 0.116810
Si Si3 0.177104 0.454701 0.851976
Si Si4 0.358359 0.558212 0.849665
Si Si5 0.654956 0.334714 0.369421
Si Si6 0.000000 0.500000 0.600347
Si Si7 0.500000 0.500000 0.605539
O O1 0.151305 0.790509 0.202243
O O2 0.157402 0.784006 0.503415
O O3 0.216086 0.884360 0.362958
O O4 0.988577 0.854798 0.366233
O O5 0.335933 0.716239 0.241514
O O6 0.177686 0.696033 0.030406
O O7 0.303258 0.491017 0.838274
O O8 0.099294 0.465686 0.701147
O O9 0.110432 0.475230 0.004323
O O10 0.252310 0.609948 0.846239
O O11 0.449153 0.558049 0.703609
O O12 0.437779 0.555491 0.004303
#
# Coordination Sequence:
#
# PCOD8185492 Si02
#       7
#     8   8   8   8   8   4   4
#     4  11  25  45  67  97 136 177 226 283 339 409
#     4  10  26  46  66 100 130 180 230 282 338 396
#     4  11  24  40  70  97 135 176 217 278 348 404
#     4  11  25  43  69 107 134 176 225 278 349 408
#     4  11  24  45  74  93 135 174 235 279 336 410
#     4  10  24  44  64 108 138 174 224 276 348 408
#     4  10  24  44  64 108 138 174 224 276 348 408
#
# _framework density 22.834551999999999
#
# number of rings (size 3 to 8) (size 9 to 14) (size 15 to 20)
#    0.000    1.333    0.000    4.000   14.000    0.000 
#    0.000    0.000    0.000    0.000    0.000    0.000 
#    0.000    0.000    0.000    0.000    0.000    0.000 
#
# Total GULP energy -297544.177950 kJ/mol
# GULP energy per Si atom -12397.674081 kJ/mol
# Density = 2.278258 g / cm^3
# Si number density = 22.834552 Si / 1000 Ang^3
#
#
#
# Elastic Constant Matrix: (Units=GPa)
#
#
# Indices 1 2 3 4 5 6 
#
# 1 74.1305 2.0154 22.1185 0.0000 0.0000 0.0000
# 2 2.0154 86.8977 13.8543 0.0000 0.0000 0.0000
# 3 22.1185 13.8543 120.6617 0.0000 0.0000 0.0000
# 4 0.0000 0.0000 0.0000 17.1676 0.0000 0.0000
# 5 0.0000 0.0000 0.0000 0.0000 7.9822 0.0000
# 6 0.0000 0.0000 0.0000 0.0000 0.0000 44.5132
#
#
#
# Elastic Compliance Matrix: (Units=1/GPa)
#
#
# Indices 1 2 3 4 5 6 
#
# 1 0.014271 0.000088 -0.002626 0.000000 0.000000 0.000000
# 2 0.000088 0.011723 -0.001362 0.000000 0.000000 0.000000
# 3 -0.002626 -0.001362 0.008925 0.000000 0.000000 0.000000
# 4 0.000000 0.000000 0.000000 0.058249 0.000000 0.000000
# 5 0.000000 0.000000 0.000000 0.000000 0.125279 0.000000
# 6 0.000000 0.000000 0.000000 0.000000 0.000000 0.022465
#
#
# Mechanical properties :
#
#
# Convention : Reuss Voigt Hill
#
# Bulk Modulus (GPa) = 36.87550 39.74071 38.30810
# Shear Modulus (GPa) = 19.39841 30.17938 24.78890
#
# Velocity S-wave (km/s) = 2.91781 3.63940 3.29840
# Velocity P-wave (km/s) = 5.24744 5.92468 5.59631
#
# Compressibility (1/GPa) = 0.02711828
#
# Stress axis : x y z
#
# Youngs Moduli (GPa) = 70.07273 85.30304 112.03959
#
# Poissons Ratio (x) = -0.00748 0.29422
# Poissons Ratio (y) = -0.00614 0.15261
# Poissons Ratio (z) = 0.18402 0.11619
#
# Static dielectric constant tensor:
#      x y z
#    x 4.156780 0.000000 0.000000 
#    y 0.000000 4.038480 0.000000 
#    z 0.000000 0.000000 4.452230 
# 
# 
# High freq. dielectric constant tensor:
#      x y z
#    x 1.897220 0.000000 0.000000 
#    y 0.000000 1.894690 0.000000 
#    z 0.000000 0.000000 1.926490 
# 
# From -- ./inp_files/2109.got.cif
#   From: 2010.03.12/outbox.cif.g09.slc.cpg/sg41_2_cif.got.tgz:2109.got - 2010.04.14 01:55:53.
