data_PCOD8185595
_publ_section_title
;
Structure prediction by ZEFSAII (Michael W. Deem and Ramdas Pophale) SiO2 
 PCOD8185595
Probable space group: A B A 2
;
_chemical_formula_sum "Si O2"
_cell_formula_units_Z 48
_cell_length_a 21.652507
_cell_length_b 8.926800
_cell_length_c 11.270548
_cell_angle_alpha 90.000000
_cell_angle_beta 90.000000
_cell_angle_gamma 90.000000
_cell_volume 2178.457168
_symmetry_space_group_name_H-M "A B A 2"
_symmetry_group_IT_number 41
_symmetry_cell_setting 'orthorhombic'
loop_
_space_group_symop_operation_xyz
x,y,z
-x,-y,z
1/2-x,y,1/2+z
1/2+x,-y,1/2+z
x,1/2+y,1/2+z
-x,1/2-y,1/2+z
1/2-x,1/2+y,z
1/2+x,1/2-y,z
loop_
_atom_site_type_symbol
_atom_site_label
_atom_site_fract_x
_atom_site_fract_y
_atom_site_fract_z
Si Si1 0.534527 0.367044 0.075540
Si Si2 0.209740 0.488941 0.509582
Si Si3 0.382189 0.691770 0.867879
Si Si4 0.668307 0.848417 0.971570
Si Si5 0.447434 0.617423 0.642710
Si Si6 0.636177 0.991808 0.740577
O O1 0.500000 0.500000 0.003114
O O2 0.482150 0.274437 0.141534
O O3 0.572363 0.450358 0.178628
O O4 0.575304 0.271708 0.982804
O O5 0.175891 0.595100 0.413224
O O6 0.197032 0.315322 0.484893
O O7 0.282282 0.522733 0.503722
O O8 0.189965 0.519823 0.643861
O O9 0.419618 0.589915 0.773577
O O10 0.362796 0.845147 0.803335
O O11 0.649103 0.863069 0.835428
O O12 0.608265 0.879054 0.049949
O O13 0.500000 0.500000 0.607357
#
# Coordination Sequence:
#
# PCOD8185595 Si02
#       6
#     8   8   8   8   8   8
#     4  11  23  44  70 106 150 191 238 294 367 441
#     4  11  27  49  74 109 145 193 255 310 372 439
#     4  11  23  47  72 105 149 190 243 305 366 438
#     4  12  27  48  76 107 147 196 248 311 374 441
#     4  12  26  42  72 113 147 193 247 299 371 453
#     4  11  25  47  74 105 148 194 241 308 362 443
#
# _framework density 22.033943000000001
#
# number of rings (size 3 to 8) (size 9 to 14) (size 15 to 20)
#    0.000    0.667    3.333    3.500    7.000    3.333 
#    0.000    0.000    0.000    0.000    0.000    0.000 
#    0.000    0.000    0.000    0.000    0.000    0.000 
#
# Total GULP energy -297553.996381 kJ/mol
# GULP energy per Si atom -12398.083183 kJ/mol
# Density = 2.198379 g / cm^3
# Si number density = 22.033943 Si / 1000 Ang^3
#
#
#
# Elastic Constant Matrix: (Units=GPa)
#
#
# Indices 1 2 3 4 5 6 
#
# 1 102.8046 39.7241 31.3351 0.0000 0.0000 0.0000
# 2 39.7241 87.2461 43.3230 0.0000 0.0000 0.0000
# 3 31.3351 43.3230 122.1601 0.0000 0.0000 0.0000
# 4 0.0000 0.0000 0.0000 43.4882 0.0000 0.0000
# 5 0.0000 0.0000 0.0000 0.0000 50.5372 0.0000
# 6 0.0000 0.0000 0.0000 0.0000 0.0000 41.7230
#
#
#
# Elastic Compliance Matrix: (Units=1/GPa)
#
#
# Indices 1 2 3 4 5 6 
#
# 1 0.011993 -0.004774 -0.001383 0.000000 0.000000 0.000000
# 2 -0.004774 0.015812 -0.004383 0.000000 0.000000 0.000000
# 3 -0.001383 -0.004383 0.010095 0.000000 0.000000 0.000000
# 4 0.000000 0.000000 0.000000 0.022995 0.000000 0.000000
# 5 0.000000 0.000000 0.000000 0.000000 0.019787 0.000000
# 6 0.000000 0.000000 0.000000 0.000000 0.000000 0.023968
#
#
# Mechanical properties :
#
#
# Convention : Reuss Voigt Hill
#
# Bulk Modulus (GPa) = 59.45285 60.10834 59.78060
# Shear Modulus (GPa) = 38.06988 40.33826 39.20407
#
# Velocity S-wave (km/s) = 4.16117 4.28335 4.22270
# Velocity P-wave (km/s) = 7.08012 7.19735 7.13898
#
# Compressibility (1/GPa) = 0.01682005
#
# Stress axis : x y z
#
# Youngs Moduli (GPa) = 83.37867 63.24388 99.05663
#
# Poissons Ratio (x) = 0.30191 0.13704
# Poissons Ratio (y) = 0.39803 0.43417
# Poissons Ratio (z) = 0.11535 0.27720
#
# Static dielectric constant tensor:
#      x y z
#    x 4.071680 0.000000 0.000000 
#    y 0.000000 4.021800 0.000000 
#    z 0.000000 0.000000 4.122350 
# 
# 
# High freq. dielectric constant tensor:
#      x y z
#    x 1.881170 0.000000 0.000000 
#    y 0.000000 1.872530 0.000000 
#    z 0.000000 0.000000 1.875070 
# 
# From -- ./inp_files/6406.got.cif
#   From: 2010.03.12/outbox.cif.g09.slc.cpg/sg41_4_cif.got.tgz:6406.got - 2010.04.14 01:55:53.
