data_PCOD8185330
_publ_section_title
;
Structure prediction by ZEFSAII (Michael W. Deem and Ramdas Pophale) SiO2 
 PCOD8185330
Probable space group: A B A 2
;
_chemical_formula_sum "Si O2"
_cell_formula_units_Z 40
_cell_length_a 12.260681
_cell_length_b 17.142356
_cell_length_c 8.672261
_cell_angle_alpha 90.000000
_cell_angle_beta 90.000000
_cell_angle_gamma 90.000000
_cell_volume 1822.709440
_symmetry_space_group_name_H-M "A B A 2"
_symmetry_group_IT_number 41
_symmetry_cell_setting 'orthorhombic'
loop_
_space_group_symop_operation_xyz
x,y,z
-x,-y,z
1/2-x,y,1/2+z
1/2+x,-y,1/2+z
x,1/2+y,1/2+z
-x,1/2-y,1/2+z
1/2-x,1/2+y,z
1/2+x,1/2-y,z
loop_
_atom_site_type_symbol
_atom_site_label
_atom_site_fract_x
_atom_site_fract_y
_atom_site_fract_z
Si Si1 0.770646 0.481242 0.733640
Si Si2 0.590767 0.174715 0.432339
Si Si3 0.816020 0.089603 0.495627
Si Si4 0.424753 0.764623 0.097168
Si Si5 0.869480 0.388801 0.464921
O O1 0.840681 0.534049 0.851103
O O2 0.683001 0.537899 0.650976
O O3 0.853164 0.447485 0.607635
O O4 0.707705 0.412323 0.822912
O O5 0.699812 0.132804 0.483569
O O6 0.549276 0.234956 0.566998
O O7 0.496135 0.108629 0.410502
O O8 0.603385 0.224409 0.275957
O O9 0.910029 0.153967 0.506344
O O10 0.342418 0.699567 0.023519
#
# Coordination Sequence:
#
# PCOD8185330 Si02
#       5
#     8   8   8   8   8
#     4  10  22  41  67  98 131 180 205 281 335 391
#     4  10  24  43  70  98 131 178 227 277 326 400
#     4  11  22  42  71  95 135 173 229 270 342 394
#     4  10  24  42  70  95 130 178 226 279 321 406
#     4   9  24  43  67  95 136 173 224 270 338 395
#
# _framework density 21.945352
#
# number of rings (size 3 to 8) (size 9 to 14) (size 15 to 20)
#    1.200    0.800    2.000    0.000    5.600    4.800 
#    3.600    0.000    0.000    0.000    0.000    0.000 
#    0.000    0.000    0.000    0.000    0.000    0.000 
#
# Total GULP energy -247848.034543 kJ/mol
# GULP energy per Si atom -12392.401727 kJ/mol
# Density = 2.189540 g / cm^3
# Si number density = 21.945352 Si / 1000 Ang^3
#
#
#
# Elastic Constant Matrix: (Units=GPa)
#
#
# Indices 1 2 3 4 5 6 
#
# 1 52.5419 16.4643 10.3417 0.0000 0.0000 0.0000
# 2 16.4643 110.2529 39.5431 0.0000 0.0000 0.0000
# 3 10.3417 39.5431 109.9400 0.0000 0.0000 0.0000
# 4 0.0000 0.0000 0.0000 39.1661 0.0000 0.0000
# 5 0.0000 0.0000 0.0000 0.0000 23.2836 0.0000
# 6 0.0000 0.0000 0.0000 0.0000 0.0000 20.7485
#
#
#
# Elastic Compliance Matrix: (Units=1/GPa)
#
#
# Indices 1 2 3 4 5 6 
#
# 1 0.020049 -0.002661 -0.000929 0.000000 0.000000 0.000000
# 2 -0.002661 0.010767 -0.003622 0.000000 0.000000 0.000000
# 3 -0.000929 -0.003622 0.010486 0.000000 0.000000 0.000000
# 4 0.000000 0.000000 0.000000 0.025532 0.000000 0.000000
# 5 0.000000 0.000000 0.000000 0.000000 0.042949 0.000000
# 6 0.000000 0.000000 0.000000 0.000000 0.000000 0.048196
#
#
# Mechanical properties :
#
#
# Convention : Reuss Voigt Hill
#
# Bulk Modulus (GPa) = 37.20538 45.04810 41.12674
# Shear Modulus (GPa) = 27.56915 30.39867 28.98391
#
# Velocity S-wave (km/s) = 3.54823 3.72586 3.63813
# Velocity P-wave (km/s) = 5.81180 6.25151 6.03566
#
# Compressibility (1/GPa) = 0.02687783
#
# Stress axis : x y z
#
# Youngs Moduli (GPa) = 49.87764 92.88042 95.36452
#
# Poissons Ratio (x) = 0.24714 0.08859
# Poissons Ratio (y) = 0.13271 0.34543
# Poissons Ratio (z) = 0.04633 0.33643
#
# Static dielectric constant tensor:
#      x y z
#    x 3.464080 0.000000 0.000000 
#    y 0.000000 4.204610 0.000000 
#    z 0.000000 0.000000 3.992620 
# 
# 
# High freq. dielectric constant tensor:
#      x y z
#    x 1.821350 0.000000 0.000000 
#    y 0.000000 1.875860 0.000000 
#    z 0.000000 0.000000 1.872140 
# 
# From -- ./inp_files/2049.got.cif
#   From: 2010.03.12/outbox.cif.g09.slc.cpg/sg41_2_cif.got.tgz:2049.got - 2010.04.14 01:55:53.
