data_PCOD8185146
_publ_section_title
;
Structure prediction by ZEFSAII (Michael W. Deem and Ramdas Pophale) SiO2 
 PCOD8185146
Probable space group: A B A 2
;
_chemical_formula_sum "Si O2"
_cell_formula_units_Z 56
_cell_length_a 8.901139
_cell_length_b 15.640863
_cell_length_c 19.518457
_cell_angle_alpha 90.000000
_cell_angle_beta 90.000000
_cell_angle_gamma 90.000000
_cell_volume 2717.388776
_symmetry_space_group_name_H-M "A B A 2"
_symmetry_group_IT_number 41
_symmetry_cell_setting 'orthorhombic'
loop_
_space_group_symop_operation_xyz
x,y,z
-x,-y,z
1/2-x,y,1/2+z
1/2+x,-y,1/2+z
x,1/2+y,1/2+z
-x,1/2-y,1/2+z
1/2-x,1/2+y,z
1/2+x,1/2-y,z
loop_
_atom_site_type_symbol
_atom_site_label
_atom_site_fract_x
_atom_site_fract_y
_atom_site_fract_z
Si Si1 0.809151 0.163639 0.106930
Si Si2 0.061530 0.752308 0.684135
Si Si3 0.805484 0.354473 0.244512
Si Si4 0.669084 0.483266 0.475558
Si Si5 0.834112 0.833223 0.900245
Si Si6 0.170917 0.835517 0.951461
Si Si7 0.830194 0.486874 0.132549
O O1 0.656040 0.215641 0.119169
O O2 0.943992 0.183557 0.157725
O O3 0.776771 0.067303 0.126128
O O4 0.856325 0.188046 0.030405
O O5 0.177140 0.717257 0.740003
O O6 0.971431 0.828002 0.720309
O O7 0.812979 0.372783 0.324532
O O8 0.753873 0.428592 0.191471
O O9 0.500000 0.500000 0.450127
O O10 0.739313 0.398978 0.444097
O O11 0.757676 0.569187 0.453511
O O12 0.667379 0.452613 0.554876
O O13 0.775053 0.735708 0.913207
O O14 0.010561 0.837312 0.915164
O O15 0.000000 0.500000 0.157965
#
# Coordination Sequence:
#
# PCOD8185146 Si02
#       7
#     8   8   8   8   8   8   8
#     4  10  21  39  65  97 124 164 219 278 323 377
#     4  10  22  39  63  95 124 165 217 270 319 386
#     4  11  24  42  63  95 132 173 216 264 333 398
#     4  10  24  44  66  98 133 170 229 278 332 392
#     4  12  25  44  67  97 138 180 217 272 342 409
#     4  11  24  41  69  99 131 178 220 278 333 396
#     4  10  21  40  64  92 127 169 215 275 327 381
#
# _framework density 20.608018000000001
#
# number of rings (size 3 to 8) (size 9 to 14) (size 15 to 20)
#    0.000    1.429    1.429    3.000    6.000    1.714 
#    7.714    0.000    0.000    0.000    0.000    0.000 
#    0.000    0.000    0.000    0.000    0.000    0.000 
#
# Total GULP energy -346916.222171 kJ/mol
# GULP energy per Si atom -12389.865078 kJ/mol
# Density = 2.056111 g / cm^3
# Si number density = 20.608018 Si / 1000 Ang^3
#
#
#
# Elastic Constant Matrix: (Units=GPa)
#
#
# Indices 1 2 3 4 5 6 
#
# 1 108.5311 30.4268 31.9030 0.0000 0.0000 0.0000
# 2 30.4268 83.6932 47.1206 0.0000 0.0000 0.0000
# 3 31.9030 47.1206 111.8180 0.0000 0.0000 0.0000
# 4 0.0000 0.0000 0.0000 16.1713 0.0000 0.0000
# 5 0.0000 0.0000 0.0000 0.0000 57.0444 0.0000
# 6 0.0000 0.0000 0.0000 0.0000 0.0000 24.9915
#
#
#
# Elastic Compliance Matrix: (Units=1/GPa)
#
#
# Indices 1 2 3 4 5 6 
#
# 1 0.010536 -0.002803 -0.001825 0.000000 0.000000 0.000000
# 2 -0.002803 0.016411 -0.006116 0.000000 0.000000 0.000000
# 3 -0.001825 -0.006116 0.012041 0.000000 0.000000 0.000000
# 4 0.000000 0.000000 0.000000 0.061838 0.000000 0.000000
# 5 0.000000 0.000000 0.000000 0.000000 0.017530 0.000000
# 6 0.000000 0.000000 0.000000 0.000000 0.000000 0.040014
#
#
# Mechanical properties :
#
#
# Convention : Reuss Voigt Hill
#
# Bulk Modulus (GPa) = 57.14130 58.10479 57.62305
# Shear Modulus (GPa) = 26.92647 32.61422 29.77034
#
# Velocity S-wave (km/s) = 3.61862 3.98250 3.80491
# Velocity P-wave (km/s) = 6.72659 7.02877 6.87934
#
# Compressibility (1/GPa) = 0.01750048
#
# Stress axis : x y z
#
# Youngs Moduli (GPa) = 94.91076 60.93565 83.04946
#
# Poissons Ratio (x) = 0.17080 0.15156
# Poissons Ratio (y) = 0.26604 0.50792
# Poissons Ratio (z) = 0.17320 0.37267
#
# Static dielectric constant tensor:
#      x y z
#    x 3.716250 0.000000 0.000000 
#    y 0.000000 3.806600 0.000000 
#    z 0.000000 0.000000 3.800780 
# 
# 
# High freq. dielectric constant tensor:
#      x y z
#    x 1.822050 0.000000 0.000000 
#    y 0.000000 1.805910 0.000000 
#    z 0.000000 0.000000 1.803160 
# 
# From -- ./inp_files/11197.got.cif
#   From: 2010.03.12/outbox.cif.g09.slc.cpg/sg41_6_cif.got.tgz:11197.got - 2010.04.14 01:55:53.
