data_PCOD8185053
_publ_section_title
;
Structure prediction by ZEFSAII (Michael W. Deem and Ramdas Pophale) SiO2 
 PCOD8185053
Probable space group: A B A 2
;
_chemical_formula_sum "Si O2"
_cell_formula_units_Z 48
_cell_length_a 9.191061
_cell_length_b 14.611348
_cell_length_c 16.106187
_cell_angle_alpha 90.000000
_cell_angle_beta 90.000000
_cell_angle_gamma 90.000000
_cell_volume 2162.960907
_symmetry_space_group_name_H-M "A B A 2"
_symmetry_group_IT_number 41
_symmetry_cell_setting 'orthorhombic'
loop_
_space_group_symop_operation_xyz
x,y,z
-x,-y,z
1/2-x,y,1/2+z
1/2+x,-y,1/2+z
x,1/2+y,1/2+z
-x,1/2-y,1/2+z
1/2-x,1/2+y,z
1/2+x,1/2-y,z
loop_
_atom_site_type_symbol
_atom_site_label
_atom_site_fract_x
_atom_site_fract_y
_atom_site_fract_z
Si Si1 0.840864 0.341836 0.501500
Si Si2 0.254170 0.467362 0.710117
Si Si3 0.037584 0.695867 0.057857
Si Si4 0.000000 0.500000 0.087659
Si Si5 0.000000 0.000000 0.098969
Si Si6 0.935902 0.206514 0.741893
Si Si7 0.263713 0.140720 0.316018
O O1 0.712551 0.299064 0.558568
O O2 0.764080 0.365943 0.415177
O O3 0.966911 0.265349 0.491387
O O4 0.908682 0.432494 0.541013
O O5 0.362543 0.517625 0.646526
O O6 0.107780 0.443315 0.659256
O O7 0.318135 0.374746 0.748016
O O8 0.227904 0.539158 0.783830
O O9 0.984426 0.592503 0.033914
O O10 0.977431 0.727189 0.147086
O O11 0.866364 0.295185 0.784070
O O12 0.079398 0.177366 0.790179
#
# Coordination Sequence:
#
# PCOD8185053 Si02
#       7
#     8   8   8   4   4   8   8
#     4  12  28  42  71 105 146 177 232 299 362 403
#     4  11  23  44  70  98 132 186 241 275 339 429
#     4  11  23  46  68 104 134 188 235 289 339 431
#     4  10  20  43  69  94 130 180 236 284 330 407
#     4  12  26  43  71 108 130 190 240 278 344 437
#     4  11  24  43  76  92 136 187 231 281 342 430
#     4  12  25  47  66 104 142 180 230 293 359 405
#
# _framework density 22.191801000000002
#
# number of rings (size 3 to 8) (size 9 to 14) (size 15 to 20)
#    0.000    0.667    5.000    3.000   11.667    0.000 
#    3.000    0.000    0.000    0.000    0.000    0.000 
#    0.000    0.000    0.000    0.000    0.000    0.000 
#
# Total GULP energy -297661.065347 kJ/mol
# GULP energy per Si atom -12402.544389 kJ/mol
# Density = 2.214129 g / cm^3
# Si number density = 22.191801 Si / 1000 Ang^3
#
#
#
# Elastic Constant Matrix: (Units=GPa)
#
#
# Indices 1 2 3 4 5 6 
#
# 1 111.6113 25.7362 41.8683 0.0000 0.0000 0.0000
# 2 25.7362 87.3800 31.0830 0.0000 0.0000 0.0000
# 3 41.8683 31.0830 88.1530 0.0000 0.0000 0.0000
# 4 0.0000 0.0000 0.0000 27.3972 0.0000 0.0000
# 5 0.0000 0.0000 0.0000 0.0000 34.4873 0.0000
# 6 0.0000 0.0000 0.0000 0.0000 0.0000 46.5172
#
#
#
# Elastic Compliance Matrix: (Units=1/GPa)
#
#
# Indices 1 2 3 4 5 6 
#
# 1 0.011093 -0.001593 -0.004707 0.000000 0.000000 0.000000
# 2 -0.001593 0.013314 -0.003938 0.000000 0.000000 0.000000
# 3 -0.004707 -0.003938 0.014968 0.000000 0.000000 0.000000
# 4 0.000000 0.000000 0.000000 0.036500 0.000000 0.000000
# 5 0.000000 0.000000 0.000000 0.000000 0.028996 0.000000
# 6 0.000000 0.000000 0.000000 0.000000 0.000000 0.021497
#
#
# Mechanical properties :
#
#
# Convention : Reuss Voigt Hill
#
# Bulk Modulus (GPa) = 52.91181 53.83548 53.37365
# Shear Modulus (GPa) = 32.64905 34.24414 33.44659
#
# Velocity S-wave (km/s) = 3.83981 3.93249 3.88643
# Velocity P-wave (km/s) = 6.59951 6.70307 6.65149
#
# Compressibility (1/GPa) = 0.01889937
#
# Stress axis : x y z
#
# Youngs Moduli (GPa) = 90.15024 75.10727 66.80919
#
# Poissons Ratio (x) = 0.11963 0.31446
# Poissons Ratio (y) = 0.14359 0.26310
# Poissons Ratio (z) = 0.42432 0.29578
#
# Static dielectric constant tensor:
#      x y z
#    x 4.281970 0.000000 0.000000 
#    y 0.000000 3.942810 0.000000 
#    z 0.000000 0.000000 3.821590 
# 
# 
# High freq. dielectric constant tensor:
#      x y z
#    x 1.890800 0.000000 0.000000 
#    y 0.000000 1.880980 0.000000 
#    z 0.000000 0.000000 1.851410 
# 
# From -- ./inp_files/7361.got.cif
#   From: 2010.03.12/outbox.cif.g09.slc.cpg/sg41_4_cif.got.tgz:7361.got - 2010.04.14 01:55:53.
