data_PCOD8185869
_publ_section_title
;
Structure prediction by ZEFSAII (Michael W. Deem and Ramdas Pophale) SiO2 
 PCOD8185869
Probable space group: F M M 2
;
_chemical_formula_sum "Si O2"
_cell_formula_units_Z 96
_cell_length_a 19.206523
_cell_length_b 17.926885
_cell_length_c 16.453812
_cell_angle_alpha 90.000000
_cell_angle_beta 90.000000
_cell_angle_gamma 90.000000
_cell_volume 5665.263495
_symmetry_space_group_name_H-M "F M M 2"
_symmetry_group_IT_number 42
_symmetry_cell_setting 'orthorhombic'
loop_
_space_group_symop_operation_xyz
x,y,z
-x,-y,z
-x,y,z
x,-y,z
x,1/2+y,1/2+z
-x,1/2-y,1/2+z
-x,1/2+y,1/2+z
x,1/2-y,1/2+z
1/2+x,y,1/2+z
1/2-x,-y,1/2+z
1/2-x,y,1/2+z
1/2+x,-y,1/2+z
1/2+x,1/2+y,z
1/2-x,1/2-y,z
1/2-x,1/2+y,z
1/2+x,1/2-y,z
loop_
_atom_site_type_symbol
_atom_site_label
_atom_site_fract_x
_atom_site_fract_y
_atom_site_fract_z
Si Si1 0.351575 0.311118 0.681070
Si Si2 0.250000 0.750000 0.434305
Si Si3 0.500000 0.714084 0.330591
Si Si4 0.218975 0.086944 0.180296
Si Si5 0.000000 0.289916 0.505074
Si Si6 0.000000 0.807547 0.665182
Si Si7 0.351772 0.178538 0.553301
Si Si8 0.848964 0.815001 0.309639
O O1 0.293286 0.373023 0.672624
O O2 0.427493 0.352611 0.676631
O O3 0.347223 0.251818 0.608912
O O4 0.342689 0.264780 0.763948
O O5 0.297542 0.808298 0.482049
O O6 0.199762 0.806322 0.386933
O O7 0.500000 0.766535 0.410385
O O8 0.500000 0.748311 0.239545
O O9 0.571327 0.666486 0.335639
O O10 0.171707 0.105203 0.102187
O O11 0.177913 0.114815 0.259081
O O12 0.232684 0.000000 0.187199
O O13 0.070462 0.337357 0.519735
O O14 0.000000 0.225516 0.573699
#
# Coordination Sequence:
#
# PCOD8185869 Si02
#       8
#    16   8   8  16   8   8  16  16
#     4   9  16  34  51  73 102 134 180 225 257 306
#     4  12  16  28  58  80 104 124 174 224 268 292
#     4  10  18  30  52  82 108 131 171 228 273 305
#     4  11  21  35  52  74 108 148 175 206 264 333
#     4  10  18  30  52  82 108 131 171 228 273 305
#     4   8  18  28  49  78 103 128 178 230 264 304
#     4  10  19  32  53  80 102 134 178 225 262 307
#     4  10  19  32  53  80 102 134 178 225 262 307
#
# _framework density 16.945371999999999
#
# number of rings (size 3 to 8) (size 9 to 14) (size 15 to 20)
#    0.000    2.000    5.000    2.000    0.000    0.000 
#    0.000    2.917    0.000    0.000    0.000    2.333 
#    0.000    0.000    0.000    0.000    0.000    0.000 
#
# Total GULP energy -297341.395961 kJ/mol
# GULP energy per Si atom -12389.224832 kJ/mol
# Density = 1.690680 g / cm^3
# Si number density = 16.945372 Si / 1000 Ang^3
#
#
#
# Elastic Constant Matrix: (Units=GPa)
#
#
# Indices 1 2 3 4 5 6 
#
# 1 148.1551 25.7164 18.1326 0.0000 0.0000 0.0000
# 2 25.7164 62.6604 5.1089 0.0000 0.0000 0.0000
# 3 18.1326 5.1089 72.8662 0.0000 0.0000 0.0000
# 4 0.0000 0.0000 0.0000 11.2254 0.0000 0.0000
# 5 0.0000 0.0000 0.0000 0.0000 30.5709 0.0000
# 6 0.0000 0.0000 0.0000 0.0000 0.0000 9.1223
#
#
#
# Elastic Compliance Matrix: (Units=1/GPa)
#
#
# Indices 1 2 3 4 5 6 
#
# 1 0.007460 -0.002927 -0.001651 0.000000 0.000000 0.000000
# 2 -0.002927 0.017199 -0.000478 0.000000 0.000000 0.000000
# 3 -0.001651 -0.000478 0.014168 0.000000 0.000000 0.000000
# 4 0.000000 0.000000 0.000000 0.089083 0.000000 0.000000
# 5 0.000000 0.000000 0.000000 0.000000 0.032711 0.000000
# 6 0.000000 0.000000 0.000000 0.000000 0.000000 0.109621
#
#
# Mechanical properties :
#
#
# Convention : Reuss Voigt Hill
#
# Bulk Modulus (GPa) = 34.82387 42.39972 38.61180
# Shear Modulus (GPa) = 17.24580 25.83199 21.53889
#
# Velocity S-wave (km/s) = 3.19365 3.90863 3.56909
# Velocity P-wave (km/s) = 5.84760 6.74133 6.31031
#
# Compressibility (1/GPa) = 0.02871593
#
# Stress axis : x y z
#
# Youngs Moduli (GPa) = 134.05147 58.14211 70.58087
#
# Poissons Ratio (x) = 0.17018 0.11654
# Poissons Ratio (y) = 0.39236 0.03371
# Poissons Ratio (z) = 0.22134 0.02777
#
# Static dielectric constant tensor:
#      x y z
#    x 3.860380 0.000000 0.000000 
#    y 0.000000 2.494480 0.000000 
#    z 0.000000 0.000000 3.417670 
# 
# 
# High freq. dielectric constant tensor:
#      x y z
#    x 1.693000 0.000000 0.000000 
#    y 0.000000 1.570450 0.000000 
#    z 0.000000 0.000000 1.666960 
# 
# From -- ./inp_files/21774.got.cif
#   From: 2010.03.12/outbox.cif.g09.slc.cpg/sg42_11_cif.got.tgz:21774.got - 2010.04.14 02:04:31.
