data_PCOD8185664
_publ_section_title
;
Structure prediction by ZEFSAII (Michael W. Deem and Ramdas Pophale) SiO2 
 PCOD8185664
Probable space group: A B A 2
;
_chemical_formula_sum "Si O2"
_cell_formula_units_Z 64
_cell_length_a 11.658328
_cell_length_b 11.636425
_cell_length_c 23.818140
_cell_angle_alpha 90.000000
_cell_angle_beta 90.000000
_cell_angle_gamma 90.000000
_cell_volume 3231.198869
_symmetry_space_group_name_H-M "A B A 2"
_symmetry_group_IT_number 41
_symmetry_cell_setting 'orthorhombic'
loop_
_space_group_symop_operation_xyz
x,y,z
-x,-y,z
1/2-x,y,1/2+z
1/2+x,-y,1/2+z
x,1/2+y,1/2+z
-x,1/2-y,1/2+z
1/2-x,1/2+y,z
1/2+x,1/2-y,z
loop_
_atom_site_type_symbol
_atom_site_label
_atom_site_fract_x
_atom_site_fract_y
_atom_site_fract_z
Si Si1 0.472874 0.184155 0.709010
Si Si2 0.903668 0.594596 0.533941
Si Si3 0.186070 0.469351 0.835642
Si Si4 0.904362 0.095759 0.905331
Si Si5 0.686490 0.016406 0.709329
Si Si6 0.682410 0.028458 0.100760
Si Si7 0.971712 0.813975 0.335432
Si Si8 0.974130 0.817360 0.602061
O O1 0.578612 0.098700 0.704940
O O2 0.460497 0.233361 0.771940
O O3 0.495584 0.287482 0.666419
O O4 0.356639 0.113074 0.694809
O O5 0.878492 0.625629 0.469780
O O6 0.789798 0.541472 0.560291
O O7 0.948609 0.706489 0.565523
O O8 0.000000 0.500000 0.540735
O O9 0.289129 0.452795 0.878284
O O10 0.236301 0.473960 0.772296
O O11 0.121954 0.588396 0.848263
O O12 0.098992 0.363651 0.844253
O O13 0.950555 0.210870 0.877427
O O14 0.000000 0.000000 0.899091
O O15 0.782928 0.055072 0.665249
O O16 0.585706 0.116356 0.079075
O O17 0.636852 0.898261 0.098458
#
# Coordination Sequence:
#
# PCOD8185664 Si02
#       8
#     8   8   8   8   8   8   8   8
#     4   9  18  36  64  94 128 169 199 249 317 381
#     4  11  26  46  66  87 127 172 210 262 323 374
#     4   9  21  42  65  93 128 169 208 252 318 379
#     4  11  26  42  64  97 125 162 216 269 311 367
#     4   9  18  36  64  94 128 167 201 247 316 382
#     4  11  25  41  62  97 126 163 212 262 313 377
#     4   9  21  42  66  92 129 169 209 254 318 377
#     4  11  25  41  63  96 127 163 213 263 314 375
#
# _framework density 19.806889999999999
#
# number of rings (size 3 to 8) (size 9 to 14) (size 15 to 20)
#    0.000    2.000    1.250    2.250    7.000    3.000 
#    4.500    2.500    0.000    0.000    0.000    0.000 
#    0.000    0.000    0.000    0.000    0.000    0.000 
#
# Total GULP energy -396818.571650 kJ/mol
# GULP energy per Si atom -12400.580364 kJ/mol
# Density = 1.976181 g / cm^3
# Si number density = 19.806890 Si / 1000 Ang^3
#
#
#
# Elastic Constant Matrix: (Units=GPa)
#
#
# Indices 1 2 3 4 5 6 
#
# 1 100.6431 34.9372 69.8023 0.0000 0.0000 0.0000
# 2 34.9372 100.4519 71.3048 0.0000 0.0000 0.0000
# 3 69.8023 71.3048 149.7340 0.0000 0.0000 0.0000
# 4 0.0000 0.0000 0.0000 48.5256 0.0000 0.0000
# 5 0.0000 0.0000 0.0000 0.0000 148.4335 0.0000
# 6 0.0000 0.0000 0.0000 0.0000 0.0000 22.9456
#
#
#
# Elastic Compliance Matrix: (Units=1/GPa)
#
#
# Indices 1 2 3 4 5 6 
#
# 1 0.014693 -0.000375 -0.006671 0.000000 0.000000 0.000000
# 2 -0.000375 0.015048 -0.006991 0.000000 0.000000 0.000000
# 3 -0.006671 -0.006991 0.013118 0.000000 0.000000 0.000000
# 4 0.000000 0.000000 0.000000 0.020608 0.000000 0.000000
# 5 0.000000 0.000000 0.000000 0.000000 0.006737 0.000000
# 6 0.000000 0.000000 0.000000 0.000000 0.000000 0.043581
#
#
# Mechanical properties :
#
#
# Convention : Reuss Voigt Hill
#
# Bulk Modulus (GPa) = 67.63871 78.10196 72.87034
# Shear Modulus (GPa) = 34.06289 55.63324 44.84807
#
# Velocity S-wave (km/s) = 4.15149 5.30554 4.76359
# Velocity P-wave (km/s) = 7.56327 8.77776 8.19305
#
# Compressibility (1/GPa) = 0.01478443
#
# Stress axis : x y z
#
# Youngs Moduli (GPa) = 68.05976 66.45356 76.23301
#
# Poissons Ratio (x) = 0.02491 0.50855
# Poissons Ratio (y) = 0.02552 0.53297
# Poissons Ratio (z) = 0.45402 0.46460
#
# Static dielectric constant tensor:
#      x y z
#    x 2.636780 0.000000 0.000000 
#    y 0.000000 3.138480 0.000000 
#    z 0.000000 0.000000 3.833650 
# 
# 
# High freq. dielectric constant tensor:
#      x y z
#    x 1.776790 0.000000 0.000000 
#    y 0.000000 1.774520 0.000000 
#    z 0.000000 0.000000 1.771160 
# 
# From -- ./inp_files/12175.got.cif
#   From: 2010.03.12/outbox.cif.g09.slc.cpg/sg41_7_cif.got.tgz:12175.got - 2010.04.14 01:55:53.
