data_PCOD8185984
_publ_section_title
;
Structure prediction by ZEFSAII (Michael W. Deem and Ramdas Pophale) SiO2 
 PCOD8185984
Probable space group: F M M 2
;
_chemical_formula_sum "Si O2"
_cell_formula_units_Z 80
_cell_length_a 9.081064
_cell_length_b 15.929146
_cell_length_c 28.994351
_cell_angle_alpha 90.000000
_cell_angle_beta 90.000000
_cell_angle_gamma 90.000000
_cell_volume 4194.137086
_symmetry_space_group_name_H-M "F M M 2"
_symmetry_group_IT_number 42
_symmetry_cell_setting 'orthorhombic'
loop_
_space_group_symop_operation_xyz
x,y,z
-x,-y,z
-x,y,z
x,-y,z
x,1/2+y,1/2+z
-x,1/2-y,1/2+z
-x,1/2+y,1/2+z
x,1/2-y,1/2+z
1/2+x,y,1/2+z
1/2-x,-y,1/2+z
1/2-x,y,1/2+z
1/2+x,-y,1/2+z
1/2+x,1/2+y,z
1/2-x,1/2-y,z
1/2-x,1/2+y,z
1/2+x,1/2-y,z
loop_
_atom_site_type_symbol
_atom_site_label
_atom_site_fract_x
_atom_site_fract_y
_atom_site_fract_z
Si Si1 0.327435 0.835841 0.181440
Si Si2 0.327514 0.336670 0.575546
Si Si3 0.174753 0.000000 0.416553
Si Si4 0.838587 0.095739 0.262355
Si Si5 0.160303 0.593706 0.345461
Si Si6 0.825725 0.500000 0.022388
O O1 0.500000 0.830166 0.190649
O O2 0.250000 0.750000 0.195626
O O3 0.293069 0.859014 0.128622
O O4 0.254708 0.903680 0.215088
O O5 0.500000 0.323556 0.567136
O O6 0.250000 0.250000 0.560402
O O7 0.264032 0.415093 0.546230
O O8 0.242824 0.915525 0.392681
O O9 0.223966 0.000000 0.469524
O O10 0.000000 0.000000 0.410612
O O11 0.750962 0.141271 0.304816
O O12 0.000000 0.138576 0.256261
O O13 0.864480 0.000000 0.276378
O O14 0.128730 0.500000 0.326835
O O15 0.000000 0.637431 0.354704
O O16 0.000000 0.500000 0.028244
#
# Coordination Sequence:
#
# PCOD8185984 Si02
#       6
#    16  16   8  16  16   8
#     4  10  20  33  51  71 102 140 177 214 261 314
#     4   9  19  36  55  77 108 144 181 224 270 320
#     4   9  15  27  48  73  98 127 170 217 262 313
#     4  10  19  30  48  74 102 131 169 210 252 304
#     4   8  15  27  44  68  99 129 161 204 257 307
#     4   9  18  33  56  81 104 139 182 221 272 331
#
# _framework density 19.074245000000001
#
# number of rings (size 3 to 8) (size 9 to 14) (size 15 to 20)
#    0.600    2.200    0.000    1.800    1.400    2.000 
#    0.000    2.500    0.000    1.200    0.000    5.600 
#    0.000    0.000    0.000    0.000    0.000    0.000 
#
# Total GULP energy -247771.266172 kJ/mol
# GULP energy per Si atom -12388.563309 kJ/mol
# Density = 1.903083 g / cm^3
# Si number density = 19.074245 Si / 1000 Ang^3
#
#
#
# Elastic Constant Matrix: (Units=GPa)
#
#
# Indices 1 2 3 4 5 6 
#
# 1 123.8004 29.8498 66.5473 0.0000 0.0000 0.0000
# 2 29.8498 63.9223 46.9428 0.0000 0.0000 0.0000
# 3 66.5473 46.9428 139.7765 0.0000 0.0000 0.0000
# 4 0.0000 0.0000 0.0000 2.5294 0.0000 0.0000
# 5 0.0000 0.0000 0.0000 0.0000 27.4682 0.0000
# 6 0.0000 0.0000 0.0000 0.0000 0.0000 21.2909
#
#
#
# Elastic Compliance Matrix: (Units=1/GPa)
#
#
# Indices 1 2 3 4 5 6 
#
# 1 0.010995 -0.001713 -0.004660 0.000000 0.000000 0.000000
# 2 -0.001713 0.021032 -0.006248 0.000000 0.000000 0.000000
# 3 -0.004660 -0.006248 0.011471 0.000000 0.000000 0.000000
# 4 0.000000 0.000000 0.000000 0.395358 0.000000 0.000000
# 5 0.000000 0.000000 0.000000 0.000000 0.036406 0.000000
# 6 0.000000 0.000000 0.000000 0.000000 0.000000 0.046968
#
#
# Mechanical properties :
#
#
# Convention : Reuss Voigt Hill
#
# Bulk Modulus (GPa) = 54.77104 68.24212 61.50658
# Shear Modulus (GPa) = 9.03250 22.53498 15.78374
#
# Velocity S-wave (km/s) = 2.17847 3.44093 2.87973
# Velocity P-wave (km/s) = 5.92492 7.18620 6.58582
#
# Compressibility (1/GPa) = 0.01825782
#
# Stress axis : x y z
#
# Youngs Moduli (GPa) = 90.94910 47.54628 87.17552
#
# Poissons Ratio (x) = 0.08142 0.40621
# Poissons Ratio (y) = 0.15575 0.54469
# Poissons Ratio (z) = 0.42379 0.29708
#
# Static dielectric constant tensor:
#      x y z
#    x 3.731210 0.000000 0.000000 
#    y 0.000000 3.112420 0.000000 
#    z 0.000000 0.000000 3.408710 
# 
# 
# High freq. dielectric constant tensor:
#      x y z
#    x 1.749340 0.000000 0.000000 
#    y 0.000000 1.693610 0.000000 
#    z 0.000000 0.000000 1.736990 
# 
# From -- ./inp_files/31344.got.cif
#   From: 2010.03.12/outbox.cif.g09.slc.cpg/sg42_16_cif.got.tgz:31344.got - 2010.04.14 02:04:31.
