data_PCOD8185897
_publ_section_title
;
Structure prediction by ZEFSAII (Michael W. Deem and Ramdas Pophale) SiO2 
 PCOD8185897
Probable space group: F M M 2
;
_chemical_formula_sum "Si O2"
_cell_formula_units_Z 64
_cell_length_a 8.354615
_cell_length_b 24.864708
_cell_length_c 15.060501
_cell_angle_alpha 90.000000
_cell_angle_beta 90.000000
_cell_angle_gamma 90.000000
_cell_volume 3128.594115
_symmetry_space_group_name_H-M "F M M 2"
_symmetry_group_IT_number 42
_symmetry_cell_setting 'orthorhombic'
loop_
_space_group_symop_operation_xyz
x,y,z
-x,-y,z
-x,y,z
x,-y,z
x,1/2+y,1/2+z
-x,1/2-y,1/2+z
-x,1/2+y,1/2+z
x,1/2-y,1/2+z
1/2+x,y,1/2+z
1/2-x,-y,1/2+z
1/2-x,y,1/2+z
1/2+x,-y,1/2+z
1/2+x,1/2+y,z
1/2-x,1/2-y,z
1/2-x,1/2+y,z
1/2+x,1/2-y,z
loop_
_atom_site_type_symbol
_atom_site_label
_atom_site_fract_x
_atom_site_fract_y
_atom_site_fract_z
Si Si1 0.182835 0.000000 0.025321
Si Si2 0.810560 0.189855 0.173843
Si Si3 0.688521 0.889901 0.317954
Si Si4 0.690767 0.885320 0.519270
Si Si5 0.314565 0.000000 0.835399
O O1 0.260018 0.943129 0.056755
O O2 0.194737 0.000000 0.918622
O O3 0.000000 0.000000 0.055612
O O4 0.750000 0.250000 0.173339
O O5 0.740159 0.160106 0.258810
O O6 0.745961 0.161518 0.083648
O O7 0.000000 0.188300 0.178640
O O8 0.500000 0.897716 0.313523
O O9 0.748632 0.876067 0.418203
O O10 0.773489 0.944935 0.282087
O O11 0.500000 0.887777 0.520422
O O12 0.500000 0.000000 0.863092
#
# Coordination Sequence:
#
# PCOD8185897 Si02
#       5
#     8  16  16  16   8
#     4   8  14  31  56  81 108 142 180 225 277 333
#     4  11  23  39  56  80 110 147 192 237 278 328
#     4  10  20  38  60  84 113 148 184 228 279 330
#     4   8  17  34  58  82 109 143 180 222 279 335
#     4  10  18  31  54  87 118 146 180 223 273 335
#
# _framework density 20.456472999999999
#
# number of rings (size 3 to 8) (size 9 to 14) (size 15 to 20)
#    0.000    2.500    0.000    4.125    0.000    2.000 
#    0.000   17.500    0.000    0.000    0.000    0.000 
#    0.000    0.000    0.000    0.000    0.000    0.000 
#
# Total GULP energy -198250.291785 kJ/mol
# GULP energy per Si atom -12390.643237 kJ/mol
# Density = 2.040991 g / cm^3
# Si number density = 20.456473 Si / 1000 Ang^3
#
#
#
# Elastic Constant Matrix: (Units=GPa)
#
#
# Indices 1 2 3 4 5 6 
#
# 1 61.5018 31.7475 25.7064 0.0000 0.0000 0.0000
# 2 31.7475 214.6522 89.2018 0.0000 0.0000 0.0000
# 3 25.7064 89.2018 111.1246 0.0000 0.0000 0.0000
# 4 0.0000 0.0000 0.0000 39.3076 0.0000 0.0000
# 5 0.0000 0.0000 0.0000 0.0000 18.9792 0.0000
# 6 0.0000 0.0000 0.0000 0.0000 0.0000 21.4991
#
#
#
# Elastic Compliance Matrix: (Units=1/GPa)
#
#
# Indices 1 2 3 4 5 6 
#
# 1 0.018284 -0.001420 -0.003090 0.000000 0.000000 0.000000
# 2 -0.001420 0.007101 -0.005372 0.000000 0.000000 0.000000
# 3 -0.003090 -0.005372 0.014025 0.000000 0.000000 0.000000
# 4 0.000000 0.000000 0.000000 0.025440 0.000000 0.000000
# 5 0.000000 0.000000 0.000000 0.000000 0.052689 0.000000
# 6 0.000000 0.000000 0.000000 0.000000 0.000000 0.046513
#
#
# Mechanical properties :
#
#
# Convention : Reuss Voigt Hill
#
# Bulk Modulus (GPa) = 50.89625 75.62112 63.25868
# Shear Modulus (GPa) = 26.26522 31.99873 29.13197
#
# Velocity S-wave (km/s) = 3.58712 3.95933 3.77781
# Velocity P-wave (km/s) = 6.48775 7.61241 7.07247
#
# Compressibility (1/GPa) = 0.01964781
#
# Stress axis : x y z
#
# Youngs Moduli (GPa) = 54.69189 140.82542 71.29907
#
# Poissons Ratio (x) = 0.20003 0.22028
# Poissons Ratio (y) = 0.07768 0.38298
# Poissons Ratio (z) = 0.16897 0.75645
#
# Static dielectric constant tensor:
#      x y z
#    x 3.418740 0.000000 0.000000 
#    y 0.000000 4.158710 0.000000 
#    z 0.000000 0.000000 3.711560 
# 
# 
# High freq. dielectric constant tensor:
#      x y z
#    x 1.777230 0.000000 0.000000 
#    y 0.000000 1.813780 0.000000 
#    z 0.000000 0.000000 1.783730 
# 
# From -- ./inp_files/11890.got.cif
#   From: 2010.03.12/outbox.cif.g09.slc.cpg/sg42_6_cif.got.tgz:11890.got - 2010.04.14 02:04:31.
