data_PCOD8185018
_publ_section_title
;
Structure prediction by ZEFSAII (Michael W. Deem and Ramdas Pophale) SiO2 
 PCOD8185018
Probable space group: A B A 2
;
_chemical_formula_sum "Si O2"
_cell_formula_units_Z 56
_cell_length_a 28.183669
_cell_length_b 5.491598
_cell_length_c 14.587067
_cell_angle_alpha 90.000000
_cell_angle_beta 90.000000
_cell_angle_gamma 90.000000
_cell_volume 2257.689668
_symmetry_space_group_name_H-M "A B A 2"
_symmetry_group_IT_number 41
_symmetry_cell_setting 'orthorhombic'
loop_
_space_group_symop_operation_xyz
x,y,z
-x,-y,z
1/2-x,y,1/2+z
1/2+x,-y,1/2+z
x,1/2+y,1/2+z
-x,1/2-y,1/2+z
1/2-x,1/2+y,z
1/2+x,1/2-y,z
loop_
_atom_site_type_symbol
_atom_site_label
_atom_site_fract_x
_atom_site_fract_y
_atom_site_fract_z
Si Si1 0.366809 0.108298 0.519990
Si Si2 0.771933 0.213697 0.475083
Si Si3 0.046618 0.113856 0.776988
Si Si4 0.728067 0.286298 0.761595
Si Si5 0.453382 0.386146 0.459691
Si Si6 0.866810 0.108295 0.216690
Si Si7 0.113550 0.750001 0.868340
O O1 0.327993 0.317832 0.500042
O O2 0.421635 0.201354 0.520269
O O3 0.356478 0.000005 0.618340
O O4 0.355852 0.922033 0.435319
O O5 0.752583 0.471049 0.517885
O O6 0.761958 0.249997 0.368339
O O7 0.028245 0.250002 0.868340
O O8 0.078364 0.298649 0.716409
O O9 0.081272 0.895635 0.798297
O O10 0.000000 0.000000 0.726345
O O11 0.752583 0.528945 0.718793
O O12 0.672007 0.317828 0.736637
O O13 0.500000 0.500000 0.510335
O O14 0.418730 0.604374 0.438383
O O15 0.855853 0.922035 0.301362
#
# Coordination Sequence:
#
# PCOD8185018 Si02
#       7
#     8   8   8   8   8   8   8
#     4  11  26  43  67 106 143 187 237 299 369 443
#     4  10  23  43  73 106 145 193 250 305 369 443
#     4  10  20  40  71  97 130 182 232 292 357 433
#     4  10  23  43  73 106 145 193 250 305 369 443
#     4  10  20  40  71  97 130 182 232 292 357 433
#     4  11  26  43  67 106 143 187 237 299 369 443
#     4  10  22  42  70  92 136 182 234 294 358 436
#
# _framework density 24.804114999999999
#
# number of rings (size 3 to 8) (size 9 to 14) (size 15 to 20)
#    0.000    1.714    1.429    2.571   10.000    2.286 
#    0.000    4.286    0.000    0.000    0.000    0.000 
#    0.000    0.000    0.000    0.000    0.000    0.000 
#
# Total GULP energy -346961.521815 kJ/mol
# GULP energy per Si atom -12391.482922 kJ/mol
# Density = 2.474766 g / cm^3
# Si number density = 24.804115 Si / 1000 Ang^3
#
#
#
# Elastic Constant Matrix: (Units=GPa)
#
#
# Indices 1 2 3 4 5 6 
#
# 1 125.7270 43.6923 20.4579 0.0000 0.0000 0.0000
# 2 43.6923 125.5933 11.6749 0.0000 0.0000 0.0000
# 3 20.4579 11.6749 61.0157 0.0000 0.0000 0.0000
# 4 0.0000 0.0000 0.0000 5.2431 0.0000 0.0000
# 5 0.0000 0.0000 0.0000 0.0000 12.6199 0.0000
# 6 0.0000 0.0000 0.0000 0.0000 0.0000 40.7481
#
#
#
# Elastic Compliance Matrix: (Units=1/GPa)
#
#
# Indices 1 2 3 4 5 6 
#
# 1 0.009430 -0.003041 -0.002580 0.000000 0.000000 0.000000
# 2 -0.003041 0.009087 -0.000719 0.000000 0.000000 0.000000
# 3 -0.002580 -0.000719 0.017392 0.000000 0.000000 0.000000
# 4 0.000000 0.000000 0.000000 0.190728 0.000000 0.000000
# 5 0.000000 0.000000 0.000000 0.000000 0.079240 0.000000
# 6 0.000000 0.000000 0.000000 0.000000 0.000000 0.024541
#
#
# Mechanical properties :
#
#
# Convention : Reuss Voigt Hill
#
# Bulk Modulus (GPa) = 43.04954 51.55402 47.30178
# Shear Modulus (GPa) = 14.25148 27.48961 20.87054
#
# Velocity S-wave (km/s) = 2.39960 3.33268 2.90386
# Velocity P-wave (km/s) = 5.00709 5.96980 5.50951
#
# Compressibility (1/GPa) = 0.02322905
#
# Stress axis : x y z
#
# Youngs Moduli (GPa) = 106.04113 110.04820 57.49804
#
# Poissons Ratio (x) = 0.33464 0.14835
# Poissons Ratio (y) = 0.32245 0.04135
# Poissons Ratio (z) = 0.27359 0.07914
#
# Static dielectric constant tensor:
#      x y z
#    x 4.383510 0.000000 0.000000 
#    y 0.000000 4.664850 0.000000 
#    z 0.000000 0.000000 3.848110 
# 
# 
# High freq. dielectric constant tensor:
#      x y z
#    x 1.995200 0.000000 0.000000 
#    y 0.000000 1.995410 0.000000 
#    z 0.000000 0.000000 1.946220 
# 
# From -- ./inp_files/9274.got.cif
#   From: 2010.03.12/outbox.cif.g09.slc.cpg/sg41_5_cif.got.tgz:9274.got - 2010.04.14 01:55:53.
