data_PCOD8185082
_publ_section_title
;
Structure prediction by ZEFSAII (Michael W. Deem and Ramdas Pophale) SiO2 
 PCOD8185082
Probable space group: A B A 2
;
_chemical_formula_sum "Si O2"
_cell_formula_units_Z 60
_cell_length_a 31.225542
_cell_length_b 10.398479
_cell_length_c 8.790463
_cell_angle_alpha 90.000000
_cell_angle_beta 90.000000
_cell_angle_gamma 90.000000
_cell_volume 2854.247010
_symmetry_space_group_name_H-M "A B A 2"
_symmetry_group_IT_number 41
_symmetry_cell_setting 'orthorhombic'
loop_
_space_group_symop_operation_xyz
x,y,z
-x,-y,z
1/2-x,y,1/2+z
1/2+x,-y,1/2+z
x,1/2+y,1/2+z
-x,1/2-y,1/2+z
1/2-x,1/2+y,z
1/2+x,1/2-y,z
loop_
_atom_site_type_symbol
_atom_site_label
_atom_site_fract_x
_atom_site_fract_y
_atom_site_fract_z
Si Si1 0.706329 0.632228 0.990160
Si Si2 0.000000 0.500000 0.074463
Si Si3 0.341780 0.124170 0.487538
Si Si4 0.657876 0.367572 0.343973
Si Si5 0.798687 0.133340 0.348593
Si Si6 0.011323 0.829385 0.847477
Si Si7 0.936700 0.957095 0.998117
Si Si8 0.938177 0.425505 0.842208
O O1 0.687800 0.495223 0.935384
O O2 0.753755 0.651480 0.930022
O O3 0.676860 0.746682 0.930984
O O4 0.707955 0.638673 0.170142
O O5 0.003809 0.626246 0.179878
O O6 0.956972 0.519384 0.971666
O O7 0.335854 0.153200 0.665111
O O8 0.329726 0.250738 0.394630
O O9 0.390459 0.091328 0.445674
O O10 0.680619 0.498415 0.399372
O O11 0.608174 0.374446 0.389699
O O12 0.025880 0.684571 0.838898
O O13 0.971556 0.845851 0.963866
O O14 0.051313 0.916202 0.903400
O O15 0.936159 0.992599 0.177417
#
# Coordination Sequence:
#
# PCOD8185082 Si02
#       8
#     8   4   8   8   8   8   8   8
#     4  11  23  41  62  87 117 152 191 236 292 350
#     4  10  22  34  54  86 112 150 200 234 282 346
#     4  10  22  41  63  87 118 155 195 242 292 347
#     4  10  24  40  60  91 119 151 198 242 290 349
#     4  11  24  40  62  89 117 150 191 238 291 350
#     4  10  21  37  55  82 117 153 195 240 286 339
#     4   9  20  38  58  82 115 153 193 238 289 339
#     4  11  21  37  59  82 115 154 191 238 289 340
#
# _framework density 21.021305999999999
#
# number of rings (size 3 to 8) (size 9 to 14) (size 15 to 20)
#    0.000    1.867    0.000    4.000    0.000    9.600 
#    0.000    2.667    0.000    0.000    0.000    0.000 
#    0.000    0.000    0.000    0.000    0.000    0.000 
#
# Total GULP energy -372064.953757 kJ/mol
# GULP energy per Si atom -12402.165125 kJ/mol
# Density = 2.097346 g / cm^3
# Si number density = 21.021306 Si / 1000 Ang^3
#
#
#
# Elastic Constant Matrix: (Units=GPa)
#
#
# Indices 1 2 3 4 5 6 
#
# 1 98.0955 -0.7745 22.3242 0.0000 0.0000 0.0000
# 2 -0.7745 65.8649 13.9804 0.0000 0.0000 0.0000
# 3 22.3242 13.9804 72.7395 0.0000 0.0000 0.0000
# 4 0.0000 0.0000 0.0000 26.5342 0.0000 0.0000
# 5 0.0000 0.0000 0.0000 0.0000 28.8542 0.0000
# 6 0.0000 0.0000 0.0000 0.0000 0.0000 32.1123
#
#
#
# Elastic Compliance Matrix: (Units=1/GPa)
#
#
# Indices 1 2 3 4 5 6 
#
# 1 0.011009 0.000883 -0.003548 0.000000 0.000000 0.000000
# 2 0.000883 0.015899 -0.003327 0.000000 0.000000 0.000000
# 3 -0.003548 -0.003327 0.015476 0.000000 0.000000 0.000000
# 4 0.000000 0.000000 0.000000 0.037687 0.000000 0.000000
# 5 0.000000 0.000000 0.000000 0.000000 0.034657 0.000000
# 6 0.000000 0.000000 0.000000 0.000000 0.000000 0.031141
#
#
# Mechanical properties :
#
#
# Convention : Reuss Voigt Hill
#
# Bulk Modulus (GPa) = 32.89568 34.19558 33.54563
# Shear Modulus (GPa) = 29.76433 30.91146 30.33790
#
# Velocity S-wave (km/s) = 3.76694 3.83885 3.80307
# Velocity P-wave (km/s) = 5.88239 5.99595 5.93944
#
# Compressibility (1/GPa) = 0.03039913
#
# Stress axis : x y z
#
# Youngs Moduli (GPa) = 90.83796 62.89667 64.61598
#
# Poissons Ratio (x) = -0.05551 0.22927
# Poissons Ratio (y) = -0.08017 0.21496
# Poissons Ratio (z) = 0.32232 0.20924
#
# Static dielectric constant tensor:
#      x y z
#    x 3.993500 0.000000 0.000000 
#    y 0.000000 3.755740 0.000000 
#    z 0.000000 0.000000 3.878860 
# 
# 
# High freq. dielectric constant tensor:
#      x y z
#    x 1.834040 0.000000 0.000000 
#    y 0.000000 1.821750 0.000000 
#    z 0.000000 0.000000 1.829870 
# 
# From -- ./inp_files/3955.got.cif
#   From: 2010.03.12/outbox.cif.g09.slc.cpg/sg41_2_cif.got.tgz:3955.got - 2010.04.14 01:55:53.
