data_PCOD8185999
_publ_section_title
;
Structure prediction by ZEFSAII (Michael W. Deem and Ramdas Pophale) SiO2 
 PCOD8185999
Probable space group: F M M 2
;
_chemical_formula_sum "Si O2"
_cell_formula_units_Z 96
_cell_length_a 9.007835
_cell_length_b 19.231184
_cell_length_c 31.302557
_cell_angle_alpha 90.000000
_cell_angle_beta 90.000000
_cell_angle_gamma 90.000000
_cell_volume 5422.583654
_symmetry_space_group_name_H-M "F M M 2"
_symmetry_group_IT_number 42
_symmetry_cell_setting 'orthorhombic'
loop_
_space_group_symop_operation_xyz
x,y,z
-x,-y,z
-x,y,z
x,-y,z
x,1/2+y,1/2+z
-x,1/2-y,1/2+z
-x,1/2+y,1/2+z
x,1/2-y,1/2+z
1/2+x,y,1/2+z
1/2-x,-y,1/2+z
1/2-x,y,1/2+z
1/2+x,-y,1/2+z
1/2+x,1/2+y,z
1/2-x,1/2-y,z
1/2-x,1/2+y,z
1/2+x,1/2-y,z
loop_
_atom_site_type_symbol
_atom_site_label
_atom_site_fract_x
_atom_site_fract_y
_atom_site_fract_z
Si Si1 0.326041 0.324235 0.069250
Si Si2 0.327164 0.676400 0.975345
Si Si3 0.173564 0.079539 0.730598
Si Si4 0.832526 0.082680 0.315115
Si Si5 0.676198 0.174760 0.151519
Si Si6 0.675138 0.579384 0.899640
O O1 0.500000 0.317806 0.079644
O O2 0.250000 0.250000 0.067024
O O3 0.243272 0.362644 0.108683
O O4 0.299151 0.358000 0.022419
O O5 0.500000 0.690357 0.968834
O O6 0.250000 0.750000 0.969298
O O7 0.266428 0.622631 0.940274
O O8 0.254780 0.110610 0.772241
O O9 0.222130 0.125650 0.690523
O O10 0.000000 0.084565 0.739602
O O11 0.221314 0.000000 0.721430
O O12 0.749188 0.111179 0.357066
O O13 0.000000 0.110464 0.315968
O O14 0.823833 0.000000 0.315146
O O15 0.500000 0.182558 0.147189
O O16 0.750000 0.250000 0.158592
O O17 0.500000 0.585063 0.893972
O O18 0.724920 0.500000 0.907097
#
# Coordination Sequence:
#
# PCOD8185999 Si02
#       6
#    16  16  16  16  16  16
#     4   9  16  28  46  67  92 122 156 189 224 271
#     4   9  18  31  48  70  93 121 156 191 228 270
#     4   9  18  33  51  69  91 122 157 189 225 273
#     4   9  17  29  47  71  95 119 151 190 230 272
#     4  10  19  31  49  71  94 121 154 191 229 272
#     4   9  17  31  50  69  92 123 156 188 225 273
#
# _framework density 17.703738000000001
#
# number of rings (size 3 to 8) (size 9 to 14) (size 15 to 20)
#    0.000    2.833    0.000    2.500    0.000    4.667 
#    0.000    1.667    0.000    1.000    0.000    0.000 
#    0.000    0.000    0.000    0.000    0.000    0.000 
#
# Total GULP energy -297452.497587 kJ/mol
# GULP energy per Si atom -12393.854066 kJ/mol
# Density = 1.766344 g / cm^3
# Si number density = 17.703738 Si / 1000 Ang^3
#
#
#
# Elastic Constant Matrix: (Units=GPa)
#
#
# Indices 1 2 3 4 5 6 
#
# 1 70.9324 28.5872 68.1931 0.0000 0.0000 0.0000
# 2 28.5872 52.5373 63.5678 0.0000 0.0000 0.0000
# 3 68.1931 63.5678 205.8822 0.0000 0.0000 0.0000
# 4 0.0000 0.0000 0.0000 33.1430 0.0000 0.0000
# 5 0.0000 0.0000 0.0000 0.0000 27.7654 0.0000
# 6 0.0000 0.0000 0.0000 0.0000 0.0000 16.9596
#
#
#
# Elastic Compliance Matrix: (Units=1/GPa)
#
#
# Indices 1 2 3 4 5 6 
#
# 1 0.021449 -0.004909 -0.005589 0.000000 0.000000 0.000000
# 2 -0.004909 0.031509 -0.008103 0.000000 0.000000 0.000000
# 3 -0.005589 -0.008103 0.009210 0.000000 0.000000 0.000000
# 4 0.000000 0.000000 0.000000 0.030172 0.000000 0.000000
# 5 0.000000 0.000000 0.000000 0.000000 0.036016 0.000000
# 6 0.000000 0.000000 0.000000 0.000000 0.000000 0.058964
#
#
# Mechanical properties :
#
#
# Convention : Reuss Voigt Hill
#
# Bulk Modulus (GPa) = 40.05213 72.22759 56.13986
# Shear Modulus (GPa) = 21.47355 26.84051 24.15703
#
# Velocity S-wave (km/s) = 3.48651 3.89793 3.69794
# Velocity P-wave (km/s) = 6.23541 7.81952 7.07196
#
# Compressibility (1/GPa) = 0.02496746
#
# Stress axis : x y z
#
# Youngs Moduli (GPa) = 46.62136 31.73668 108.57647
#
# Poissons Ratio (x) = 0.15580 0.60682
# Poissons Ratio (y) = 0.22887 0.87977
# Poissons Ratio (z) = 0.26056 0.25715
#
# Static dielectric constant tensor:
#      x y z
#    x 3.331510 0.000000 0.000000 
#    y 0.000000 2.922420 0.000000 
#    z 0.000000 0.000000 3.992510 
# 
# 
# High freq. dielectric constant tensor:
#      x y z
#    x 1.689200 0.000000 0.000000 
#    y 0.000000 1.634690 0.000000 
#    z 0.000000 0.000000 1.708500 
# 
# From -- ./inp_files/28041.got.cif
#   From: 2010.03.12/outbox.cif.g09.slc.cpg/sg42_15_cif.got.tgz:28041.got - 2010.04.14 02:04:31.
