data_PCOD8185919
_publ_section_title
;
Structure prediction by ZEFSAII (Michael W. Deem and Ramdas Pophale) SiO2 
 PCOD8185919
Probable space group: F M M 2
;
_chemical_formula_sum "Si O2"
_cell_formula_units_Z 64
_cell_length_a 8.524953
_cell_length_b 14.950189
_cell_length_c 24.675179
_cell_angle_alpha 90.000000
_cell_angle_beta 90.000000
_cell_angle_gamma 90.000000
_cell_volume 3144.843139
_symmetry_space_group_name_H-M "F M M 2"
_symmetry_group_IT_number 42
_symmetry_cell_setting 'orthorhombic'
loop_
_space_group_symop_operation_xyz
x,y,z
-x,-y,z
-x,y,z
x,-y,z
x,1/2+y,1/2+z
-x,1/2-y,1/2+z
-x,1/2+y,1/2+z
x,1/2-y,1/2+z
1/2+x,y,1/2+z
1/2-x,-y,1/2+z
1/2-x,y,1/2+z
1/2+x,-y,1/2+z
1/2+x,1/2+y,z
1/2-x,1/2-y,z
1/2-x,1/2+y,z
1/2+x,1/2-y,z
loop_
_atom_site_type_symbol
_atom_site_label
_atom_site_fract_x
_atom_site_fract_y
_atom_site_fract_z
Si Si1 0.314148 0.651148 0.204540
Si Si2 0.185615 0.000000 0.124315
Si Si3 0.185899 0.849546 0.815544
Si Si4 0.314355 0.849751 0.926674
Si Si5 0.686583 0.000000 0.501905
O O1 0.500000 0.655262 0.209632
O O2 0.250000 0.750000 0.193631
O O3 0.255950 0.588907 0.155327
O O4 0.246550 0.606102 0.259899
O O5 0.250521 0.000000 0.063418
O O6 0.000000 0.000000 0.123655
O O7 0.250000 0.750000 0.814256
O O8 0.254877 0.894179 0.870071
O O9 0.000000 0.852978 0.818234
O O10 0.500000 0.847021 0.926846
O O11 0.250000 0.750000 0.934863
O O12 0.252790 0.910535 0.975113
O O13 0.500000 0.000000 0.498573
#
# Coordination Sequence:
#
# PCOD8185919 Si02
#       5
#    16   8  16  16   8
#     4  10  19  36  58  84 114 149 186 230 283 340
#     4   9  22  40  59  80 111 150 192 235 282 335
#     4  10  18  32  55  86 117 149 185 231 284 343
#     4  11  22  39  61  88 118 154 192 237 291 347
#     4  11  23  42  61  84 115 152 198 247 288 339
#
# _framework density 20.350776
#
# number of rings (size 3 to 8) (size 9 to 14) (size 15 to 20)
#    0.000    1.750    0.000    8.625    0.000    2.000 
#    0.000   13.750    0.000    0.000    0.000    0.000 
#    0.000    0.000    0.000    0.000    0.000    0.000 
#
# Total GULP energy -198360.959291 kJ/mol
# GULP energy per Si atom -12397.559956 kJ/mol
# Density = 2.030446 g / cm^3
# Si number density = 20.350776 Si / 1000 Ang^3
#
#
#
# Elastic Constant Matrix: (Units=GPa)
#
#
# Indices 1 2 3 4 5 6 
#
# 1 160.1506 41.4751 67.7467 0.0000 0.0000 0.0000
# 2 41.4751 108.4212 85.5444 0.0000 0.0000 0.0000
# 3 67.7467 85.5444 218.4728 0.0000 0.0000 0.0000
# 4 0.0000 0.0000 0.0000 38.6864 0.0000 0.0000
# 5 0.0000 0.0000 0.0000 0.0000 27.3530 0.0000
# 6 0.0000 0.0000 0.0000 0.0000 0.0000 24.4478
#
#
#
# Elastic Compliance Matrix: (Units=1/GPa)
#
#
# Indices 1 2 3 4 5 6 
#
# 1 0.007344 -0.001465 -0.001704 0.000000 0.000000 0.000000
# 2 -0.001465 0.013639 -0.004886 0.000000 0.000000 0.000000
# 3 -0.001704 -0.004886 0.007019 0.000000 0.000000 0.000000
# 4 0.000000 0.000000 0.000000 0.025849 0.000000 0.000000
# 5 0.000000 0.000000 0.000000 0.000000 0.036559 0.000000
# 6 0.000000 0.000000 0.000000 0.000000 0.000000 0.040904
#
#
# Mechanical properties :
#
#
# Convention : Reuss Voigt Hill
#
# Bulk Modulus (GPa) = 84.09068 97.39746 90.74407
# Shear Modulus (GPa) = 33.02788 37.58264 35.30526
#
# Velocity S-wave (km/s) = 4.03293 4.30204 4.16965
# Velocity P-wave (km/s) = 7.94332 8.52291 8.23821
#
# Compressibility (1/GPa) = 0.01189192
#
# Stress axis : x y z
#
# Youngs Moduli (GPa) = 136.16046 73.31980 142.47689
#
# Poissons Ratio (x) = 0.10743 0.24273
# Poissons Ratio (y) = 0.19951 0.69615
# Poissons Ratio (z) = 0.23197 0.35824
#
# Static dielectric constant tensor:
#      x y z
#    x 3.687660 0.000000 0.000000 
#    y 0.000000 3.583810 0.000000 
#    z 0.000000 0.000000 4.535390 
# 
# 
# High freq. dielectric constant tensor:
#      x y z
#    x 1.801680 0.000000 0.000000 
#    y 0.000000 1.785930 0.000000 
#    z 0.000000 0.000000 1.805890 
# 
# From -- ./inp_files/23189.got.cif
#   From: 2010.03.12/outbox.cif.g09.slc.cpg/sg42_12_cif.got.tgz:23189.got - 2010.04.14 02:04:31.
