data_PCOD8185457
_publ_section_title
;
Structure prediction by ZEFSAII (Michael W. Deem and Ramdas Pophale) SiO2 
 PCOD8185457
Probable space group: A B A 2
;
_chemical_formula_sum "Si O2"
_cell_formula_units_Z 52
_cell_length_a 5.417849
_cell_length_b 15.739579
_cell_length_c 26.918467
_cell_angle_alpha 90.000000
_cell_angle_beta 90.000000
_cell_angle_gamma 90.000000
_cell_volume 2295.463184
_symmetry_space_group_name_H-M "A B A 2"
_symmetry_group_IT_number 41
_symmetry_cell_setting 'orthorhombic'
loop_
_space_group_symop_operation_xyz
x,y,z
-x,-y,z
1/2-x,y,1/2+z
1/2+x,-y,1/2+z
x,1/2+y,1/2+z
-x,1/2-y,1/2+z
1/2-x,1/2+y,z
1/2+x,1/2-y,z
loop_
_atom_site_type_symbol
_atom_site_label
_atom_site_fract_x
_atom_site_fract_y
_atom_site_fract_z
Si Si1 0.246378 0.946102 0.424490
Si Si2 0.500000 0.500000 0.613927
Si Si3 0.943690 0.700650 0.610623
Si Si4 0.377711 0.583498 0.186817
Si Si5 0.232150 0.347764 0.328582
Si Si6 0.768500 0.845171 0.288224
Si Si7 0.676642 0.079873 0.534199
O O1 0.265317 0.864964 0.387669
O O2 0.211293 0.906644 0.479466
O O3 0.500000 0.000000 0.420338
O O4 0.000000 0.000000 0.411899
O O5 0.329676 0.556858 0.648146
O O6 0.619068 0.568135 0.576540
O O7 0.710244 0.759234 0.619800
O O8 0.960210 0.664215 0.554006
O O9 0.913568 0.628744 0.653415
O O10 0.500000 0.500000 0.212028
O O11 0.271032 0.648166 0.228442
O O12 0.232257 0.249657 0.311286
O O13 0.481052 0.391329 0.307028
O O14 0.982319 0.391341 0.306882
O O15 0.500000 0.000000 0.532900
#
# Coordination Sequence:
#
# PCOD8185457 Si02
#       7
#     8   4   8   8   8   8   8
#     4  11  24  42  78 107 137 190 244 301 363 430
#     4  12  20  46  74 100 152 180 250 298 352 428
#     4  12  27  43  68 106 150 189 237 296 364 444
#     4  12  27  43  74 105 139 200 249 296 363 441
#     4  10  23  48  66 100 139 183 236 299 365 425
#     4  10  25  44  71  97 139 189 231 300 363 427
#     4  11  23  46  72 107 146 192 241 299 361 433
#
# _framework density 22.653379000000001
#
# number of rings (size 3 to 8) (size 9 to 14) (size 15 to 20)
#    0.000    0.923    3.846    1.846    6.462    1.846 
#    5.538    0.000    0.000    0.000    0.000    0.000 
#    0.000    0.000    0.000    0.000    0.000    0.000 
#
# Total GULP energy -322149.519683 kJ/mol
# GULP energy per Si atom -12390.366142 kJ/mol
# Density = 2.260182 g / cm^3
# Si number density = 22.653379 Si / 1000 Ang^3
#
#
#
# Elastic Constant Matrix: (Units=GPa)
#
#
# Indices 1 2 3 4 5 6 
#
# 1 177.7251 26.9383 56.9287 0.0000 0.0000 0.0000
# 2 26.9383 84.3399 62.3463 0.0000 0.0000 0.0000
# 3 56.9287 62.3463 203.2128 0.0000 0.0000 0.0000
# 4 0.0000 0.0000 0.0000 -9.4180 0.0000 0.0000
# 5 0.0000 0.0000 0.0000 0.0000 -81.3078 0.0000
# 6 0.0000 0.0000 0.0000 0.0000 0.0000 24.1631
#
#
#
# Elastic Compliance Matrix: (Units=1/GPa)
#
#
# Indices 1 2 3 4 5 6 
#
# 1 0.006234 -0.000906 -0.001469 0.000000 0.000000 0.000000
# 2 -0.000906 0.015466 -0.004491 0.000000 0.000000 0.000000
# 3 -0.001469 -0.004491 0.006710 0.000000 0.000000 0.000000
# 4 0.000000 0.000000 0.000000 -0.106180 0.000000 0.000000
# 5 0.000000 0.000000 0.000000 0.000000 -0.012299 0.000000
# 6 0.000000 0.000000 0.000000 0.000000 0.000000 0.041385
#
#
# Mechanical properties :
#
#
# Convention : Reuss Voigt Hill
#
# Bulk Modulus (GPa) = 68.12158 84.18937 76.15547
# Shear Modulus (GPa) = -166.34604 7.95843 -79.19380
#
# Velocity S-wave (km/s) = -8.57849 1.87637 -5.91902
# Velocity P-wave (km/s) = 8.24524 6.47605 3.60866
#
# Compressibility (1/GPa) = 0.01467964
#
# Stress axis : x y z
#
# Youngs Moduli (GPa) = 160.40094 64.65723 149.02333
#
# Poissons Ratio (x) = 0.05855 0.21887
# Poissons Ratio (y) = 0.14526 0.66932
# Poissons Ratio (z) = 0.23558 0.29040
#
# Static dielectric constant tensor:
#      x y z
#    x 5.003540 0.000000 0.000000 
#    y 0.000000 5.552130 0.000000 
#    z 0.000000 0.000000 4.350000 
# 
# 
# High freq. dielectric constant tensor:
#      x y z
#    x 1.917000 0.000000 0.000000 
#    y 0.000000 1.870990 0.000000 
#    z 0.000000 0.000000 1.899090 
# 
# From -- ./inp_files/12406.got.cif
#   From: 2010.03.12/outbox.cif.g09.slc.cpg/sg41_7_cif.got.tgz:12406.got - 2010.04.14 01:55:53.
