data_PCOD8185855
_publ_section_title
;
Structure prediction by ZEFSAII (Michael W. Deem and Ramdas Pophale) SiO2 
 PCOD8185855
Probable space group: F M M 2
;
_chemical_formula_sum "Si O2"
_cell_formula_units_Z 96
_cell_length_a 10.404075
_cell_length_b 18.631020
_cell_length_c 28.243227
_cell_angle_alpha 90.000000
_cell_angle_beta 90.000000
_cell_angle_gamma 90.000000
_cell_volume 5474.625587
_symmetry_space_group_name_H-M "F M M 2"
_symmetry_group_IT_number 42
_symmetry_cell_setting 'orthorhombic'
loop_
_space_group_symop_operation_xyz
x,y,z
-x,-y,z
-x,y,z
x,-y,z
x,1/2+y,1/2+z
-x,1/2-y,1/2+z
-x,1/2+y,1/2+z
x,1/2-y,1/2+z
1/2+x,y,1/2+z
1/2-x,-y,1/2+z
1/2-x,y,1/2+z
1/2+x,-y,1/2+z
1/2+x,1/2+y,z
1/2-x,1/2-y,z
1/2-x,1/2+y,z
1/2+x,1/2-y,z
loop_
_atom_site_type_symbol
_atom_site_label
_atom_site_fract_x
_atom_site_fract_y
_atom_site_fract_z
Si Si1 0.350471 0.583919 0.143250
Si Si2 0.753639 0.166522 0.229701
Si Si3 0.356737 0.585281 0.038598
Si Si4 0.500000 0.914668 0.384403
Si Si5 0.500000 0.585709 0.389239
Si Si6 0.000000 0.331549 0.791220
Si Si7 0.000000 0.663722 0.286190
Si Si8 0.753975 0.085208 0.941680
O O1 0.500000 0.603276 0.150843
O O2 0.327493 0.500000 0.150633
O O3 0.261720 0.625497 0.180124
O O4 0.306304 0.608814 0.090472
O O5 0.750000 0.250000 0.217770
O O6 0.874310 0.145613 0.262202
O O7 0.624397 0.142795 0.255870
O O8 0.500000 0.615891 0.029904
O O9 0.364692 0.500000 0.037543
O O10 0.264960 0.613272 0.996109
O O11 0.500000 0.884727 0.332054
O O12 0.625753 0.885633 0.411529
O O13 0.500000 0.000000 0.381922
O O14 0.500000 0.500000 0.381715
O O15 0.500000 0.623963 0.339105
O O16 0.622871 0.613376 0.418612
O O17 0.000000 0.246826 0.801719
O O18 0.755151 0.000000 0.941308
#
# Coordination Sequence:
#
# PCOD8185855 Si02
#       8
#    16  16  16   8   8   8   8  16
#     4   9  17  30  53  81 101 125 168 214 248 286
#     4  10  20  35  52  71  99 134 169 204 249 304
#     4   8  13  25  47  74 100 125 157 198 242 292
#     4  10  18  30  49  70  92 122 163 204 237 284
#     4  10  20  30  47  74 100 128 163 206 249 286
#     4  10  20  36  51  66  96 134 171 206 239 298
#     4  10  22  34  49  70  96 134 167 200 253 300
#     4   9  16  28  46  72 101 126 156 197 245 293
#
# _framework density 17.535444999999999
#
# number of rings (size 3 to 8) (size 9 to 14) (size 15 to 20)
#    0.000    2.667    1.667    2.000    0.000    1.333 
#    0.000    0.833    0.000    4.000    0.000    0.000 
#    0.000    0.000    0.000    0.000    0.000    0.000 
#
# Total GULP energy -297526.897007 kJ/mol
# GULP energy per Si atom -12396.954042 kJ/mol
# Density = 1.749553 g / cm^3
# Si number density = 17.535445 Si / 1000 Ang^3
#
#
#
# Elastic Constant Matrix: (Units=GPa)
#
#
# Indices 1 2 3 4 5 6 
#
# 1 140.2855 27.3105 87.0077 0.0000 0.0000 0.0000
# 2 27.3105 25.8573 45.1912 0.0000 0.0000 0.0000
# 3 87.0077 45.1912 182.9900 0.0000 0.0000 0.0000
# 4 0.0000 0.0000 0.0000 -5.2730 0.0000 0.0000
# 5 0.0000 0.0000 0.0000 0.0000 20.6154 0.0000
# 6 0.0000 0.0000 0.0000 0.0000 0.0000 5.8017
#
#
#
# Elastic Compliance Matrix: (Units=1/GPa)
#
#
# Indices 1 2 3 4 5 6 
#
# 1 0.010351 -0.004101 -0.003909 0.000000 0.000000 0.000000
# 2 -0.004101 0.069667 -0.015255 0.000000 0.000000 0.000000
# 3 -0.003909 -0.015255 0.011091 0.000000 0.000000 0.000000
# 4 0.000000 0.000000 0.000000 -0.189647 0.000000 0.000000
# 5 0.000000 0.000000 0.000000 0.000000 0.048507 0.000000
# 6 0.000000 0.000000 0.000000 0.000000 0.000000 0.172363
#
#
# Mechanical properties :
#
#
# Convention : Reuss Voigt Hill
#
# Bulk Modulus (GPa) = 22.43230 74.23905 48.33568
# Shear Modulus (GPa) = 27.21517 16.87040 22.04278
#
# Velocity S-wave (km/s) = 3.94383 3.10510 3.54932
# Velocity P-wave (km/s) = 5.79299 7.43532 6.66493
#
# Compressibility (1/GPa) = 0.04457857
#
# Stress axis : x y z
#
# Youngs Moduli (GPa) = 96.60807 14.35408 90.16566
#
# Poissons Ratio (x) = 0.05887 0.35245
# Poissons Ratio (y) = 0.39621 1.37546
# Poissons Ratio (z) = 0.37763 0.21897
#
# Static dielectric constant tensor:
#      x y z
#    x 4.547170 0.000000 0.000000 
#    y 0.000000 2.825930 0.000000 
#    z 0.000000 0.000000 3.495600 
# 
# 
# High freq. dielectric constant tensor:
#      x y z
#    x 1.674250 0.000000 0.000000 
#    y 0.000000 1.632610 0.000000 
#    z 0.000000 0.000000 1.694850 
# 
# From -- ./inp_files/28155.got.cif
#   From: 2010.03.12/outbox.cif.g09.slc.cpg/sg42_15_cif.got.tgz:28155.got - 2010.04.14 02:04:31.
