data_PCOD8185792
_publ_section_title
;
Structure prediction by ZEFSAII (Michael W. Deem and Ramdas Pophale) SiO2 
 PCOD8185792
Probable space group: F M M 2
;
_chemical_formula_sum "Si O2"
_cell_formula_units_Z 112
_cell_length_a 20.888565
_cell_length_b 18.419034
_cell_length_c 18.985954
_cell_angle_alpha 90.000000
_cell_angle_beta 90.000000
_cell_angle_gamma 90.000000
_cell_volume 7304.792431
_symmetry_space_group_name_H-M "F M M 2"
_symmetry_group_IT_number 42
_symmetry_cell_setting 'orthorhombic'
loop_
_space_group_symop_operation_xyz
x,y,z
-x,-y,z
-x,y,z
x,-y,z
x,1/2+y,1/2+z
-x,1/2-y,1/2+z
-x,1/2+y,1/2+z
x,1/2-y,1/2+z
1/2+x,y,1/2+z
1/2-x,-y,1/2+z
1/2-x,y,1/2+z
1/2+x,-y,1/2+z
1/2+x,1/2+y,z
1/2-x,1/2-y,z
1/2-x,1/2+y,z
1/2+x,1/2-y,z
loop_
_atom_site_type_symbol
_atom_site_label
_atom_site_fract_x
_atom_site_fract_y
_atom_site_fract_z
Si Si1 0.741416 0.582115 0.011900
Si Si2 0.833602 0.917058 0.379917
Si Si3 0.929352 0.919427 0.577990
Si Si4 0.426808 0.181143 0.945659
Si Si5 0.193096 0.417510 0.158179
Si Si6 0.683707 0.295934 0.934369
Si Si7 0.766512 0.831233 0.792952
O O1 0.714204 0.500000 0.011202
O O2 0.766527 0.603948 0.088891
O O3 0.798670 0.589440 0.955468
O O4 0.685379 0.638472 0.991011
O O5 0.901592 0.875835 0.386963
O O6 0.794978 0.876218 0.318933
O O7 0.844466 0.000000 0.357104
O O8 0.923125 0.857380 0.520541
O O9 0.881392 0.905040 0.641789
O O10 0.000000 0.918316 0.611085
O O11 0.914598 0.000000 0.544667
O O12 0.500000 0.203927 0.927621
O O13 0.380338 0.250776 0.948449
O O14 0.207941 0.500000 0.179664
O O15 0.206974 0.367204 0.223430
O O16 0.750000 0.250000 0.939910
O O17 0.680738 0.329819 0.855636
O O18 0.750000 0.750000 0.770791
#
# Coordination Sequence:
#
# PCOD8185792 Si02
#       7
#    16  16  16  16  16  16  16
#     4   9  17  29  50  73  95 123 161 202 244 287
#     4  10  17  31  50  71  97 128 158 198 247 300
#     4   9  17  29  45  69 101 127 151 193 252 308
#     4  11  19  29  50  77 101 127 159 202 249 299
#     4  10  18  29  45  72  97 123 165 207 244 294
#     4  10  17  33  49  67  99 132 161 199 246 292
#     4  10  19  31  46  66  96 129 166 200 245 285
#
# _framework density 15.3324
#
# number of rings (size 3 to 8) (size 9 to 14) (size 15 to 20)
#    0.000    2.143    5.714    0.857    0.000    3.143 
#    0.000    0.714    0.000    0.429    0.000    0.000 
#    0.000    1.143    0.000    0.000    0.000    0.143 
#
# Total GULP energy -347032.153701 kJ/mol
# GULP energy per Si atom -12394.005489 kJ/mol
# Density = 1.529750 g / cm^3
# Si number density = 15.332400 Si / 1000 Ang^3
#
#
#
# Elastic Constant Matrix: (Units=GPa)
#
#
# Indices 1 2 3 4 5 6 
#
# 1 105.5815 64.3114 43.8048 0.0000 0.0000 0.0000
# 2 64.3114 113.5655 57.4259 0.0000 0.0000 0.0000
# 3 43.8048 57.4259 95.6665 0.0000 0.0000 0.0000
# 4 0.0000 0.0000 0.0000 26.9858 0.0000 0.0000
# 5 0.0000 0.0000 0.0000 0.0000 16.1450 0.0000
# 6 0.0000 0.0000 0.0000 0.0000 0.0000 24.1365
#
#
#
# Elastic Compliance Matrix: (Units=1/GPa)
#
#
# Indices 1 2 3 4 5 6 
#
# 1 0.014870 -0.007147 -0.002518 0.000000 0.000000 0.000000
# 2 -0.007147 0.016078 -0.006379 0.000000 0.000000 0.000000
# 3 -0.002518 -0.006379 0.015435 0.000000 0.000000 0.000000
# 4 0.000000 0.000000 0.000000 0.037057 0.000000 0.000000
# 5 0.000000 0.000000 0.000000 0.000000 0.061939 0.000000
# 6 0.000000 0.000000 0.000000 0.000000 0.000000 0.041431
#
#
# Mechanical properties :
#
#
# Convention : Reuss Voigt Hill
#
# Bulk Modulus (GPa) = 69.95716 71.76640 70.86178
# Shear Modulus (GPa) = 22.35505 23.40489 22.87997
#
# Velocity S-wave (km/s) = 3.82255 3.91128 3.86717
# Velocity P-wave (km/s) = 8.07519 8.20403 8.13986
#
# Compressibility (1/GPa) = 0.01429446
#
# Stress axis : x y z
#
# Youngs Moduli (GPa) = 67.25102 62.19543 64.78704
#
# Poissons Ratio (x) = 0.44452 0.16317
# Poissons Ratio (y) = 0.48065 0.41326
# Poissons Ratio (z) = 0.16937 0.39673
#
# Static dielectric constant tensor:
#      x y z
#    x 2.888990 0.000000 0.000000 
#    y 0.000000 3.167070 0.000000 
#    z 0.000000 0.000000 2.764760 
# 
# 
# High freq. dielectric constant tensor:
#      x y z
#    x 1.561230 0.000000 0.000000 
#    y 0.000000 1.598830 0.000000 
#    z 0.000000 0.000000 1.568410 
# 
# From -- ./inp_files/21077.got.cif
#   From: 2010.03.12/outbox.cif.g09.slc.cpg/sg42_11_cif.got.tgz:21077.got - 2010.04.14 02:04:31.
