data_PCOD8185913
_publ_section_title
;
Structure prediction by ZEFSAII (Michael W. Deem and Ramdas Pophale) SiO2 
 PCOD8185913
Probable space group: F M M 2
;
_chemical_formula_sum "Si O2"
_cell_formula_units_Z 96
_cell_length_a 8.906259
_cell_length_b 33.890259
_cell_length_c 16.016313
_cell_angle_alpha 90.000000
_cell_angle_beta 90.000000
_cell_angle_gamma 90.000000
_cell_volume 4834.290629
_symmetry_space_group_name_H-M "F M M 2"
_symmetry_group_IT_number 42
_symmetry_cell_setting 'orthorhombic'
loop_
_space_group_symop_operation_xyz
x,y,z
-x,-y,z
-x,y,z
x,-y,z
x,1/2+y,1/2+z
-x,1/2-y,1/2+z
-x,1/2+y,1/2+z
x,1/2-y,1/2+z
1/2+x,y,1/2+z
1/2-x,-y,1/2+z
1/2-x,y,1/2+z
1/2+x,-y,1/2+z
1/2+x,1/2+y,z
1/2-x,1/2-y,z
1/2-x,1/2+y,z
1/2+x,1/2-y,z
loop_
_atom_site_type_symbol
_atom_site_label
_atom_site_fract_x
_atom_site_fract_y
_atom_site_fract_z
Si Si1 0.678495 0.207468 0.253890
Si Si2 0.178566 0.000000 0.093858
Si Si3 0.322522 0.581897 0.840664
Si Si4 0.828595 0.919293 0.172153
Si Si5 0.827707 0.663266 0.601700
Si Si6 0.320440 0.500000 0.908006
Si Si7 0.178181 0.661144 0.416730
O O1 0.500000 0.210502 0.254060
O O2 0.750000 0.250000 0.245552
O O3 0.726498 0.182391 0.173150
O O4 0.738922 0.188400 0.340864
O O5 0.238712 0.960416 0.137920
O O6 0.000000 0.000000 0.090775
O O7 0.243344 0.000000 0.001071
O O8 0.500000 0.579673 0.842319
O O9 0.269900 0.594497 0.749575
O O10 0.254670 0.539144 0.863962
O O11 0.265403 0.616139 0.903097
O O12 0.817339 0.884445 0.104192
O O13 0.000000 0.925581 0.200573
O O14 0.768734 0.675821 0.508790
O O15 0.000000 0.676881 0.615180
O O16 0.500000 0.500000 0.906418
O O17 0.000000 0.661715 0.414398
#
# Coordination Sequence:
#
# PCOD8185913 Si02
#       7
#    16   8  16  16  16   8  16
#     4  11  23  41  62  86 115 146 180 229 285 341
#     4   9  17  30  47  75 110 147 192 235 275 320
#     4  10  18  32  53  78 109 146 189 232 275 326
#     4  10  19  31  52  79 111 148 188 233 278 325
#     4  10  20  37  60  86 114 150 192 232 277 334
#     4   9  17  28  49  77 104 143 194 235 267 320
#     4   9  19  36  59  83 113 150 187 228 276 330
#
# _framework density 19.858136999999999
#
# number of rings (size 3 to 8) (size 9 to 14) (size 15 to 20)
#    0.000    2.167    1.667    2.000    0.000    4.667 
#    0.000    4.167    0.000    4.000    0.000    0.000 
#    0.000    0.000    0.000    0.000    0.000    0.000 
#
# Total GULP energy -297496.166578 kJ/mol
# GULP energy per Si atom -12395.673607 kJ/mol
# Density = 1.981294 g / cm^3
# Si number density = 19.858137 Si / 1000 Ang^3
#
#
#
# Elastic Constant Matrix: (Units=GPa)
#
#
# Indices 1 2 3 4 5 6 
#
# 1 27.2792 26.6564 20.8632 0.0000 0.0000 0.0000
# 2 26.6564 120.9094 50.8325 0.0000 0.0000 0.0000
# 3 20.8632 50.8325 150.1480 0.0000 0.0000 0.0000
# 4 0.0000 0.0000 0.0000 24.2253 0.0000 0.0000
# 5 0.0000 0.0000 0.0000 0.0000 25.6306 0.0000
# 6 0.0000 0.0000 0.0000 0.0000 0.0000 13.0933
#
#
#
# Elastic Compliance Matrix: (Units=1/GPa)
#
#
# Indices 1 2 3 4 5 6 
#
# 1 0.048360 -0.009137 -0.003626 0.000000 0.000000 0.000000
# 2 -0.009137 0.011370 -0.002580 0.000000 0.000000 0.000000
# 3 -0.003626 -0.002580 0.008037 0.000000 0.000000 0.000000
# 4 0.000000 0.000000 0.000000 0.041279 0.000000 0.000000
# 5 0.000000 0.000000 0.000000 0.000000 0.039016 0.000000
# 6 0.000000 0.000000 0.000000 0.000000 0.000000 0.076375
#
#
# Mechanical properties :
#
#
# Convention : Reuss Voigt Hill
#
# Bulk Modulus (GPa) = 26.96810 55.00452 40.98631
# Shear Modulus (GPa) = 18.69279 25.92214 22.30747
#
# Velocity S-wave (km/s) = 3.07142 3.61691 3.35526
# Velocity P-wave (km/s) = 5.11742 6.72321 5.97451
#
# Compressibility (1/GPa) = 0.03708085
#
# Stress axis : x y z
#
# Youngs Moduli (GPa) = 20.67826 87.95407 124.42034
#
# Poissons Ratio (x) = 0.80365 0.45118
# Poissons Ratio (y) = 0.18894 0.32095
# Poissons Ratio (z) = 0.07499 0.22688
#
# Static dielectric constant tensor:
#      x y z
#    x 3.149420 0.000000 0.000000 
#    y 0.000000 3.831800 0.000000 
#    z 0.000000 0.000000 3.794690 
# 
# 
# High freq. dielectric constant tensor:
#      x y z
#    x 1.727370 0.000000 0.000000 
#    y 0.000000 1.783530 0.000000 
#    z 0.000000 0.000000 1.784790 
# 
# From -- ./inp_files/13179.got.cif
#   From: 2010.03.12/outbox.cif.g09.slc.cpg/sg42_7_cif.got.tgz:13179.got - 2010.04.14 02:04:31.
