data_PCOD8185513
_publ_section_title
;
Structure prediction by ZEFSAII (Michael W. Deem and Ramdas Pophale) SiO2 
 PCOD8185513
Probable space group: A B A 2
;
_chemical_formula_sum "Si O2"
_cell_formula_units_Z 44
_cell_length_a 16.390699
_cell_length_b 23.159950
_cell_length_c 5.310734
_cell_angle_alpha 90.000000
_cell_angle_beta 90.000000
_cell_angle_gamma 90.000000
_cell_volume 2015.995887
_symmetry_space_group_name_H-M "A B A 2"
_symmetry_group_IT_number 41
_symmetry_cell_setting 'orthorhombic'
loop_
_space_group_symop_operation_xyz
x,y,z
-x,-y,z
1/2-x,y,1/2+z
1/2+x,-y,1/2+z
x,1/2+y,1/2+z
-x,1/2-y,1/2+z
1/2-x,1/2+y,z
1/2+x,1/2-y,z
loop_
_atom_site_type_symbol
_atom_site_label
_atom_site_fract_x
_atom_site_fract_y
_atom_site_fract_z
Si Si1 0.699453 0.688263 0.115640
Si Si2 0.587937 0.589434 0.243520
Si Si3 0.000000 0.000000 0.891032
Si Si4 0.928050 0.914014 0.531399
Si Si5 0.198747 0.510524 0.822622
Si Si6 0.800921 0.321192 0.132370
O O1 0.755790 0.673772 0.355060
O O2 0.618048 0.649517 0.124659
O O3 0.671969 0.754641 0.128153
O O4 0.518990 0.604343 0.448745
O O5 0.665834 0.555059 0.353723
O O6 0.550170 0.547418 0.039072
O O7 0.067169 0.033808 0.729318
O O8 0.875401 0.942844 0.306008
O O9 0.883890 0.857887 0.643723
O O10 0.248526 0.522806 0.570330
O O11 0.749091 0.336430 0.380203
#
# Coordination Sequence:
#
# PCOD8185513 Si02
#       6
#     8   8   4   8   8   8
#     4  10  24  48  73 101 134 178 233 284 338 407
#     4  12  25  43  66 100 140 182 222 288 342 406
#     4  12  24  44  64  96 152 174 226 276 342 414
#     4  12  25  43  66 100 140 182 222 288 342 406
#     4  12  24  40  65  95 130 178 228 266 332 398
#     4  10  24  48  73 101 134 178 233 284 338 407
#
# _framework density 21.825441000000001
#
# number of rings (size 3 to 8) (size 9 to 14) (size 15 to 20)
#    0.000    0.727    3.636    3.273    5.091    0.000 
#    3.273    0.000    0.000    0.000    0.000    0.000 
#    0.000    0.000    0.000    0.000    0.000    0.000 
#
# Total GULP energy -272840.713399 kJ/mol
# GULP energy per Si atom -12401.850609 kJ/mol
# Density = 2.177577 g / cm^3
# Si number density = 21.825441 Si / 1000 Ang^3
#
#
#
# Elastic Constant Matrix: (Units=GPa)
#
#
# Indices 1 2 3 4 5 6 
#
# 1 77.4195 43.5333 29.3867 0.0000 0.0000 0.0000
# 2 43.5333 111.9547 23.6668 0.0000 0.0000 0.0000
# 3 29.3867 23.6668 120.0934 0.0000 0.0000 0.0000
# 4 0.0000 0.0000 0.0000 23.0907 0.0000 0.0000
# 5 0.0000 0.0000 0.0000 0.0000 20.1672 0.0000
# 6 0.0000 0.0000 0.0000 0.0000 0.0000 57.3367
#
#
#
# Elastic Compliance Matrix: (Units=1/GPa)
#
#
# Indices 1 2 3 4 5 6 
#
# 1 0.017559 -0.006177 -0.003079 0.000000 0.000000 0.000000
# 2 -0.006177 0.011493 -0.000754 0.000000 0.000000 0.000000
# 3 -0.003079 -0.000754 0.009229 0.000000 0.000000 0.000000
# 4 0.000000 0.000000 0.000000 0.043308 0.000000 0.000000
# 5 0.000000 0.000000 0.000000 0.000000 0.049585 0.000000
# 6 0.000000 0.000000 0.000000 0.000000 0.000000 0.017441
#
#
# Mechanical properties :
#
#
# Convention : Reuss Voigt Hill
#
# Bulk Modulus (GPa) = 54.75958 55.84903 55.30431
# Shear Modulus (GPa) = 28.61704 34.31096 31.46400
#
# Velocity S-wave (km/s) = 3.62495 3.96923 3.80099
# Velocity P-wave (km/s) = 6.53181 6.83014 6.68264
#
# Compressibility (1/GPa) = 0.01826164
#
# Stress axis : x y z
#
# Youngs Moduli (GPa) = 56.95193 87.00748 108.35568
#
# Poissons Ratio (x) = 0.53742 0.33366
# Poissons Ratio (y) = 0.35177 0.08165
# Poissons Ratio (z) = 0.17537 0.06556
#
# Static dielectric constant tensor:
#      x y z
#    x 4.406810 0.000000 0.000000 
#    y 0.000000 4.102080 0.000000 
#    z 0.000000 0.000000 4.026480 
# 
# 
# High freq. dielectric constant tensor:
#      x y z
#    x 1.858150 0.000000 0.000000 
#    y 0.000000 1.864610 0.000000 
#    z 0.000000 0.000000 1.865470 
# 
# From -- ./inp_files/272.got.cif
#   From: 2010.03.12/outbox.cif.g09.slc.cpg/sg41_1_cif.got.tgz:272.got - 2010.04.14 01:55:53.
