data_PCOD8185486
_publ_section_title
;
Structure prediction by ZEFSAII (Michael W. Deem and Ramdas Pophale) SiO2 
 PCOD8185486
Probable space group: A B A 2
;
_chemical_formula_sum "Si O2"
_cell_formula_units_Z 64
_cell_length_a 8.358385
_cell_length_b 15.078578
_cell_length_c 22.331798
_cell_angle_alpha 90.000000
_cell_angle_beta 90.000000
_cell_angle_gamma 90.000000
_cell_volume 2814.533675
_symmetry_space_group_name_H-M "A B A 2"
_symmetry_group_IT_number 41
_symmetry_cell_setting 'orthorhombic'
loop_
_space_group_symop_operation_xyz
x,y,z
-x,-y,z
1/2-x,y,1/2+z
1/2+x,-y,1/2+z
x,1/2+y,1/2+z
-x,1/2-y,1/2+z
1/2-x,1/2+y,z
1/2+x,1/2-y,z
loop_
_atom_site_type_symbol
_atom_site_label
_atom_site_fract_x
_atom_site_fract_y
_atom_site_fract_z
Si Si1 0.228645 0.623159 0.629290
Si Si2 0.177535 0.538784 0.247402
Si Si3 0.560039 0.801040 0.315980
Si Si4 0.130090 0.306908 0.635533
Si Si5 0.830498 0.148305 0.005554
Si Si6 0.725500 0.643409 0.264654
Si Si7 0.681507 0.967142 0.006201
Si Si8 0.657480 0.311814 0.951347
O O1 0.250680 0.553743 0.682267
O O2 0.361905 0.700015 0.634654
O O3 0.254488 0.568426 0.569199
O O4 0.053788 0.665105 0.635684
O O5 0.182749 0.629701 0.285097
O O6 0.287690 0.462089 0.277985
O O7 0.000000 0.500000 0.241995
O O8 0.584535 0.699727 0.294659
O O9 0.382262 0.819996 0.296395
O O10 0.578691 0.810890 0.386485
O O11 0.216633 0.342284 0.575430
O O12 0.226505 0.343299 0.692875
O O13 0.789680 0.049259 0.984406
O O14 0.730484 0.216402 0.965335
O O15 0.018927 0.165899 0.998892
O O16 0.500000 0.000000 0.009704
O O17 0.705097 0.887503 0.958003
#
# Coordination Sequence:
#
# PCOD8185486 Si02
#       8
#     8   8   8   8   8   8   8   8
#     4  12  25  44  71 109 145 186 238 301 370 453
#     4  10  24  43  69 100 141 183 230 294 369 430
#     4  11  25  46  70 102 137 190 243 291 362 434
#     4  12  24  42  75 102 143 185 235 293 377 432
#     4  12  25  46  71 103 144 189 239 306 372 441
#     4  11  24  44  71 101 141 183 231 304 361 440
#     4  12  27  44  73 107 146 188 243 306 375 440
#     4  12  26  47  73 103 144 195 253 304 365 443
#
# _framework density 22.739111999999999
#
# number of rings (size 3 to 8) (size 9 to 14) (size 15 to 20)
#    0.000    0.500    3.750    3.750    3.500    5.500 
#    0.000    0.000    0.000    0.000    0.000    0.000 
#    0.000    0.000    0.000    0.000    0.000    0.000 
#
# Total GULP energy -396861.582019 kJ/mol
# GULP energy per Si atom -12401.924438 kJ/mol
# Density = 2.268736 g / cm^3
# Si number density = 22.739112 Si / 1000 Ang^3
#
#
#
# Elastic Constant Matrix: (Units=GPa)
#
#
# Indices 1 2 3 4 5 6 
#
# 1 79.9156 31.8234 30.8608 0.0000 0.0000 0.0000
# 2 31.8234 121.2599 10.2209 0.0000 0.0000 0.0000
# 3 30.8608 10.2209 122.4890 0.0000 0.0000 0.0000
# 4 0.0000 0.0000 0.0000 21.4508 0.0000 0.0000
# 5 0.0000 0.0000 0.0000 0.0000 35.0253 0.0000
# 6 0.0000 0.0000 0.0000 0.0000 0.0000 35.4983
#
#
#
# Elastic Compliance Matrix: (Units=1/GPa)
#
#
# Indices 1 2 3 4 5 6 
#
# 1 0.015376 -0.003735 -0.003562 0.000000 0.000000 0.000000
# 2 -0.003735 0.009212 0.000172 0.000000 0.000000 0.000000
# 3 -0.003562 0.000172 0.009047 0.000000 0.000000 0.000000
# 4 0.000000 0.000000 0.000000 0.046618 0.000000 0.000000
# 5 0.000000 0.000000 0.000000 0.000000 0.028551 0.000000
# 6 0.000000 0.000000 0.000000 0.000000 0.000000 0.028170
#
#
# Mechanical properties :
#
#
# Convention : Reuss Voigt Hill
#
# Bulk Modulus (GPa) = 51.58455 52.16388 51.87421
# Shear Modulus (GPa) = 31.70833 35.11217 33.41025
#
# Velocity S-wave (km/s) = 3.73827 3.93381 3.83728
# Velocity P-wave (km/s) = 6.43176 6.60478 6.51884
#
# Compressibility (1/GPa) = 0.01938565
#
# Stress axis : x y z
#
# Youngs Moduli (GPa) = 65.03552 108.54871 110.53217
#
# Poissons Ratio (x) = 0.40544 0.39375
# Poissons Ratio (y) = 0.24291 -0.01905
# Poissons Ratio (z) = 0.23168 -0.01871
#
# Static dielectric constant tensor:
#      x y z
#    x 3.998480 0.000000 0.000000 
#    y 0.000000 4.612950 0.000000 
#    z 0.000000 0.000000 4.049730 
# 
# 
# High freq. dielectric constant tensor:
#      x y z
#    x 1.892990 0.000000 0.000000 
#    y 0.000000 1.917870 0.000000 
#    z 0.000000 0.000000 1.893800 
# 
# From -- ./inp_files/12059.got.cif
#   From: 2010.03.12/outbox.cif.g09.slc.cpg/sg41_7_cif.got.tgz:12059.got - 2010.04.14 01:55:53.
