data_PCOD8185236
_publ_section_title
;
Structure prediction by ZEFSAII (Michael W. Deem and Ramdas Pophale) SiO2 
 PCOD8185236
Probable space group: A B A 2
;
_chemical_formula_sum "Si O2"
_cell_formula_units_Z 60
_cell_length_a 16.723503
_cell_length_b 18.077485
_cell_length_c 9.061003
_cell_angle_alpha 90.000000
_cell_angle_beta 90.000000
_cell_angle_gamma 90.000000
_cell_volume 2739.312230
_symmetry_space_group_name_H-M "A B A 2"
_symmetry_group_IT_number 41
_symmetry_cell_setting 'orthorhombic'
loop_
_space_group_symop_operation_xyz
x,y,z
-x,-y,z
1/2-x,y,1/2+z
1/2+x,-y,1/2+z
x,1/2+y,1/2+z
-x,1/2-y,1/2+z
1/2-x,1/2+y,z
1/2+x,1/2-y,z
loop_
_atom_site_type_symbol
_atom_site_label
_atom_site_fract_x
_atom_site_fract_y
_atom_site_fract_z
Si Si1 0.500000 0.500000 0.721210
Si Si2 0.182337 0.786072 0.394638
Si Si3 0.085443 0.392998 0.415315
Si Si4 0.833003 0.979551 0.560960
Si Si5 0.896577 0.236163 0.693002
Si Si6 0.246081 0.439191 0.327144
Si Si7 0.177758 0.682437 0.932654
Si Si8 0.570556 0.720814 0.140924
O O1 0.488878 0.431046 0.831970
O O2 0.576334 0.486952 0.617243
O O3 0.161705 0.795917 0.566885
O O4 0.230813 0.852528 0.314698
O O5 0.234301 0.711311 0.387644
O O6 0.097926 0.777741 0.310559
O O7 0.110372 0.322722 0.320902
O O8 0.163093 0.446322 0.420668
O O9 0.063301 0.363752 0.578561
O O10 0.814053 0.896143 0.512703
O O11 0.769516 0.015160 0.676313
O O12 0.821380 0.025345 0.411008
O O13 0.871101 0.313717 0.775298
O O14 0.984674 0.241655 0.625493
O O15 0.137492 0.735021 0.052709
#
# Coordination Sequence:
#
# PCOD8185236 Si02
#       8
#     4   8   8   8   8   8   8   8
#     4  10  22  44  72  94 142 188 226 288 360 420
#     4  12  22  40  73  93 135 179 230 287 336 418
#     4  10  21  43  66  96 133 181 226 272 346 418
#     4  11  26  43  68 101 137 180 231 288 354 418
#     4  11  23  40  66  98 133 174 230 283 352 408
#     4  11  23  42  69  95 132 182 234 279 340 428
#     4  11  25  41  65  98 139 175 226 284 355 406
#     4  11  23  40  67 101 132 174 229 285 342 412
#
# _framework density 21.903309
#
# number of rings (size 3 to 8) (size 9 to 14) (size 15 to 20)
#    0.000    1.067    2.667    5.600    3.733    1.067 
#    2.400    1.333    0.000    1.600    0.000    0.000 
#    0.000    0.000    0.000    0.000    0.000    0.000 
#
# Total GULP energy -371721.798072 kJ/mol
# GULP energy per Si atom -12390.726602 kJ/mol
# Density = 2.185346 g / cm^3
# Si number density = 21.903309 Si / 1000 Ang^3
#
#
#
# Elastic Constant Matrix: (Units=GPa)
#
#
# Indices 1 2 3 4 5 6 
#
# 1 103.1939 35.8906 37.2896 0.0000 0.0000 0.0000
# 2 35.8906 117.6205 48.9942 0.0000 0.0000 0.0000
# 3 37.2896 48.9942 111.8437 0.0000 0.0000 0.0000
# 4 0.0000 0.0000 0.0000 43.5761 0.0000 0.0000
# 5 0.0000 0.0000 0.0000 0.0000 41.4591 0.0000
# 6 0.0000 0.0000 0.0000 0.0000 0.0000 29.2955
#
#
#
# Elastic Compliance Matrix: (Units=1/GPa)
#
#
# Indices 1 2 3 4 5 6 
#
# 1 0.011523 -0.002343 -0.002815 0.000000 0.000000 0.000000
# 2 -0.002343 0.010876 -0.003983 0.000000 0.000000 0.000000
# 3 -0.002815 -0.003983 0.011625 0.000000 0.000000 0.000000
# 4 0.000000 0.000000 0.000000 0.022948 0.000000 0.000000
# 5 0.000000 0.000000 0.000000 0.000000 0.024120 0.000000
# 6 0.000000 0.000000 0.000000 0.000000 0.000000 0.034135
#
#
# Mechanical properties :
#
#
# Convention : Reuss Voigt Hill
#
# Bulk Modulus (GPa) = 63.53241 64.11185 63.82213
# Shear Modulus (GPa) = 36.03420 36.89837 36.46629
#
# Velocity S-wave (km/s) = 4.06044 4.10884 4.08472
# Velocity P-wave (km/s) = 7.14505 7.20028 7.17272
#
# Compressibility (1/GPa) = 0.01574000
#
# Stress axis : x y z
#
# Youngs Moduli (GPa) = 86.78423 91.94469 86.02513
#
# Poissons Ratio (x) = 0.21546 0.24218
# Poissons Ratio (y) = 0.20337 0.34264
# Poissons Ratio (z) = 0.24432 0.36622
#
# Static dielectric constant tensor:
#      x y z
#    x 3.994890 0.000000 0.000000 
#    y 0.000000 4.167040 0.000000 
#    z 0.000000 0.000000 4.098550 
# 
# 
# High freq. dielectric constant tensor:
#      x y z
#    x 1.864450 0.000000 0.000000 
#    y 0.000000 1.844020 0.000000 
#    z 0.000000 0.000000 1.868070 
# 
# From -- ./inp_files/3151.got.cif
#   From: 2010.03.12/outbox.cif.g09.slc.cpg/sg41_2_cif.got.tgz:3151.got - 2010.04.14 01:55:53.
