data_PCOD8185214
_publ_section_title
;
Structure prediction by ZEFSAII (Michael W. Deem and Ramdas Pophale) SiO2 
 PCOD8185214
Probable space group: A B A 2
;
_chemical_formula_sum "Si O2"
_cell_formula_units_Z 56
_cell_length_a 19.751145
_cell_length_b 11.412183
_cell_length_c 12.794873
_cell_angle_alpha 90.000000
_cell_angle_beta 90.000000
_cell_angle_gamma 90.000000
_cell_volume 2884.011475
_symmetry_space_group_name_H-M "A B A 2"
_symmetry_group_IT_number 41
_symmetry_cell_setting 'orthorhombic'
loop_
_space_group_symop_operation_xyz
x,y,z
-x,-y,z
1/2-x,y,1/2+z
1/2+x,-y,1/2+z
x,1/2+y,1/2+z
-x,1/2-y,1/2+z
1/2-x,1/2+y,z
1/2+x,1/2-y,z
loop_
_atom_site_type_symbol
_atom_site_label
_atom_site_fract_x
_atom_site_fract_y
_atom_site_fract_z
Si Si1 0.987912 0.133236 0.151370
Si Si2 0.271390 0.198284 0.635948
Si Si3 0.196911 0.529414 0.803813
Si Si4 0.178498 0.103878 0.926190
Si Si5 0.560758 0.073301 0.427943
Si Si6 0.610758 0.764788 0.766663
Si Si7 0.647610 0.717646 0.248068
O O1 0.927872 0.197592 0.210957
O O2 0.054471 0.206346 0.179490
O O3 0.971771 0.137364 0.028308
O O4 0.000000 0.000000 0.189019
O O5 0.296682 0.190383 0.517702
O O6 0.323675 0.281528 0.701592
O O7 0.196116 0.251649 0.648932
O O8 0.274261 0.068422 0.689469
O O9 0.254902 0.535148 0.890764
O O10 0.134015 0.617963 0.830600
O O11 0.172843 0.397573 0.805881
O O12 0.147471 0.178461 0.831766
O O13 0.121830 0.011768 0.965082
O O14 0.587085 0.167110 0.346372
O O15 0.500000 0.000000 0.374032
#
# Coordination Sequence:
#
# PCOD8185214 Si02
#       7
#     8   8   8   8   8   8   8
#     4  11  21  38  65  88 122 167 214 254 317 387
#     4   9  21  37  59  88 123 160 205 256 309 377
#     4   9  21  38  58  86 124 167 200 259 307 372
#     4  11  22  37  62  96 124 164 214 258 321 373
#     4  11  23  39  66  91 124 168 209 261 315 390
#     4  10  21  42  62  89 123 167 213 253 316 377
#     4  11  21  36  61  92 121 162 212 262 309 371
#
# _framework density 19.417399
#
# number of rings (size 3 to 8) (size 9 to 14) (size 15 to 20)
#    0.857    0.857    1.429    4.286    2.000    1.143 
#    0.000    0.000    3.143    0.000    0.000    0.000 
#    0.000    0.000    0.000    0.000    0.000    0.000 
#
# Total GULP energy -347017.810092 kJ/mol
# GULP energy per Si atom -12393.493218 kJ/mol
# Density = 1.937320 g / cm^3
# Si number density = 19.417399 Si / 1000 Ang^3
#
#
#
# Elastic Constant Matrix: (Units=GPa)
#
#
# Indices 1 2 3 4 5 6 
#
# 1 99.5544 11.1191 24.6448 0.0000 0.0000 0.0000
# 2 11.1191 56.1521 13.1033 0.0000 0.0000 0.0000
# 3 24.6448 13.1033 70.7715 0.0000 0.0000 0.0000
# 4 0.0000 0.0000 0.0000 20.7482 0.0000 0.0000
# 5 0.0000 0.0000 0.0000 0.0000 27.8398 0.0000
# 6 0.0000 0.0000 0.0000 0.0000 0.0000 34.8531
#
#
#
# Elastic Compliance Matrix: (Units=1/GPa)
#
#
# Indices 1 2 3 4 5 6 
#
# 1 0.011090 -0.001353 -0.003611 0.000000 0.000000 0.000000
# 2 -0.001353 0.018778 -0.003005 0.000000 0.000000 0.000000
# 3 -0.003611 -0.003005 0.015944 0.000000 0.000000 0.000000
# 4 0.000000 0.000000 0.000000 0.048197 0.000000 0.000000
# 5 0.000000 0.000000 0.000000 0.000000 0.035920 0.000000
# 6 0.000000 0.000000 0.000000 0.000000 0.000000 0.028692
#
#
# Mechanical properties :
#
#
# Convention : Reuss Voigt Hill
#
# Bulk Modulus (GPa) = 33.47633 36.02360 34.74996
# Shear Modulus (GPa) = 27.09762 28.52893 27.81328
#
# Velocity S-wave (km/s) = 3.73974 3.83723 3.78880
# Velocity P-wave (km/s) = 5.99377 6.18264 6.08894
#
# Compressibility (1/GPa) = 0.02987186
#
# Stress axis : x y z
#
# Youngs Moduli (GPa) = 90.17234 53.25358 62.71958
#
# Poissons Ratio (x) = 0.07207 0.22650
# Poissons Ratio (y) = 0.12203 0.18850
# Poissons Ratio (z) = 0.32564 0.16005
#
# Static dielectric constant tensor:
#      x y z
#    x 3.835930 0.000000 0.000000 
#    y 0.000000 3.355520 0.000000 
#    z 0.000000 0.000000 3.271730 
# 
# 
# High freq. dielectric constant tensor:
#      x y z
#    x 1.775580 0.000000 0.000000 
#    y 0.000000 1.740230 0.000000 
#    z 0.000000 0.000000 1.737730 
# 
# From -- ./inp_files/6227.got.cif
#   From: 2010.03.12/outbox.cif.g09.slc.cpg/sg41_4_cif.got.tgz:6227.got - 2010.04.14 01:55:53.
