data_PCOD8185363
_publ_section_title
;
Structure prediction by ZEFSAII (Michael W. Deem and Ramdas Pophale) SiO2 
 PCOD8185363
Probable space group: A B A 2
;
_chemical_formula_sum "Si O2"
_cell_formula_units_Z 48
_cell_length_a 8.162323
_cell_length_b 22.339511
_cell_length_c 11.486144
_cell_angle_alpha 90.000000
_cell_angle_beta 90.000000
_cell_angle_gamma 90.000000
_cell_volume 2094.409966
_symmetry_space_group_name_H-M "A B A 2"
_symmetry_group_IT_number 41
_symmetry_cell_setting 'orthorhombic'
loop_
_space_group_symop_operation_xyz
x,y,z
-x,-y,z
1/2-x,y,1/2+z
1/2+x,-y,1/2+z
x,1/2+y,1/2+z
-x,1/2-y,1/2+z
1/2-x,1/2+y,z
1/2+x,1/2-y,z
loop_
_atom_site_type_symbol
_atom_site_label
_atom_site_fract_x
_atom_site_fract_y
_atom_site_fract_z
Si Si1 0.581951 0.838227 0.785360
Si Si2 0.076018 0.722757 0.330701
Si Si3 0.044077 0.432709 0.952917
Si Si4 0.968781 0.658059 0.541976
Si Si5 0.380441 0.358299 0.658009
Si Si6 0.597970 0.560759 0.872257
O O1 0.424776 0.794762 0.811933
O O2 0.744120 0.805687 0.831867
O O3 0.548143 0.903601 0.841290
O O4 0.599470 0.846935 0.646536
O O5 0.995295 0.715461 0.458957
O O6 0.967985 0.696567 0.223731
O O7 0.236025 0.443447 0.942015
O O8 0.000000 0.500000 0.981044
O O9 0.004384 0.386697 0.057745
O O10 0.788514 0.662232 0.598306
O O11 0.011977 0.603766 0.453286
O O12 0.353482 0.411930 0.748399
O O13 0.500000 0.500000 0.853117
#
# Coordination Sequence:
#
# PCOD8185363 Si02
#       6
#     8   8   8   8   8   8
#     4  12  27  46  70 108 143 191 242 303 373 433
#     4  11  28  43  75 103 143 188 244 302 372 436
#     4  11  26  43  67 105 146 190 236 293 357 437
#     4  10  24  46  69 103 141 184 240 297 362 432
#     4  10  22  47  71  99 141 186 243 294 361 419
#     4  10  22  43  72 101 140 188 237 290 353 425
#
# _framework density 22.918151000000002
#
# number of rings (size 3 to 8) (size 9 to 14) (size 15 to 20)
#    0.000    1.333    1.667    1.500   14.000    0.667 
#    0.000    0.000    0.000    0.000    0.000    0.000 
#    0.000    0.000    0.000    0.000    0.000    0.000 
#
# Total GULP energy -297446.187997 kJ/mol
# GULP energy per Si atom -12393.591167 kJ/mol
# Density = 2.286599 g / cm^3
# Si number density = 22.918151 Si / 1000 Ang^3
#
#
#
# Elastic Constant Matrix: (Units=GPa)
#
#
# Indices 1 2 3 4 5 6 
#
# 1 69.1371 12.4636 17.9617 0.0000 0.0000 0.0000
# 2 12.4636 45.8883 12.7509 0.0000 0.0000 0.0000
# 3 17.9617 12.7509 150.9568 0.0000 0.0000 0.0000
# 4 0.0000 0.0000 0.0000 21.7888 0.0000 0.0000
# 5 0.0000 0.0000 0.0000 0.0000 98.9670 0.0000
# 6 0.0000 0.0000 0.0000 0.0000 0.0000 29.7229
#
#
#
# Elastic Compliance Matrix: (Units=1/GPa)
#
#
# Indices 1 2 3 4 5 6 
#
# 1 0.015546 -0.003798 -0.001529 0.000000 0.000000 0.000000
# 2 -0.003798 0.023243 -0.001511 0.000000 0.000000 0.000000
# 3 -0.001529 -0.001511 0.006934 0.000000 0.000000 0.000000
# 4 0.000000 0.000000 0.000000 0.045895 0.000000 0.000000
# 5 0.000000 0.000000 0.000000 0.000000 0.010104 0.000000
# 6 0.000000 0.000000 0.000000 0.000000 0.000000 0.033644
#
#
# Mechanical properties :
#
#
# Convention : Reuss Voigt Hill
#
# Bulk Modulus (GPa) = 31.20377 39.14831 35.17604
# Shear Modulus (GPa) = 31.30378 44.94949 38.12664
#
# Velocity S-wave (km/s) = 3.69981 4.43347 4.08315
# Velocity P-wave (km/s) = 5.64768 6.58228 6.13281
#
# Compressibility (1/GPa) = 0.03204741
#
# Stress axis : x y z
#
# Youngs Moduli (GPa) = 64.32596 43.02289 144.21680
#
# Poissons Ratio (x) = 0.16338 0.22050
# Poissons Ratio (y) = 0.24428 0.21798
# Poissons Ratio (z) = 0.09835 0.06503
#
# Static dielectric constant tensor:
#      x y z
#    x 1.444280 0.000000 0.000000 
#    y 0.000000 4.434330 0.000000 
#    z 0.000000 0.000000 4.448460 
# 
# 
# High freq. dielectric constant tensor:
#      x y z
#    x 1.893550 0.000000 0.000000 
#    y 0.000000 1.902120 0.000000 
#    z 0.000000 0.000000 1.924800 
# 
# From -- ./inp_files/4515.got.cif
#   From: 2010.03.12/outbox.cif.g09.slc.cpg/sg41_3_cif.got.tgz:4515.got - 2010.04.14 01:55:53.
