data_PCOD8185135
_publ_section_title
;
Structure prediction by ZEFSAII (Michael W. Deem and Ramdas Pophale) SiO2 
 PCOD8185135
Probable space group: A B A 2
;
_chemical_formula_sum "Si O2"
_cell_formula_units_Z 52
_cell_length_a 25.965901
_cell_length_b 11.660432
_cell_length_c 8.719461
_cell_angle_alpha 90.000000
_cell_angle_beta 90.000000
_cell_angle_gamma 90.000000
_cell_volume 2640.022797
_symmetry_space_group_name_H-M "A B A 2"
_symmetry_group_IT_number 41
_symmetry_cell_setting 'orthorhombic'
loop_
_space_group_symop_operation_xyz
x,y,z
-x,-y,z
1/2-x,y,1/2+z
1/2+x,-y,1/2+z
x,1/2+y,1/2+z
-x,1/2-y,1/2+z
1/2-x,1/2+y,z
1/2+x,1/2-y,z
loop_
_atom_site_type_symbol
_atom_site_label
_atom_site_fract_x
_atom_site_fract_y
_atom_site_fract_z
Si Si1 0.924356 0.957439 0.588440
Si Si2 0.252589 0.099868 0.449192
Si Si3 0.072420 0.612133 0.742306
Si Si4 0.315092 0.483307 0.688694
Si Si5 0.817304 0.284657 0.702548
Si Si6 0.014133 0.344703 0.238960
Si Si7 0.500000 0.500000 0.017658
O O1 0.924251 0.948878 0.405706
O O2 0.956961 0.854513 0.666013
O O3 0.866907 0.947254 0.652457
O O4 0.947980 0.080457 0.632748
O O5 0.211148 0.173182 0.355323
O O6 0.283209 0.189115 0.554293
O O7 0.292778 0.033254 0.344752
O O8 0.224749 0.002880 0.550432
O O9 0.128148 0.652681 0.687475
O O10 0.031345 0.714634 0.745910
O O11 0.050676 0.521066 0.620540
O O12 0.326895 0.350203 0.711456
O O13 0.013520 0.390882 0.412653
#
# Coordination Sequence:
#
# PCOD8185135 Si02
#       7
#     8   8   8   8   8   8   4
#     4  10  21  39  63  87 122 158 195 249 307 351
#     4  10  24  41  62  91 123 156 208 251 299 362
#     4  12  22  40  63  90 123 159 202 246 301 364
#     4  11  21  43  63  89 124 160 199 256 303 359
#     4  11  23  39  66  90 120 163 200 248 307 360
#     4  10  23  42  60  86 123 161 196 251 297 359
#     4  10  24  38  60  90 118 154 208 242 294 366
#
# _framework density 19.6968
#
# number of rings (size 3 to 8) (size 9 to 14) (size 15 to 20)
#    0.000    1.538    3.077    2.769    4.308    0.000 
#    0.000    1.538    0.000    0.000    0.000    0.000 
#    0.000    0.000    0.000    0.000    0.000    0.000 
#
# Total GULP energy -322502.597269 kJ/mol
# GULP energy per Si atom -12403.946049 kJ/mol
# Density = 1.965197 g / cm^3
# Si number density = 19.696800 Si / 1000 Ang^3
#
#
#
# Elastic Constant Matrix: (Units=GPa)
#
#
# Indices 1 2 3 4 5 6 
#
# 1 107.9722 25.2707 35.8222 0.0000 0.0000 0.0000
# 2 25.2707 44.4701 24.7738 0.0000 0.0000 0.0000
# 3 35.8222 24.7738 101.2014 0.0000 0.0000 0.0000
# 4 0.0000 0.0000 0.0000 18.1661 0.0000 0.0000
# 5 0.0000 0.0000 0.0000 0.0000 -2.3522 0.0000
# 6 0.0000 0.0000 0.0000 0.0000 0.0000 31.4912
#
#
#
# Elastic Compliance Matrix: (Units=1/GPa)
#
#
# Indices 1 2 3 4 5 6 
#
# 1 0.011338 -0.004871 -0.002821 0.000000 0.000000 0.000000
# 2 -0.004871 0.028131 -0.005162 0.000000 0.000000 0.000000
# 3 -0.002821 -0.005162 0.012143 0.000000 0.000000 0.000000
# 4 0.000000 0.000000 0.000000 0.055048 0.000000 0.000000
# 5 0.000000 0.000000 0.000000 0.000000 -0.425129 0.000000
# 6 0.000000 0.000000 0.000000 0.000000 0.000000 0.031755
#
#
# Mechanical properties :
#
#
# Convention : Reuss Voigt Hill
#
# Bulk Modulus (GPa) = 38.60444 47.26411 42.93427
# Shear Modulus (GPa) = -19.81203 20.64613 0.41705
#
# Velocity S-wave (km/s) = -3.17495 3.24110 0.46065
# Velocity P-wave (km/s) = 2.49027 6.16881 4.70402
#
# Compressibility (1/GPa) = 0.02590376
#
# Stress axis : x y z
#
# Youngs Moduli (GPa) = 88.20211 35.54799 82.34936
#
# Poissons Ratio (x) = 0.17317 0.23228
# Poissons Ratio (y) = 0.42966 0.42509
# Poissons Ratio (z) = 0.24879 0.18350
#
# Static dielectric constant tensor:
#      x y z
#    x 3.750660 0.000000 0.000000 
#    y 0.000000 3.363280 0.000000 
#    z 0.000000 0.000000 3.721550 
# 
# 
# High freq. dielectric constant tensor:
#      x y z
#    x 1.780860 0.000000 0.000000 
#    y 0.000000 1.755410 0.000000 
#    z 0.000000 0.000000 1.782970 
# 
# From -- ./inp_files/3775.got.cif
#   From: 2010.03.12/outbox.cif.g09.slc.cpg/sg41_2_cif.got.tgz:3775.got - 2010.04.14 01:55:53.
