data_PCOD8185586
_publ_section_title
;
Structure prediction by ZEFSAII (Michael W. Deem and Ramdas Pophale) SiO2 
 PCOD8185586
Probable space group: A B A 2
;
_chemical_formula_sum "Si O2"
_cell_formula_units_Z 52
_cell_length_a 11.288796
_cell_length_b 26.669543
_cell_length_c 7.568360
_cell_angle_alpha 90.000000
_cell_angle_beta 90.000000
_cell_angle_gamma 90.000000
_cell_volume 2278.583670
_symmetry_space_group_name_H-M "A B A 2"
_symmetry_group_IT_number 41
_symmetry_cell_setting 'orthorhombic'
loop_
_space_group_symop_operation_xyz
x,y,z
-x,-y,z
1/2-x,y,1/2+z
1/2+x,-y,1/2+z
x,1/2+y,1/2+z
-x,1/2-y,1/2+z
1/2-x,1/2+y,z
1/2+x,1/2-y,z
loop_
_atom_site_type_symbol
_atom_site_label
_atom_site_fract_x
_atom_site_fract_y
_atom_site_fract_z
Si Si1 0.347233 0.167484 0.475850
Si Si2 0.110492 0.711974 0.108023
Si Si3 0.882794 0.940937 0.053512
Si Si4 0.605467 0.579025 0.244133
Si Si5 0.462217 0.311518 0.271803
Si Si6 0.000000 0.500000 0.991438
Si Si7 0.789357 0.499265 0.248653
O O1 0.228171 0.199549 0.498244
O O2 0.406144 0.178188 0.284439
O O3 0.317537 0.108444 0.479773
O O4 0.426615 0.179484 0.645242
O O5 0.117221 0.768882 0.179696
O O6 0.002047 0.704548 0.970172
O O7 0.023775 0.929880 0.068797
O O8 0.822563 0.960571 0.235886
O O9 0.857691 0.989227 0.930315
O O10 0.616358 0.638031 0.286921
O O11 0.527739 0.550990 0.389813
O O12 0.738201 0.556274 0.233963
O O13 0.881873 0.487381 0.097177
#
# Coordination Sequence:
#
# PCOD8185586 Si02
#       7
#     8   8   8   8   8   4   8
#     4  11  24  41  72 106 133 178 242 299 352 416
#     4  12  23  45  71 104 137 184 236 304 353 425
#     4  11  23  42  71  98 135 182 231 290 349 418
#     4  11  25  48  65 101 147 178 235 299 351 422
#     4  11  26  45  72 101 142 186 235 296 367 426
#     4  12  26  40  70 100 138 192 230 280 350 430
#     4  12  24  43  68 102 139 183 231 288 346 423
#
# _framework density 22.821193000000001
#
# number of rings (size 3 to 8) (size 9 to 14) (size 15 to 20)
#    0.000    0.615    6.154    0.923    8.615    0.000 
#    2.769    0.000    0.000    0.000    0.000    0.000 
#    0.000    0.000    0.000    0.000    0.000    0.000 
#
# Total GULP energy -322244.627117 kJ/mol
# GULP energy per Si atom -12394.024120 kJ/mol
# Density = 2.276925 g / cm^3
# Si number density = 22.821193 Si / 1000 Ang^3
#
#
#
# Elastic Constant Matrix: (Units=GPa)
#
#
# Indices 1 2 3 4 5 6 
#
# 1 60.8725 41.0645 19.4758 0.0000 0.0000 0.0000
# 2 41.0645 151.1203 40.5206 0.0000 0.0000 0.0000
# 3 19.4758 40.5206 116.1946 0.0000 0.0000 0.0000
# 4 0.0000 0.0000 0.0000 23.4466 0.0000 0.0000
# 5 0.0000 0.0000 0.0000 0.0000 18.6141 0.0000
# 6 0.0000 0.0000 0.0000 0.0000 0.0000 34.7141
#
#
#
# Elastic Compliance Matrix: (Units=1/GPa)
#
#
# Indices 1 2 3 4 5 6 
#
# 1 0.020394 -0.005102 -0.001639 0.000000 0.000000 0.000000
# 2 -0.005102 0.008576 -0.002136 0.000000 0.000000 0.000000
# 3 -0.001639 -0.002136 0.009626 0.000000 0.000000 0.000000
# 4 0.000000 0.000000 0.000000 0.042650 0.000000 0.000000
# 5 0.000000 0.000000 0.000000 0.000000 0.053723 0.000000
# 6 0.000000 0.000000 0.000000 0.000000 0.000000 0.028807
#
#
# Mechanical properties :
#
#
# Convention : Reuss Voigt Hill
#
# Bulk Modulus (GPa) = 47.97920 58.92324 53.45122
# Shear Modulus (GPa) = 26.52841 30.49672 28.51257
#
# Velocity S-wave (km/s) = 3.41317 3.65956 3.53851
# Velocity P-wave (km/s) = 6.05000 6.61302 6.33777
#
# Compressibility (1/GPa) = 0.02084237
#
# Stress axis : x y z
#
# Youngs Moduli (GPa) = 49.03361 116.59974 103.88826
#
# Poissons Ratio (x) = 0.59493 0.17027
# Poissons Ratio (y) = 0.25018 0.22187
# Poissons Ratio (z) = 0.08037 0.24901
#
# Static dielectric constant tensor:
#      x y z
#    x 4.128710 0.000000 0.000000 
#    y 0.000000 4.688410 0.000000 
#    z 0.000000 0.000000 4.456920 
# 
# 
# High freq. dielectric constant tensor:
#      x y z
#    x 1.886990 0.000000 0.000000 
#    y 0.000000 1.899600 0.000000 
#    z 0.000000 0.000000 1.911750 
# 
# From -- ./inp_files/2149.got.cif
#   From: 2010.03.12/outbox.cif.g09.slc.cpg/sg41_2_cif.got.tgz:2149.got - 2010.04.14 01:55:53.
