data_PCOD8185587
_publ_section_title
;
Structure prediction by ZEFSAII (Michael W. Deem and Ramdas Pophale) SiO2 
 PCOD8185587
Probable space group: A B A 2
;
_chemical_formula_sum "Si O2"
_cell_formula_units_Z 48
_cell_length_a 13.564087
_cell_length_b 16.621471
_cell_length_c 9.381882
_cell_angle_alpha 90.000000
_cell_angle_beta 90.000000
_cell_angle_gamma 90.000000
_cell_volume 2115.192945
_symmetry_space_group_name_H-M "A B A 2"
_symmetry_group_IT_number 41
_symmetry_cell_setting 'orthorhombic'
loop_
_space_group_symop_operation_xyz
x,y,z
-x,-y,z
1/2-x,y,1/2+z
1/2+x,-y,1/2+z
x,1/2+y,1/2+z
-x,1/2-y,1/2+z
1/2-x,1/2+y,z
1/2+x,1/2-y,z
loop_
_atom_site_type_symbol
_atom_site_label
_atom_site_fract_x
_atom_site_fract_y
_atom_site_fract_z
Si Si1 0.500000 0.500000 0.627260
Si Si2 0.809302 0.062554 0.748531
Si Si3 0.813113 0.712230 0.819062
Si Si4 0.304800 0.190249 0.029890
Si Si5 0.000000 0.000000 0.144923
Si Si6 0.708492 0.476916 0.018564
Si Si7 0.514032 0.873098 0.889162
O O1 0.574856 0.546802 0.731030
O O2 0.539967 0.430793 0.523259
O O3 0.778750 0.150944 0.800829
O O4 0.759229 0.051709 0.596722
O O5 0.767263 0.992528 0.852960
O O6 0.785302 0.771233 0.945598
O O7 0.835582 0.760251 0.671894
O O8 0.909918 0.671438 0.886709
O O9 0.395214 0.188418 0.914330
O O10 0.258045 0.104478 0.075397
O O11 0.093146 0.006749 0.042111
O O12 0.012300 0.078940 0.241635
#
# Coordination Sequence:
#
# PCOD8185587 Si02
#       7
#     4   8   8   8   4   8   8
#     4  11  23  42  76 106 136 190 252 302 352 436
#     4  12  24  46  74 105 139 188 244 298 357 433
#     4  12  27  47  72 107 151 192 239 307 376 444
#     4  12  27  47  72 107 151 192 239 307 376 444
#     4  11  23  42  76 106 136 190 252 302 352 436
#     4  12  24  46  74 105 139 188 244 298 357 433
#     4  11  24  44  72 104 145 192 238 308 371 428
#
# _framework density 22.692964
#
# number of rings (size 3 to 8) (size 9 to 14) (size 15 to 20)
#    0.000    0.333    3.333    6.500    0.000    4.000 
#    0.000    0.000    0.000    0.000    0.000    0.000 
#    0.000    0.000    0.000    0.000    0.000    0.000 
#
# Total GULP energy -297369.423633 kJ/mol
# GULP energy per Si atom -12390.392651 kJ/mol
# Density = 2.264131 g / cm^3
# Si number density = 22.692964 Si / 1000 Ang^3
#
#
#
# Elastic Constant Matrix: (Units=GPa)
#
#
# Indices 1 2 3 4 5 6 
#
# 1 103.5408 18.7038 12.3822 0.0000 0.0000 0.0000
# 2 18.7038 73.8204 21.5169 0.0000 0.0000 0.0000
# 3 12.3822 21.5169 80.7952 0.0000 0.0000 0.0000
# 4 0.0000 0.0000 0.0000 16.1372 0.0000 0.0000
# 5 0.0000 0.0000 0.0000 0.0000 -9.6033 0.0000
# 6 0.0000 0.0000 0.0000 0.0000 0.0000 34.9664
#
#
#
# Elastic Compliance Matrix: (Units=1/GPa)
#
#
# Indices 1 2 3 4 5 6 
#
# 1 0.010188 -0.002305 -0.000947 0.000000 0.000000 0.000000
# 2 -0.002305 0.015208 -0.003697 0.000000 0.000000 0.000000
# 3 -0.000947 -0.003697 0.013507 0.000000 0.000000 0.000000
# 4 0.000000 0.000000 0.000000 0.061969 0.000000 0.000000
# 5 0.000000 0.000000 0.000000 0.000000 -0.104131 0.000000
# 6 0.000000 0.000000 0.000000 0.000000 0.000000 0.028599
#
#
# Mechanical properties :
#
#
# Convention : Reuss Voigt Hill
#
# Bulk Modulus (GPa) = 39.99415 40.37359 40.18387
# Shear Modulus (GPa) = 105.10334 22.00363 63.55348
#
# Velocity S-wave (km/s) = 6.81292 3.11726 5.29779
# Velocity P-wave (km/s) = 8.91909 5.54853 7.42753
#
# Compressibility (1/GPa) = 0.02500365
#
# Stress axis : x y z
#
# Youngs Moduli (GPa) = 98.15727 65.75494 74.03738
#
# Poissons Ratio (x) = 0.15157 0.07015
# Poissons Ratio (y) = 0.22626 0.27370
# Poissons Ratio (z) = 0.09300 0.24309
#
# Static dielectric constant tensor:
#      x y z
#    x 4.547880 0.000000 0.000000 
#    y 0.000000 4.234610 0.000000 
#    z 0.000000 0.000000 4.131680 
# 
# 
# High freq. dielectric constant tensor:
#      x y z
#    x 1.903860 0.000000 0.000000 
#    y 0.000000 1.892980 0.000000 
#    z 0.000000 0.000000 1.906100 
# 
# From -- ./inp_files/2567.got.cif
#   From: 2010.03.12/outbox.cif.g09.slc.cpg/sg41_2_cif.got.tgz:2567.got - 2010.04.14 01:55:53.
