data_PCOD8185080
_publ_section_title
;
Structure prediction by ZEFSAII (Michael W. Deem and Ramdas Pophale) SiO2 
 PCOD8185080
Probable space group: A B A 2
;
_chemical_formula_sum "Si O2"
_cell_formula_units_Z 48
_cell_length_a 9.884498
_cell_length_b 11.269908
_cell_length_c 19.981948
_cell_angle_alpha 90.000000
_cell_angle_beta 90.000000
_cell_angle_gamma 90.000000
_cell_volume 2225.936716
_symmetry_space_group_name_H-M "A B A 2"
_symmetry_group_IT_number 41
_symmetry_cell_setting 'orthorhombic'
loop_
_space_group_symop_operation_xyz
x,y,z
-x,-y,z
1/2-x,y,1/2+z
1/2+x,-y,1/2+z
x,1/2+y,1/2+z
-x,1/2-y,1/2+z
1/2-x,1/2+y,z
1/2+x,1/2-y,z
loop_
_atom_site_type_symbol
_atom_site_label
_atom_site_fract_x
_atom_site_fract_y
_atom_site_fract_z
Si Si1 0.532259 0.871257 0.667370
Si Si2 0.623249 0.575587 0.523854
Si Si3 0.577864 0.751941 0.970189
Si Si4 0.218866 0.261300 0.604763
Si Si5 0.000000 0.500000 0.422052
Si Si6 0.783806 0.443272 0.896661
Si Si7 0.000000 0.500000 0.795547
O O1 0.678460 0.827352 0.642162
O O2 0.414773 0.778395 0.649151
O O3 0.527957 0.885071 0.748324
O O4 0.500000 0.000000 0.634006
O O5 0.500000 0.500000 0.552964
O O6 0.569108 0.692218 0.484158
O O7 0.708538 0.612542 0.589257
O O8 0.707384 0.502712 0.469644
O O9 0.559129 0.610275 0.965013
O O10 0.649845 0.811063 0.904467
O O11 0.674681 0.787148 0.032383
O O12 0.875936 0.446755 0.377259
O O13 0.867749 0.517479 0.841736
#
# Coordination Sequence:
#
# PCOD8185080 Si02
#       7
#     8   8   8   8   4   8   4
#     4  10  28  44  68  95 138 193 227 286 338 416
#     4  10  21  36  66 101 135 174 207 292 355 411
#     4  11  23  39  69 108 143 168 218 297 361 422
#     4  12  22  42  66 106 134 171 233 283 363 413
#     4  12  26  37  72 114 131 182 224 284 378 412
#     4  11  23  45  67 101 141 183 230 283 358 415
#     4  10  24  53  64  90 147 192 242 280 336 418
#
# _framework density 21.563955
#
# number of rings (size 3 to 8) (size 9 to 14) (size 15 to 20)
#    0.500    0.667    5.833    1.000    5.833    0.000 
#    6.000    0.000    0.000    0.000    0.000    0.000 
#    0.000    0.000    0.000    0.000    0.000    0.000 
#
# Total GULP energy -297321.097833 kJ/mol
# GULP energy per Si atom -12388.379076 kJ/mol
# Density = 2.151487 g / cm^3
# Si number density = 21.563955 Si / 1000 Ang^3
#
#
#
# Elastic Constant Matrix: (Units=GPa)
#
#
# Indices 1 2 3 4 5 6 
#
# 1 143.3850 32.2003 37.0289 0.0000 0.0000 0.0000
# 2 32.2003 100.1260 21.1052 0.0000 0.0000 0.0000
# 3 37.0289 21.1052 82.4118 0.0000 0.0000 0.0000
# 4 0.0000 0.0000 0.0000 30.7262 0.0000 0.0000
# 5 0.0000 0.0000 0.0000 0.0000 23.4895 0.0000
# 6 0.0000 0.0000 0.0000 0.0000 0.0000 28.4220
#
#
#
# Elastic Compliance Matrix: (Units=1/GPa)
#
#
# Indices 1 2 3 4 5 6 
#
# 1 0.008244 -0.001977 -0.003198 0.000000 0.000000 0.000000
# 2 -0.001977 0.011032 -0.001937 0.000000 0.000000 0.000000
# 3 -0.003198 -0.001937 0.014067 0.000000 0.000000 0.000000
# 4 0.000000 0.000000 0.000000 0.032545 0.000000 0.000000
# 5 0.000000 0.000000 0.000000 0.000000 0.042572 0.000000
# 6 0.000000 0.000000 0.000000 0.000000 0.000000 0.035184
#
#
# Mechanical properties :
#
#
# Convention : Reuss Voigt Hill
#
# Bulk Modulus (GPa) = 52.30382 56.28797 54.29589
# Shear Modulus (GPa) = 30.44310 32.23345 31.33827
#
# Velocity S-wave (km/s) = 3.76141 3.87044 3.81631
# Velocity P-wave (km/s) = 6.57055 6.79214 6.68227
#
# Compressibility (1/GPa) = 0.01911906
#
# Stress axis : x y z
#
# Youngs Moduli (GPa) = 121.29889 90.64938 71.08834
#
# Poissons Ratio (x) = 0.17923 0.22733
# Poissons Ratio (y) = 0.23984 0.13768
# Poissons Ratio (z) = 0.38790 0.17556
#
# Static dielectric constant tensor:
#      x y z
#    x 4.359840 0.000000 0.000000 
#    y 0.000000 4.022350 0.000000 
#    z 0.000000 0.000000 3.464620 
# 
# 
# High freq. dielectric constant tensor:
#      x y z
#    x 1.870870 0.000000 0.000000 
#    y 0.000000 1.843760 0.000000 
#    z 0.000000 0.000000 1.794450 
# 
# From -- ./inp_files/11375.got.cif
#   From: 2010.03.12/outbox.cif.g09.slc.cpg/sg41_6_cif.got.tgz:11375.got - 2010.04.14 01:55:53.
