data_PCOD8185291
_publ_section_title
;
Structure prediction by ZEFSAII (Michael W. Deem and Ramdas Pophale) SiO2 
 PCOD8185291
Probable space group: A B A 2
;
_chemical_formula_sum "Si O2"
_cell_formula_units_Z 64
_cell_length_a 8.905979
_cell_length_b 17.340209
_cell_length_c 21.123500
_cell_angle_alpha 90.000000
_cell_angle_beta 90.000000
_cell_angle_gamma 90.000000
_cell_volume 3262.134576
_symmetry_space_group_name_H-M "A B A 2"
_symmetry_group_IT_number 41
_symmetry_cell_setting 'orthorhombic'
loop_
_space_group_symop_operation_xyz
x,y,z
-x,-y,z
1/2-x,y,1/2+z
1/2+x,-y,1/2+z
x,1/2+y,1/2+z
-x,1/2-y,1/2+z
1/2-x,1/2+y,z
1/2+x,1/2-y,z
loop_
_atom_site_type_symbol
_atom_site_label
_atom_site_fract_x
_atom_site_fract_y
_atom_site_fract_z
Si Si1 0.475580 0.264776 0.765340
Si Si2 0.154565 0.965277 0.556236
Si Si3 0.222326 0.303644 0.852903
Si Si4 0.847931 0.895081 0.069490
Si Si5 0.186581 0.698743 0.967458
Si Si6 0.775856 0.798382 0.678706
Si Si7 0.837239 0.676395 0.576798
Si Si8 0.438184 0.924699 0.923216
O O1 0.371810 0.315096 0.811509
O O2 0.580475 0.211080 0.808084
O O3 0.372247 0.211064 0.721224
O O4 0.581941 0.320290 0.723090
O O5 0.186489 0.876072 0.573897
O O6 0.137111 0.968399 0.481460
O O7 0.302973 0.015501 0.570541
O O8 0.000000 0.000000 0.587480
O O9 0.239576 0.235874 0.905013
O O10 0.195722 0.386338 0.884186
O O11 0.748305 0.862786 0.126775
O O12 0.022503 0.881356 0.081198
O O13 0.806423 0.854827 0.002987
O O14 0.049366 0.644351 0.945604
O O15 0.139504 0.766749 0.016652
O O16 0.820077 0.719666 0.642956
O O17 0.500000 0.000000 0.884154
#
# Coordination Sequence:
#
# PCOD8185291 Si02
#       8
#     8   8   8   8   8   8   8   8
#     4  10  22  39  63  91 122 163 230 269 305 356
#     4  11  23  38  59  92 135 166 195 251 339 391
#     4  11  21  38  66  91 121 166 217 269 310 381
#     4  11  22  37  62  91 129 169 202 265 327 382
#     4  11  21  35  63  98 122 162 211 260 323 384
#     4  10  22  40  64  91 123 164 219 275 307 367
#     4  11  23  36  63  95 126 160 217 263 324 382
#     4  11  21  39  59  95 133 165 195 261 329 395
#
# _framework density 19.619056
#
# number of rings (size 3 to 8) (size 9 to 14) (size 15 to 20)
#    0.000    1.250    6.250    1.125    3.500    0.000 
#    0.000    0.000    5.500    1.500    0.000    0.000 
#    0.000    0.000    0.000    0.000    0.000    0.000 
#
# Total GULP energy -396539.435772 kJ/mol
# GULP energy per Si atom -12391.857368 kJ/mol
# Density = 1.957440 g / cm^3
# Si number density = 19.619056 Si / 1000 Ang^3
#
#
#
# Elastic Constant Matrix: (Units=GPa)
#
#
# Indices 1 2 3 4 5 6 
#
# 1 103.6207 37.2664 38.2345 0.0000 0.0000 0.0000
# 2 37.2664 104.5907 27.4977 0.0000 0.0000 0.0000
# 3 38.2345 27.4977 94.5766 0.0000 0.0000 0.0000
# 4 0.0000 0.0000 0.0000 15.5116 0.0000 0.0000
# 5 0.0000 0.0000 0.0000 0.0000 35.7939 0.0000
# 6 0.0000 0.0000 0.0000 0.0000 0.0000 35.6058
#
#
#
# Elastic Compliance Matrix: (Units=1/GPa)
#
#
# Indices 1 2 3 4 5 6 
#
# 1 0.012333 -0.003339 -0.004015 0.000000 0.000000 0.000000
# 2 -0.003339 0.011256 -0.001923 0.000000 0.000000 0.000000
# 3 -0.004015 -0.001923 0.012756 0.000000 0.000000 0.000000
# 4 0.000000 0.000000 0.000000 0.064468 0.000000 0.000000
# 5 0.000000 0.000000 0.000000 0.000000 0.027938 0.000000
# 6 0.000000 0.000000 0.000000 0.000000 0.000000 0.028085
#
#
# Mechanical properties :
#
#
# Convention : Reuss Voigt Hill
#
# Bulk Modulus (GPa) = 56.20725 56.53171 56.36948
# Shear Modulus (GPa) = 27.57560 30.70154 29.13857
#
# Velocity S-wave (km/s) = 3.75314 3.96015 3.85803
# Velocity P-wave (km/s) = 6.89151 7.05604 6.97426
#
# Compressibility (1/GPa) = 0.01779130
#
# Stress axis : x y z
#
# Youngs Moduli (GPa) = 81.08452 88.83969 78.39625
#
# Poissons Ratio (x) = 0.29661 0.31477
# Poissons Ratio (y) = 0.27071 0.15075
# Poissons Ratio (z) = 0.32556 0.17084
#
# Static dielectric constant tensor:
#      x y z
#    x 3.750280 0.000000 0.000000 
#    y 0.000000 3.554070 0.000000 
#    z 0.000000 0.000000 3.736230 
# 
# 
# High freq. dielectric constant tensor:
#      x y z
#    x 1.775140 0.000000 0.000000 
#    y 0.000000 1.746240 0.000000 
#    z 0.000000 0.000000 1.760180 
# 
# From -- ./inp_files/11271.got.cif
#   From: 2010.03.12/outbox.cif.g09.slc.cpg/sg41_6_cif.got.tgz:11271.got - 2010.04.14 01:55:53.
