data_PCOD8185020
_publ_section_title
;
Structure prediction by ZEFSAII (Michael W. Deem and Ramdas Pophale) SiO2 
 PCOD8185020
Probable space group: A B A 2
;
_chemical_formula_sum "Si O2"
_cell_formula_units_Z 40
_cell_length_a 13.005125
_cell_length_b 12.672766
_cell_length_c 12.397227
_cell_angle_alpha 90.000000
_cell_angle_beta 90.000000
_cell_angle_gamma 90.000000
_cell_volume 2043.198213
_symmetry_space_group_name_H-M "A B A 2"
_symmetry_group_IT_number 41
_symmetry_cell_setting 'orthorhombic'
loop_
_space_group_symop_operation_xyz
x,y,z
-x,-y,z
1/2-x,y,1/2+z
1/2+x,-y,1/2+z
x,1/2+y,1/2+z
-x,1/2-y,1/2+z
1/2-x,1/2+y,z
1/2+x,1/2-y,z
loop_
_atom_site_type_symbol
_atom_site_label
_atom_site_fract_x
_atom_site_fract_y
_atom_site_fract_z
Si Si1 0.553218 0.392174 0.688870
Si Si2 0.729456 0.393721 0.259209
Si Si3 0.042733 0.187157 0.132792
Si Si4 0.585569 0.077458 0.804848
Si Si5 0.109962 0.697913 0.398428
O O1 0.500000 0.500000 0.658780
O O2 0.676841 0.401714 0.672294
O O3 0.501265 0.304179 0.614055
O O4 0.531394 0.355626 0.812825
O O5 0.641186 0.318340 0.211642
O O6 0.689721 0.511569 0.285592
O O7 0.773482 0.339588 0.368904
O O8 0.953560 0.114999 0.185798
O O9 0.077983 0.151883 0.014085
O O10 0.604940 0.174774 0.885601
O O11 0.500000 0.000000 0.857601
#
# Coordination Sequence:
#
# PCOD8185020 Si02
#       5
#     8   8   8   8   8
#     4   9  21  37  58  85 122 149 197 258 297 355
#     4   9  21  39  59  88 121 155 204 249 306 364
#     4  10  20  41  60  85 122 164 199 246 311 363
#     4   9  19  40  64  84 125 160 198 254 310 361
#     4   9  21  39  59  89 116 159 201 250 296 367
#
# _framework density 19.57715
#
# number of rings (size 3 to 8) (size 9 to 14) (size 15 to 20)
#    1.200    1.600    0.000    0.000    2.800    3.200 
#   14.400    0.000    0.000    0.000    0.000    0.000 
#    0.000    0.000    0.000    0.000    0.000    0.000 
#
# Total GULP energy -247761.895178 kJ/mol
# GULP energy per Si atom -12388.094759 kJ/mol
# Density = 1.953259 g / cm^3
# Si number density = 19.577150 Si / 1000 Ang^3
#
#
#
# Elastic Constant Matrix: (Units=GPa)
#
#
# Indices 1 2 3 4 5 6 
#
# 1 100.6472 41.5988 16.2315 0.0000 0.0000 0.0000
# 2 41.5988 109.8466 3.2844 0.0000 0.0000 0.0000
# 3 16.2315 3.2844 76.9481 0.0000 0.0000 0.0000
# 4 0.0000 0.0000 0.0000 14.1662 0.0000 0.0000
# 5 0.0000 0.0000 0.0000 0.0000 24.9943 0.0000
# 6 0.0000 0.0000 0.0000 0.0000 0.0000 45.2803
#
#
#
# Elastic Compliance Matrix: (Units=1/GPa)
#
#
# Indices 1 2 3 4 5 6 
#
# 1 0.012199 -0.004549 -0.002379 0.000000 0.000000 0.000000
# 2 -0.004549 0.010811 0.000498 0.000000 0.000000 0.000000
# 3 -0.002379 0.000498 0.013476 0.000000 0.000000 0.000000
# 4 0.000000 0.000000 0.000000 0.070591 0.000000 0.000000
# 5 0.000000 0.000000 0.000000 0.000000 0.040009 0.000000
# 6 0.000000 0.000000 0.000000 0.000000 0.000000 0.022085
#
#
# Mechanical properties :
#
#
# Convention : Reuss Voigt Hill
#
# Bulk Modulus (GPa) = 42.32388 45.51903 43.92146
# Shear Modulus (GPa) = 26.32863 31.97663 29.15263
#
# Velocity S-wave (km/s) = 3.67122 4.04588 3.86309
# Velocity P-wave (km/s) = 6.29575 6.71767 6.51013
#
# Compressibility (1/GPa) = 0.02362732
#
# Stress axis : x y z
#
# Youngs Moduli (GPa) = 81.97078 92.49550 74.20384
#
# Poissons Ratio (x) = 0.42074 0.17655
# Poissons Ratio (y) = 0.37287 -0.03696
# Poissons Ratio (z) = 0.19503 -0.04607
#
# Static dielectric constant tensor:
#      x y z
#    x 3.534990 0.000000 0.000000 
#    y 0.000000 3.575970 0.000000 
#    z 0.000000 0.000000 3.125570 
# 
# 
# High freq. dielectric constant tensor:
#      x y z
#    x 1.758410 0.000000 0.000000 
#    y 0.000000 1.767820 0.000000 
#    z 0.000000 0.000000 1.728280 
# 
# From -- ./inp_files/5393.got.cif
#   From: 2010.03.12/outbox.cif.g09.slc.cpg/sg41_3_cif.got.tgz:5393.got - 2010.04.14 01:55:53.
