data_PCOD8185077
_publ_section_title
;
Structure prediction by ZEFSAII (Michael W. Deem and Ramdas Pophale) SiO2 
 PCOD8185077
Probable space group: A B A 2
;
_chemical_formula_sum "Si O2"
_cell_formula_units_Z 60
_cell_length_a 31.891238
_cell_length_b 17.566327
_cell_length_c 5.360380
_cell_angle_alpha 90.000000
_cell_angle_beta 90.000000
_cell_angle_gamma 90.000000
_cell_volume 3002.948746
_symmetry_space_group_name_H-M "A B A 2"
_symmetry_group_IT_number 41
_symmetry_cell_setting 'orthorhombic'
loop_
_space_group_symop_operation_xyz
x,y,z
-x,-y,z
1/2-x,y,1/2+z
1/2+x,-y,1/2+z
x,1/2+y,1/2+z
-x,1/2-y,1/2+z
1/2-x,1/2+y,z
1/2+x,1/2-y,z
loop_
_atom_site_type_symbol
_atom_site_label
_atom_site_fract_x
_atom_site_fract_y
_atom_site_fract_z
Si Si1 0.774656 0.505540 0.046260
Si Si2 0.506751 0.140383 0.361440
Si Si3 0.850183 0.295754 0.529531
Si Si4 0.348907 0.608521 0.538204
Si Si5 0.941304 0.905655 0.482176
Si Si6 0.500000 0.000000 0.665843
Si Si7 0.774962 0.183869 0.546471
Si Si8 0.558038 0.263790 0.144594
O O1 0.751674 0.481498 0.302001
O O2 0.818366 0.462683 0.033087
O O3 0.784244 0.594669 0.045290
O O4 0.475039 0.091740 0.197452
O O5 0.547372 0.177341 0.229001
O O6 0.480950 0.210655 0.476016
O O7 0.522134 0.073421 0.540713
O O8 0.837981 0.339336 0.276109
O O9 0.819635 0.224485 0.556069
O O10 0.897790 0.264495 0.498918
O O11 0.845417 0.347599 0.775115
O O12 0.395120 0.572635 0.576577
O O13 0.938592 0.820183 0.377283
O O14 0.958030 0.969546 0.296445
O O15 0.750700 0.208169 0.294097
#
# Coordination Sequence:
#
# PCOD8185077 Si02
#       8
#     8   8   8   8   8   4   8   8
#     4  10  22  42  64  90 125 165 205 244 311 381
#     4  11  19  40  61  82 120 164 204 260 307 374
#     4  11  23  40  62  96 124 156 209 261 306 370
#     4  11  23  40  65  92 127 160 206 261 310 366
#     4  10  21  40  57  87 124 160 202 263 307 363
#     4  10  24  38  58  88 120 162 214 258 312 370
#     4  10  22  42  63  89 127 162 197 253 311 372
#     4  10  21  36  63  88 116 164 208 249 316 367
#
# _framework density 19.980359
#
# number of rings (size 3 to 8) (size 9 to 14) (size 15 to 20)
#    0.000    1.600    2.667    2.000    0.000    3.200 
#    4.800    2.667    0.000    0.000    0.000    0.000 
#    0.000    0.000    0.000    0.000    0.000    0.000 
#
# Total GULP energy -371857.373582 kJ/mol
# GULP energy per Si atom -12395.245786 kJ/mol
# Density = 1.993488 g / cm^3
# Si number density = 19.980359 Si / 1000 Ang^3
#
#
#
# Elastic Constant Matrix: (Units=GPa)
#
#
# Indices 1 2 3 4 5 6 
#
# 1 98.5396 59.2878 25.1428 0.0000 0.0000 0.0000
# 2 59.2878 90.7700 30.8673 0.0000 0.0000 0.0000
# 3 25.1428 30.8673 114.8155 0.0000 0.0000 0.0000
# 4 0.0000 0.0000 0.0000 5.5730 0.0000 0.0000
# 5 0.0000 0.0000 0.0000 0.0000 23.0406 0.0000
# 6 0.0000 0.0000 0.0000 0.0000 0.0000 32.0202
#
#
#
# Elastic Compliance Matrix: (Units=1/GPa)
#
#
# Indices 1 2 3 4 5 6 
#
# 1 0.016785 -0.010691 -0.000802 0.000000 0.000000 0.000000
# 2 -0.010691 0.018935 -0.002749 0.000000 0.000000 0.000000
# 3 -0.000802 -0.002749 0.009624 0.000000 0.000000 0.000000
# 4 0.000000 0.000000 0.000000 0.179437 0.000000 0.000000
# 5 0.000000 0.000000 0.000000 0.000000 0.043402 0.000000
# 6 0.000000 0.000000 0.000000 0.000000 0.000000 0.031230
#
#
# Mechanical properties :
#
#
# Convention : Reuss Voigt Hill
#
# Bulk Modulus (GPa) = 59.30969 59.41343 59.36156
# Shear Modulus (GPa) = 14.99178 24.71526 19.85352
#
# Velocity S-wave (km/s) = 2.74218 3.52088 3.15564
# Velocity P-wave (km/s) = 6.30670 6.80656 6.56139
#
# Compressibility (1/GPa) = 0.01686065
#
# Stress axis : x y z
#
# Youngs Moduli (GPa) = 59.57697 52.81323 103.90396
#
# Poissons Ratio (x) = 0.56462 0.08328
# Poissons Ratio (y) = 0.63693 0.28566
# Poissons Ratio (z) = 0.04775 0.14520
#
# Static dielectric constant tensor:
#      x y z
#    x 3.645200 0.000000 0.000000 
#    y 0.000000 3.483000 0.000000 
#    z 0.000000 0.000000 3.999280 
# 
# 
# High freq. dielectric constant tensor:
#      x y z
#    x 1.777440 0.000000 0.000000 
#    y 0.000000 1.774970 0.000000 
#    z 0.000000 0.000000 1.792540 
# 
# From -- ./inp_files/1183.got.cif
#   From: 2010.03.12/outbox.cif.g09.slc.cpg/sg41_1_cif.got.tgz:1183.got - 2010.04.14 01:55:53.
