data_PCOD8185137
_publ_section_title
;
Structure prediction by ZEFSAII (Michael W. Deem and Ramdas Pophale) SiO2 
 PCOD8185137
Probable space group: A B A 2
;
_chemical_formula_sum "Si O2"
_cell_formula_units_Z 48
_cell_length_a 14.839991
_cell_length_b 8.640748
_cell_length_c 16.301817
_cell_angle_alpha 90.000000
_cell_angle_beta 90.000000
_cell_angle_gamma 90.000000
_cell_volume 2090.359539
_symmetry_space_group_name_H-M "A B A 2"
_symmetry_group_IT_number 41
_symmetry_cell_setting 'orthorhombic'
loop_
_space_group_symop_operation_xyz
x,y,z
-x,-y,z
1/2-x,y,1/2+z
1/2+x,-y,1/2+z
x,1/2+y,1/2+z
-x,1/2-y,1/2+z
1/2-x,1/2+y,z
1/2+x,1/2-y,z
loop_
_atom_site_type_symbol
_atom_site_label
_atom_site_fract_x
_atom_site_fract_y
_atom_site_fract_z
Si Si1 0.976657 0.823798 0.413390
Si Si2 0.318434 0.860439 0.350040
Si Si3 0.195177 0.053801 0.683923
Si Si4 0.464945 0.669909 0.600148
Si Si5 0.342321 0.243665 0.609795
Si Si6 0.334956 0.169812 0.426708
O O1 0.903139 0.756549 0.350265
O O2 0.935642 0.811259 0.505265
O O3 0.064639 0.719915 0.404902
O O4 0.000000 0.000000 0.390372
O O5 0.229086 0.757819 0.361292
O O6 0.318150 0.966362 0.269200
O O7 0.326645 0.984790 0.422515
O O8 0.120197 0.188268 0.662330
O O9 0.292289 0.138138 0.678191
O O10 0.185494 0.922925 0.614983
O O11 0.500000 0.500000 0.616853
O O12 0.549535 0.783618 0.620538
O O13 0.307768 0.204141 0.519450
#
# Coordination Sequence:
#
# PCOD8185137 Si02
#       6
#     8   8   8   8   8   8
#     4  10  21  40  65  92 124 168 217 262 309 373
#     4  12  24  40  65  97 130 163 207 265 322 377
#     4  11  22  40  63  93 127 166 206 263 323 373
#     4   8  18  37  62  87 120 166 211 253 306 370
#     4  10  21  39  63  88 124 169 213 252 307 379
#     4  11  23  40  63  93 126 170 215 259 312 378
#
# _framework density 22.962557
#
# number of rings (size 3 to 8) (size 9 to 14) (size 15 to 20)
#    0.000    1.667    0.000    5.500    0.000    4.000 
#    0.000    2.500    0.000    8.000    0.000    0.000 
#    0.000    0.000    0.000    0.000    0.000    0.000 
#
# Total GULP energy -297515.276832 kJ/mol
# GULP energy per Si atom -12396.469868 kJ/mol
# Density = 2.291029 g / cm^3
# Si number density = 22.962557 Si / 1000 Ang^3
#
#
#
# Elastic Constant Matrix: (Units=GPa)
#
#
# Indices 1 2 3 4 5 6 
#
# 1 126.2365 53.8726 67.6508 0.0000 0.0000 0.0000
# 2 53.8726 98.0607 22.5574 0.0000 0.0000 0.0000
# 3 67.6508 22.5574 82.7499 0.0000 0.0000 0.0000
# 4 0.0000 0.0000 0.0000 37.6782 0.0000 0.0000
# 5 0.0000 0.0000 0.0000 0.0000 19.5307 0.0000
# 6 0.0000 0.0000 0.0000 0.0000 0.0000 42.6603
#
#
#
# Elastic Compliance Matrix: (Units=1/GPa)
#
#
# Indices 1 2 3 4 5 6 
#
# 1 0.017461 -0.006731 -0.012440 0.000000 0.000000 0.000000
# 2 -0.006731 0.013475 0.001830 0.000000 0.000000 0.000000
# 3 -0.012440 0.001830 0.021756 0.000000 0.000000 0.000000
# 4 0.000000 0.000000 0.000000 0.026541 0.000000 0.000000
# 5 0.000000 0.000000 0.000000 0.000000 0.051201 0.000000
# 6 0.000000 0.000000 0.000000 0.000000 0.000000 0.023441
#
#
# Mechanical properties :
#
#
# Convention : Reuss Voigt Hill
#
# Bulk Modulus (GPa) = 55.52818 66.13430 60.83124
# Shear Modulus (GPa) = 25.69903 30.83826 28.26864
#
# Velocity S-wave (km/s) = 3.34903 3.66864 3.51248
# Velocity P-wave (km/s) = 6.26013 6.84169 6.55736
#
# Compressibility (1/GPa) = 0.01800888
#
# Stress axis : x y z
#
# Youngs Moduli (GPa) = 57.27132 74.21283 45.96457
#
# Poissons Ratio (x) = 0.49952 0.57179
# Poissons Ratio (y) = 0.38549 -0.08410
# Poissons Ratio (z) = 0.71245 -0.13578
#
# Static dielectric constant tensor:
#      x y z
#    x 4.540380 0.000000 0.000000 
#    y 0.000000 4.306560 0.000000 
#    z 0.000000 0.000000 3.988190 
# 
# 
# High freq. dielectric constant tensor:
#      x y z
#    x 1.913300 0.000000 0.000000 
#    y 0.000000 1.901540 0.000000 
#    z 0.000000 0.000000 1.896030 
# 
# From -- ./inp_files/10300.got.cif
#   From: 2010.03.12/outbox.cif.g09.slc.cpg/sg41_6_cif.got.tgz:10300.got - 2010.04.14 01:55:53.
