data_PCOD8185317
_publ_section_title
;
Structure prediction by ZEFSAII (Michael W. Deem and Ramdas Pophale) SiO2 
 PCOD8185317
Probable space group: A B A 2
;
_chemical_formula_sum "Si O2"
_cell_formula_units_Z 64
_cell_length_a 11.658593
_cell_length_b 29.572010
_cell_length_c 8.416615
_cell_angle_alpha 90.000000
_cell_angle_beta 90.000000
_cell_angle_gamma 90.000000
_cell_volume 2901.779763
_symmetry_space_group_name_H-M "A B A 2"
_symmetry_group_IT_number 41
_symmetry_cell_setting 'orthorhombic'
loop_
_space_group_symop_operation_xyz
x,y,z
-x,-y,z
1/2-x,y,1/2+z
1/2+x,-y,1/2+z
x,1/2+y,1/2+z
-x,1/2-y,1/2+z
1/2-x,1/2+y,z
1/2+x,1/2-y,z
loop_
_atom_site_type_symbol
_atom_site_label
_atom_site_fract_x
_atom_site_fract_y
_atom_site_fract_z
Si Si1 0.995652 0.696667 0.058380
Si Si2 0.721383 0.910394 0.893315
Si Si3 0.943695 0.953039 0.929596
Si Si4 0.492208 0.051851 0.063507
Si Si5 0.769367 0.844382 0.639199
Si Si6 0.592374 0.126157 0.523374
Si Si7 0.044749 0.704516 0.688954
Si Si8 0.166196 0.877782 0.659786
O O1 0.099868 0.673173 0.156701
O O2 0.978709 0.745456 0.131920
O O3 0.880623 0.667773 0.079924
O O4 0.012686 0.699303 0.871296
O O5 0.806390 0.950139 0.957165
O O6 0.744336 0.895257 0.712010
O O7 0.591535 0.923924 0.936694
O O8 0.748250 0.859357 0.957034
O O9 0.949940 0.944454 0.742744
O O10 0.000000 0.000000 0.982341
O O11 0.004341 0.915425 0.038060
O O12 0.612998 0.078512 0.067671
O O13 0.500000 0.000000 0.007679
O O14 0.680525 0.804916 0.678518
O O15 0.526895 0.171516 0.573982
O O16 0.697518 0.118589 0.643043
O O17 0.638769 0.126354 0.345022
#
# Coordination Sequence:
#
# PCOD8185317 Si02
#       8
#     8   8   8   8   8   8   8   8
#     4  12  27  45  70 101 134 175 226 280 342 408
#     4  12  21  43  71  98 131 182 226 286 338 404
#     4  10  22  40  66  99 135 178 227 282 339 399
#     4  10  22  41  67  98 136 178 226 282 340 400
#     4  12  24  44  72  97 133 174 230 282 341 403
#     4  11  24  43  67  94 138 180 222 277 337 400
#     4  12  27  44  70 101 134 176 226 280 341 407
#     4  11  23  44  65  94 137 181 221 277 340 397
#
# _framework density 22.055429
#
# number of rings (size 3 to 8) (size 9 to 14) (size 15 to 20)
#    0.000    0.750    5.000    2.250    5.250    0.000 
#    0.000    0.625    0.000    0.000    0.000    0.000 
#    0.000    0.000    0.000    0.000    0.000    0.000 
#
# Total GULP energy -396584.143547 kJ/mol
# GULP energy per Si atom -12393.254486 kJ/mol
# Density = 2.200523 g / cm^3
# Si number density = 22.055429 Si / 1000 Ang^3
#
#
#
# Elastic Constant Matrix: (Units=GPa)
#
#
# Indices 1 2 3 4 5 6 
#
# 1 99.8212 23.8441 17.1043 0.0000 0.0000 0.0000
# 2 23.8441 123.5505 25.9598 0.0000 0.0000 0.0000
# 3 17.1043 25.9598 60.5220 0.0000 0.0000 0.0000
# 4 0.0000 0.0000 0.0000 26.4111 0.0000 0.0000
# 5 0.0000 0.0000 0.0000 0.0000 33.6596 0.0000
# 6 0.0000 0.0000 0.0000 0.0000 0.0000 33.8257
#
#
#
# Elastic Compliance Matrix: (Units=1/GPa)
#
#
# Indices 1 2 3 4 5 6 
#
# 1 0.010803 -0.001586 -0.002373 0.000000 0.000000 0.000000
# 2 -0.001586 0.009129 -0.003467 0.000000 0.000000 0.000000
# 3 -0.002373 -0.003467 0.018681 0.000000 0.000000 0.000000
# 4 0.000000 0.000000 0.000000 0.037863 0.000000 0.000000
# 5 0.000000 0.000000 0.000000 0.000000 0.029709 0.000000
# 6 0.000000 0.000000 0.000000 0.000000 0.000000 0.029563
#
#
# Mechanical properties :
#
#
# Convention : Reuss Voigt Hill
#
# Bulk Modulus (GPa) = 42.08758 46.41223 44.24990
# Shear Modulus (GPa) = 31.54165 33.24499 32.39332
#
# Velocity S-wave (km/s) = 3.78578 3.88666 3.83655
# Velocity P-wave (km/s) = 6.18333 6.42111 6.30334
#
# Compressibility (1/GPa) = 0.02375998
#
# Stress axis : x y z
#
# Youngs Moduli (GPa) = 92.56327 109.54678 53.53135
#
# Poissons Ratio (x) = 0.17379 0.12701
# Poissons Ratio (y) = 0.14684 0.18560
# Poissons Ratio (z) = 0.21963 0.37982
#
# Static dielectric constant tensor:
#      x y z
#    x 4.045600 0.000000 0.000000 
#    y 0.000000 4.184790 0.000000 
#    z 0.000000 0.000000 3.963310 
# 
# 
# High freq. dielectric constant tensor:
#      x y z
#    x 1.871820 0.000000 0.000000 
#    y 0.000000 1.864900 0.000000 
#    z 0.000000 0.000000 1.878160 
# 
# From -- ./inp_files/2234.got.cif
#   From: 2010.03.12/outbox.cif.g09.slc.cpg/sg41_2_cif.got.tgz:2234.got - 2010.04.14 01:55:53.
