data_PCOD8185581
_publ_section_title
;
Structure prediction by ZEFSAII (Michael W. Deem and Ramdas Pophale) SiO2 
 PCOD8185581
Probable space group: A B A 2
;
_chemical_formula_sum "Si O2"
_cell_formula_units_Z 64
_cell_length_a 8.221357
_cell_length_b 29.200507
_cell_length_c 11.598615
_cell_angle_alpha 90.000000
_cell_angle_beta 90.000000
_cell_angle_gamma 90.000000
_cell_volume 2784.453901
_symmetry_space_group_name_H-M "A B A 2"
_symmetry_group_IT_number 41
_symmetry_cell_setting 'orthorhombic'
loop_
_space_group_symop_operation_xyz
x,y,z
-x,-y,z
1/2-x,y,1/2+z
1/2+x,-y,1/2+z
x,1/2+y,1/2+z
-x,1/2-y,1/2+z
1/2-x,1/2+y,z
1/2+x,1/2-y,z
loop_
_atom_site_type_symbol
_atom_site_label
_atom_site_fract_x
_atom_site_fract_y
_atom_site_fract_z
Si Si1 0.290782 0.234302 0.898390
Si Si2 0.311181 0.322448 0.758836
Si Si3 0.070405 0.416814 0.346342
Si Si4 0.948750 0.819493 0.214510
Si Si5 0.045571 0.267195 0.065377
Si Si6 0.880025 0.035603 0.273584
Si Si7 0.136969 0.030110 0.657311
Si Si8 0.908537 0.909261 0.093317
O O1 0.362768 0.280747 0.841264
O O2 0.307380 0.191620 0.809408
O O3 0.113001 0.248236 0.942151
O O4 0.370065 0.217083 0.019603
O O5 0.418347 0.366418 0.791909
O O6 0.354447 0.308367 0.625623
O O7 0.120252 0.335355 0.770587
O O8 0.252393 0.438428 0.356286
O O9 0.949511 0.447749 0.269895
O O10 0.002985 0.414792 0.474770
O O11 0.993257 0.772496 0.153846
O O12 0.880437 0.856152 0.124138
O O13 0.987762 0.070786 0.199484
O O14 0.779303 0.005027 0.185227
O O15 0.000000 0.000000 0.342106
O O16 0.227170 0.068780 0.581087
O O17 0.000000 0.000000 0.589517
#
# Coordination Sequence:
#
# PCOD8185581 Si02
#       8
#     8   8   8   8   8   8   8   8
#     4  11  23  40  64  91 130 182 221 270 335 394
#     4  11  23  40  65  97 133 173 226 278 330 400
#     4  11  23  42  72  96 139 183 219 278 349 405
#     4  11  23  40  65  98 135 170 227 284 324 402
#     4  11  23  40  64  92 131 181 224 270 335 395
#     4   9  20  42  69 101 134 166 220 283 337 419
#     4   9  22  44  67 101 135 170 224 280 337 417
#     4  11  23  42  70 101 137 179 223 283 345 403
#
# _framework density 22.984760000000001
#
# number of rings (size 3 to 8) (size 9 to 14) (size 15 to 20)
#    0.000    1.500    3.750    0.750    0.000    7.500 
#    0.000    8.750    0.000    0.000    0.000    0.000 
#    0.000    0.000    0.000    0.000    0.000    0.000 
#
# Total GULP energy -396441.450008 kJ/mol
# GULP energy per Si atom -12388.795313 kJ/mol
# Density = 2.293245 g / cm^3
# Si number density = 22.984760 Si / 1000 Ang^3
#
#
#
# Elastic Constant Matrix: (Units=GPa)
#
#
# Indices 1 2 3 4 5 6 
#
# 1 77.0504 42.6496 25.7337 0.0000 0.0000 0.0000
# 2 42.6496 87.0470 29.3764 0.0000 0.0000 0.0000
# 3 25.7337 29.3764 91.9047 0.0000 0.0000 0.0000
# 4 0.0000 0.0000 0.0000 18.2405 0.0000 0.0000
# 5 0.0000 0.0000 0.0000 0.0000 36.8944 0.0000
# 6 0.0000 0.0000 0.0000 0.0000 0.0000 35.8354
#
#
#
# Elastic Compliance Matrix: (Units=1/GPa)
#
#
# Indices 1 2 3 4 5 6 
#
# 1 0.018320 -0.008121 -0.002534 0.000000 0.000000 0.000000
# 2 -0.008121 0.016477 -0.002993 0.000000 0.000000 0.000000
# 3 -0.002534 -0.002993 0.012547 0.000000 0.000000 0.000000
# 4 0.000000 0.000000 0.000000 0.054823 0.000000 0.000000
# 5 0.000000 0.000000 0.000000 0.000000 0.027104 0.000000
# 6 0.000000 0.000000 0.000000 0.000000 0.000000 0.027905
#
#
# Mechanical properties :
#
#
# Convention : Reuss Voigt Hill
#
# Bulk Modulus (GPa) = 49.87867 50.16906 50.02387
# Shear Modulus (GPa) = 26.15680 28.74353 27.45016
#
# Velocity S-wave (km/s) = 3.37709 3.54014 3.45958
# Velocity P-wave (km/s) = 6.07900 6.21165 6.14568
#
# Compressibility (1/GPa) = 0.02004865
#
# Stress axis : x y z
#
# Youngs Moduli (GPa) = 54.58523 60.69076 79.70055
#
# Poissons Ratio (x) = 0.49286 0.20195
# Poissons Ratio (y) = 0.44328 0.23853
# Poissons Ratio (z) = 0.13831 0.18164
#
# Static dielectric constant tensor:
#      x y z
#    x 4.447670 0.000000 0.000000 
#    y 0.000000 4.304020 0.000000 
#    z 0.000000 0.000000 3.935940 
# 
# 
# High freq. dielectric constant tensor:
#      x y z
#    x 1.921000 0.000000 0.000000 
#    y 0.000000 1.908890 0.000000 
#    z 0.000000 0.000000 1.883410 
# 
# From -- ./inp_files/4639.got.cif
#   From: 2010.03.12/outbox.cif.g09.slc.cpg/sg41_3_cif.got.tgz:4639.got - 2010.04.14 01:55:53.
