data_PCOD8185000
_publ_section_title
;
Structure prediction by ZEFSAII (Michael W. Deem and Ramdas Pophale) SiO2 
 PCOD8185000
Probable space group: A B A 2
;
_chemical_formula_sum "Si O2"
_cell_formula_units_Z 64
_cell_length_a 23.408385
_cell_length_b 12.155179
_cell_length_c 8.803313
_cell_angle_alpha 90.000000
_cell_angle_beta 90.000000
_cell_angle_gamma 90.000000
_cell_volume 2504.834024
_symmetry_space_group_name_H-M "A B A 2"
_symmetry_group_IT_number 41
_symmetry_cell_setting 'orthorhombic'
loop_
_space_group_symop_operation_xyz
x,y,z
-x,-y,z
1/2-x,y,1/2+z
1/2+x,-y,1/2+z
x,1/2+y,1/2+z
-x,1/2-y,1/2+z
1/2-x,1/2+y,z
1/2+x,1/2-y,z
loop_
_atom_site_type_symbol
_atom_site_label
_atom_site_fract_x
_atom_site_fract_y
_atom_site_fract_z
Si Si1 0.508501 0.126868 0.385640
Si Si2 0.683322 0.257080 0.763445
Si Si3 0.353534 0.080325 0.768427
Si Si4 0.059770 0.958819 0.442443
Si Si5 0.224592 0.517258 0.297510
Si Si6 0.408552 0.882118 0.644248
Si Si7 0.066720 0.251659 0.125264
Si Si8 0.260692 0.362730 0.534801
O O1 0.567704 0.130142 0.477143
O O2 0.459103 0.167968 0.500214
O O3 0.517346 0.211870 0.246181
O O4 0.500000 0.000000 0.332687
O O5 0.679635 0.384273 0.808955
O O6 0.621635 0.230775 0.695281
O O7 0.693484 0.186080 0.916162
O O8 0.730348 0.232896 0.632149
O O9 0.286487 0.080779 0.806437
O O10 0.377028 0.195694 0.699819
O O11 0.392104 0.053952 0.920044
O O12 0.361184 0.980052 0.648374
O O13 0.043881 0.910944 0.273420
O O14 0.087386 0.864185 0.546825
O O15 0.000000 0.000000 0.514393
O O16 0.215238 0.432040 0.434431
O O17 0.210599 0.452227 0.143900
#
# Coordination Sequence:
#
# PCOD8185000 Si02
#       8
#     8   8   8   8   8   8   8   8
#     4  12  24  42  66 100 137 170 219 276 325 403
#     4  11  23  41  64  92 126 170 222 273 326 389
#     4  10  22  43  65  90 135 171 213 269 332 385
#     4  10  20  42  69  92 132 171 212 270 326 395
#     4  11  23  40  66  90 122 174 216 266 332 381
#     4  10  21  45  63  87 141 170 205 283 326 374
#     4  12  25  39  71 101 127 182 215 260 343 398
#     4  10  20  40  59  88 122 156 215 271 316 374
#
# _framework density 25.550595000000001
#
# number of rings (size 3 to 8) (size 9 to 14) (size 15 to 20)
#    0.750    0.500    3.750    3.750    0.000    5.000 
#    0.000    2.500    0.000    0.000    0.000    0.000 
#    0.000    0.000    0.000    0.000    0.000    0.000 
#
# Total GULP energy -396525.998937 kJ/mol
# GULP energy per Si atom -12391.437467 kJ/mol
# Density = 2.549244 g / cm^3
# Si number density = 25.550595 Si / 1000 Ang^3
#
#
#
# Elastic Constant Matrix: (Units=GPa)
#
#
# Indices 1 2 3 4 5 6 
#
# 1 30.6783 -28.5714 -9.0161 0.0000 0.0000 0.0000
# 2 -28.5714 87.2595 24.1662 0.0000 0.0000 0.0000
# 3 -9.0161 24.1662 99.0248 0.0000 0.0000 0.0000
# 4 0.0000 0.0000 0.0000 25.5121 0.0000 0.0000
# 5 0.0000 0.0000 0.0000 0.0000 17.5914 0.0000
# 6 0.0000 0.0000 0.0000 0.0000 0.0000 28.2121
#
#
#
# Elastic Compliance Matrix: (Units=1/GPa)
#
#
# Indices 1 2 3 4 5 6 
#
# 1 0.046926 0.015210 0.000561 0.000000 0.000000 0.000000
# 2 0.015210 0.017221 -0.002818 0.000000 0.000000 0.000000
# 3 0.000561 -0.002818 0.010837 0.000000 0.000000 0.000000
# 4 0.000000 0.000000 0.000000 0.039197 0.000000 0.000000
# 5 0.000000 0.000000 0.000000 0.000000 0.056846 0.000000
# 6 0.000000 0.000000 0.000000 0.000000 0.000000 0.035446
#
#
# Mechanical properties :
#
#
# Convention : Reuss Voigt Hill
#
# Bulk Modulus (GPa) = 9.91178 21.12444 15.51811
# Shear Modulus (GPa) = 23.34296 29.62204 26.48250
#
# Velocity S-wave (km/s) = 3.02586 3.40861 3.22292
# Velocity P-wave (km/s) = 4.01191 4.87618 4.46501
#
# Compressibility (1/GPa) = 0.10089007
#
# Stress axis : x y z
#
# Youngs Moduli (GPa) = 21.30994 58.06994 92.27498
#
# Poissons Ratio (x) = -0.88324 -0.05174
# Poissons Ratio (y) = -0.32412 0.26000
# Poissons Ratio (z) = -0.01195 0.16362
#
# Static dielectric constant tensor:
#      x y z
#    x 4.009110 0.000000 0.000000 
#    y 0.000000 4.634560 0.000000 
#    z 0.000000 0.000000 4.696290 
# 
# 
# High freq. dielectric constant tensor:
#      x y z
#    x 1.991980 0.000000 0.000000 
#    y 0.000000 2.022860 0.000000 
#    z 0.000000 0.000000 2.020080 
# 
# From -- ./inp_files/3701.got.cif
#   From: 2010.03.12/outbox.cif.g09.slc.cpg/sg41_2_cif.got.tgz:3701.got - 2010.04.14 01:55:53.
