data_PCOD8185003
_publ_section_title
;
Structure prediction by ZEFSAII (Michael W. Deem and Ramdas Pophale) SiO2 
 PCOD8185003
Probable space group: A B A 2
;
_chemical_formula_sum "Si O2"
_cell_formula_units_Z 52
_cell_length_a 13.810010
_cell_length_b 8.877368
_cell_length_c 18.354583
_cell_angle_alpha 90.000000
_cell_angle_beta 90.000000
_cell_angle_gamma 90.000000
_cell_volume 2250.208385
_symmetry_space_group_name_H-M "A B A 2"
_symmetry_group_IT_number 41
_symmetry_cell_setting 'orthorhombic'
loop_
_space_group_symop_operation_xyz
x,y,z
-x,-y,z
1/2-x,y,1/2+z
1/2+x,-y,1/2+z
x,1/2+y,1/2+z
-x,1/2-y,1/2+z
1/2-x,1/2+y,z
1/2+x,1/2-y,z
loop_
_atom_site_type_symbol
_atom_site_label
_atom_site_fract_x
_atom_site_fract_y
_atom_site_fract_z
Si Si1 0.094261 0.075857 0.513190
Si Si2 0.896760 0.130269 0.088119
Si Si3 0.729473 0.776090 0.906529
Si Si4 0.797856 0.065649 0.647290
Si Si5 0.500000 0.500000 0.216379
Si Si6 0.109249 0.022700 0.949720
Si Si7 0.181200 0.167310 0.244623
O O1 0.060165 0.240877 0.537358
O O2 0.171993 0.090079 0.448483
O O3 0.129008 0.990841 0.585940
O O4 0.000000 0.000000 0.478970
O O5 0.784775 0.161419 0.106312
O O6 0.953896 0.124650 0.163405
O O7 0.901828 0.978029 0.038295
O O8 0.842249 0.814856 0.928655
O O9 0.684205 0.613216 0.926231
O O10 0.731777 0.794370 0.820004
O O11 0.752152 0.928593 0.693324
O O12 0.849825 0.179585 0.703242
O O13 0.417080 0.576601 0.264721
O O14 0.000000 0.000000 0.915177
#
# Coordination Sequence:
#
# PCOD8185003 Si02
#       7
#     8   8   8   8   4   8   8
#     4  11  23  39  69 101 136 177 245 294 355 426
#     4  10  20  40  63 100 125 174 223 296 344 413
#     4  11  26  46  67 105 144 187 234 298 362 433
#     4  11  21  42  67  94 134 178 230 290 354 416
#     4  10  22  38  68  88 136 168 228 274 360 416
#     4  11  24  46  74 102 142 187 237 296 362 424
#     4  11  24  43  66  96 139 185 226 293 362 431
#
# _framework density 23.108969999999999
#
# number of rings (size 3 to 8) (size 9 to 14) (size 15 to 20)
#    0.000    1.231    3.846    1.846    1.077    2.462 
#    5.538    1.538    0.000    0.000    0.000    0.000 
#    0.000    0.000    0.000    0.000    0.000    0.000 
#
# Total GULP energy -322149.617089 kJ/mol
# GULP energy per Si atom -12390.369888 kJ/mol
# Density = 2.305637 g / cm^3
# Si number density = 23.108970 Si / 1000 Ang^3
#
#
#
# Elastic Constant Matrix: (Units=GPa)
#
#
# Indices 1 2 3 4 5 6 
#
# 1 93.5747 17.6672 -5.9247 0.0000 0.0000 0.0000
# 2 17.6672 68.0907 6.9917 0.0000 0.0000 0.0000
# 3 -5.9247 6.9917 74.0900 0.0000 0.0000 0.0000
# 4 0.0000 0.0000 0.0000 24.7191 0.0000 0.0000
# 5 0.0000 0.0000 0.0000 0.0000 16.9497 0.0000
# 6 0.0000 0.0000 0.0000 0.0000 0.0000 29.9876
#
#
#
# Elastic Compliance Matrix: (Units=1/GPa)
#
#
# Indices 1 2 3 4 5 6 
#
# 1 0.011341 -0.003065 0.001196 0.000000 0.000000 0.000000
# 2 -0.003065 0.015659 -0.001723 0.000000 0.000000 0.000000
# 3 0.001196 -0.001723 0.013755 0.000000 0.000000 0.000000
# 4 0.000000 0.000000 0.000000 0.040455 0.000000 0.000000
# 5 0.000000 0.000000 0.000000 0.000000 0.058998 0.000000
# 6 0.000000 0.000000 0.000000 0.000000 0.000000 0.033347
#
#
# Mechanical properties :
#
#
# Convention : Reuss Voigt Hill
#
# Bulk Modulus (GPa) = 29.78772 30.35823 30.07297
# Shear Modulus (GPa) = 26.05127 28.79935 27.42531
#
# Velocity S-wave (km/s) = 3.36121 3.53404 3.44871
# Velocity P-wave (km/s) = 5.28977 5.46060 5.37586
#
# Compressibility (1/GPa) = 0.03357088
#
# Stress axis : x y z
#
# Youngs Moduli (GPa) = 88.17441 63.86269 72.69913
#
# Poissons Ratio (x) = 0.19577 -0.08696
# Poissons Ratio (y) = 0.27030 0.12525
# Poissons Ratio (z) = -0.10547 0.11002
#
# Static dielectric constant tensor:
#      x y z
#    x 4.254650 0.000000 0.000000 
#    y 0.000000 4.209230 0.000000 
#    z 0.000000 0.000000 3.985140 
# 
# 
# High freq. dielectric constant tensor:
#      x y z
#    x 1.912860 0.000000 0.000000 
#    y 0.000000 1.907020 0.000000 
#    z 0.000000 0.000000 1.901980 
# 
# From -- ./inp_files/11520.got.cif
#   From: 2010.03.12/outbox.cif.g09.slc.cpg/sg41_6_cif.got.tgz:11520.got - 2010.04.14 01:55:53.
