data_PCOD8185041
_publ_section_title
;
Structure prediction by ZEFSAII (Michael W. Deem and Ramdas Pophale) SiO2 
 PCOD8185041
Probable space group: A B A 2
;
_chemical_formula_sum "Si O2"
_cell_formula_units_Z 44
_cell_length_a 18.934691
_cell_length_b 12.619496
_cell_length_c 7.855383
_cell_angle_alpha 90.000000
_cell_angle_beta 90.000000
_cell_angle_gamma 90.000000
_cell_volume 1877.014368
_symmetry_space_group_name_H-M "A B A 2"
_symmetry_group_IT_number 41
_symmetry_cell_setting 'orthorhombic'
loop_
_space_group_symop_operation_xyz
x,y,z
-x,-y,z
1/2-x,y,1/2+z
1/2+x,-y,1/2+z
x,1/2+y,1/2+z
-x,1/2-y,1/2+z
1/2-x,1/2+y,z
1/2+x,1/2-y,z
loop_
_atom_site_type_symbol
_atom_site_label
_atom_site_fract_x
_atom_site_fract_y
_atom_site_fract_z
Si Si1 0.285684 0.816621 0.298750
Si Si2 0.601711 0.805797 0.986270
Si Si3 0.642840 0.469052 0.743403
Si Si4 0.163746 0.227084 0.974960
Si Si5 0.500000 0.000000 0.412624
Si Si6 0.975789 0.796637 0.133500
O O1 0.338456 0.783273 0.453264
O O2 0.203712 0.812728 0.356025
O O3 0.301843 0.934358 0.230250
O O4 0.294720 0.726035 0.154806
O O5 0.553522 0.823960 0.819957
O O6 0.638681 0.912051 0.058363
O O7 0.548102 0.771716 0.140314
O O8 0.667879 0.389085 0.892048
O O9 0.566957 0.517883 0.790835
O O10 0.084018 0.263951 0.020166
O O11 0.494608 0.098218 0.535485
#
# Coordination Sequence:
#
# PCOD8185041 Si02
#       6
#     8   8   8   8   4   8
#     4  11  24  46  68 101 139 189 232 285 353 421
#     4  11  23  42  70  99 144 181 233 294 349 415
#     4  11  24  44  71  99 141 181 231 290 348 417
#     4  10  24  42  69  97 137 179 230 285 344 415
#     4  10  20  42  66 104 136 176 230 282 350 416
#     4  10  21  42  67 106 141 179 233 294 352 420
#
# _framework density 23.441482000000001
#
# number of rings (size 3 to 8) (size 9 to 14) (size 15 to 20)
#    0.000    1.455    1.818    3.273    2.545    3.636 
#    3.273    1.818    0.000    0.000    0.000    0.000 
#    0.000    0.000    0.000    0.000    0.000    0.000 
#
# Total GULP energy -272696.552158 kJ/mol
# GULP energy per Si atom -12395.297825 kJ/mol
# Density = 2.338813 g / cm^3
# Si number density = 23.441482 Si / 1000 Ang^3
#
#
#
# Elastic Constant Matrix: (Units=GPa)
#
#
# Indices 1 2 3 4 5 6 
#
# 1 83.8182 56.0045 27.7602 0.0000 0.0000 0.0000
# 2 56.0045 98.8913 44.9181 0.0000 0.0000 0.0000
# 3 27.7602 44.9181 113.0577 0.0000 0.0000 0.0000
# 4 0.0000 0.0000 0.0000 40.1107 0.0000 0.0000
# 5 0.0000 0.0000 0.0000 0.0000 26.9225 0.0000
# 6 0.0000 0.0000 0.0000 0.0000 0.0000 32.6326
#
#
#
# Elastic Compliance Matrix: (Units=1/GPa)
#
#
# Indices 1 2 3 4 5 6 
#
# 1 0.019215 -0.010663 -0.000482 0.000000 0.000000 0.000000
# 2 -0.010663 0.018256 -0.004635 0.000000 0.000000 0.000000
# 3 -0.000482 -0.004635 0.010805 0.000000 0.000000 0.000000
# 4 0.000000 0.000000 0.000000 0.024931 0.000000 0.000000
# 5 0.000000 0.000000 0.000000 0.000000 0.037144 0.000000
# 6 0.000000 0.000000 0.000000 0.000000 0.000000 0.030644
#
#
# Mechanical properties :
#
#
# Convention : Reuss Voigt Hill
#
# Bulk Modulus (GPa) = 59.82117 61.45920 60.64019
# Shear Modulus (GPa) = 28.07007 31.07214 29.57111
#
# Velocity S-wave (km/s) = 3.46418 3.64472 3.55559
# Velocity P-wave (km/s) = 6.44790 6.63227 6.54074
#
# Compressibility (1/GPa) = 0.01671649
#
# Stress axis : x y z
#
# Youngs Moduli (GPa) = 52.04343 54.77617 92.55169
#
# Poissons Ratio (x) = 0.58408 0.04457
# Poissons Ratio (y) = 0.55494 0.42898
# Poissons Ratio (z) = 0.02506 0.25389
#
# Static dielectric constant tensor:
#      x y z
#    x 4.629690 0.000000 0.000000 
#    y 0.000000 4.152230 0.000000 
#    z 0.000000 0.000000 4.364000 
# 
# 
# High freq. dielectric constant tensor:
#      x y z
#    x 1.942000 0.000000 0.000000 
#    y 0.000000 1.899880 0.000000 
#    z 0.000000 0.000000 1.936130 
# 
# From -- ./inp_files/2984.got.cif
#   From: 2010.03.12/outbox.cif.g09.slc.cpg/sg41_2_cif.got.tgz:2984.got - 2010.04.14 01:55:53.
