data_PCOD8185152
_publ_section_title
;
Structure prediction by ZEFSAII (Michael W. Deem and Ramdas Pophale) SiO2 
 PCOD8185152
Probable space group: A B A 2
;
_chemical_formula_sum "Si O2"
_cell_formula_units_Z 64
_cell_length_a 9.068302
_cell_length_b 10.033799
_cell_length_c 32.861833
_cell_angle_alpha 90.000000
_cell_angle_beta 90.000000
_cell_angle_gamma 90.000000
_cell_volume 2990.082396
_symmetry_space_group_name_H-M "A B A 2"
_symmetry_group_IT_number 41
_symmetry_cell_setting 'orthorhombic'
loop_
_space_group_symop_operation_xyz
x,y,z
-x,-y,z
1/2-x,y,1/2+z
1/2+x,-y,1/2+z
x,1/2+y,1/2+z
-x,1/2-y,1/2+z
1/2-x,1/2+y,z
1/2+x,1/2-y,z
loop_
_atom_site_type_symbol
_atom_site_label
_atom_site_fract_x
_atom_site_fract_y
_atom_site_fract_z
Si Si1 0.588602 0.305197 0.841710
Si Si2 0.749139 0.252086 0.481309
Si Si3 0.204261 0.429919 0.313165
Si Si4 0.330944 0.015238 0.729841
Si Si5 0.499342 0.352910 0.927235
Si Si6 0.993771 0.147655 0.536085
Si Si7 0.736971 0.237178 0.678157
Si Si8 0.512776 0.657624 0.624393
O O1 0.446669 0.343711 0.814320
O O2 0.695405 0.436943 0.841903
O O3 0.663900 0.170496 0.825254
O O4 0.534955 0.264797 0.887480
O O5 0.874316 0.344496 0.461498
O O6 0.663218 0.173425 0.445748
O O7 0.625718 0.334473 0.504583
O O8 0.835091 0.163742 0.514321
O O9 0.227046 0.489529 0.268458
O O10 0.304114 0.163001 0.711941
O O11 0.500000 0.000000 0.743407
O O12 0.289412 0.907716 0.696369
O O13 0.500000 0.500000 0.909557
O O14 0.012534 0.225296 0.579265
O O15 0.000000 0.000000 0.551812
O O16 0.586566 0.294324 0.661345
O O17 0.829927 0.214332 0.637398
O O18 0.500000 0.500000 0.623395
#
# Coordination Sequence:
#
# PCOD8185152 Si02
#       8
#     8   8   8   8   8   8   8   8
#     4  11  25  46  68 100 136 174 229 270 338 392
#     4  10  22  38  64  93 127 171 214 266 324 389
#     4  11  26  45  68  98 133 176 220 281 328 399
#     4  12  27  44  69  97 132 170 222 275 333 395
#     4  11  21  40  65  92 131 169 216 275 323 387
#     4  10  21  40  61  95 129 168 215 259 326 390
#     4  12  24  44  67  99 129 173 220 267 334 388
#     4  11  23  40  67  95 135 172 213 277 323 392
#
# _framework density 21.404093
#
# number of rings (size 3 to 8) (size 9 to 14) (size 15 to 20)
#    0.000    1.000    3.750    3.000    3.500    2.000 
#    0.000    0.000    2.750    0.000    0.000    0.000 
#    0.000    0.000    0.000    0.000    0.000    0.000 
#
# Total GULP energy -396562.859548 kJ/mol
# GULP energy per Si atom -12392.589361 kJ/mol
# Density = 2.135538 g / cm^3
# Si number density = 21.404093 Si / 1000 Ang^3
#
#
#
# Elastic Constant Matrix: (Units=GPa)
#
#
# Indices 1 2 3 4 5 6 
#
# 1 94.3850 14.3625 35.4504 0.0000 0.0000 0.0000
# 2 14.3625 72.2124 19.0788 0.0000 0.0000 0.0000
# 3 35.4504 19.0788 120.3149 0.0000 0.0000 0.0000
# 4 0.0000 0.0000 0.0000 30.6277 0.0000 0.0000
# 5 0.0000 0.0000 0.0000 0.0000 61.1666 0.0000
# 6 0.0000 0.0000 0.0000 0.0000 0.0000 28.9534
#
#
#
# Elastic Compliance Matrix: (Units=1/GPa)
#
#
# Indices 1 2 3 4 5 6 
#
# 1 0.012072 -0.001525 -0.003315 0.000000 0.000000 0.000000
# 2 -0.001525 0.014646 -0.001873 0.000000 0.000000 0.000000
# 3 -0.003315 -0.001873 0.009585 0.000000 0.000000 0.000000
# 4 0.000000 0.000000 0.000000 0.032650 0.000000 0.000000
# 5 0.000000 0.000000 0.000000 0.000000 0.016349 0.000000
# 6 0.000000 0.000000 0.000000 0.000000 0.000000 0.034538
#
#
# Mechanical properties :
#
#
# Convention : Reuss Voigt Hill
#
# Bulk Modulus (GPa) = 43.71235 47.18841 45.45038
# Shear Modulus (GPa) = 35.48779 38.68425 37.08602
#
# Velocity S-wave (km/s) = 4.07626 4.25588 4.16704
# Velocity P-wave (km/s) = 6.52850 6.80032 6.66579
#
# Compressibility (1/GPa) = 0.02287683
#
# Stress axis : x y z
#
# Youngs Moduli (GPa) = 82.83530 68.27679 104.32577
#
# Poissons Ratio (x) = 0.10413 0.34586
# Poissons Ratio (y) = 0.12634 0.19542
# Poissons Ratio (z) = 0.27461 0.12789
#
# Static dielectric constant tensor:
#      x y z
#    x 4.033920 0.000000 0.000000 
#    y 0.000000 3.752210 0.000000 
#    z 0.000000 0.000000 3.928110 
# 
# 
# High freq. dielectric constant tensor:
#      x y z
#    x 1.847530 0.000000 0.000000 
#    y 0.000000 1.827710 0.000000 
#    z 0.000000 0.000000 1.856790 
# 
# From -- ./inp_files/12697.got.cif
#   From: 2010.03.12/outbox.cif.g09.slc.cpg/sg41_7_cif.got.tgz:12697.got - 2010.04.14 01:55:53.
