data_PCOD8185912
_publ_section_title
;
Structure prediction by ZEFSAII (Michael W. Deem and Ramdas Pophale) SiO2 
 PCOD8185912
Probable space group: F M M 2
;
_chemical_formula_sum "Si O2"
_cell_formula_units_Z 112
_cell_length_a 14.883466
_cell_length_b 29.231508
_cell_length_c 13.869286
_cell_angle_alpha 90.000000
_cell_angle_beta 90.000000
_cell_angle_gamma 90.000000
_cell_volume 6034.056939
_symmetry_space_group_name_H-M "F M M 2"
_symmetry_group_IT_number 42
_symmetry_cell_setting 'orthorhombic'
loop_
_space_group_symop_operation_xyz
x,y,z
-x,-y,z
-x,y,z
x,-y,z
x,1/2+y,1/2+z
-x,1/2-y,1/2+z
-x,1/2+y,1/2+z
x,1/2-y,1/2+z
1/2+x,y,1/2+z
1/2-x,-y,1/2+z
1/2-x,y,1/2+z
1/2+x,-y,1/2+z
1/2+x,1/2+y,z
1/2-x,1/2-y,z
1/2-x,1/2+y,z
1/2+x,1/2-y,z
loop_
_atom_site_type_symbol
_atom_site_label
_atom_site_fract_x
_atom_site_fract_y
_atom_site_fract_z
Si Si1 0.900023 0.823941 0.924030
Si Si2 0.103362 0.688723 0.206618
Si Si3 0.896926 0.283716 0.621158
Si Si4 0.902665 0.051895 0.727803
Si Si5 0.260742 0.447943 0.571918
Si Si6 0.724926 0.098160 0.381050
Si Si7 0.279203 0.366142 0.194348
O O1 0.889256 0.800377 0.820258
O O2 0.826732 0.863189 0.941880
O O3 0.000000 0.845227 0.935025
O O4 0.884503 0.785753 0.005836
O O5 0.138143 0.734042 0.152603
O O6 0.172422 0.647559 0.180820
O O7 0.000000 0.676107 0.177733
O O8 0.842428 0.323835 0.672632
O O9 0.000000 0.289692 0.653180
O O10 0.857475 0.055161 0.622539
O O11 0.846283 0.073151 0.813636
O O12 0.000000 0.076509 0.722378
O O13 0.915503 0.000000 0.757880
O O14 0.221880 0.500000 0.581934
O O15 0.270681 0.435632 0.458514
O O16 0.198386 0.410259 0.626909
O O17 0.797266 0.120053 0.306674
#
# Coordination Sequence:
#
# PCOD8185912 Si02
#       7
#    16  16  16  16  16  16  16
#     4   9  17  31  53  76 100 135 173 217 266 312
#     4   9  19  35  56  82 108 136 176 225 272 322
#     4  10  19  35  55  78 111 143 174 215 266 326
#     4   9  18  32  52  78 105 137 181 233 280 324
#     4  10  20  34  53  79 111 143 180 229 281 326
#     4  10  18  32  53  76 106 138 181 225 270 325
#     4  10  20  35  54  80 108 144 181 223 271 325
#
# _framework density 18.561309999999999
#
# number of rings (size 3 to 8) (size 9 to 14) (size 15 to 20)
#    0.000    2.429    1.429    1.286    0.000    4.000 
#    2.571    2.143    0.000    1.286    0.000    0.000 
#    0.000    0.000    0.000    0.000    0.000    0.000 
#
# Total GULP energy -346970.019773 kJ/mol
# GULP energy per Si atom -12391.786420 kJ/mol
# Density = 1.851906 g / cm^3
# Si number density = 18.561310 Si / 1000 Ang^3
#
#
#
# Elastic Constant Matrix: (Units=GPa)
#
#
# Indices 1 2 3 4 5 6 
#
# 1 40.4226 16.3293 25.5734 0.0000 0.0000 0.0000
# 2 16.3293 105.8273 51.5095 0.0000 0.0000 0.0000
# 3 25.5734 51.5095 105.3057 0.0000 0.0000 0.0000
# 4 0.0000 0.0000 0.0000 38.0688 0.0000 0.0000
# 5 0.0000 0.0000 0.0000 0.0000 18.6898 0.0000
# 6 0.0000 0.0000 0.0000 0.0000 0.0000 20.8014
#
#
#
# Elastic Compliance Matrix: (Units=1/GPa)
#
#
# Indices 1 2 3 4 5 6 
#
# 1 0.029385 -0.001392 -0.006455 0.000000 0.000000 0.000000
# 2 -0.001392 0.012468 -0.005761 0.000000 0.000000 0.000000
# 3 -0.006455 -0.005761 0.013881 0.000000 0.000000 0.000000
# 4 0.000000 0.000000 0.000000 0.026268 0.000000 0.000000
# 5 0.000000 0.000000 0.000000 0.000000 0.053505 0.000000
# 6 0.000000 0.000000 0.000000 0.000000 0.000000 0.048074
#
#
# Mechanical properties :
#
#
# Convention : Reuss Voigt Hill
#
# Bulk Modulus (GPa) = 35.06476 48.70890 41.88683
# Shear Modulus (GPa) = 22.69600 26.05491 24.37545
#
# Velocity S-wave (km/s) = 3.50059 3.75069 3.62780
# Velocity P-wave (km/s) = 5.93895 6.71238 6.33748
#
# Compressibility (1/GPa) = 0.02851866
#
# Stress axis : x y z
#
# Youngs Moduli (GPa) = 34.03113 80.20518 72.03834
#
# Poissons Ratio (x) = 0.11166 0.46501
# Poissons Ratio (y) = 0.04738 0.41498
# Poissons Ratio (z) = 0.21967 0.46203
#
# Static dielectric constant tensor:
#      x y z
#    x 3.388840 0.000000 0.000000 
#    y 0.000000 3.612920 0.000000 
#    z 0.000000 0.000000 3.561650 
# 
# 
# High freq. dielectric constant tensor:
#      x y z
#    x 1.692600 0.000000 0.000000 
#    y 0.000000 1.728690 0.000000 
#    z 0.000000 0.000000 1.721950 
# 
# From -- ./inp_files/14494.got.cif
#   From: 2010.03.12/outbox.cif.g09.slc.cpg/sg42_8_cif.got.tgz:14494.got - 2010.04.14 02:04:31.
