data_PCOD8185885
_publ_section_title
;
Structure prediction by ZEFSAII (Michael W. Deem and Ramdas Pophale) SiO2 
 PCOD8185885
Probable space group: F M M 2
;
_chemical_formula_sum "Si O2"
_cell_formula_units_Z 96
_cell_length_a 25.209265
_cell_length_b 8.684369
_cell_length_c 25.235070
_cell_angle_alpha 90.000000
_cell_angle_beta 90.000000
_cell_angle_gamma 90.000000
_cell_volume 5524.627053
_symmetry_space_group_name_H-M "F M M 2"
_symmetry_group_IT_number 42
_symmetry_cell_setting 'orthorhombic'
loop_
_space_group_symop_operation_xyz
x,y,z
-x,-y,z
-x,y,z
x,-y,z
x,1/2+y,1/2+z
-x,1/2-y,1/2+z
-x,1/2+y,1/2+z
x,1/2-y,1/2+z
1/2+x,y,1/2+z
1/2-x,-y,1/2+z
1/2-x,y,1/2+z
1/2+x,-y,1/2+z
1/2+x,1/2+y,z
1/2-x,1/2-y,z
1/2-x,1/2+y,z
1/2+x,1/2-y,z
loop_
_atom_site_type_symbol
_atom_site_label
_atom_site_fract_x
_atom_site_fract_y
_atom_site_fract_z
Si Si1 0.890621 0.817848 0.923190
Si Si2 0.893139 0.680087 0.302033
Si Si3 0.500000 0.324882 0.424481
Si Si4 0.691211 0.183172 0.610022
Si Si5 0.191592 0.182374 0.502761
Si Si6 0.192001 0.682424 0.217007
Si Si7 0.000000 0.828284 0.298568
O O1 0.883489 0.765566 0.862211
O O2 0.947749 0.763169 0.945423
O O3 0.844506 0.730143 0.953791
O O4 0.885080 0.000000 0.930782
O O5 0.900859 0.500000 0.300484
O O6 0.843617 0.733381 0.266708
O O7 0.946846 0.748735 0.277052
O O8 0.500000 0.500000 0.445700
O O9 0.500000 0.319265 0.361584
O O10 0.750000 0.250000 0.610735
O O11 0.664513 0.248859 0.556425
O O12 0.664524 0.246376 0.664008
O O13 0.690736 0.000000 0.609154
O O14 0.250000 0.250000 0.493520
O O15 0.195624 0.000000 0.507348
O O16 0.195897 0.500000 0.210661
O O17 0.250000 0.750000 0.227417
O O18 0.000000 0.000000 0.276737
#
# Coordination Sequence:
#
# PCOD8185885 Si02
#       7
#    16  16   8  16  16  16   8
#     4  10  19  33  51  74 101 132 166 203 244 290
#     4   9  19  33  50  71 100 133 164 197 241 290
#     4   9  17  31  49  72  97 128 167 205 242 286
#     4  10  18  31  50  71  94 125 163 203 241 286
#     4  11  21  34  51  73 100 131 164 203 246 294
#     4  10  19  32  49  72  99 130 163 199 241 288
#     4   9  17  29  49  72  95 124 165 207 240 278
#
# _framework density 17.376739000000001
#
# number of rings (size 3 to 8) (size 9 to 14) (size 15 to 20)
#    0.000    2.167    0.000    6.500    0.000    4.667 
#    0.000    1.667    0.000    1.000    0.000    3.500 
#    0.000    0.000    0.000    0.000    0.000    0.000 
#
# Total GULP energy -297542.436039 kJ/mol
# GULP energy per Si atom -12397.601502 kJ/mol
# Density = 1.733719 g / cm^3
# Si number density = 17.376739 Si / 1000 Ang^3
#
#
#
# Elastic Constant Matrix: (Units=GPa)
#
#
# Indices 1 2 3 4 5 6 
#
# 1 106.1969 47.8743 62.9469 0.0000 0.0000 -0.0001
# 2 47.8743 109.3221 50.1719 0.0000 -0.0001 -0.0002
# 3 62.9469 50.1719 100.9538 0.0000 0.0000 0.0000
# 4 0.0000 0.0000 0.0000 25.8134 0.0000 0.0000
# 5 0.0000 -0.0001 0.0000 0.0000 0.3116 0.0000
# 6 -0.0001 -0.0002 0.0000 0.0000 0.0000 29.3182
#
#
#
# Elastic Compliance Matrix: (Units=1/GPa)
#
#
# Indices 1 2 3 4 5 6 
#
# 1 0.015702 -0.003087 -0.008256 0.000000 0.000001 0.000000
# 2 -0.003087 0.012457 -0.004266 0.000000 0.000002 0.000000
# 3 -0.008256 -0.004266 0.017174 0.000000 -0.000002 0.000000
# 4 0.000000 0.000000 0.000000 0.038740 0.000001 0.000000
# 5 0.000001 0.000002 -0.000002 0.000001 3.209492 -0.000005
# 6 0.000000 0.000000 0.000000 0.000000 -0.000005 0.034109
#
#
# Mechanical properties :
#
#
# Convention : Reuss Voigt Hill
#
# Bulk Modulus (GPa) = 70.85260 70.93990 70.89625
# Shear Modulus (GPa) = 1.48650 21.45393 11.47022
#
# Velocity S-wave (km/s) = 0.92591 3.51755 2.57201
# Velocity P-wave (km/s) = 6.48120 7.57699 7.05042
#
# Compressibility (1/GPa) = 0.01411381
#
# Stress axis : x y z
#
# Youngs Moduli (GPa) = 63.68620 80.27618 58.22887
#
# Poissons Ratio (x) = 0.24782 0.48076
# Poissons Ratio (y) = 0.19661 0.24840
# Poissons Ratio (z) = 0.52581 0.34246
#
# Static dielectric constant tensor:
#      x y z
#    x 3.192280 0.000000 0.000000 
#    y 0.000000 3.347590 0.000000 
#    z 0.000000 0.000000 3.740490 
# 
# 
# High freq. dielectric constant tensor:
#      x y z
#    x 1.651530 0.000000 0.000000 
#    y 0.000000 1.689160 0.000000 
#    z 0.000000 0.000000 1.659760 
# 
# From -- ./inp_files/30455.got.cif
#   From: 2010.03.12/outbox.cif.g09.slc.cpg/sg42_16_cif.got.tgz:30455.got - 2010.04.14 02:04:31.
