data_PCOD8185493
_publ_section_title
;
Structure prediction by ZEFSAII (Michael W. Deem and Ramdas Pophale) SiO2 
 PCOD8185493
Probable space group: A B A 2
;
_chemical_formula_sum "Si O2"
_cell_formula_units_Z 56
_cell_length_a 14.227507
_cell_length_b 15.177437
_cell_length_c 11.543488
_cell_angle_alpha 90.000000
_cell_angle_beta 90.000000
_cell_angle_gamma 90.000000
_cell_volume 2492.667221
_symmetry_space_group_name_H-M "A B A 2"
_symmetry_group_IT_number 41
_symmetry_cell_setting 'orthorhombic'
loop_
_space_group_symop_operation_xyz
x,y,z
-x,-y,z
1/2-x,y,1/2+z
1/2+x,-y,1/2+z
x,1/2+y,1/2+z
-x,1/2-y,1/2+z
1/2-x,1/2+y,z
1/2+x,1/2-y,z
loop_
_atom_site_type_symbol
_atom_site_label
_atom_site_fract_x
_atom_site_fract_y
_atom_site_fract_z
Si Si1 0.102833 0.649785 0.803050
Si Si2 0.397983 0.012336 0.596782
Si Si3 0.108380 0.321038 0.158243
Si Si4 0.297590 0.384551 0.250708
Si Si5 0.073934 0.774099 0.400214
Si Si6 0.044024 0.591010 0.295302
Si Si7 0.769591 0.952950 0.879903
O O1 0.094749 0.582366 0.698732
O O2 0.116485 0.746339 0.753976
O O3 0.190250 0.622950 0.885401
O O4 0.007978 0.653482 0.879576
O O5 0.324045 0.044774 0.501318
O O6 0.500000 0.000000 0.538483
O O7 0.369434 0.919674 0.653949
O O8 0.201892 0.375882 0.179119
O O9 0.014046 0.380112 0.180386
O O10 0.108987 0.282118 0.030595
O O11 0.341319 0.296759 0.309745
O O12 0.279984 0.454244 0.354137
O O13 0.038770 0.673316 0.385487
O O14 0.155367 0.571390 0.276966
O O15 0.000000 0.500000 0.345671
#
# Coordination Sequence:
#
# PCOD8185493 Si02
#       7
#     8   8   8   8   8   8   8
#     4  10  24  44  65 101 138 181 235 298 339 437
#     4  11  22  41  68  98 141 190 232 281 362 419
#     4  11  24  44  69 101 137 180 234 289 363 407
#     4  11  23  43  65 107 140 180 235 297 339 436
#     4  11  24  45  72 101 142 188 231 293 358 412
#     4  11  23  46  67 103 140 180 235 290 337 436
#     4  11  23  40  69  99 139 188 236 288 360 415
#
# _framework density 22.465895
#
# number of rings (size 3 to 8) (size 9 to 14) (size 15 to 20)
#    0.000    1.143    2.857    3.000    0.000    2.286 
#    5.143    5.714    0.000    0.000    0.000    0.000 
#    0.000    0.000    0.000    0.000    0.000    0.000 
#
# Total GULP energy -347036.534987 kJ/mol
# GULP energy per Si atom -12394.161964 kJ/mol
# Density = 2.241476 g / cm^3
# Si number density = 22.465895 Si / 1000 Ang^3
#
#
#
# Elastic Constant Matrix: (Units=GPa)
#
#
# Indices 1 2 3 4 5 6 
#
# 1 119.9125 33.1784 38.4209 0.0000 0.0000 0.0000
# 2 33.1784 111.3724 33.7232 0.0000 0.0000 0.0000
# 3 38.4209 33.7232 102.5424 0.0000 0.0000 0.0000
# 4 0.0000 0.0000 0.0000 16.0426 0.0000 0.0000
# 5 0.0000 0.0000 0.0000 0.0000 37.0136 0.0000
# 6 0.0000 0.0000 0.0000 0.0000 0.0000 35.5171
#
#
#
# Elastic Compliance Matrix: (Units=1/GPa)
#
#
# Indices 1 2 3 4 5 6 
#
# 1 0.009871 -0.002022 -0.003033 0.000000 0.000000 0.000000
# 2 -0.002022 0.010386 -0.002658 0.000000 0.000000 0.000000
# 3 -0.003033 -0.002658 0.011763 0.000000 0.000000 0.000000
# 4 0.000000 0.000000 0.000000 0.062334 0.000000 0.000000
# 5 0.000000 0.000000 0.000000 0.000000 0.027017 0.000000
# 6 0.000000 0.000000 0.000000 0.000000 0.000000 0.028155
#
#
# Mechanical properties :
#
#
# Convention : Reuss Voigt Hill
#
# Bulk Modulus (GPa) = 60.26768 60.49692 60.38230
# Shear Modulus (GPa) = 29.32824 32.94833 31.13828
#
# Velocity S-wave (km/s) = 3.61703 3.83377 3.72697
# Velocity P-wave (km/s) = 6.65796 6.82523 6.74211
#
# Compressibility (1/GPa) = 0.01659264
#
# Stress axis : x y z
#
# Youngs Moduli (GPa) = 101.30867 96.28241 85.01374
#
# Poissons Ratio (x) = 0.19469 0.25788
# Poissons Ratio (y) = 0.20485 0.22597
# Poissons Ratio (z) = 0.30731 0.25593
#
# Static dielectric constant tensor:
#      x y z
#    x 4.588780 0.000000 0.000000 
#    y 0.000000 4.156800 0.000000 
#    z 0.000000 0.000000 3.678500 
# 
# 
# High freq. dielectric constant tensor:
#      x y z
#    x 1.902120 0.000000 0.000000 
#    y 0.000000 1.893000 0.000000 
#    z 0.000000 0.000000 1.862610 
# 
# From -- ./inp_files/5603.got.cif
#   From: 2010.03.12/outbox.cif.g09.slc.cpg/sg41_3_cif.got.tgz:5603.got - 2010.04.14 01:55:53.
