data_PCOD8185151
_publ_section_title
;
Structure prediction by ZEFSAII (Michael W. Deem and Ramdas Pophale) SiO2 
 PCOD8185151
Probable space group: A B A 2
;
_chemical_formula_sum "Si O2"
_cell_formula_units_Z 48
_cell_length_a 15.456416
_cell_length_b 8.322890
_cell_length_c 16.981888
_cell_angle_alpha 90.000000
_cell_angle_beta 90.000000
_cell_angle_gamma 90.000000
_cell_volume 2184.584888
_symmetry_space_group_name_H-M "A B A 2"
_symmetry_group_IT_number 41
_symmetry_cell_setting 'orthorhombic'
loop_
_space_group_symop_operation_xyz
x,y,z
-x,-y,z
1/2-x,y,1/2+z
1/2+x,-y,1/2+z
x,1/2+y,1/2+z
-x,1/2-y,1/2+z
1/2-x,1/2+y,z
1/2+x,1/2-y,z
loop_
_atom_site_type_symbol
_atom_site_label
_atom_site_fract_x
_atom_site_fract_y
_atom_site_fract_z
Si Si1 0.500000 0.000000 0.165841
Si Si2 0.327396 0.867834 0.116286
Si Si3 0.937281 0.227450 0.269185
Si Si4 0.312466 0.968061 0.946869
Si Si5 0.178164 0.548719 0.703335
Si Si6 0.000000 0.500000 0.893583
Si Si7 0.273618 0.187259 0.343577
O O1 0.586253 0.022524 0.114341
O O2 0.498373 0.164833 0.215298
O O3 0.344792 0.679980 0.135958
O O4 0.260171 0.942026 0.178180
O O5 0.288205 0.880932 0.028157
O O6 0.865155 0.354023 0.302072
O O7 0.995258 0.160249 0.340305
O O8 0.899581 0.076231 0.218729
O O9 0.288327 0.873999 0.865278
O O10 0.414247 0.013794 0.947218
O O11 0.248330 0.117539 0.930835
O O12 0.196581 0.651374 0.782659
#
# Coordination Sequence:
#
# PCOD8185151 Si02
#       7
#     4   8   8   8   8   4   8
#     4  12  25  38  64  98 133 166 216 270 333 392
#     4  12  24  40  62  95 133 164 213 268 331 389
#     4  11  23  38  67 100 120 174 220 274 316 374
#     4  11  24  38  63  93 127 170 204 265 329 381
#     4  12  21  43  67  93 125 167 222 268 309 388
#     4  10  21  40  60  88 135 166 208 260 335 382
#     4  11  20  40  65  90 121 164 221 256 310 381
#
# _framework density 21.972138000000001
#
# number of rings (size 3 to 8) (size 9 to 14) (size 15 to 20)
#    0.000    0.667    6.667    2.500    0.000    0.000 
#    0.000    0.000    0.000   10.000    0.000    0.000 
#    0.000    0.000    0.000    0.000    0.000    0.000 
#
# Total GULP energy -297408.825707 kJ/mol
# GULP energy per Si atom -12392.034404 kJ/mol
# Density = 2.192213 g / cm^3
# Si number density = 21.972138 Si / 1000 Ang^3
#
#
#
# Elastic Constant Matrix: (Units=GPa)
#
#
# Indices 1 2 3 4 5 6 
#
# 1 57.0048 23.1786 13.5829 0.0000 0.0000 0.0000
# 2 23.1786 87.1015 31.4623 0.0000 0.0000 0.0000
# 3 13.5829 31.4623 91.5223 0.0000 0.0000 0.0000
# 4 0.0000 0.0000 0.0000 32.5931 0.0000 0.0000
# 5 0.0000 0.0000 0.0000 0.0000 25.9101 0.0000
# 6 0.0000 0.0000 0.0000 0.0000 0.0000 40.8690
#
#
#
# Elastic Compliance Matrix: (Units=1/GPa)
#
#
# Indices 1 2 3 4 5 6 
#
# 1 0.019803 -0.004805 -0.001287 0.000000 0.000000 0.000000
# 2 -0.004805 0.014274 -0.004194 0.000000 0.000000 0.000000
# 3 -0.001287 -0.004194 0.012559 0.000000 0.000000 0.000000
# 4 0.000000 0.000000 0.000000 0.030681 0.000000 0.000000
# 5 0.000000 0.000000 0.000000 0.000000 0.038595 0.000000
# 6 0.000000 0.000000 0.000000 0.000000 0.000000 0.024468
#
#
# Mechanical properties :
#
#
# Convention : Reuss Voigt Hill
#
# Bulk Modulus (GPa) = 38.36666 41.34180 39.85423
# Shear Modulus (GPa) = 29.47398 31.03473 30.25436
#
# Velocity S-wave (km/s) = 3.66652 3.76235 3.71474
# Velocity P-wave (km/s) = 5.95180 6.14248 6.04789
#
# Compressibility (1/GPa) = 0.02606430
#
# Stress axis : x y z
#
# Youngs Moduli (GPa) = 50.49801 70.05554 79.62359
#
# Poissons Ratio (x) = 0.33660 0.10249
# Poissons Ratio (y) = 0.24263 0.33394
# Poissons Ratio (z) = 0.06500 0.29381
#
# Static dielectric constant tensor:
#      x y z
#    x 3.975800 0.000000 0.000000 
#    y 0.000000 3.965800 0.000000 
#    z 0.000000 0.000000 3.769500 
# 
# 
# High freq. dielectric constant tensor:
#      x y z
#    x 1.858160 0.000000 0.000000 
#    y 0.000000 1.864200 0.000000 
#    z 0.000000 0.000000 1.859120 
# 
# From -- ./inp_files/10318.got.cif
#   From: 2010.03.12/outbox.cif.g09.slc.cpg/sg41_6_cif.got.tgz:10318.got - 2010.04.14 01:55:53.
