data_PCOD8185531
_publ_section_title
;
Structure prediction by ZEFSAII (Michael W. Deem and Ramdas Pophale) SiO2 
 PCOD8185531
Probable space group: A B A 2
;
_chemical_formula_sum "Si O2"
_cell_formula_units_Z 24
_cell_length_a 8.813764
_cell_length_b 10.592958
_cell_length_c 9.265240
_cell_angle_alpha 90.000000
_cell_angle_beta 90.000000
_cell_angle_gamma 90.000000
_cell_volume 865.038310
_symmetry_space_group_name_H-M "A B A 2"
_symmetry_group_IT_number 41
_symmetry_cell_setting 'orthorhombic'
loop_
_space_group_symop_operation_xyz
x,y,z
-x,-y,z
1/2-x,y,1/2+z
1/2+x,-y,1/2+z
x,1/2+y,1/2+z
-x,1/2-y,1/2+z
1/2-x,1/2+y,z
1/2+x,1/2-y,z
loop_
_atom_site_type_symbol
_atom_site_label
_atom_site_fract_x
_atom_site_fract_y
_atom_site_fract_z
Si Si1 0.548507 0.243615 0.387050
Si Si2 0.294707 0.918938 0.793462
Si Si3 0.286807 0.093261 0.533439
O O1 0.654639 0.177950 0.262603
O O2 0.455406 0.347610 0.296516
O O3 0.445732 0.142349 0.470335
O O4 0.655000 0.303066 0.512444
O O5 0.299155 0.046816 0.698764
O O6 0.260638 0.964084 0.955453
#
# Coordination Sequence:
#
# PCOD8185531 Si02
#       3
#     8   8   8
#     4  10  26  48  76 110 148 192 246 304 368 438
#     4  11  26  47  75 108 147 193 244 303 367 436
#     4  11  26  47  75 108 147 193 244 303 367 436
#
# _framework density 27.744436
#
# number of rings (size 3 to 8) (size 9 to 14) (size 15 to 20)
#    0.000    1.333    0.000    2.000    0.000   26.667 
#    0.000   10.000    0.000    0.000    0.000    0.000 
#    0.000    0.000    0.000    0.000    0.000    0.000 
#
# Total GULP energy -148849.789497 kJ/mol
# GULP energy per Si atom -12404.149125 kJ/mol
# Density = 2.768129 g / cm^3
# Si number density = 27.744436 Si / 1000 Ang^3
#
#
#
# Elastic Constant Matrix: (Units=GPa)
#
#
# Indices 1 2 3 4 5 6 
#
# 1 222.9758 84.9867 52.6998 0.0000 0.0000 0.0000
# 2 84.9867 144.5219 34.2804 0.0000 0.0000 0.0000
# 3 52.6998 34.2804 77.8975 0.0000 0.0000 0.0000
# 4 0.0000 0.0000 0.0000 57.3866 0.0000 0.0000
# 5 0.0000 0.0000 0.0000 0.0000 25.9070 0.0000
# 6 0.0000 0.0000 0.0000 0.0000 0.0000 53.0058
#
#
#
# Elastic Compliance Matrix: (Units=1/GPa)
#
#
# Indices 1 2 3 4 5 6 
#
# 1 0.006336 -0.003025 -0.002955 0.000000 0.000000 0.000000
# 2 -0.003025 0.009170 -0.001989 0.000000 0.000000 0.000000
# 3 -0.002955 -0.001989 0.015712 0.000000 0.000000 0.000000
# 4 0.000000 0.000000 0.000000 0.017426 0.000000 0.000000
# 5 0.000000 0.000000 0.000000 0.000000 0.038600 0.000000
# 6 0.000000 0.000000 0.000000 0.000000 0.000000 0.018866
#
#
# Mechanical properties :
#
#
# Convention : Reuss Voigt Hill
#
# Bulk Modulus (GPa) = 65.44690 87.70324 76.57507
# Shear Modulus (GPa) = 39.32625 45.48845 42.40735
#
# Velocity S-wave (km/s) = 3.76898 4.05353 3.91384
# Velocity P-wave (km/s) = 6.52539 7.32037 6.93428
#
# Compressibility (1/GPa) = 0.01527956
#
# Stress axis : x y z
#
# Youngs Moduli (GPa) = 157.82090 109.05083 63.64530
#
# Poissons Ratio (x) = 0.32989 0.18810
# Poissons Ratio (y) = 0.47742 0.12659
# Poissons Ratio (z) = 0.46643 0.21689
#
# Static dielectric constant tensor:
#      x y z
#    x 5.334120 0.000000 0.000000 
#    y 0.000000 5.166190 0.000000 
#    z 0.000000 0.000000 4.453880 
# 
# 
# High freq. dielectric constant tensor:
#      x y z
#    x 2.143970 0.000000 0.000000 
#    y 0.000000 2.148490 0.000000 
#    z 0.000000 0.000000 2.094810 
# 
# From -- ./inp_files/1584.got.cif
#   From: 2010.03.12/outbox.cif.g09.slc.cpg/sg41_1_cif.got.tgz:1584.got - 2010.04.14 01:55:53.
