data_PCOD8185283
_publ_section_title
;
Structure prediction by ZEFSAII (Michael W. Deem and Ramdas Pophale) SiO2 
 PCOD8185283
Probable space group: A B A 2
;
_chemical_formula_sum "Si O2"
_cell_formula_units_Z 36
_cell_length_a 18.959468
_cell_length_b 14.535300
_cell_length_c 5.703878
_cell_angle_alpha 90.000000
_cell_angle_beta 90.000000
_cell_angle_gamma 90.000000
_cell_volume 1571.883570
_symmetry_space_group_name_H-M "A B A 2"
_symmetry_group_IT_number 41
_symmetry_cell_setting 'orthorhombic'
loop_
_space_group_symop_operation_xyz
x,y,z
-x,-y,z
1/2-x,y,1/2+z
1/2+x,-y,1/2+z
x,1/2+y,1/2+z
-x,1/2-y,1/2+z
1/2-x,1/2+y,z
1/2+x,1/2-y,z
loop_
_atom_site_type_symbol
_atom_site_label
_atom_site_fract_x
_atom_site_fract_y
_atom_site_fract_z
Si Si1 0.209035 0.575809 0.439810
Si Si2 0.883997 0.242860 0.405204
Si Si3 0.500000 0.000000 0.931720
Si Si4 0.389046 0.426605 0.118979
Si Si5 0.521570 0.663661 0.754790
O O1 0.248316 0.572147 0.694124
O O2 0.166522 0.670540 0.424324
O O3 0.161332 0.483734 0.443981
O O4 0.849467 0.158619 0.253694
O O5 0.904720 0.209098 0.665637
O O6 0.960165 0.262569 0.289437
O O7 0.424885 0.997326 0.798592
O O8 0.511315 0.908217 0.076346
O O9 0.458001 0.388101 0.989993
#
# Coordination Sequence:
#
# PCOD8185283 Si02
#       5
#     8   8   4   8   8
#     4  12  32  51  72 102 151 212 259 302 362 457
#     4  11  25  43  76 109 147 185 248 315 393 448
#     4  10  22  38  72 106 140 178 228 316 380 454
#     4  11  25  44  72 105 145 191 249 311 380 460
#     4  11  22  42  73 111 142 178 237 321 397 443
#
# _framework density 22.902460000000001
#
# number of rings (size 3 to 8) (size 9 to 14) (size 15 to 20)
#    0.000    0.889    2.222    3.333   15.556    1.778 
#    0.000    0.000    0.000    0.000    0.000    0.000 
#    0.000    0.000    0.000    0.000    0.000    0.000 
#
# Total GULP energy -223013.004431 kJ/mol
# GULP energy per Si atom -12389.611357 kJ/mol
# Density = 2.285033 g / cm^3
# Si number density = 22.902460 Si / 1000 Ang^3
#
#
#
# Elastic Constant Matrix: (Units=GPa)
#
#
# Indices 1 2 3 4 5 6 
#
# 1 65.3415 46.7407 34.9293 0.0000 0.0000 0.0000
# 2 46.7407 129.9779 38.2258 0.0000 0.0000 0.0000
# 3 34.9293 38.2258 113.7000 0.0000 0.0000 0.0000
# 4 0.0000 0.0000 0.0000 -120.8620 0.0000 0.0000
# 5 0.0000 0.0000 0.0000 0.0000 7.4156 0.0000
# 6 0.0000 0.0000 0.0000 0.0000 0.0000 39.6880
#
#
#
# Elastic Compliance Matrix: (Units=1/GPa)
#
#
# Indices 1 2 3 4 5 6 
#
# 1 0.022648 -0.006767 -0.004682 0.000000 0.000000 0.000000
# 2 -0.006767 0.010560 -0.001471 0.000000 0.000000 0.000000
# 3 -0.004682 -0.001471 0.010728 0.000000 0.000000 0.000000
# 4 0.000000 0.000000 0.000000 -0.008274 0.000000 0.000000
# 5 0.000000 0.000000 0.000000 0.000000 0.134850 0.000000
# 6 0.000000 0.000000 0.000000 0.000000 0.000000 0.025197
#
#
# Mechanical properties :
#
#
# Convention : Reuss Voigt Hill
#
# Bulk Modulus (GPa) = 55.26658 60.97902 58.12280
# Shear Modulus (GPa) = 21.97003 -2.14344 9.91329
#
# Velocity S-wave (km/s) = 3.10060 -0.96847 2.08276
# Velocity P-wave (km/s) = 6.08292 5.04309 5.58725
#
# Compressibility (1/GPa) = 0.01809412
#
# Stress axis : x y z
#
# Youngs Moduli (GPa) = 44.15372 94.69819 93.21230
#
# Poissons Ratio (x) = 0.64085 0.43647
# Poissons Ratio (y) = 0.29880 0.13714
# Poissons Ratio (z) = 0.20675 0.13933
#
# Static dielectric constant tensor:
#      x y z
#    x 4.546690 0.000000 0.000000 
#    y 0.000000 4.721230 0.000000 
#    z 0.000000 0.000000 4.652080 
# 
# 
# High freq. dielectric constant tensor:
#      x y z
#    x 1.870610 0.000000 0.000000 
#    y 0.000000 1.930810 0.000000 
#    z 0.000000 0.000000 1.923940 
# 
# From -- ./inp_files/632.got.cif
#   From: 2010.03.12/outbox.cif.g09.slc.cpg/sg41_1_cif.got.tgz:632.got - 2010.04.14 01:55:53.
