data_PCOD8185235
_publ_section_title
;
Structure prediction by ZEFSAII (Michael W. Deem and Ramdas Pophale) SiO2 
 PCOD8185235
Probable space group: A B A 2
;
_chemical_formula_sum "Si O2"
_cell_formula_units_Z 52
_cell_length_a 17.247316
_cell_length_b 27.792631
_cell_length_c 5.259470
_cell_angle_alpha 90.000000
_cell_angle_beta 90.000000
_cell_angle_gamma 90.000000
_cell_volume 2521.117947
_symmetry_space_group_name_H-M "A B A 2"
_symmetry_group_IT_number 41
_symmetry_cell_setting 'orthorhombic'
loop_
_space_group_symop_operation_xyz
x,y,z
-x,-y,z
1/2-x,y,1/2+z
1/2+x,-y,1/2+z
x,1/2+y,1/2+z
-x,1/2-y,1/2+z
1/2-x,1/2+y,z
1/2+x,1/2-y,z
loop_
_atom_site_type_symbol
_atom_site_label
_atom_site_fract_x
_atom_site_fract_y
_atom_site_fract_z
Si Si1 0.297021 0.640997 0.922310
Si Si2 0.056002 0.917731 0.540485
Si Si3 0.802590 0.019117 0.618391
Si Si4 0.000000 0.500000 0.677743
Si Si5 0.517774 0.186886 0.929790
Si Si6 0.425808 0.710422 0.930483
Si Si7 0.905297 0.942620 0.825970
O O1 0.268546 0.636015 0.633265
O O2 0.358578 0.598780 0.969801
O O3 0.337718 0.692617 0.956637
O O4 0.139734 0.934929 0.641223
O O5 0.027797 0.953613 0.325440
O O6 0.065059 0.862979 0.442830
O O7 0.986888 0.919322 0.744721
O O8 0.754074 0.020400 0.359599
O O9 0.853240 0.969282 0.610133
O O10 0.924446 0.486074 0.516060
O O11 0.577051 0.231699 0.944126
O O12 0.457847 0.191194 0.162165
O O13 0.474500 0.188227 0.661411
#
# Coordination Sequence:
#
# PCOD8185235 Si02
#       7
#     8   8   8   4   8   8   8
#     4  12  26  41  66 101 139 176 214 281 353 406
#     4  12  24  41  69  98 125 179 232 278 319 398
#     4  12  26  43  59  91 137 174 213 266 337 392
#     4  12  22  40  70  96 136 168 240 284 316 378
#     4  10  22  40  72  95 126 166 228 279 321 388
#     4  10  21  43  65  99 130 166 215 280 336 398
#     4  12  24  42  65  96 129 179 228 276 328 400
#
# _framework density 20.625769999999999
#
# number of rings (size 3 to 8) (size 9 to 14) (size 15 to 20)
#    0.000    0.615    4.615    3.692    2.154    0.000 
#    0.000    1.538    0.000    0.000    0.000    0.000 
#    0.000    0.000    0.000    0.000    0.000    0.000 
#
# Total GULP energy -322373.261172 kJ/mol
# GULP energy per Si atom -12398.971584 kJ/mol
# Density = 2.057882 g / cm^3
# Si number density = 20.625770 Si / 1000 Ang^3
#
#
#
# Elastic Constant Matrix: (Units=GPa)
#
#
# Indices 1 2 3 4 5 6 
#
# 1 102.0932 47.9933 24.8331 0.0000 0.0000 0.0000
# 2 47.9933 147.7950 25.1771 0.0000 0.0000 0.0000
# 3 24.8331 25.1771 86.5621 0.0000 0.0000 0.0000
# 4 0.0000 0.0000 0.0000 0.7293 0.0000 0.0000
# 5 0.0000 0.0000 0.0000 0.0000 -8.7793 0.0000
# 6 0.0000 0.0000 0.0000 0.0000 0.0000 34.0151
#
#
#
# Elastic Compliance Matrix: (Units=1/GPa)
#
#
# Indices 1 2 3 4 5 6 
#
# 1 0.012029 -0.003491 -0.002435 0.000000 0.000000 0.000000
# 2 -0.003491 0.008132 -0.001364 0.000000 0.000000 0.000000
# 3 -0.002435 -0.001364 0.012648 0.000000 0.000000 0.000000
# 4 0.000000 0.000000 0.000000 1.371208 0.000000 0.000000
# 5 0.000000 0.000000 0.000000 0.000000 -0.113904 0.000000
# 6 0.000000 0.000000 0.000000 0.000000 0.000000 0.029399
#
#
# Mechanical properties :
#
#
# Convention : Reuss Voigt Hill
#
# Bulk Modulus (GPa) = 54.86096 59.16193 57.01144
# Shear Modulus (GPa) = 3.73088 21.08945 12.41016
#
# Velocity S-wave (km/s) = 1.34639 3.20109 2.45558
# Velocity P-wave (km/s) = 5.39194 6.51218 5.97836
#
# Compressibility (1/GPa) = 0.01822790
#
# Stress axis : x y z
#
# Youngs Moduli (GPa) = 83.13588 122.96923 79.06573
#
# Poissons Ratio (x) = 0.42930 0.19255
# Poissons Ratio (y) = 0.29024 0.10782
# Poissons Ratio (z) = 0.20246 0.16770
#
# Static dielectric constant tensor:
#      x y z
#    x 4.000680 0.000000 0.000000 
#    y 0.000000 4.079100 0.000000 
#    z 0.000000 0.000000 3.816840 
# 
# 
# High freq. dielectric constant tensor:
#      x y z
#    x 1.795750 0.000000 0.000000 
#    y 0.000000 1.812240 0.000000 
#    z 0.000000 0.000000 1.818980 
# 
# From -- ./inp_files/526.got.cif
#   From: 2010.03.12/outbox.cif.g09.slc.cpg/sg41_1_cif.got.tgz:526.got - 2010.04.14 01:55:53.
