data_PCOD8185825
_publ_section_title
;
Structure prediction by ZEFSAII (Michael W. Deem and Ramdas Pophale) SiO2 
 PCOD8185825
Probable space group: F M M 2
;
_chemical_formula_sum "Si O2"
_cell_formula_units_Z 120
_cell_length_a 24.133516
_cell_length_b 11.575946
_cell_length_c 24.540792
_cell_angle_alpha 90.000000
_cell_angle_beta 90.000000
_cell_angle_gamma 90.000000
_cell_volume 6855.918802
_symmetry_space_group_name_H-M "F M M 2"
_symmetry_group_IT_number 42
_symmetry_cell_setting 'orthorhombic'
loop_
_space_group_symop_operation_xyz
x,y,z
-x,-y,z
-x,y,z
x,-y,z
x,1/2+y,1/2+z
-x,1/2-y,1/2+z
-x,1/2+y,1/2+z
x,1/2-y,1/2+z
1/2+x,y,1/2+z
1/2-x,-y,1/2+z
1/2-x,y,1/2+z
1/2+x,-y,1/2+z
1/2+x,1/2+y,z
1/2-x,1/2-y,z
1/2-x,1/2+y,z
1/2+x,1/2-y,z
loop_
_atom_site_type_symbol
_atom_site_label
_atom_site_fract_x
_atom_site_fract_y
_atom_site_fract_z
Si Si1 0.381080 0.287969 0.422590
Si Si2 0.696739 0.626173 0.859361
Si Si3 0.561743 0.637208 0.132706
Si Si4 0.859060 0.637538 0.728361
Si Si5 0.271645 0.871561 0.962469
Si Si6 0.439276 0.132176 0.822145
Si Si7 0.250000 0.750000 0.763037
Si Si8 0.434732 0.628322 0.011987
O O1 0.351895 0.209363 0.377473
O O2 0.337866 0.367563 0.455576
O O3 0.423461 0.361466 0.386205
O O4 0.412209 0.212712 0.466756
O O5 0.670069 0.500000 0.856262
O O6 0.746791 0.630898 0.902253
O O7 0.722405 0.652986 0.800764
O O8 0.500000 0.686131 0.146362
O O9 0.558472 0.500000 0.134148
O O10 0.606640 0.682545 0.175948
O O11 0.580865 0.676152 0.072149
O O12 0.852047 0.500000 0.728446
O O13 0.892423 0.683634 0.781705
O O14 0.797926 0.693526 0.725790
O O15 0.250000 0.750000 0.992341
O O16 0.257201 0.000000 0.989657
O O17 0.500000 0.191477 0.813520
O O18 0.445306 0.000000 0.805489
O O19 0.500000 0.620816 0.006590
O O20 0.409099 0.500000 0.003168
#
# Coordination Sequence:
#
# PCOD8185825 Si02
#       8
#    16  16  16  16  16  16   8  16
#     4  11  17  28  44  70  99 135 165 205 253 305
#     4  10  18  29  43  64  94 134 173 201 240 297
#     4   8  15  31  53  74  95 122 161 213 268 310
#     4  10  19  31  50  73  97 126 163 208 257 310
#     4   9  17  29  45  66  96 134 177 214 249 302
#     4  10  19  29  44  71 105 132 157 198 251 307
#     4  12  18  30  44  70  98 130 166 202 248 300
#     4   9  18  31  48  71  98 129 170 216 257 306
#
# _framework density 17.503125000000001
#
# number of rings (size 3 to 8) (size 9 to 14) (size 15 to 20)
#    0.000    2.267    3.333    2.800    0.000    4.267 
#    0.000    0.000    4.400    0.000    0.000    2.800 
#    0.000    4.267    0.000    0.000    0.000    0.000 
#
# Total GULP energy -371647.262461 kJ/mol
# GULP energy per Si atom -12388.242082 kJ/mol
# Density = 1.746329 g / cm^3
# Si number density = 17.503125 Si / 1000 Ang^3
#
#
#
# Elastic Constant Matrix: (Units=GPa)
#
#
# Indices 1 2 3 4 5 6 
#
# 1 84.7994 15.8175 38.9588 0.0000 0.0000 0.0000
# 2 15.8175 69.8507 11.3744 0.0000 0.0000 0.0000
# 3 38.9588 11.3744 79.2077 0.0000 0.0000 0.0000
# 4 0.0000 0.0000 0.0000 19.1067 0.0000 0.0000
# 5 0.0000 0.0000 0.0000 0.0000 21.6489 0.0000
# 6 0.0000 0.0000 0.0000 0.0000 0.0000 21.3864
#
#
#
# Elastic Compliance Matrix: (Units=1/GPa)
#
#
# Indices 1 2 3 4 5 6 
#
# 1 0.015599 -0.002338 -0.007337 0.000000 0.000000 0.000000
# 2 -0.002338 0.015009 -0.001006 0.000000 0.000000 0.000000
# 3 -0.007337 -0.001006 0.016378 0.000000 0.000000 0.000000
# 4 0.000000 0.000000 0.000000 0.052338 0.000000 0.000000
# 5 0.000000 0.000000 0.000000 0.000000 0.046192 0.000000
# 6 0.000000 0.000000 0.000000 0.000000 0.000000 0.046759
#
#
# Mechanical properties :
#
#
# Convention : Reuss Voigt Hill
#
# Bulk Modulus (GPa) = 39.02215 40.68434 39.85325
# Shear Modulus (GPa) = 22.50456 23.60889 23.05672
#
# Velocity S-wave (km/s) = 3.58962 3.67664 3.63339
# Velocity P-wave (km/s) = 6.28675 6.42791 6.35773
#
# Compressibility (1/GPa) = 0.02562647
#
# Stress axis : x y z
#
# Youngs Moduli (GPa) = 64.10531 66.62513 61.05694
#
# Poissons Ratio (x) = 0.15575 0.44797
# Poissons Ratio (y) = 0.14986 0.06140
# Poissons Ratio (z) = 0.47034 0.06700
#
# Static dielectric constant tensor:
#      x y z
#    x 3.388800 0.000000 0.000000 
#    y 0.000000 3.140170 0.000000 
#    z 0.000000 0.000000 3.202660 
# 
# 
# High freq. dielectric constant tensor:
#      x y z
#    x 1.681150 0.000000 0.000000 
#    y 0.000000 1.650050 0.000000 
#    z 0.000000 0.000000 1.645940 
# 
# From -- ./inp_files/30323.got.cif
#   From: 2010.03.12/outbox.cif.g09.slc.cpg/sg42_16_cif.got.tgz:30323.got - 2010.04.14 02:04:31.
