data_PCOD8186169
_publ_section_title
;
Structure prediction by ZEFSAII (Michael W. Deem and Ramdas Pophale) SiO2 
 PCOD8186169
Probable space group: F M M 2
;
_chemical_formula_sum "Si O2"
_cell_formula_units_Z 96
_cell_length_a 18.737987
_cell_length_b 14.026040
_cell_length_c 17.351106
_cell_angle_alpha 90.000000
_cell_angle_beta 90.000000
_cell_angle_gamma 90.000000
_cell_volume 4560.213431
_symmetry_space_group_name_H-M "F M M 2"
_symmetry_group_IT_number 42
_symmetry_cell_setting 'orthorhombic'
loop_
_space_group_symop_operation_xyz
x,y,z
-x,-y,z
-x,y,z
x,-y,z
x,1/2+y,1/2+z
-x,1/2-y,1/2+z
-x,1/2+y,1/2+z
x,1/2-y,1/2+z
1/2+x,y,1/2+z
1/2-x,-y,1/2+z
1/2-x,y,1/2+z
1/2+x,-y,1/2+z
1/2+x,1/2+y,z
1/2-x,1/2-y,z
1/2-x,1/2+y,z
1/2+x,1/2-y,z
loop_
_atom_site_type_symbol
_atom_site_label
_atom_site_fract_x
_atom_site_fract_y
_atom_site_fract_z
Si Si1 0.288444 0.888490 0.495990
Si Si2 0.356584 0.704515 0.547081
Si Si3 0.422052 0.106601 0.915877
Si Si4 0.085156 0.720315 0.209192
Si Si5 0.315187 0.889765 0.317608
Si Si6 0.662166 0.891674 0.765532
O O1 0.339593 0.817843 0.544512
O O2 0.208862 0.863662 0.523051
O O3 0.299765 0.863492 0.406171
O O4 0.304911 0.000000 0.513558
O O5 0.417680 0.682022 0.485117
O O6 0.386261 0.673475 0.630462
O O7 0.500000 0.118546 0.876971
O O8 0.362170 0.126225 0.852861
O O9 0.412313 0.000000 0.949262
O O10 0.117551 0.667676 0.284114
O O11 0.115291 0.828035 0.208278
O O12 0.000000 0.717319 0.213838
O O13 0.245954 0.864510 0.265286
O O14 0.334225 0.000000 0.310693
O O15 0.649926 0.000000 0.739433
#
# Coordination Sequence:
#
# PCOD8186169 Si02
#       6
#    16  16  16  16  16  16
#     4  10  22  41  65  94 120 159 220 274 312 364
#     4  11  23  38  61  92 130 171 205 255 322 385
#     4  10  19  35  63  95 126 163 211 264 314 367
#     4  12  27  42  60  94 137 173 207 252 320 390
#     4  10  22  42  69  95 123 161 215 270 315 370
#     4  10  21  39  65  95 124 164 218 267 310 364
#
# _framework density 21.051646999999999
#
# number of rings (size 3 to 8) (size 9 to 14) (size 15 to 20)
#    0.000    1.500    1.667    3.000    7.000    3.333 
#    0.000    0.833    0.000    3.500    0.000    0.000 
#    0.000    0.000    0.000    0.000    0.000    0.000 
#
# Total GULP energy -297545.363384 kJ/mol
# GULP energy per Si atom -12397.723474 kJ/mol
# Density = 2.100373 g / cm^3
# Si number density = 21.051647 Si / 1000 Ang^3
#
#
#
# Elastic Constant Matrix: (Units=GPa)
#
#
# Indices 1 2 3 4 5 6 
#
# 1 107.5610 36.5907 45.8200 0.0000 0.0000 0.0000
# 2 36.5907 87.3079 19.8673 0.0000 0.0000 0.0000
# 3 45.8200 19.8673 76.5691 0.0000 0.0000 0.0000
# 4 0.0000 0.0000 0.0000 22.2075 0.0000 0.0000
# 5 0.0000 0.0000 0.0000 0.0000 31.0169 0.0000
# 6 0.0000 0.0000 0.0000 0.0000 0.0000 27.0823
#
#
#
# Elastic Compliance Matrix: (Units=1/GPa)
#
#
# Indices 1 2 3 4 5 6 
#
# 1 0.013752 -0.004135 -0.007157 0.000000 0.000000 0.000000
# 2 -0.004135 0.013416 -0.001006 0.000000 0.000000 0.000000
# 3 -0.007157 -0.001006 0.017604 0.000000 0.000000 0.000000
# 4 0.000000 0.000000 0.000000 0.045030 0.000000 0.000000
# 5 0.000000 0.000000 0.000000 0.000000 0.032240 0.000000
# 6 0.000000 0.000000 0.000000 0.000000 0.000000 0.036924
#
#
# Mechanical properties :
#
#
# Convention : Reuss Voigt Hill
#
# Bulk Modulus (GPa) = 49.56494 52.88821 51.22658
# Shear Modulus (GPa) = 26.27587 27.33869 26.80728
#
# Velocity S-wave (km/s) = 3.53677 3.60759 3.57235
# Velocity P-wave (km/s) = 6.34617 6.52154 6.43445
#
# Compressibility (1/GPa) = 0.02017555
#
# Stress axis : x y z
#
# Youngs Moduli (GPa) = 72.71426 74.53915 56.80550
#
# Poissons Ratio (x) = 0.30823 0.40654
# Poissons Ratio (y) = 0.30068 0.05717
# Poissons Ratio (z) = 0.52040 0.07502
#
# Static dielectric constant tensor:
#      x y z
#    x 3.776450 0.000000 0.000000 
#    y 0.000000 3.921860 0.000000 
#    z 0.000000 0.000000 3.657530 
# 
# 
# High freq. dielectric constant tensor:
#      x y z
#    x 1.817030 0.000000 0.000000 
#    y 0.000000 1.830220 0.000000 
#    z 0.000000 0.000000 1.814960 
# 
# From -- ./inp_files/15838.got.cif
#   From: 2010.03.12/outbox.cif.g09.slc.cpg/sg42_8_cif.got.tgz:15838.got - 2010.04.14 02:04:31.
