data_PCOD8186571
_publ_section_title
;
Structure prediction by ZEFSAII (Michael W. Deem and Ramdas Pophale) SiO2 
 PCOD8186571
Probable space group: F M M 2
;
_chemical_formula_sum "Si O2"
_cell_formula_units_Z 96
_cell_length_a 9.123213
_cell_length_b 30.174769
_cell_length_c 18.678487
_cell_angle_alpha 90.000000
_cell_angle_beta 90.000000
_cell_angle_gamma 90.000000
_cell_volume 5142.016466
_symmetry_space_group_name_H-M "F M M 2"
_symmetry_group_IT_number 42
_symmetry_cell_setting 'orthorhombic'
loop_
_space_group_symop_operation_xyz
x,y,z
-x,-y,z
-x,y,z
x,-y,z
x,1/2+y,1/2+z
-x,1/2-y,1/2+z
-x,1/2+y,1/2+z
x,1/2-y,1/2+z
1/2+x,y,1/2+z
1/2-x,-y,1/2+z
1/2-x,y,1/2+z
1/2+x,-y,1/2+z
1/2+x,1/2+y,z
1/2-x,1/2-y,z
1/2-x,1/2+y,z
1/2+x,1/2-y,z
loop_
_atom_site_type_symbol
_atom_site_label
_atom_site_fract_x
_atom_site_fract_y
_atom_site_fract_z
Si Si1 0.170837 0.793618 0.725990
Si Si2 0.171926 0.705797 0.389285
Si Si3 0.170716 0.875714 0.628039
Si Si4 0.173627 0.620852 0.479094
Si Si5 0.829532 0.051718 0.383128
Si Si6 0.668027 0.550792 0.740068
O O1 0.250000 0.750000 0.695882
O O2 0.219037 0.803614 0.807474
O O3 0.217001 0.835033 0.678181
O O4 0.000000 0.784356 0.721646
O O5 0.250000 0.750000 0.418636
O O6 0.225033 0.664173 0.435694
O O7 0.000000 0.713312 0.396880
O O8 0.273263 0.873947 0.559693
O O9 0.206265 0.920803 0.670329
O O10 0.000000 0.873424 0.605975
O O11 0.247330 0.577523 0.445731
O O12 0.000000 0.614909 0.476808
O O13 0.767444 0.066354 0.306124
O O14 0.000000 0.063452 0.385526
O O15 0.799917 0.000000 0.396354
O O16 0.500000 0.558714 0.763518
O O17 0.698498 0.500000 0.719436
#
# Coordination Sequence:
#
# PCOD8186571 Si02
#       6
#    16  16  16  16  16  16
#     4   9  18  34  55  76 101 135 176 222 268 316
#     4   9  19  36  57  80 105 137 179 224 269 318
#     4  10  21  36  53  77 111 146 178 217 268 322
#     4  11  23  37  54  79 112 147 183 223 268 320
#     4  10  21  37  58  83 109 139 179 225 270 320
#     4   9  18  35  59  82 105 137 176 219 269 323
#
# _framework density 18.669718
#
# number of rings (size 3 to 8) (size 9 to 14) (size 15 to 20)
#    0.000    2.333    0.000    2.000    0.000    7.667 
#    0.000    8.333    0.000    0.000    0.000    0.000 
#    0.000    0.000    0.000    0.000    0.000    0.000 
#
# Total GULP energy -297700.164526 kJ/mol
# GULP energy per Si atom -12404.173522 kJ/mol
# Density = 1.862723 g / cm^3
# Si number density = 18.669718 Si / 1000 Ang^3
#
#
#
# Elastic Constant Matrix: (Units=GPa)
#
#
# Indices 1 2 3 4 5 6 
#
# 1 71.2389 52.6140 52.5004 0.0000 0.0000 0.0000
# 2 52.6140 112.3326 67.7396 0.0000 0.0000 0.0000
# 3 52.5004 67.7396 111.7798 0.0000 0.0000 0.0000
# 4 0.0000 0.0000 0.0000 16.6722 0.0000 0.0000
# 5 0.0000 0.0000 0.0000 0.0000 36.4997 0.0000
# 6 0.0000 0.0000 0.0000 0.0000 0.0000 31.8461
#
#
#
# Elastic Compliance Matrix: (Units=1/GPa)
#
#
# Indices 1 2 3 4 5 6 
#
# 1 0.024684 -0.007202 -0.007229 0.000000 0.000000 0.000000
# 2 -0.007202 0.016130 -0.006392 0.000000 0.000000 0.000000
# 3 -0.007229 -0.006392 0.016215 0.000000 0.000000 0.000000
# 4 0.000000 0.000000 0.000000 0.059980 0.000000 0.000000
# 5 0.000000 0.000000 0.000000 0.000000 0.027397 0.000000
# 6 0.000000 0.000000 0.000000 0.000000 0.000000 0.031401
#
#
# Mechanical properties :
#
#
# Convention : Reuss Voigt Hill
#
# Bulk Modulus (GPa) = 65.00883 71.22881 68.11882
# Shear Modulus (GPa) = 22.46360 25.17009 23.81684
#
# Velocity S-wave (km/s) = 3.47250 3.67574 3.57556
# Velocity P-wave (km/s) = 7.13959 7.49997 7.32200
#
# Compressibility (1/GPa) = 0.01538253
#
# Stress axis : x y z
#
# Youngs Moduli (GPa) = 40.51229 61.99530 61.67036
#
# Poissons Ratio (x) = 0.44650 0.44581
# Poissons Ratio (y) = 0.29178 0.39422
# Poissons Ratio (z) = 0.29286 0.39630
#
# Static dielectric constant tensor:
#      x y z
#    x 3.393920 0.000000 0.000000 
#    y 0.000000 3.600650 0.000000 
#    z 0.000000 0.000000 3.361800 
# 
# 
# High freq. dielectric constant tensor:
#      x y z
#    x 1.722250 0.000000 0.000000 
#    y 0.000000 1.736420 0.000000 
#    z 0.000000 0.000000 1.719260 
# 
# From -- ./inp_files/23712.got.cif
#   From: 2010.03.12/outbox.cif.g09.slc.cpg/sg42_12_cif.got.tgz:23712.got - 2010.04.14 02:04:31.
