data_PCOD8186112
_publ_section_title
;
Structure prediction by ZEFSAII (Michael W. Deem and Ramdas Pophale) SiO2 
 PCOD8186112
Probable space group: F M M 2
;
_chemical_formula_sum "Si O2"
_cell_formula_units_Z 88
_cell_length_a 13.855677
_cell_length_b 24.248686
_cell_length_c 14.102483
_cell_angle_alpha 90.000000
_cell_angle_beta 90.000000
_cell_angle_gamma 90.000000
_cell_volume 4738.179892
_symmetry_space_group_name_H-M "F M M 2"
_symmetry_group_IT_number 42
_symmetry_cell_setting 'orthorhombic'
loop_
_space_group_symop_operation_xyz
x,y,z
-x,-y,z
-x,y,z
x,-y,z
x,1/2+y,1/2+z
-x,1/2-y,1/2+z
-x,1/2+y,1/2+z
x,1/2-y,1/2+z
1/2+x,y,1/2+z
1/2-x,-y,1/2+z
1/2-x,y,1/2+z
1/2+x,-y,1/2+z
1/2+x,1/2+y,z
1/2-x,1/2-y,z
1/2-x,1/2+y,z
1/2+x,1/2-y,z
loop_
_atom_site_type_symbol
_atom_site_label
_atom_site_fract_x
_atom_site_fract_y
_atom_site_fract_z
Si Si1 0.885654 0.060076 0.832930
Si Si2 0.796291 0.670558 0.614262
Si Si3 0.608565 0.275428 0.298751
Si Si4 0.886598 0.561992 0.545948
Si Si5 0.250000 0.750000 0.456067
Si Si6 0.607814 0.340088 0.710482
O O1 0.845968 0.107501 0.764861
O O2 0.000000 0.064524 0.837403
O O3 0.853910 0.000000 0.793434
O O4 0.846299 0.067501 0.939223
O O5 0.846947 0.696564 0.705810
O O6 0.833294 0.608138 0.607258
O O7 0.813695 0.707809 0.520735
O O8 0.680030 0.671745 0.624373
O O9 0.500000 0.298318 0.316189
O O10 0.675878 0.285292 0.390510
O O11 0.604884 0.209901 0.284142
O O12 0.864311 0.500000 0.584318
O O13 0.000000 0.573753 0.550627
O O14 0.500000 0.351543 0.670228
#
# Coordination Sequence:
#
# PCOD8186112 Si02
#       6
#    16  16  16  16   8  16
#     4   8  15  30  53  79 105 137 182 234 286 337
#     4  12  22  37  59  83 118 151 199 238 297 344
#     4  11  23  39  56  82 116 153 193 236 290 351
#     4   9  19  35  57  86 113 145 194 246 293 344
#     4  12  22  38  56  86 114 158 188 238 288 358
#     4  10  19  34  53  78 114 148 186 238 287 343
#
# _framework density 18.572531999999999
#
# number of rings (size 3 to 8) (size 9 to 14) (size 15 to 20)
#    0.000    1.818    3.636    2.727    0.000    4.364 
#    0.000    0.000    0.000    0.000    0.000    0.000 
#    0.000    0.000    0.000    0.000    0.000    0.000 
#
# Total GULP energy -272696.650214 kJ/mol
# GULP energy per Si atom -12395.302282 kJ/mol
# Density = 1.853026 g / cm^3
# Si number density = 18.572532 Si / 1000 Ang^3
#
#
#
# Elastic Constant Matrix: (Units=GPa)
#
#
# Indices 1 2 3 4 5 6 
#
# 1 94.6188 21.2143 39.4799 0.0000 0.0000 0.0000
# 2 21.2143 104.0859 33.0637 0.0000 0.0000 0.0000
# 3 39.4799 33.0637 90.8606 0.0000 0.0000 0.0000
# 4 0.0000 0.0000 0.0000 28.5774 0.0000 0.0000
# 5 0.0000 0.0000 0.0000 0.0000 18.2785 0.0000
# 6 0.0000 0.0000 0.0000 0.0000 0.0000 21.7139
#
#
#
# Elastic Compliance Matrix: (Units=1/GPa)
#
#
# Indices 1 2 3 4 5 6 
#
# 1 0.012995 -0.000967 -0.005295 0.000000 0.000000 0.000000
# 2 -0.000967 0.010935 -0.003559 0.000000 0.000000 0.000000
# 3 -0.005295 -0.003559 0.014602 0.000000 0.000000 0.000000
# 4 0.000000 0.000000 0.000000 0.034993 0.000000 0.000000
# 5 0.000000 0.000000 0.000000 0.000000 0.054709 0.000000
# 6 0.000000 0.000000 0.000000 0.000000 0.000000 0.046054
#
#
# Mechanical properties :
#
#
# Convention : Reuss Voigt Hill
#
# Bulk Modulus (GPa) = 52.93667 53.00900 52.97283
# Shear Modulus (GPa) = 24.97202 26.76779 25.86990
#
# Velocity S-wave (km/s) = 3.67081 3.80051 3.73622
# Velocity P-wave (km/s) = 6.82137 6.91824 6.86997
#
# Compressibility (1/GPa) = 0.01889050
#
# Stress axis : x y z
#
# Youngs Moduli (GPa) = 76.95499 91.44887 68.48577
#
# Poissons Ratio (x) = 0.08840 0.36260
# Poissons Ratio (y) = 0.07439 0.24375
# Poissons Ratio (z) = 0.40744 0.32548
#
# Static dielectric constant tensor:
#      x y z
#    x 3.374650 0.000000 0.000000 
#    y 0.000000 3.662140 0.000000 
#    z 0.000000 0.000000 3.271610 
# 
# 
# High freq. dielectric constant tensor:
#      x y z
#    x 1.704540 0.000000 0.000000 
#    y 0.000000 1.724510 0.000000 
#    z 0.000000 0.000000 1.702520 
# 
# From -- ./inp_files/7826.got.cif
#   From: 2010.03.12/outbox.cif.g09.slc.cpg/sg42_4_cif.got.tgz:7826.got - 2010.04.14 02:04:31.
