data_PCOD8186059
_publ_section_title
;
Structure prediction by ZEFSAII (Michael W. Deem and Ramdas Pophale) SiO2 
 PCOD8186059
Probable space group: F M M 2
;
_chemical_formula_sum "Si O2"
_cell_formula_units_Z 96
_cell_length_a 22.969355
_cell_length_b 18.957006
_cell_length_c 11.415813
_cell_angle_alpha 90.000000
_cell_angle_beta 90.000000
_cell_angle_gamma 90.000000
_cell_volume 4970.789744
_symmetry_space_group_name_H-M "F M M 2"
_symmetry_group_IT_number 42
_symmetry_cell_setting 'orthorhombic'
loop_
_space_group_symop_operation_xyz
x,y,z
-x,-y,z
-x,y,z
x,-y,z
x,1/2+y,1/2+z
-x,1/2-y,1/2+z
-x,1/2+y,1/2+z
x,1/2-y,1/2+z
1/2+x,y,1/2+z
1/2-x,-y,1/2+z
1/2-x,y,1/2+z
1/2+x,-y,1/2+z
1/2+x,1/2+y,z
1/2-x,1/2-y,z
1/2-x,1/2+y,z
1/2+x,1/2-y,z
loop_
_atom_site_type_symbol
_atom_site_label
_atom_site_fract_x
_atom_site_fract_y
_atom_site_fract_z
Si Si1 0.144396 0.850265 0.633730
Si Si2 0.839718 0.080277 0.867362
Si Si3 0.364699 0.806075 0.698883
Si Si4 0.935994 0.339376 0.488411
Si Si5 0.737032 0.831132 0.528130
Si Si6 0.067352 0.682214 0.921822
O O1 0.141845 0.910438 0.731848
O O2 0.148787 0.777031 0.704924
O O3 0.202324 0.866876 0.560157
O O4 0.089072 0.850251 0.545650
O O5 0.896302 0.098011 0.942449
O O6 0.787467 0.131241 0.911166
O O7 0.821013 0.000000 0.889426
O O8 0.421441 0.819588 0.620996
O O9 0.307853 0.841231 0.637626
O O10 0.384624 0.839927 0.823160
O O11 0.929843 0.267017 0.415454
O O12 0.000000 0.370534 0.481672
O O13 0.750000 0.750000 0.495334
O O14 0.000000 0.657196 0.901136
#
# Coordination Sequence:
#
# PCOD8186059 Si02
#       6
#    16  16  16  16  16  16
#     4  10  21  34  54  83 116 151 191 239 302 357
#     4  11  23  38  56  83 120 158 199 243 300 372
#     4   9  17  33  55  87 111 145 188 246 298 338
#     4   9  18  33  53  80 114 150 192 239 290 348
#     4   9  21  36  61  84 112 149 198 252 298 351
#     4  10  19  32  57  88 119 149 189 249 303 347
#
# _framework density 19.312826999999999
#
# number of rings (size 3 to 8) (size 9 to 14) (size 15 to 20)
#    0.000    2.333    1.667    1.500    2.333    3.000 
#    0.000    0.000    0.000    1.000    0.000    0.000 
#    0.000    0.000    0.000    0.000    0.000    0.000 
#
# Total GULP energy -297392.822675 kJ/mol
# GULP energy per Si atom -12391.367611 kJ/mol
# Density = 1.926887 g / cm^3
# Si number density = 19.312827 Si / 1000 Ang^3
#
#
#
# Elastic Constant Matrix: (Units=GPa)
#
#
# Indices 1 2 3 4 5 6 
#
# 1 111.6647 27.7002 38.6370 0.0000 0.0000 0.0000
# 2 27.7002 67.3155 30.5375 0.0000 0.0000 0.0000
# 3 38.6370 30.5375 89.3840 0.0000 0.0000 0.0000
# 4 0.0000 0.0000 0.0000 18.2427 0.0000 0.0000
# 5 0.0000 0.0000 0.0000 0.0000 26.7322 0.0000
# 6 0.0000 0.0000 0.0000 0.0000 0.0000 14.3564
#
#
#
# Elastic Compliance Matrix: (Units=1/GPa)
#
#
# Indices 1 2 3 4 5 6 
#
# 1 0.010957 -0.002793 -0.003782 0.000000 0.000000 0.000000
# 2 -0.002793 0.018292 -0.005042 0.000000 0.000000 0.000000
# 3 -0.003782 -0.005042 0.014545 0.000000 0.000000 0.000000
# 4 0.000000 0.000000 0.000000 0.054817 0.000000 0.000000
# 5 0.000000 0.000000 0.000000 0.000000 0.037408 0.000000
# 6 0.000000 0.000000 0.000000 0.000000 0.000000 0.069655
#
#
# Mechanical properties :
#
#
# Convention : Reuss Voigt Hill
#
# Bulk Modulus (GPa) = 48.63852 51.34596 49.99224
# Shear Modulus (GPa) = 21.20790 23.29890 22.25340
#
# Velocity S-wave (km/s) = 3.31739 3.47709 3.39818
# Velocity P-wave (km/s) = 6.31765 6.53945 6.42950
#
# Compressibility (1/GPa) = 0.02055984
#
# Stress axis : x y z
#
# Youngs Moduli (GPa) = 91.26732 54.66846 68.75189
#
# Poissons Ratio (x) = 0.15269 0.26002
# Poissons Ratio (y) = 0.25491 0.34665
# Poissons Ratio (z) = 0.34517 0.27564
#
# Static dielectric constant tensor:
#      x y z
#    x 3.660270 0.000000 0.000000 
#    y 0.000000 2.976140 0.000000 
#    z 0.000000 0.000000 3.495040 
# 
# 
# High freq. dielectric constant tensor:
#      x y z
#    x 1.762670 0.000000 0.000000 
#    y 0.000000 1.687900 0.000000 
#    z 0.000000 0.000000 1.754870 
# 
# From -- ./inp_files/8794.got.cif
#   From: 2010.03.12/outbox.cif.g09.slc.cpg/sg42_5_cif.got.tgz:8794.got - 2010.04.14 02:04:31.
