data_PCOD8186304
_publ_section_title
;
Structure prediction by ZEFSAII (Michael W. Deem and Ramdas Pophale) SiO2 
 PCOD8186304
Probable space group: F M M 2
;
_chemical_formula_sum "Si O2"
_cell_formula_units_Z 96
_cell_length_a 17.925262
_cell_length_b 8.988323
_cell_length_c 30.952394
_cell_angle_alpha 90.000000
_cell_angle_beta 90.000000
_cell_angle_gamma 90.000000
_cell_volume 4986.989201
_symmetry_space_group_name_H-M "F M M 2"
_symmetry_group_IT_number 42
_symmetry_cell_setting 'orthorhombic'
loop_
_space_group_symop_operation_xyz
x,y,z
-x,-y,z
-x,y,z
x,-y,z
x,1/2+y,1/2+z
-x,1/2-y,1/2+z
-x,1/2+y,1/2+z
x,1/2-y,1/2+z
1/2+x,y,1/2+z
1/2-x,-y,1/2+z
1/2-x,y,1/2+z
1/2+x,-y,1/2+z
1/2+x,1/2+y,z
1/2-x,1/2-y,z
1/2-x,1/2+y,z
1/2+x,1/2-y,z
loop_
_atom_site_type_symbol
_atom_site_label
_atom_site_fract_x
_atom_site_fract_y
_atom_site_fract_z
Si Si1 0.171018 0.676243 0.232110
Si Si2 0.083122 0.823059 0.814813
Si Si3 0.670344 0.174998 0.569863
Si Si4 0.411436 0.668332 0.493193
Si Si5 0.088765 0.665694 0.409328
Si Si6 0.586820 0.171550 0.656824
O O1 0.180164 0.500000 0.231223
O O2 0.250000 0.750000 0.222671
O O3 0.139438 0.734524 0.278037
O O4 0.112976 0.724096 0.195572
O O5 0.113562 0.772504 0.862051
O O6 0.000000 0.757770 0.806086
O O7 0.078179 0.000000 0.813965
O O8 0.750000 0.250000 0.568306
O O9 0.620615 0.228284 0.530242
O O10 0.629875 0.221633 0.613920
O O11 0.680312 0.000000 0.566261
O O12 0.500000 0.678987 0.495122
O O13 0.383361 0.500000 0.499426
O O14 0.381447 0.725737 0.446773
O O15 0.121126 0.500000 0.417436
O O16 0.000000 0.658156 0.409576
O O17 0.500000 0.198739 0.648499
O O18 0.603641 0.000000 0.668304
#
# Coordination Sequence:
#
# PCOD8186304 Si02
#       6
#    16  16  16  16  16  16
#     4  11  22  36  55  80 112 148 184 222 268 320
#     4   8  15  30  53  79 104 136 183 231 271 318
#     4  11  23  39  58  80 109 144 180 219 268 324
#     4  10  20  34  54  82 113 143 181 227 270 317
#     4   8  14  28  52  78 104 138 181 227 273 319
#     4  10  22  40  61  85 110 137 175 222 269 321
#
# _framework density 19.250091999999999
#
# number of rings (size 3 to 8) (size 9 to 14) (size 15 to 20)
#    0.000    2.333    0.000    4.000    0.000    5.333 
#    0.000    2.500    0.000    6.000    0.000    0.000 
#    0.000    0.000    0.000    0.000    0.000    0.000 
#
# Total GULP energy -297598.766081 kJ/mol
# GULP energy per Si atom -12399.948587 kJ/mol
# Density = 1.920628 g / cm^3
# Si number density = 19.250092 Si / 1000 Ang^3
#
#
#
# Elastic Constant Matrix: (Units=GPa)
#
#
# Indices 1 2 3 4 5 6 
#
# 1 23.3606 18.1807 14.0547 0.0000 0.0000 0.0000
# 2 18.1807 68.6778 45.9279 0.0000 0.0000 0.0000
# 3 14.0547 45.9279 140.2125 0.0000 0.0000 0.0000
# 4 0.0000 0.0000 0.0000 30.6644 0.0000 0.0000
# 5 0.0000 0.0000 0.0000 0.0000 6.0628 0.0000
# 6 0.0000 0.0000 0.0000 0.0000 0.0000 23.0362
#
#
#
# Elastic Compliance Matrix: (Units=1/GPa)
#
#
# Indices 1 2 3 4 5 6 
#
# 1 0.054011 -0.013672 -0.000935 0.000000 0.000000 0.000000
# 2 -0.013672 0.022106 -0.005871 0.000000 0.000000 0.000000
# 3 -0.000935 -0.005871 0.009149 0.000000 0.000000 0.000000
# 4 0.000000 0.000000 0.000000 0.032611 0.000000 0.000000
# 5 0.000000 0.000000 0.000000 0.000000 0.164939 0.000000
# 6 0.000000 0.000000 0.000000 0.000000 0.000000 0.043410
#
#
# Mechanical properties :
#
#
# Convention : Reuss Voigt Hill
#
# Bulk Modulus (GPa) = 22.56892 43.17527 32.87209
# Shear Modulus (GPa) = 13.09065 22.22520 17.65792
#
# Velocity S-wave (km/s) = 2.61057 3.40155 3.03197
# Velocity P-wave (km/s) = 4.56468 6.15668 5.41945
#
# Compressibility (1/GPa) = 0.04430873
#
# Stress axis : x y z
#
# Youngs Moduli (GPa) = 18.51489 45.23650 109.30454
#
# Poissons Ratio (x) = 0.61849 0.10225
# Poissons Ratio (y) = 0.25314 0.64168
# Poissons Ratio (z) = 0.01732 0.26556
#
# Static dielectric constant tensor:
#      x y z
#    x 3.351750 0.000000 0.000000 
#    y 0.000000 3.463250 0.000000 
#    z 0.000000 0.000000 3.905390 
# 
# 
# High freq. dielectric constant tensor:
#      x y z
#    x 1.731510 0.000000 0.000000 
#    y 0.000000 1.735850 0.000000 
#    z 0.000000 0.000000 1.768150 
# 
# From -- ./inp_files/31441.got.cif
#   From: 2010.03.12/outbox.cif.g09.slc.cpg/sg42_16_cif.got.tgz:31441.got - 2010.04.14 02:04:31.
