data_PCOD8186405
_publ_section_title
;
Structure prediction by ZEFSAII (Michael W. Deem and Ramdas Pophale) SiO2 
 PCOD8186405
Probable space group: F M M 2
;
_chemical_formula_sum "Si O2"
_cell_formula_units_Z 96
_cell_length_a 24.259939
_cell_length_b 14.128132
_cell_length_c 14.236168
_cell_angle_alpha 90.000000
_cell_angle_beta 90.000000
_cell_angle_gamma 90.000000
_cell_volume 4879.412707
_symmetry_space_group_name_H-M "F M M 2"
_symmetry_group_IT_number 42
_symmetry_cell_setting 'orthorhombic'
loop_
_space_group_symop_operation_xyz
x,y,z
-x,-y,z
-x,y,z
x,-y,z
x,1/2+y,1/2+z
-x,1/2-y,1/2+z
-x,1/2+y,1/2+z
x,1/2-y,1/2+z
1/2+x,y,1/2+z
1/2-x,-y,1/2+z
1/2-x,y,1/2+z
1/2+x,-y,1/2+z
1/2+x,1/2+y,z
1/2-x,1/2-y,z
1/2-x,1/2+y,z
1/2+x,1/2-y,z
loop_
_atom_site_type_symbol
_atom_site_label
_atom_site_fract_x
_atom_site_fract_y
_atom_site_fract_z
Si Si1 0.785497 0.888881 0.641330
Si Si2 0.162541 0.392647 0.951029
Si Si3 0.111036 0.214928 0.712718
Si Si4 0.324308 0.108258 0.742174
Si Si5 0.436237 0.604748 0.888178
Si Si6 0.563208 0.226707 0.012407
O O1 0.794517 0.860271 0.532069
O O2 0.831142 0.838357 0.703654
O O3 0.725267 0.855457 0.675461
O O4 0.791229 0.000000 0.659099
O O5 0.144905 0.500000 0.970147
O O6 0.193440 0.381179 0.851525
O O7 0.105376 0.335585 0.951715
O O8 0.122388 0.326698 0.725542
O O9 0.081997 0.168378 0.800950
O O10 0.072274 0.205983 0.622031
O O11 0.340539 0.000000 0.718982
O O12 0.500000 0.587074 0.874865
O O13 0.407434 0.500000 0.892761
O O14 0.424636 0.663559 0.984134
O O15 0.500000 0.200005 0.986810
#
# Coordination Sequence:
#
# PCOD8186405 Si02
#       6
#    16  16  16  16  16  16
#     4   9  19  35  55  82 114 147 188 237 285 338
#     4   9  18  36  59  83 114 148 188 237 286 342
#     4  11  20  36  58  85 113 151 194 241 287 348
#     4  10  20  36  56  82 116 152 189 233 288 345
#     4  10  21  38  59  84 116 153 194 242 296 354
#     4  10  21  37  58  84 115 148 189 242 296 349
#
# _framework density 19.674499000000001
#
# number of rings (size 3 to 8) (size 9 to 14) (size 15 to 20)
#    0.000    2.167    1.667    1.500    0.000    1.667 
#    3.000    1.667    0.000    1.500    0.000    0.000 
#    0.000    0.000    0.000    0.000    0.000    0.000 
#
# Total GULP energy -297499.151633 kJ/mol
# GULP energy per Si atom -12395.797985 kJ/mol
# Density = 1.962972 g / cm^3
# Si number density = 19.674499 Si / 1000 Ang^3
#
#
#
# Elastic Constant Matrix: (Units=GPa)
#
#
# Indices 1 2 3 4 5 6 
#
# 1 65.9295 45.9748 32.2482 0.0000 0.0000 0.0000
# 2 45.9748 82.2646 24.7436 0.0000 0.0000 0.0000
# 3 32.2482 24.7436 62.9128 0.0000 0.0000 0.0000
# 4 0.0000 0.0000 0.0000 28.2206 0.0000 0.0000
# 5 0.0000 0.0000 0.0000 0.0000 24.7283 0.0000
# 6 0.0000 0.0000 0.0000 0.0000 0.0000 31.0285
#
#
#
# Elastic Compliance Matrix: (Units=1/GPa)
#
#
# Indices 1 2 3 4 5 6 
#
# 1 0.029309 -0.013452 -0.009733 0.000000 0.000000 0.000000
# 2 -0.013452 0.019961 -0.000955 0.000000 0.000000 0.000000
# 3 -0.009733 -0.000955 0.021260 0.000000 0.000000 0.000000
# 4 0.000000 0.000000 0.000000 0.035435 0.000000 0.000000
# 5 0.000000 0.000000 0.000000 0.000000 0.040440 0.000000
# 6 0.000000 0.000000 0.000000 0.000000 0.000000 0.032228
#
#
# Mechanical properties :
#
#
# Convention : Reuss Voigt Hill
#
# Bulk Modulus (GPa) = 44.94512 46.33778 45.64145
# Shear Modulus (GPa) = 21.33746 24.00483 22.67114
#
# Velocity S-wave (km/s) = 3.29678 3.49678 3.39825
# Velocity P-wave (km/s) = 6.11438 6.31717 6.21660
#
# Compressibility (1/GPa) = 0.02224935
#
# Stress axis : x y z
#
# Youngs Moduli (GPa) = 34.11924 50.09698 47.03779
#
# Poissons Ratio (x) = 0.67392 0.45780
# Poissons Ratio (y) = 0.45899 0.04493
# Poissons Ratio (z) = 0.33207 0.04786
#
# Static dielectric constant tensor:
#      x y z
#    x 3.404200 0.000000 0.000000 
#    y 0.000000 3.880330 0.000000 
#    z 0.000000 0.000000 3.681780 
# 
# 
# High freq. dielectric constant tensor:
#      x y z
#    x 1.745120 0.000000 0.000000 
#    y 0.000000 1.779150 0.000000 
#    z 0.000000 0.000000 1.770150 
# 
# From -- ./inp_files/13973.got.cif
#   From: 2010.03.12/outbox.cif.g09.slc.cpg/sg42_7_cif.got.tgz:13973.got - 2010.04.14 02:04:31.
