data_PCOD8186509
_publ_section_title
;
Structure prediction by ZEFSAII (Michael W. Deem and Ramdas Pophale) SiO2 
 PCOD8186509
Probable space group: F M M 2
;
_chemical_formula_sum "Si O2"
_cell_formula_units_Z 120
_cell_length_a 13.210441
_cell_length_b 23.500733
_cell_length_c 19.072108
_cell_angle_alpha 90.000000
_cell_angle_beta 90.000000
_cell_angle_gamma 90.000000
_cell_volume 5921.032181
_symmetry_space_group_name_H-M "F M M 2"
_symmetry_group_IT_number 42
_symmetry_cell_setting 'orthorhombic'
loop_
_space_group_symop_operation_xyz
x,y,z
-x,-y,z
-x,y,z
x,-y,z
x,1/2+y,1/2+z
-x,1/2-y,1/2+z
-x,1/2+y,1/2+z
x,1/2-y,1/2+z
1/2+x,y,1/2+z
1/2-x,-y,1/2+z
1/2-x,y,1/2+z
1/2+x,-y,1/2+z
1/2+x,1/2+y,z
1/2-x,1/2-y,z
1/2-x,1/2+y,z
1/2+x,1/2-y,z
loop_
_atom_site_type_symbol
_atom_site_label
_atom_site_fract_x
_atom_site_fract_y
_atom_site_fract_z
Si Si1 0.886037 0.564290 0.591400
Si Si2 0.884411 0.097425 0.933585
Si Si3 0.880978 0.176426 0.320484
Si Si4 0.736996 0.063709 0.816258
Si Si5 0.791450 0.647211 0.111831
Si Si6 0.250000 0.250000 0.212628
Si Si7 0.230863 0.188298 0.462219
Si Si8 0.610250 0.936703 0.197604
O O1 0.854507 0.500000 0.614697
O O2 0.882808 0.566119 0.507572
O O3 0.813933 0.612426 0.625020
O O4 0.000000 0.577787 0.617639
O O5 0.808527 0.062299 0.884393
O O6 0.837633 0.160979 0.937865
O O7 0.000000 0.100801 0.904727
O O8 0.852681 0.109560 0.314928
O O9 0.830532 0.218064 0.262813
O O10 0.847932 0.194011 0.398657
O O11 0.000000 0.183347 0.311598
O O12 0.808405 0.083255 0.753559
O O13 0.691866 0.000000 0.806693
O O14 0.798237 0.703381 0.160215
O O15 0.883346 0.605994 0.132481
O O16 0.812747 0.655648 0.029601
O O17 0.250000 0.250000 0.492839
O O18 0.500000 0.932717 0.232651
O O19 0.631960 0.000000 0.170008
#
# Coordination Sequence:
#
# PCOD8186509 Si02
#       8
#    16  16  16  16  16   8  16  16
#     4   9  18  34  58  90 126 162 202 251 311 372
#     4   9  18  32  57  91 125 161 204 255 312 363
#     4  11  25  45  66  91 126 164 206 256 311 372
#     4  10  20  38  63  91 124 159 202 256 310 368
#     4  11  22  39  64  89 124 161 207 262 310 367
#     4  12  24  44  64  90 124 164 208 254 310 364
#     4  10  21  40  61  88 124 164 212 255 305 370
#     4  10  21  37  58  87 123 162 206 255 310 369
#
# _framework density 20.266736999999999
#
# number of rings (size 3 to 8) (size 9 to 14) (size 15 to 20)
#    0.000    1.867    2.667    1.200    0.000    3.733 
#    0.000    0.667    0.000    0.000    0.000    0.000 
#    0.000    0.000    0.000    0.000    0.000    0.000 
#
# Total GULP energy -371767.816384 kJ/mol
# GULP energy per Si atom -12392.260546 kJ/mol
# Density = 2.022061 g / cm^3
# Si number density = 20.266737 Si / 1000 Ang^3
#
#
#
# Elastic Constant Matrix: (Units=GPa)
#
#
# Indices 1 2 3 4 5 6 
#
# 1 86.4055 27.7047 26.0673 0.0000 0.0000 0.0000
# 2 27.7047 103.1221 30.2973 0.0000 0.0000 0.0000
# 3 26.0673 30.2973 89.2482 0.0000 0.0000 0.0000
# 4 0.0000 0.0000 0.0000 25.9254 0.0000 0.0000
# 5 0.0000 0.0000 0.0000 0.0000 17.6633 0.0000
# 6 0.0000 0.0000 0.0000 0.0000 0.0000 17.8639
#
#
#
# Elastic Compliance Matrix: (Units=1/GPa)
#
#
# Indices 1 2 3 4 5 6 
#
# 1 0.013340 -0.002709 -0.002977 0.000000 0.000000 0.000000
# 2 -0.002709 0.011322 -0.003052 0.000000 0.000000 0.000000
# 3 -0.002977 -0.003052 0.013110 0.000000 0.000000 0.000000
# 4 0.000000 0.000000 0.000000 0.038572 0.000000 0.000000
# 5 0.000000 0.000000 0.000000 0.000000 0.056615 0.000000
# 6 0.000000 0.000000 0.000000 0.000000 0.000000 0.055979
#
#
# Mechanical properties :
#
#
# Convention : Reuss Voigt Hill
#
# Bulk Modulus (GPa) = 49.27084 49.65715 49.46400
# Shear Modulus (GPa) = 23.45444 25.27095 24.36269
#
# Velocity S-wave (km/s) = 3.40558 3.53500 3.47090
# Velocity P-wave (km/s) = 6.31094 6.42002 6.36571
#
# Compressibility (1/GPa) = 0.02029598
#
# Stress axis : x y z
#
# Youngs Moduli (GPa) = 74.96216 88.32475 76.27658
#
# Poissons Ratio (x) = 0.23931 0.22704
# Poissons Ratio (y) = 0.20310 0.23280
# Poissons Ratio (z) = 0.22313 0.26958
#
# Static dielectric constant tensor:
#      x y z
#    x 3.517510 0.000000 0.000000 
#    y 0.000000 3.792100 0.000000 
#    z 0.000000 0.000000 3.774840 
# 
# 
# High freq. dielectric constant tensor:
#      x y z
#    x 1.769740 0.000000 0.000000 
#    y 0.000000 1.804710 0.000000 
#    z 0.000000 0.000000 1.795870 
# 
# From -- ./inp_files/24606.got.cif
#   From: 2010.03.12/outbox.cif.g09.slc.cpg/sg42_13_cif.got.tgz:24606.got - 2010.04.14 02:04:31.
