data_PCOD8186816
_publ_section_title
;
Structure prediction by ZEFSAII (Michael W. Deem and Ramdas Pophale) SiO2 
 PCOD8186816
Probable space group: F M M 2
;
_chemical_formula_sum "Si O2"
_cell_formula_units_Z 104
_cell_length_a 27.561777
_cell_length_b 20.790539
_cell_length_c 9.340411
_cell_angle_alpha 90.000000
_cell_angle_beta 90.000000
_cell_angle_gamma 90.000000
_cell_volume 5352.281537
_symmetry_space_group_name_H-M "F M M 2"
_symmetry_group_IT_number 42
_symmetry_cell_setting 'orthorhombic'
loop_
_space_group_symop_operation_xyz
x,y,z
-x,-y,z
-x,y,z
x,-y,z
x,1/2+y,1/2+z
-x,1/2-y,1/2+z
-x,1/2+y,1/2+z
x,1/2-y,1/2+z
1/2+x,y,1/2+z
1/2-x,-y,1/2+z
1/2-x,y,1/2+z
1/2+x,-y,1/2+z
1/2+x,1/2+y,z
1/2-x,1/2-y,z
1/2-x,1/2+y,z
1/2+x,1/2-y,z
loop_
_atom_site_type_symbol
_atom_site_label
_atom_site_fract_x
_atom_site_fract_y
_atom_site_fract_z
Si Si1 0.445122 0.392713 0.079960
Si Si2 0.283733 0.572363 0.956736
Si Si3 0.198232 0.106353 0.644245
Si Si4 0.148595 0.177880 0.052622
Si Si5 0.692970 0.260463 0.783809
Si Si6 0.443838 0.000000 0.807522
Si Si7 0.946389 0.000000 0.847261
Si Si8 0.876967 0.000000 0.582431
O O1 0.500000 0.365979 0.092553
O O2 0.409437 0.330964 0.068156
O O3 0.431950 0.435963 0.217469
O O4 0.439746 0.436066 0.939720
O O5 0.284476 0.500000 0.015331
O O6 0.279771 0.572409 0.785235
O O7 0.238440 0.611049 0.020732
O O8 0.332275 0.607312 0.009527
O O9 0.182275 0.178423 0.682211
O O10 0.154516 0.064867 0.579618
O O11 0.170908 0.198582 0.205087
O O12 0.164396 0.229808 0.932803
O O13 0.750000 0.250000 0.814594
O O14 0.500000 0.000000 0.852403
O O15 0.411487 0.000000 0.947361
O O16 0.906296 0.000000 0.727725
O O17 0.000000 0.000000 0.778055
#
# Coordination Sequence:
#
# PCOD8186816 Si02
#       8
#    16  16  16  16  16   8   8   8
#     4   9  20  41  63  90 116 155 204 252 308 375
#     4  11  21  38  55  85 121 158 202 244 309 350
#     4  11  24  36  56  82 124 163 201 253 294 365
#     4  11  24  38  65  84 119 164 206 254 299 360
#     4  11  23  41  58  87 121 169 214 247 294 363
#     4   9  21  39  63  91 123 156 198 255 321 380
#     4   9  17  33  61  87 121 156 194 243 303 370
#     4  12  21  36  56  96 126 154 201 256 318 360
#
# _framework density 19.430965
#
# number of rings (size 3 to 8) (size 9 to 14) (size 15 to 20)
#    0.000    1.538    3.077    3.462    4.308    2.462 
#    0.000    0.769    0.000    1.846    0.000    0.000 
#    0.000    0.000    0.000    0.000    0.000    0.000 
#
# Total GULP energy -322434.392578 kJ/mol
# GULP energy per Si atom -12401.322791 kJ/mol
# Density = 1.938674 g / cm^3
# Si number density = 19.430965 Si / 1000 Ang^3
#
#
#
# Elastic Constant Matrix: (Units=GPa)
#
#
# Indices 1 2 3 4 5 6 
#
# 1 120.3238 26.3288 50.1622 -0.0002 0.0000 0.0000
# 2 26.3288 51.6882 18.2442 -0.0012 0.0000 0.0001
# 3 50.1622 18.2442 93.2750 -0.0025 -0.0001 0.0002
# 4 -0.0002 -0.0012 -0.0025 -90.9699 -0.0002 0.0004
# 5 0.0000 0.0000 -0.0001 -0.0002 35.8763 0.0000
# 6 0.0000 0.0001 0.0002 0.0004 0.0000 22.1654
#
#
#
# Elastic Compliance Matrix: (Units=1/GPa)
#
#
# Indices 1 2 3 4 5 6 
#
# 1 0.011405 -0.003915 -0.005368 0.000000 0.000000 0.000000
# 2 -0.003915 0.022125 -0.002222 0.000000 0.000000 0.000000
# 3 -0.005368 -0.002222 0.014042 0.000000 0.000000 0.000000
# 4 0.000000 0.000000 0.000000 -0.010993 0.000000 0.000000
# 5 0.000000 0.000000 0.000000 0.000000 0.027874 0.000000
# 6 0.000000 0.000000 0.000000 0.000000 0.000000 0.045115
#
#
# Mechanical properties :
#
#
# Convention : Reuss Voigt Hill
#
# Bulk Modulus (GPa) = 40.71168 50.52861 45.62014
# Shear Modulus (GPa) = 35.51962 4.78450 20.15206
#
# Velocity S-wave (km/s) = 4.28014 1.57088 3.22391
# Velocity P-wave (km/s) = 6.73970 5.41764 6.11451
#
# Compressibility (1/GPa) = 0.02456298
#
# Stress axis : x y z
#
# Youngs Moduli (GPa) = 87.67756 45.19708 71.21259
#
# Poissons Ratio (x) = 0.17694 0.38227
# Poissons Ratio (y) = 0.34325 0.15825
# Poissons Ratio (z) = 0.47065 0.10044
#
# Static dielectric constant tensor:
#      x y z
#    x 3.804650 0.000000 0.000000 
#    y 0.000000 3.530400 0.000000 
#    z 0.000000 0.000000 3.552510 
# 
# 
# High freq. dielectric constant tensor:
#      x y z
#    x 1.752080 0.000000 0.000000 
#    y 0.000000 1.744610 0.000000 
#    z 0.000000 0.000000 1.761250 
# 
# From -- ./inp_files/4385.got.cif
#   From: 2010.03.12/outbox.cif.g09.slc.cpg/sg42_3_cif.got.tgz:4385.got - 2010.04.14 02:04:31.
