data_PCOD8186783
_publ_section_title
;
Structure prediction by ZEFSAII (Michael W. Deem and Ramdas Pophale) SiO2 
 PCOD8186783
Probable space group: F M M 2
;
_chemical_formula_sum "Si O2"
_cell_formula_units_Z 48
_cell_length_a 17.999000
_cell_length_b 15.672400
_cell_length_c 7.388593
_cell_angle_alpha 90.000000
_cell_angle_beta 90.000000
_cell_angle_gamma 90.000000
_cell_volume 2084.229932
_symmetry_space_group_name_H-M "F M M 2"
_symmetry_group_IT_number 42
_symmetry_cell_setting 'orthorhombic'
loop_
_space_group_symop_operation_xyz
x,y,z
-x,-y,z
-x,y,z
x,-y,z
x,1/2+y,1/2+z
-x,1/2-y,1/2+z
-x,1/2+y,1/2+z
x,1/2-y,1/2+z
1/2+x,y,1/2+z
1/2-x,-y,1/2+z
1/2-x,y,1/2+z
1/2+x,-y,1/2+z
1/2+x,1/2+y,z
1/2-x,1/2-y,z
1/2-x,1/2+y,z
1/2+x,1/2-y,z
loop_
_atom_site_type_symbol
_atom_site_label
_atom_site_fract_x
_atom_site_fract_y
_atom_site_fract_z
Si Si1 0.800526 0.334135 0.378590
Si Si2 0.161515 0.405766 0.010879
Si Si3 0.085272 0.100020 0.153679
O O1 0.750000 0.250000 0.398353
O O2 0.837534 0.341560 0.180871
O O3 0.742265 0.410603 0.413687
O O4 0.865577 0.338987 0.526522
O O5 0.140029 0.500000 0.080398
O O6 0.101649 0.374157 0.862348
O O7 0.000000 0.119092 0.109427
O O8 0.104327 0.000000 0.123164
#
# Coordination Sequence:
#
# PCOD8186783 Si02
#       3
#    16  16  16
#     4  12  24  39  68  99 137 178 226 284 344 407
#     4  11  22  39  67  98 131 179 232 281 334 406
#     4  10  23  44  71 104 139 179 234 293 345 408
#
# _framework density 23.030087999999999
#
# number of rings (size 3 to 8) (size 9 to 14) (size 15 to 20)
#    0.000    1.000    3.333    4.000    0.000    2.667 
#    0.000    5.000    0.000    0.000    0.000    0.000 
#    0.000    0.000    0.000    0.000    0.000    0.000 
#
# Total GULP energy -148768.212692 kJ/mol
# GULP energy per Si atom -12397.351058 kJ/mol
# Density = 2.297767 g / cm^3
# Si number density = 23.030088 Si / 1000 Ang^3
#
#
#
# Elastic Constant Matrix: (Units=GPa)
#
#
# Indices 1 2 3 4 5 6 
#
# 1 131.4550 59.4713 62.2522 0.0001 0.0000 0.0000
# 2 59.4713 94.4120 79.1979 0.0002 -0.0001 -0.0001
# 3 62.2522 79.1979 167.9712 0.0012 -0.0003 -0.0001
# 4 0.0001 0.0002 0.0012 31.7865 -0.0001 -0.0001
# 5 0.0000 -0.0001 -0.0003 -0.0001 42.9475 0.0000
# 6 0.0000 -0.0001 -0.0001 -0.0001 0.0000 32.9831
#
#
#
# Elastic Compliance Matrix: (Units=1/GPa)
#
#
# Indices 1 2 3 4 5 6 
#
# 1 0.010812 -0.005706 -0.001317 0.000000 0.000000 0.000000
# 2 -0.005706 0.020534 -0.007567 0.000000 0.000000 0.000000
# 3 -0.001317 -0.007567 0.010009 0.000000 0.000000 0.000000
# 4 0.000000 0.000000 0.000000 0.031460 0.000000 0.000000
# 5 0.000000 0.000000 0.000000 0.000000 0.023284 0.000000
# 6 0.000000 0.000000 0.000000 0.000000 0.000000 0.030319
#
#
# Mechanical properties :
#
#
# Convention : Reuss Voigt Hill
#
# Bulk Modulus (GPa) = 82.13119 88.40900 85.27010
# Shear Modulus (GPa) = 31.31736 34.40453 32.86095
#
# Velocity S-wave (km/s) = 3.69161 3.86929 3.78149
# Velocity P-wave (km/s) = 7.34239 7.64419 7.49481
#
# Compressibility (1/GPa) = 0.01217564
#
# Stress axis : x y z
#
# Youngs Moduli (GPa) = 92.48757 48.70029 99.90921
#
# Poissons Ratio (x) = 0.27790 0.13155
# Poissons Ratio (y) = 0.52776 0.75599
# Poissons Ratio (z) = 0.12177 0.36850
#
# Static dielectric constant tensor:
#      x y z
#    x 4.024240 0.000000 0.000000 
#    y 0.000000 4.047800 0.000000 
#    z 0.000000 0.000000 4.175470 
# 
# 
# High freq. dielectric constant tensor:
#      x y z
#    x 1.888050 0.000000 0.000000 
#    y 0.000000 1.904210 0.000000 
#    z 0.000000 0.000000 1.919720 
# 
# From -- ./inp_files/2417.got.cif
#   From: 2010.03.12/outbox.cif.g09.slc.cpg/sg42_2_cif.got.tgz:2417.got - 2010.04.14 02:04:31.
