data_PCOD8186841
_publ_section_title
;
Structure prediction by ZEFSAII (Michael W. Deem and Ramdas Pophale) SiO2 
 PCOD8186841
Probable space group: F M M 2
;
_chemical_formula_sum "Si O2"
_cell_formula_units_Z 80
_cell_length_a 7.714738
_cell_length_b 17.814453
_cell_length_c 29.652253
_cell_angle_alpha 90.000000
_cell_angle_beta 90.000000
_cell_angle_gamma 90.000000
_cell_volume 4075.222921
_symmetry_space_group_name_H-M "F M M 2"
_symmetry_group_IT_number 42
_symmetry_cell_setting 'orthorhombic'
loop_
_space_group_symop_operation_xyz
x,y,z
-x,-y,z
-x,y,z
x,-y,z
x,1/2+y,1/2+z
-x,1/2-y,1/2+z
-x,1/2+y,1/2+z
x,1/2-y,1/2+z
1/2+x,y,1/2+z
1/2-x,-y,1/2+z
1/2-x,y,1/2+z
1/2+x,-y,1/2+z
1/2+x,1/2+y,z
1/2-x,1/2-y,z
1/2-x,1/2+y,z
1/2+x,1/2-y,z
loop_
_atom_site_type_symbol
_atom_site_label
_atom_site_fract_x
_atom_site_fract_y
_atom_site_fract_z
Si Si1 0.204525 0.836133 0.347720
Si Si2 0.794522 0.083523 0.437692
Si Si3 0.188332 0.588988 0.629518
Si Si4 0.307050 0.089406 0.034792
Si Si5 0.500000 0.911079 0.291189
Si Si6 0.500000 0.410418 0.689081
O O1 0.250000 0.750000 0.341420
O O2 0.261181 0.860323 0.398079
O O3 0.321780 0.882739 0.313279
O O4 0.000000 0.851859 0.338610
O O5 0.723745 0.113948 0.486314
O O6 0.000000 0.078545 0.441805
O O7 0.721049 0.000000 0.426864
O O8 0.211003 0.500000 0.627844
O O9 0.202731 0.619992 0.578142
O O10 0.332199 0.622503 0.663072
O O11 0.000000 0.612182 0.648428
O O12 0.500000 0.121999 0.039889
O O13 0.311673 0.000000 0.034509
O O14 0.500000 0.880727 0.240001
O O15 0.500000 0.000000 0.293383
O O16 0.500000 0.500000 0.688488
#
# Coordination Sequence:
#
# PCOD8186841 Si02
#       6
#    16  16  16  16   8   8
#     4  11  22  40  61  83 118 155 198 242 294 352
#     4   8  15  28  50  79 111 149 189 230 281 334
#     4   9  15  24  41  67 104 144 177 218 278 340
#     4   8  12  22  41  67 103 144 179 218 274 333
#     4  11  24  40  62  91 115 149 199 248 301 349
#     4   9  18  32  48  71 108 141 175 230 290 337
#
# _framework density 19.630828000000001
#
# number of rings (size 3 to 8) (size 9 to 14) (size 15 to 20)
#    0.000    2.800    2.000    1.800    0.000    2.000 
#    1.800    2.000    0.000    0.000    0.000    1.400 
#    0.000    0.000    0.000    0.000    0.000    0.000 
#
# Total GULP energy -247803.156083 kJ/mol
# GULP energy per Si atom -12390.157804 kJ/mol
# Density = 1.958615 g / cm^3
# Si number density = 19.630828 Si / 1000 Ang^3
#
#
#
# Elastic Constant Matrix: (Units=GPa)
#
#
# Indices 1 2 3 4 5 6 
#
# 1 128.1274 19.4443 79.5590 0.0000 0.0000 0.0000
# 2 19.4443 45.5654 31.3105 0.0000 0.0000 0.0000
# 3 79.5590 31.3105 181.0335 0.0000 0.0000 0.0000
# 4 0.0000 0.0000 0.0000 0.4290 0.0000 0.0000
# 5 0.0000 0.0000 0.0000 0.0000 15.0405 0.0000
# 6 0.0000 0.0000 0.0000 0.0000 0.0000 10.2615
#
#
#
# Elastic Compliance Matrix: (Units=1/GPa)
#
#
# Indices 1 2 3 4 5 6 
#
# 1 0.010827 -0.001533 -0.004493 0.000000 0.000000 0.000000
# 2 -0.001533 0.025124 -0.003672 0.000000 0.000000 0.000000
# 3 -0.004493 -0.003672 0.008133 0.000000 0.000000 0.000000
# 4 0.000000 0.000000 0.000000 2.330984 0.000000 0.000000
# 5 0.000000 0.000000 0.000000 0.000000 0.066487 0.000000
# 6 0.000000 0.000000 0.000000 0.000000 0.000000 0.097451
#
#
# Mechanical properties :
#
#
# Convention : Reuss Voigt Hill
#
# Bulk Modulus (GPa) = 40.50373 68.37266 54.43819
# Shear Modulus (GPa) = 1.94808 20.10704 11.02756
#
# Velocity S-wave (km/s) = 0.99725 3.20388 2.37269
# Velocity P-wave (km/s) = 4.69079 6.97074 5.94116
#
# Compressibility (1/GPa) = 0.02468908
#
# Stress axis : x y z
#
# Youngs Moduli (GPa) = 92.35880 39.80332 122.94865
#
# Poissons Ratio (x) = 0.06101 0.55243
# Poissons Ratio (y) = 0.14158 0.45141
# Poissons Ratio (z) = 0.41498 0.14614
#
# Static dielectric constant tensor:
#      x y z
#    x 3.623470 0.000000 0.000000 
#    y 0.000000 2.987890 0.000000 
#    z 0.000000 0.000000 3.973740 
# 
# 
# High freq. dielectric constant tensor:
#      x y z
#    x 1.762410 0.000000 0.000000 
#    y 0.000000 1.696610 0.000000 
#    z 0.000000 0.000000 1.775830 
# 
# From -- ./inp_files/31278.got.cif
#   From: 2010.03.12/outbox.cif.g09.slc.cpg/sg42_16_cif.got.tgz:31278.got - 2010.04.14 02:04:31.
