data_PCOD8186232
_publ_section_title
;
Structure prediction by ZEFSAII (Michael W. Deem and Ramdas Pophale) SiO2 
 PCOD8186232
Probable space group: F M M 2
;
_chemical_formula_sum "Si O2"
_cell_formula_units_Z 96
_cell_length_a 14.401917
_cell_length_b 15.038432
_cell_length_c 22.922548
_cell_angle_alpha 90.000000
_cell_angle_beta 90.000000
_cell_angle_gamma 90.000000
_cell_volume 4964.617010
_symmetry_space_group_name_H-M "F M M 2"
_symmetry_group_IT_number 42
_symmetry_cell_setting 'orthorhombic'
loop_
_space_group_symop_operation_xyz
x,y,z
-x,-y,z
-x,y,z
x,-y,z
x,1/2+y,1/2+z
-x,1/2-y,1/2+z
-x,1/2+y,1/2+z
x,1/2-y,1/2+z
1/2+x,y,1/2+z
1/2-x,-y,1/2+z
1/2-x,y,1/2+z
1/2+x,-y,1/2+z
1/2+x,1/2+y,z
1/2-x,1/2-y,z
1/2-x,1/2+y,z
1/2+x,1/2-y,z
loop_
_atom_site_type_symbol
_atom_site_label
_atom_site_fract_x
_atom_site_fract_y
_atom_site_fract_z
Si Si1 0.895086 0.604628 0.818540
Si Si2 0.602669 0.598838 0.658577
Si Si3 0.224570 0.348377 0.712416
Si Si4 0.890927 0.901025 0.103188
Si Si5 0.389590 0.400780 0.449412
Si Si6 0.390137 0.280402 0.552075
O O1 0.892672 0.500000 0.807678
O O2 0.822605 0.651452 0.775565
O O3 0.861394 0.627625 0.883968
O O4 0.000000 0.640174 0.807742
O O5 0.500000 0.628855 0.680437
O O6 0.596976 0.500000 0.632103
O O7 0.676123 0.600188 0.711947
O O8 0.641740 0.663088 0.608157
O O9 0.250000 0.250000 0.693392
O O10 0.155443 0.392911 0.666253
O O11 0.855443 0.822316 0.059346
O O12 0.000000 0.888838 0.113715
O O13 0.869101 0.000000 0.077447
O O14 0.500000 0.404513 0.453646
O O15 0.350800 0.500000 0.463842
O O16 0.347953 0.327382 0.494285
O O17 0.500000 0.283341 0.547455
#
# Coordination Sequence:
#
# PCOD8186232 Si02
#       6
#    16  16  16  16  16  16
#     4   9  18  33  55  83 110 138 177 224 273 321
#     4  10  20  33  50  75 109 145 178 216 265 321
#     4  12  22  33  51  74 110 148 179 223 269 315
#     4  10  20  34  53  79 112 146 179 220 271 324
#     4   8  14  27  51  82 112 141 174 217 269 320
#     4   9  16  29  50  79 111 138 172 215 265 322
#
# _framework density 19.336839000000001
#
# number of rings (size 3 to 8) (size 9 to 14) (size 15 to 20)
#    0.000    2.333    1.667    3.500    0.000    4.000 
#    0.000    0.000    3.667    0.000    0.000    2.333 
#    0.000    5.333    0.000    0.333    0.000    0.333 
#
# Total GULP energy -297409.504703 kJ/mol
# GULP energy per Si atom -12392.062696 kJ/mol
# Density = 1.929283 g / cm^3
# Si number density = 19.336839 Si / 1000 Ang^3
#
#
#
# Elastic Constant Matrix: (Units=GPa)
#
#
# Indices 1 2 3 4 5 6 
#
# 1 66.2798 31.6980 50.0899 0.0000 0.0000 0.0000
# 2 31.6980 132.1147 57.0703 0.0000 0.0000 0.0000
# 3 50.0899 57.0703 112.2526 0.0000 0.0000 0.0000
# 4 0.0000 0.0000 0.0000 22.3432 0.0000 0.0000
# 5 0.0000 0.0000 0.0000 0.0000 16.9781 0.0000
# 6 0.0000 0.0000 0.0000 0.0000 0.0000 18.7192
#
#
#
# Elastic Compliance Matrix: (Units=1/GPa)
#
#
# Indices 1 2 3 4 5 6 
#
# 1 0.022961 -0.001388 -0.009540 0.000000 0.000000 0.000000
# 2 -0.001388 0.009783 -0.004355 0.000000 0.000000 0.000000
# 3 -0.009540 -0.004355 0.015379 0.000000 0.000000 0.000000
# 4 0.000000 0.000000 0.000000 0.044756 0.000000 0.000000
# 5 0.000000 0.000000 0.000000 0.000000 0.058900 0.000000
# 6 0.000000 0.000000 0.000000 0.000000 0.000000 0.053421
#
#
# Mechanical properties :
#
#
# Convention : Reuss Voigt Hill
#
# Bulk Modulus (GPa) = 56.95246 65.37372 61.16309
# Shear Modulus (GPa) = 20.69370 23.06066 21.87718
#
# Velocity S-wave (km/s) = 3.27489 3.45712 3.36724
# Velocity P-wave (km/s) = 6.61942 7.05810 6.84228
#
# Compressibility (1/GPa) = 0.01755850
#
# Stress axis : x y z
#
# Youngs Moduli (GPa) = 43.55170 102.21553 65.02168
#
# Poissons Ratio (x) = 0.14186 0.62032
# Poissons Ratio (y) = 0.06044 0.28314
# Poissons Ratio (z) = 0.41549 0.44511
#
# Static dielectric constant tensor:
#      x y z
#    x 3.505210 0.000000 0.000000 
#    y 0.000000 3.788850 0.000000 
#    z 0.000000 0.000000 3.493910 
# 
# 
# High freq. dielectric constant tensor:
#      x y z
#    x 1.740760 0.000000 0.000000 
#    y 0.000000 1.756860 0.000000 
#    z 0.000000 0.000000 1.720310 
# 
# From -- ./inp_files/25094.got.cif
#   From: 2010.03.12/outbox.cif.g09.slc.cpg/sg42_13_cif.got.tgz:25094.got - 2010.04.14 02:04:31.
