data_PCOD8186522
_publ_section_title
;
Structure prediction by ZEFSAII (Michael W. Deem and Ramdas Pophale) SiO2 
 PCOD8186522
Probable space group: F M M 2
;
_chemical_formula_sum "Si O2"
_cell_formula_units_Z 72
_cell_length_a 23.311427
_cell_length_b 12.251290
_cell_length_c 13.330906
_cell_angle_alpha 90.000000
_cell_angle_beta 90.000000
_cell_angle_gamma 90.000000
_cell_volume 3807.240799
_symmetry_space_group_name_H-M "F M M 2"
_symmetry_group_IT_number 42
_symmetry_cell_setting 'orthorhombic'
loop_
_space_group_symop_operation_xyz
x,y,z
-x,-y,z
-x,y,z
x,-y,z
x,1/2+y,1/2+z
-x,1/2-y,1/2+z
-x,1/2+y,1/2+z
x,1/2-y,1/2+z
1/2+x,y,1/2+z
1/2-x,-y,1/2+z
1/2-x,y,1/2+z
1/2+x,-y,1/2+z
1/2+x,1/2+y,z
1/2-x,1/2-y,z
1/2-x,1/2+y,z
1/2+x,1/2-y,z
loop_
_atom_site_type_symbol
_atom_site_label
_atom_site_fract_x
_atom_site_fract_y
_atom_site_fract_z
Si Si1 0.271599 0.500000 0.130700
Si Si2 0.500000 0.627128 0.922155
Si Si3 0.648248 0.000000 0.224289
Si Si4 0.589095 0.283389 0.772149
Si Si5 0.000000 0.868023 0.159535
Si Si6 0.297220 0.332171 0.284054
Si Si7 0.732392 0.000000 0.402456
O O1 0.202436 0.500000 0.148108
O O2 0.304506 0.400627 0.182768
O O3 0.287994 0.500000 0.015570
O O4 0.500000 0.500000 0.896771
O O5 0.444898 0.681333 0.870946
O O6 0.500000 0.648845 0.040354
O O7 0.608829 0.891574 0.209156
O O8 0.674558 0.000000 0.336513
O O9 0.555100 0.196121 0.703444
O O10 0.644068 0.222859 0.817083
O O11 0.000000 0.000000 0.185869
O O12 0.250000 0.250000 0.247284
O O13 0.272542 0.396473 0.379850
#
# Coordination Sequence:
#
# PCOD8186522 Si02
#       7
#     8   8   8  16   8  16   8
#     4  10  22  36  55  90 130 156 195 241 290 363
#     4  10  22  42  65  87 112 156 210 254 297 352
#     4  10  20  39  62  90 118 167 202 236 300 362
#     4  11  21  41  66  84 126 160 199 253 300 360
#     4  10  26  41  62  94 115 152 209 257 308 353
#     4  10  20  39  58  86 123 157 191 241 305 352
#     4  10  22  36  55  90 126 158 201 237 288 365
#
# _framework density 18.911334
#
# number of rings (size 3 to 8) (size 9 to 14) (size 15 to 20)
#    0.000    2.000    5.556    0.000    3.111    4.444 
#    0.000    0.000    9.778    0.000    0.000    0.000 
#    0.000    0.000    0.000    0.000    0.000    0.000 
#
# Total GULP energy -223033.836545 kJ/mol
# GULP energy per Si atom -12390.768697 kJ/mol
# Density = 1.886829 g / cm^3
# Si number density = 18.911334 Si / 1000 Ang^3
#
#
#
# Elastic Constant Matrix: (Units=GPa)
#
#
# Indices 1 2 3 4 5 6 
#
# 1 119.6785 58.4092 26.1658 0.0000 0.0000 0.0000
# 2 58.4092 142.3438 38.7908 0.0000 0.0000 0.0000
# 3 26.1658 38.7908 112.1927 0.0000 0.0000 0.0000
# 4 0.0000 0.0000 0.0000 12.0254 0.0000 0.0000
# 5 0.0000 0.0000 0.0000 0.0000 15.3403 0.0000
# 6 0.0000 0.0000 0.0000 0.0000 0.0000 52.8410
#
#
#
# Elastic Compliance Matrix: (Units=1/GPa)
#
#
# Indices 1 2 3 4 5 6 
#
# 1 0.010562 -0.004044 -0.001065 0.000000 0.000000 0.000000
# 2 -0.004044 0.009304 -0.002274 0.000000 0.000000 0.000000
# 3 -0.001065 -0.002274 0.009948 0.000000 0.000000 0.000000
# 4 0.000000 0.000000 0.000000 0.083157 0.000000 0.000000
# 5 0.000000 0.000000 0.000000 0.000000 0.065188 0.000000
# 6 0.000000 0.000000 0.000000 0.000000 0.000000 0.018925
#
#
# Mechanical properties :
#
#
# Convention : Reuss Voigt Hill
#
# Bulk Modulus (GPa) = 66.45137 68.99407 67.72272
# Shear Modulus (GPa) = 23.05577 32.76463 27.91020
#
# Velocity S-wave (km/s) = 3.49542 4.16689 3.84584
# Velocity P-wave (km/s) = 7.17672 7.72741 7.45715
#
# Compressibility (1/GPa) = 0.01504860
#
# Stress axis : x y z
#
# Youngs Moduli (GPa) = 94.67744 107.47802 100.52428
#
# Poissons Ratio (x) = 0.43462 0.10708
# Poissons Ratio (y) = 0.38286 0.22858
# Poissons Ratio (z) = 0.10085 0.24439
#
# Static dielectric constant tensor:
#      x y z
#    x 3.075860 0.000000 0.000000 
#    y 0.000000 3.727950 0.000000 
#    z 0.000000 0.000000 3.089370 
# 
# 
# High freq. dielectric constant tensor:
#      x y z
#    x 1.742300 0.000000 0.000000 
#    y 0.000000 1.757970 0.000000 
#    z 0.000000 0.000000 1.704760 
# 
# From -- ./inp_files/12799.got.cif
#   From: 2010.03.12/outbox.cif.g09.slc.cpg/sg42_7_cif.got.tgz:12799.got - 2010.04.14 02:04:31.
