data_PCOD8186518
_publ_section_title
;
Structure prediction by ZEFSAII (Michael W. Deem and Ramdas Pophale) SiO2 
 PCOD8186518
Probable space group: F M M 2
;
_chemical_formula_sum "Si O2"
_cell_formula_units_Z 112
_cell_length_a 29.401672
_cell_length_b 15.530678
_cell_length_c 10.764078
_cell_angle_alpha 90.000000
_cell_angle_beta 90.000000
_cell_angle_gamma 90.000000
_cell_volume 4915.178338
_symmetry_space_group_name_H-M "F M M 2"
_symmetry_group_IT_number 42
_symmetry_cell_setting 'orthorhombic'
loop_
_space_group_symop_operation_xyz
x,y,z
-x,-y,z
-x,y,z
x,-y,z
x,1/2+y,1/2+z
-x,1/2-y,1/2+z
-x,1/2+y,1/2+z
x,1/2-y,1/2+z
1/2+x,y,1/2+z
1/2-x,-y,1/2+z
1/2-x,y,1/2+z
1/2+x,-y,1/2+z
1/2+x,1/2+y,z
1/2-x,1/2-y,z
1/2-x,1/2+y,z
1/2+x,1/2-y,z
loop_
_atom_site_type_symbol
_atom_site_label
_atom_site_fract_x
_atom_site_fract_y
_atom_site_fract_z
Si Si1 0.629597 0.820966 0.700850
Si Si2 0.949342 0.095572 0.574962
Si Si3 0.448261 0.261901 0.371187
Si Si4 0.858237 0.632739 0.201904
Si Si5 0.731292 0.905770 0.084835
Si Si6 0.787042 0.897281 0.316264
Si Si7 0.604731 0.598753 0.949188
O O1 0.580620 0.792821 0.753464
O O2 0.652866 0.730860 0.663112
O O3 0.660590 0.867881 0.803962
O O4 0.625431 0.884512 0.584815
O O5 0.938727 0.167294 0.474596
O O6 0.910404 0.103070 0.678261
O O7 0.000000 0.110484 0.633230
O O8 0.947285 0.000000 0.514577
O O9 0.500000 0.260569 0.327004
O O10 0.435226 0.167635 0.422589
O O11 0.821110 0.579443 0.126517
O O12 0.854269 0.615123 0.350225
O O13 0.759101 0.858763 0.196844
O O14 0.753357 0.000000 0.070108
O O15 0.732731 0.860386 0.948246
O O16 0.784532 0.000000 0.321846
O O17 0.586787 0.500000 0.943724
#
# Coordination Sequence:
#
# PCOD8186518 Si02
#       7
#    16  16  16  16  16  16  16
#     4  11  24  41  64  95 133 179 222 284 352 407
#     4  10  20  38  66  95 126 171 223 275 337 410
#     4  10  23  43  65  96 136 175 226 286 342 413
#     4  11  23  40  64  96 133 172 226 283 342 413
#     4  10  22  41  67  97 130 175 226 284 346 416
#     4  10  23  42  67  97 133 177 229 284 352 426
#     4  11  24  41  65  97 134 182 227 282 350 421
#
# _framework density 22.786556999999998
#
# number of rings (size 3 to 8) (size 9 to 14) (size 15 to 20)
#    0.000    1.571    1.429    2.571    4.000    6.000 
#    0.000    1.429    0.000    0.000    0.000    0.000 
#    0.000    0.000    0.000    0.000    0.000    0.000 
#
# Total GULP energy -347005.549738 kJ/mol
# GULP energy per Si atom -12393.055348 kJ/mol
# Density = 2.273469 g / cm^3
# Si number density = 22.786557 Si / 1000 Ang^3
#
#
#
# Elastic Constant Matrix: (Units=GPa)
#
#
# Indices 1 2 3 4 5 6 
#
# 1 95.4278 19.4644 52.9813 0.0000 0.0000 0.0000
# 2 19.4644 122.8511 41.7166 0.0000 0.0000 0.0000
# 3 52.9813 41.7166 156.4155 0.0000 0.0000 0.0000
# 4 0.0000 0.0000 0.0000 20.2335 0.0000 0.0000
# 5 0.0000 0.0000 0.0000 0.0000 28.8933 0.0000
# 6 0.0000 0.0000 0.0000 0.0000 0.0000 26.3600
#
#
#
# Elastic Compliance Matrix: (Units=1/GPa)
#
#
# Indices 1 2 3 4 5 6 
#
# 1 0.012949 -0.000618 -0.004221 0.000000 0.000000 0.000000
# 2 -0.000618 0.008980 -0.002186 0.000000 0.000000 0.000000
# 3 -0.004221 -0.002186 0.008406 0.000000 0.000000 0.000000
# 4 0.000000 0.000000 0.000000 0.049423 0.000000 0.000000
# 5 0.000000 0.000000 0.000000 0.000000 0.034610 0.000000
# 6 0.000000 0.000000 0.000000 0.000000 0.000000 0.037936
#
#
# Mechanical properties :
#
#
# Convention : Reuss Voigt Hill
#
# Bulk Modulus (GPa) = 61.40686 67.00209 64.20448
# Shear Modulus (GPa) = 29.10659 32.46617 30.78638
#
# Velocity S-wave (km/s) = 3.57789 3.77874 3.67969
# Velocity P-wave (km/s) = 6.63895 6.96467 6.80376
#
# Compressibility (1/GPa) = 0.01628483
#
# Stress axis : x y z
#
# Youngs Moduli (GPa) = 77.22729 111.35796 118.96356
#
# Poissons Ratio (x) = 0.06884 0.50216
# Poissons Ratio (y) = 0.04774 0.26001
# Poissons Ratio (z) = 0.32599 0.24339
#
# Static dielectric constant tensor:
#      x y z
#    x 3.953590 0.000000 0.000000 
#    y 0.000000 4.208600 0.000000 
#    z 0.000000 0.000000 4.208100 
# 
# 
# High freq. dielectric constant tensor:
#      x y z
#    x 1.886960 0.000000 0.000000 
#    y 0.000000 1.901840 0.000000 
#    z 0.000000 0.000000 1.901380 
# 
# From -- ./inp_files/11117.got.cif
#   From: 2010.03.12/outbox.cif.g09.slc.cpg/sg42_6_cif.got.tgz:11117.got - 2010.04.14 02:04:31.
