data_PCOD8186577
_publ_section_title
;
Structure prediction by ZEFSAII (Michael W. Deem and Ramdas Pophale) SiO2 
 PCOD8186577
Probable space group: F M M 2
;
_chemical_formula_sum "Si O2"
_cell_formula_units_Z 96
_cell_length_a 23.416796
_cell_length_b 16.542044
_cell_length_c 11.879364
_cell_angle_alpha 90.000000
_cell_angle_beta 90.000000
_cell_angle_gamma 90.000000
_cell_volume 4601.610275
_symmetry_space_group_name_H-M "F M M 2"
_symmetry_group_IT_number 42
_symmetry_cell_setting 'orthorhombic'
loop_
_space_group_symop_operation_xyz
x,y,z
-x,-y,z
-x,y,z
x,-y,z
x,1/2+y,1/2+z
-x,1/2-y,1/2+z
-x,1/2+y,1/2+z
x,1/2-y,1/2+z
1/2+x,y,1/2+z
1/2-x,-y,1/2+z
1/2-x,y,1/2+z
1/2+x,-y,1/2+z
1/2+x,1/2+y,z
1/2-x,1/2-y,z
1/2-x,1/2+y,z
1/2+x,1/2-y,z
loop_
_atom_site_type_symbol
_atom_site_label
_atom_site_fract_x
_atom_site_fract_y
_atom_site_fract_z
Si Si1 0.864344 0.903675 0.559610
Si Si2 0.267599 0.841819 0.207522
Si Si3 0.161171 0.906340 0.910581
Si Si4 0.434217 0.403544 0.342091
Si Si5 0.348462 0.093251 0.657990
Si Si6 0.561026 0.092918 0.259954
O O1 0.802078 0.868022 0.593663
O O2 0.892828 0.873013 0.443352
O O3 0.905726 0.868130 0.655662
O O4 0.857729 0.000000 0.561388
O O5 0.250000 0.750000 0.192977
O O6 0.301576 0.854793 0.323481
O O7 0.210476 0.894730 0.224402
O O8 0.095230 0.898771 0.875399
O O9 0.181897 0.000000 0.907289
O O10 0.161245 0.866672 0.034903
O O11 0.500000 0.370806 0.349711
O O12 0.435788 0.500000 0.345500
O O13 0.402722 0.371527 0.228296
O O14 0.361545 0.000000 0.638060
O O15 0.500000 0.136595 0.275076
O O16 0.551924 0.000000 0.228252
#
# Coordination Sequence:
#
# PCOD8186577 Si02
#       6
#    16  16  16  16  16  16
#     4   9  17  32  55  85 116 148 186 234 286 341
#     4  11  23  37  55  81 112 151 193 242 287 342
#     4   9  19  35  54  79 111 146 187 233 286 345
#     4   9  18  33  57  89 118 148 189 237 288 341
#     4  10  21  36  56  82 113 149 186 235 290 344
#     4   8  13  24  47  78 107 135 172 223 278 329
#
# _framework density 20.862262999999999
#
# number of rings (size 3 to 8) (size 9 to 14) (size 15 to 20)
#    0.000    2.667    0.000    3.000    2.333    3.333 
#    0.000    3.333    0.000    5.000    0.000    0.000 
#    0.000    0.000    0.000    0.000    0.000    0.000 
#
# Total GULP energy -297325.184440 kJ/mol
# GULP energy per Si atom -12388.549352 kJ/mol
# Density = 2.081478 g / cm^3
# Si number density = 20.862263 Si / 1000 Ang^3
#
#
#
# Elastic Constant Matrix: (Units=GPa)
#
#
# Indices 1 2 3 4 5 6 
#
# 1 147.3566 24.8272 61.5579 0.0000 0.0000 0.0000
# 2 24.8272 34.7539 25.5677 0.0000 0.0000 0.0000
# 3 61.5579 25.5677 141.7614 0.0000 0.0000 0.0000
# 4 0.0000 0.0000 0.0000 11.0088 0.0000 0.0000
# 5 0.0000 0.0000 0.0000 0.0000 31.5901 0.0000
# 6 0.0000 0.0000 0.0000 0.0000 0.0000 3.4025
#
#
#
# Elastic Compliance Matrix: (Units=1/GPa)
#
#
# Indices 1 2 3 4 5 6 
#
# 1 0.008743 -0.003981 -0.003079 0.000000 0.000000 0.000000
# 2 -0.003981 0.034988 -0.004582 0.000000 0.000000 0.000000
# 3 -0.003079 -0.004582 0.009217 0.000000 0.000000 0.000000
# 4 0.000000 0.000000 0.000000 0.090836 0.000000 0.000000
# 5 0.000000 0.000000 0.000000 0.000000 0.031656 0.000000
# 6 0.000000 0.000000 0.000000 0.000000 0.000000 0.293905
#
#
# Mechanical properties :
#
#
# Convention : Reuss Voigt Hill
#
# Bulk Modulus (GPa) = 33.70840 60.86416 47.28628
# Shear Modulus (GPa) = 9.94991 23.32821 16.63906
#
# Velocity S-wave (km/s) = 2.18625 3.34758 2.82719
# Velocity P-wave (km/s) = 4.75033 6.64675 5.77689
#
# Compressibility (1/GPa) = 0.02966620
#
# Stress axis : x y z
#
# Youngs Moduli (GPa) = 114.37661 28.58095 108.49197
#
# Poissons Ratio (x) = 0.11378 0.33400
# Poissons Ratio (y) = 0.45533 0.49708
# Poissons Ratio (z) = 0.35211 0.13095
#
# Static dielectric constant tensor:
#      x y z
#    x 4.178590 0.000000 0.000000 
#    y 0.000000 3.127400 0.000000 
#    z 0.000000 0.000000 3.954210 
# 
# 
# High freq. dielectric constant tensor:
#      x y z
#    x 1.830240 0.000000 0.000000 
#    y 0.000000 1.755020 0.000000 
#    z 0.000000 0.000000 1.820360 
# 
# From -- ./inp_files/10159.got.cif
#   From: 2010.03.12/outbox.cif.g09.slc.cpg/sg42_6_cif.got.tgz:10159.got - 2010.04.14 02:04:31.
