data_PCOD8186702
_publ_section_title
;
Structure prediction by ZEFSAII (Michael W. Deem and Ramdas Pophale) SiO2 
 PCOD8186702
Probable space group: F M M 2
;
_chemical_formula_sum "Si O2"
_cell_formula_units_Z 88
_cell_length_a 10.170559
_cell_length_b 32.709963
_cell_length_c 13.301913
_cell_angle_alpha 90.000000
_cell_angle_beta 90.000000
_cell_angle_gamma 90.000000
_cell_volume 4425.261908
_symmetry_space_group_name_H-M "F M M 2"
_symmetry_group_IT_number 42
_symmetry_cell_setting 'orthorhombic'
loop_
_space_group_symop_operation_xyz
x,y,z
-x,-y,z
-x,y,z
x,-y,z
x,1/2+y,1/2+z
-x,1/2-y,1/2+z
-x,1/2+y,1/2+z
x,1/2-y,1/2+z
1/2+x,y,1/2+z
1/2-x,-y,1/2+z
1/2-x,y,1/2+z
1/2+x,-y,1/2+z
1/2+x,1/2+y,z
1/2-x,1/2-y,z
1/2-x,1/2+y,z
1/2+x,1/2-y,z
loop_
_atom_site_type_symbol
_atom_site_label
_atom_site_fract_x
_atom_site_fract_y
_atom_site_fract_z
Si Si1 0.500000 0.000000 0.823690
Si Si2 0.771354 0.914132 0.061066
Si Si3 0.355640 0.647398 0.911813
Si Si4 0.652827 0.143654 0.733985
Si Si5 0.217075 0.000000 0.157377
Si Si6 0.000000 0.500000 0.155140
Si Si7 0.500000 0.067347 0.991931
Si Si8 0.147788 0.786377 0.078569
O O1 0.624661 0.000000 0.752310
O O2 0.500000 0.041128 0.889392
O O3 0.782610 0.892012 0.167926
O O4 0.803194 0.961739 0.081685
O O5 0.631325 0.906066 0.005195
O O6 0.869949 0.893171 0.981800
O O7 0.500000 0.652600 0.860336
O O8 0.237977 0.644886 0.833945
O O9 0.323360 0.686063 0.981726
O O10 0.500000 0.133170 0.759218
O O11 0.663639 0.187065 0.679303
O O12 0.360816 0.000000 0.213297
O O13 0.000000 0.460348 0.088854
O O14 0.250000 0.750000 0.082314
O O15 0.000000 0.768442 0.073524
#
# Coordination Sequence:
#
# PCOD8186702 Si02
#       8
#     4  16  16  16   8   4   8  16
#     4  11  24  34  64  93 110 150 213 262 308 347
#     4  10  22  40  60  84 124 159 202 253 310 349
#     4  10  23  40  60  88 127 158 200 249 301 357
#     4  10  23  41  62  89 123 160 204 247 300 361
#     4  10  22  36  62  85 115 158 203 253 300 359
#     4   7  16  42  52  69 120 150 177 252 310 339
#     4   9  20  38  58  83 115 151 201 254 295 361
#     4   9  20  41  63  89 124 159 192 246 299 358
#
# _framework density 19.885829999999999
#
# number of rings (size 3 to 8) (size 9 to 14) (size 15 to 20)
#    0.000    2.364    0.000    2.182    7.636    2.182 
#    3.273    3.636    2.000    1.091    0.000    0.000 
#    0.000    0.000    0.000    0.000    0.000    0.000 
#
# Total GULP energy -272629.603222 kJ/mol
# GULP energy per Si atom -12392.254692 kJ/mol
# Density = 1.984057 g / cm^3
# Si number density = 19.885830 Si / 1000 Ang^3
#
#
#
# Elastic Constant Matrix: (Units=GPa)
#
#
# Indices 1 2 3 4 5 6 
#
# 1 139.3440 57.5533 69.3189 0.0000 0.0000 0.0000
# 2 57.5533 115.9802 38.7176 0.0000 0.0000 0.0000
# 3 69.3189 38.7176 108.0681 0.0000 0.0000 0.0000
# 4 0.0000 0.0000 0.0000 18.5779 0.0000 0.0000
# 5 0.0000 0.0000 0.0000 0.0000 35.7054 0.0000
# 6 0.0000 0.0000 0.0000 0.0000 0.0000 21.6774
#
#
#
# Elastic Compliance Matrix: (Units=1/GPa)
#
#
# Indices 1 2 3 4 5 6 
#
# 1 0.011849 -0.003797 -0.006240 0.000000 0.000000 0.000000
# 2 -0.003797 0.011010 -0.001509 0.000000 0.000000 0.000000
# 3 -0.006240 -0.001509 0.013797 0.000000 0.000000 0.000000
# 4 0.000000 0.000000 0.000000 0.053827 0.000000 0.000000
# 5 0.000000 0.000000 0.000000 0.000000 0.028007 0.000000
# 6 0.000000 0.000000 0.000000 0.000000 0.000000 0.046131
#
#
# Mechanical properties :
#
#
# Convention : Reuss Voigt Hill
#
# Bulk Modulus (GPa) = 73.72630 77.17464 75.45047
# Shear Modulus (GPa) = 26.00995 28.37897 27.19446
#
# Velocity S-wave (km/s) = 3.62050 3.78179 3.70202
# Velocity P-wave (km/s) = 7.39139 7.61330 7.50317
#
# Compressibility (1/GPa) = 0.01356368
#
# Stress axis : x y z
#
# Youngs Moduli (GPa) = 84.39646 90.82629 72.48093
#
# Poissons Ratio (x) = 0.34484 0.45228
# Poissons Ratio (y) = 0.32043 0.10939
# Poissons Ratio (z) = 0.52664 0.13708
#
# Static dielectric constant tensor:
#      x y z
#    x 4.761710 0.000000 0.000000 
#    y 0.000000 3.549440 0.000000 
#    z 0.000000 0.000000 3.434790 
# 
# 
# High freq. dielectric constant tensor:
#      x y z
#    x 1.794010 0.000000 0.000000 
#    y 0.000000 1.769820 0.000000 
#    z 0.000000 0.000000 1.764580 
# 
# From -- ./inp_files/7112.got.cif
#   From: 2010.03.12/outbox.cif.g09.slc.cpg/sg42_4_cif.got.tgz:7112.got - 2010.04.14 02:04:31.
