data_PCOD8186557
_publ_section_title
;
Structure prediction by ZEFSAII (Michael W. Deem and Ramdas Pophale) SiO2 
 PCOD8186557
Probable space group: F M M 2
;
_chemical_formula_sum "Si O2"
_cell_formula_units_Z 104
_cell_length_a 10.360888
_cell_length_b 14.212884
_cell_length_c 33.617217
_cell_angle_alpha 90.000000
_cell_angle_beta 90.000000
_cell_angle_gamma 90.000000
_cell_volume 4950.407479
_symmetry_space_group_name_H-M "F M M 2"
_symmetry_group_IT_number 42
_symmetry_cell_setting 'orthorhombic'
loop_
_space_group_symop_operation_xyz
x,y,z
-x,-y,z
-x,y,z
x,-y,z
x,1/2+y,1/2+z
-x,1/2-y,1/2+z
-x,1/2+y,1/2+z
x,1/2-y,1/2+z
1/2+x,y,1/2+z
1/2-x,-y,1/2+z
1/2-x,y,1/2+z
1/2+x,-y,1/2+z
1/2+x,1/2+y,z
1/2-x,1/2-y,z
1/2-x,1/2+y,z
1/2+x,1/2-y,z
loop_
_atom_site_type_symbol
_atom_site_label
_atom_site_fract_x
_atom_site_fract_y
_atom_site_fract_z
Si Si1 0.356136 0.388608 0.005960
Si Si2 0.645985 0.670374 0.648814
Si Si3 0.859313 0.607359 0.235471
Si Si4 0.859602 0.606828 0.062963
Si Si5 0.250000 0.250000 0.858471
Si Si6 0.649193 0.602696 0.918823
Si Si7 0.645789 0.890476 0.796095
O O1 0.500000 0.345274 0.012667
O O2 0.365596 0.500000 0.011624
O O3 0.256191 0.343600 0.038197
O O4 0.297380 0.365156 0.962077
O O5 0.500000 0.711185 0.649860
O O6 0.750000 0.750000 0.645908
O O7 0.674691 0.612888 0.688971
O O8 0.667582 0.606137 0.610228
O O9 0.870968 0.500000 0.247573
O O10 0.744012 0.649289 0.262343
O O11 0.000000 0.655463 0.244783
O O12 0.866659 0.500000 0.048636
O O13 0.000000 0.654706 0.054150
O O14 0.334862 0.317863 0.885769
O O15 0.340395 0.179928 0.833267
O O16 0.500000 0.586478 0.925993
O O17 0.708937 0.500000 0.906121
O O18 0.500000 0.882373 0.779666
O O19 0.674234 0.000000 0.807852
#
# Coordination Sequence:
#
# PCOD8186557 Si02
#       7
#    16  16  16  16   8  16  16
#     4   8  15  31  55  80 107 142 185 230 275 327
#     4  10  21  35  52  79 113 147 183 226 272 323
#     4   9  19  38  62  83 105 143 191 232 275 333
#     4   9  17  32  55  80 107 142 185 230 274 321
#     4  12  22  36  60  88 114 150 192 236 288 354
#     4   9  19  37  59  83 113 150 193 239 285 341
#     4  10  23  41  59  85 121 153 186 238 297 347
#
# _framework density 21.008372000000001
#
# number of rings (size 3 to 8) (size 9 to 14) (size 15 to 20)
#    0.000    2.615    0.000    2.308    1.077    4.308 
#    1.385    3.077    0.000    8.308    0.000    0.000 
#    0.000    0.000    0.000    0.000    0.000    0.000 
#
# Total GULP energy -322089.579953 kJ/mol
# GULP energy per Si atom -12388.060767 kJ/mol
# Density = 2.096056 g / cm^3
# Si number density = 21.008372 Si / 1000 Ang^3
#
#
#
# Elastic Constant Matrix: (Units=GPa)
#
#
# Indices 1 2 3 4 5 6 
#
# 1 127.1917 33.9834 77.0118 0.0000 0.0000 0.0000
# 2 33.9834 62.9844 37.2568 0.0000 0.0000 0.0000
# 3 77.0118 37.2568 151.7075 0.0000 0.0000 0.0000
# 4 0.0000 0.0000 0.0000 4.5022 0.0000 0.0000
# 5 0.0000 0.0000 0.0000 0.0000 30.0951 0.0000
# 6 0.0000 0.0000 0.0000 0.0000 0.0000 15.6634
#
#
#
# Elastic Compliance Matrix: (Units=1/GPa)
#
#
# Indices 1 2 3 4 5 6 
#
# 1 0.011922 -0.003337 -0.005232 0.000000 0.000000 0.000000
# 2 -0.003337 0.019510 -0.003097 0.000000 0.000000 0.000000
# 3 -0.005232 -0.003097 0.010008 0.000000 0.000000 0.000000
# 4 0.000000 0.000000 0.000000 0.222114 0.000000 0.000000
# 5 0.000000 0.000000 0.000000 0.000000 0.033228 0.000000
# 6 0.000000 0.000000 0.000000 0.000000 0.000000 0.063843
#
#
# Mechanical properties :
#
#
# Convention : Reuss Voigt Hill
#
# Bulk Modulus (GPa) = 55.22957 70.93195 63.08076
# Shear Modulus (GPa) = 12.82072 22.96092 17.89082
#
# Velocity S-wave (km/s) = 2.47304 3.30955 2.92139
# Velocity P-wave (km/s) = 5.87375 6.95997 6.43980
#
# Compressibility (1/GPa) = 0.01810624
#
# Stress axis : x y z
#
# Youngs Moduli (GPa) = 83.87905 51.25667 99.91678
#
# Poissons Ratio (x) = 0.17107 0.52280
# Poissons Ratio (y) = 0.27994 0.30945
# Poissons Ratio (z) = 0.43888 0.15874
#
# Static dielectric constant tensor:
#      x y z
#    x 4.051750 0.000000 0.000000 
#    y 0.000000 3.585260 0.000000 
#    z 0.000000 0.000000 4.252950 
# 
# 
# High freq. dielectric constant tensor:
#      x y z
#    x 1.818960 0.000000 0.000000 
#    y 0.000000 1.807090 0.000000 
#    z 0.000000 0.000000 1.822970 
# 
# From -- ./inp_files/34180.got.cif
#   From: 2010.03.12/outbox.cif.g09.slc.cpg/sg42_18_cif.got.tgz:34180.got - 2010.04.14 02:04:31.
