data_PCOD8186456
_publ_section_title
;
Structure prediction by ZEFSAII (Michael W. Deem and Ramdas Pophale) SiO2 
 PCOD8186456
Probable space group: F M M 2
;
_chemical_formula_sum "Si O2"
_cell_formula_units_Z 112
_cell_length_a 14.993796
_cell_length_b 14.879940
_cell_length_c 22.234896
_cell_angle_alpha 90.000000
_cell_angle_beta 90.000000
_cell_angle_gamma 90.000000
_cell_volume 4960.756158
_symmetry_space_group_name_H-M "F M M 2"
_symmetry_group_IT_number 42
_symmetry_cell_setting 'orthorhombic'
loop_
_space_group_symop_operation_xyz
x,y,z
-x,-y,z
-x,y,z
x,-y,z
x,1/2+y,1/2+z
-x,1/2-y,1/2+z
-x,1/2+y,1/2+z
x,1/2-y,1/2+z
1/2+x,y,1/2+z
1/2-x,-y,1/2+z
1/2-x,y,1/2+z
1/2+x,-y,1/2+z
1/2+x,1/2+y,z
1/2-x,1/2-y,z
1/2-x,1/2+y,z
1/2+x,1/2-y,z
loop_
_atom_site_type_symbol
_atom_site_label
_atom_site_fract_x
_atom_site_fract_y
_atom_site_fract_z
Si Si1 0.399537 0.842068 0.120080
Si Si2 0.767841 0.854870 0.719511
Si Si3 0.653708 0.269103 0.923408
Si Si4 0.098317 0.899257 0.822529
Si Si5 0.898166 0.901412 0.018944
Si Si6 0.900363 0.366318 0.651315
Si Si7 0.602701 0.598904 0.490909
O O1 0.500000 0.880338 0.126867
O O2 0.333579 0.889044 0.166996
O O3 0.397608 0.738185 0.136406
O O4 0.359791 0.860756 0.053617
O O5 0.750000 0.750000 0.723817
O O6 0.815395 0.887476 0.780224
O O7 0.669630 0.895987 0.703815
O O8 0.750000 0.250000 0.895799
O O9 0.597291 0.325003 0.875153
O O10 0.662971 0.329566 0.983938
O O11 0.614066 0.170635 0.937268
O O12 0.000000 0.887420 0.790684
O O13 0.104763 0.000000 0.849617
O O14 0.872509 0.912415 0.088775
O O15 0.000000 0.865585 0.013460
O O16 0.887841 0.000000 0.989305
O O17 0.000000 0.395600 0.672185
O O18 0.500000 0.582397 0.500571
O O19 0.646752 0.500000 0.476728
#
# Coordination Sequence:
#
# PCOD8186456 Si02
#       7
#    16  16  16  16  16  16  16
#     4   9  17  32  55  86 130 177 217 262 320 385
#     4  10  21  37  62  94 131 173 218 270 322 389
#     4  12  25  40  63  91 130 171 212 276 330 390
#     4  11  25  46  70  94 124 173 232 283 333 388
#     4  10  20  36  61  92 127 173 222 265 317 382
#     4   9  18  33  57  92 136 178 214 260 324 394
#     4  10  21  37  60  92 129 168 210 261 329 398
#
# _framework density 22.577203999999998
#
# number of rings (size 3 to 8) (size 9 to 14) (size 15 to 20)
#    0.000    1.857    1.429    2.571    2.000    4.000 
#    0.000    1.429    0.000    0.000    0.000    0.000 
#    0.000    0.000    0.000    0.000    0.000    0.000 
#
# Total GULP energy -346877.802498 kJ/mol
# GULP energy per Si atom -12388.492946 kJ/mol
# Density = 2.252582 g / cm^3
# Si number density = 22.577204 Si / 1000 Ang^3
#
#
#
# Elastic Constant Matrix: (Units=GPa)
#
#
# Indices 1 2 3 4 5 6 
#
# 1 114.9825 39.5588 47.3290 0.0000 0.0000 0.0000
# 2 39.5588 103.4435 46.0117 0.0000 0.0000 0.0000
# 3 47.3290 46.0117 99.3774 0.0000 0.0000 0.0000
# 4 0.0000 0.0000 0.0000 7.8474 0.0000 0.0000
# 5 0.0000 0.0000 0.0000 0.0000 35.8393 0.0000
# 6 0.0000 0.0000 0.0000 0.0000 0.0000 10.1649
#
#
#
# Elastic Compliance Matrix: (Units=1/GPa)
#
#
# Indices 1 2 3 4 5 6 
#
# 1 0.011280 -0.002423 -0.004250 0.000000 0.000000 0.000000
# 2 -0.002423 0.012695 -0.004724 0.000000 0.000000 0.000000
# 3 -0.004250 -0.004724 0.014274 0.000000 0.000000 0.000000
# 4 0.000000 0.000000 0.000000 0.127430 0.000000 0.000000
# 5 0.000000 0.000000 0.000000 0.000000 0.027902 0.000000
# 6 0.000000 0.000000 0.000000 0.000000 0.000000 0.098378
#
#
# Mechanical properties :
#
#
# Convention : Reuss Voigt Hill
#
# Bulk Modulus (GPa) = 64.70546 64.84470 64.77508
# Shear Modulus (GPa) = 15.62962 23.09725 19.36343
#
# Velocity S-wave (km/s) = 2.63397 3.20196 2.93175
# Velocity P-wave (km/s) = 6.16216 6.51565 6.34137
#
# Compressibility (1/GPa) = 0.01545465
#
# Stress axis : x y z
#
# Youngs Moduli (GPa) = 88.65115 78.77183 70.05781
#
# Poissons Ratio (x) = 0.19088 0.29777
# Poissons Ratio (y) = 0.21482 0.33093
# Poissons Ratio (z) = 0.37679 0.37209
#
# Static dielectric constant tensor:
#      x y z
#    x 4.411410 0.000000 0.000000 
#    y 0.000000 4.296800 0.000000 
#    z 0.000000 0.000000 3.768930 
# 
# 
# High freq. dielectric constant tensor:
#      x y z
#    x 1.890740 0.000000 0.000000 
#    y 0.000000 1.893760 0.000000 
#    z 0.000000 0.000000 1.853340 
# 
# From -- ./inp_files/29518.got.cif
#   From: 2010.03.12/outbox.cif.g09.slc.cpg/sg42_15_cif.got.tgz:29518.got - 2010.04.14 02:04:31.
