data_PCOD8186029
_publ_section_title
;
Structure prediction by ZEFSAII (Michael W. Deem and Ramdas Pophale) SiO2 
 PCOD8186029
Probable space group: F M M 2
;
_chemical_formula_sum "Si O2"
_cell_formula_units_Z 112
_cell_length_a 34.637109
_cell_length_b 13.266229
_cell_length_c 13.977980
_cell_angle_alpha 90.000000
_cell_angle_beta 90.000000
_cell_angle_gamma 90.000000
_cell_volume 6422.935204
_symmetry_space_group_name_H-M "F M M 2"
_symmetry_group_IT_number 42
_symmetry_cell_setting 'orthorhombic'
loop_
_space_group_symop_operation_xyz
x,y,z
-x,-y,z
-x,y,z
x,-y,z
x,1/2+y,1/2+z
-x,1/2-y,1/2+z
-x,1/2+y,1/2+z
x,1/2-y,1/2+z
1/2+x,y,1/2+z
1/2-x,-y,1/2+z
1/2-x,y,1/2+z
1/2+x,-y,1/2+z
1/2+x,1/2+y,z
1/2-x,1/2-y,z
1/2-x,1/2+y,z
1/2+x,1/2-y,z
loop_
_atom_site_type_symbol
_atom_site_label
_atom_site_fract_x
_atom_site_fract_y
_atom_site_fract_z
Si Si1 0.045109 0.113835 0.992340
Si Si2 0.092877 0.750000 0.631419
Si Si3 0.295026 0.754258 0.491289
Si Si4 0.662864 0.116867 0.650208
Si Si5 0.454891 0.613835 0.770498
Si Si6 0.837136 0.383133 0.112630
Si Si7 0.795026 0.754258 0.771550
O O1 0.054884 0.129288 0.881419
O O2 0.000000 0.127220 0.011966
O O3 0.057738 0.000000 0.023457
O O4 0.066819 0.202131 0.048582
O O5 0.120143 0.660342 0.670019
O O6 0.066819 0.797869 0.714256
O O7 0.120143 0.839657 0.592820
O O8 0.250000 0.750000 0.514346
O O9 0.317369 0.836087 0.555464
O O10 0.311401 0.643952 0.519669
O O11 0.303315 0.780055 0.381419
O O12 0.688599 0.143952 0.743170
O O13 0.660169 0.000000 0.633920
O O14 0.500000 0.627220 0.750873
O O15 0.442262 0.500000 0.739382
O O16 0.839831 0.500000 0.128919
O O17 0.817369 0.336088 0.207375
O O18 0.750000 0.750000 0.748493
#
# Coordination Sequence:
#
# PCOD8186029 Si02
#       7
#    16  16  16  16  16  16  16
#     4   9  18  33  54  78 100 126 164 205 243 288
#     4  10  19  32  51  74 102 134 162 198 245 292
#     4   9  19  35  53  73  97 127 165 208 252 294
#     4  10  21  34  49  73 102 131 165 203 243 292
#     4   9  18  33  54  78 100 126 164 205 243 288
#     4  10  21  34  49  73 102 131 165 203 243 292
#     4   9  19  35  53  73  97 127 165 208 252 294
#
# _framework density 17.437511000000001
#
# number of rings (size 3 to 8) (size 9 to 14) (size 15 to 20)
#    0.000    2.857    0.000    3.857    0.000    8.000 
#    0.000    2.857    0.000    2.571    0.000   10.000 
#    0.000    0.000    0.000    0.000    0.000    0.000 
#
# Total GULP energy -346974.577565 kJ/mol
# GULP energy per Si atom -12391.949199 kJ/mol
# Density = 1.739782 g / cm^3
# Si number density = 17.437511 Si / 1000 Ang^3
#
#
#
# Elastic Constant Matrix: (Units=GPa)
#
#
# Indices 1 2 3 4 5 6 
#
# 1 103.1413 60.8236 66.5126 0.0000 0.0000 0.0000
# 2 60.8236 141.5792 63.6328 0.0000 0.0000 0.0000
# 3 66.5126 63.6328 78.0333 0.0000 0.0000 0.0000
# 4 0.0000 0.0000 0.0000 20.7706 0.0000 0.0000
# 5 0.0000 0.0000 0.0000 0.0000 -12.0967 0.0000
# 6 0.0000 0.0000 0.0000 0.0000 0.0000 16.9348
#
#
#
# Elastic Compliance Matrix: (Units=1/GPa)
#
#
# Indices 1 2 3 4 5 6 
#
# 1 0.021756 -0.001597 -0.017241 0.000000 0.000000 0.000000
# 2 -0.001597 0.011267 -0.007826 0.000000 0.000000 0.000000
# 3 -0.017241 -0.007826 0.033893 0.000000 0.000000 0.000000
# 4 0.000000 0.000000 0.000000 0.048145 0.000000 0.000000
# 5 0.000000 0.000000 0.000000 0.000000 -0.082667 0.000000
# 6 0.000000 0.000000 0.000000 0.000000 0.000000 0.059050
#
#
# Mechanical properties :
#
#
# Convention : Reuss Voigt Hill
#
# Bulk Modulus (GPa) = 73.60565 78.29908 75.95237
# Shear Modulus (GPa) = 33.48944 13.90739 23.69842
#
# Velocity S-wave (km/s) = 4.38715 2.82717 3.69053
# Velocity P-wave (km/s) = 8.24412 7.46038 7.86202
#
# Compressibility (1/GPa) = 0.01358591
#
# Stress axis : x y z
#
# Youngs Moduli (GPa) = 45.96500 88.75563 29.50500
#
# Poissons Ratio (x) = 0.14178 0.50870
# Poissons Ratio (y) = 0.07342 0.23091
# Poissons Ratio (z) = 0.79249 0.69461
#
# Static dielectric constant tensor:
#      x y z
#    x 3.385390 0.000000 0.000000 
#    y 0.000000 3.226380 0.000000 
#    z 0.000000 0.000000 3.170520 
# 
# 
# High freq. dielectric constant tensor:
#      x y z
#    x 1.687970 0.000000 0.000000 
#    y 0.000000 1.666270 0.000000 
#    z 0.000000 0.000000 1.664680 
# 
# From -- ./inp_files/17401.got.cif
#   From: 2010.03.12/outbox.cif.g09.slc.cpg/sg42_9_cif.got.tgz:17401.got - 2010.04.14 02:04:31.
