data_PCOD8186757
_publ_section_title
;
Structure prediction by ZEFSAII (Michael W. Deem and Ramdas Pophale) SiO2 
 PCOD8186757
Probable space group: F M M 2
;
_chemical_formula_sum "Si O2"
_cell_formula_units_Z 112
_cell_length_a 23.339138
_cell_length_b 17.434178
_cell_length_c 13.479749
_cell_angle_alpha 90.000000
_cell_angle_beta 90.000000
_cell_angle_gamma 90.000000
_cell_volume 5484.892159
_symmetry_space_group_name_H-M "F M M 2"
_symmetry_group_IT_number 42
_symmetry_cell_setting 'orthorhombic'
loop_
_space_group_symop_operation_xyz
x,y,z
-x,-y,z
-x,y,z
x,-y,z
x,1/2+y,1/2+z
-x,1/2-y,1/2+z
-x,1/2+y,1/2+z
x,1/2-y,1/2+z
1/2+x,y,1/2+z
1/2-x,-y,1/2+z
1/2-x,y,1/2+z
1/2+x,-y,1/2+z
1/2+x,1/2+y,z
1/2-x,1/2-y,z
1/2-x,1/2+y,z
1/2+x,1/2-y,z
loop_
_atom_site_type_symbol
_atom_site_label
_atom_site_fract_x
_atom_site_fract_y
_atom_site_fract_z
Si Si1 0.565264 0.410367 0.293060
Si Si2 0.170051 0.088020 0.767935
Si Si3 0.934978 0.088460 0.636155
Si Si4 0.262155 0.587185 0.571465
Si Si5 0.335440 0.327979 0.967109
Si Si6 0.865005 0.346605 0.966326
Si Si7 0.565788 0.587964 0.065829
O O1 0.500000 0.388201 0.320647
O O2 0.574770 0.500000 0.312550
O O3 0.610056 0.362275 0.357595
O O4 0.577913 0.389130 0.179415
O O5 0.105071 0.103369 0.731240
O O6 0.214360 0.107994 0.680416
O O7 0.184413 0.143008 0.859322
O O8 0.177076 0.000000 0.801981
O O9 0.916290 0.142764 0.545362
O O10 0.000000 0.108505 0.666331
O O11 0.928985 0.000000 0.601193
O O12 0.239896 0.500000 0.567199
O O13 0.209644 0.643465 0.549129
O O14 0.313550 0.595360 0.492078
O O15 0.337417 0.237043 0.969663
O O16 0.398031 0.360064 0.991878
O O17 0.500000 0.602034 0.038857
O O18 0.582750 0.500000 0.048106
#
# Coordination Sequence:
#
# PCOD8186757 Si02
#       7
#    16  16  16  16  16  16  16
#     4   9  18  35  59  85 115 154 199 239 272 320
#     4   9  20  39  62  87 112 145 195 242 278 333
#     4   9  18  36  62  87 114 153 198 239 275 320
#     4  10  22  42  63  80 105 146 197 243 280 333
#     4  12  24  38  58  86 121 152 179 230 301 355
#     4  11  22  35  55  89 120 147 183 234 295 345
#     4   9  20  38  58  82 114 156 203 239 270 325
#
# _framework density 20.419727999999999
#
# number of rings (size 3 to 8) (size 9 to 14) (size 15 to 20)
#    0.000    2.143    0.000    5.143    0.000    6.286 
#    0.000    7.143    0.000    0.000    0.000    0.000 
#    0.000    0.000    0.000    0.000    0.000    0.000 
#
# Total GULP energy -347298.240608 kJ/mol
# GULP energy per Si atom -12403.508593 kJ/mol
# Density = 2.037325 g / cm^3
# Si number density = 20.419728 Si / 1000 Ang^3
#
#
#
# Elastic Constant Matrix: (Units=GPa)
#
#
# Indices 1 2 3 4 5 6 
#
# 1 84.5140 34.4193 32.5074 0.0000 0.0000 0.0000
# 2 34.4193 86.9991 42.3650 0.0000 0.0000 0.0000
# 3 32.5074 42.3650 86.3588 0.0000 0.0000 0.0000
# 4 0.0000 0.0000 0.0000 19.4321 0.0000 0.0000
# 5 0.0000 0.0000 0.0000 0.0000 30.6071 0.0000
# 6 0.0000 0.0000 0.0000 0.0000 0.0000 29.0918
#
#
#
# Elastic Compliance Matrix: (Units=1/GPa)
#
#
# Indices 1 2 3 4 5 6 
#
# 1 0.014898 -0.004156 -0.003569 0.000000 0.000000 0.000000
# 2 -0.004156 0.016261 -0.006413 0.000000 0.000000 0.000000
# 3 -0.003569 -0.006413 0.016069 0.000000 0.000000 0.000000
# 4 0.000000 0.000000 0.000000 0.051461 0.000000 0.000000
# 5 0.000000 0.000000 0.000000 0.000000 0.032672 0.000000
# 6 0.000000 0.000000 0.000000 0.000000 0.000000 0.034374
#
#
# Mechanical properties :
#
#
# Convention : Reuss Voigt Hill
#
# Bulk Modulus (GPa) = 52.76414 52.93947 52.85181
# Shear Modulus (GPa) = 24.95894 25.73154 25.34524
#
# Velocity S-wave (km/s) = 3.49993 3.55368 3.52691
# Velocity P-wave (km/s) = 6.49835 6.54371 6.52107
#
# Compressibility (1/GPa) = 0.01895227
#
# Stress axis : x y z
#
# Youngs Moduli (GPa) = 67.12439 61.49520 62.23138
#
# Poissons Ratio (x) = 0.25557 0.22211
# Poissons Ratio (y) = 0.27897 0.39909
# Poissons Ratio (z) = 0.23957 0.39437
#
# Static dielectric constant tensor:
#      x y z
#    x 3.733210 0.000000 0.000000 
#    y 0.000000 3.491220 0.000000 
#    z 0.000000 0.000000 3.567930 
# 
# 
# High freq. dielectric constant tensor:
#      x y z
#    x 1.805040 0.000000 0.000000 
#    y 0.000000 1.780980 0.000000 
#    z 0.000000 0.000000 1.792630 
# 
# From -- ./inp_files/16569.got.cif
#   From: 2010.03.12/outbox.cif.g09.slc.cpg/sg42_9_cif.got.tgz:16569.got - 2010.04.14 02:04:31.
