data_PCOD8186729
_publ_section_title
;
Structure prediction by ZEFSAII (Michael W. Deem and Ramdas Pophale) SiO2 
 PCOD8186729
Probable space group: F M M 2
;
_chemical_formula_sum "Si O2"
_cell_formula_units_Z 72
_cell_length_a 10.290225
_cell_length_b 24.513164
_cell_length_c 14.326024
_cell_angle_alpha 90.000000
_cell_angle_beta 90.000000
_cell_angle_gamma 90.000000
_cell_volume 3613.681863
_symmetry_space_group_name_H-M "F M M 2"
_symmetry_group_IT_number 42
_symmetry_cell_setting 'orthorhombic'
loop_
_space_group_symop_operation_xyz
x,y,z
-x,-y,z
-x,y,z
x,-y,z
x,1/2+y,1/2+z
-x,1/2-y,1/2+z
-x,1/2+y,1/2+z
x,1/2-y,1/2+z
1/2+x,y,1/2+z
1/2-x,-y,1/2+z
1/2-x,y,1/2+z
1/2+x,-y,1/2+z
1/2+x,1/2+y,z
1/2-x,1/2-y,z
1/2-x,1/2+y,z
1/2+x,1/2-y,z
loop_
_atom_site_type_symbol
_atom_site_label
_atom_site_fract_x
_atom_site_fract_y
_atom_site_fract_z
Si Si1 0.500000 0.255514 0.448570
Si Si2 0.642638 0.859822 0.912754
Si Si3 0.346171 0.560650 0.571766
Si Si4 0.500000 0.308957 0.141670
Si Si5 0.254216 0.361565 0.714019
Si Si6 0.500000 0.706624 0.755166
O O1 0.627555 0.295451 0.441576
O O2 0.500000 0.223743 0.545363
O O3 0.500000 0.208351 0.368497
O O4 0.500000 0.883795 0.888452
O O5 0.731110 0.868140 0.823349
O O6 0.705633 0.895561 0.995727
O O7 0.500000 0.559989 0.572616
O O8 0.291358 0.500000 0.551045
O O9 0.296907 0.580053 0.673105
O O10 0.630554 0.343913 0.152462
O O11 0.500000 0.270119 0.231205
O O12 0.373843 0.319511 0.706542
#
# Coordination Sequence:
#
# PCOD8186729 Si02
#       6
#     8  16  16   8  16   8
#     4  10  22  40  58  95 124 183 198 256 305 383
#     4   9  20  42  60  91 128 162 218 252 308 388
#     4  10  22  43  67  89 121 168 215 267 326 377
#     4  12  24  40  63  89 137 167 211 256 309 363
#     4  12  23  42  63  96 128 166 213 267 306 386
#     4  12  24  40  58  96 132 174 207 242 314 380
#
# _framework density 19.924277
#
# number of rings (size 3 to 8) (size 9 to 14) (size 15 to 20)
#    0.667    0.667    4.444    2.000    3.111    0.889 
#    0.000    0.556    0.000    0.000    0.000    0.000 
#    0.000    0.000    0.000    0.000    0.000    0.000 
#
# Total GULP energy -223106.720333 kJ/mol
# GULP energy per Si atom -12394.817796 kJ/mol
# Density = 1.987893 g / cm^3
# Si number density = 19.924277 Si / 1000 Ang^3
#
#
#
# Elastic Constant Matrix: (Units=GPa)
#
#
# Indices 1 2 3 4 5 6 
#
# 1 69.5410 34.3738 26.4982 0.0000 0.0000 0.0000
# 2 34.3738 104.7620 45.1309 0.0000 0.0000 0.0000
# 3 26.4982 45.1309 112.2993 0.0000 0.0000 0.0000
# 4 0.0000 0.0000 0.0000 29.7859 0.0000 0.0000
# 5 0.0000 0.0000 0.0000 0.0000 29.3464 0.0000
# 6 0.0000 0.0000 0.0000 0.0000 0.0000 20.2580
#
#
#
# Elastic Compliance Matrix: (Units=1/GPa)
#
#
# Indices 1 2 3 4 5 6 
#
# 1 0.017608 -0.004823 -0.002217 0.000000 0.000000 0.000000
# 2 -0.004823 0.012865 -0.004032 0.000000 0.000000 0.000000
# 3 -0.002217 -0.004032 0.011048 0.000000 0.000000 0.000000
# 4 0.000000 0.000000 0.000000 0.033573 0.000000 0.000000
# 5 0.000000 0.000000 0.000000 0.000000 0.034076 0.000000
# 6 0.000000 0.000000 0.000000 0.000000 0.000000 0.049363
#
#
# Mechanical properties :
#
#
# Convention : Reuss Voigt Hill
#
# Bulk Modulus (GPa) = 51.60364 55.40091 53.50227
# Shear Modulus (GPa) = 26.71850 27.91802 27.31826
#
# Velocity S-wave (km/s) = 3.66594 3.74733 3.70686
# Velocity P-wave (km/s) = 6.62382 6.82564 6.72549
#
# Compressibility (1/GPa) = 0.01937848
#
# Stress axis : x y z
#
# Youngs Moduli (GPa) = 56.79076 77.73110 90.51150
#
# Poissons Ratio (x) = 0.37487 0.20065
# Poissons Ratio (y) = 0.27388 0.36496
# Poissons Ratio (z) = 0.12589 0.31343
#
# Static dielectric constant tensor:
#      x y z
#    x 3.507190 0.000000 0.000000 
#    y 0.000000 3.639330 0.000000 
#    z 0.000000 0.000000 3.580890 
# 
# 
# High freq. dielectric constant tensor:
#      x y z
#    x 1.762020 0.000000 0.000000 
#    y 0.000000 1.755350 0.000000 
#    z 0.000000 0.000000 1.787100 
# 
# From -- ./inp_files/12793.got.cif
#   From: 2010.03.12/outbox.cif.g09.slc.cpg/sg42_7_cif.got.tgz:12793.got - 2010.04.14 02:04:31.
