data_PCOD8186073
_publ_section_title
;
Structure prediction by ZEFSAII (Michael W. Deem and Ramdas Pophale) SiO2 
 PCOD8186073
Probable space group: F M M 2
;
_chemical_formula_sum "Si O2"
_cell_formula_units_Z 80
_cell_length_a 17.821019
_cell_length_b 15.839046
_cell_length_c 15.392473
_cell_angle_alpha 90.000000
_cell_angle_beta 90.000000
_cell_angle_gamma 90.000000
_cell_volume 4344.801641
_symmetry_space_group_name_H-M "F M M 2"
_symmetry_group_IT_number 42
_symmetry_cell_setting 'orthorhombic'
loop_
_space_group_symop_operation_xyz
x,y,z
-x,-y,z
-x,y,z
x,-y,z
x,1/2+y,1/2+z
-x,1/2-y,1/2+z
-x,1/2+y,1/2+z
x,1/2-y,1/2+z
1/2+x,y,1/2+z
1/2-x,-y,1/2+z
1/2-x,y,1/2+z
1/2+x,-y,1/2+z
1/2+x,1/2+y,z
1/2-x,1/2-y,z
1/2-x,1/2+y,z
1/2+x,1/2-y,z
loop_
_atom_site_type_symbol
_atom_site_label
_atom_site_fract_x
_atom_site_fract_y
_atom_site_fract_z
Si Si1 0.804331 0.096459 0.904720
Si Si2 0.581915 0.096481 0.658877
Si Si3 0.084430 0.285395 0.493289
Si Si4 0.240952 0.402083 0.721187
Si Si5 0.295933 0.666909 0.543642
O O1 0.872077 0.161776 0.919748
O O2 0.769744 0.128431 0.814026
O O3 0.833840 0.000000 0.898309
O O4 0.740024 0.096938 0.979828
O O5 0.500000 0.109284 0.705008
O O6 0.588159 0.156528 0.577396
O O7 0.651686 0.119149 0.720963
O O8 0.589617 0.000000 0.625917
O O9 0.119059 0.192804 0.516964
O O10 0.000000 0.269435 0.461077
O O11 0.255375 0.500000 0.707563
O O12 0.287960 0.357225 0.644605
O O13 0.250000 0.750000 0.522951
#
# Coordination Sequence:
#
# PCOD8186073 Si02
#       5
#    16  16  16  16  16
#     4  10  20  34  56  83 106 141 187 227 267 318
#     4   9  16  29  52  80 107 136 176 226 275 317
#     4  10  20  35  53  79 110 142 178 224 276 321
#     4  10  19  33  55  80 108 144 186 227 269 323
#     4  10  19  33  52  76 110 143 175 222 270 328
#
# _framework density 18.412807999999998
#
# number of rings (size 3 to 8) (size 9 to 14) (size 15 to 20)
#    0.000    2.200    4.000    1.200    0.000    3.600 
#    0.000    2.000    0.000    4.800    0.000    0.000 
#    0.000    0.000    0.000    0.000    0.000    0.000 
#
# Total GULP energy -247836.104670 kJ/mol
# GULP energy per Si atom -12391.805233 kJ/mol
# Density = 1.837090 g / cm^3
# Si number density = 18.412808 Si / 1000 Ang^3
#
#
#
# Elastic Constant Matrix: (Units=GPa)
#
#
# Indices 1 2 3 4 5 6 
#
# 1 152.1662 39.2008 55.4134 0.0000 0.0000 0.0000
# 2 39.2008 40.0607 16.5801 0.0000 0.0000 0.0000
# 3 55.4134 16.5801 108.0790 0.0000 0.0000 0.0000
# 4 0.0000 0.0000 0.0000 20.8664 0.0000 0.0000
# 5 0.0000 0.0000 0.0000 0.0000 27.1018 0.0000
# 6 0.0000 0.0000 0.0000 0.0000 0.0000 25.5883
#
#
#
# Elastic Compliance Matrix: (Units=1/GPa)
#
#
# Indices 1 2 3 4 5 6 
#
# 1 0.010139 -0.008296 -0.003925 0.000000 0.000000 0.000000
# 2 -0.008296 0.033443 -0.000877 0.000000 0.000000 0.000000
# 3 -0.003925 -0.000877 0.011400 0.000000 0.000000 0.000000
# 4 0.000000 0.000000 0.000000 0.047924 0.000000 0.000000
# 5 0.000000 0.000000 0.000000 0.000000 0.036898 0.000000
# 6 0.000000 0.000000 0.000000 0.000000 0.000000 0.039080
#
#
# Mechanical properties :
#
#
# Convention : Reuss Voigt Hill
#
# Bulk Modulus (GPa) = 34.74117 58.07715 46.40916
# Shear Modulus (GPa) = 23.29096 27.31873 25.30485
#
# Velocity S-wave (km/s) = 3.56045 3.85604 3.71119
# Velocity P-wave (km/s) = 5.98425 7.17186 6.60480
#
# Compressibility (1/GPa) = 0.02878429
#
# Stress axis : x y z
#
# Youngs Moduli (GPa) = 98.63361 29.90144 87.72218
#
# Poissons Ratio (x) = 0.24807 0.34435
# Poissons Ratio (y) = 0.81829 0.07692
# Poissons Ratio (z) = 0.38718 0.02622
#
# Static dielectric constant tensor:
#      x y z
#    x 4.046930 0.000000 0.000000 
#    y 0.000000 3.585340 0.000000 
#    z 0.000000 0.000000 3.283950 
# 
# 
# High freq. dielectric constant tensor:
#      x y z
#    x 1.708690 0.000000 0.000000 
#    y 0.000000 1.708390 0.000000 
#    z 0.000000 0.000000 1.696520 
# 
# From -- ./inp_files/13809.got.cif
#   From: 2010.03.12/outbox.cif.g09.slc.cpg/sg42_7_cif.got.tgz:13809.got - 2010.04.14 02:04:31.
