data_PCOD8186145
_publ_section_title
;
Structure prediction by ZEFSAII (Michael W. Deem and Ramdas Pophale) SiO2 
 PCOD8186145
Probable space group: F M M 2
;
_chemical_formula_sum "Si O2"
_cell_formula_units_Z 96
_cell_length_a 23.408325
_cell_length_b 15.193176
_cell_length_c 14.042775
_cell_angle_alpha 90.000000
_cell_angle_beta 90.000000
_cell_angle_gamma 90.000000
_cell_volume 4994.268014
_symmetry_space_group_name_H-M "F M M 2"
_symmetry_group_IT_number 42
_symmetry_cell_setting 'orthorhombic'
loop_
_space_group_symop_operation_xyz
x,y,z
-x,-y,z
-x,y,z
x,-y,z
x,1/2+y,1/2+z
-x,1/2-y,1/2+z
-x,1/2+y,1/2+z
x,1/2-y,1/2+z
1/2+x,y,1/2+z
1/2-x,-y,1/2+z
1/2-x,y,1/2+z
1/2+x,-y,1/2+z
1/2+x,1/2+y,z
1/2-x,1/2-y,z
1/2-x,1/2+y,z
1/2+x,1/2-y,z
loop_
_atom_site_type_symbol
_atom_site_label
_atom_site_fract_x
_atom_site_fract_y
_atom_site_fract_z
Si Si1 0.066382 0.401660 0.506470
Si Si2 0.566558 0.730869 0.396344
Si Si3 0.842261 0.100202 0.466519
Si Si4 0.720185 0.099264 0.783681
Si Si5 0.797387 0.313545 0.139342
Si Si6 0.613265 0.179097 0.695364
O O1 0.094556 0.500000 0.491579
O O2 0.087893 0.329454 0.428017
O O3 0.076052 0.366322 0.613574
O O4 0.000000 0.413647 0.491979
O O5 0.500000 0.719373 0.422147
O O6 0.601830 0.660809 0.459029
O O7 0.574958 0.710496 0.284623
O O8 0.794290 0.130816 0.390325
O O9 0.811237 0.106597 0.568444
O O10 0.861202 0.000000 0.447336
O O11 0.772049 0.155463 0.740668
O O12 0.661992 0.109364 0.723588
O O13 0.741127 0.000000 0.781054
O O14 0.750000 0.250000 0.090860
O O15 0.857238 0.266352 0.155641
#
# Coordination Sequence:
#
# PCOD8186145 Si02
#       6
#    16  16  16  16  16  16
#     4  10  20  36  59  86 115 150 196 244 290 346
#     4  10  21  37  59  84 116 150 188 241 298 348
#     4  10  20  36  58  83 115 150 188 234 285 346
#     4   9  19  34  52  79 111 144 186 232 277 331
#     4  10  20  34  55  79 112 151 186 231 281 340
#     4  10  19  35  57  83 110 147 189 237 287 342
#
# _framework density 19.222037
#
# number of rings (size 3 to 8) (size 9 to 14) (size 15 to 20)
#    0.000    2.167    1.667    1.500    0.000    4.333 
#    0.000    1.667    0.000    0.000    0.000    0.000 
#    0.000    0.000    0.000    0.000    0.000    0.000 
#
# Total GULP energy -297432.309178 kJ/mol
# GULP energy per Si atom -12393.012882 kJ/mol
# Density = 1.917829 g / cm^3
# Si number density = 19.222037 Si / 1000 Ang^3
#
#
#
# Elastic Constant Matrix: (Units=GPa)
#
#
# Indices 1 2 3 4 5 6 
#
# 1 56.2366 39.7781 28.7448 0.0000 0.0000 0.0000
# 2 39.7781 119.1177 42.8257 0.0000 0.0000 0.0000
# 3 28.7448 42.8257 81.2144 0.0000 0.0000 0.0000
# 4 0.0000 0.0000 0.0000 22.3397 0.0000 0.0000
# 5 0.0000 0.0000 0.0000 0.0000 20.4440 0.0000
# 6 0.0000 0.0000 0.0000 0.0000 0.0000 22.2728
#
#
#
# Elastic Compliance Matrix: (Units=1/GPa)
#
#
# Indices 1 2 3 4 5 6 
#
# 1 0.025136 -0.006411 -0.005516 0.000000 0.000000 0.000000
# 2 -0.006411 0.011994 -0.004056 0.000000 0.000000 0.000000
# 3 -0.005516 -0.004056 0.016404 0.000000 0.000000 0.000000
# 4 0.000000 0.000000 0.000000 0.044763 0.000000 0.000000
# 5 0.000000 0.000000 0.000000 0.000000 0.048914 0.000000
# 6 0.000000 0.000000 0.000000 0.000000 0.000000 0.044898
#
#
# Mechanical properties :
#
#
# Convention : Reuss Voigt Hill
#
# Bulk Modulus (GPa) = 46.36256 53.25178 49.80717
# Shear Modulus (GPa) = 21.62033 22.69265 22.15649
#
# Velocity S-wave (km/s) = 3.35739 3.43965 3.39877
# Velocity P-wave (km/s) = 6.26109 6.59837 6.43195
#
# Compressibility (1/GPa) = 0.02156913
#
# Stress axis : x y z
#
# Youngs Moduli (GPa) = 39.78348 83.37545 60.96063
#
# Poissons Ratio (x) = 0.53450 0.33627
# Poissons Ratio (y) = 0.25504 0.24723
# Poissons Ratio (z) = 0.21945 0.33814
#
# Static dielectric constant tensor:
#      x y z
#    x 3.266950 0.000000 0.000000 
#    y 0.000000 3.812070 0.000000 
#    z 0.000000 0.000000 3.574680 
# 
# 
# High freq. dielectric constant tensor:
#      x y z
#    x 1.730790 0.000000 0.000000 
#    y 0.000000 1.754180 0.000000 
#    z 0.000000 0.000000 1.745440 
# 
# From -- ./inp_files/13972.got.cif
#   From: 2010.03.12/outbox.cif.g09.slc.cpg/sg42_7_cif.got.tgz:13972.got - 2010.04.14 02:04:31.
