data_PCOD8186941
_publ_section_title
;
Structure prediction by ZEFSAII (Michael W. Deem and Ramdas Pophale) SiO2 
 PCOD8186941
Probable space group: F D D 2
;
_chemical_formula_sum "Si O2"
_cell_formula_units_Z 104
_cell_length_a 8.927597
_cell_length_b 24.010944
_cell_length_c 25.650354
_cell_angle_alpha 90.000000
_cell_angle_beta 90.000000
_cell_angle_gamma 90.000000
_cell_volume 5498.410695
_symmetry_space_group_name_H-M "F D D 2"
_symmetry_group_IT_number 43
_symmetry_cell_setting 'orthorhombic'
loop_
_space_group_symop_operation_xyz
x,y,z
-x,-y,z
1/4-x,1/4+y,1/4+z
1/4+x,1/4-y,1/4+z
x,1/2+y,1/2+z
-x,1/2-y,1/2+z
1/4-x,3/4+y,3/4+z
1/4+x,3/4-y,3/4+z
1/2+x,y,1/2+z
1/2-x,-y,1/2+z
3/4-x,1/4+y,3/4+z
3/4+x,1/4-y,3/4+z
1/2+x,1/2+y,z
1/2-x,1/2-y,z
3/4-x,3/4+y,1/4+z
3/4+x,3/4-y,1/4+z
loop_
_atom_site_type_symbol
_atom_site_label
_atom_site_fract_x
_atom_site_fract_y
_atom_site_fract_z
Si Si1 0.681195 0.873579 0.174410
Si Si2 0.217667 0.630813 0.312012
Si Si3 0.539686 0.935646 0.264931
Si Si4 0.202328 0.920695 0.872539
Si Si5 0.511060 0.224280 0.186765
Si Si6 0.000000 0.000000 0.516671
Si Si7 0.277701 0.813063 0.102618
O O1 0.598751 0.877667 0.119518
O O2 0.639142 0.923553 0.213283
O O3 0.859565 0.870583 0.161362
O O4 0.623926 0.816876 0.203296
O O5 0.247479 0.695185 0.301537
O O6 0.374344 0.596868 0.310491
O O7 0.109420 0.602889 0.268449
O O8 0.635430 0.921888 0.315295
O O9 0.500000 0.000000 0.262749
O O10 0.374963 0.903086 0.865199
O O11 0.190732 0.982128 0.896542
O O12 0.593762 0.253739 0.234906
O O13 0.640567 0.189015 0.158228
O O14 0.250000 0.750000 0.081292
#
# Coordination Sequence:
#
# PCOD8186941 Si02
#       7
#    16  16  16  16  16   8  16
#     4  10  21  36  55  84 119 153 193 241 298 361
#     4  10  23  37  58  86 117 156 199 244 296 360
#     4  11  21  36  57  84 115 156 199 240 295 357
#     4  10  19  35  58  86 118 145 196 250 292 346
#     4  10  18  36  60  84 109 148 198 244 283 349
#     4  12  20  36  62  88 114 150 204 242 294 360
#     4   9  17  35  60  82 114 146 192 246 290 342
#
# _framework density 18.914556999999999
#
# number of rings (size 3 to 8) (size 9 to 14) (size 15 to 20)
#    0.000    1.846    3.846    4.154    1.077    1.231 
#    0.000    0.000    0.000    0.000    0.000    0.000 
#    0.000    0.000    0.000    0.000    0.000    0.000 
#
# Total GULP energy -322237.463186 kJ/mol
# GULP energy per Si atom -12393.748584 kJ/mol
# Density = 1.887151 g / cm^3
# Si number density = 18.914557 Si / 1000 Ang^3
#
#
#
# Elastic Constant Matrix: (Units=GPa)
#
#
# Indices 1 2 3 4 5 6 
#
# 1 131.2621 40.6159 36.0703 0.0000 0.0000 0.0000
# 2 40.6159 85.4838 21.3505 0.0000 0.0000 0.0000
# 3 36.0703 21.3505 59.8063 0.0000 0.0000 0.0000
# 4 0.0000 0.0000 0.0000 28.8724 0.0000 0.0000
# 5 0.0000 0.0000 0.0000 0.0000 18.4591 0.0000
# 6 0.0000 0.0000 0.0000 0.0000 0.0000 25.9715
#
#
#
# Elastic Compliance Matrix: (Units=1/GPa)
#
#
# Indices 1 2 3 4 5 6 
#
# 1 0.010038 -0.003576 -0.004777 0.000000 0.000000 0.000000
# 2 -0.003576 0.014117 -0.002883 0.000000 0.000000 0.000000
# 3 -0.004777 -0.002883 0.020631 0.000000 0.000000 0.000000
# 4 0.000000 0.000000 0.000000 0.034635 0.000000 0.000000
# 5 0.000000 0.000000 0.000000 0.000000 0.054174 0.000000
# 6 0.000000 0.000000 0.000000 0.000000 0.000000 0.038504
#
#
# Mechanical properties :
#
#
# Convention : Reuss Voigt Hill
#
# Bulk Modulus (GPa) = 44.81605 52.51393 48.66499
# Shear Modulus (GPa) = 24.75135 26.56163 25.65649
#
# Velocity S-wave (km/s) = 3.62136 3.75146 3.68699
# Velocity P-wave (km/s) = 6.42114 6.82559 6.62645
#
# Compressibility (1/GPa) = 0.02231343
#
# Stress axis : x y z
#
# Youngs Moduli (GPa) = 99.62514 70.83531 48.47046
#
# Poissons Ratio (x) = 0.25331 0.23156
# Poissons Ratio (y) = 0.35626 0.13974
# Poissons Ratio (z) = 0.47594 0.20422
#
# Static dielectric constant tensor:
#      x y z
#    x 3.894190 0.000000 0.000000 
#    y 0.000000 3.314070 0.000000 
#    z 0.000000 0.000000 3.307600 
# 
# 
# High freq. dielectric constant tensor:
#      x y z
#    x 1.744610 0.000000 0.000000 
#    y 0.000000 1.714380 0.000000 
#    z 0.000000 0.000000 1.717730 
# 
# From -- ./inp_files/16572.got.cif
#   From: 2010.06.25/outbox.cif.g09.slc.cpg/sg43_9_cif.got.tgz:16572.got - 2010.06.26 16:48:59.
