data_PCOD8186087
_publ_section_title
;
Structure prediction by ZEFSAII (Michael W. Deem and Ramdas Pophale) SiO2 
 PCOD8186087
Probable space group: F M M 2
;
_chemical_formula_sum "Si O2"
_cell_formula_units_Z 96
_cell_length_a 13.914494
_cell_length_b 18.782299
_cell_length_c 19.637493
_cell_angle_alpha 90.000000
_cell_angle_beta 90.000000
_cell_angle_gamma 90.000000
_cell_volume 5132.183913
_symmetry_space_group_name_H-M "F M M 2"
_symmetry_group_IT_number 42
_symmetry_cell_setting 'orthorhombic'
loop_
_space_group_symop_operation_xyz
x,y,z
-x,-y,z
-x,y,z
x,-y,z
x,1/2+y,1/2+z
-x,1/2-y,1/2+z
-x,1/2+y,1/2+z
x,1/2-y,1/2+z
1/2+x,y,1/2+z
1/2-x,-y,1/2+z
1/2-x,y,1/2+z
1/2+x,-y,1/2+z
1/2+x,1/2+y,z
1/2-x,1/2-y,z
1/2-x,1/2+y,z
1/2+x,1/2-y,z
loop_
_atom_site_type_symbol
_atom_site_label
_atom_site_fract_x
_atom_site_fract_y
_atom_site_fract_z
Si Si1 0.108334 0.580133 0.412820
Si Si2 0.890075 0.215078 0.619987
Si Si3 0.730071 0.581069 0.641443
Si Si4 0.611308 0.356254 0.053791
Si Si5 0.720882 0.366573 0.792381
Si Si6 0.888918 0.731687 0.765993
O O1 0.105693 0.500000 0.439560
O O2 0.142519 0.626862 0.476923
O O3 0.190601 0.583262 0.354670
O O4 0.000000 0.601929 0.388016
O O5 0.836857 0.140791 0.606178
O O6 0.868593 0.271300 0.560244
O O7 0.857754 0.259339 0.687091
O O8 0.000000 0.193381 0.627578
O O9 0.698542 0.500000 0.623360
O O10 0.835188 0.595785 0.610542
O O11 0.722407 0.588791 0.722782
O O12 0.500000 0.373425 0.066793
O O13 0.825867 0.330648 0.800559
O O14 0.636735 0.307568 0.798152
O O15 0.000000 0.712350 0.776889
#
# Coordination Sequence:
#
# PCOD8186087 Si02
#       6
#    16  16  16  16  16  16
#     4  10  21  37  56  81 114 149 188 237 289 339
#     4   9  18  35  57  80 109 146 190 235 274 326
#     4  11  21  33  54  85 117 148 184 231 288 343
#     4  10  20  37  60  81 110 152 193 236 282 328
#     4  10  19  33  54  81 112 148 189 234 284 335
#     4   9  17  32  54  79 110 146 188 235 276 327
#
# _framework density 18.705487000000002
#
# number of rings (size 3 to 8) (size 9 to 14) (size 15 to 20)
#    0.000    2.167    1.667    2.000    0.000    2.000 
#    6.000    0.000    0.000    1.500    0.000    0.000 
#    0.000    0.000    0.000    0.000    0.000    0.000 
#
# Total GULP energy -297436.794239 kJ/mol
# GULP energy per Si atom -12393.199760 kJ/mol
# Density = 1.866291 g / cm^3
# Si number density = 18.705487 Si / 1000 Ang^3
#
#
#
# Elastic Constant Matrix: (Units=GPa)
#
#
# Indices 1 2 3 4 5 6 
#
# 1 99.7124 47.3628 46.2013 0.0000 0.0000 0.0000
# 2 47.3628 110.4766 47.3650 0.0000 0.0000 0.0000
# 3 46.2013 47.3650 89.4742 0.0000 0.0000 0.0000
# 4 0.0000 0.0000 0.0000 25.8631 0.0000 0.0000
# 5 0.0000 0.0000 0.0000 0.0000 29.9219 0.0000
# 6 0.0000 0.0000 0.0000 0.0000 0.0000 24.2303
#
#
#
# Elastic Compliance Matrix: (Units=1/GPa)
#
#
# Indices 1 2 3 4 5 6 
#
# 1 0.014345 -0.003847 -0.005370 0.000000 0.000000 0.000000
# 2 -0.003847 0.012741 -0.004758 0.000000 0.000000 0.000000
# 3 -0.005370 -0.004758 0.016468 0.000000 0.000000 0.000000
# 4 0.000000 0.000000 0.000000 0.038665 0.000000 0.000000
# 5 0.000000 0.000000 0.000000 0.000000 0.033420 0.000000
# 6 0.000000 0.000000 0.000000 0.000000 0.000000 0.041271
#
#
# Mechanical properties :
#
#
# Convention : Reuss Voigt Hill
#
# Bulk Modulus (GPa) = 64.09298 64.61349 64.35324
# Shear Modulus (GPa) = 26.30712 26.58532 26.44622
#
# Velocity S-wave (km/s) = 3.75425 3.77405 3.76416
# Velocity P-wave (km/s) = 7.28911 7.32180 7.30547
#
# Compressibility (1/GPa) = 0.01560233
#
# Stress axis : x y z
#
# Youngs Moduli (GPa) = 69.71246 78.48654 60.72256
#
# Poissons Ratio (x) = 0.30196 0.32611
# Poissons Ratio (y) = 0.26820 0.28893
# Poissons Ratio (z) = 0.37439 0.37345
#
# Static dielectric constant tensor:
#      x y z
#    x 3.415480 0.000000 0.000000 
#    y 0.000000 3.400360 0.000000 
#    z 0.000000 0.000000 3.260740 
# 
# 
# High freq. dielectric constant tensor:
#      x y z
#    x 1.724910 0.000000 0.000000 
#    y 0.000000 1.723850 0.000000 
#    z 0.000000 0.000000 1.701610 
# 
# From -- ./inp_files/14012.got.cif
#   From: 2010.03.12/outbox.cif.g09.slc.cpg/sg42_8_cif.got.tgz:14012.got - 2010.04.14 02:04:31.
