data_PCOD8186812
_publ_section_title
;
Structure prediction by ZEFSAII (Michael W. Deem and Ramdas Pophale) SiO2 
 PCOD8186812
Probable space group: F M M 2
;
_chemical_formula_sum "Si O2"
_cell_formula_units_Z 72
_cell_length_a 22.446228
_cell_length_b 12.826588
_cell_length_c 13.805142
_cell_angle_alpha 90.000000
_cell_angle_beta 90.000000
_cell_angle_gamma 90.000000
_cell_volume 3974.617984
_symmetry_space_group_name_H-M "F M M 2"
_symmetry_group_IT_number 42
_symmetry_cell_setting 'orthorhombic'
loop_
_space_group_symop_operation_xyz
x,y,z
-x,-y,z
-x,y,z
x,-y,z
x,1/2+y,1/2+z
-x,1/2-y,1/2+z
-x,1/2+y,1/2+z
x,1/2-y,1/2+z
1/2+x,y,1/2+z
1/2-x,-y,1/2+z
1/2-x,y,1/2+z
1/2+x,-y,1/2+z
1/2+x,1/2+y,z
1/2-x,1/2-y,z
1/2-x,1/2+y,z
1/2+x,1/2-y,z
loop_
_atom_site_type_symbol
_atom_site_label
_atom_site_fract_x
_atom_site_fract_y
_atom_site_fract_z
Si Si1 0.654094 0.678442 0.252150
Si Si2 0.846579 0.384434 0.343519
Si Si3 0.250000 0.750000 0.108419
Si Si4 0.933681 0.500000 0.460866
Si Si5 0.723723 0.380280 0.436404
Si Si6 0.432721 0.500000 0.188559
O O1 0.633610 0.799827 0.262942
O O2 0.708045 0.676172 0.174695
O O3 0.672765 0.635553 0.357129
O O4 0.600047 0.605765 0.219859
O O5 0.833832 0.500000 0.296571
O O6 0.899118 0.396651 0.422873
O O7 0.787131 0.338381 0.394414
O O8 0.289999 0.823341 0.038419
O O9 0.934922 0.500000 0.574423
O O10 0.000000 0.500000 0.417270
O O11 0.730964 0.500000 0.462341
O O12 0.500000 0.500000 0.231094
#
# Coordination Sequence:
#
# PCOD8186812 Si02
#       6
#    16  16   8   8  16   8
#     4  12  22  38  60  89 124 153 200 245 301 363
#     4   9  19  36  58  84 119 149 191 245 295 359
#     4  12  22  32  60  94 118 158 186 250 306 364
#     4   9  20  39  62  83 105 154 211 242 289 350
#     4  11  21  36  53  88 127 150 190 239 312 367
#     4  11  26  41  60  89 119 164 209 250 299 356
#
# _framework density 18.114947999999998
#
# number of rings (size 3 to 8) (size 9 to 14) (size 15 to 20)
#    0.667    0.667    5.556    1.333    1.556    1.778 
#    0.000    0.000    0.000    0.000    0.000    0.000 
#    0.000    0.000    0.000    0.000    0.000    0.000 
#
# Total GULP energy -223090.387233 kJ/mol
# GULP energy per Si atom -12393.910402 kJ/mol
# Density = 1.807372 g / cm^3
# Si number density = 18.114948 Si / 1000 Ang^3
#
#
#
# Elastic Constant Matrix: (Units=GPa)
#
#
# Indices 1 2 3 4 5 6 
#
# 1 109.7113 29.2767 29.9851 0.0000 0.0000 0.0000
# 2 29.2767 90.2247 32.3988 0.0000 0.0000 0.0000
# 3 29.9851 32.3988 86.0547 0.0000 0.0000 0.0000
# 4 0.0000 0.0000 0.0000 21.6382 0.0000 0.0000
# 5 0.0000 0.0000 0.0000 0.0000 25.4106 0.0000
# 6 0.0000 0.0000 0.0000 0.0000 0.0000 20.1962
#
#
#
# Elastic Compliance Matrix: (Units=1/GPa)
#
#
# Indices 1 2 3 4 5 6 
#
# 1 0.010513 -0.002424 -0.002751 0.000000 0.000000 0.000000
# 2 -0.002424 0.013375 -0.004191 0.000000 0.000000 0.000000
# 3 -0.002751 -0.004191 0.014157 0.000000 0.000000 0.000000
# 4 0.000000 0.000000 0.000000 0.046214 0.000000 0.000000
# 5 0.000000 0.000000 0.000000 0.000000 0.039354 0.000000
# 6 0.000000 0.000000 0.000000 0.000000 0.000000 0.049514
#
#
# Mechanical properties :
#
#
# Convention : Reuss Voigt Hill
#
# Bulk Modulus (GPa) = 51.77549 52.14577 51.96063
# Shear Modulus (GPa) = 25.21475 26.40434 25.80954
#
# Velocity S-wave (km/s) = 3.73491 3.82199 3.77870
# Velocity P-wave (km/s) = 6.87336 6.95165 6.91261
#
# Compressibility (1/GPa) = 0.01931416
#
# Stress axis : x y z
#
# Youngs Moduli (GPa) = 95.11651 74.76735 70.63700
#
# Poissons Ratio (x) = 0.18121 0.19431
# Poissons Ratio (y) = 0.23053 0.29604
# Poissons Ratio (z) = 0.26165 0.31335
#
# Static dielectric constant tensor:
#      x y z
#    x 3.256310 0.000000 0.000000 
#    y 0.000000 3.508070 0.000000 
#    z 0.000000 0.000000 3.290220 
# 
# 
# High freq. dielectric constant tensor:
#      x y z
#    x 1.666690 0.000000 0.000000 
#    y 0.000000 1.717340 0.000000 
#    z 0.000000 0.000000 1.694870 
# 
# From -- ./inp_files/9994.got.cif
#   From: 2010.03.12/outbox.cif.g09.slc.cpg/sg42_5_cif.got.tgz:9994.got - 2010.04.14 02:04:31.
