data_PCOD8186780
_publ_section_title
;
Structure prediction by ZEFSAII (Michael W. Deem and Ramdas Pophale) SiO2 
 PCOD8186780
Probable space group: F M M 2
;
_chemical_formula_sum "Si O2"
_cell_formula_units_Z 72
_cell_length_a 17.587073
_cell_length_b 21.930240
_cell_length_c 8.422415
_cell_angle_alpha 90.000000
_cell_angle_beta 90.000000
_cell_angle_gamma 90.000000
_cell_volume 3248.430560
_symmetry_space_group_name_H-M "F M M 2"
_symmetry_group_IT_number 42
_symmetry_cell_setting 'orthorhombic'
loop_
_space_group_symop_operation_xyz
x,y,z
-x,-y,z
-x,y,z
x,-y,z
x,1/2+y,1/2+z
-x,1/2-y,1/2+z
-x,1/2+y,1/2+z
x,1/2-y,1/2+z
1/2+x,y,1/2+z
1/2-x,-y,1/2+z
1/2-x,y,1/2+z
1/2+x,-y,1/2+z
1/2+x,1/2+y,z
1/2-x,1/2-y,z
1/2-x,1/2+y,z
1/2+x,1/2-y,z
loop_
_atom_site_type_symbol
_atom_site_label
_atom_site_fract_x
_atom_site_fract_y
_atom_site_fract_z
Si Si1 0.000000 0.158694 0.371650
Si Si2 0.359271 0.569202 0.393950
Si Si3 0.793257 0.069001 0.737621
Si Si4 0.157610 0.818384 0.910680
Si Si5 0.500000 0.276327 0.042367
Si Si6 0.250000 0.750000 0.658429
O O1 0.926505 0.116365 0.367420
O O2 0.000000 0.202187 0.527348
O O3 0.000000 0.205429 0.225595
O O4 0.391157 0.500000 0.390958
O O5 0.297652 0.579835 0.254624
O O6 0.317210 0.583218 0.558796
O O7 0.838598 0.111084 0.861252
O O8 0.813583 0.000000 0.786982
O O9 0.181000 0.776566 0.761113
O O10 0.216093 0.804829 0.053523
O O11 0.072202 0.804098 0.954864
#
# Coordination Sequence:
#
# PCOD8186780 Si02
#       6
#     8  16  16  16   8   8
#     4  12  29  48  67 101 140 185 224 283 347 411
#     4  10  24  47  75 101 136 179 228 283 343 406
#     4  10  23  43  73 104 133 176 229 284 333 402
#     4  11  24  44  65 100 136 181 225 283 333 407
#     4  12  30  44  65 101 143 181 224 281 345 399
#     4  10  24  40  72  94 134 182 232 272 340 398
#
# _framework density 22.164548
#
# number of rings (size 3 to 8) (size 9 to 14) (size 15 to 20)
#    0.000    1.333    0.000    3.000   18.667    0.000 
#    0.000    2.778    0.000    0.000    0.000    0.000 
#    0.000    0.000    0.000    0.000    0.000    0.000 
#
# Total GULP energy -223268.830736 kJ/mol
# GULP energy per Si atom -12403.823930 kJ/mol
# Density = 2.211410 g / cm^3
# Si number density = 22.164548 Si / 1000 Ang^3
#
#
#
# Elastic Constant Matrix: (Units=GPa)
#
#
# Indices 1 2 3 4 5 6 
#
# 1 131.5501 57.2534 46.5623 0.0000 0.0000 0.0000
# 2 57.2534 131.1472 50.1179 0.0000 0.0001 0.0000
# 3 46.5623 50.1179 113.0160 0.0003 -0.0003 -0.0002
# 4 0.0000 0.0000 0.0003 33.7376 -0.0001 0.0000
# 5 0.0000 0.0001 -0.0003 -0.0001 17.2458 0.0000
# 6 0.0000 0.0000 -0.0002 0.0000 0.0000 39.1711
#
#
#
# Elastic Compliance Matrix: (Units=1/GPa)
#
#
# Indices 1 2 3 4 5 6 
#
# 1 0.009994 -0.003358 -0.002628 0.000000 0.000000 0.000000
# 2 -0.003358 0.010310 -0.003188 0.000000 0.000000 0.000000
# 3 -0.002628 -0.003188 0.011345 0.000000 0.000000 0.000000
# 4 0.000000 0.000000 0.000000 0.029640 0.000000 0.000000
# 5 0.000000 0.000000 0.000000 0.000000 0.057985 0.000000
# 6 0.000000 0.000000 0.000000 0.000000 0.000000 0.025529
#
#
# Mechanical properties :
#
#
# Convention : Reuss Voigt Hill
#
# Bulk Modulus (GPa) = 75.19541 75.95342 75.57442
# Shear Modulus (GPa) = 29.83569 32.81623 31.32596
#
# Velocity S-wave (km/s) = 3.67290 3.85200 3.76351
# Velocity P-wave (km/s) = 7.21017 7.35705 7.28398
#
# Compressibility (1/GPa) = 0.01329868
#
# Stress axis : x y z
#
# Youngs Moduli (GPa) = 100.06490 96.99743 88.14585
#
# Poissons Ratio (x) = 0.32576 0.23164
# Poissons Ratio (y) = 0.33607 0.28102
# Poissons Ratio (z) = 0.26297 0.30924
#
# Static dielectric constant tensor:
#      x y z
#    x 3.941610 0.000000 0.000000 
#    y 0.000000 4.252060 0.000000 
#    z 0.000000 0.000000 4.205840 
# 
# 
# High freq. dielectric constant tensor:
#      x y z
#    x 1.866310 0.000000 0.000000 
#    y 0.000000 1.889320 0.000000 
#    z 0.000000 0.000000 1.879730 
# 
# From -- ./inp_files/3395.got.cif
#   From: 2010.03.12/outbox.cif.g09.slc.cpg/sg42_2_cif.got.tgz:3395.got - 2010.04.14 02:04:31.
