data_PCOD8186262
_publ_section_title
;
Structure prediction by ZEFSAII (Michael W. Deem and Ramdas Pophale) SiO2 
 PCOD8186262
Probable space group: F M M 2
;
_chemical_formula_sum "Si O2"
_cell_formula_units_Z 112
_cell_length_a 13.699922
_cell_length_b 16.983734
_cell_length_c 29.382351
_cell_angle_alpha 90.000000
_cell_angle_beta 90.000000
_cell_angle_gamma 90.000000
_cell_volume 6836.562938
_symmetry_space_group_name_H-M "F M M 2"
_symmetry_group_IT_number 42
_symmetry_cell_setting 'orthorhombic'
loop_
_space_group_symop_operation_xyz
x,y,z
-x,-y,z
-x,y,z
x,-y,z
x,1/2+y,1/2+z
-x,1/2-y,1/2+z
-x,1/2+y,1/2+z
x,1/2-y,1/2+z
1/2+x,y,1/2+z
1/2-x,-y,1/2+z
1/2-x,y,1/2+z
1/2+x,-y,1/2+z
1/2+x,1/2+y,z
1/2-x,1/2-y,z
1/2-x,1/2+y,z
1/2+x,1/2-y,z
loop_
_atom_site_type_symbol
_atom_site_label
_atom_site_fract_x
_atom_site_fract_y
_atom_site_fract_z
Si Si1 0.389438 0.408982 0.476560
Si Si2 0.388391 0.405994 0.838406
Si Si3 0.610562 0.908982 0.503411
Si Si4 0.111609 0.405994 0.141565
Si Si5 0.275887 0.159207 0.057893
Si Si6 0.775887 0.159207 0.922079
Si Si7 0.384942 0.914405 0.239986
O O1 0.500000 0.387816 0.463460
O O2 0.378431 0.500000 0.490453
O O3 0.357450 0.356905 0.519648
O O4 0.321823 0.390299 0.433158
O O5 0.500000 0.382348 0.850039
O O6 0.377596 0.500000 0.840123
O O7 0.315118 0.365666 0.873189
O O8 0.357516 0.372532 0.787976
O O9 0.500000 0.887816 0.516511
O O10 0.678177 0.890299 0.546814
O O11 0.642550 0.856905 0.460323
O O12 0.621569 0.000000 0.489518
O O13 0.122404 0.500000 0.139849
O O14 0.184882 0.365666 0.106782
O O15 0.142484 0.372532 0.191995
O O16 0.000000 0.382349 0.129932
O O17 0.250000 0.250000 0.058051
O O18 0.750000 0.250000 0.921920
O O19 0.500000 0.927062 0.239986
O O20 0.334048 0.000000 0.239986
#
# Coordination Sequence:
#
# PCOD8186262 Si02
#       7
#    16  16  16  16  16  16  16
#     4  10  20  34  50  65  85 117 156 194 224 256
#     4   9  16  29  50  72  93 117 148 187 226 264
#     4  10  20  34  50  65  85 117 156 194 224 256
#     4   9  16  29  50  72  93 117 148 187 226 264
#     4  11  21  30  44  68  95 122 148 178 224 276
#     4  11  21  30  44  68  95 122 148 178 224 276
#     4   7  12  24  45  72  93 111 143 187 228 259
#
# _framework density 16.382501000000001
#
# number of rings (size 3 to 8) (size 9 to 14) (size 15 to 20)
#    0.000    2.429    0.000    7.714    0.000    5.714 
#    0.000    0.714    0.000    0.000    0.000    1.000 
#    0.000    5.714    0.000    0.000    0.000    0.857 
#
# Total GULP energy -346988.389318 kJ/mol
# GULP energy per Si atom -12392.442476 kJ/mol
# Density = 1.634521 g / cm^3
# Si number density = 16.382501 Si / 1000 Ang^3
#
#
#
# Elastic Constant Matrix: (Units=GPa)
#
#
# Indices 1 2 3 4 5 6 
#
# 1 108.5973 36.0090 66.1270 0.0000 0.0000 0.0000
# 2 36.0090 70.3544 45.3852 0.0000 0.0000 0.0000
# 3 66.1270 45.3852 152.8829 0.0000 0.0000 0.0000
# 4 0.0000 0.0000 0.0000 12.0211 0.0000 0.0000
# 5 0.0000 0.0000 0.0000 0.0000 27.6276 0.0000
# 6 0.0000 0.0000 0.0000 0.0000 0.0000 12.7322
#
#
#
# Elastic Compliance Matrix: (Units=1/GPa)
#
#
# Indices 1 2 3 4 5 6 
#
# 1 0.013284 -0.003825 -0.004610 0.000000 0.000000 0.000000
# 2 -0.003825 0.018682 -0.003892 0.000000 0.000000 0.000000
# 3 -0.004610 -0.003892 0.009690 0.000000 0.000000 0.000000
# 4 0.000000 0.000000 0.000000 0.083187 0.000000 0.000000
# 5 0.000000 0.000000 0.000000 0.000000 0.036196 0.000000
# 6 0.000000 0.000000 0.000000 0.000000 0.000000 0.078541
#
#
# Mechanical properties :
#
#
# Convention : Reuss Voigt Hill
#
# Bulk Modulus (GPa) = 58.81460 69.65299 64.23379
# Shear Modulus (GPa) = 18.52534 22.76374 20.64454
#
# Velocity S-wave (km/s) = 3.36639 3.73166 3.55372
# Velocity P-wave (km/s) = 7.14765 7.82152 7.49216
#
# Compressibility (1/GPa) = 0.01700258
#
# Stress axis : x y z
#
# Youngs Moduli (GPa) = 75.27913 53.52790 103.19621
#
# Poissons Ratio (x) = 0.20474 0.47576
# Poissons Ratio (y) = 0.28794 0.40159
# Poissons Ratio (z) = 0.34705 0.20830
#
# Static dielectric constant tensor:
#      x y z
#    x 3.076630 0.000000 0.000000 
#    y 0.000000 2.917960 0.000000 
#    z 0.000000 0.000000 3.417970 
# 
# 
# High freq. dielectric constant tensor:
#      x y z
#    x 1.615900 0.000000 0.000000 
#    y 0.000000 1.609550 0.000000 
#    z 0.000000 0.000000 1.632200 
# 
# From -- ./inp_files/32627.got.cif
#   From: 2010.03.12/outbox.cif.g09.slc.cpg/sg42_17_cif.got.tgz:32627.got - 2010.04.14 02:04:31.
