data_PCOD8186421
_publ_section_title
;
Structure prediction by ZEFSAII (Michael W. Deem and Ramdas Pophale) SiO2 
 PCOD8186421
Probable space group: F M M 2
;
_chemical_formula_sum "Si O2"
_cell_formula_units_Z 112
_cell_length_a 13.713617
_cell_length_b 13.713618
_cell_length_c 30.102572
_cell_angle_alpha 90.000000
_cell_angle_beta 90.000000
_cell_angle_gamma 90.000000
_cell_volume 5661.189177
_symmetry_space_group_name_H-M "F M M 2"
_symmetry_group_IT_number 42
_symmetry_cell_setting 'orthorhombic'
loop_
_space_group_symop_operation_xyz
x,y,z
-x,-y,z
-x,y,z
x,-y,z
x,1/2+y,1/2+z
-x,1/2-y,1/2+z
-x,1/2+y,1/2+z
x,1/2-y,1/2+z
1/2+x,y,1/2+z
1/2-x,-y,1/2+z
1/2-x,y,1/2+z
1/2+x,-y,1/2+z
1/2+x,1/2+y,z
1/2-x,1/2-y,z
1/2-x,1/2+y,z
1/2+x,1/2-y,z
loop_
_atom_site_type_symbol
_atom_site_label
_atom_site_fract_x
_atom_site_fract_y
_atom_site_fract_z
Si Si1 0.889718 0.793575 0.400140
Si Si2 0.291442 0.388086 0.040686
Si Si3 0.889221 0.610779 0.631963
Si Si4 0.293575 0.889718 0.363785
Si Si5 0.208520 0.610649 0.260816
Si Si6 0.389351 0.208521 0.003109
Si Si7 0.388086 0.791442 0.723240
O O1 0.819697 0.863215 0.371744
O O2 0.863215 0.680303 0.392182
O O3 0.876201 0.818534 0.451747
O O4 0.000000 0.813054 0.384646
O O5 0.312903 0.500000 0.028574
O O6 0.316032 0.365563 0.091908
O O7 0.358466 0.321190 0.009281
O O8 0.178004 0.362278 0.032783
O O9 0.874410 0.500000 0.648957
O O10 0.865563 0.683968 0.672018
O O11 0.000000 0.625590 0.614969
O O12 0.318535 0.876202 0.312178
O O13 0.313054 0.000000 0.379280
O O14 0.192850 0.500000 0.245078
O O15 0.321190 0.641534 0.254644
O O16 0.137721 0.678005 0.231143
O O17 0.500000 0.192851 0.018847
O O18 0.500000 0.812905 0.735351
#
# Coordination Sequence:
#
# PCOD8186421 Si02
#       7
#    16  16  16  16  16  16  16
#     4  10  21  37  55  78 110 145 183 226 270 320
#     4  10  20  36  58  79 106 146 181 217 271 325
#     4   9  18  33  56  86 112 138 182 230 266 314
#     4  10  21  37  55  78 110 145 183 226 270 320
#     4  10  22  36  53  83 114 139 179 230 272 319
#     4  10  22  36  53  83 114 139 179 230 272 319
#     4  10  20  36  58  79 106 146 181 217 271 325
#
# _framework density 19.783829000000001
#
# number of rings (size 3 to 8) (size 9 to 14) (size 15 to 20)
#    0.000    2.143    0.000    4.286    0.000    9.714 
#    0.000    5.714    0.000    0.000    0.000    8.000 
#    0.000    0.000    0.000    0.000    0.000    0.000 
#
# Total GULP energy -347233.792365 kJ/mol
# GULP energy per Si atom -12401.206870 kJ/mol
# Density = 1.973880 g / cm^3
# Si number density = 19.783829 Si / 1000 Ang^3
#
#
#
# Elastic Constant Matrix: (Units=GPa)
#
#
# Indices 1 2 3 4 5 6 
#
# 1 90.7881 7.4098 35.8202 0.0000 0.0000 0.0000
# 2 7.4098 90.7892 35.8185 0.0000 0.0000 0.0000
# 3 35.8202 35.8185 66.5198 0.0000 0.0000 0.0000
# 4 0.0000 0.0000 0.0000 29.5157 0.0000 0.0000
# 5 0.0000 0.0000 0.0000 0.0000 29.5159 0.0000
# 6 0.0000 0.0000 0.0000 0.0000 0.0000 17.5202
#
#
#
# Elastic Compliance Matrix: (Units=1/GPa)
#
#
# Indices 1 2 3 4 5 6 
#
# 1 0.014383 0.002389 -0.009032 0.000000 0.000000 0.000000
# 2 0.002389 0.014382 -0.009031 0.000000 0.000000 0.000000
# 3 -0.009032 -0.009031 0.024760 0.000000 0.000000 0.000000
# 4 0.000000 0.000000 0.000000 0.033880 0.000000 0.000000
# 5 0.000000 0.000000 0.000000 0.000000 0.033880 0.000000
# 6 0.000000 0.000000 0.000000 0.000000 0.000000 0.057077
#
#
# Mechanical properties :
#
#
# Convention : Reuss Voigt Hill
#
# Bulk Modulus (GPa) = 45.08938 45.13269 45.11104
# Shear Modulus (GPa) = 23.03064 26.58028 24.80546
#
# Velocity S-wave (km/s) = 3.41561 3.66940 3.54478
# Velocity P-wave (km/s) = 6.19643 6.38867 6.29328
#
# Compressibility (1/GPa) = 0.02217817
#
# Stress axis : x y z
#
# Youngs Moduli (GPa) = 69.52605 69.52895 40.38844
#
# Poissons Ratio (x) = -0.16613 0.36478
# Poissons Ratio (y) = -0.16612 0.36475
# Poissons Ratio (z) = 0.62794 0.62792
#
# Static dielectric constant tensor:
#      x y z
#    x 3.627650 0.000000 0.000000 
#    y 0.000000 3.627650 0.000000 
#    z 0.000000 0.000000 3.480270 
# 
# 
# High freq. dielectric constant tensor:
#      x y z
#    x 1.769320 0.000000 0.000000 
#    y 0.000000 1.769320 0.000000 
#    z 0.000000 0.000000 1.768800 
# 
# From -- ./inp_files/34352.got.cif
#   From: 2010.03.12/outbox.cif.g09.slc.cpg/sg42_18_cif.got.tgz:34352.got - 2010.04.14 02:04:31.
