data_PCOD8186623
_publ_section_title
;
Structure prediction by ZEFSAII (Michael W. Deem and Ramdas Pophale) SiO2 
 PCOD8186623
Probable space group: F M M 2
;
_chemical_formula_sum "Si O2"
_cell_formula_units_Z 88
_cell_length_a 15.031422
_cell_length_b 22.344055
_cell_length_c 12.358544
_cell_angle_alpha 90.000000
_cell_angle_beta 90.000000
_cell_angle_gamma 90.000000
_cell_volume 4150.776674
_symmetry_space_group_name_H-M "F M M 2"
_symmetry_group_IT_number 42
_symmetry_cell_setting 'orthorhombic'
loop_
_space_group_symop_operation_xyz
x,y,z
-x,-y,z
-x,y,z
x,-y,z
x,1/2+y,1/2+z
-x,1/2-y,1/2+z
-x,1/2+y,1/2+z
x,1/2-y,1/2+z
1/2+x,y,1/2+z
1/2-x,-y,1/2+z
1/2-x,y,1/2+z
1/2+x,-y,1/2+z
1/2+x,1/2+y,z
1/2-x,1/2-y,z
1/2-x,1/2+y,z
1/2+x,1/2-y,z
loop_
_atom_site_type_symbol
_atom_site_label
_atom_site_fract_x
_atom_site_fract_y
_atom_site_fract_z
Si Si1 0.404054 0.270515 0.811270
Si Si2 0.848513 0.359108 0.864605
Si Si3 0.213609 0.570465 0.655118
Si Si4 0.323564 0.162952 0.494088
Si Si5 0.902258 0.068706 0.566035
Si Si6 0.750000 0.250000 0.664336
O O1 0.500000 0.284974 0.756921
O O2 0.403787 0.199251 0.831931
O O3 0.403191 0.309929 0.922512
O O4 0.320929 0.288032 0.735108
O O5 0.827036 0.401345 0.762836
O O6 0.759380 0.333579 0.915336
O O7 0.902455 0.395826 0.953588
O O8 0.196170 0.500000 0.657264
O O9 0.163456 0.596869 0.547072
O O10 0.319923 0.586366 0.645063
O O11 0.308370 0.204377 0.597516
O O12 0.000000 0.079622 0.621500
O O13 0.890238 0.000000 0.533941
#
# Coordination Sequence:
#
# PCOD8186623 Si02
#       6
#    16  16  16  16  16   8
#     4  12  24  38  63  94 124 164 209 260 321 379
#     4  11  19  37  58  89 124 163 204 259 310 374
#     4  10  21  37  64  91 123 172 211 253 322 386
#     4  11  21  41  63  85 129 163 206 259 318 372
#     4   9  19  35  56  87 122 157 208 263 303 361
#     4  12  20  44  60  90 126 166 204 260 318 378
#
# _framework density 21.200852000000001
#
# number of rings (size 3 to 8) (size 9 to 14) (size 15 to 20)
#    0.000    1.273    5.455    1.091    0.000    1.455 
#    0.000    5.455    0.000    2.727    0.000    0.000 
#    0.000    0.000    0.000    0.000    0.000    0.000 
#
# Total GULP energy -272577.877832 kJ/mol
# GULP energy per Si atom -12389.903538 kJ/mol
# Density = 2.115260 g / cm^3
# Si number density = 21.200852 Si / 1000 Ang^3
#
#
#
# Elastic Constant Matrix: (Units=GPa)
#
#
# Indices 1 2 3 4 5 6 
#
# 1 87.5764 11.3059 31.8784 0.0000 0.0000 0.0000
# 2 11.3059 67.1892 21.5330 0.0000 0.0000 0.0000
# 3 31.8784 21.5330 76.5172 0.0000 0.0000 0.0000
# 4 0.0000 0.0000 0.0000 37.6872 0.0000 0.0000
# 5 0.0000 0.0000 0.0000 0.0000 13.3289 0.0000
# 6 0.0000 0.0000 0.0000 0.0000 0.0000 3.9128
#
#
#
# Elastic Compliance Matrix: (Units=1/GPa)
#
#
# Indices 1 2 3 4 5 6 
#
# 1 0.013476 -0.000515 -0.005469 0.000000 0.000000 0.000000
# 2 -0.000515 0.016378 -0.004395 0.000000 0.000000 0.000000
# 3 -0.005469 -0.004395 0.016584 0.000000 0.000000 0.000000
# 4 0.000000 0.000000 0.000000 0.026534 0.000000 0.000000
# 5 0.000000 0.000000 0.000000 0.000000 0.075025 0.000000
# 6 0.000000 0.000000 0.000000 0.000000 0.000000 0.255570
#
#
# Mechanical properties :
#
#
# Convention : Reuss Voigt Hill
#
# Bulk Modulus (GPa) = 38.93931 40.07970 39.50951
# Shear Modulus (GPa) = 11.55038 22.09016 16.82027
#
# Velocity S-wave (km/s) = 2.33664 3.23142 2.81975
# Velocity P-wave (km/s) = 5.06819 5.73311 5.41088
#
# Compressibility (1/GPa) = 0.02568099
#
# Stress axis : x y z
#
# Youngs Moduli (GPa) = 74.20617 61.05616 60.29783
#
# Poissons Ratio (x) = 0.03143 0.32980
# Poissons Ratio (y) = 0.03820 0.26499
# Poissons Ratio (z) = 0.40587 0.26832
#
# Static dielectric constant tensor:
#      x y z
#    x 3.757580 0.000000 0.000000 
#    y 0.000000 4.247340 0.000000 
#    z 0.000000 0.000000 3.923090 
# 
# 
# High freq. dielectric constant tensor:
#      x y z
#    x 1.813330 0.000000 0.000000 
#    y 0.000000 1.839350 0.000000 
#    z 0.000000 0.000000 1.826550 
# 
# From -- ./inp_files/7842.got.cif
#   From: 2010.03.12/outbox.cif.g09.slc.cpg/sg42_4_cif.got.tgz:7842.got - 2010.04.14 02:04:31.
