data_PCOD8186340
_publ_section_title
;
Structure prediction by ZEFSAII (Michael W. Deem and Ramdas Pophale) SiO2 
 PCOD8186340
Probable space group: F M M 2
;
_chemical_formula_sum "Si O2"
_cell_formula_units_Z 112
_cell_length_a 22.333691
_cell_length_b 20.881493
_cell_length_c 13.137287
_cell_angle_alpha 90.000000
_cell_angle_beta 90.000000
_cell_angle_gamma 90.000000
_cell_volume 6126.715836
_symmetry_space_group_name_H-M "F M M 2"
_symmetry_group_IT_number 42
_symmetry_cell_setting 'orthorhombic'
loop_
_space_group_symop_operation_xyz
x,y,z
-x,-y,z
-x,y,z
x,-y,z
x,1/2+y,1/2+z
-x,1/2-y,1/2+z
-x,1/2+y,1/2+z
x,1/2-y,1/2+z
1/2+x,y,1/2+z
1/2-x,-y,1/2+z
1/2-x,y,1/2+z
1/2+x,-y,1/2+z
1/2+x,1/2+y,z
1/2-x,1/2-y,z
1/2-x,1/2+y,z
1/2+x,1/2-y,z
loop_
_atom_site_type_symbol
_atom_site_label
_atom_site_fract_x
_atom_site_fract_y
_atom_site_fract_z
Si Si1 0.836273 0.290114 0.502910
Si Si2 0.570268 0.696933 0.838782
Si Si3 0.568913 0.928087 0.803143
Si Si4 0.641086 0.688668 0.234696
Si Si5 0.128440 0.426596 0.007569
Si Si6 0.930899 0.573267 0.211443
Si Si7 0.783380 0.334096 0.925282
O O1 0.901233 0.299847 0.451613
O O2 0.835724 0.307368 0.620588
O O3 0.816579 0.216821 0.497180
O O4 0.788057 0.332497 0.439112
O O5 0.500000 0.713382 0.845987
O O6 0.601742 0.749498 0.766017
O O7 0.580924 0.624173 0.800909
O O8 0.500000 0.923250 0.775628
O O9 0.602681 0.876176 0.735713
O O10 0.578124 0.912125 0.922483
O O11 0.593085 0.000000 0.779203
O O12 0.698866 0.680548 0.308079
O O13 0.139401 0.500000 0.025686
O O14 0.191976 0.400903 0.967199
O O15 0.106161 0.399243 0.115313
O O16 0.912587 0.500000 0.243708
O O17 0.000000 0.573422 0.179080
#
# Coordination Sequence:
#
# PCOD8186340 Si02
#       7
#    16  16  16  16  16  16  16
#     4  10  21  36  55  75 102 136 169 207 254 308
#     4  10  21  35  52  77 105 133 171 214 251 297
#     4   9  17  30  49  75 106 137 170 209 254 305
#     4  10  20  35  54  76 103 134 170 212 256 299
#     4   9  16  29  51  77 103 131 169 216 260 300
#     4   9  17  30  49  74 105 139 170 205 255 307
#     4   9  20  35  52  76 100 130 169 211 254 302
#
# _framework density 18.280593
#
# number of rings (size 3 to 8) (size 9 to 14) (size 15 to 20)
#    0.000    2.571    0.000    1.714    0.000    8.571 
#    0.000    5.714    0.000    5.143    0.000    0.000 
#    0.000    0.000    0.000    0.000    0.000    0.000 
#
# Total GULP energy -347055.439962 kJ/mol
# GULP energy per Si atom -12394.837142 kJ/mol
# Density = 1.823899 g / cm^3
# Si number density = 18.280593 Si / 1000 Ang^3
#
#
#
# Elastic Constant Matrix: (Units=GPa)
#
#
# Indices 1 2 3 4 5 6 
#
# 1 86.6640 17.7131 43.7602 0.0000 0.0000 0.0000
# 2 17.7131 49.5576 27.7922 0.0000 0.0000 0.0000
# 3 43.7602 27.7922 109.8937 0.0000 0.0000 0.0000
# 4 0.0000 0.0000 0.0000 22.6002 0.0000 0.0000
# 5 0.0000 0.0000 0.0000 0.0000 19.3868 0.0000
# 6 0.0000 0.0000 0.0000 0.0000 0.0000 23.7440
#
#
#
# Elastic Compliance Matrix: (Units=1/GPa)
#
#
# Indices 1 2 3 4 5 6 
#
# 1 0.014663 -0.002291 -0.005259 0.000000 0.000000 0.000000
# 2 -0.002291 0.023871 -0.005125 0.000000 0.000000 0.000000
# 3 -0.005259 -0.005125 0.012490 0.000000 0.000000 0.000000
# 4 0.000000 0.000000 0.000000 0.044247 0.000000 0.000000
# 5 0.000000 0.000000 0.000000 0.000000 0.051582 0.000000
# 6 0.000000 0.000000 0.000000 0.000000 0.000000 0.042116
#
#
# Mechanical properties :
#
#
# Convention : Reuss Voigt Hill
#
# Bulk Modulus (GPa) = 38.95057 47.18293 43.06675
# Shear Modulus (GPa) = 22.43383 23.60285 23.01834
#
# Velocity S-wave (km/s) = 3.50693 3.59715 3.55233
# Velocity P-wave (km/s) = 6.14422 6.56651 6.35887
#
# Compressibility (1/GPa) = 0.02567356
#
# Stress axis : x y z
#
# Youngs Moduli (GPa) = 68.19988 41.89099 80.06400
#
# Poissons Ratio (x) = 0.09599 0.42108
# Poissons Ratio (y) = 0.15627 0.41030
# Poissons Ratio (z) = 0.35868 0.21468
#
# Static dielectric constant tensor:
#      x y z
#    x 3.356900 0.000000 0.000000 
#    y 0.000000 3.579030 0.000000 
#    z 0.000000 0.000000 3.175140 
# 
# 
# High freq. dielectric constant tensor:
#      x y z
#    x 1.699000 0.000000 0.000000 
#    y 0.000000 1.714120 0.000000 
#    z 0.000000 0.000000 1.694320 
# 
# From -- ./inp_files/9660.got.cif
#   From: 2010.03.12/outbox.cif.g09.slc.cpg/sg42_5_cif.got.tgz:9660.got - 2010.04.14 02:04:31.
