data_PCOD8186300
_publ_section_title
;
Structure prediction by ZEFSAII (Michael W. Deem and Ramdas Pophale) SiO2 
 PCOD8186300
Probable space group: F M M 2
;
_chemical_formula_sum "Si O2"
_cell_formula_units_Z 96
_cell_length_a 18.735142
_cell_length_b 8.786296
_cell_length_c 30.518911
_cell_angle_alpha 90.000000
_cell_angle_beta 90.000000
_cell_angle_gamma 90.000000
_cell_volume 5023.794335
_symmetry_space_group_name_H-M "F M M 2"
_symmetry_group_IT_number 42
_symmetry_cell_setting 'orthorhombic'
loop_
_space_group_symop_operation_xyz
x,y,z
-x,-y,z
-x,y,z
x,-y,z
x,1/2+y,1/2+z
-x,1/2-y,1/2+z
-x,1/2+y,1/2+z
x,1/2-y,1/2+z
1/2+x,y,1/2+z
1/2-x,-y,1/2+z
1/2-x,y,1/2+z
1/2+x,-y,1/2+z
1/2+x,1/2+y,z
1/2-x,1/2-y,z
1/2-x,1/2+y,z
1/2+x,1/2-y,z
loop_
_atom_site_type_symbol
_atom_site_label
_atom_site_fract_x
_atom_site_fract_y
_atom_site_fract_z
Si Si1 0.079783 0.319083 0.886750
Si Si2 0.916943 0.321878 0.545755
Si Si3 0.084018 0.172183 0.636114
Si Si4 0.675877 0.179004 0.808484
Si Si5 0.171859 0.319703 0.968559
Si Si6 0.824943 0.679883 0.709171
O O1 0.076285 0.500000 0.888234
O O2 0.113785 0.262905 0.840900
O O3 0.127665 0.258233 0.926787
O O4 0.000000 0.250480 0.890536
O O5 0.901603 0.500000 0.541342
O O6 0.892308 0.267172 0.593631
O O7 0.869778 0.230147 0.511661
O O8 0.000000 0.283260 0.537582
O O9 0.113787 0.252300 0.679142
O O10 0.000000 0.173635 0.641319
O O11 0.112999 0.000000 0.631921
O O12 0.750000 0.250000 0.824310
O O13 0.656932 0.228850 0.759027
O O14 0.685094 0.000000 0.811848
O O15 0.178730 0.500000 0.968047
O O16 0.250000 0.250000 0.967500
O O17 0.821701 0.500000 0.703818
O O18 0.750000 0.750000 0.694201
#
# Coordination Sequence:
#
# PCOD8186300 Si02
#       6
#    16  16  16  16  16  16
#     4   9  18  33  54  80 108 140 179 221 266 318
#     4  10  21  38  59  82 109 140 177 222 270 322
#     4  10  21  37  57  81 110 143 179 221 270 323
#     4   9  18  33  54  78 106 141 179 221 266 315
#     4  11  22  36  56  81 110 144 182 223 268 319
#     4  10  20  34  54  80 110 145 184 225 270 319
#
# _framework density 19.109062000000002
#
# number of rings (size 3 to 8) (size 9 to 14) (size 15 to 20)
#    0.000    2.167    0.000    3.000    0.000    4.667 
#    0.000    5.833    0.000    2.500    0.000    0.000 
#    0.000    0.000    0.000    0.000    0.000    0.000 
#
# Total GULP energy -297657.644816 kJ/mol
# GULP energy per Si atom -12402.401867 kJ/mol
# Density = 1.906557 g / cm^3
# Si number density = 19.109062 Si / 1000 Ang^3
#
#
#
# Elastic Constant Matrix: (Units=GPa)
#
#
# Indices 1 2 3 4 5 6 
#
# 1 104.8513 36.5553 73.1793 0.0000 0.0000 0.0000
# 2 36.5553 63.2417 31.3088 0.0000 0.0000 0.0000
# 3 73.1793 31.3088 128.5927 0.0000 0.0000 0.0000
# 4 0.0000 0.0000 0.0000 21.3716 0.0000 0.0000
# 5 0.0000 0.0000 0.0000 0.0000 65.9531 0.0000
# 6 0.0000 0.0000 0.0000 0.0000 0.0000 26.8146
#
#
#
# Elastic Compliance Matrix: (Units=1/GPa)
#
#
# Indices 1 2 3 4 5 6 
#
# 1 0.017577 -0.005922 -0.008561 0.000000 0.000000 0.000000
# 2 -0.005922 0.019975 -0.001493 0.000000 0.000000 0.000000
# 3 -0.008561 -0.001493 0.013012 0.000000 0.000000 0.000000
# 4 0.000000 0.000000 0.000000 0.046791 0.000000 0.000000
# 5 0.000000 0.000000 0.000000 0.000000 0.015162 0.000000
# 6 0.000000 0.000000 0.000000 0.000000 0.000000 0.037293
#
#
# Mechanical properties :
#
#
# Convention : Reuss Voigt Hill
#
# Bulk Modulus (GPa) = 53.73020 64.30805 59.01912
# Shear Modulus (GPa) = 26.60074 33.20402 29.90238
#
# Velocity S-wave (km/s) = 3.73506 4.17298 3.96008
# Velocity P-wave (km/s) = 6.83956 7.54616 7.20154
#
# Compressibility (1/GPa) = 0.01861151
#
# Stress axis : x y z
#
# Youngs Moduli (GPa) = 56.89362 50.06378 76.85321
#
# Poissons Ratio (x) = 0.29646 0.65792
# Poissons Ratio (y) = 0.33690 0.11477
# Poissons Ratio (z) = 0.48705 0.07476
#
# Static dielectric constant tensor:
#      x y z
#    x 3.598360 0.000000 0.000000 
#    y 0.000000 3.444030 0.000000 
#    z 0.000000 0.000000 3.694930 
# 
# 
# High freq. dielectric constant tensor:
#      x y z
#    x 1.742760 0.000000 0.000000 
#    y 0.000000 1.736220 0.000000 
#    z 0.000000 0.000000 1.756250 
# 
# From -- ./inp_files/31430.got.cif
#   From: 2010.03.12/outbox.cif.g09.slc.cpg/sg42_16_cif.got.tgz:31430.got - 2010.04.14 02:04:31.
