data_PCOD8186550
_publ_section_title
;
Structure prediction by ZEFSAII (Michael W. Deem and Ramdas Pophale) SiO2 
 PCOD8186550
Probable space group: F M M 2
;
_chemical_formula_sum "Si O2"
_cell_formula_units_Z 112
_cell_length_a 17.660609
_cell_length_b 20.993003
_cell_length_c 16.578507
_cell_angle_alpha 90.000000
_cell_angle_beta 90.000000
_cell_angle_gamma 90.000000
_cell_volume 6146.468501
_symmetry_space_group_name_H-M "F M M 2"
_symmetry_group_IT_number 42
_symmetry_cell_setting 'orthorhombic'
loop_
_space_group_symop_operation_xyz
x,y,z
-x,-y,z
-x,y,z
x,-y,z
x,1/2+y,1/2+z
-x,1/2-y,1/2+z
-x,1/2+y,1/2+z
x,1/2-y,1/2+z
1/2+x,y,1/2+z
1/2-x,-y,1/2+z
1/2-x,y,1/2+z
1/2+x,-y,1/2+z
1/2+x,1/2+y,z
1/2-x,1/2-y,z
1/2-x,1/2+y,z
1/2+x,1/2-y,z
loop_
_atom_site_type_symbol
_atom_site_label
_atom_site_fract_x
_atom_site_fract_y
_atom_site_fract_z
Si Si1 0.086882 0.429447 0.772930
Si Si2 0.179355 0.926918 0.112410
Si Si3 0.589210 0.320029 0.381230
Si Si4 0.414243 0.284911 0.554435
Si Si5 0.911258 0.852091 0.988547
Si Si6 0.211539 0.317777 0.169177
Si Si7 0.679338 0.208070 0.346822
O O1 0.097008 0.500000 0.807454
O O2 0.126613 0.419630 0.689075
O O3 0.122145 0.383837 0.841081
O O4 0.000000 0.411617 0.757827
O O5 0.127240 0.910999 0.035044
O O6 0.247375 0.877003 0.125493
O O7 0.209294 0.000000 0.103712
O O8 0.500000 0.318428 0.385344
O O9 0.621032 0.314270 0.472006
O O10 0.615096 0.260475 0.326355
O O11 0.500000 0.306923 0.566277
O O12 0.407995 0.208532 0.547916
O O13 0.371187 0.313577 0.630544
O O14 0.000000 0.866062 0.965369
O O15 0.857831 0.841141 0.910102
O O16 0.250000 0.250000 0.150747
O O17 0.203821 0.329173 0.265466
O O18 0.750000 0.250000 0.382109
#
# Coordination Sequence:
#
# PCOD8186550 Si02
#       7
#    16  16  16  16  16  16  16
#     4   9  17  31  52  77 109 146 181 224 281 342
#     4  11  23  38  56  84 116 149 187 237 287 340
#     4   9  18  32  50  80 115 144 183 234 282 334
#     4   9  19  33  55  84 114 146 187 236 283 330
#     4  10  21  37  58  85 115 152 190 234 282 339
#     4  11  21  37  58  84 115 152 193 235 286 340
#     4  10  21  33  54  83 113 149 185 235 289 334
#
# _framework density 18.221844999999998
#
# number of rings (size 3 to 8) (size 9 to 14) (size 15 to 20)
#    0.000    2.143    1.429    3.429    4.000    2.000 
#    0.000    1.429    0.000    1.286    0.000    0.000 
#    0.000    0.000    0.000    0.000    0.000    0.000 
#
# Total GULP energy -347010.747929 kJ/mol
# GULP energy per Si atom -12393.240997 kJ/mol
# Density = 1.818037 g / cm^3
# Si number density = 18.221845 Si / 1000 Ang^3
#
#
#
# Elastic Constant Matrix: (Units=GPa)
#
#
# Indices 1 2 3 4 5 6 
#
# 1 61.9666 34.2054 51.4205 0.0000 0.0000 0.0000
# 2 34.2054 95.8850 41.6062 0.0000 0.0000 0.0000
# 3 51.4205 41.6062 66.8982 0.0000 0.0000 0.0000
# 4 0.0000 0.0000 0.0000 25.6955 0.0000 0.0000
# 5 0.0000 0.0000 0.0000 0.0000 30.3663 0.0000
# 6 0.0000 0.0000 0.0000 0.0000 0.0000 23.7833
#
#
#
# Elastic Compliance Matrix: (Units=1/GPa)
#
#
# Indices 1 2 3 4 5 6 
#
# 1 0.044699 -0.001421 -0.033473 0.000000 0.000000 0.000000
# 2 -0.001421 0.014329 -0.007820 0.000000 0.000000 0.000000
# 3 -0.033473 -0.007820 0.045540 0.000000 0.000000 0.000000
# 4 0.000000 0.000000 0.000000 0.038917 0.000000 0.000000
# 5 0.000000 0.000000 0.000000 0.000000 0.032931 0.000000
# 6 0.000000 0.000000 0.000000 0.000000 0.000000 0.042046
#
#
# Mechanical properties :
#
#
# Convention : Reuss Voigt Hill
#
# Bulk Modulus (GPa) = 52.24578 53.24599 52.74588
# Shear Modulus (GPa) = 16.11496 22.47019 19.29258
#
# Velocity S-wave (km/s) = 2.97707 3.51543 3.25739
# Velocity P-wave (km/s) = 6.36801 6.76476 6.56938
#
# Compressibility (1/GPa) = 0.01914030
#
# Stress axis : x y z
#
# Youngs Moduli (GPa) = 22.37208 69.78813 21.95855
#
# Poissons Ratio (x) = 0.09915 0.73503
# Poissons Ratio (y) = 0.03179 0.17171
# Poissons Ratio (z) = 0.74887 0.54572
#
# Static dielectric constant tensor:
#      x y z
#    x 3.462220 0.000000 0.000000 
#    y 0.000000 4.043600 0.000000 
#    z 0.000000 0.000000 3.425430 
# 
# 
# High freq. dielectric constant tensor:
#      x y z
#    x 1.709770 0.000000 0.000000 
#    y 0.000000 1.682550 0.000000 
#    z 0.000000 0.000000 1.700640 
# 
# From -- ./inp_files/21046.got.cif
#   From: 2010.03.12/outbox.cif.g09.slc.cpg/sg42_11_cif.got.tgz:21046.got - 2010.04.14 02:04:31.
