data_PCOD8186899
_publ_section_title
;
Structure prediction by ZEFSAII (Michael W. Deem and Ramdas Pophale) SiO2 
 PCOD8186899
Probable space group: F D D 2
;
_chemical_formula_sum "Si O2"
_cell_formula_units_Z 80
_cell_length_a 14.175389
_cell_length_b 25.579800
_cell_length_c 11.845693
_cell_angle_alpha 90.000000
_cell_angle_beta 90.000000
_cell_angle_gamma 90.000000
_cell_volume 4295.291110
_symmetry_space_group_name_H-M "F D D 2"
_symmetry_group_IT_number 43
_symmetry_cell_setting 'orthorhombic'
loop_
_space_group_symop_operation_xyz
x,y,z
-x,-y,z
1/4-x,1/4+y,1/4+z
1/4+x,1/4-y,1/4+z
x,1/2+y,1/2+z
-x,1/2-y,1/2+z
1/4-x,3/4+y,3/4+z
1/4+x,3/4-y,3/4+z
1/2+x,y,1/2+z
1/2-x,-y,1/2+z
3/4-x,1/4+y,3/4+z
3/4+x,1/4-y,3/4+z
1/2+x,1/2+y,z
1/2-x,1/2-y,z
3/4-x,3/4+y,1/4+z
3/4+x,3/4-y,1/4+z
loop_
_atom_site_type_symbol
_atom_site_label
_atom_site_fract_x
_atom_site_fract_y
_atom_site_fract_z
Si Si1 0.395948 0.022800 0.359180
Si Si2 0.831625 0.933046 0.999657
Si Si3 0.145596 0.635976 0.783841
Si Si4 0.735949 0.808233 0.445625
Si Si5 0.565896 0.664664 0.928988
O O1 0.391239 0.078501 0.421896
O O2 0.367026 0.033507 0.228988
O O3 0.500000 0.000000 0.365902
O O4 0.323554 0.982512 0.416754
O O5 0.859377 0.882928 0.923815
O O6 0.911157 0.944974 0.093381
O O7 0.728595 0.925217 0.055794
O O8 0.163302 0.670638 0.896419
O O9 0.052218 0.598993 0.790774
O O10 0.234077 0.597608 0.769419
O O11 0.750000 0.750000 0.496451
#
# Coordination Sequence:
#
# PCOD8186899 Si02
#       5
#    16  16  16  16  16
#     4  12  17  28  50  81 104 134 169 217 264 302
#     4  10  17  28  46  76 107 130 173 212 266 301
#     4  10  16  26  42  73 102 124 165 212 247 297
#     4  10  16  26  43  70 103 123 157 215 249 290
#     4  10  18  29  46  78 105 133 169 226 251 310
#
# _framework density 18.625046999999999
#
# number of rings (size 3 to 8) (size 9 to 14) (size 15 to 20)
#    0.000    1.600   12.000    0.000    0.000    0.000 
#    0.000    0.000    0.000    0.000   31.200    2.800 
#    0.000    0.000    0.000    0.000    0.000    0.000 
#
# Total GULP energy -247867.246655 kJ/mol
# GULP energy per Si atom -12393.362333 kJ/mol
# Density = 1.858266 g / cm^3
# Si number density = 18.625047 Si / 1000 Ang^3
#
#
#
# Elastic Constant Matrix: (Units=GPa)
#
#
# Indices 1 2 3 4 5 6 
#
# 1 59.5595 51.4308 36.1600 0.0000 0.0000 0.0000
# 2 51.4308 127.3455 39.7974 0.0000 0.0000 0.0000
# 3 36.1600 39.7974 35.6131 0.0000 0.0000 0.0000
# 4 0.0000 0.0000 0.0000 9.4704 0.0000 0.0000
# 5 0.0000 0.0000 0.0000 0.0000 30.2938 0.0000
# 6 0.0000 0.0000 0.0000 0.0000 0.0000 25.5883
#
#
#
# Elastic Compliance Matrix: (Units=1/GPa)
#
#
# Indices 1 2 3 4 5 6 
#
# 1 0.046777 -0.006221 -0.040542 0.000000 0.000000 0.000000
# 2 -0.006221 0.012894 -0.008092 0.000000 0.000000 0.000000
# 3 -0.040542 -0.008092 0.078288 0.000000 0.000000 0.000000
# 4 0.000000 0.000000 0.000000 0.105592 0.000000 0.000000
# 5 0.000000 0.000000 0.000000 0.000000 0.033010 0.000000
# 6 0.000000 0.000000 0.000000 0.000000 0.000000 0.039080
#
#
# Mechanical properties :
#
#
# Convention : Reuss Voigt Hill
#
# Bulk Modulus (GPa) = 35.40307 53.03270 44.21789
# Shear Modulus (GPa) = 11.50037 19.41250 15.45644
#
# Velocity S-wave (km/s) = 2.48759 3.23194 2.88388
# Velocity P-wave (km/s) = 5.22497 6.51636 5.90607
#
# Compressibility (1/GPa) = 0.02824614
#
# Stress axis : x y z
#
# Youngs Moduli (GPa) = 21.37824 77.55411 12.77341
#
# Poissons Ratio (x) = 0.48250 0.51787
# Poissons Ratio (y) = 0.13300 0.10337
# Poissons Ratio (z) = 0.86673 0.62759
#
# Static dielectric constant tensor:
#      x y z
#    x 3.332190 0.000000 0.000000 
#    y 0.000000 3.684150 0.000000 
#    z 0.000000 0.000000 3.020920 
# 
# 
# High freq. dielectric constant tensor:
#      x y z
#    x 1.691440 0.000000 0.000000 
#    y 0.000000 1.738250 0.000000 
#    z 0.000000 0.000000 1.658290 
# 
# From -- ./inp_files/6060.got.cif
#   From: 2010.06.25/outbox.cif.g09.slc.cpg/sg43_4_cif.got.tgz:6060.got - 2010.06.26 16:48:59.
