data_PCOD8186848
_publ_section_title
;
Structure prediction by ZEFSAII (Michael W. Deem and Ramdas Pophale) SiO2 
 PCOD8186848
Probable space group: F M M 2
;
_chemical_formula_sum "Si O2"
_cell_formula_units_Z 80
_cell_length_a 9.303039
_cell_length_b 18.323383
_cell_length_c 25.682870
_cell_angle_alpha 90.000000
_cell_angle_beta 90.000000
_cell_angle_gamma 90.000000
_cell_volume 4377.982835
_symmetry_space_group_name_H-M "F M M 2"
_symmetry_group_IT_number 42
_symmetry_cell_setting 'orthorhombic'
loop_
_space_group_symop_operation_xyz
x,y,z
-x,-y,z
-x,y,z
x,-y,z
x,1/2+y,1/2+z
-x,1/2-y,1/2+z
-x,1/2+y,1/2+z
x,1/2-y,1/2+z
1/2+x,y,1/2+z
1/2-x,-y,1/2+z
1/2-x,y,1/2+z
1/2+x,-y,1/2+z
1/2+x,1/2+y,z
1/2-x,1/2-y,z
1/2-x,1/2+y,z
1/2+x,1/2-y,z
loop_
_atom_site_type_symbol
_atom_site_label
_atom_site_fract_x
_atom_site_fract_y
_atom_site_fract_z
Si Si1 0.666919 0.085227 0.220320
Si Si2 0.161161 0.912963 0.433102
Si Si3 0.341018 0.586685 0.837245
Si Si4 0.169874 0.674016 0.634703
Si Si5 0.666455 0.916239 0.532677
O O1 0.500000 0.102900 0.208343
O O2 0.706810 0.109379 0.279180
O O3 0.772586 0.130077 0.183958
O O4 0.697254 0.000000 0.211816
O O5 0.233090 0.881112 0.380511
O O6 0.245375 0.884649 0.483808
O O7 0.000000 0.882513 0.435822
O O8 0.164494 0.000000 0.431763
O O9 0.500000 0.617563 0.849091
O O10 0.345378 0.500000 0.840520
O O11 0.250000 0.750000 0.630810
O O12 0.208996 0.629341 0.583126
O O13 0.000000 0.685913 0.640928
O O14 0.500000 0.908528 0.518407
O O15 0.707495 0.000000 0.544181
#
# Coordination Sequence:
#
# PCOD8186848 Si02
#       5
#    16  16  16  16  16
#     4   9  18  33  54  79 105 134 169 209 253 300
#     4   9  16  25  42  72 104 130 159 199 245 290
#     4   8  14  26  45  70 101 134 163 194 239 294
#     4  11  23  37  53  73 100 135 173 213 258 305
#     4   9  18  33  52  73  98 130 167 205 248 300
#
# _framework density 18.273254999999999
#
# number of rings (size 3 to 8) (size 9 to 14) (size 15 to 20)
#    0.000    2.800    0.000    3.000    0.000    6.000 
#    0.000    4.000    0.000    1.200    0.000    5.600 
#    0.000    0.000    0.000    0.000    0.000    0.000 
#
# Total GULP energy -247965.104784 kJ/mol
# GULP energy per Si atom -12398.255239 kJ/mol
# Density = 1.823166 g / cm^3
# Si number density = 18.273255 Si / 1000 Ang^3
#
#
#
# Elastic Constant Matrix: (Units=GPa)
#
#
# Indices 1 2 3 4 5 6 
#
# 1 121.2105 45.4228 100.4093 0.0000 0.0000 0.0000
# 2 45.4228 54.5389 51.9967 0.0000 0.0000 0.0000
# 3 100.4093 51.9967 176.6621 0.0000 0.0000 0.0000
# 4 0.0000 0.0000 0.0000 -3.0056 0.0000 0.0000
# 5 0.0000 0.0000 0.0000 0.0000 35.7145 0.0000
# 6 0.0000 0.0000 0.0000 0.0000 0.0000 18.5984
#
#
#
# Elastic Compliance Matrix: (Units=1/GPa)
#
#
# Indices 1 2 3 4 5 6 
#
# 1 0.017324 -0.007007 -0.007784 0.000000 0.000000 0.000000
# 2 -0.007007 0.028322 -0.004353 0.000000 0.000000 0.000000
# 3 -0.007784 -0.004353 0.011366 0.000000 0.000000 0.000000
# 4 0.000000 0.000000 0.000000 -0.332717 0.000000 0.000000
# 5 0.000000 0.000000 0.000000 0.000000 0.028000 0.000000
# 6 0.000000 0.000000 0.000000 0.000000 0.000000 0.053768
#
#
# Mechanical properties :
#
#
# Convention : Reuss Voigt Hill
#
# Bulk Modulus (GPa) = 53.41040 83.11880 68.26460
# Shear Modulus (GPa) = -33.46572 20.56698 -6.44937
#
# Velocity S-wave (km/s) = -4.28413 3.35852 -1.88071
# Velocity P-wave (km/s) = 2.19555 7.78620 5.72037
#
# Compressibility (1/GPa) = 0.01872294
#
# Stress axis : x y z
#
# Youngs Moduli (GPa) = 57.72215 35.30843 87.98106
#
# Poissons Ratio (x) = 0.24742 0.68486
# Poissons Ratio (y) = 0.40448 0.38300
# Poissons Ratio (z) = 0.44932 0.15370
#
# Static dielectric constant tensor:
#      x y z
#    x 3.493200 0.000000 0.000000 
#    y 0.000000 2.943250 0.000000 
#    z 0.000000 0.000000 3.591680 
# 
# 
# High freq. dielectric constant tensor:
#      x y z
#    x 1.712520 0.000000 0.000000 
#    y 0.000000 1.657810 0.000000 
#    z 0.000000 0.000000 1.725110 
# 
# From -- ./inp_files/31254.got.cif
#   From: 2010.03.12/outbox.cif.g09.slc.cpg/sg42_16_cif.got.tgz:31254.got - 2010.04.14 02:04:31.
