data_PCOD8186092
_publ_section_title
;
Structure prediction by ZEFSAII (Michael W. Deem and Ramdas Pophale) SiO2 
 PCOD8186092
Probable space group: F M M 2
;
_chemical_formula_sum "Si O2"
_cell_formula_units_Z 80
_cell_length_a 8.922714
_cell_length_b 25.912814
_cell_length_c 18.407754
_cell_angle_alpha 90.000000
_cell_angle_beta 90.000000
_cell_angle_gamma 90.000000
_cell_volume 4256.105183
_symmetry_space_group_name_H-M "F M M 2"
_symmetry_group_IT_number 42
_symmetry_cell_setting 'orthorhombic'
loop_
_space_group_symop_operation_xyz
x,y,z
-x,-y,z
-x,y,z
x,-y,z
x,1/2+y,1/2+z
-x,1/2-y,1/2+z
-x,1/2+y,1/2+z
x,1/2-y,1/2+z
1/2+x,y,1/2+z
1/2-x,-y,1/2+z
1/2-x,y,1/2+z
1/2+x,-y,1/2+z
1/2+x,1/2+y,z
1/2-x,1/2-y,z
1/2-x,1/2+y,z
1/2+x,1/2-y,z
loop_
_atom_site_type_symbol
_atom_site_label
_atom_site_fract_x
_atom_site_fract_y
_atom_site_fract_z
Si Si1 0.174491 0.904976 0.138790
Si Si2 0.670627 0.000000 0.533542
Si Si3 0.663870 0.701591 0.797756
Si Si4 0.179727 0.911319 0.791377
Si Si5 0.823210 0.500000 0.883443
Si Si6 0.167829 0.699695 0.125522
O O1 0.259648 0.923179 0.211170
O O2 0.240193 0.851895 0.106028
O O3 0.000000 0.897083 0.157132
O O4 0.200802 0.949180 0.080210
O O5 0.500000 0.000000 0.503987
O O6 0.788126 0.000000 0.468361
O O7 0.500000 0.704733 0.832046
O O8 0.750000 0.750000 0.832645
O O9 0.733942 0.645796 0.816898
O O10 0.658061 0.706377 0.711452
O O11 0.249488 0.949859 0.848632
O O12 0.000000 0.915368 0.789455
O O13 0.000000 0.500000 0.869756
O O14 0.250000 0.750000 0.091782
O O15 0.000000 0.695578 0.092945
#
# Coordination Sequence:
#
# PCOD8186092 Si02
#       6
#    16   8  16  16   8  16
#     4  10  19  33  55  82 109 138 176 218 260 311
#     4  10  23  40  55  73 103 141 175 214 267 320
#     4   8  15  26  44  72 103 135 166 201 248 299
#     4  10  20  35  55  79 109 142 174 212 261 313
#     4  12  25  38  55  77 101 135 179 224 267 312
#     4   9  16  27  45  73 107 140 173 212 261 309
#
# _framework density 18.796527999999999
#
# number of rings (size 3 to 8) (size 9 to 14) (size 15 to 20)
#    0.000    2.400    0.000    4.500    0.000    8.000 
#    0.000    0.000    0.000    1.200    0.000    5.600 
#    0.000    0.000    0.000    0.000    0.000    0.000 
#
# Total GULP energy -247938.465117 kJ/mol
# GULP energy per Si atom -12396.923256 kJ/mol
# Density = 1.875375 g / cm^3
# Si number density = 18.796528 Si / 1000 Ang^3
#
#
#
# Elastic Constant Matrix: (Units=GPa)
#
#
# Indices 1 2 3 4 5 6 
#
# 1 126.5750 70.8749 38.9976 0.0000 0.0000 0.0000
# 2 70.8749 165.3290 47.9461 0.0000 0.0000 0.0000
# 3 38.9976 47.9461 54.5585 0.0000 0.0000 0.0000
# 4 0.0000 0.0000 0.0000 -6.2762 0.0000 0.0000
# 5 0.0000 0.0000 0.0000 0.0000 23.1481 0.0000
# 6 0.0000 0.0000 0.0000 0.0000 0.0000 31.4464
#
#
#
# Elastic Compliance Matrix: (Units=1/GPa)
#
#
# Indices 1 2 3 4 5 6 
#
# 1 0.011386 -0.003383 -0.005166 0.000000 0.000000 0.000000
# 2 -0.003383 0.009122 -0.005599 0.000000 0.000000 0.000000
# 3 -0.005166 -0.005599 0.026941 0.000000 0.000000 0.000000
# 4 0.000000 0.000000 0.000000 -0.159333 0.000000 0.000000
# 5 0.000000 0.000000 0.000000 0.000000 0.043200 0.000000
# 6 0.000000 0.000000 0.000000 0.000000 0.000000 0.031800
#
#
# Mechanical properties :
#
#
# Convention : Reuss Voigt Hill
#
# Bulk Modulus (GPa) = 52.20489 73.56665 62.88577
# Shear Modulus (GPa) = -2270.25493 22.23992 -1124.00750
#
# Velocity S-wave (km/s) = -34.79120 3.44349 -24.48030
# Velocity P-wave (km/s) = 39.82549 7.41846 27.66799
#
# Compressibility (1/GPa) = 0.01915530
#
# Stress axis : x y z
#
# Youngs Moduli (GPa) = 87.82427 109.61914 37.11763
#
# Poissons Ratio (x) = 0.37086 0.19174
# Poissons Ratio (y) = 0.29712 0.20781
# Poissons Ratio (z) = 0.45367 0.61372
#
# Static dielectric constant tensor:
#      x y z
#    x 3.701670 0.000000 0.000000 
#    y 0.000000 3.826500 0.000000 
#    z 0.000000 0.000000 2.885810 
# 
# 
# High freq. dielectric constant tensor:
#      x y z
#    x 1.741600 0.000000 0.000000 
#    y 0.000000 1.754210 0.000000 
#    z 0.000000 0.000000 1.670710 
# 
# From -- ./inp_files/18244.got.cif
#   From: 2010.03.12/outbox.cif.g09.slc.cpg/sg42_10_cif.got.tgz:18244.got - 2010.04.14 02:04:31.
