data_PCOD8186422
_publ_section_title
;
Structure prediction by ZEFSAII (Michael W. Deem and Ramdas Pophale) SiO2 
 PCOD8186422
Probable space group: F M M 2
;
_chemical_formula_sum "Si O2"
_cell_formula_units_Z 96
_cell_length_a 8.623956
_cell_length_b 30.625649
_cell_length_c 18.915092
_cell_angle_alpha 90.000000
_cell_angle_beta 90.000000
_cell_angle_gamma 90.000000
_cell_volume 4995.745327
_symmetry_space_group_name_H-M "F M M 2"
_symmetry_group_IT_number 42
_symmetry_cell_setting 'orthorhombic'
loop_
_space_group_symop_operation_xyz
x,y,z
-x,-y,z
-x,y,z
x,-y,z
x,1/2+y,1/2+z
-x,1/2-y,1/2+z
-x,1/2+y,1/2+z
x,1/2-y,1/2+z
1/2+x,y,1/2+z
1/2-x,-y,1/2+z
1/2-x,y,1/2+z
1/2+x,-y,1/2+z
1/2+x,1/2+y,z
1/2-x,1/2-y,z
1/2-x,1/2+y,z
1/2+x,1/2-y,z
loop_
_atom_site_type_symbol
_atom_site_label
_atom_site_fract_x
_atom_site_fract_y
_atom_site_fract_z
Si Si1 0.682244 0.874492 0.640660
Si Si2 0.817587 0.871112 0.793553
Si Si3 0.818725 0.796328 0.036672
Si Si4 0.816121 0.951454 0.041827
Si Si5 0.182618 0.703033 0.887605
Si Si6 0.815700 0.548241 0.383879
O O1 0.500000 0.878823 0.657326
O O2 0.780439 0.873001 0.711413
O O3 0.718807 0.830742 0.597516
O O4 0.747535 0.915733 0.596466
O O5 0.730987 0.830143 0.826824
O O6 0.752666 0.915338 0.830039
O O7 0.000000 0.865801 0.805764
O O8 0.750000 0.750000 0.060704
O O9 0.745461 0.813047 0.963386
O O10 0.000000 0.791074 0.023579
O O11 0.000000 0.948339 0.039866
O O12 0.763125 0.000000 0.065940
O O13 0.752982 0.941511 0.962897
O O14 0.250000 0.750000 0.867367
O O15 0.000000 0.706669 0.891464
O O16 0.757280 0.500000 0.359987
O O17 0.000000 0.548686 0.384705
#
# Coordination Sequence:
#
# PCOD8186422 Si02
#       6
#    16  16  16  16  16  16
#     4  10  21  35  51  76 110 145 180 220 268 320
#     4  11  22  35  53  79 112 148 184 222 268 320
#     4  10  20  36  58  81 106 137 176 221 267 318
#     4   8  14  28  52  77 100 132 177 225 270 318
#     4  11  22  38  60  83 108 138 177 223 270 322
#     4   8  15  30  53  79 105 138 182 227 269 315
#
# _framework density 19.216352000000001
#
# number of rings (size 3 to 8) (size 9 to 14) (size 15 to 20)
#    0.000    2.333    0.000    5.500    0.000    5.333 
#    0.000    1.667    0.000    1.500    0.000    4.667 
#    0.000    0.000    0.000    0.000    0.000    0.000 
#
# Total GULP energy -297591.092840 kJ/mol
# GULP energy per Si atom -12399.628868 kJ/mol
# Density = 1.917261 g / cm^3
# Si number density = 19.216352 Si / 1000 Ang^3
#
#
#
# Elastic Constant Matrix: (Units=GPa)
#
#
# Indices 1 2 3 4 5 6 
#
# 1 72.4614 44.3070 38.8348 0.0000 0.0000 0.0000
# 2 44.3070 139.4726 86.3236 0.0000 0.0000 0.0000
# 3 38.8348 86.3236 129.6773 0.0000 0.0000 0.0000
# 4 0.0000 0.0000 0.0000 19.4869 0.0000 0.0000
# 5 0.0000 0.0000 0.0000 0.0000 29.7868 0.0000
# 6 0.0000 0.0000 0.0000 0.0000 0.0000 16.9947
#
#
#
# Elastic Compliance Matrix: (Units=1/GPa)
#
#
# Indices 1 2 3 4 5 6 
#
# 1 0.017643 -0.003971 -0.002641 0.000000 0.000000 0.000000
# 2 -0.003971 0.013087 -0.007523 0.000000 0.000000 0.000000
# 3 -0.002641 -0.007523 0.013510 0.000000 0.000000 0.000000
# 4 0.000000 0.000000 0.000000 0.051317 0.000000 0.000000
# 5 0.000000 0.000000 0.000000 0.000000 0.033572 0.000000
# 6 0.000000 0.000000 0.000000 0.000000 0.000000 0.058842
#
#
# Mechanical properties :
#
#
# Convention : Reuss Voigt Hill
#
# Bulk Modulus (GPa) = 62.60664 75.61582 69.11123
# Shear Modulus (GPa) = 22.56688 24.73007 23.64847
#
# Velocity S-wave (km/s) = 3.43061 3.59127 3.51186
# Velocity P-wave (km/s) = 6.95289 7.52539 7.24480
#
# Compressibility (1/GPa) = 0.01597275
#
# Stress axis : x y z
#
# Youngs Moduli (GPa) = 56.67820 76.40958 74.01859
#
# Poissons Ratio (x) = 0.30339 0.19546
# Poissons Ratio (y) = 0.22504 0.55684
# Poissons Ratio (z) = 0.14967 0.57482
#
# Static dielectric constant tensor:
#      x y z
#    x 3.206150 0.000000 0.000000 
#    y 0.000000 3.897430 0.000000 
#    z 0.000000 0.000000 3.504160 
# 
# 
# High freq. dielectric constant tensor:
#      x y z
#    x 1.720570 0.000000 0.000000 
#    y 0.000000 1.764100 0.000000 
#    z 0.000000 0.000000 1.744560 
# 
# From -- ./inp_files/23714.got.cif
#   From: 2010.03.12/outbox.cif.g09.slc.cpg/sg42_12_cif.got.tgz:23714.got - 2010.04.14 02:04:31.
