data_PCOD8186595
_publ_section_title
;
Structure prediction by ZEFSAII (Michael W. Deem and Ramdas Pophale) SiO2 
 PCOD8186595
Probable space group: F M M 2
;
_chemical_formula_sum "Si O2"
_cell_formula_units_Z 96
_cell_length_a 23.454985
_cell_length_b 8.824036
_cell_length_c 25.183835
_cell_angle_alpha 90.000000
_cell_angle_beta 90.000000
_cell_angle_gamma 90.000000
_cell_volume 5212.238695
_symmetry_space_group_name_H-M "F M M 2"
_symmetry_group_IT_number 42
_symmetry_cell_setting 'orthorhombic'
loop_
_space_group_symop_operation_xyz
x,y,z
-x,-y,z
-x,y,z
x,-y,z
x,1/2+y,1/2+z
-x,1/2-y,1/2+z
-x,1/2+y,1/2+z
x,1/2-y,1/2+z
1/2+x,y,1/2+z
1/2-x,-y,1/2+z
1/2-x,y,1/2+z
1/2+x,-y,1/2+z
1/2+x,1/2+y,z
1/2-x,1/2-y,z
1/2-x,1/2+y,z
1/2+x,1/2-y,z
loop_
_atom_site_type_symbol
_atom_site_label
_atom_site_fract_x
_atom_site_fract_y
_atom_site_fract_z
Si Si1 0.189439 0.175640 0.392850
Si Si2 0.808998 0.821517 0.585949
Si Si3 0.500000 0.320441 0.337052
Si Si4 0.390425 0.325595 0.493600
Si Si5 0.884755 0.821579 0.802012
Si Si6 0.500000 0.176875 0.452236
Si Si7 0.191572 0.676967 0.205252
O O1 0.250000 0.250000 0.403974
O O2 0.152594 0.196202 0.445330
O O3 0.159208 0.263053 0.345413
O O4 0.196564 0.000000 0.377430
O O5 0.750000 0.750000 0.566115
O O6 0.859879 0.769472 0.547435
O O7 0.823685 0.766612 0.645783
O O8 0.801264 0.000000 0.582388
O O9 0.500000 0.500000 0.336679
O O10 0.555031 0.260800 0.306387
O O11 0.500000 0.268518 0.397670
O O12 0.410304 0.500000 0.497832
O O13 0.444852 0.219262 0.486397
O O14 0.860166 0.779974 0.744064
O O15 0.893562 0.000000 0.809763
O O16 0.500000 0.000000 0.438957
O O17 0.202710 0.500000 0.205605
O O18 0.250000 0.750000 0.226182
#
# Coordination Sequence:
#
# PCOD8186595 Si02
#       7
#    16  16   8  16  16   8  16
#     4  11  22  34  52  80 113 146 181 228 279 336
#     4   9  18  35  58  84 113 149 186 227 276 327
#     4  12  24  40  59  80 109 147 188 230 282 339
#     4  10  21  37  57  80 111 148 187 228 276 330
#     4  11  22  37  57  82 111 146 188 233 278 332
#     4  12  24  38  59  82 109 147 188 230 278 331
#     4   9  19  35  57  84 114 147 187 228 275 329
#
# _framework density 18.418189000000002
#
# number of rings (size 3 to 8) (size 9 to 14) (size 15 to 20)
#    0.000    1.667    1.667    3.500    0.000    4.000 
#    0.000    0.833    0.000    5.000    0.000    0.000 
#    0.000    0.000    0.000    0.000    0.000    0.000 
#
# Total GULP energy -297683.990298 kJ/mol
# GULP energy per Si atom -12403.499596 kJ/mol
# Density = 1.837627 g / cm^3
# Si number density = 18.418189 Si / 1000 Ang^3
#
#
#
# Elastic Constant Matrix: (Units=GPa)
#
#
# Indices 1 2 3 4 5 6 
#
# 1 143.1069 62.0992 63.5028 0.0000 0.0000 0.0001
# 2 62.0992 93.5287 47.8834 0.0000 0.0000 0.0001
# 3 63.5028 47.8834 106.3762 0.0000 0.0000 0.0000
# 4 0.0000 0.0000 0.0000 23.5580 0.0000 0.0000
# 5 0.0000 0.0000 0.0000 0.0000 29.4683 0.0000
# 6 0.0001 0.0001 0.0000 0.0000 0.0000 42.7739
#
#
#
# Elastic Compliance Matrix: (Units=1/GPa)
#
#
# Indices 1 2 3 4 5 6 
#
# 1 0.011162 -0.005197 -0.004324 0.000000 0.000000 0.000000
# 2 -0.005197 0.016314 -0.004241 0.000000 0.000000 0.000000
# 3 -0.004324 -0.004241 0.013891 0.000000 0.000000 0.000000
# 4 0.000000 0.000000 0.000000 0.042448 0.000000 0.000000
# 5 0.000000 0.000000 0.000000 0.000000 0.033935 0.000000
# 6 0.000000 0.000000 0.000000 0.000000 0.000000 0.023379
#
#
# Mechanical properties :
#
#
# Convention : Reuss Voigt Hill
#
# Bulk Modulus (GPa) = 72.24076 76.66475 74.45275
# Shear Modulus (GPa) = 28.85740 30.46179 29.65959
#
# Velocity S-wave (km/s) = 3.96256 4.07123 4.01726
# Velocity P-wave (km/s) = 7.76167 7.98841 7.87586
#
# Compressibility (1/GPa) = 0.01384260
#
# Stress axis : x y z
#
# Youngs Moduli (GPa) = 89.59227 61.29752 71.99137
#
# Poissons Ratio (x) = 0.31859 0.31126
# Poissons Ratio (y) = 0.46564 0.30530
# Poissons Ratio (z) = 0.38736 0.25995
#
# Static dielectric constant tensor:
#      x y z
#    x 3.453920 0.000000 0.000000 
#    y 0.000000 3.451050 0.000000 
#    z 0.000000 0.000000 3.707810 
# 
# 
# High freq. dielectric constant tensor:
#      x y z
#    x 1.716780 0.000000 0.000000 
#    y 0.000000 1.718910 0.000000 
#    z 0.000000 0.000000 1.717010 
# 
# From -- ./inp_files/28110.got.cif
#   From: 2010.03.12/outbox.cif.g09.slc.cpg/sg42_15_cif.got.tgz:28110.got - 2010.04.14 02:04:31.
