data_PCOD8186910
_publ_section_title
;
Structure prediction by ZEFSAII (Michael W. Deem and Ramdas Pophale) SiO2 
 PCOD8186910
Probable space group: F D D 2
;
_chemical_formula_sum "Si O2"
_cell_formula_units_Z 128
_cell_length_a 20.180038
_cell_length_b 15.980310
_cell_length_c 21.507030
_cell_angle_alpha 90.000000
_cell_angle_beta 90.000000
_cell_angle_gamma 90.000000
_cell_volume 6935.657213
_symmetry_space_group_name_H-M "F D D 2"
_symmetry_group_IT_number 43
_symmetry_cell_setting 'orthorhombic'
loop_
_space_group_symop_operation_xyz
x,y,z
-x,-y,z
1/4-x,1/4+y,1/4+z
1/4+x,1/4-y,1/4+z
x,1/2+y,1/2+z
-x,1/2-y,1/2+z
1/4-x,3/4+y,3/4+z
1/4+x,3/4-y,3/4+z
1/2+x,y,1/2+z
1/2-x,-y,1/2+z
3/4-x,1/4+y,3/4+z
3/4+x,1/4-y,3/4+z
1/2+x,1/2+y,z
1/2-x,1/2-y,z
3/4-x,3/4+y,1/4+z
3/4+x,3/4-y,1/4+z
loop_
_atom_site_type_symbol
_atom_site_label
_atom_site_fract_x
_atom_site_fract_y
_atom_site_fract_z
Si Si1 0.876931 0.365824 0.754610
Si Si2 0.961486 0.244405 0.054896
Si Si3 0.995615 0.407206 0.117026
Si Si4 0.178234 0.913125 0.878384
Si Si5 0.888402 0.414774 0.367610
Si Si6 0.271026 0.657987 0.506151
Si Si7 0.003991 0.340535 0.440813
Si Si8 0.418728 0.202367 0.319866
O O1 0.861787 0.453569 0.792286
O O2 0.930836 0.373998 0.698870
O O3 0.806475 0.343207 0.720994
O O4 0.902020 0.296993 0.802250
O O5 0.956813 0.342932 0.071490
O O6 0.998290 0.194755 0.111010
O O7 0.007722 0.232271 0.993037
O O8 0.957932 0.407587 0.183725
O O9 0.000000 0.500000 0.087523
O O10 0.070453 0.381904 0.128883
O O11 0.152077 0.842394 0.831058
O O12 0.123542 0.986665 0.873209
O O13 0.916903 0.386087 0.300468
O O14 0.936997 0.387659 0.423395
O O15 0.250000 0.750000 0.528232
O O16 0.210344 0.593074 0.515445
O O17 0.036972 0.296036 0.381563
#
# Coordination Sequence:
#
# PCOD8186910 Si02
#       8
#    16  16  16  16  16  16  16  16
#     4   9  20  32  50  79 114 145 178 221 277 334
#     4   9  20  35  48  77 111 138 188 230 272 333
#     4  10  22  36  56  79 105 147 191 232 278 333
#     4  10  19  28  51  80 110 143 175 219 281 339
#     4  10  19  34  51  82 118 139 173 234 285 340
#     4  10  19  31  52  82 113 142 177 222 286 339
#     4   8  20  32  52  77 110 148 178 224 288 332
#     4  10  17  30  49  80 111 147 172 214 275 345
#
# _framework density 18.455352000000001
#
# number of rings (size 3 to 8) (size 9 to 14) (size 15 to 20)
#    0.750    1.750    1.250    1.500    3.500    2.500 
#    0.000    1.250    0.000    0.000    3.250    0.000 
#    0.000    0.000    0.000    0.000    0.000    0.000 
#
# Total GULP energy -396439.578128 kJ/mol
# GULP energy per Si atom -12388.736816 kJ/mol
# Density = 1.841335 g / cm^3
# Si number density = 18.455352 Si / 1000 Ang^3
#
#
#
# Elastic Constant Matrix: (Units=GPa)
#
#
# Indices 1 2 3 4 5 6 
#
# 1 32.8880 14.7660 16.8094 0.0000 0.0000 0.0000
# 2 14.7660 95.7346 45.6252 0.0000 0.0000 0.0000
# 3 16.8094 45.6252 82.1380 0.0000 0.0000 0.0000
# 4 0.0000 0.0000 0.0000 30.0264 0.0000 0.0000
# 5 0.0000 0.0000 0.0000 0.0000 15.1964 0.0000
# 6 0.0000 0.0000 0.0000 0.0000 0.0000 22.1478
#
#
#
# Elastic Compliance Matrix: (Units=1/GPa)
#
#
# Indices 1 2 3 4 5 6 
#
# 1 0.034448 -0.002657 -0.005574 0.000000 0.000000 0.000000
# 2 -0.002657 0.014411 -0.007461 0.000000 0.000000 0.000000
# 3 -0.005574 -0.007461 0.017460 0.000000 0.000000 0.000000
# 4 0.000000 0.000000 0.000000 0.033304 0.000000 0.000000
# 5 0.000000 0.000000 0.000000 0.000000 0.065805 0.000000
# 6 0.000000 0.000000 0.000000 0.000000 0.000000 0.045151
#
#
# Mechanical properties :
#
#
# Convention : Reuss Voigt Hill
#
# Bulk Modulus (GPa) = 28.62461 40.57352 34.59907
# Shear Modulus (GPa) = 19.71545 22.37813 21.04679
#
# Velocity S-wave (km/s) = 3.27200 3.48595 3.38067
# Velocity P-wave (km/s) = 5.46063 6.18344 5.83324
#
# Compressibility (1/GPa) = 0.03493498
#
# Stress axis : x y z
#
# Youngs Moduli (GPa) = 29.02930 69.39030 57.27429
#
# Poissons Ratio (x) = 0.18436 0.31924
# Poissons Ratio (y) = 0.07713 0.42734
# Poissons Ratio (z) = 0.16181 0.51774
#
# Static dielectric constant tensor:
#      x y z
#    x 3.064060 0.000000 0.000000 
#    y 0.000000 3.291240 0.000000 
#    z 0.000000 0.000000 3.475920 
# 
# 
# High freq. dielectric constant tensor:
#      x y z
#    x 1.681770 0.000000 0.000000 
#    y 0.000000 1.692360 0.000000 
#    z 0.000000 0.000000 1.721040 
# 
# From -- ./inp_files/22491.got.cif
#   From: 2010.06.25/outbox.cif.g09.slc.cpg/sg43_12_cif.got.tgz:22491.got - 2010.06.26 16:48:59.
