data_PCOD8186106
_publ_section_title
;
Structure prediction by ZEFSAII (Michael W. Deem and Ramdas Pophale) SiO2 
 PCOD8186106
Probable space group: F M M 2
;
_chemical_formula_sum "Si O2"
_cell_formula_units_Z 112
_cell_length_a 17.499564
_cell_length_b 16.870633
_cell_length_c 20.412647
_cell_angle_alpha 90.000000
_cell_angle_beta 90.000000
_cell_angle_gamma 90.000000
_cell_volume 6026.399684
_symmetry_space_group_name_H-M "F M M 2"
_symmetry_group_IT_number 42
_symmetry_cell_setting 'orthorhombic'
loop_
_space_group_symop_operation_xyz
x,y,z
-x,-y,z
-x,y,z
x,-y,z
x,1/2+y,1/2+z
-x,1/2-y,1/2+z
-x,1/2+y,1/2+z
x,1/2-y,1/2+z
1/2+x,y,1/2+z
1/2-x,-y,1/2+z
1/2-x,y,1/2+z
1/2+x,-y,1/2+z
1/2+x,1/2+y,z
1/2-x,1/2-y,z
1/2-x,1/2+y,z
1/2+x,1/2-y,z
loop_
_atom_site_type_symbol
_atom_site_label
_atom_site_fract_x
_atom_site_fract_y
_atom_site_fract_z
Si Si1 0.090426 0.696240 0.710070
Si Si2 0.790275 0.090423 0.153006
Si Si3 0.692888 0.676864 0.754638
Si Si4 0.586606 0.816062 0.952272
Si Si5 0.266764 0.340683 0.523904
Si Si6 0.684955 0.314559 0.899789
Si Si7 0.587681 0.913825 0.825469
O O1 0.136580 0.650281 0.652775
O O2 0.115437 0.787866 0.720668
O O3 0.121339 0.649408 0.774677
O O4 0.000000 0.692478 0.696644
O O5 0.727847 0.107931 0.209717
O O6 0.750172 0.100270 0.082854
O O7 0.818339 0.000000 0.160846
O O8 0.750000 0.750000 0.756224
O O9 0.675360 0.643096 0.828611
O O10 0.500000 0.812438 0.978460
O O11 0.606992 0.729819 0.921427
O O12 0.598011 0.883561 0.898357
O O13 0.642278 0.842802 0.010522
O O14 0.250000 0.250000 0.543855
O O15 0.216103 0.368904 0.460058
O O16 0.750000 0.250000 0.890744
O O17 0.500000 0.923307 0.806879
O O18 0.628215 0.000000 0.818416
#
# Coordination Sequence:
#
# PCOD8186106 Si02
#       7
#    16  16  16  16  16  16  16
#     4  10  19  33  57  83 106 138 182 232 282 327
#     4  11  23  37  52  75 114 154 187 229 278 331
#     4   9  17  32  55  78 106 141 180 224 270 330
#     4   9  16  28  51  77 101 132 174 226 276 322
#     4   9  19  35  51  71 104 145 187 229 266 322
#     4   8  15  29  50  73 101 133 176 224 268 321
#     4   9  16  25  41  75 114 135 155 205 278 337
#
# _framework density 18.584893999999998
#
# number of rings (size 3 to 8) (size 9 to 14) (size 15 to 20)
#    0.000    3.000    1.429    1.714    2.000    1.429 
#    0.000    7.143    0.000    1.286    0.000    0.000 
#    0.000    4.571    0.000    0.000    0.000    0.000 
#
# Total GULP energy -346883.944457 kJ/mol
# GULP energy per Si atom -12388.712302 kJ/mol
# Density = 1.854259 g / cm^3
# Si number density = 18.584894 Si / 1000 Ang^3
#
#
#
# Elastic Constant Matrix: (Units=GPa)
#
#
# Indices 1 2 3 4 5 6 
#
# 1 105.1735 22.5391 38.2084 0.0000 0.0000 0.0000
# 2 22.5391 39.4094 18.8524 0.0000 0.0000 0.0000
# 3 38.2084 18.8524 104.3001 0.0000 0.0000 0.0000
# 4 0.0000 0.0000 0.0000 8.0340 0.0000 0.0000
# 5 0.0000 0.0000 0.0000 0.0000 20.3198 0.0000
# 6 0.0000 0.0000 0.0000 0.0000 0.0000 13.7980
#
#
#
# Elastic Compliance Matrix: (Units=1/GPa)
#
#
# Indices 1 2 3 4 5 6 
#
# 1 0.011850 -0.005146 -0.003411 0.000000 0.000000 0.000000
# 2 -0.005146 0.030011 -0.003539 0.000000 0.000000 0.000000
# 3 -0.003411 -0.003539 0.011477 0.000000 0.000000 0.000000
# 4 0.000000 0.000000 0.000000 0.124472 0.000000 0.000000
# 5 0.000000 0.000000 0.000000 0.000000 0.049213 0.000000
# 6 0.000000 0.000000 0.000000 0.000000 0.000000 0.072474
#
#
# Mechanical properties :
#
#
# Convention : Reuss Voigt Hill
#
# Bulk Modulus (GPa) = 34.31036 45.34252 39.82644
# Shear Modulus (GPa) = 14.99683 19.71589 17.35636
#
# Velocity S-wave (km/s) = 2.84374 3.26061 3.05929
# Velocity P-wave (km/s) = 5.41147 6.21498 5.82709
#
# Compressibility (1/GPa) = 0.02914572
#
# Stress axis : x y z
#
# Youngs Moduli (GPa) = 84.38835 33.32144 87.13060
#
# Poissons Ratio (x) = 0.17146 0.29720
# Poissons Ratio (y) = 0.43422 0.30840
# Poissons Ratio (z) = 0.28784 0.11794
#
# Static dielectric constant tensor:
#      x y z
#    x 3.507900 0.000000 0.000000 
#    y 0.000000 3.213160 0.000000 
#    z 0.000000 0.000000 3.702950 
# 
# 
# High freq. dielectric constant tensor:
#      x y z
#    x 1.709540 0.000000 0.000000 
#    y 0.000000 1.674580 0.000000 
#    z 0.000000 0.000000 1.719960 
# 
# From -- ./inp_files/26078.got.cif
#   From: 2010.03.12/outbox.cif.g09.slc.cpg/sg42_14_cif.got.tgz:26078.got - 2010.04.14 02:04:31.
