data_PCOD8186955
_publ_section_title
;
Structure prediction by ZEFSAII (Michael W. Deem and Ramdas Pophale) SiO2 
 PCOD8186955
Probable space group: F D D 2
;
_chemical_formula_sum "Si O2"
_cell_formula_units_Z 112
_cell_length_a 10.847702
_cell_length_b 19.830559
_cell_length_c 25.373397
_cell_angle_alpha 90.000000
_cell_angle_beta 90.000000
_cell_angle_gamma 90.000000
_cell_volume 5458.223530
_symmetry_space_group_name_H-M "F D D 2"
_symmetry_group_IT_number 43
_symmetry_cell_setting 'orthorhombic'
loop_
_space_group_symop_operation_xyz
x,y,z
-x,-y,z
1/4-x,1/4+y,1/4+z
1/4+x,1/4-y,1/4+z
x,1/2+y,1/2+z
-x,1/2-y,1/2+z
1/4-x,3/4+y,3/4+z
1/4+x,3/4-y,3/4+z
1/2+x,y,1/2+z
1/2-x,-y,1/2+z
3/4-x,1/4+y,3/4+z
3/4+x,1/4-y,3/4+z
1/2+x,1/2+y,z
1/2-x,1/2-y,z
3/4-x,3/4+y,1/4+z
3/4+x,3/4-y,1/4+z
loop_
_atom_site_type_symbol
_atom_site_label
_atom_site_fract_x
_atom_site_fract_y
_atom_site_fract_z
Si Si1 0.934810 0.122396 0.282630
Si Si2 0.207221 0.180295 0.726829
Si Si3 0.250000 0.750000 0.969154
Si Si4 0.805066 0.108209 0.383187
Si Si5 0.169267 0.812935 0.695313
Si Si6 0.500000 0.000000 0.151349
Si Si7 0.261018 0.477602 0.044042
Si Si8 0.009108 0.795371 0.916199
O O1 0.821405 0.137084 0.244921
O O2 0.017330 0.067429 0.253458
O O3 0.883566 0.082049 0.334049
O O4 0.013406 0.190159 0.294422
O O5 0.250000 0.250000 0.698929
O O6 0.138998 0.134115 0.684637
O O7 0.121089 0.200248 0.775864
O O8 0.124211 0.750415 0.935360
O O9 0.687328 0.064165 0.400270
O O10 0.765779 0.183899 0.365276
O O11 0.250000 0.750000 0.678458
O O12 0.115366 0.801729 0.754430
O O13 0.254028 0.879781 0.691791
O O14 0.627914 0.988863 0.183802
O O15 0.278367 0.450236 0.103019
#
# Coordination Sequence:
#
# PCOD8186955 Si02
#       8
#    16  16   8  16  16   8  16  16
#     4  11  22  39  61  89 132 169 217 267 329 402
#     4   9  19  35  61  91 114 158 219 260 315 388
#     4  12  28  42  56 105 138 173 216 276 332 404
#     4  10  20  35  63  89 122 166 211 273 320 380
#     4  10  22  41  63  97 133 174 226 278 335 405
#     4  10  18  38  70  93 112 165 222 264 316 380
#     4  10  21  40  71  93 121 179 223 272 339 396
#     4  11  23  43  69  97 134 174 226 275 337 398
#
# _framework density 20.519497000000001
#
# number of rings (size 3 to 8) (size 9 to 14) (size 15 to 20)
#    0.000    1.714    1.429    3.429    4.000    0.000 
#    2.571    0.000    7.857    0.000    0.000    0.000 
#    0.000    0.000    0.000    0.000    0.000    0.000 
#
# Total GULP energy -346943.206299 kJ/mol
# GULP energy per Si atom -12390.828796 kJ/mol
# Density = 2.047279 g / cm^3
# Si number density = 20.519497 Si / 1000 Ang^3
#
#
#
# Elastic Constant Matrix: (Units=GPa)
#
#
# Indices 1 2 3 4 5 6 
#
# 1 94.2722 42.1680 38.2756 0.0000 0.0000 0.0000
# 2 42.1680 105.7021 48.0403 0.0000 0.0000 0.0000
# 3 38.2756 48.0403 102.0880 0.0000 0.0000 0.0000
# 4 0.0000 0.0000 0.0000 11.5449 0.0000 0.0000
# 5 0.0000 0.0000 0.0000 0.0000 20.9648 0.0000
# 6 0.0000 0.0000 0.0000 0.0000 0.0000 32.6662
#
#
#
# Elastic Compliance Matrix: (Units=1/GPa)
#
#
# Indices 1 2 3 4 5 6 
#
# 1 0.013718 -0.003988 -0.003267 0.000000 0.000000 0.000000
# 2 -0.003988 0.013194 -0.004713 0.000000 0.000000 0.000000
# 3 -0.003267 -0.004713 0.013238 0.000000 0.000000 0.000000
# 4 0.000000 0.000000 0.000000 0.086619 0.000000 0.000000
# 5 0.000000 0.000000 0.000000 0.000000 0.047699 0.000000
# 6 0.000000 0.000000 0.000000 0.000000 0.000000 0.030613
#
#
# Mechanical properties :
#
#
# Convention : Reuss Voigt Hill
#
# Bulk Modulus (GPa) = 61.67574 62.11443 61.89509
# Shear Modulus (GPa) = 21.32924 24.60708 22.96816
#
# Velocity S-wave (km/s) = 3.22757 3.46671 3.34927
# Velocity P-wave (km/s) = 6.63415 6.80887 6.72208
#
# Compressibility (1/GPa) = 0.01621383
#
# Stress axis : x y z
#
# Youngs Moduli (GPa) = 72.89922 75.79422 75.53871
#
# Poissons Ratio (x) = 0.30225 0.24675
# Poissons Ratio (y) = 0.29071 0.35605
# Poissons Ratio (z) = 0.23813 0.35725
#
# Static dielectric constant tensor:
#      x y z
#    x 3.756940 0.000000 0.000000 
#    y 0.000000 3.726440 0.000000 
#    z 0.000000 0.000000 3.505860 
# 
# 
# High freq. dielectric constant tensor:
#      x y z
#    x 1.807020 0.000000 0.000000 
#    y 0.000000 1.801330 0.000000 
#    z 0.000000 0.000000 1.786460 
# 
# From -- ./inp_files/18639.got.cif
#   From: 2010.06.25/outbox.cif.g09.slc.cpg/sg43_10_cif.got.tgz:18639.got - 2010.06.26 16:48:59.
