data_PCOD8186149
_publ_section_title
;
Structure prediction by ZEFSAII (Michael W. Deem and Ramdas Pophale) SiO2 
 PCOD8186149
Probable space group: F M M 2
;
_chemical_formula_sum "Si O2"
_cell_formula_units_Z 96
_cell_length_a 8.848747
_cell_length_b 28.119276
_cell_length_c 20.526262
_cell_angle_alpha 90.000000
_cell_angle_beta 90.000000
_cell_angle_gamma 90.000000
_cell_volume 5107.351883
_symmetry_space_group_name_H-M "F M M 2"
_symmetry_group_IT_number 42
_symmetry_cell_setting 'orthorhombic'
loop_
_space_group_symop_operation_xyz
x,y,z
-x,-y,z
-x,y,z
x,-y,z
x,1/2+y,1/2+z
-x,1/2-y,1/2+z
-x,1/2+y,1/2+z
x,1/2-y,1/2+z
1/2+x,y,1/2+z
1/2-x,-y,1/2+z
1/2-x,y,1/2+z
1/2+x,-y,1/2+z
1/2+x,1/2+y,z
1/2-x,1/2-y,z
1/2-x,1/2+y,z
1/2+x,1/2-y,z
loop_
_atom_site_type_symbol
_atom_site_label
_atom_site_fract_x
_atom_site_fract_y
_atom_site_fract_z
Si Si1 0.678611 0.609277 0.752280
Si Si2 0.679649 0.947186 0.377750
Si Si3 0.823919 0.555456 0.634136
Si Si4 0.678122 0.799589 0.803836
Si Si5 0.822499 0.109482 0.002220
Si Si6 0.677691 0.700556 0.453277
O O1 0.500000 0.616353 0.753765
O O2 0.738418 0.579390 0.813754
O O3 0.724407 0.581029 0.688174
O O4 0.757047 0.660616 0.755344
O O5 0.500000 0.949418 0.378873
O O6 0.740546 0.920625 0.441486
O O7 0.748663 0.000000 0.377135
O O8 0.780359 0.500000 0.630031
O O9 0.781307 0.580178 0.566370
O O10 0.000000 0.561899 0.650524
O O11 0.500000 0.796350 0.795449
O O12 0.750000 0.750000 0.781625
O O13 0.724526 0.811108 0.878583
O O14 0.000000 0.118695 0.996143
O O15 0.739567 0.160183 0.001686
O O16 0.500000 0.704763 0.460966
O O17 0.750000 0.750000 0.475846
#
# Coordination Sequence:
#
# PCOD8186149 Si02
#       6
#    16  16  16  16  16  16
#     4  11  21  35  57  84 115 150 190 235 284 338
#     4   9  17  30  52  81 108 138 184 235 277 324
#     4  10  22  39  58  81 114 156 195 234 284 339
#     4  10  20  35  57  85 117 149 186 231 286 343
#     4  10  19  35  58  82 111 148 191 234 280 334
#     4  10  20  34  56  85 117 148 183 229 284 339
#
# _framework density 18.796433
#
# number of rings (size 3 to 8) (size 9 to 14) (size 15 to 20)
#    0.000    2.000    1.667    2.500    0.000    5.000 
#    0.000    0.833    0.000    6.500    0.000    0.000 
#    0.000    0.000    0.000    0.000    0.000    0.000 
#
# Total GULP energy -297687.419307 kJ/mol
# GULP energy per Si atom -12403.642471 kJ/mol
# Density = 1.875365 g / cm^3
# Si number density = 18.796433 Si / 1000 Ang^3
#
#
#
# Elastic Constant Matrix: (Units=GPa)
#
#
# Indices 1 2 3 4 5 6 
#
# 1 65.1251 55.2384 39.2145 0.0000 0.0000 0.0000
# 2 55.2384 174.6041 65.8500 0.0000 0.0000 0.0000
# 3 39.2145 65.8500 107.4645 0.0000 0.0000 0.0000
# 4 0.0000 0.0000 0.0000 34.7901 0.0000 0.0000
# 5 0.0000 0.0000 0.0000 0.0000 27.0971 0.0000
# 6 0.0000 0.0000 0.0000 0.0000 0.0000 29.8377
#
#
#
# Elastic Compliance Matrix: (Units=1/GPa)
#
#
# Indices 1 2 3 4 5 6 
#
# 1 0.022957 -0.005337 -0.005107 0.000000 0.000000 0.000000
# 2 -0.005337 0.008689 -0.003377 0.000000 0.000000 0.000000
# 3 -0.005107 -0.003377 0.013238 0.000000 0.000000 0.000000
# 4 0.000000 0.000000 0.000000 0.028744 0.000000 0.000000
# 5 0.000000 0.000000 0.000000 0.000000 0.036904 0.000000
# 6 0.000000 0.000000 0.000000 0.000000 0.000000 0.033515
#
#
# Mechanical properties :
#
#
# Convention : Reuss Voigt Hill
#
# Bulk Modulus (GPa) = 57.99491 74.19993 66.09742
# Shear Modulus (GPa) = 28.17922 30.80436 29.49179
#
# Velocity S-wave (km/s) = 3.87612 4.05265 3.96537
# Velocity P-wave (km/s) = 7.13818 7.83964 7.49712
#
# Compressibility (1/GPa) = 0.01724289
#
# Stress axis : x y z
#
# Youngs Moduli (GPa) = 43.56036 115.08601 75.53863
#
# Poissons Ratio (x) = 0.61417 0.38577
# Poissons Ratio (y) = 0.23247 0.25509
# Poissons Ratio (z) = 0.22246 0.38865
#
# Static dielectric constant tensor:
#      x y z
#    x 3.209390 0.000000 0.000000 
#    y 0.000000 3.604770 0.000000 
#    z 0.000000 0.000000 3.350420 
# 
# 
# High freq. dielectric constant tensor:
#      x y z
#    x 1.716830 0.000000 0.000000 
#    y 0.000000 1.747490 0.000000 
#    z 0.000000 0.000000 1.714620 
# 
# From -- ./inp_files/23721.got.cif
#   From: 2010.03.12/outbox.cif.g09.slc.cpg/sg42_12_cif.got.tgz:23721.got - 2010.04.14 02:04:31.
