data_PCOD8186961
_publ_section_title
;
Structure prediction by ZEFSAII (Michael W. Deem and Ramdas Pophale) SiO2 
 PCOD8186961
Probable space group: F D D 2
;
_chemical_formula_sum "Si O2"
_cell_formula_units_Z 120
_cell_length_a 21.668219
_cell_length_b 9.771141
_cell_length_c 26.443321
_cell_angle_alpha 90.000000
_cell_angle_beta 90.000000
_cell_angle_gamma 90.000000
_cell_volume 5598.665151
_symmetry_space_group_name_H-M "F D D 2"
_symmetry_group_IT_number 43
_symmetry_cell_setting 'orthorhombic'
loop_
_space_group_symop_operation_xyz
x,y,z
-x,-y,z
1/4-x,1/4+y,1/4+z
1/4+x,1/4-y,1/4+z
x,1/2+y,1/2+z
-x,1/2-y,1/2+z
1/4-x,3/4+y,3/4+z
1/4+x,3/4-y,3/4+z
1/2+x,y,1/2+z
1/2-x,-y,1/2+z
3/4-x,1/4+y,3/4+z
3/4+x,1/4-y,3/4+z
1/2+x,1/2+y,z
1/2-x,1/2-y,z
3/4-x,3/4+y,1/4+z
3/4+x,3/4-y,1/4+z
loop_
_atom_site_type_symbol
_atom_site_label
_atom_site_fract_x
_atom_site_fract_y
_atom_site_fract_z
Si Si1 0.392080 0.805035 0.904060
Si Si2 0.324041 0.047783 0.444069
Si Si3 0.482189 0.225910 0.951879
Si Si4 0.750000 0.250000 0.759189
Si Si5 0.630647 0.206508 0.386956
Si Si6 0.868719 0.945980 0.046619
Si Si7 0.116874 0.367200 0.025793
Si Si8 0.937617 0.293694 0.182641
O O1 0.347163 0.700552 0.933478
O O2 0.454898 0.844030 0.933590
O O3 0.409460 0.743166 0.849651
O O4 0.357431 0.948704 0.899570
O O5 0.365187 0.943385 0.411555
O O6 0.330850 0.022609 0.503422
O O7 0.253972 0.024890 0.427830
O O8 0.435734 0.236428 0.904316
O O9 0.503780 0.372389 0.971975
O O10 0.449108 0.140890 0.996961
O O11 0.809329 0.238497 0.795351
O O12 0.638598 0.203828 0.326826
O O13 0.684835 0.304715 0.408287
O O14 0.859359 0.784605 0.038710
O O15 0.166853 0.444964 0.991135
#
# Coordination Sequence:
#
# PCOD8186961 Si02
#       8
#    16  16  16   8  16  16  16  16
#     4  12  26  44  68 102 138 182 219 282 352 402
#     4  12  23  46  66 101 137 173 230 282 330 405
#     4  10  21  42  68  98 135 171 226 283 333 404
#     4  10  18  40  62  96 136 160 226 280 320 398
#     4  11  22  44  69 101 128 181 230 278 338 396
#     4  11  23  39  71 101 126 180 229 274 335 404
#     4  10  23  44  69 100 131 179 229 278 346 398
#     4  11  27  44  64  99 144 176 222 285 338 412
#
# _framework density 21.433679999999999
#
# number of rings (size 3 to 8) (size 9 to 14) (size 15 to 20)
#    0.000    1.067    6.667    0.800    3.733    3.200 
#    4.800    0.000    0.000    0.000    0.000    0.000 
#    0.000    0.000    0.000    0.000    0.000    0.000 
#
# Total GULP energy -372072.032523 kJ/mol
# GULP energy per Si atom -12402.401084 kJ/mol
# Density = 2.138490 g / cm^3
# Si number density = 21.433680 Si / 1000 Ang^3
#
#
#
# Elastic Constant Matrix: (Units=GPa)
#
#
# Indices 1 2 3 4 5 6 
#
# 1 72.0224 11.2169 9.7784 0.0000 0.0000 0.0000
# 2 11.2169 48.9522 16.6504 0.0000 0.0000 0.0000
# 3 9.7784 16.6504 132.2064 0.0000 0.0000 0.0000
# 4 0.0000 0.0000 0.0000 30.5831 0.0000 0.0000
# 5 0.0000 0.0000 0.0000 0.0000 23.6554 0.0000
# 6 0.0000 0.0000 0.0000 0.0000 0.0000 24.4903
#
#
#
# Elastic Compliance Matrix: (Units=1/GPa)
#
#
# Indices 1 2 3 4 5 6 
#
# 1 0.014457 -0.003081 -0.000681 0.000000 0.000000 0.000000
# 2 -0.003081 0.021999 -0.002543 0.000000 0.000000 0.000000
# 3 -0.000681 -0.002543 0.007935 0.000000 0.000000 0.000000
# 4 0.000000 0.000000 0.000000 0.032698 0.000000 0.000000
# 5 0.000000 0.000000 0.000000 0.000000 0.042274 0.000000
# 6 0.000000 0.000000 0.000000 0.000000 0.000000 0.040833
#
#
# Mechanical properties :
#
#
# Convention : Reuss Voigt Hill
#
# Bulk Modulus (GPa) = 31.46579 36.49694 33.98136
# Shear Modulus (GPa) = 27.26316 30.11478 28.68897
#
# Velocity S-wave (km/s) = 3.57035 3.75243 3.66252
# Velocity P-wave (km/s) = 5.63107 5.98658 5.81154
#
# Compressibility (1/GPa) = 0.03178055
#
# Stress axis : x y z
#
# Youngs Moduli (GPa) = 69.17121 45.45680 126.03102
#
# Poissons Ratio (x) = 0.14005 0.08586
# Poissons Ratio (y) = 0.21311 0.32046
# Poissons Ratio (z) = 0.04712 0.11558
#
# Static dielectric constant tensor:
#      x y z
#    x 3.856810 0.000000 0.000000 
#    y 0.000000 3.853860 0.000000 
#    z 0.000000 0.000000 3.823930 
# 
# 
# High freq. dielectric constant tensor:
#      x y z
#    x 1.838700 0.000000 0.000000 
#    y 0.000000 1.841090 0.000000 
#    z 0.000000 0.000000 1.838560 
# 
# From -- ./inp_files/26611.got.cif
#   From: 2010.06.25/outbox.cif.g09.slc.cpg/sg43_14_cif.got.tgz:26611.got - 2010.06.26 16:48:59.
