data_PCOD8186308
_publ_section_title
;
Structure prediction by ZEFSAII (Michael W. Deem and Ramdas Pophale) SiO2 
 PCOD8186308
Probable space group: F M M 2
;
_chemical_formula_sum "Si O2"
_cell_formula_units_Z 112
_cell_length_a 20.342500
_cell_length_b 21.418024
_cell_length_c 12.692648
_cell_angle_alpha 90.000000
_cell_angle_beta 90.000000
_cell_angle_gamma 90.000000
_cell_volume 5530.137908
_symmetry_space_group_name_H-M "F M M 2"
_symmetry_group_IT_number 42
_symmetry_cell_setting 'orthorhombic'
loop_
_space_group_symop_operation_xyz
x,y,z
-x,-y,z
-x,y,z
x,-y,z
x,1/2+y,1/2+z
-x,1/2-y,1/2+z
-x,1/2+y,1/2+z
x,1/2-y,1/2+z
1/2+x,y,1/2+z
1/2-x,-y,1/2+z
1/2-x,y,1/2+z
1/2+x,-y,1/2+z
1/2+x,1/2+y,z
1/2-x,1/2-y,z
1/2-x,1/2+y,z
1/2+x,1/2-y,z
loop_
_atom_site_type_symbol
_atom_site_label
_atom_site_fract_x
_atom_site_fract_y
_atom_site_fract_z
Si Si1 0.673152 0.145654 0.321910
Si Si2 0.072470 0.149306 0.161327
Si Si3 0.249055 0.431564 0.667179
Si Si4 0.074834 0.429391 0.460095
Si Si5 0.370039 0.429631 0.322676
Si Si6 0.287750 0.647494 0.477797
Si Si7 0.326366 0.738989 0.646104
O O1 0.695035 0.088458 0.248804
O O2 0.613919 0.120489 0.391069
O O3 0.734785 0.171087 0.391856
O O4 0.646056 0.199909 0.245377
O O5 0.079733 0.092252 0.080319
O O6 0.075017 0.117982 0.278326
O O7 0.129850 0.199340 0.139660
O O8 0.000000 0.180778 0.150068
O O9 0.266733 0.500000 0.625063
O O10 0.180552 0.430669 0.726430
O O11 0.244749 0.385914 0.567842
O O12 0.103822 0.500000 0.452743
O O13 0.000000 0.428865 0.419804
O O14 0.395718 0.500000 0.346911
O O15 0.339288 0.401299 0.428870
O O16 0.328817 0.703943 0.532169
O O17 0.250000 0.750000 0.672104
#
# Coordination Sequence:
#
# PCOD8186308 Si02
#       7
#    16  16  16  16  16  16  16
#     4  10  20  34  55  82 112 146 186 231 281 333
#     4  11  24  40  58  82 112 147 188 234 281 334
#     4   9  17  30  52  84 117 144 177 228 283 332
#     4  10  21  37  58  83 110 144 187 235 288 341
#     4  10  20  35  57  84 112 145 185 229 281 336
#     4  10  20  34  55  84 114 146 185 230 280 332
#     4  11  23  39  58  83 117 153 192 233 278 334
#
# _framework density 20.252659999999999
#
# number of rings (size 3 to 8) (size 9 to 14) (size 15 to 20)
#    0.000    1.857    0.000    5.571    0.000    8.286 
#    0.000    2.143    0.000    0.857    0.000    0.000 
#    0.000    0.000    0.000    0.000    0.000    0.000 
#
# Total GULP energy -347083.378633 kJ/mol
# GULP energy per Si atom -12395.834951 kJ/mol
# Density = 2.020656 g / cm^3
# Si number density = 20.252660 Si / 1000 Ang^3
#
#
#
# Elastic Constant Matrix: (Units=GPa)
#
#
# Indices 1 2 3 4 5 6 
#
# 1 77.5476 41.5797 23.9247 0.0000 0.0000 0.0000
# 2 41.5797 114.3816 33.9074 0.0000 0.0000 0.0000
# 3 23.9247 33.9074 89.6406 0.0000 0.0000 0.0000
# 4 0.0000 0.0000 0.0000 36.0530 0.0000 0.0000
# 5 0.0000 0.0000 0.0000 0.0000 20.5367 0.0000
# 6 0.0000 0.0000 0.0000 0.0000 0.0000 22.8071
#
#
#
# Elastic Compliance Matrix: (Units=1/GPa)
#
#
# Indices 1 2 3 4 5 6 
#
# 1 0.016463 -0.005273 -0.002399 0.000000 0.000000 0.000000
# 2 -0.005273 0.011536 -0.002956 0.000000 0.000000 0.000000
# 3 -0.002399 -0.002956 0.012914 0.000000 0.000000 0.000000
# 4 0.000000 0.000000 0.000000 0.027737 0.000000 0.000000
# 5 0.000000 0.000000 0.000000 0.000000 0.048693 0.000000
# 6 0.000000 0.000000 0.000000 0.000000 0.000000 0.043846
#
#
# Mechanical properties :
#
#
# Convention : Reuss Voigt Hill
#
# Bulk Modulus (GPa) = 50.87582 53.37705 52.12644
# Shear Modulus (GPa) = 26.45519 28.02322 27.23920
#
# Velocity S-wave (km/s) = 3.61814 3.72382 3.67136
# Velocity P-wave (km/s) = 6.52914 6.70089 6.61557
#
# Compressibility (1/GPa) = 0.01965570
#
# Stress axis : x y z
#
# Youngs Moduli (GPa) = 60.74229 86.68554 77.43429
#
# Poissons Ratio (x) = 0.45712 0.18578
# Poissons Ratio (y) = 0.32032 0.22891
# Poissons Ratio (z) = 0.14573 0.25625
#
# Static dielectric constant tensor:
#      x y z
#    x 3.481430 0.000000 0.000000 
#    y 0.000000 3.914530 0.000000 
#    z 0.000000 0.000000 3.828490 
# 
# 
# High freq. dielectric constant tensor:
#      x y z
#    x 1.761410 0.000000 0.000000 
#    y 0.000000 1.799280 0.000000 
#    z 0.000000 0.000000 1.794460 
# 
# From -- ./inp_files/9672.got.cif
#   From: 2010.03.12/outbox.cif.g09.slc.cpg/sg42_5_cif.got.tgz:9672.got - 2010.04.14 02:04:31.
