data_PCOD8186788
_publ_section_title
;
Structure prediction by ZEFSAII (Michael W. Deem and Ramdas Pophale) SiO2 
 PCOD8186788
Probable space group: F M M 2
;
_chemical_formula_sum "Si O2"
_cell_formula_units_Z 68
_cell_length_a 15.027905
_cell_length_b 11.088971
_cell_length_c 20.060531
_cell_angle_alpha 90.000000
_cell_angle_beta 90.000000
_cell_angle_gamma 90.000000
_cell_volume 3342.967183
_symmetry_space_group_name_H-M "F M M 2"
_symmetry_group_IT_number 42
_symmetry_cell_setting 'orthorhombic'
loop_
_space_group_symop_operation_xyz
x,y,z
-x,-y,z
-x,y,z
x,-y,z
x,1/2+y,1/2+z
-x,1/2-y,1/2+z
-x,1/2+y,1/2+z
x,1/2-y,1/2+z
1/2+x,y,1/2+z
1/2-x,-y,1/2+z
1/2-x,y,1/2+z
1/2+x,-y,1/2+z
1/2+x,1/2+y,z
1/2-x,1/2-y,z
1/2-x,1/2+y,z
1/2+x,1/2-y,z
loop_
_atom_site_type_symbol
_atom_site_label
_atom_site_fract_x
_atom_site_fract_y
_atom_site_fract_z
Si Si1 0.500000 0.000000 0.985841
Si Si2 0.397209 0.000000 0.735826
Si Si3 0.846580 0.801699 0.139745
Si Si4 0.398832 0.132224 0.498588
Si Si5 0.664825 0.000000 0.882932
Si Si6 0.000000 0.128999 0.618449
Si Si7 0.250000 0.250000 0.919705
O O1 0.408796 0.000000 0.942385
O O2 0.500000 0.883497 0.036597
O O3 0.349552 0.881984 0.706100
O O4 0.389584 0.000000 0.814842
O O5 0.500000 0.000000 0.714442
O O6 0.750000 0.750000 0.128046
O O7 0.877153 0.879777 0.076618
O O8 0.912535 0.690446 0.146774
O O9 0.500000 0.173194 0.487613
O O10 0.336869 0.230041 0.464175
O O11 0.382359 0.000000 0.467242
O O12 0.725982 0.123414 0.881848
O O13 0.000000 0.000000 0.653520
#
# Coordination Sequence:
#
# PCOD8186788 Si02
#       7
#     4   8  16  16   8   8   8
#     4  10  24  44  68 102 140 178 222 282 352 402
#     4  12  26  48  71  94 131 190 238 274 334 419
#     4  12  24  40  67  98 137 176 226 287 348 406
#     4  11  22  39  66 103 139 173 218 291 364 409
#     4  12  28  47  68  98 140 191 236 278 331 420
#     4  10  24  40  64 104 138 167 217 287 355 413
#     4  12  26  46  68 104 136 182 232 284 348 416
#
# _framework density 20.34121
#
# number of rings (size 3 to 8) (size 9 to 14) (size 15 to 20)
#    0.353    0.235    6.471    1.412    4.941    0.000 
#    0.000    0.000    0.000    0.000    3.059    0.000 
#    0.000    0.000    0.000    0.000    0.000    0.000 
#
# Total GULP energy -210684.904294 kJ/mol
# GULP energy per Si atom -12393.229664 kJ/mol
# Density = 2.029491 g / cm^3
# Si number density = 20.341210 Si / 1000 Ang^3
#
#
#
# Elastic Constant Matrix: (Units=GPa)
#
#
# Indices 1 2 3 4 5 6 
#
# 1 140.0751 57.4674 11.1345 0.0000 0.0000 0.0000
# 2 57.4674 145.6648 28.3015 0.0000 0.0000 0.0000
# 3 11.1345 28.3015 62.9482 0.0000 0.0000 0.0000
# 4 0.0000 0.0000 0.0000 21.4393 0.0000 0.0000
# 5 0.0000 0.0000 0.0000 0.0000 29.0942 0.0000
# 6 0.0000 0.0000 0.0000 0.0000 0.0000 26.6604
#
#
#
# Elastic Compliance Matrix: (Units=1/GPa)
#
#
# Indices 1 2 3 4 5 6 
#
# 1 0.008518 -0.003361 0.000005 0.000000 0.000000 0.000000
# 2 -0.003361 0.008849 -0.003384 0.000000 0.000000 0.000000
# 3 0.000005 -0.003384 0.017407 0.000000 0.000000 0.000000
# 4 0.000000 0.000000 0.000000 0.046643 0.000000 0.000000
# 5 0.000000 0.000000 0.000000 0.000000 0.034371 0.000000
# 6 0.000000 0.000000 0.000000 0.000000 0.000000 0.037509
#
#
# Mechanical properties :
#
#
# Convention : Reuss Voigt Hill
#
# Bulk Modulus (GPa) = 46.96605 60.27719 53.62162
# Shear Modulus (GPa) = 28.75642 32.22444 30.49043
#
# Velocity S-wave (km/s) = 3.76400 3.98451 3.87583
# Velocity P-wave (km/s) = 6.48302 7.13203 6.81525
#
# Compressibility (1/GPa) = 0.02129198
#
# Stress axis : x y z
#
# Youngs Moduli (GPa) = 117.40316 113.01231 57.44946
#
# Poissons Ratio (x) = 0.37986 -0.00026
# Poissons Ratio (y) = 0.39462 0.19440
# Poissons Ratio (z) = -0.00054 0.38241
#
# Static dielectric constant tensor:
#      x y z
#    x 3.657810 0.000000 0.000000 
#    y 0.000000 3.831410 0.000000 
#    z 0.000000 0.000000 3.293990 
# 
# 
# High freq. dielectric constant tensor:
#      x y z
#    x 1.807570 0.000000 0.000000 
#    y 0.000000 1.818850 0.000000 
#    z 0.000000 0.000000 1.755990 
# 
# From -- ./inp_files/24193.got.cif
#   From: 2010.03.12/outbox.cif.g09.slc.cpg/sg42_13_cif.got.tgz:24193.got - 2010.04.14 02:04:31.
