data_PCOD8186147
_publ_section_title
;
Structure prediction by ZEFSAII (Michael W. Deem and Ramdas Pophale) SiO2 
 PCOD8186147
Probable space group: F M M 2
;
_chemical_formula_sum "Si O2"
_cell_formula_units_Z 112
_cell_length_a 13.346032
_cell_length_b 24.251409
_cell_length_c 18.477534
_cell_angle_alpha 90.000000
_cell_angle_beta 90.000000
_cell_angle_gamma 90.000000
_cell_volume 5980.440143
_symmetry_space_group_name_H-M "F M M 2"
_symmetry_group_IT_number 42
_symmetry_cell_setting 'orthorhombic'
loop_
_space_group_symop_operation_xyz
x,y,z
-x,-y,z
-x,y,z
x,-y,z
x,1/2+y,1/2+z
-x,1/2-y,1/2+z
-x,1/2+y,1/2+z
x,1/2-y,1/2+z
1/2+x,y,1/2+z
1/2-x,-y,1/2+z
1/2-x,y,1/2+z
1/2+x,-y,1/2+z
1/2+x,1/2+y,z
1/2-x,1/2-y,z
1/2-x,1/2+y,z
1/2+x,1/2-y,z
loop_
_atom_site_type_symbol
_atom_site_label
_atom_site_fract_x
_atom_site_fract_y
_atom_site_fract_z
Si Si1 0.617533 0.865421 0.222750
Si Si2 0.245002 0.438440 0.135758
Si Si3 0.382868 0.661994 0.159896
Si Si4 0.222319 0.309375 0.799278
Si Si5 0.384878 0.176016 0.944811
Si Si6 0.381073 0.722138 0.599875
Si Si7 0.888500 0.059838 0.497174
O O1 0.500000 0.867967 0.238454
O O2 0.661534 0.923972 0.196883
O O3 0.676370 0.846826 0.295483
O O4 0.652588 0.822604 0.159807
O O5 0.286207 0.500000 0.152482
O O6 0.335025 0.394691 0.131585
O O7 0.192720 0.437245 0.058852
O O8 0.500000 0.657786 0.145703
O O9 0.362759 0.666482 0.245949
O O10 0.338309 0.716246 0.117257
O O11 0.250000 0.250000 0.768938
O O12 0.183073 0.301795 0.880390
O O13 0.500000 0.193038 0.931541
O O14 0.346191 0.201728 0.020556
O O15 0.371104 0.109698 0.941801
O O16 0.500000 0.724606 0.604018
O O17 0.000000 0.067186 0.531766
O O18 0.880865 0.000000 0.457327
#
# Coordination Sequence:
#
# PCOD8186147 Si02
#       7
#    16  16  16  16  16  16  16
#     4  10  19  35  58  82 110 145 184 227 278 333
#     4  10  20  32  54  86 111 139 189 241 281 322
#     4  10  21  37  56  78 113 155 187 225 279 341
#     4  11  22  34  52  82 113 150 179 222 286 344
#     4  10  20  34  53  83 113 143 186 236 282 328
#     4   9  17  33  58  81 105 141 184 227 274 326
#     4   9  17  32  54  79 110 146 184 235 287 321
#
# _framework density 18.727719
#
# number of rings (size 3 to 8) (size 9 to 14) (size 15 to 20)
#    0.000    2.143    2.857    0.857    0.000    2.857 
#    0.000    2.857    0.000    4.286    0.000    0.000 
#    0.000    0.000    0.000    0.000    0.000    0.000 
#
# Total GULP energy -347051.254393 kJ/mol
# GULP energy per Si atom -12394.687657 kJ/mol
# Density = 1.868509 g / cm^3
# Si number density = 18.727719 Si / 1000 Ang^3
#
#
#
# Elastic Constant Matrix: (Units=GPa)
#
#
# Indices 1 2 3 4 5 6 
#
# 1 63.7513 35.3360 25.7724 0.0000 0.0000 0.0000
# 2 35.3360 124.4405 21.4785 0.0000 0.0000 0.0000
# 3 25.7724 21.4785 73.5280 0.0000 0.0000 0.0000
# 4 0.0000 0.0000 0.0000 14.5145 0.0000 0.0000
# 5 0.0000 0.0000 0.0000 0.0000 24.1985 0.0000
# 6 0.0000 0.0000 0.0000 0.0000 0.0000 27.6004
#
#
#
# Elastic Compliance Matrix: (Units=1/GPa)
#
#
# Indices 1 2 3 4 5 6 
#
# 1 0.020758 -0.004885 -0.005849 0.000000 0.000000 0.000000
# 2 -0.004885 0.009612 -0.001096 0.000000 0.000000 0.000000
# 3 -0.005849 -0.001096 0.015970 0.000000 0.000000 0.000000
# 4 0.000000 0.000000 0.000000 0.068897 0.000000 0.000000
# 5 0.000000 0.000000 0.000000 0.000000 0.041325 0.000000
# 6 0.000000 0.000000 0.000000 0.000000 0.000000 0.036231
#
#
# Mechanical properties :
#
#
# Convention : Reuss Voigt Hill
#
# Bulk Modulus (GPa) = 44.08849 47.43262 45.76056
# Shear Modulus (GPa) = 22.32010 25.20487 23.76249
#
# Velocity S-wave (km/s) = 3.45602 3.67258 3.56594
# Velocity P-wave (km/s) = 6.28637 6.58530 6.43757
#
# Compressibility (1/GPa) = 0.02268166
#
# Stress axis : x y z
#
# Youngs Moduli (GPa) = 48.17402 104.03461 62.61563
#
# Poissons Ratio (x) = 0.50820 0.36624
# Poissons Ratio (y) = 0.23533 0.06860
# Poissons Ratio (z) = 0.28177 0.11398
#
# Static dielectric constant tensor:
#      x y z
#    x 3.373750 0.000000 0.000000 
#    y 0.000000 3.783060 0.000000 
#    z 0.000000 0.000000 3.045020 
# 
# 
# High freq. dielectric constant tensor:
#      x y z
#    x 1.729770 0.000000 0.000000 
#    y 0.000000 1.732730 0.000000 
#    z 0.000000 0.000000 1.691300 
# 
# From -- ./inp_files/14413.got.cif
#   From: 2010.03.12/outbox.cif.g09.slc.cpg/sg42_8_cif.got.tgz:14413.got - 2010.04.14 02:04:31.
