data_PCOD8186203
_publ_section_title
;
Structure prediction by ZEFSAII (Michael W. Deem and Ramdas Pophale) SiO2 
 PCOD8186203
Probable space group: F M M 2
;
_chemical_formula_sum "Si O2"
_cell_formula_units_Z 112
_cell_length_a 23.713472
_cell_length_b 22.757459
_cell_length_c 11.836562
_cell_angle_alpha 90.000000
_cell_angle_beta 90.000000
_cell_angle_gamma 90.000000
_cell_volume 6387.699717
_symmetry_space_group_name_H-M "F M M 2"
_symmetry_group_IT_number 42
_symmetry_cell_setting 'orthorhombic'
loop_
_space_group_symop_operation_xyz
x,y,z
-x,-y,z
-x,y,z
x,-y,z
x,1/2+y,1/2+z
-x,1/2-y,1/2+z
-x,1/2+y,1/2+z
x,1/2-y,1/2+z
1/2+x,y,1/2+z
1/2-x,-y,1/2+z
1/2-x,y,1/2+z
1/2+x,-y,1/2+z
1/2+x,1/2+y,z
1/2-x,1/2-y,z
1/2-x,1/2+y,z
1/2+x,1/2-y,z
loop_
_atom_site_type_symbol
_atom_site_label
_atom_site_fract_x
_atom_site_fract_y
_atom_site_fract_z
Si Si1 0.690513 0.765276 0.378430
Si Si2 0.936552 0.065438 0.358164
Si Si3 0.669319 0.632985 0.718875
Si Si4 0.276153 0.845007 0.579492
Si Si5 0.339089 0.855715 0.809512
Si Si6 0.761203 0.931694 0.894119
Si Si7 0.563690 0.433058 0.624653
O O1 0.750000 0.750000 0.315781
O O2 0.657800 0.813768 0.305545
O O3 0.707558 0.788999 0.502482
O O4 0.654685 0.704976 0.381063
O O5 0.899479 0.114181 0.296002
O O6 0.931824 0.072994 0.491408
O O7 0.000000 0.075792 0.316724
O O8 0.916547 0.000000 0.323510
O O9 0.710272 0.654730 0.617730
O O10 0.699440 0.579495 0.785572
O O11 0.608573 0.611645 0.677427
O O12 0.317498 0.842351 0.684818
O O13 0.288163 0.904446 0.507751
O O14 0.298346 0.899520 0.876698
O O15 0.750710 0.000000 0.912291
O O16 0.500000 0.416345 0.664076
O O17 0.577184 0.500000 0.661642
#
# Coordination Sequence:
#
# PCOD8186203 Si02
#       7
#    16  16  16  16  16  16  16
#     4  11  21  35  50  76 107 140 172 212 257 320
#     4   9  19  36  55  78 106 136 177 222 262 308
#     4  10  20  33  51  75 104 140 174 215 264 311
#     4  10  21  32  50  75 107 136 173 211 264 327
#     4  11  21  33  54  76 103 139 175 214 265 315
#     4  10  20  31  46  75 109 133 166 214 264 320
#     4   9  18  33  55  80 104 136 178 222 267 311
#
# _framework density 17.533697
#
# number of rings (size 3 to 8) (size 9 to 14) (size 15 to 20)
#    0.000    2.000    4.286    2.571    2.000    4.571 
#    0.000    0.714    0.000    4.286    0.000    8.000 
#    0.000    0.000    0.000    0.000    0.000    0.000 
#
# Total GULP energy -347086.731195 kJ/mol
# GULP energy per Si atom -12395.954686 kJ/mol
# Density = 1.749379 g / cm^3
# Si number density = 17.533697 Si / 1000 Ang^3
#
#
#
# Elastic Constant Matrix: (Units=GPa)
#
#
# Indices 1 2 3 4 5 6 
#
# 1 109.0250 59.8823 38.5679 0.0000 0.0000 0.0000
# 2 59.8823 145.6882 48.8108 0.0000 0.0000 0.0000
# 3 38.5679 48.8108 75.4106 -0.0002 0.0001 0.0000
# 4 0.0000 0.0000 -0.0002 17.6052 0.0000 0.0000
# 5 0.0000 0.0000 0.0001 0.0000 18.9313 0.0000
# 6 0.0000 0.0000 0.0000 0.0000 0.0000 29.9171
#
#
#
# Elastic Compliance Matrix: (Units=1/GPa)
#
#
# Indices 1 2 3 4 5 6 
#
# 1 0.012721 -0.003893 -0.003986 0.000000 0.000000 0.000000
# 2 -0.003893 0.009956 -0.004453 0.000000 0.000000 0.000000
# 3 -0.003986 -0.004453 0.018182 0.000000 0.000000 0.000000
# 4 0.000000 0.000000 0.000000 0.056802 0.000000 0.000000
# 5 0.000000 0.000000 0.000000 0.000000 0.052823 0.000000
# 6 0.000000 0.000000 0.000000 0.000000 0.000000 0.033426
#
#
# Mechanical properties :
#
#
# Convention : Reuss Voigt Hill
#
# Bulk Modulus (GPa) = 61.75140 69.40510 65.57825
# Shear Modulus (GPa) = 23.36768 25.48154 24.42461
#
# Velocity S-wave (km/s) = 3.65462 3.81634 3.73635
# Velocity P-wave (km/s) = 7.28721 7.68694 7.48974
#
# Compressibility (1/GPa) = 0.01619396
#
# Stress axis : x y z
#
# Youngs Moduli (GPa) = 78.61310 100.44042 55.00036
#
# Poissons Ratio (x) = 0.39103 0.21923
# Poissons Ratio (y) = 0.30605 0.24493
# Poissons Ratio (z) = 0.31334 0.44728
#
# Static dielectric constant tensor:
#      x y z
#    x 3.179030 0.000000 0.000000 
#    y 0.000000 3.371510 0.000000 
#    z 0.000000 0.000000 3.165380 
# 
# 
# High freq. dielectric constant tensor:
#      x y z
#    x 1.647350 0.000000 0.000000 
#    y 0.000000 1.686310 0.000000 
#    z 0.000000 0.000000 1.670450 
# 
# From -- ./inp_files/9656.got.cif
#   From: 2010.03.12/outbox.cif.g09.slc.cpg/sg42_5_cif.got.tgz:9656.got - 2010.04.14 02:04:31.
