data_PCOD8186107
_publ_section_title
;
Structure prediction by ZEFSAII (Michael W. Deem and Ramdas Pophale) SiO2 
 PCOD8186107
Probable space group: F M M 2
;
_chemical_formula_sum "Si O2"
_cell_formula_units_Z 96
_cell_length_a 27.852835
_cell_length_b 8.894730
_cell_length_c 20.431969
_cell_angle_alpha 90.000000
_cell_angle_beta 90.000000
_cell_angle_gamma 90.000000
_cell_volume 5061.886430
_symmetry_space_group_name_H-M "F M M 2"
_symmetry_group_IT_number 42
_symmetry_cell_setting 'orthorhombic'
loop_
_space_group_symop_operation_xyz
x,y,z
-x,-y,z
-x,y,z
x,-y,z
x,1/2+y,1/2+z
-x,1/2-y,1/2+z
-x,1/2+y,1/2+z
x,1/2-y,1/2+z
1/2+x,y,1/2+z
1/2-x,-y,1/2+z
1/2-x,y,1/2+z
1/2+x,-y,1/2+z
1/2+x,1/2+y,z
1/2-x,1/2-y,z
1/2-x,1/2+y,z
1/2+x,1/2-y,z
loop_
_atom_site_type_symbol
_atom_site_label
_atom_site_fract_x
_atom_site_fract_y
_atom_site_fract_z
Si Si1 0.397203 0.325243 0.833350
Si Si2 0.444024 0.829527 0.952948
Si Si3 0.054496 0.677340 0.711157
Si Si4 0.398473 0.173406 0.088597
Si Si5 0.701378 0.676880 0.897851
Si Si6 0.797848 0.174873 0.536615
O O1 0.404892 0.500000 0.820749
O O2 0.430329 0.277928 0.893672
O O3 0.412503 0.239483 0.768555
O O4 0.341681 0.286869 0.848008
O O5 0.500000 0.818144 0.966135
O O6 0.428499 0.000000 0.935545
O O7 0.417846 0.774241 0.018310
O O8 0.054291 0.500000 0.716021
O O9 0.077224 0.724003 0.642557
O O10 0.000000 0.739487 0.716988
O O11 0.340953 0.197650 0.088226
O O12 0.411831 0.000000 0.102288
O O13 0.708571 0.500000 0.907113
O O14 0.750000 0.750000 0.868962
O O15 0.688814 0.748365 0.967879
O O16 0.750000 0.250000 0.566885
O O17 0.788447 0.000000 0.523039
#
# Coordination Sequence:
#
# PCOD8186107 Si02
#       6
#    16  16  16  16  16  16
#     4  11  23  38  58  85 116 151 192 238 287 342
#     4  10  20  35  57  84 114 148 189 237 287 340
#     4  11  25  42  60  83 114 154 196 240 291 345
#     4  10  21  38  60  85 115 153 193 235 286 343
#     4  10  20  34  56  86 117 150 188 233 286 340
#     4  10  19  33  57  87 118 152 188 231 285 340
#
# _framework density 18.965261000000002
#
# number of rings (size 3 to 8) (size 9 to 14) (size 15 to 20)
#    0.000    1.667    1.667    4.000    0.000    8.333 
#    0.000    0.833    0.000    0.000    0.000    0.000 
#    0.000    0.000    0.000    0.000    0.000    0.000 
#
# Total GULP energy -297670.247989 kJ/mol
# GULP energy per Si atom -12402.927000 kJ/mol
# Density = 1.892210 g / cm^3
# Si number density = 18.965261 Si / 1000 Ang^3
#
#
#
# Elastic Constant Matrix: (Units=GPa)
#
#
# Indices 1 2 3 4 5 6 
#
# 1 114.1325 48.8433 34.0492 0.0000 0.0000 0.0000
# 2 48.8433 86.5869 27.7189 0.0000 0.0000 0.0000
# 3 34.0492 27.7189 58.7510 0.0000 0.0000 0.0000
# 4 0.0000 0.0000 0.0000 34.7489 0.0000 0.0000
# 5 0.0000 0.0000 0.0000 0.0000 29.6920 0.0000
# 6 0.0000 0.0000 0.0000 0.0000 0.0000 31.4855
#
#
#
# Elastic Compliance Matrix: (Units=1/GPa)
#
#
# Indices 1 2 3 4 5 6 
#
# 1 0.012534 -0.005589 -0.004627 0.000000 0.000000 0.000000
# 2 -0.005589 0.016096 -0.004355 0.000000 0.000000 0.000000
# 3 -0.004627 -0.004355 0.021757 0.000000 0.000000 0.000000
# 4 0.000000 0.000000 0.000000 0.028778 0.000000 0.000000
# 5 0.000000 0.000000 0.000000 0.000000 0.033679 0.000000
# 6 0.000000 0.000000 0.000000 0.000000 0.000000 0.031761
#
#
# Mechanical properties :
#
#
# Convention : Reuss Voigt Hill
#
# Bulk Modulus (GPa) = 47.07003 53.41034 50.24019
# Shear Modulus (GPa) = 27.65040 29.10922 28.37981
#
# Velocity S-wave (km/s) = 3.82245 3.92199 3.87254
# Velocity P-wave (km/s) = 6.65992 6.98088 6.82229
#
# Compressibility (1/GPa) = 0.02124494
#
# Stress axis : x y z
#
# Youngs Moduli (GPa) = 79.78273 62.12716 45.96146
#
# Poissons Ratio (x) = 0.34724 0.21267
# Poissons Ratio (y) = 0.44591 0.20016
# Poissons Ratio (z) = 0.36917 0.27056
#
# Static dielectric constant tensor:
#      x y z
#    x 3.793020 0.000000 0.000000 
#    y 0.000000 3.578030 0.000000 
#    z 0.000000 0.000000 3.310110 
# 
# 
# High freq. dielectric constant tensor:
#      x y z
#    x 1.756200 0.000000 0.000000 
#    y 0.000000 1.744260 0.000000 
#    z 0.000000 0.000000 1.716490 
# 
# From -- ./inp_files/23722.got.cif
#   From: 2010.03.12/outbox.cif.g09.slc.cpg/sg42_12_cif.got.tgz:23722.got - 2010.04.14 02:04:31.
