data_PCOD8186846
_publ_section_title
;
Structure prediction by ZEFSAII (Michael W. Deem and Ramdas Pophale) SiO2 
 PCOD8186846
Probable space group: F M M 2
;
_chemical_formula_sum "Si O2"
_cell_formula_units_Z 80
_cell_length_a 15.345279
_cell_length_b 11.709126
_cell_length_c 21.920092
_cell_angle_alpha 90.000000
_cell_angle_beta 90.000000
_cell_angle_gamma 90.000000
_cell_volume 3938.597863
_symmetry_space_group_name_H-M "F M M 2"
_symmetry_group_IT_number 42
_symmetry_cell_setting 'orthorhombic'
loop_
_space_group_symop_operation_xyz
x,y,z
-x,-y,z
-x,y,z
x,-y,z
x,1/2+y,1/2+z
-x,1/2-y,1/2+z
-x,1/2+y,1/2+z
x,1/2-y,1/2+z
1/2+x,y,1/2+z
1/2-x,-y,1/2+z
1/2-x,y,1/2+z
1/2+x,-y,1/2+z
1/2+x,1/2+y,z
1/2-x,1/2-y,z
1/2-x,1/2+y,z
1/2+x,1/2-y,z
loop_
_atom_site_type_symbol
_atom_site_label
_atom_site_fract_x
_atom_site_fract_y
_atom_site_fract_z
Si Si1 0.603328 0.000000 0.319670
Si Si2 0.500000 0.366888 0.365231
Si Si3 0.500000 0.633271 0.221534
Si Si4 0.153038 0.707861 0.402148
Si Si5 0.898497 0.000000 0.683120
Si Si6 0.652718 0.257415 0.650759
Si Si7 0.899440 0.631863 0.533398
O O1 0.637051 0.113297 0.351452
O O2 0.500000 0.000000 0.322839
O O3 0.641969 0.000000 0.251201
O O4 0.500000 0.500000 0.381682
O O5 0.500000 0.345919 0.293132
O O6 0.586114 0.312161 0.394432
O O7 0.500000 0.500000 0.203823
O O8 0.586376 0.691296 0.194797
O O9 0.250000 0.750000 0.392693
O O10 0.143362 0.652450 0.468280
O O11 0.870495 0.109856 0.644881
O O12 0.000000 0.000000 0.692553
O O13 0.750000 0.250000 0.678047
O O14 0.651423 0.205478 0.583248
O O15 0.890183 0.500000 0.551224
O O16 0.000000 0.669590 0.532530
#
# Coordination Sequence:
#
# PCOD8186846 Si02
#       7
#     8   8   8  16   8  16  16
#     4  11  22  44  73  95 133 187 234 267 323 403
#     4  11  26  44  65  99 142 179 217 279 346 395
#     4  11  24  46  69  95 138 185 225 269 332 409
#     4  12  25  44  69 104 134 174 229 284 334 398
#     4  11  24  44  67  97 141 183 220 281 335 389
#     4  12  26  44  67 104 134 176 227 279 337 399
#     4  11  22  44  74  97 129 178 231 277 334 403
#
# _framework density 20.311796000000001
#
# number of rings (size 3 to 8) (size 9 to 14) (size 15 to 20)
#    0.000    0.600    5.000    2.400    4.200    3.200 
#    1.800    0.000    0.000    0.000    0.000    0.000 
#    0.000    0.000    0.000    0.000    0.000    0.000 
#
# Total GULP energy -248124.133096 kJ/mol
# GULP energy per Si atom -12406.206655 kJ/mol
# Density = 2.026557 g / cm^3
# Si number density = 20.311796 Si / 1000 Ang^3
#
#
#
# Elastic Constant Matrix: (Units=GPa)
#
#
# Indices 1 2 3 4 5 6 
#
# 1 153.3165 56.0824 28.7948 0.0000 0.0000 0.0000
# 2 56.0824 146.1958 40.5985 0.0000 0.0000 0.0000
# 3 28.7948 40.5985 90.7584 0.0000 0.0000 0.0000
# 4 0.0000 0.0000 0.0000 50.5925 0.0000 0.0000
# 5 0.0000 0.0000 0.0000 0.0000 16.0198 0.0000
# 6 0.0000 0.0000 0.0000 0.0000 0.0000 28.6725
#
#
#
# Elastic Compliance Matrix: (Units=1/GPa)
#
#
# Indices 1 2 3 4 5 6 
#
# 1 0.007716 -0.002603 -0.001283 0.000000 0.000000 0.000000
# 2 -0.002603 0.008689 -0.003061 0.000000 0.000000 0.000000
# 3 -0.001283 -0.003061 0.012795 0.000000 0.000000 0.000000
# 4 0.000000 0.000000 0.000000 0.019766 0.000000 0.000000
# 5 0.000000 0.000000 0.000000 0.000000 0.062423 0.000000
# 6 0.000000 0.000000 0.000000 0.000000 0.000000 0.034877
#
#
# Mechanical properties :
#
#
# Convention : Reuss Voigt Hill
#
# Bulk Modulus (GPa) = 65.34222 71.24691 68.29456
# Shear Modulus (GPa) = 30.25522 36.70996 33.48259
#
# Velocity S-wave (km/s) = 3.86364 4.25587 4.06449
# Velocity P-wave (km/s) = 7.22102 7.70083 7.46478
#
# Compressibility (1/GPa) = 0.01530404
#
# Stress axis : x y z
#
# Youngs Moduli (GPa) = 129.60361 115.09024 78.15808
#
# Poissons Ratio (x) = 0.29964 0.10031
# Poissons Ratio (y) = 0.33742 0.23922
# Poissons Ratio (z) = 0.16633 0.35226
#
# Static dielectric constant tensor:
#      x y z
#    x 3.216140 0.000000 0.000000 
#    y 0.000000 3.872200 0.000000 
#    z 0.000000 0.000000 3.778510 
# 
# 
# High freq. dielectric constant tensor:
#      x y z
#    x 1.797910 0.000000 0.000000 
#    y 0.000000 1.809450 0.000000 
#    z 0.000000 0.000000 1.800160 
# 
# From -- ./inp_files/28671.got.cif
#   From: 2010.03.12/outbox.cif.g09.slc.cpg/sg42_15_cif.got.tgz:28671.got - 2010.04.14 02:04:31.
