data_PCOD8186096
_publ_section_title
;
Structure prediction by ZEFSAII (Michael W. Deem and Ramdas Pophale) SiO2 
 PCOD8186096
Probable space group: F M M 2
;
_chemical_formula_sum "Si O2"
_cell_formula_units_Z 128
_cell_length_a 17.790408
_cell_length_b 19.800379
_cell_length_c 19.671553
_cell_angle_alpha 90.000000
_cell_angle_beta 90.000000
_cell_angle_gamma 90.000000
_cell_volume 6929.438723
_symmetry_space_group_name_H-M "F M M 2"
_symmetry_group_IT_number 42
_symmetry_cell_setting 'orthorhombic'
loop_
_space_group_symop_operation_xyz
x,y,z
-x,-y,z
-x,y,z
x,-y,z
x,1/2+y,1/2+z
-x,1/2-y,1/2+z
-x,1/2+y,1/2+z
x,1/2-y,1/2+z
1/2+x,y,1/2+z
1/2-x,-y,1/2+z
1/2-x,y,1/2+z
1/2+x,-y,1/2+z
1/2+x,1/2+y,z
1/2-x,1/2-y,z
1/2-x,1/2+y,z
1/2+x,1/2-y,z
loop_
_atom_site_type_symbol
_atom_site_label
_atom_site_fract_x
_atom_site_fract_y
_atom_site_fract_z
Si Si1 0.415005 0.605329 0.360720
Si Si2 0.084417 0.739489 0.346391
Si Si3 0.688601 0.926001 0.442721
Si Si4 0.671251 0.214546 0.081302
Si Si5 0.259583 0.574733 0.303553
Si Si6 0.693123 0.694340 0.737321
Si Si7 0.087864 0.188474 0.989159
Si Si8 0.651497 0.075745 0.004723
O O1 0.500000 0.577926 0.345238
O O2 0.409276 0.681371 0.334296
O O3 0.349282 0.568502 0.318445
O O4 0.400966 0.596345 0.441135
O O5 0.122966 0.695849 0.287735
O O6 0.116811 0.726616 0.421600
O O7 0.000000 0.712875 0.344872
O O8 0.713619 0.896682 0.369030
O O9 0.630180 0.882830 0.486597
O O10 0.762906 0.932706 0.485973
O O11 0.652276 0.000000 0.432726
O O12 0.750000 0.250000 0.057666
O O13 0.666091 0.211640 0.162135
O O14 0.608078 0.265736 0.054020
O O15 0.651379 0.138242 0.057488
O O16 0.232132 0.500000 0.284305
O O17 0.237256 0.622801 0.240698
O O18 0.750000 0.750000 0.765531
O O19 0.000000 0.174021 0.991474
O O20 0.625416 0.000000 0.031987
#
# Coordination Sequence:
#
# PCOD8186096 Si02
#       8
#    16  16  16  16  16  16  16  16
#     4  10  19  33  55  86 119 145 183 241 295 336
#     4  10  20  34  57  84 110 144 186 234 287 336
#     4   9  18  33  55  84 113 144 184 233 283 332
#     4  11  23  37  56  81 112 150 191 234 282 335
#     4  10  20  34  56  85 115 151 191 229 277 341
#     4  11  22  37  57  81 110 150 194 233 282 334
#     4  11  21  35  59  87 110 144 190 236 286 340
#     4  10  20  34  55  82 112 149 189 229 282 343
#
# _framework density 18.471914999999999
#
# number of rings (size 3 to 8) (size 9 to 14) (size 15 to 20)
#    0.000    1.750    5.000    1.125    0.000    2.750 
#    0.000    0.000    0.000    0.375    0.000    1.750 
#    0.000    0.000    0.000    0.000    0.000    0.000 
#
# Total GULP energy -396472.697273 kJ/mol
# GULP energy per Si atom -12389.771790 kJ/mol
# Density = 1.842987 g / cm^3
# Si number density = 18.471915 Si / 1000 Ang^3
#
#
#
# Elastic Constant Matrix: (Units=GPa)
#
#
# Indices 1 2 3 4 5 6 
#
# 1 79.8740 44.2942 39.2746 0.0000 0.0000 0.0000
# 2 44.2942 108.8289 30.6906 0.0000 0.0000 0.0000
# 3 39.2746 30.6906 76.8686 0.0000 0.0000 0.0000
# 4 0.0000 0.0000 0.0000 12.7726 0.0000 0.0000
# 5 0.0000 0.0000 0.0000 0.0000 20.9359 0.0000
# 6 0.0000 0.0000 0.0000 0.0000 0.0000 11.3354
#
#
#
# Elastic Compliance Matrix: (Units=1/GPa)
#
#
# Indices 1 2 3 4 5 6 
#
# 1 0.019482 -0.005772 -0.007649 0.000000 0.000000 0.000000
# 2 -0.005772 0.012065 -0.001868 0.000000 0.000000 0.000000
# 3 -0.007649 -0.001868 0.017663 0.000000 0.000000 0.000000
# 4 0.000000 0.000000 0.000000 0.078293 0.000000 0.000000
# 5 0.000000 0.000000 0.000000 0.000000 0.047765 0.000000
# 6 0.000000 0.000000 0.000000 0.000000 0.000000 0.088219
#
#
# Mechanical properties :
#
#
# Convention : Reuss Voigt Hill
#
# Bulk Modulus (GPa) = 53.67298 54.89894 54.28596
# Shear Modulus (GPa) = 16.65136 19.09623 17.87380
#
# Velocity S-wave (km/s) = 3.00566 3.21876 3.11403
# Velocity P-wave (km/s) = 6.41599 6.60293 6.51013
#
# Compressibility (1/GPa) = 0.01863135
#
# Stress axis : x y z
#
# Youngs Moduli (GPa) = 51.32979 82.88593 56.61472
#
# Poissons Ratio (x) = 0.47843 0.43306
# Poissons Ratio (y) = 0.29628 0.10575
# Poissons Ratio (z) = 0.39264 0.15482
#
# Static dielectric constant tensor:
#      x y z
#    x 3.381270 0.000000 0.000000 
#    y 0.000000 4.187500 0.000000 
#    z 0.000000 0.000000 3.088070 
# 
# 
# High freq. dielectric constant tensor:
#      x y z
#    x 1.710460 0.000000 0.000000 
#    y 0.000000 1.728450 0.000000 
#    z 0.000000 0.000000 1.682720 
# 
# From -- ./inp_files/26239.got.cif
#   From: 2010.03.12/outbox.cif.g09.slc.cpg/sg42_14_cif.got.tgz:26239.got - 2010.04.14 02:04:31.
