data_PCOD8186519
_publ_section_title
;
Structure prediction by ZEFSAII (Michael W. Deem and Ramdas Pophale) SiO2 
 PCOD8186519
Probable space group: F M M 2
;
_chemical_formula_sum "Si O2"
_cell_formula_units_Z 64
_cell_length_a 12.831933
_cell_length_b 23.014413
_cell_length_c 8.681427
_cell_angle_alpha 90.000000
_cell_angle_beta 90.000000
_cell_angle_gamma 90.000000
_cell_volume 2563.793862
_symmetry_space_group_name_H-M "F M M 2"
_symmetry_group_IT_number 42
_symmetry_cell_setting 'orthorhombic'
loop_
_space_group_symop_operation_xyz
x,y,z
-x,-y,z
-x,y,z
x,-y,z
x,1/2+y,1/2+z
-x,1/2-y,1/2+z
-x,1/2+y,1/2+z
x,1/2-y,1/2+z
1/2+x,y,1/2+z
1/2-x,-y,1/2+z
1/2-x,y,1/2+z
1/2+x,-y,1/2+z
1/2+x,1/2+y,z
1/2-x,1/2-y,z
1/2-x,1/2+y,z
1/2+x,1/2-y,z
loop_
_atom_site_type_symbol
_atom_site_label
_atom_site_fract_x
_atom_site_fract_y
_atom_site_fract_z
Si Si1 0.377583 0.175357 0.947240
Si Si2 0.807743 0.564849 0.119359
Si Si3 0.621050 0.399850 0.956328
Si Si4 0.377186 0.714947 0.120392
O O1 0.500000 0.184529 0.942070
O O2 0.329480 0.190256 0.779614
O O3 0.354528 0.109297 0.994200
O O4 0.330025 0.221730 0.071703
O O5 0.852048 0.500000 0.090470
O O6 0.836707 0.583938 0.289669
O O7 0.682864 0.564317 0.088513
O O8 0.500000 0.415381 0.972458
O O9 0.644696 0.331385 0.983045
O O10 0.500000 0.722158 0.142558
#
# Coordination Sequence:
#
# PCOD8186519 Si02
#       4
#    16  16  16  16
#     4  10  20  38  67 104 145 183 231 294 350 416
#     4  12  26  43  68 101 137 188 243 281 341 426
#     4  11  25  47  72 101 141 183 232 297 353 406
#     4   9  19  38  67 102 138 180 230 289 359 419
#
# _framework density 24.963006
#
# number of rings (size 3 to 8) (size 9 to 14) (size 15 to 20)
#    0.000    1.500    0.000    4.500    0.000    8.500 
#    0.000    7.500    0.000   15.000    0.000    0.000 
#    0.000    0.000    0.000    0.000    0.000    0.000 
#
# Total GULP energy -198372.513561 kJ/mol
# GULP energy per Si atom -12398.282098 kJ/mol
# Density = 2.490619 g / cm^3
# Si number density = 24.963006 Si / 1000 Ang^3
#
#
#
# Elastic Constant Matrix: (Units=GPa)
#
#
# Indices 1 2 3 4 5 6 
#
# 1 44.5631 51.9407 60.3619 0.0000 0.0000 0.0000
# 2 51.9407 211.3249 108.0104 0.0000 0.0000 0.0000
# 3 60.3619 108.0104 173.3891 0.0000 0.0000 0.0000
# 4 0.0000 0.0000 0.0000 25.8305 0.0000 0.0000
# 5 0.0000 0.0000 0.0000 0.0000 38.1566 0.0000
# 6 0.0000 0.0000 0.0000 0.0000 0.0000 24.3443
#
#
#
# Elastic Compliance Matrix: (Units=1/GPa)
#
#
# Indices 1 2 3 4 5 6 
#
# 1 0.045204 -0.004500 -0.012934 0.000000 0.000000 0.000000
# 2 -0.004500 0.007390 -0.003037 0.000000 0.000000 0.000000
# 3 -0.012934 -0.003037 0.012162 0.000000 0.000000 0.000000
# 4 0.000000 0.000000 0.000000 0.038714 0.000000 0.000000
# 5 0.000000 0.000000 0.000000 0.000000 0.026208 0.000000
# 6 0.000000 0.000000 0.000000 0.000000 0.000000 0.041077
#
#
# Mechanical properties :
#
#
# Convention : Reuss Voigt Hill
#
# Bulk Modulus (GPa) = 41.99073 96.65591 69.32332
# Shear Modulus (GPa) = 22.76496 31.59720 27.18108
#
# Velocity S-wave (km/s) = 3.02312 3.56161 3.30336
# Velocity P-wave (km/s) = 5.38919 7.46439 6.51001
#
# Compressibility (1/GPa) = 0.02381478
#
# Stress axis : x y z
#
# Youngs Moduli (GPa) = 22.12185 135.31025 82.22364
#
# Poissons Ratio (x) = 0.60890 1.06346
# Poissons Ratio (y) = 0.09955 0.24973
# Poissons Ratio (z) = 0.28612 0.41096
#
# Static dielectric constant tensor:
#      x y z
#    x 4.847110 0.000000 0.000000 
#    y 0.000000 4.669380 0.000000 
#    z 0.000000 0.000000 4.607160 
# 
# 
# High freq. dielectric constant tensor:
#      x y z
#    x 2.015170 0.000000 0.000000 
#    y 0.000000 1.995350 0.000000 
#    z 0.000000 0.000000 1.994420 
# 
# From -- ./inp_files/2679.got.cif
#   From: 2010.03.12/outbox.cif.g09.slc.cpg/sg42_2_cif.got.tgz:2679.got - 2010.04.14 02:04:31.
