data_PCOD8186930
_publ_section_title
;
Structure prediction by ZEFSAII (Michael W. Deem and Ramdas Pophale) SiO2 
 PCOD8186930
Probable space group: F D D 2
;
_chemical_formula_sum "Si O2"
_cell_formula_units_Z 64
_cell_length_a 12.128363
_cell_length_b 21.287870
_cell_length_c 12.430577
_cell_angle_alpha 90.000000
_cell_angle_beta 90.000000
_cell_angle_gamma 90.000000
_cell_volume 3209.413569
_symmetry_space_group_name_H-M "F D D 2"
_symmetry_group_IT_number 43
_symmetry_cell_setting 'orthorhombic'
loop_
_space_group_symop_operation_xyz
x,y,z
-x,-y,z
1/4-x,1/4+y,1/4+z
1/4+x,1/4-y,1/4+z
x,1/2+y,1/2+z
-x,1/2-y,1/2+z
1/4-x,3/4+y,3/4+z
1/4+x,3/4-y,3/4+z
1/2+x,y,1/2+z
1/2-x,-y,1/2+z
3/4-x,1/4+y,3/4+z
3/4+x,1/4-y,3/4+z
1/2+x,1/2+y,z
1/2-x,1/2-y,z
3/4-x,3/4+y,1/4+z
3/4+x,3/4-y,1/4+z
loop_
_atom_site_type_symbol
_atom_site_label
_atom_site_fract_x
_atom_site_fract_y
_atom_site_fract_z
Si Si1 0.819871 0.942542 0.819750
Si Si2 0.504146 0.932939 0.138362
Si Si3 0.497055 0.316757 0.980558
Si Si4 0.928988 0.941005 0.050176
O O1 0.741985 0.879881 0.816313
O O2 0.911365 0.934530 0.728857
O O3 0.740177 0.002144 0.797239
O O4 0.879055 0.954595 0.932789
O O5 0.622276 0.926633 0.191986
O O6 0.500000 0.000000 0.073617
O O7 0.579207 0.319070 0.881579
O O8 0.510488 0.379971 0.052332
O O9 0.000000 0.000000 0.088863
#
# Coordination Sequence:
#
# PCOD8186930 Si02
#       4
#    16  16  16  16
#     4  10  18  34  57  82 109 142 181 221 261 314
#     4   9  17  31  54  81 106 140 180 216 260 313
#     4  10  20  34  56  81 107 143 181 218 266 320
#     4  11  20  35  56  80 106 141 181 223 265 317
#
# _framework density 19.941337999999998
#
# number of rings (size 3 to 8) (size 9 to 14) (size 15 to 20)
#    0.000    2.000    0.000    9.750    0.000    0.000 
#    0.000   12.500    0.000    4.500    0.000    0.000 
#    0.000    0.000    0.000    0.000    0.000    0.000 
#
# Total GULP energy -198237.185671 kJ/mol
# GULP energy per Si atom -12389.824104 kJ/mol
# Density = 1.989595 g / cm^3
# Si number density = 19.941338 Si / 1000 Ang^3
#
#
#
# Elastic Constant Matrix: (Units=GPa)
#
#
# Indices 1 2 3 4 5 6 
#
# 1 49.2424 41.4930 34.6942 0.0000 0.0000 0.0000
# 2 41.4930 228.2704 57.7213 0.0000 0.0000 0.0000
# 3 34.6942 57.7213 67.3049 0.0000 0.0000 0.0000
# 4 0.0000 0.0000 0.0000 34.7614 0.0000 0.0000
# 5 0.0000 0.0000 0.0000 0.0000 28.6171 0.0000
# 6 0.0000 0.0000 0.0000 0.0000 0.0000 34.0222
#
#
#
# Elastic Compliance Matrix: (Units=1/GPa)
#
#
# Indices 1 2 3 4 5 6 
#
# 1 0.032693 -0.002147 -0.015011 0.000000 0.000000 0.000000
# 2 -0.002147 0.005735 -0.003812 0.000000 0.000000 0.000000
# 3 -0.015011 -0.003812 0.025865 0.000000 0.000000 0.000000
# 4 0.000000 0.000000 0.000000 0.028768 0.000000 0.000000
# 5 0.000000 0.000000 0.000000 0.000000 0.034944 0.000000
# 6 0.000000 0.000000 0.000000 0.000000 0.000000 0.029393
#
#
# Mechanical properties :
#
#
# Convention : Reuss Voigt Hill
#
# Bulk Modulus (GPa) = 44.73695 68.07053 56.40374
# Shear Modulus (GPa) = 24.17941 33.54076 28.86009
#
# Velocity S-wave (km/s) = 3.48591 4.10563 3.80840
# Velocity P-wave (km/s) = 6.21974 7.52891 6.90542
#
# Compressibility (1/GPa) = 0.02235289
#
# Stress axis : x y z
#
# Youngs Moduli (GPa) = 30.58750 174.37375 38.66279
#
# Poissons Ratio (x) = 0.37435 0.58038
# Poissons Ratio (y) = 0.06567 0.14737
# Poissons Ratio (z) = 0.45916 0.66464
#
# Static dielectric constant tensor:
#      x y z
#    x 3.383890 0.000000 0.000000 
#    y 0.000000 5.221710 0.000000 
#    z 0.000000 0.000000 3.307680 
# 
# 
# High freq. dielectric constant tensor:
#      x y z
#    x 1.749590 0.000000 0.000000 
#    y 0.000000 1.824270 0.000000 
#    z 0.000000 0.000000 1.735180 
# 
# From -- ./inp_files/5487.got.cif
#   From: 2010.06.25/outbox.cif.g09.slc.cpg/sg43_3_cif.got.tgz:5487.got - 2010.06.26 16:48:59.
