data_PCOD8186167
_publ_section_title
;
Structure prediction by ZEFSAII (Michael W. Deem and Ramdas Pophale) SiO2 
 PCOD8186167
Probable space group: F M M 2
;
_chemical_formula_sum "Si O2"
_cell_formula_units_Z 104
_cell_length_a 16.153106
_cell_length_b 14.494764
_cell_length_c 21.932369
_cell_angle_alpha 90.000000
_cell_angle_beta 90.000000
_cell_angle_gamma 90.000000
_cell_volume 5135.145290
_symmetry_space_group_name_H-M "F M M 2"
_symmetry_group_IT_number 42
_symmetry_cell_setting 'orthorhombic'
loop_
_space_group_symop_operation_xyz
x,y,z
-x,-y,z
-x,y,z
x,-y,z
x,1/2+y,1/2+z
-x,1/2-y,1/2+z
-x,1/2+y,1/2+z
x,1/2-y,1/2+z
1/2+x,y,1/2+z
1/2-x,-y,1/2+z
1/2-x,y,1/2+z
1/2+x,-y,1/2+z
1/2+x,1/2+y,z
1/2-x,1/2-y,z
1/2-x,1/2+y,z
1/2+x,1/2-y,z
loop_
_atom_site_type_symbol
_atom_site_label
_atom_site_fract_x
_atom_site_fract_y
_atom_site_fract_z
Si Si1 0.091100 0.300818 0.849820
Si Si2 0.098059 0.103801 0.228986
Si Si3 0.406516 0.398477 0.707465
Si Si4 0.902009 0.734128 0.620187
Si Si5 0.250000 0.250000 0.029731
Si Si6 0.640491 0.601639 0.838173
Si Si7 0.785832 0.895393 0.431343
O O1 0.132483 0.334894 0.785776
O O2 0.086634 0.189886 0.857462
O O3 0.132394 0.344062 0.909267
O O4 0.000000 0.341599 0.851290
O O5 0.122461 0.149633 0.164540
O O6 0.000000 0.101261 0.232531
O O7 0.135088 0.000000 0.232091
O O8 0.500000 0.377789 0.731663
O O9 0.400759 0.500000 0.678108
O O10 0.382758 0.328347 0.655201
O O11 0.345067 0.390773 0.765261
O O12 0.836319 0.736347 0.565611
O O13 0.000000 0.728827 0.599490
O O14 0.249011 0.342342 0.989534
O O15 0.599351 0.500000 0.852501
O O16 0.726330 0.609223 0.873098
O O17 0.804231 0.000000 0.451095
#
# Coordination Sequence:
#
# PCOD8186167 Si02
#       7
#    16  16  16  16   8  16  16
#     4  11  20  36  64  94 124 156 193 245 313 378
#     4   9  18  34  58  90 124 155 192 242 305 375
#     4   9  17  33  60  95 126 149 183 237 305 377
#     4  10  22  40  61  87 120 159 201 251 304 359
#     4  12  26  44  62  84 114 164 220 262 298 350
#     4  10  19  35  62  92 124 157 188 239 310 372
#     4  11  25  44  60  83 121 160 208 259 302 360
#
# _framework density 20.252590000000001
#
# number of rings (size 3 to 8) (size 9 to 14) (size 15 to 20)
#    0.000    1.846    3.077    0.923    0.000    4.923 
#    0.000    1.538    0.000    0.000    0.000    0.000 
#    0.000    0.000    0.000    0.000    0.000    0.000 
#
# Total GULP energy -322163.880016 kJ/mol
# GULP energy per Si atom -12390.918462 kJ/mol
# Density = 2.020649 g / cm^3
# Si number density = 20.252590 Si / 1000 Ang^3
#
#
#
# Elastic Constant Matrix: (Units=GPa)
#
#
# Indices 1 2 3 4 5 6 
#
# 1 72.6177 40.0320 57.2330 0.0000 0.0000 0.0000
# 2 40.0320 182.3773 67.6468 0.0000 0.0000 0.0000
# 3 57.2330 67.6468 113.1195 0.0000 0.0000 0.0000
# 4 0.0000 0.0000 0.0000 23.8081 0.0000 0.0000
# 5 0.0000 0.0000 0.0000 0.0000 37.7088 0.0000
# 6 0.0000 0.0000 0.0000 0.0000 0.0000 19.0232
#
#
#
# Elastic Compliance Matrix: (Units=1/GPa)
#
#
# Indices 1 2 3 4 5 6 
#
# 1 0.023029 -0.000942 -0.011088 0.000000 0.000000 0.000000
# 2 -0.000942 0.007085 -0.003760 0.000000 0.000000 0.000000
# 3 -0.011088 -0.003760 0.016699 0.000000 0.000000 0.000000
# 4 0.000000 0.000000 0.000000 0.042002 0.000000 0.000000
# 5 0.000000 0.000000 0.000000 0.000000 0.026519 0.000000
# 6 0.000000 0.000000 0.000000 0.000000 0.000000 0.052567
#
#
# Mechanical properties :
#
#
# Convention : Reuss Voigt Hill
#
# Bulk Modulus (GPa) = 65.65176 77.54870 71.60023
# Shear Modulus (GPa) = 24.44275 29.65487 27.04881
#
# Velocity S-wave (km/s) = 3.47781 3.83070 3.65851
# Velocity P-wave (km/s) = 6.97235 7.61181 7.29909
#
# Compressibility (1/GPa) = 0.01523188
#
# Stress axis : x y z
#
# Youngs Moduli (GPa) = 43.42305 141.15160 59.88428
#
# Poissons Ratio (x) = 0.13298 0.66401
# Poissons Ratio (y) = 0.04091 0.22516
# Poissons Ratio (z) = 0.48149 0.53073
#
# Static dielectric constant tensor:
#      x y z
#    x 3.455240 0.000000 0.000000 
#    y 0.000000 4.153920 0.000000 
#    z 0.000000 0.000000 3.494590 
# 
# 
# High freq. dielectric constant tensor:
#      x y z
#    x 1.770140 0.000000 0.000000 
#    y 0.000000 1.813160 0.000000 
#    z 0.000000 0.000000 1.768030 
# 
# From -- ./inp_files/25937.got.cif
#   From: 2010.03.12/outbox.cif.g09.slc.cpg/sg42_13_cif.got.tgz:25937.got - 2010.04.14 02:04:31.
