data_PCOD8186475
_publ_section_title
;
Structure prediction by ZEFSAII (Michael W. Deem and Ramdas Pophale) SiO2 
 PCOD8186475
Probable space group: F M M 2
;
_chemical_formula_sum "Si O2"
_cell_formula_units_Z 80
_cell_length_a 8.619952
_cell_length_b 15.716733
_cell_length_c 28.837285
_cell_angle_alpha 90.000000
_cell_angle_beta 90.000000
_cell_angle_gamma 90.000000
_cell_volume 3906.802819
_symmetry_space_group_name_H-M "F M M 2"
_symmetry_group_IT_number 42
_symmetry_cell_setting 'orthorhombic'
loop_
_space_group_symop_operation_xyz
x,y,z
-x,-y,z
-x,y,z
x,-y,z
x,1/2+y,1/2+z
-x,1/2-y,1/2+z
-x,1/2+y,1/2+z
x,1/2-y,1/2+z
1/2+x,y,1/2+z
1/2-x,-y,1/2+z
1/2-x,y,1/2+z
1/2+x,-y,1/2+z
1/2+x,1/2+y,z
1/2-x,1/2-y,z
1/2-x,1/2+y,z
1/2+x,1/2-y,z
loop_
_atom_site_type_symbol
_atom_site_label
_atom_site_fract_x
_atom_site_fract_y
_atom_site_fract_z
Si Si1 0.183560 0.162489 0.785030
Si Si2 0.684819 0.000000 0.228500
Si Si3 0.324188 0.095815 0.875390
Si Si4 0.184354 0.500000 0.124072
Si Si5 0.815933 0.842170 0.563336
Si Si6 0.816874 0.659281 0.464620
O O1 0.250000 0.250000 0.763668
O O2 0.241853 0.155029 0.837734
O O3 0.000000 0.165119 0.784616
O O4 0.247359 0.084314 0.754242
O O5 0.750254 0.000000 0.176228
O O6 0.500000 0.000000 0.228768
O O7 0.500000 0.127806 0.883146
O O8 0.231194 0.095851 0.923738
O O9 0.320743 0.000000 0.856350
O O10 0.244087 0.585708 0.098834
O O11 0.000000 0.500000 0.123870
O O12 0.750000 0.750000 0.577998
O O13 0.757674 0.870829 0.512821
O O14 0.000000 0.835758 0.562645
O O15 0.750000 0.750000 0.449778
O O16 0.000000 0.662974 0.470920
#
# Coordination Sequence:
#
# PCOD8186475 Si02
#       6
#    16   8  16   8  16  16
#     4  11  22  39  63  89 120 157 199 242 295 351
#     4   9  20  40  62  87 118 153 196 245 296 359
#     4  11  23  38  58  85 120 157 198 243 291 347
#     4   9  20  38  62  87 116 155 196 241 300 357
#     4  10  20  37  60  87 119 156 198 243 293 350
#     4  11  22  37  57  83 118 156 198 241 288 345
#
# _framework density 20.477101000000001
#
# number of rings (size 3 to 8) (size 9 to 14) (size 15 to 20)
#    0.000    1.600    1.000    5.400    1.400    2.000 
#    0.000    1.500    0.000    8.400    0.000    0.000 
#    0.000    0.000    0.000    0.000    0.000    0.000 
#
# Total GULP energy -248051.581548 kJ/mol
# GULP energy per Si atom -12402.579077 kJ/mol
# Density = 2.043049 g / cm^3
# Si number density = 20.477101 Si / 1000 Ang^3
#
#
#
# Elastic Constant Matrix: (Units=GPa)
#
#
# Indices 1 2 3 4 5 6 
#
# 1 97.0481 40.5729 32.8526 0.0000 0.0000 0.0000
# 2 40.5729 148.7235 79.9078 0.0000 0.0000 0.0000
# 3 32.8526 79.9078 143.3940 0.0000 0.0000 0.0000
# 4 0.0000 0.0000 0.0000 16.0150 0.0000 0.0000
# 5 0.0000 0.0000 0.0000 0.0000 21.2324 0.0000
# 6 0.0000 0.0000 0.0000 0.0000 0.0000 29.6267
#
#
#
# Elastic Compliance Matrix: (Units=1/GPa)
#
#
# Indices 1 2 3 4 5 6 
#
# 1 0.011798 -0.002521 -0.001298 0.000000 0.000000 0.000000
# 2 -0.002521 0.010136 -0.005071 0.000000 0.000000 0.000000
# 3 -0.001298 -0.005071 0.010097 0.000000 0.000000 0.000000
# 4 0.000000 0.000000 0.000000 0.062441 0.000000 0.000000
# 5 0.000000 0.000000 0.000000 0.000000 0.047098 0.000000
# 6 0.000000 0.000000 0.000000 0.000000 0.000000 0.033753
#
#
# Mechanical properties :
#
#
# Convention : Reuss Voigt Hill
#
# Bulk Modulus (GPa) = 70.17159 77.31469 73.74314
# Shear Modulus (GPa) = 25.27120 29.09695 27.18408
#
# Velocity S-wave (km/s) = 3.51682 3.77364 3.64749
# Velocity P-wave (km/s) = 7.12975 7.53829 7.33686
#
# Compressibility (1/GPa) = 0.01425078
#
# Stress axis : x y z
#
# Youngs Moduli (GPa) = 84.76337 98.65617 99.03922
#
# Poissons Ratio (x) = 0.24872 0.12856
# Poissons Ratio (y) = 0.21369 0.50222
# Poissons Ratio (z) = 0.11003 0.50028
#
# Static dielectric constant tensor:
#      x y z
#    x 3.567210 0.000000 0.000000 
#    y 0.000000 4.237150 0.000000 
#    z 0.000000 0.000000 3.738980 
# 
# 
# High freq. dielectric constant tensor:
#      x y z
#    x 1.792390 0.000000 0.000000 
#    y 0.000000 1.809960 0.000000 
#    z 0.000000 0.000000 1.795620 
# 
# From -- ./inp_files/31336.got.cif
#   From: 2010.03.12/outbox.cif.g09.slc.cpg/sg42_16_cif.got.tgz:31336.got - 2010.04.14 02:04:31.
