data_PCOD8186980
_publ_section_title
;
Structure prediction by ZEFSAII (Michael W. Deem and Ramdas Pophale) SiO2 
 PCOD8186980
Probable space group: F D D 2
;
_chemical_formula_sum "Si O2"
_cell_formula_units_Z 128
_cell_length_a 22.684639
_cell_length_b 12.956436
_cell_length_c 22.360854
_cell_angle_alpha 90.000000
_cell_angle_beta 90.000000
_cell_angle_gamma 90.000000
_cell_volume 6572.124962
_symmetry_space_group_name_H-M "F D D 2"
_symmetry_group_IT_number 43
_symmetry_cell_setting 'orthorhombic'
loop_
_space_group_symop_operation_xyz
x,y,z
-x,-y,z
1/4-x,1/4+y,1/4+z
1/4+x,1/4-y,1/4+z
x,1/2+y,1/2+z
-x,1/2-y,1/2+z
1/4-x,3/4+y,3/4+z
1/4+x,3/4-y,3/4+z
1/2+x,y,1/2+z
1/2-x,-y,1/2+z
3/4-x,1/4+y,3/4+z
3/4+x,1/4-y,3/4+z
1/2+x,1/2+y,z
1/2-x,1/2-y,z
3/4-x,3/4+y,1/4+z
3/4+x,3/4-y,1/4+z
loop_
_atom_site_type_symbol
_atom_site_label
_atom_site_fract_x
_atom_site_fract_y
_atom_site_fract_z
Si Si1 0.203274 0.497476 0.241680
Si Si2 0.918797 0.182167 0.974581
Si Si3 0.059814 0.946733 0.267811
Si Si4 0.613818 0.024565 0.607322
Si Si5 0.384091 0.455142 0.975015
Si Si6 0.299603 0.017856 0.374027
Si Si7 0.673043 0.567416 0.405326
Si Si8 0.193356 0.683852 0.152539
O O1 0.272498 0.479747 0.251636
O O2 0.174831 0.393912 0.214712
O O3 0.180852 0.525298 0.308731
O O4 0.187373 0.587364 0.196202
O O5 0.915075 0.226452 0.906892
O O6 0.923148 0.058475 0.970602
O O7 0.863317 0.220015 0.014789
O O8 0.071822 0.853054 0.223657
O O9 0.050001 0.899083 0.333637
O O10 0.000000 0.000000 0.245827
O O11 0.642191 0.047837 0.542602
O O12 0.565964 0.110782 0.626967
O O13 0.582274 0.912861 0.608573
O O14 0.332999 0.453793 0.925520
O O15 0.230279 0.002687 0.385929
O O16 0.615932 0.497823 0.405340
O O17 0.250000 0.750000 0.172852
#
# Coordination Sequence:
#
# PCOD8186980 Si02
#       8
#    16  16  16  16  16  16  16  16
#     4  11  23  38  54  79 113 150 192 227 269 339
#     4  10  19  34  59  85 109 141 182 232 285 336
#     4  10  20  35  58  89 115 137 181 241 294 338
#     4   9  18  33  57  88 111 132 174 234 291 332
#     4  10  20  36  57  80 110 143 179 234 287 327
#     4  10  21  36  57  84 110 141 186 233 279 333
#     4  11  20  34  59  85 112 147 184 231 288 340
#     4  11  24  38  54  80 115 153 188 228 281 343
#
# _framework density 19.476198
#
# number of rings (size 3 to 8) (size 9 to 14) (size 15 to 20)
#    0.000    1.750    0.000    6.750    0.000    6.000 
#    0.000    0.625    0.000    3.000    0.000    0.000 
#    0.000    0.000    0.000    0.000    0.000    0.000 
#
# Total GULP energy -396783.345003 kJ/mol
# GULP energy per Si atom -12399.479531 kJ/mol
# Density = 1.943187 g / cm^3
# Si number density = 19.476198 Si / 1000 Ang^3
#
#
#
# Elastic Constant Matrix: (Units=GPa)
#
#
# Indices 1 2 3 4 5 6 
#
# 1 115.5141 34.9360 37.8281 0.0000 0.0000 0.0000
# 2 34.9360 69.8237 41.6392 0.0000 0.0000 0.0000
# 3 37.8281 41.6392 124.9847 0.0000 0.0000 0.0000
# 4 0.0000 0.0000 0.0000 29.3450 0.0000 0.0000
# 5 0.0000 0.0000 0.0000 0.0000 24.7459 0.0000
# 6 0.0000 0.0000 0.0000 0.0000 0.0000 21.4394
#
#
#
# Elastic Compliance Matrix: (Units=1/GPa)
#
#
# Indices 1 2 3 4 5 6 
#
# 1 0.010510 -0.004195 -0.001783 0.000000 0.000000 0.000000
# 2 -0.004195 0.019547 -0.005243 0.000000 0.000000 0.000000
# 3 -0.001783 -0.005243 0.010287 0.000000 0.000000 0.000000
# 4 0.000000 0.000000 0.000000 0.034077 0.000000 0.000000
# 5 0.000000 0.000000 0.000000 0.000000 0.040411 0.000000
# 6 0.000000 0.000000 0.000000 0.000000 0.000000 0.046643
#
#
# Mechanical properties :
#
#
# Convention : Reuss Voigt Hill
#
# Bulk Modulus (GPa) = 55.85847 59.90325 57.88086
# Shear Modulus (GPa) = 26.33181 28.16734 27.24958
#
# Velocity S-wave (km/s) = 3.68094 3.80708 3.74454
# Velocity P-wave (km/s) = 6.84167 7.08160 6.96267
#
# Compressibility (1/GPa) = 0.01790239
#
# Stress axis : x y z
#
# Youngs Moduli (GPa) = 95.15039 51.15844 97.20730
#
# Poissons Ratio (x) = 0.21461 0.17335
# Poissons Ratio (y) = 0.39916 0.50961
# Poissons Ratio (z) = 0.16968 0.26820
#
# Static dielectric constant tensor:
#      x y z
#    x 3.469590 0.000000 0.000000 
#    y 0.000000 3.336380 0.000000 
#    z 0.000000 0.000000 3.836670 
# 
# 
# High freq. dielectric constant tensor:
#      x y z
#    x 1.749450 0.000000 0.000000 
#    y 0.000000 1.730980 0.000000 
#    z 0.000000 0.000000 1.780330 
# 
# From -- ./inp_files/22665.got.cif
#   From: 2010.06.25/outbox.cif.g09.slc.cpg/sg43_12_cif.got.tgz:22665.got - 2010.06.26 16:48:59.
