data_PCOD8186459
_publ_section_title
;
Structure prediction by ZEFSAII (Michael W. Deem and Ramdas Pophale) SiO2 
 PCOD8186459
Probable space group: F M M 2
;
_chemical_formula_sum "Si O2"
_cell_formula_units_Z 88
_cell_length_a 21.559598
_cell_length_b 15.873631
_cell_length_c 11.773205
_cell_angle_alpha 90.000000
_cell_angle_beta 90.000000
_cell_angle_gamma 90.000000
_cell_volume 4029.133388
_symmetry_space_group_name_H-M "F M M 2"
_symmetry_group_IT_number 42
_symmetry_cell_setting 'orthorhombic'
loop_
_space_group_symop_operation_xyz
x,y,z
-x,-y,z
-x,y,z
x,-y,z
x,1/2+y,1/2+z
-x,1/2-y,1/2+z
-x,1/2+y,1/2+z
x,1/2-y,1/2+z
1/2+x,y,1/2+z
1/2-x,-y,1/2+z
1/2-x,y,1/2+z
1/2+x,-y,1/2+z
1/2+x,1/2+y,z
1/2-x,1/2-y,z
1/2-x,1/2+y,z
1/2+x,1/2-y,z
loop_
_atom_site_type_symbol
_atom_site_label
_atom_site_fract_x
_atom_site_fract_y
_atom_site_fract_z
Si Si1 0.930887 0.903594 0.371980
Si Si2 0.929684 0.095422 0.810255
Si Si3 0.250000 0.750000 0.355982
Si Si4 0.311210 0.903979 0.729923
Si Si5 0.348673 0.338272 0.005621
Si Si6 0.072777 0.302728 0.094700
O O1 0.881484 0.888117 0.272648
O O2 0.908811 0.854749 0.483337
O O3 0.000000 0.873557 0.331697
O O4 0.933631 0.000000 0.408560
O O5 0.902348 0.151826 0.708387
O O6 0.000000 0.122838 0.840686
O O7 0.928117 0.000000 0.767125
O O8 0.887918 0.103777 0.921380
O O9 0.265630 0.666881 0.281518
O O10 0.306964 0.773437 0.435950
O O11 0.309539 0.896279 0.592582
O O12 0.289457 0.000000 0.761704
O O13 0.394400 0.286686 0.087607
O O14 0.000000 0.290292 0.103404
#
# Coordination Sequence:
#
# PCOD8186459 Si02
#       6
#    16  16   8  16  16  16
#     4   9  18  36  64  97 131 169 214 263 320 394
#     4  10  22  40  64  96 132 168 207 256 319 392
#     4  12  26  48  66  90 128 172 234 278 324 390
#     4  11  25  45  68  96 129 170 219 276 339 395
#     4  12  24  42  64  95 128 168 214 277 327 389
#     4  10  20  36  63  97 133 171 210 255 321 394
#
# _framework density 21.840924999999999
#
# number of rings (size 3 to 8) (size 9 to 14) (size 15 to 20)
#    0.000    1.455    1.818    3.273    0.000    5.091 
#    0.000    1.818    0.000    0.000    0.000    0.000 
#    0.000    0.000    0.000    0.000    0.000    0.000 
#
# Total GULP energy -272804.251043 kJ/mol
# GULP energy per Si atom -12400.193229 kJ/mol
# Density = 2.179121 g / cm^3
# Si number density = 21.840925 Si / 1000 Ang^3
#
#
#
# Elastic Constant Matrix: (Units=GPa)
#
#
# Indices 1 2 3 4 5 6 
#
# 1 49.1129 32.3470 29.6422 0.0000 0.0000 0.0000
# 2 32.3470 112.9126 46.0346 0.0000 0.0000 0.0000
# 3 29.6422 46.0346 112.9039 0.0000 0.0000 0.0000
# 4 0.0000 0.0000 0.0000 17.8560 0.0000 0.0000
# 5 0.0000 0.0000 0.0000 0.0000 23.2206 0.0000
# 6 0.0000 0.0000 0.0000 0.0000 0.0000 26.3347
#
#
#
# Elastic Compliance Matrix: (Units=1/GPa)
#
#
# Indices 1 2 3 4 5 6 
#
# 1 0.027049 -0.005821 -0.004728 0.000000 0.000000 0.000000
# 2 -0.005821 0.011875 -0.003313 0.000000 0.000000 0.000000
# 3 -0.004728 -0.003313 0.011449 0.000000 0.000000 0.000000
# 4 0.000000 0.000000 0.000000 0.056004 0.000000 0.000000
# 5 0.000000 0.000000 0.000000 0.000000 0.043065 0.000000
# 6 0.000000 0.000000 0.000000 0.000000 0.000000 0.037973
#
#
# Mechanical properties :
#
#
# Convention : Reuss Voigt Hill
#
# Bulk Modulus (GPa) = 44.15446 54.55300 49.35373
# Shear Modulus (GPa) = 22.45276 24.60929 23.53103
#
# Velocity S-wave (km/s) = 3.20974 3.36035 3.28591
# Velocity P-wave (km/s) = 5.83068 6.33148 6.08623
#
# Compressibility (1/GPa) = 0.02264777
#
# Stress axis : x y z
#
# Youngs Moduli (GPa) = 36.97003 84.21055 87.34081
#
# Poissons Ratio (x) = 0.49022 0.41295
# Poissons Ratio (y) = 0.21521 0.28940
# Poissons Ratio (z) = 0.17479 0.27903
#
# Static dielectric constant tensor:
#      x y z
#    x 3.910500 0.000000 0.000000 
#    y 0.000000 4.362700 0.000000 
#    z 0.000000 0.000000 3.920140 
# 
# 
# High freq. dielectric constant tensor:
#      x y z
#    x 1.847360 0.000000 0.000000 
#    y 0.000000 1.865460 0.000000 
#    z 0.000000 0.000000 1.862620 
# 
# From -- ./inp_files/10055.got.cif
#   From: 2010.03.12/outbox.cif.g09.slc.cpg/sg42_6_cif.got.tgz:10055.got - 2010.04.14 02:04:31.
