data_PCOD8186861
_publ_section_title
;
Structure prediction by ZEFSAII (Michael W. Deem and Ramdas Pophale) SiO2 
 PCOD8186861
Probable space group: F M M 2
;
_chemical_formula_sum "Si O2"
_cell_formula_units_Z 88
_cell_length_a 17.272138
_cell_length_b 17.351983
_cell_length_c 13.910072
_cell_angle_alpha 90.000000
_cell_angle_beta 90.000000
_cell_angle_gamma 90.000000
_cell_volume 4168.929882
_symmetry_space_group_name_H-M "F M M 2"
_symmetry_group_IT_number 42
_symmetry_cell_setting 'orthorhombic'
loop_
_space_group_symop_operation_xyz
x,y,z
-x,-y,z
-x,y,z
x,-y,z
x,1/2+y,1/2+z
-x,1/2-y,1/2+z
-x,1/2+y,1/2+z
x,1/2-y,1/2+z
1/2+x,y,1/2+z
1/2-x,-y,1/2+z
1/2-x,y,1/2+z
1/2+x,-y,1/2+z
1/2+x,1/2+y,z
1/2-x,1/2-y,z
1/2-x,1/2+y,z
1/2+x,1/2-y,z
loop_
_atom_site_type_symbol
_atom_site_label
_atom_site_fract_x
_atom_site_fract_y
_atom_site_fract_z
Si Si1 0.000000 0.592418 0.931250
Si Si2 0.000000 0.089116 0.657636
Si Si3 0.089225 0.000000 0.924327
Si Si4 0.795098 0.361261 0.699780
Si Si5 0.250000 0.250000 0.037232
Si Si6 0.865571 0.206940 0.378531
Si Si7 0.407039 0.500000 0.151021
Si Si8 0.131906 0.632956 0.292358
O O1 0.073065 0.637743 0.888198
O O2 0.000000 0.500000 0.903780
O O3 0.000000 0.603628 0.044724
O O4 0.926195 0.128327 0.703989
O O5 0.000000 0.000000 0.684254
O O6 0.129732 0.072593 0.877802
O O7 0.000000 0.000000 0.895264
O O8 0.102051 0.000000 0.037378
O O9 0.793128 0.314447 0.600287
O O10 0.817106 0.303226 0.782780
O O11 0.860801 0.426940 0.692600
O O12 0.710670 0.386102 0.735014
O O13 0.187769 0.295162 0.972735
O O14 0.893700 0.292850 0.355771
O O15 0.500000 0.500000 0.179932
#
# Coordination Sequence:
#
# PCOD8186861 Si02
#       8
#     8   8   8  16   8  16   8  16
#     4  11  29  48  70 105 142 194 243 295 364 431
#     4  11  23  44  70 106 145 181 236 297 352 431
#     4  11  23  44  70 106 145 181 236 297 352 431
#     4  12  26  46  73 101 143 188 238 305 359 434
#     4  12  22  52  68 110 140 180 254 288 372 442
#     4  12  26  46  73 101 143 188 238 305 359 434
#     4  11  29  48  70 105 142 194 243 295 364 431
#     4  12  20  46  72 106 142 188 240 296 370 416
#
# _framework density 21.108533000000001
#
# number of rings (size 3 to 8) (size 9 to 14) (size 15 to 20)
#    0.000    0.364    5.455    3.273    2.545    0.000 
#    3.273    0.000    0.000    0.000    0.000    0.000 
#    0.000    0.000    0.000    0.000    0.000    0.000 
#
# Total GULP energy -272542.500637 kJ/mol
# GULP energy per Si atom -12388.295483 kJ/mol
# Density = 2.106049 g / cm^3
# Si number density = 21.108533 Si / 1000 Ang^3
#
#
#
# Elastic Constant Matrix: (Units=GPa)
#
#
# Indices 1 2 3 4 5 6 
#
# 1 123.1187 67.6711 39.9154 0.0000 0.0000 0.0000
# 2 67.6711 140.1783 53.6878 0.0000 0.0000 0.0000
# 3 39.9154 53.6878 125.9351 0.0000 0.0000 0.0000
# 4 0.0000 0.0000 0.0000 48.7630 0.0000 0.0000
# 5 0.0000 0.0000 0.0000 0.0000 44.7964 0.0000
# 6 0.0000 0.0000 0.0000 0.0000 0.0000 40.7753
#
#
#
# Elastic Compliance Matrix: (Units=1/GPa)
#
#
# Indices 1 2 3 4 5 6 
#
# 1 0.011288 -0.004875 -0.001499 0.000000 0.000000 0.000000
# 2 -0.004875 0.010631 -0.002987 0.000000 0.000000 0.000000
# 3 -0.001499 -0.002987 0.009689 0.000000 0.000000 0.000000
# 4 0.000000 0.000000 0.000000 0.020507 0.000000 0.000000
# 5 0.000000 0.000000 0.000000 0.000000 0.022323 0.000000
# 6 0.000000 0.000000 0.000000 0.000000 0.000000 0.024525
#
#
# Mechanical properties :
#
#
# Convention : Reuss Voigt Hill
#
# Bulk Modulus (GPa) = 77.60744 79.08672 78.34708
# Shear Modulus (GPa) = 40.98980 42.06414 41.52697
#
# Velocity S-wave (km/s) = 4.41143 4.46887 4.44025
# Velocity P-wave (km/s) = 7.92423 8.01098 7.96772
#
# Compressibility (1/GPa) = 0.01288536
#
# Stress axis : x y z
#
# Youngs Moduli (GPa) = 88.59105 94.06291 103.20670
#
# Poissons Ratio (x) = 0.45855 0.15475
# Poissons Ratio (y) = 0.43187 0.30829
# Poissons Ratio (z) = 0.13284 0.28098
#
# Static dielectric constant tensor:
#      x y z
#    x 3.915810 0.000000 0.000000 
#    y 0.000000 3.862840 0.000000 
#    z 0.000000 0.000000 4.057420 
# 
# 
# High freq. dielectric constant tensor:
#      x y z
#    x 1.832690 0.000000 0.000000 
#    y 0.000000 1.836550 0.000000 
#    z 0.000000 0.000000 1.851940 
# 
# From -- ./inp_files/15107.got.cif
#   From: 2010.03.12/outbox.cif.g09.slc.cpg/sg42_8_cif.got.tgz:15107.got - 2010.04.14 02:04:31.
