data_PCOD8186826
_publ_section_title
;
Structure prediction by ZEFSAII (Michael W. Deem and Ramdas Pophale) SiO2 
 PCOD8186826
Probable space group: F M M 2
;
_chemical_formula_sum "Si O2"
_cell_formula_units_Z 80
_cell_length_a 8.754871
_cell_length_b 29.065296
_cell_length_c 15.577765
_cell_angle_alpha 90.000000
_cell_angle_beta 90.000000
_cell_angle_gamma 90.000000
_cell_volume 3963.963523
_symmetry_space_group_name_H-M "F M M 2"
_symmetry_group_IT_number 42
_symmetry_cell_setting 'orthorhombic'
loop_
_space_group_symop_operation_xyz
x,y,z
-x,-y,z
-x,y,z
x,-y,z
x,1/2+y,1/2+z
-x,1/2-y,1/2+z
-x,1/2+y,1/2+z
x,1/2-y,1/2+z
1/2+x,y,1/2+z
1/2-x,-y,1/2+z
1/2-x,y,1/2+z
1/2+x,-y,1/2+z
1/2+x,1/2+y,z
1/2-x,1/2-y,z
1/2-x,1/2+y,z
1/2+x,1/2-y,z
loop_
_atom_site_type_symbol
_atom_site_label
_atom_site_fract_x
_atom_site_fract_y
_atom_site_fract_z
Si Si1 0.323343 0.051648 0.088530
Si Si2 0.819921 0.144256 0.851808
Si Si3 0.320734 0.950489 0.288140
Si Si4 0.677292 0.642031 0.042308
Si Si5 0.820087 0.700534 0.191002
O O1 0.500000 0.062956 0.070186
O O2 0.286570 0.056947 0.188406
O O3 0.216621 0.087838 0.039075
O O4 0.283242 0.000000 0.057033
O O5 0.748029 0.093023 0.838278
O O6 0.754421 0.179412 0.780255
O O7 0.000000 0.140018 0.836973
O O8 0.783029 0.162181 0.947527
O O9 0.500000 0.952828 0.304144
O O10 0.249470 0.000000 0.317924
O O11 0.500000 0.649174 0.064112
O O12 0.779222 0.667766 0.111806
O O13 0.750000 0.750000 0.174749
O O14 0.000000 0.705754 0.195001
#
# Coordination Sequence:
#
# PCOD8186826 Si02
#       5
#    16  16  16  16  16
#     4   9  17  32  56  83 115 159 202 235 277 335
#     4   9  19  35  57  85 116 149 190 233 280 340
#     4   8  13  26  52  81 108 146 192 228 266 325
#     4  11  22  36  58  91 122 149 187 238 290 341
#     4  11  23  43  65  84 111 148 190 237 291 350
#
# _framework density 20.181820999999999
#
# number of rings (size 3 to 8) (size 9 to 14) (size 15 to 20)
#    0.000    2.400    2.000    2.400    0.000    2.000 
#    0.000    8.000    0.000    0.000    0.000    0.000 
#    0.000    0.000    0.000    0.000    0.000    0.000 
#
# Total GULP energy -247890.308328 kJ/mol
# GULP energy per Si atom -12394.515416 kJ/mol
# Density = 2.013589 g / cm^3
# Si number density = 20.181821 Si / 1000 Ang^3
#
#
#
# Elastic Constant Matrix: (Units=GPa)
#
#
# Indices 1 2 3 4 5 6 
#
# 1 37.9032 20.5148 26.2656 0.0000 0.0000 0.0000
# 2 20.5148 113.5117 44.6161 0.0000 0.0000 0.0000
# 3 26.2656 44.6161 97.6688 0.0000 0.0000 0.0000
# 4 0.0000 0.0000 0.0000 14.8897 0.0000 0.0000
# 5 0.0000 0.0000 0.0000 0.0000 20.5601 0.0000
# 6 0.0000 0.0000 0.0000 0.0000 0.0000 29.0864
#
#
#
# Elastic Compliance Matrix: (Units=1/GPa)
#
#
# Indices 1 2 3 4 5 6 
#
# 1 0.033266 -0.003042 -0.007556 0.000000 0.000000 0.000000
# 2 -0.003042 0.011016 -0.004214 0.000000 0.000000 0.000000
# 3 -0.007556 -0.004214 0.014196 0.000000 0.000000 0.000000
# 4 0.000000 0.000000 0.000000 0.067160 0.000000 0.000000
# 5 0.000000 0.000000 0.000000 0.000000 0.048638 0.000000
# 6 0.000000 0.000000 0.000000 0.000000 0.000000 0.034380
#
#
# Mechanical properties :
#
#
# Convention : Reuss Voigt Hill
#
# Bulk Modulus (GPa) = 34.65910 47.98629 41.32269
# Shear Modulus (GPa) = 20.16956 23.41972 21.79464
#
# Velocity S-wave (km/s) = 3.16475 3.41021 3.28977
# Velocity P-wave (km/s) = 5.52855 6.27174 5.91183
#
# Compressibility (1/GPa) = 0.02885245
#
# Stress axis : x y z
#
# Youngs Moduli (GPa) = 30.06099 90.77881 70.44341
#
# Poissons Ratio (x) = 0.27615 0.53230
# Poissons Ratio (y) = 0.09145 0.29685
# Poissons Ratio (z) = 0.22715 0.38255
#
# Static dielectric constant tensor:
#      x y z
#    x 3.178550 0.000000 0.000000 
#    y 0.000000 3.846140 0.000000 
#    z 0.000000 0.000000 3.647310 
# 
# 
# High freq. dielectric constant tensor:
#      x y z
#    x 1.743860 0.000000 0.000000 
#    y 0.000000 1.795730 0.000000 
#    z 0.000000 0.000000 1.786780 
# 
# From -- ./inp_files/16918.got.cif
#   From: 2010.03.12/outbox.cif.g09.slc.cpg/sg42_9_cif.got.tgz:16918.got - 2010.04.14 02:04:31.
