data_PCOD8186348
_publ_section_title
;
Structure prediction by ZEFSAII (Michael W. Deem and Ramdas Pophale) SiO2 
 PCOD8186348
Probable space group: F M M 2
;
_chemical_formula_sum "Si O2"
_cell_formula_units_Z 80
_cell_length_a 8.808638
_cell_length_b 25.940397
_cell_length_c 18.414770
_cell_angle_alpha 90.000000
_cell_angle_beta 90.000000
_cell_angle_gamma 90.000000
_cell_volume 4207.766967
_symmetry_space_group_name_H-M "F M M 2"
_symmetry_group_IT_number 42
_symmetry_cell_setting 'orthorhombic'
loop_
_space_group_symop_operation_xyz
x,y,z
-x,-y,z
-x,y,z
x,-y,z
x,1/2+y,1/2+z
-x,1/2-y,1/2+z
-x,1/2+y,1/2+z
x,1/2-y,1/2+z
1/2+x,y,1/2+z
1/2-x,-y,1/2+z
1/2-x,y,1/2+z
1/2+x,-y,1/2+z
1/2+x,1/2+y,z
1/2-x,1/2-y,z
1/2-x,1/2+y,z
1/2+x,1/2-y,z
loop_
_atom_site_type_symbol
_atom_site_label
_atom_site_fract_x
_atom_site_fract_y
_atom_site_fract_z
Si Si1 0.180600 0.908097 0.138790
Si Si2 0.825643 0.000000 0.554473
Si Si3 0.665513 0.701192 0.802730
Si Si4 0.181903 0.910922 0.794350
Si Si5 0.826517 0.500000 0.882792
Si Si6 0.169461 0.699342 0.130974
O O1 0.247965 0.924524 0.216471
O O2 0.234748 0.851727 0.112671
O O3 0.000000 0.908902 0.142817
O O4 0.239621 0.949231 0.081101
O O5 0.817674 0.000000 0.468415
O O6 0.000000 0.000000 0.581734
O O7 0.500000 0.702623 0.837911
O O8 0.750000 0.750000 0.837995
O O9 0.740515 0.645698 0.820209
O O10 0.657354 0.707000 0.716623
O O11 0.000000 0.911852 0.786743
O O12 0.239256 0.950143 0.854163
O O13 0.000000 0.500000 0.855047
O O14 0.250000 0.750000 0.096818
O O15 0.000000 0.693852 0.098042
#
# Coordination Sequence:
#
# PCOD8186348 Si02
#       6
#    16   8  16  16   8  16
#     4  11  21  34  55  82 109 139 179 221 262 314
#     4  11  24  41  56  73 103 139 176 223 276 323
#     4   8  15  26  44  72 103 135 166 201 248 299
#     4  10  20  35  55  79 109 141 173 214 264 314
#     4  11  24  39  56  77 101 135 178 223 270 319
#     4   9  16  28  47  75 109 141 173 212 262 311
#
# _framework density 19.012459
#
# number of rings (size 3 to 8) (size 9 to 14) (size 15 to 20)
#    0.000    2.200    0.000    5.400    0.000    7.200 
#    0.000    0.000    0.000    1.200    0.000    2.800 
#    0.000    0.000    0.000    0.000    0.000    0.000 
#
# Total GULP energy -247936.015320 kJ/mol
# GULP energy per Si atom -12396.800766 kJ/mol
# Density = 1.896919 g / cm^3
# Si number density = 19.012459 Si / 1000 Ang^3
#
#
#
# Elastic Constant Matrix: (Units=GPa)
#
#
# Indices 1 2 3 4 5 6 
#
# 1 143.9812 65.9117 32.7340 0.0000 0.0000 0.0000
# 2 65.9117 162.2759 41.6462 0.0000 0.0000 0.0000
# 3 32.7340 41.6462 42.9287 0.0000 0.0000 0.0000
# 4 0.0000 0.0000 0.0000 -5.0604 0.0000 0.0000
# 5 0.0000 0.0000 0.0000 0.0000 19.9698 0.0000
# 6 0.0000 0.0000 0.0000 0.0000 0.0000 36.5468
#
#
#
# Elastic Compliance Matrix: (Units=1/GPa)
#
#
# Indices 1 2 3 4 5 6 
#
# 1 0.009137 -0.002561 -0.004483 0.000000 0.000000 0.000000
# 2 -0.002561 0.008923 -0.006704 0.000000 0.000000 0.000000
# 3 -0.004483 -0.006704 0.033216 0.000000 0.000000 0.000000
# 4 0.000000 0.000000 0.000000 -0.197612 0.000000 0.000000
# 5 0.000000 0.000000 0.000000 0.000000 0.050076 0.000000
# 6 0.000000 0.000000 0.000000 0.000000 0.000000 0.027362
#
#
# Mechanical properties :
#
#
# Convention : Reuss Voigt Hill
#
# Bulk Modulus (GPa) = 42.04972 69.97439 56.01206
# Shear Modulus (GPa) = -149.35644 24.21750 -62.56947
#
# Velocity S-wave (km/s) = -8.87286 3.57286 -5.74292
# Velocity P-wave (km/s) = 9.09974 7.34199 3.80134
#
# Compressibility (1/GPa) = 0.02378137
#
# Stress axis : x y z
#
# Youngs Moduli (GPa) = 109.44864 112.07218 30.10582
#
# Poissons Ratio (x) = 0.28697 0.13496
# Poissons Ratio (y) = 0.28025 0.20182
# Poissons Ratio (z) = 0.49064 0.75130
#
# Static dielectric constant tensor:
#      x y z
#    x 3.780090 0.000000 0.000000 
#    y 0.000000 3.842560 0.000000 
#    z 0.000000 0.000000 2.913430 
# 
# 
# High freq. dielectric constant tensor:
#      x y z
#    x 1.753020 0.000000 0.000000 
#    y 0.000000 1.763490 0.000000 
#    z 0.000000 0.000000 1.678270 
# 
# From -- ./inp_files/18245.got.cif
#   From: 2010.03.12/outbox.cif.g09.slc.cpg/sg42_10_cif.got.tgz:18245.got - 2010.04.14 02:04:31.
