data_PCOD8186843
_publ_section_title
;
Structure prediction by ZEFSAII (Michael W. Deem and Ramdas Pophale) SiO2 
 PCOD8186843
Probable space group: F M M 2
;
_chemical_formula_sum "Si O2"
_cell_formula_units_Z 80
_cell_length_a 27.963192
_cell_length_b 15.641827
_cell_length_c 8.745665
_cell_angle_alpha 90.000000
_cell_angle_beta 90.000000
_cell_angle_gamma 90.000000
_cell_volume 3825.313743
_symmetry_space_group_name_H-M "F M M 2"
_symmetry_group_IT_number 42
_symmetry_cell_setting 'orthorhombic'
loop_
_space_group_symop_operation_xyz
x,y,z
-x,-y,z
-x,y,z
x,-y,z
x,1/2+y,1/2+z
-x,1/2-y,1/2+z
-x,1/2+y,1/2+z
x,1/2-y,1/2+z
1/2+x,y,1/2+z
1/2-x,-y,1/2+z
1/2-x,y,1/2+z
1/2+x,-y,1/2+z
1/2+x,1/2+y,z
1/2-x,1/2-y,z
1/2-x,1/2+y,z
1/2+x,1/2-y,z
loop_
_atom_site_type_symbol
_atom_site_label
_atom_site_fract_x
_atom_site_fract_y
_atom_site_fract_z
Si Si1 0.299017 0.403879 0.232990
Si Si2 0.718202 0.334775 0.902629
Si Si3 0.945287 0.000000 0.766988
Si Si4 0.613613 0.664977 0.761766
Si Si5 0.110685 0.662263 0.898897
Si Si6 0.947060 0.500000 0.903394
O O1 0.316684 0.500000 0.197594
O O2 0.249513 0.410264 0.327279
O O3 0.336213 0.352627 0.337291
O O4 0.291784 0.350384 0.079547
O O5 0.750000 0.250000 0.878281
O O6 0.668107 0.335428 0.815667
O O7 0.916341 0.916362 0.824421
O O8 0.946592 0.000000 0.585316
O O9 0.000000 0.000000 0.830697
O O10 0.612586 0.668376 0.580186
O O11 0.588985 0.750206 0.830238
O O12 0.078207 0.584633 0.840213
O O13 0.000000 0.500000 0.836111
#
# Coordination Sequence:
#
# PCOD8186843 Si02
#       6
#    16  16   8  16  16   8
#     4  12  25  40  61  91 132 169 223 261 320 386
#     4  12  25  41  61  92 128 180 216 264 320 386
#     4   9  22  44  70  97 130 173 224 277 338 397
#     4  11  24  41  67  95 133 175 219 272 330 391
#     4  11  22  42  64  97 130 174 217 271 331 393
#     4   9  20  42  70  95 126 169 218 273 336 401
#
# _framework density 20.913315999999998
#
# number of rings (size 3 to 8) (size 9 to 14) (size 15 to 20)
#    0.000    1.000    3.000    3.600    2.800    0.800 
#    0.000    0.000    0.000    8.400    0.000    0.000 
#    0.000    0.000    0.000    0.000    0.000    0.000 
#
# Total GULP energy -248004.659606 kJ/mol
# GULP energy per Si atom -12400.232980 kJ/mol
# Density = 2.086572 g / cm^3
# Si number density = 20.913316 Si / 1000 Ang^3
#
#
#
# Elastic Constant Matrix: (Units=GPa)
#
#
# Indices 1 2 3 4 5 6 
#
# 1 140.3216 86.3819 38.0100 0.0000 0.0000 0.0000
# 2 86.3819 183.3304 41.3070 0.0000 0.0000 0.0000
# 3 38.0100 41.3070 93.3588 0.0000 0.0000 0.0000
# 4 0.0000 0.0000 0.0000 32.6567 0.0000 0.0000
# 5 0.0000 0.0000 0.0000 0.0000 15.5699 0.0000
# 6 0.0000 0.0000 0.0000 0.0000 0.0000 37.9136
#
#
#
# Elastic Compliance Matrix: (Units=1/GPa)
#
#
# Indices 1 2 3 4 5 6 
#
# 1 0.010468 -0.004412 -0.002310 0.000000 0.000000 0.000000
# 2 -0.004412 0.007918 -0.001707 0.000000 0.000000 0.000000
# 3 -0.002310 -0.001707 0.012407 0.000000 0.000000 0.000000
# 4 0.000000 0.000000 0.000000 0.030622 0.000000 0.000000
# 5 0.000000 0.000000 0.000000 0.000000 0.064226 0.000000
# 6 0.000000 0.000000 0.000000 0.000000 0.000000 0.026376
#
#
# Mechanical properties :
#
#
# Convention : Reuss Voigt Hill
#
# Bulk Modulus (GPa) = 71.75945 83.15652 77.45799
# Shear Modulus (GPa) = 28.81506 33.98216 31.39861
#
# Velocity S-wave (km/s) = 3.71594 4.03538 3.87895
# Velocity P-wave (km/s) = 7.26624 7.84610 7.56173
#
# Compressibility (1/GPa) = 0.01393545
#
# Stress axis : x y z
#
# Youngs Moduli (GPa) = 95.52745 126.29282 80.59872
#
# Poissons Ratio (x) = 0.55720 0.18618
# Poissons Ratio (y) = 0.42146 0.13759
# Poissons Ratio (z) = 0.22066 0.21560
#
# Static dielectric constant tensor:
#      x y z
#    x 3.944690 0.000000 0.000000 
#    y 0.000000 4.266370 0.000000 
#    z 0.000000 0.000000 3.616120 
# 
# 
# High freq. dielectric constant tensor:
#      x y z
#    x 1.812300 0.000000 0.000000 
#    y 0.000000 1.839760 0.000000 
#    z 0.000000 0.000000 1.809220 
# 
# From -- ./inp_files/5119.got.cif
#   From: 2010.03.12/outbox.cif.g09.slc.cpg/sg42_3_cif.got.tgz:5119.got - 2010.04.14 02:04:31.
