data_PCOD8186567
_publ_section_title
;
Structure prediction by ZEFSAII (Michael W. Deem and Ramdas Pophale) SiO2 
 PCOD8186567
Probable space group: F M M 2
;
_chemical_formula_sum "Si O2"
_cell_formula_units_Z 112
_cell_length_a 29.478730
_cell_length_b 19.668976
_cell_length_c 10.552403
_cell_angle_alpha 90.000000
_cell_angle_beta 90.000000
_cell_angle_gamma 90.000000
_cell_volume 6118.456666
_symmetry_space_group_name_H-M "F M M 2"
_symmetry_group_IT_number 42
_symmetry_cell_setting 'orthorhombic'
loop_
_space_group_symop_operation_xyz
x,y,z
-x,-y,z
-x,y,z
x,-y,z
x,1/2+y,1/2+z
-x,1/2-y,1/2+z
-x,1/2+y,1/2+z
x,1/2-y,1/2+z
1/2+x,y,1/2+z
1/2-x,-y,1/2+z
1/2-x,y,1/2+z
1/2+x,-y,1/2+z
1/2+x,1/2+y,z
1/2-x,1/2-y,z
1/2-x,1/2+y,z
1/2+x,1/2-y,z
loop_
_atom_site_type_symbol
_atom_site_label
_atom_site_fract_x
_atom_site_fract_y
_atom_site_fract_z
Si Si1 0.447382 0.790270 0.819600
Si Si2 0.447717 0.422898 0.185299
Si Si3 0.881298 0.079998 0.968374
Si Si4 0.284826 0.580277 0.676007
Si Si5 0.719193 0.418682 0.959198
Si Si6 0.888490 0.420726 0.183890
Si Si7 0.054068 0.196683 0.596849
O O1 0.500000 0.775565 0.805515
O O2 0.437681 0.870881 0.799457
O O3 0.425224 0.743807 0.709057
O O4 0.431108 0.770623 0.961029
O O5 0.500000 0.419695 0.141817
O O6 0.434538 0.500000 0.226401
O O7 0.418196 0.394492 0.068589
O O8 0.830898 0.108962 0.996429
O O9 0.877260 0.000000 0.976217
O O10 0.898098 0.100018 0.829109
O O11 0.279192 0.500000 0.675827
O O12 0.254150 0.611957 0.563014
O O13 0.336948 0.599254 0.648505
O O14 0.269194 0.606844 0.815700
O O15 0.720418 0.500000 0.960563
O O16 0.897723 0.500000 0.158058
O O17 0.923525 0.377671 0.101175
O O18 0.000000 0.187361 0.601360
#
# Coordination Sequence:
#
# PCOD8186567 Si02
#       7
#    16  16  16  16  16  16  16
#     4   9  20  36  52  71  96 131 171 207 245 291
#     4   9  17  30  49  73 103 131 158 203 257 301
#     4   8  15  27  44  71 103 133 164 197 242 300
#     4   8  14  26  43  65  97 130 160 201 248 293
#     4   8  13  24  41  62  94 130 160 195 241 288
#     4   9  18  31  48  74 107 135 164 207 254 298
#     4  10  21  36  53  72  99 134 171 210 247 295
#
# _framework density 18.30527
#
# number of rings (size 3 to 8) (size 9 to 14) (size 15 to 20)
#    0.000    3.286    0.000    1.714    2.000    1.429 
#    2.571    2.857    0.000    0.000    0.000    1.000 
#    0.000    0.000    0.000    0.000    0.000    0.000 
#
# Total GULP energy -346910.519976 kJ/mol
# GULP energy per Si atom -12389.661428 kJ/mol
# Density = 1.826361 g / cm^3
# Si number density = 18.305270 Si / 1000 Ang^3
#
#
#
# Elastic Constant Matrix: (Units=GPa)
#
#
# Indices 1 2 3 4 5 6 
#
# 1 57.6149 23.0418 52.5932 0.0000 0.0000 0.0000
# 2 23.0418 54.8368 43.6730 0.0000 0.0000 0.0000
# 3 52.5932 43.6730 133.7250 0.0000 0.0000 0.0000
# 4 0.0000 0.0000 0.0000 20.6773 0.0000 0.0000
# 5 0.0000 0.0000 0.0000 0.0000 28.2278 0.0000
# 6 0.0000 0.0000 0.0000 0.0000 0.0000 8.9529
#
#
#
# Elastic Compliance Matrix: (Units=1/GPa)
#
#
# Indices 1 2 3 4 5 6 
#
# 1 0.027714 -0.004007 -0.009591 0.000000 0.000000 0.000000
# 2 -0.004007 0.025226 -0.006663 0.000000 0.000000 0.000000
# 3 -0.009591 -0.006663 0.013426 0.000000 0.000000 0.000000
# 4 0.000000 0.000000 0.000000 0.048362 0.000000 0.000000
# 5 0.000000 0.000000 0.000000 0.000000 0.035426 0.000000
# 6 0.000000 0.000000 0.000000 0.000000 0.000000 0.111695
#
#
# Mechanical properties :
#
#
# Convention : Reuss Voigt Hill
#
# Bulk Modulus (GPa) = 38.69205 53.86587 46.27896
# Shear Modulus (GPa) = 16.07788 20.02951 18.05369
#
# Velocity S-wave (km/s) = 2.96686 3.31145 3.14388
# Velocity P-wave (km/s) = 5.73754 6.64163 6.20607
#
# Compressibility (1/GPa) = 0.02584510
#
# Stress axis : x y z
#
# Youngs Moduli (GPa) = 36.08236 39.64207 74.48109
#
# Poissons Ratio (x) = 0.15883 0.71438
# Poissons Ratio (y) = 0.14456 0.49624
# Poissons Ratio (z) = 0.34608 0.26412
#
# Static dielectric constant tensor:
#      x y z
#    x 3.552490 0.000000 0.000000 
#    y 0.000000 2.954190 0.000000 
#    z 0.000000 0.000000 4.027510 
# 
# 
# High freq. dielectric constant tensor:
#      x y z
#    x 1.690160 0.000000 0.000000 
#    y 0.000000 1.666430 0.000000 
#    z 0.000000 0.000000 1.714680 
# 
# From -- ./inp_files/10240.got.cif
#   From: 2010.03.12/outbox.cif.g09.slc.cpg/sg42_6_cif.got.tgz:10240.got - 2010.04.14 02:04:31.
