data_PCOD8186494
_publ_section_title
;
Structure prediction by ZEFSAII (Michael W. Deem and Ramdas Pophale) SiO2 
 PCOD8186494
Probable space group: F M M 2
;
_chemical_formula_sum "Si O2"
_cell_formula_units_Z 80
_cell_length_a 29.217272
_cell_length_b 10.572754
_cell_length_c 13.740922
_cell_angle_alpha 90.000000
_cell_angle_beta 90.000000
_cell_angle_gamma 90.000000
_cell_volume 4244.667396
_symmetry_space_group_name_H-M "F M M 2"
_symmetry_group_IT_number 42
_symmetry_cell_setting 'orthorhombic'
loop_
_space_group_symop_operation_xyz
x,y,z
-x,-y,z
-x,y,z
x,-y,z
x,1/2+y,1/2+z
-x,1/2-y,1/2+z
-x,1/2+y,1/2+z
x,1/2-y,1/2+z
1/2+x,y,1/2+z
1/2-x,-y,1/2+z
1/2-x,y,1/2+z
1/2+x,-y,1/2+z
1/2+x,1/2+y,z
1/2-x,1/2-y,z
1/2-x,1/2+y,z
1/2+x,1/2-y,z
loop_
_atom_site_type_symbol
_atom_site_label
_atom_site_fract_x
_atom_site_fract_y
_atom_site_fract_z
Si Si1 0.799439 0.500000 0.887521
Si Si2 0.334453 0.245637 0.419674
Si Si3 0.426930 0.855346 0.471804
Si Si4 0.194387 0.000000 0.816189
Si Si5 0.000000 0.145557 0.806871
Si Si6 0.500000 0.147809 0.634923
Si Si7 0.750000 0.250000 0.062741
Si Si8 0.279653 0.000000 0.112876
O O1 0.827154 0.373987 0.855594
O O2 0.747955 0.500000 0.846592
O O3 0.801025 0.500000 0.005753
O O4 0.384028 0.240885 0.470532
O O5 0.330865 0.124350 0.351838
O O6 0.295224 0.242510 0.499377
O O7 0.455745 0.832965 0.373884
O O8 0.455656 0.825617 0.568685
O O9 0.409680 0.000000 0.475693
O O10 0.184570 0.000000 0.700735
O O11 0.000000 0.251645 0.722736
O O12 0.000000 0.000000 0.766073
O O13 0.500000 0.000000 0.670699
O O14 0.748922 0.374828 0.129131
#
# Coordination Sequence:
#
# PCOD8186494 Si02
#       8
#     8  16  16   8   8   8   8   8
#     4  10  22  40  50  81 121 148 188 245 274 324
#     4  11  19  38  60  79 114 156 191 229 283 331
#     4   9  19  37  64  82 111 153 191 222 282 357
#     4  12  20  36  62  77 108 163 195 232 280 334
#     4   9  19  41  60  88 114 141 187 239 282 344
#     4   9  19  41  64  86 112 145 183 235 290 342
#     4  10  20  38  54  76 118 150 186 240 272 328
#     4  10  22  34  52  78 103 149 193 233 278 314
#
# _framework density 18.847176999999999
#
# number of rings (size 3 to 8) (size 9 to 14) (size 15 to 20)
#    0.000    2.000    5.000    1.200    2.800    0.000 
#   10.800    1.000    0.000    0.000    0.000    0.000 
#    0.000    0.000    0.000    0.000    0.000    0.000 
#
# Total GULP energy -247808.441331 kJ/mol
# GULP energy per Si atom -12390.422067 kJ/mol
# Density = 1.880428 g / cm^3
# Si number density = 18.847177 Si / 1000 Ang^3
#
#
#
# Elastic Constant Matrix: (Units=GPa)
#
#
# Indices 1 2 3 4 5 6 
#
# 1 102.8013 23.6260 15.1332 0.0000 0.0000 0.0000
# 2 23.6260 153.3113 36.9669 0.0000 0.0000 0.0000
# 3 15.1332 36.9669 83.3643 0.0000 0.0000 0.0000
# 4 0.0000 0.0000 0.0000 7.3533 0.0000 0.0000
# 5 0.0000 0.0000 0.0000 0.0000 45.1620 0.0000
# 6 0.0000 0.0000 0.0000 0.0000 0.0000 27.5891
#
#
#
# Elastic Compliance Matrix: (Units=1/GPa)
#
#
# Indices 1 2 3 4 5 6 
#
# 1 0.010208 -0.001261 -0.001294 0.000000 0.000000 0.000000
# 2 -0.001261 0.007459 -0.003079 0.000000 0.000000 0.000000
# 3 -0.001294 -0.003079 0.013596 0.000000 0.000000 0.000000
# 4 0.000000 0.000000 0.000000 0.135993 0.000000 0.000000
# 5 0.000000 0.000000 0.000000 0.000000 0.022142 0.000000
# 6 0.000000 0.000000 0.000000 0.000000 0.000000 0.036246
#
#
# Mechanical properties :
#
#
# Convention : Reuss Voigt Hill
#
# Bulk Modulus (GPa) = 50.01164 54.54769 52.27967
# Shear Modulus (GPa) = 20.52739 33.60427 27.06583
#
# Velocity S-wave (km/s) = 3.30381 4.22712 3.79366
# Velocity P-wave (km/s) = 6.41455 7.26840 6.85479
#
# Compressibility (1/GPa) = 0.01999535
#
# Stress axis : x y z
#
# Youngs Moduli (GPa) = 97.96434 134.05904 73.55277
#
# Poissons Ratio (x) = 0.16906 0.09516
# Poissons Ratio (y) = 0.12354 0.22646
# Poissons Ratio (z) = 0.12675 0.41275
#
# Static dielectric constant tensor:
#      x y z
#    x 3.278880 0.000000 0.000000 
#    y 0.000000 4.641880 0.000000 
#    z 0.000000 0.000000 3.225030 
# 
# 
# High freq. dielectric constant tensor:
#      x y z
#    x 1.716230 0.000000 0.000000 
#    y 0.000000 1.751900 0.000000 
#    z 0.000000 0.000000 1.711050 
# 
# From -- ./inp_files/10970.got.cif
#   From: 2010.03.12/outbox.cif.g09.slc.cpg/sg42_6_cif.got.tgz:10970.got - 2010.04.14 02:04:31.
