data_PCOD8186727
_publ_section_title
;
Structure prediction by ZEFSAII (Michael W. Deem and Ramdas Pophale) SiO2 
 PCOD8186727
Probable space group: F M M 2
;
_chemical_formula_sum "Si O2"
_cell_formula_units_Z 80
_cell_length_a 13.996444
_cell_length_b 22.801505
_cell_length_c 11.570532
_cell_angle_alpha 90.000000
_cell_angle_beta 90.000000
_cell_angle_gamma 90.000000
_cell_volume 3692.619442
_symmetry_space_group_name_H-M "F M M 2"
_symmetry_group_IT_number 42
_symmetry_cell_setting 'orthorhombic'
loop_
_space_group_symop_operation_xyz
x,y,z
-x,-y,z
-x,y,z
x,-y,z
x,1/2+y,1/2+z
-x,1/2-y,1/2+z
-x,1/2+y,1/2+z
x,1/2-y,1/2+z
1/2+x,y,1/2+z
1/2-x,-y,1/2+z
1/2-x,y,1/2+z
1/2+x,-y,1/2+z
1/2+x,1/2+y,z
1/2-x,1/2-y,z
1/2-x,1/2+y,z
1/2+x,1/2-y,z
loop_
_atom_site_type_symbol
_atom_site_label
_atom_site_fract_x
_atom_site_fract_y
_atom_site_fract_z
Si Si1 0.286937 0.431187 0.956220
Si Si2 0.106180 0.644773 0.279132
Si Si3 0.148425 0.758690 0.949914
Si Si4 0.605030 0.364268 0.385562
Si Si5 0.296820 0.157433 0.649101
O O1 0.294608 0.500000 0.971415
O O2 0.353811 0.411166 0.850165
O O3 0.177473 0.412405 0.933651
O O4 0.318965 0.401111 0.075356
O O5 0.089031 0.698110 0.368618
O O6 0.183276 0.660136 0.179806
O O7 0.000000 0.630457 0.227317
O O8 0.250000 0.750000 0.884915
O O9 0.100855 0.694793 0.964379
O O10 0.170565 0.786167 0.075616
O O11 0.500000 0.392815 0.383263
O O12 0.635450 0.343489 0.258943
#
# Coordination Sequence:
#
# PCOD8186727 Si02
#       5
#    16  16  16  16  16
#     4  10  23  43  64  85 122 165 205 257 313 360
#     4  10  22  40  64  93 122 157 205 254 305 366
#     4  11  20  39  62  89 126 162 193 240 306 368
#     4  11  24  40  63  92 124 161 205 253 304 364
#     4  10  22  39  64  89 127 160 205 246 308 363
#
# _framework density 21.664838
#
# number of rings (size 3 to 8) (size 9 to 14) (size 15 to 20)
#    0.000    1.600    6.000    0.600    2.800    8.800 
#    0.000    0.000    0.000    0.000    0.000    0.000 
#    0.000    0.000    0.000    0.000    0.000    0.000 
#
# Total GULP energy -247888.355374 kJ/mol
# GULP energy per Si atom -12394.417769 kJ/mol
# Density = 2.161553 g / cm^3
# Si number density = 21.664838 Si / 1000 Ang^3
#
#
#
# Elastic Constant Matrix: (Units=GPa)
#
#
# Indices 1 2 3 4 5 6 
#
# 1 121.3328 10.3660 9.9814 0.0000 0.0000 0.0000
# 2 10.3660 91.2472 25.4413 0.0000 0.0000 0.0000
# 3 9.9814 25.4413 88.5833 0.0000 0.0000 0.0000
# 4 0.0000 0.0000 0.0000 16.9944 0.0000 0.0000
# 5 0.0000 0.0000 0.0000 0.0000 11.0282 0.0000
# 6 0.0000 0.0000 0.0000 0.0000 0.0000 13.8957
#
#
#
# Elastic Compliance Matrix: (Units=1/GPa)
#
#
# Indices 1 2 3 4 5 6 
#
# 1 0.008366 -0.000747 -0.000728 0.000000 0.000000 0.000000
# 2 -0.000747 0.011980 -0.003356 0.000000 0.000000 0.000000
# 3 -0.000728 -0.003356 0.012335 0.000000 0.000000 0.000000
# 4 0.000000 0.000000 0.000000 0.058843 0.000000 0.000000
# 5 0.000000 0.000000 0.000000 0.000000 0.090676 0.000000
# 6 0.000000 0.000000 0.000000 0.000000 0.000000 0.071965
#
#
# Mechanical properties :
#
#
# Convention : Reuss Voigt Hill
#
# Bulk Modulus (GPa) = 43.44669 43.63787 43.54228
# Shear Modulus (GPa) = 18.41621 25.40865 21.91243
#
# Velocity S-wave (km/s) = 2.91873 3.42834 3.18375
# Velocity P-wave (km/s) = 5.60858 5.98810 5.80144
#
# Compressibility (1/GPa) = 0.02301671
#
# Stress axis : x y z
#
# Youngs Moduli (GPa) = 119.53815 83.47258 81.07133
#
# Poissons Ratio (x) = 0.06239 0.05902
# Poissons Ratio (y) = 0.08934 0.27211
# Poissons Ratio (z) = 0.08702 0.28017
#
# Static dielectric constant tensor:
#      x y z
#    x 3.988540 0.000000 0.000000 
#    y 0.000000 3.616960 0.000000 
#    z 0.000000 0.000000 3.858150 
# 
# 
# High freq. dielectric constant tensor:
#      x y z
#    x 1.849840 0.000000 0.000000 
#    y 0.000000 1.826320 0.000000 
#    z 0.000000 0.000000 1.851800 
# 
# From -- ./inp_files/7739.got.cif
#   From: 2010.03.12/outbox.cif.g09.slc.cpg/sg42_4_cif.got.tgz:7739.got - 2010.04.14 02:04:31.
