data_PCOD8186397
_publ_section_title
;
Structure prediction by ZEFSAII (Michael W. Deem and Ramdas Pophale) SiO2 
 PCOD8186397
Probable space group: F M M 2
;
_chemical_formula_sum "Si O2"
_cell_formula_units_Z 80
_cell_length_a 8.647929
_cell_length_b 15.503795
_cell_length_c 28.536790
_cell_angle_alpha 90.000000
_cell_angle_beta 90.000000
_cell_angle_gamma 90.000000
_cell_volume 3826.090620
_symmetry_space_group_name_H-M "F M M 2"
_symmetry_group_IT_number 42
_symmetry_cell_setting 'orthorhombic'
loop_
_space_group_symop_operation_xyz
x,y,z
-x,-y,z
-x,y,z
x,-y,z
x,1/2+y,1/2+z
-x,1/2-y,1/2+z
-x,1/2+y,1/2+z
x,1/2-y,1/2+z
1/2+x,y,1/2+z
1/2-x,-y,1/2+z
1/2-x,y,1/2+z
1/2+x,-y,1/2+z
1/2+x,1/2+y,z
1/2-x,1/2-y,z
1/2-x,1/2+y,z
1/2+x,1/2-y,z
loop_
_atom_site_type_symbol
_atom_site_label
_atom_site_fract_x
_atom_site_fract_y
_atom_site_fract_z
Si Si1 0.181935 0.500000 0.037180
Si Si2 0.677772 0.101136 0.786169
Si Si3 0.818947 0.160533 0.693672
Si Si4 0.181952 0.340222 0.482700
Si Si5 0.818081 0.500000 0.639310
Si Si6 0.322380 0.401176 0.881365
O O1 0.228249 0.584495 0.008761
O O2 0.272490 0.500000 0.085547
O O3 0.000000 0.500000 0.046681
O O4 0.500000 0.121994 0.775602
O O5 0.781571 0.150834 0.748653
O O6 0.719992 0.133954 0.838261
O O7 0.714181 0.000000 0.782197
O O8 0.750000 0.250000 0.674623
O O9 0.000000 0.160118 0.685546
O O10 0.745675 0.084314 0.664159
O O11 0.250000 0.250000 0.501182
O O12 0.215928 0.346015 0.427298
O O13 0.000000 0.347709 0.493458
O O14 0.000000 0.500000 0.645074
O O15 0.500000 0.392361 0.866448
O O16 0.280686 0.500000 0.893038
#
# Coordination Sequence:
#
# PCOD8186397 Si02
#       6
#     8  16  16  16   8  16
#     4  12  26  46  71  98 127 166 212 263 325 387
#     4  10  20  35  59  92 131 173 218 263 314 375
#     4  12  25  43  68  98 132 171 215 264 319 381
#     4  11  23  42  66  97 132 171 215 266 321 381
#     4  12  26  48  73  98 129 164 208 265 325 387
#     4   9  18  35  59  87 126 174 219 263 316 374
#
# _framework density 20.90907
#
# number of rings (size 3 to 8) (size 9 to 14) (size 15 to 20)
#    0.000    1.200    2.000    4.800    0.000    4.000 
#    0.000    6.000    0.000    0.000    0.000    0.000 
#    0.000    0.000    0.000    0.000    0.000    0.000 
#
# Total GULP energy -248117.602642 kJ/mol
# GULP energy per Si atom -12405.880132 kJ/mol
# Density = 2.086148 g / cm^3
# Si number density = 20.909070 Si / 1000 Ang^3
#
#
#
# Elastic Constant Matrix: (Units=GPa)
#
#
# Indices 1 2 3 4 5 6 
#
# 1 140.6878 54.1853 35.2972 0.0000 0.0000 0.0000
# 2 54.1853 138.0613 40.6307 0.0000 0.0000 0.0000
# 3 35.2972 40.6307 81.7151 0.0000 0.0000 0.0000
# 4 0.0000 0.0000 0.0000 -14.6132 0.0000 0.0000
# 5 0.0000 0.0000 0.0000 0.0000 37.7124 0.0000
# 6 0.0000 0.0000 0.0000 0.0000 0.0000 37.0278
#
#
#
# Elastic Compliance Matrix: (Units=1/GPa)
#
#
# Indices 1 2 3 4 5 6 
#
# 1 0.008768 -0.002725 -0.002432 0.000000 0.000000 0.000000
# 2 -0.002725 0.009332 -0.003463 0.000000 0.000000 0.000000
# 3 -0.002432 -0.003463 0.015010 0.000000 0.000000 0.000000
# 4 0.000000 0.000000 0.000000 -0.068431 0.000000 0.000000
# 5 0.000000 0.000000 0.000000 0.000000 0.026516 0.000000
# 6 0.000000 0.000000 0.000000 0.000000 0.000000 0.027007
#
#
# Mechanical properties :
#
#
# Convention : Reuss Voigt Hill
#
# Bulk Modulus (GPa) = 63.01583 68.96562 65.99072
# Shear Modulus (GPa) = 122.75366 27.38212 75.06789
#
# Velocity S-wave (km/s) = 7.67045 3.62274 5.99833
# Velocity P-wave (km/s) = 10.42359 7.11015 8.92203
#
# Compressibility (1/GPa) = 0.01586903
#
# Stress axis : x y z
#
# Youngs Moduli (GPa) = 114.05364 107.15965 66.62217
#
# Poissons Ratio (x) = 0.29205 0.16204
# Poissons Ratio (y) = 0.31084 0.23070
# Poissons Ratio (z) = 0.27740 0.37107
#
# Static dielectric constant tensor:
#      x y z
#    x 3.858030 0.000000 0.000000 
#    y 0.000000 3.691550 0.000000 
#    z 0.000000 0.000000 3.865780 
# 
# 
# High freq. dielectric constant tensor:
#      x y z
#    x 1.828100 0.000000 0.000000 
#    y 0.000000 1.823510 0.000000 
#    z 0.000000 0.000000 1.818620 
# 
# From -- ./inp_files/31354.got.cif
#   From: 2010.03.12/outbox.cif.g09.slc.cpg/sg42_16_cif.got.tgz:31354.got - 2010.04.14 02:04:31.
