data_PCOD8186578
_publ_section_title
;
Structure prediction by ZEFSAII (Michael W. Deem and Ramdas Pophale) SiO2 
 PCOD8186578
Probable space group: F M M 2
;
_chemical_formula_sum "Si O2"
_cell_formula_units_Z 80
_cell_length_a 18.147901
_cell_length_b 8.827257
_cell_length_c 25.526342
_cell_angle_alpha 90.000000
_cell_angle_beta 90.000000
_cell_angle_gamma 90.000000
_cell_volume 4089.222634
_symmetry_space_group_name_H-M "F M M 2"
_symmetry_group_IT_number 42
_symmetry_cell_setting 'orthorhombic'
loop_
_space_group_symop_operation_xyz
x,y,z
-x,-y,z
-x,y,z
x,-y,z
x,1/2+y,1/2+z
-x,1/2-y,1/2+z
-x,1/2+y,1/2+z
x,1/2-y,1/2+z
1/2+x,y,1/2+z
1/2-x,-y,1/2+z
1/2-x,y,1/2+z
1/2+x,-y,1/2+z
1/2+x,1/2+y,z
1/2-x,1/2-y,z
1/2-x,1/2+y,z
1/2+x,1/2-y,z
loop_
_atom_site_type_symbol
_atom_site_label
_atom_site_fract_x
_atom_site_fract_y
_atom_site_fract_z
Si Si1 0.413807 0.324732 0.429040
Si Si2 0.670708 0.678839 0.325722
Si Si3 0.084908 0.822728 0.615514
Si Si4 0.914956 0.174746 0.223949
Si Si5 0.170870 0.178379 0.022214
O O1 0.500000 0.297290 0.423783
O O2 0.395575 0.500000 0.440850
O O3 0.377425 0.268989 0.375158
O O4 0.384065 0.224008 0.476120
O O5 0.677726 0.500000 0.324390
O O6 0.750000 0.750000 0.331333
O O7 0.632212 0.736611 0.272650
O O8 0.106587 0.775929 0.674219
O O9 0.138067 0.733164 0.577050
O O10 0.000000 0.779199 0.603820
O O11 0.098279 0.000000 0.608010
O O12 0.000000 0.194911 0.239197
O O13 0.897275 0.000000 0.211016
O O14 0.250000 0.250000 0.011464
O O15 0.179965 0.000000 0.023880
#
# Coordination Sequence:
#
# PCOD8186578 Si02
#       5
#    16  16  16  16  16
#     4  10  21  39  62  86 114 149 189 233 282 337
#     4  10  21  36  56  83 115 151 188 230 282 337
#     4  10  21  38  60  86 116 150 189 234 284 337
#     4   9  18  35  58  82 110 148 194 237 277 329
#     4  12  25  40  59  84 115 150 189 234 285 339
#
# _framework density 19.563621999999999
#
# number of rings (size 3 to 8) (size 9 to 14) (size 15 to 20)
#    0.000    1.800    0.000    4.200    0.000   10.400 
#    0.000    2.000    0.000    3.600    0.000    0.000 
#    0.000    0.000    0.000    0.000    0.000    0.000 
#
# Total GULP energy -248106.760409 kJ/mol
# GULP energy per Si atom -12405.338020 kJ/mol
# Density = 1.951909 g / cm^3
# Si number density = 19.563622 Si / 1000 Ang^3
#
#
#
# Elastic Constant Matrix: (Units=GPa)
#
#
# Indices 1 2 3 4 5 6 
#
# 1 109.9980 40.3511 63.6629 0.0000 0.0000 0.0000
# 2 40.3511 76.7540 44.0703 0.0000 0.0000 0.0000
# 3 63.6629 44.0703 128.1760 0.0000 0.0000 0.0000
# 4 0.0000 0.0000 0.0000 32.0306 0.0000 0.0000
# 5 0.0000 0.0000 0.0000 0.0000 29.7750 0.0000
# 6 0.0000 0.0000 0.0000 0.0000 0.0000 33.2982
#
#
#
# Elastic Compliance Matrix: (Units=1/GPa)
#
#
# Indices 1 2 3 4 5 6 
#
# 1 0.013728 -0.004114 -0.005404 0.000000 0.000000 0.000000
# 2 -0.004114 0.017466 -0.003962 0.000000 0.000000 0.000000
# 3 -0.005404 -0.003962 0.011848 0.000000 0.000000 0.000000
# 4 0.000000 0.000000 0.000000 0.031220 0.000000 0.000000
# 5 0.000000 0.000000 0.000000 0.000000 0.033585 0.000000
# 6 0.000000 0.000000 0.000000 0.000000 0.000000 0.030032
#
#
# Mechanical properties :
#
#
# Convention : Reuss Voigt Hill
#
# Bulk Modulus (GPa) = 62.18036 67.89962 65.03999
# Shear Modulus (GPa) = 29.37719 30.14368 29.76043
#
# Velocity S-wave (km/s) = 3.87928 3.92956 3.90450
# Velocity P-wave (km/s) = 7.20540 7.44117 7.32423
#
# Compressibility (1/GPa) = 0.01608225
#
# Stress axis : x y z
#
# Youngs Moduli (GPa) = 72.84454 57.25267 84.40264
#
# Poissons Ratio (x) = 0.23555 0.45610
# Poissons Ratio (y) = 0.29970 0.33440
# Poissons Ratio (z) = 0.39364 0.22683
#
# Static dielectric constant tensor:
#      x y z
#    x 3.605430 0.000000 0.000000 
#    y 0.000000 3.513840 0.000000 
#    z 0.000000 0.000000 3.737420 
# 
# 
# High freq. dielectric constant tensor:
#      x y z
#    x 1.768290 0.000000 0.000000 
#    y 0.000000 1.756260 0.000000 
#    z 0.000000 0.000000 1.778240 
# 
# From -- ./inp_files/31242.got.cif
#   From: 2010.03.12/outbox.cif.g09.slc.cpg/sg42_16_cif.got.tgz:31242.got - 2010.04.14 02:04:31.
