data_PCOD8186320
_publ_section_title
;
Structure prediction by ZEFSAII (Michael W. Deem and Ramdas Pophale) SiO2 
 PCOD8186320
Probable space group: F M M 2
;
_chemical_formula_sum "Si O2"
_cell_formula_units_Z 80
_cell_length_a 8.878625
_cell_length_b 15.712187
_cell_length_c 28.534976
_cell_angle_alpha 90.000000
_cell_angle_beta 90.000000
_cell_angle_gamma 90.000000
_cell_volume 3980.703808
_symmetry_space_group_name_H-M "F M M 2"
_symmetry_group_IT_number 42
_symmetry_cell_setting 'orthorhombic'
loop_
_space_group_symop_operation_xyz
x,y,z
-x,-y,z
-x,y,z
x,-y,z
x,1/2+y,1/2+z
-x,1/2-y,1/2+z
-x,1/2+y,1/2+z
x,1/2-y,1/2+z
1/2+x,y,1/2+z
1/2-x,-y,1/2+z
1/2-x,y,1/2+z
1/2+x,-y,1/2+z
1/2+x,1/2+y,z
1/2-x,1/2-y,z
1/2-x,1/2+y,z
1/2+x,1/2-y,z
loop_
_atom_site_type_symbol
_atom_site_label
_atom_site_fract_x
_atom_site_fract_y
_atom_site_fract_z
Si Si1 0.322204 0.500000 0.418250
Si Si2 0.824525 0.834769 0.477177
Si Si3 0.321033 0.500000 0.818401
Si Si4 0.674805 0.163254 0.660131
Si Si5 0.820123 0.842099 0.264827
Si Si6 0.671984 0.404475 0.063381
O O1 0.500000 0.500000 0.406137
O O2 0.275441 0.416538 0.447333
O O3 0.220050 0.500000 0.372650
O O4 0.750000 0.750000 0.455421
O O5 0.774794 0.844843 0.531289
O O6 0.000000 0.821143 0.475690
O O7 0.500000 0.500000 0.811184
O O8 0.250293 0.585310 0.796933
O O9 0.500000 0.180959 0.663387
O O10 0.750000 0.250000 0.644944
O O11 0.727237 0.132208 0.711554
O O12 0.716705 0.098035 0.618560
O O13 0.750000 0.750000 0.277822
O O14 0.000000 0.839009 0.272214
O O15 0.500000 0.374508 0.057000
O O16 0.695773 0.500000 0.045927
#
# Coordination Sequence:
#
# PCOD8186320 Si02
#       6
#     8  16   8  16  16  16
#     4  10  24  46  65  86 119 155 198 253 309 366
#     4  11  23  41  64  90 121 158 200 246 300 359
#     4  12  26  42  65  94 123 157 202 253 313 374
#     4   9  19  34  55  83 118 160 202 244 291 348
#     4  10  21  40  65  91 126 165 206 254 304 360
#     4  10  20  34  56  87 124 162 203 246 292 350
#
# _framework density 20.096948000000001
#
# number of rings (size 3 to 8) (size 9 to 14) (size 15 to 20)
#    0.000    1.800    1.000    2.700    1.400    5.600 
#    0.000    2.000    0.000    0.000    0.000    0.000 
#    0.000    0.000    0.000    0.000    0.000    0.000 
#
# Total GULP energy -247958.489469 kJ/mol
# GULP energy per Si atom -12397.924473 kJ/mol
# Density = 2.005121 g / cm^3
# Si number density = 20.096948 Si / 1000 Ang^3
#
#
#
# Elastic Constant Matrix: (Units=GPa)
#
#
# Indices 1 2 3 4 5 6 
#
# 1 81.8747 62.7852 53.6991 0.0000 0.0000 0.0000
# 2 62.7852 146.6962 69.1796 0.0000 0.0000 0.0000
# 3 53.6991 69.1796 115.2507 0.0000 0.0000 0.0000
# 4 0.0000 0.0000 0.0000 22.0486 0.0000 0.0000
# 5 0.0000 0.0000 0.0000 0.0000 30.8884 0.0000
# 6 0.0000 0.0000 0.0000 0.0000 0.0000 35.4039
#
#
#
# Elastic Compliance Matrix: (Units=1/GPa)
#
#
# Indices 1 2 3 4 5 6 
#
# 1 0.020842 -0.006055 -0.006077 0.000000 0.000000 0.000000
# 2 -0.006055 0.011267 -0.003942 0.000000 0.000000 0.000000
# 3 -0.006077 -0.003942 0.013874 0.000000 0.000000 0.000000
# 4 0.000000 0.000000 0.000000 0.045354 0.000000 0.000000
# 5 0.000000 0.000000 0.000000 0.000000 0.032375 0.000000
# 6 0.000000 0.000000 0.000000 0.000000 0.000000 0.028245
#
#
# Mechanical properties :
#
#
# Convention : Reuss Voigt Hill
#
# Bulk Modulus (GPa) = 72.27115 79.46105 75.86610
# Shear Modulus (GPa) = 26.49455 28.21202 27.35328
#
# Velocity S-wave (km/s) = 3.63483 3.75079 3.69327
# Velocity P-wave (km/s) = 7.32498 7.64085 7.48458
#
# Compressibility (1/GPa) = 0.01383678
#
# Stress axis : x y z
#
# Youngs Moduli (GPa) = 47.97906 88.75301 72.07530
#
# Poissons Ratio (x) = 0.53737 0.43799
# Poissons Ratio (y) = 0.29050 0.28413
# Poissons Ratio (z) = 0.29156 0.34987
#
# Static dielectric constant tensor:
#      x y z
#    x 3.615110 0.000000 0.000000 
#    y 0.000000 3.674700 0.000000 
#    z 0.000000 0.000000 3.746610 
# 
# 
# High freq. dielectric constant tensor:
#      x y z
#    x 1.782090 0.000000 0.000000 
#    y 0.000000 1.790800 0.000000 
#    z 0.000000 0.000000 1.786620 
# 
# From -- ./inp_files/31298.got.cif
#   From: 2010.03.12/outbox.cif.g09.slc.cpg/sg42_16_cif.got.tgz:31298.got - 2010.04.14 02:04:31.
