data_PCOD8186083
_publ_section_title
;
Structure prediction by ZEFSAII (Michael W. Deem and Ramdas Pophale) SiO2 
 PCOD8186083
Probable space group: F M M 2
;
_chemical_formula_sum "Si O2"
_cell_formula_units_Z 80
_cell_length_a 25.735123
_cell_length_b 8.709016
_cell_length_c 18.463251
_cell_angle_alpha 90.000000
_cell_angle_beta 90.000000
_cell_angle_gamma 90.000000
_cell_volume 4138.124097
_symmetry_space_group_name_H-M "F M M 2"
_symmetry_group_IT_number 42
_symmetry_cell_setting 'orthorhombic'
loop_
_space_group_symop_operation_xyz
x,y,z
-x,-y,z
-x,y,z
x,-y,z
x,1/2+y,1/2+z
-x,1/2-y,1/2+z
-x,1/2+y,1/2+z
x,1/2-y,1/2+z
1/2+x,y,1/2+z
1/2-x,-y,1/2+z
1/2-x,y,1/2+z
1/2+x,-y,1/2+z
1/2+x,1/2+y,z
1/2-x,1/2-y,z
1/2-x,1/2+y,z
1/2+x,1/2-y,z
loop_
_atom_site_type_symbol
_atom_site_label
_atom_site_fract_x
_atom_site_fract_y
_atom_site_fract_z
Si Si1 0.404701 0.679904 0.462690
Si Si2 0.500000 0.816850 0.214252
Si Si3 0.098503 0.182521 0.626157
Si Si4 0.803832 0.819867 0.372601
Si Si5 0.000000 0.681233 0.377780
Si Si6 0.695448 0.817720 0.217685
O O1 0.416866 0.500000 0.460595
O O2 0.405517 0.744612 0.544381
O O3 0.348346 0.717578 0.430282
O O4 0.448519 0.763964 0.417408
O O5 0.449500 0.752472 0.172732
O O6 0.500000 0.752807 0.296018
O O7 0.500000 0.000000 0.214049
O O8 0.151845 0.240998 0.661961
O O9 0.097459 0.000000 0.625726
O O10 0.750000 0.750000 0.402658
O O11 0.819352 0.742675 0.296954
O O12 0.796548 0.000000 0.359933
O O13 0.000000 0.500000 0.376069
O O14 0.750000 0.750000 0.190589
O O15 0.698861 0.000000 0.220469
#
# Coordination Sequence:
#
# PCOD8186083 Si02
#       6
#    16   8  16  16   8  16
#     4  10  21  37  56  78 106 141 178 216 263 318
#     4   9  17  31  53  77 100 129 168 212 254 303
#     4   9  18  33  54  77 101 134 174 212 255 310
#     4  10  20  34  54  79 107 141 179 219 263 312
#     4  11  22  35  55  83 108 135 174 218 266 315
#     4  10  19  33  54  78 105 138 177 219 260 309
#
# _framework density 19.332429999999999
#
# number of rings (size 3 to 8) (size 9 to 14) (size 15 to 20)
#    0.000    2.200    0.000    4.500    0.000    5.600 
#    0.000    2.000    0.000    7.200    0.000    0.000 
#    0.000    0.000    0.000    0.000    0.000    0.000 
#
# Total GULP energy -248034.943472 kJ/mol
# GULP energy per Si atom -12401.747174 kJ/mol
# Density = 1.928843 g / cm^3
# Si number density = 19.332430 Si / 1000 Ang^3
#
#
#
# Elastic Constant Matrix: (Units=GPa)
#
#
# Indices 1 2 3 4 5 6 
#
# 1 165.0174 44.6364 110.3011 0.0000 0.0000 0.0000
# 2 44.6364 59.0278 36.1725 0.0000 0.0000 0.0000
# 3 110.3011 36.1725 177.9004 0.0000 0.0000 0.0000
# 4 0.0000 0.0000 0.0000 22.1561 0.0000 0.0000
# 5 0.0000 0.0000 0.0000 0.0000 16.9313 0.0000
# 6 0.0000 0.0000 0.0000 0.0000 0.0000 28.9680
#
#
#
# Elastic Compliance Matrix: (Units=1/GPa)
#
#
# Indices 1 2 3 4 5 6 
#
# 1 0.011483 -0.004935 -0.006116 0.000000 0.000000 0.000000
# 2 -0.004935 0.021474 -0.001306 0.000000 0.000000 0.000000
# 3 -0.006116 -0.001306 0.009679 0.000000 0.000000 0.000000
# 4 0.000000 0.000000 0.000000 0.045134 0.000000 0.000000
# 5 0.000000 0.000000 0.000000 0.000000 0.059062 0.000000
# 6 0.000000 0.000000 0.000000 0.000000 0.000000 0.034521
#
#
# Mechanical properties :
#
#
# Convention : Reuss Voigt Hill
#
# Bulk Modulus (GPa) = 55.80339 87.12953 71.46646
# Shear Modulus (GPa) = 23.58020 27.66679 25.62349
#
# Velocity S-wave (km/s) = 3.49624 3.78710 3.64457
# Velocity P-wave (km/s) = 6.72504 8.01809 7.39986
#
# Compressibility (1/GPa) = 0.01792006
#
# Stress axis : x y z
#
# Youngs Moduli (GPa) = 87.08359 46.56842 103.31765
#
# Poissons Ratio (x) = 0.22984 0.63192
# Poissons Ratio (y) = 0.42980 0.13495
# Poissons Ratio (z) = 0.53263 0.06083
#
# Static dielectric constant tensor:
#      x y z
#    x 4.089690 0.000000 0.000000 
#    y 0.000000 3.294080 0.000000 
#    z 0.000000 0.000000 3.708050 
# 
# 
# High freq. dielectric constant tensor:
#      x y z
#    x 1.770260 0.000000 0.000000 
#    y 0.000000 1.727350 0.000000 
#    z 0.000000 0.000000 1.758450 
# 
# From -- ./inp_files/18227.got.cif
#   From: 2010.03.12/outbox.cif.g09.slc.cpg/sg42_10_cif.got.tgz:18227.got - 2010.04.14 02:04:31.
