data_PCOD8186214
_publ_section_title
;
Structure prediction by ZEFSAII (Michael W. Deem and Ramdas Pophale) SiO2 
 PCOD8186214
Probable space group: F M M 2
;
_chemical_formula_sum "Si O2"
_cell_formula_units_Z 96
_cell_length_a 26.861466
_cell_length_b 7.700779
_cell_length_c 25.348052
_cell_angle_alpha 90.000000
_cell_angle_beta 90.000000
_cell_angle_gamma 90.000000
_cell_volume 5243.351355
_symmetry_space_group_name_H-M "F M M 2"
_symmetry_group_IT_number 42
_symmetry_cell_setting 'orthorhombic'
loop_
_space_group_symop_operation_xyz
x,y,z
-x,-y,z
-x,y,z
x,-y,z
x,1/2+y,1/2+z
-x,1/2-y,1/2+z
-x,1/2+y,1/2+z
x,1/2-y,1/2+z
1/2+x,y,1/2+z
1/2-x,-y,1/2+z
1/2-x,y,1/2+z
1/2+x,-y,1/2+z
1/2+x,1/2+y,z
1/2-x,1/2-y,z
1/2-x,1/2+y,z
1/2+x,1/2-y,z
loop_
_atom_site_type_symbol
_atom_site_label
_atom_site_fract_x
_atom_site_fract_y
_atom_site_fract_z
Si Si1 0.804951 0.800116 0.812320
Si Si2 0.872694 0.706938 0.019415
Si Si3 0.128123 0.794265 0.713153
Si Si4 0.941827 0.000000 0.181088
Si Si5 0.306041 0.193527 0.927766
Si Si6 0.193130 0.200557 0.617740
Si Si7 0.058102 0.000000 0.056979
O O1 0.750000 0.750000 0.791755
O O2 0.845677 0.754504 0.768814
O O3 0.819854 0.704381 0.866267
O O4 0.804315 0.000000 0.827287
O O5 0.886598 0.500000 0.019870
O O6 0.832659 0.758112 0.063939
O O7 0.921235 0.823022 0.030430
O O8 0.847956 0.780408 0.965026
O O9 0.079056 0.675971 0.708450
O O10 0.165273 0.719763 0.668371
O O11 0.114837 0.000000 0.707802
O O12 0.929822 0.000000 0.119038
O O13 0.000000 0.000000 0.192356
O O14 0.250000 0.250000 0.938832
O O15 0.308316 0.000000 0.948149
O O16 0.250000 0.250000 0.616337
O O17 0.187908 0.000000 0.626507
O O18 0.000000 0.000000 0.045702
#
# Coordination Sequence:
#
# PCOD8186214 Si02
#       7
#    16  16  16   8  16  16   8
#     4  10  20  33  53  84 118 158 193 226 276 335
#     4  10  22  38  55  83 117 148 188 233 285 335
#     4  10  22  38  55  83 117 148 188 233 285 335
#     4  11  24  40  64  87 106 146 194 238 295 341
#     4  10  20  33  53  84 118 158 193 226 276 335
#     4  10  20  32  50  79 115 152 178 216 271 330
#     4  11  24  40  64  87 106 146 194 238 295 341
#
# _framework density 18.308900999999999
#
# number of rings (size 3 to 8) (size 9 to 14) (size 15 to 20)
#    0.000    1.833    1.667    3.000    7.000    0.667 
#    0.000    1.667    0.000    1.000    0.000    0.000 
#    0.000    0.000    0.000    0.000    0.000    0.000 
#
# Total GULP energy -297465.530419 kJ/mol
# GULP energy per Si atom -12394.397101 kJ/mol
# Density = 1.826723 g / cm^3
# Si number density = 18.308901 Si / 1000 Ang^3
#
#
#
# Elastic Constant Matrix: (Units=GPa)
#
#
# Indices 1 2 3 4 5 6 
#
# 1 125.2385 54.4082 63.2250 0.0000 0.0000 0.0001
# 2 54.4082 78.6875 42.3296 -0.0005 0.0000 0.0008
# 3 63.2250 42.3296 103.4265 0.0000 0.0000 0.0000
# 4 0.0000 -0.0005 0.0000 20.9244 0.0000 0.0000
# 5 0.0000 0.0000 0.0000 0.0000 25.2731 -0.0001
# 6 0.0001 0.0008 0.0000 0.0000 -0.0001 31.2824
#
#
#
# Elastic Compliance Matrix: (Units=1/GPa)
#
#
# Indices 1 2 3 4 5 6 
#
# 1 0.013638 -0.006341 -0.005742 0.000000 0.000000 0.000000
# 2 -0.006341 0.019245 -0.004000 0.000000 0.000000 0.000000
# 3 -0.005742 -0.004000 0.014816 0.000000 0.000000 0.000000
# 4 0.000000 0.000000 0.000000 0.047791 0.000000 0.000000
# 5 0.000000 0.000000 0.000000 0.000000 0.039568 0.000000
# 6 0.000000 0.000000 0.000000 0.000000 0.000000 0.031967
#
#
# Mechanical properties :
#
#
# Convention : Reuss Voigt Hill
#
# Bulk Modulus (GPa) = 64.37983 69.69758 67.03871
# Shear Modulus (GPa) = 24.46557 25.32196 24.89377
#
# Velocity S-wave (km/s) = 3.65946 3.72296 3.69135
# Velocity P-wave (km/s) = 7.28663 7.52534 7.40695
#
# Compressibility (1/GPa) = 0.01553281
#
# Stress axis : x y z
#
# Youngs Moduli (GPa) = 73.32230 51.96159 67.49574
#
# Poissons Ratio (x) = 0.32951 0.38755
# Poissons Ratio (y) = 0.46497 0.26997
# Poissons Ratio (z) = 0.42100 0.20784
#
# Static dielectric constant tensor:
#      x y z
#    x 3.150090 0.000000 0.000000 
#    y 0.000000 3.817050 0.000000 
#    z 0.000000 0.000000 3.456830 
# 
# 
# High freq. dielectric constant tensor:
#      x y z
#    x 1.682530 0.000000 0.000000 
#    y 0.000000 1.720660 0.000000 
#    z 0.000000 0.000000 1.716090 
# 
# From -- ./inp_files/33187.got.cif
#   From: 2010.03.12/outbox.cif.g09.slc.cpg/sg42_17_cif.got.tgz:33187.got - 2010.04.14 02:04:31.
