data_PCOD8186745
_publ_section_title
;
Structure prediction by ZEFSAII (Michael W. Deem and Ramdas Pophale) SiO2 
 PCOD8186745
Probable space group: F M M 2
;
_chemical_formula_sum "Si O2"
_cell_formula_units_Z 44
_cell_length_a 13.741800
_cell_length_b 11.371737
_cell_length_c 12.096560
_cell_angle_alpha 90.000000
_cell_angle_beta 90.000000
_cell_angle_gamma 90.000000
_cell_volume 1890.306877
_symmetry_space_group_name_H-M "F M M 2"
_symmetry_group_IT_number 42
_symmetry_cell_setting 'orthorhombic'
loop_
_space_group_symop_operation_xyz
x,y,z
-x,-y,z
-x,y,z
x,-y,z
x,1/2+y,1/2+z
-x,1/2-y,1/2+z
-x,1/2+y,1/2+z
x,1/2-y,1/2+z
1/2+x,y,1/2+z
1/2-x,-y,1/2+z
1/2-x,y,1/2+z
1/2+x,-y,1/2+z
1/2+x,1/2+y,z
1/2-x,1/2-y,z
1/2-x,1/2+y,z
1/2+x,1/2-y,z
loop_
_atom_site_type_symbol
_atom_site_label
_atom_site_fract_x
_atom_site_fract_y
_atom_site_fract_z
Si Si1 0.201768 0.500000 0.239350
Si Si2 0.393653 0.500000 0.085857
Si Si3 0.500000 0.500000 0.608282
Si Si4 0.159075 0.189564 0.915251
Si Si5 0.500000 0.868419 0.898109
O O1 0.298987 0.500000 0.163981
O O2 0.203129 0.615224 0.314420
O O3 0.099038 0.500000 0.176622
O O4 0.500000 0.500000 0.147836
O O5 0.395666 0.387001 0.006152
O O6 0.500000 0.383418 0.531518
O O7 0.250000 0.250000 0.976694
O O8 0.092661 0.292012 0.862358
O O9 0.500000 0.000000 0.842801
#
# Coordination Sequence:
#
# PCOD8186745 Si02
#       5
#     8   8   4  16   8
#     4  11  25  43  75 115 144 191 252 309 367 438
#     4  11  24  49  75 107 145 192 247 306 381 428
#     4  10  22  40  72 106 144 182 256 286 368 432
#     4  11  24  45  73 102 146 194 241 304 368 435
#     4  10  23  42  73 100 136 202 235 291 365 433
#
# _framework density 23.276643
#
# number of rings (size 3 to 8) (size 9 to 14) (size 15 to 20)
#    0.545    0.727    1.818    3.273    7.636    4.364 
#    3.273    0.000    4.000    0.000    0.000    0.000 
#    0.000    0.000    0.000    0.000    0.000    0.000 
#
# Total GULP energy -136303.496236 kJ/mol
# GULP energy per Si atom -12391.226931 kJ/mol
# Density = 2.322366 g / cm^3
# Si number density = 23.276643 Si / 1000 Ang^3
#
#
#
# Elastic Constant Matrix: (Units=GPa)
#
#
# Indices 1 2 3 4 5 6 
#
# 1 218.2127 68.1152 42.6957 0.0000 0.0000 0.0000
# 2 68.1152 168.6152 25.2577 0.0000 0.0000 0.0000
# 3 42.6957 25.2577 81.0277 0.0000 0.0000 0.0000
# 4 0.0000 0.0000 0.0000 -10.5297 0.0000 0.0000
# 5 0.0000 0.0000 0.0000 0.0000 37.4742 0.0000
# 6 0.0000 0.0000 0.0000 0.0000 0.0000 24.8647
#
#
#
# Elastic Compliance Matrix: (Units=1/GPa)
#
#
# Indices 1 2 3 4 5 6 
#
# 1 0.005649 -0.001926 -0.002376 0.000000 0.000000 0.000000
# 2 -0.001926 0.006878 -0.001129 0.000000 0.000000 0.000000
# 3 -0.002376 -0.001129 0.013945 0.000000 0.000000 0.000000
# 4 0.000000 0.000000 0.000000 -0.094969 0.000000 0.000000
# 5 0.000000 0.000000 0.000000 0.000000 0.026685 0.000000
# 6 0.000000 0.000000 0.000000 0.000000 0.000000 0.040218
#
#
# Mechanical properties :
#
#
# Convention : Reuss Voigt Hill
#
# Bulk Modulus (GPa) = 64.06287 82.22143 73.14215
# Shear Modulus (GPa) = 345.50981 32.48098 188.99539
#
# Velocity S-wave (km/s) = 12.19666 3.73960 9.02062
# Velocity P-wave (km/s) = 15.03086 7.35163 11.83159
#
# Compressibility (1/GPa) = 0.01560967
#
# Stress axis : x y z
#
# Youngs Moduli (GPa) = 177.02856 145.39457 71.70789
#
# Poissons Ratio (x) = 0.28003 0.17039
# Poissons Ratio (y) = 0.34096 0.08096
# Poissons Ratio (z) = 0.42065 0.16416
#
# Static dielectric constant tensor:
#      x y z
#    x 4.512090 0.000000 0.000000 
#    y 0.000000 4.430050 0.000000 
#    z 0.000000 0.000000 3.831610 
# 
# 
# High freq. dielectric constant tensor:
#      x y z
#    x 1.944660 0.000000 0.000000 
#    y 0.000000 1.936880 0.000000 
#    z 0.000000 0.000000 1.895570 
# 
# From -- ./inp_files/12337.got.cif
#   From: 2010.03.12/outbox.cif.g09.slc.cpg/sg42_7_cif.got.tgz:12337.got - 2010.04.14 02:04:31.
