data_PCOD8186911
_publ_section_title
;
Structure prediction by ZEFSAII (Michael W. Deem and Ramdas Pophale) SiO2 
 PCOD8186911
Probable space group: F D D 2
;
_chemical_formula_sum "Si O2"
_cell_formula_units_Z 120
_cell_length_a 11.627739
_cell_length_b 22.168261
_cell_length_c 26.252215
_cell_angle_alpha 90.000000
_cell_angle_beta 90.000000
_cell_angle_gamma 90.000000
_cell_volume 6766.948219
_symmetry_space_group_name_H-M "F D D 2"
_symmetry_group_IT_number 43
_symmetry_cell_setting 'orthorhombic'
loop_
_space_group_symop_operation_xyz
x,y,z
-x,-y,z
1/4-x,1/4+y,1/4+z
1/4+x,1/4-y,1/4+z
x,1/2+y,1/2+z
-x,1/2-y,1/2+z
1/4-x,3/4+y,3/4+z
1/4+x,3/4-y,3/4+z
1/2+x,y,1/2+z
1/2-x,-y,1/2+z
3/4-x,1/4+y,3/4+z
3/4+x,1/4-y,3/4+z
1/2+x,1/2+y,z
1/2-x,1/2-y,z
3/4-x,3/4+y,1/4+z
3/4+x,3/4-y,1/4+z
loop_
_atom_site_type_symbol
_atom_site_label
_atom_site_fract_x
_atom_site_fract_y
_atom_site_fract_z
Si Si1 0.437979 0.261838 0.322920
Si Si2 0.974875 0.904316 0.070715
Si Si3 0.436617 0.703315 0.011989
Si Si4 0.555950 0.423030 0.432129
Si Si5 0.772072 0.046712 0.183463
Si Si6 0.250000 0.750000 0.088840
Si Si7 0.766075 0.138723 0.935852
Si Si8 0.166908 0.025928 0.478825
O O1 0.371276 0.202193 0.303374
O O2 0.353346 0.318848 0.317398
O O3 0.480831 0.258209 0.381264
O O4 0.550474 0.270000 0.288085
O O5 0.973403 0.844246 0.036103
O O6 0.941760 0.888163 0.128183
O O7 0.361620 0.735276 0.055628
O O8 0.508513 0.753974 0.981257
O O9 0.356479 0.671893 0.970863
O O10 0.572206 0.350888 0.432423
O O11 0.522668 0.441889 0.374517
O O12 0.668449 0.459966 0.451036
O O13 0.456910 0.442540 0.472330
O O14 0.897239 0.075448 0.191620
O O15 0.759951 0.068835 0.951874
#
# Coordination Sequence:
#
# PCOD8186911 Si02
#       8
#    16  16  16  16  16   8  16  16
#     4  10  18  31  50  72 102 137 169 212 267 307
#     4  10  20  29  47  79 105 133 172 209 262 324
#     4  12  18  29  51  79 110 134 162 214 279 309
#     4   9  20  33  49  78 106 130 181 207 261 316
#     4  10  19  30  49  75 105 130 170 220 258 308
#     4  10  18  30  48  78 108 134 156 210 274 324
#     4  10  17  31  46  76 109 130 164 216 264 312
#     4   9  17  32  51  70  99 141 162 214 257 308
#
# _framework density 17.733252
#
# number of rings (size 3 to 8) (size 9 to 14) (size 15 to 20)
#    0.000    2.133    4.000    3.200    0.000    0.000 
#    0.000    0.000    0.000    8.800    3.467    0.000 
#    0.000    0.000    0.000    0.000    0.000    0.000 
#
# Total GULP energy -371843.280766 kJ/mol
# GULP energy per Si atom -12394.776026 kJ/mol
# Density = 1.769289 g / cm^3
# Si number density = 17.733252 Si / 1000 Ang^3
#
#
#
# Elastic Constant Matrix: (Units=GPa)
#
#
# Indices 1 2 3 4 5 6 
#
# 1 19.9587 22.4919 30.3433 0.0000 0.0000 0.0000
# 2 22.4919 123.1447 54.6290 0.0000 0.0000 0.0000
# 3 30.3433 54.6290 125.9336 0.0000 0.0000 0.0000
# 4 0.0000 0.0000 0.0000 34.4944 0.0000 0.0000
# 5 0.0000 0.0000 0.0000 0.0000 14.4825 0.0000
# 6 0.0000 0.0000 0.0000 0.0000 0.0000 23.3535
#
#
#
# Elastic Compliance Matrix: (Units=1/GPa)
#
#
# Indices 1 2 3 4 5 6 
#
# 1 0.084945 -0.007969 -0.017010 0.000000 0.000000 0.000000
# 2 -0.007969 0.010803 -0.002766 0.000000 0.000000 0.000000
# 3 -0.017010 -0.002766 0.013239 0.000000 0.000000 0.000000
# 4 0.000000 0.000000 0.000000 0.028990 0.000000 0.000000
# 5 0.000000 0.000000 0.000000 0.000000 0.069049 0.000000
# 6 0.000000 0.000000 0.000000 0.000000 0.000000 0.042820
#
#
# Mechanical properties :
#
#
# Convention : Reuss Voigt Hill
#
# Bulk Modulus (GPa) = 18.69290 53.77393 36.23342
# Shear Modulus (GPa) = 15.47177 25.23759 20.35468
#
# Velocity S-wave (km/s) = 2.95697 3.77660 3.39163
# Velocity P-wave (km/s) = 4.71405 7.02898 5.98451
#
# Compressibility (1/GPa) = 0.05349625
#
# Stress axis : x y z
#
# Youngs Moduli (GPa) = 11.77238 92.56550 75.53281
#
# Poissons Ratio (x) = 0.73763 1.28484
# Poissons Ratio (y) = 0.09381 0.20894
# Poissons Ratio (z) = 0.20025 0.25606
#
# Static dielectric constant tensor:
#      x y z
#    x 2.838930 0.000000 0.000000 
#    y 0.000000 3.662530 0.000000 
#    z 0.000000 0.000000 3.380330 
# 
# 
# High freq. dielectric constant tensor:
#      x y z
#    x 1.618030 0.000000 0.000000 
#    y 0.000000 1.694220 0.000000 
#    z 0.000000 0.000000 1.694140 
# 
# From -- ./inp_files/17735.got.cif
#   From: 2010.06.25/outbox.cif.g09.slc.cpg/sg43_9_cif.got.tgz:17735.got - 2010.06.26 16:48:59.
