data_PCOD8186373
_publ_section_title
;
Structure prediction by ZEFSAII (Michael W. Deem and Ramdas Pophale) SiO2 
 PCOD8186373
Probable space group: F M M 2
;
_chemical_formula_sum "Si O2"
_cell_formula_units_Z 96
_cell_length_a 17.706302
_cell_length_b 8.751991
_cell_length_c 30.620074
_cell_angle_alpha 90.000000
_cell_angle_beta 90.000000
_cell_angle_gamma 90.000000
_cell_volume 4745.051885
_symmetry_space_group_name_H-M "F M M 2"
_symmetry_group_IT_number 42
_symmetry_cell_setting 'orthorhombic'
loop_
_space_group_symop_operation_xyz
x,y,z
-x,-y,z
-x,y,z
x,-y,z
x,1/2+y,1/2+z
-x,1/2-y,1/2+z
-x,1/2+y,1/2+z
x,1/2-y,1/2+z
1/2+x,y,1/2+z
1/2-x,-y,1/2+z
1/2-x,y,1/2+z
1/2+x,-y,1/2+z
1/2+x,1/2+y,z
1/2-x,1/2-y,z
1/2-x,1/2+y,z
1/2+x,1/2-y,z
loop_
_atom_site_type_symbol
_atom_site_label
_atom_site_fract_x
_atom_site_fract_y
_atom_site_fract_z
Si Si1 0.415679 0.681798 0.131880
Si Si2 0.168220 0.180258 0.883365
Si Si3 0.912914 0.677626 0.804055
Si Si4 0.331247 0.180974 0.545549
Si Si5 0.412302 0.677863 0.463412
Si Si6 0.330074 0.821915 0.715991
O O1 0.500000 0.748630 0.136226
O O2 0.417681 0.500000 0.134593
O O3 0.382758 0.736576 0.085692
O O4 0.364889 0.747722 0.171411
O O5 0.250000 0.250000 0.892490
O O6 0.139417 0.221487 0.835230
O O7 0.108456 0.248083 0.917334
O O8 0.173481 0.000000 0.888746
O O9 0.900728 0.500000 0.815650
O O10 0.888593 0.713194 0.754682
O O11 0.000000 0.724823 0.809647
O O12 0.250000 0.250000 0.553867
O O13 0.364688 0.242149 0.500817
O O14 0.325762 0.000000 0.542857
O O15 0.500000 0.706606 0.472538
O O16 0.392103 0.500000 0.462135
O O17 0.250000 0.750000 0.727120
O O18 0.316714 0.000000 0.710248
#
# Coordination Sequence:
#
# PCOD8186373 Si02
#       6
#    16  16  16  16  16  16
#     4   9  18  34  57  84 113 149 194 240 286 339
#     4  12  25  41  62  87 117 152 192 237 286 342
#     4  10  21  38  60  86 117 153 193 238 289 343
#     4  11  22  37  59  86 118 154 194 239 287 341
#     4  11  24  42  63  87 117 151 189 236 289 344
#     4  10  20  35  57  84 115 152 193 237 285 339
#
# _framework density 20.231603
#
# number of rings (size 3 to 8) (size 9 to 14) (size 15 to 20)
#    0.000    1.500    0.000    5.500    0.000    8.333 
#    0.000    0.833    0.000    3.500    0.000    0.000 
#    0.000    0.000    0.000    0.000    0.000    0.000 
#
# Total GULP energy -297733.228394 kJ/mol
# GULP energy per Si atom -12405.551183 kJ/mol
# Density = 2.018555 g / cm^3
# Si number density = 20.231603 Si / 1000 Ang^3
#
#
#
# Elastic Constant Matrix: (Units=GPa)
#
#
# Indices 1 2 3 4 5 6 
#
# 1 109.3612 39.2412 21.4562 0.0000 0.0000 0.0000
# 2 39.2412 81.4424 30.7801 0.0000 0.0000 0.0000
# 3 21.4562 30.7801 94.8887 0.0000 0.0000 0.0000
# 4 0.0000 0.0000 0.0000 27.6479 0.0000 0.0000
# 5 0.0000 0.0000 0.0000 0.0000 41.5712 0.0000
# 6 0.0000 0.0000 0.0000 0.0000 0.0000 26.8674
#
#
#
# Elastic Compliance Matrix: (Units=1/GPa)
#
#
# Indices 1 2 3 4 5 6 
#
# 1 0.011120 -0.005024 -0.000885 0.000000 0.000000 0.000000
# 2 -0.005024 0.016264 -0.004140 0.000000 0.000000 0.000000
# 3 -0.000885 -0.004140 0.012082 0.000000 0.000000 0.000000
# 4 0.000000 0.000000 0.000000 0.036169 0.000000 0.000000
# 5 0.000000 0.000000 0.000000 0.000000 0.024055 0.000000
# 6 0.000000 0.000000 0.000000 0.000000 0.000000 0.037220
#
#
# Mechanical properties :
#
#
# Convention : Reuss Voigt Hill
#
# Bulk Modulus (GPa) = 51.62877 52.07192 51.85035
# Shear Modulus (GPa) = 30.58809 32.16495 31.37652
#
# Velocity S-wave (km/s) = 3.89253 3.99160 3.94238
# Velocity P-wave (km/s) = 6.76584 6.85840 6.81228
#
# Compressibility (1/GPa) = 0.01936905
#
# Stress axis : x y z
#
# Youngs Moduli (GPa) = 89.92649 61.48683 82.77042
#
# Poissons Ratio (x) = 0.30888 0.07325
# Poissons Ratio (y) = 0.45175 0.34264
# Poissons Ratio (z) = 0.07958 0.25454
#
# Static dielectric constant tensor:
#      x y z
#    x 3.795070 0.000000 0.000000 
#    y 0.000000 3.528860 0.000000 
#    z 0.000000 0.000000 3.815650 
# 
# 
# High freq. dielectric constant tensor:
#      x y z
#    x 1.806980 0.000000 0.000000 
#    y 0.000000 1.773230 0.000000 
#    z 0.000000 0.000000 1.808040 
# 
# From -- ./inp_files/32994.got.cif
#   From: 2010.03.12/outbox.cif.g09.slc.cpg/sg42_17_cif.got.tgz:32994.got - 2010.04.14 02:04:31.
