data_PCOD8186132
_publ_section_title
;
Structure prediction by ZEFSAII (Michael W. Deem and Ramdas Pophale) SiO2 
 PCOD8186132
Probable space group: F M M 2
;
_chemical_formula_sum "Si O2"
_cell_formula_units_Z 112
_cell_length_a 18.660075
_cell_length_b 27.473567
_cell_length_c 10.962631
_cell_angle_alpha 90.000000
_cell_angle_beta 90.000000
_cell_angle_gamma 90.000000
_cell_volume 5620.089481
_symmetry_space_group_name_H-M "F M M 2"
_symmetry_group_IT_number 42
_symmetry_cell_setting 'orthorhombic'
loop_
_space_group_symop_operation_xyz
x,y,z
-x,-y,z
-x,y,z
x,-y,z
x,1/2+y,1/2+z
-x,1/2-y,1/2+z
-x,1/2+y,1/2+z
x,1/2-y,1/2+z
1/2+x,y,1/2+z
1/2-x,-y,1/2+z
1/2-x,y,1/2+z
1/2+x,-y,1/2+z
1/2+x,1/2+y,z
1/2-x,1/2-y,z
1/2-x,1/2+y,z
1/2+x,1/2-y,z
loop_
_atom_site_type_symbol
_atom_site_label
_atom_site_fract_x
_atom_site_fract_y
_atom_site_fract_z
Si Si1 0.711484 0.554276 0.096480
Si Si2 0.082675 0.720286 0.459160
Si Si3 0.920622 0.445272 0.249990
Si Si4 0.870836 0.552824 0.996531
Si Si5 0.676442 0.122047 0.808057
Si Si6 0.083136 0.289864 0.734191
Si Si7 0.170300 0.625449 0.398166
O O1 0.679281 0.500000 0.098095
O O2 0.793192 0.554023 0.057966
O O3 0.704462 0.577023 0.229365
O O4 0.664522 0.586958 0.006810
O O5 0.095627 0.737272 0.601840
O O6 0.105471 0.759074 0.354631
O O7 0.127679 0.672702 0.435812
O O8 0.000000 0.707311 0.439876
O O9 0.892437 0.500000 0.284873
O O10 0.928332 0.441219 0.103738
O O11 0.867038 0.402251 0.286592
O O12 0.000000 0.437051 0.305664
O O13 0.881758 0.500000 0.931471
O O14 0.878555 0.598193 0.904883
O O15 0.634117 0.163007 0.733563
O O16 0.748653 0.143236 0.869901
O O17 0.000000 0.305388 0.744245
#
# Coordination Sequence:
#
# PCOD8186132 Si02
#       7
#    16  16  16  16  16  16  16
#     4  10  19  34  57  85 121 159 197 240 291 350
#     4  10  22  43  66  87 117 157 200 252 313 371
#     4  10  20  34  53  82 122 161 199 244 290 349
#     4   9  19  33  52  82 120 161 198 234 287 354
#     4  11  21  36  60  89 119 155 197 249 296 356
#     4  10  23  44  66  88 117 157 204 252 311 374
#     4  11  21  36  60  90 118 152 200 250 299 356
#
# _framework density 19.928508000000001
#
# number of rings (size 3 to 8) (size 9 to 14) (size 15 to 20)
#    0.000    1.857    2.857    1.286    0.000    3.429 
#    0.000    2.857    0.000    2.143    0.000    0.000 
#    0.000    0.000    0.000    0.000    0.000    0.000 
#
# Total GULP energy -346982.913727 kJ/mol
# GULP energy per Si atom -12392.246919 kJ/mol
# Density = 1.988315 g / cm^3
# Si number density = 19.928508 Si / 1000 Ang^3
#
#
#
# Elastic Constant Matrix: (Units=GPa)
#
#
# Indices 1 2 3 4 5 6 
#
# 1 48.7341 32.0496 14.3516 0.0000 0.0000 0.0000
# 2 32.0496 90.0349 40.3766 0.0000 0.0000 0.0000
# 3 14.3516 40.3766 98.3611 0.0000 0.0000 0.0000
# 4 0.0000 0.0000 0.0000 35.5419 0.0000 0.0000
# 5 0.0000 0.0000 0.0000 0.0000 21.7700 0.0000
# 6 0.0000 0.0000 0.0000 0.0000 0.0000 24.1401
#
#
#
# Elastic Compliance Matrix: (Units=1/GPa)
#
#
# Indices 1 2 3 4 5 6 
#
# 1 0.026791 -0.009540 0.000007 0.000000 0.000000 0.000000
# 2 -0.009540 0.017010 -0.005590 0.000000 0.000000 0.000000
# 3 0.000007 -0.005590 0.012460 0.000000 0.000000 0.000000
# 4 0.000000 0.000000 0.000000 0.028136 0.000000 0.000000
# 5 0.000000 0.000000 0.000000 0.000000 0.045935 0.000000
# 6 0.000000 0.000000 0.000000 0.000000 0.000000 0.041425
#
#
# Mechanical properties :
#
#
# Convention : Reuss Voigt Hill
#
# Bulk Modulus (GPa) = 38.43971 45.63175 42.03573
# Shear Modulus (GPa) = 23.73316 26.31388 25.02352
#
# Velocity S-wave (km/s) = 3.45471 3.63769 3.54738
# Velocity P-wave (km/s) = 5.93667 6.37112 6.15773
#
# Compressibility (1/GPa) = 0.02601476
#
# Stress axis : x y z
#
# Youngs Moduli (GPa) = 37.32543 58.78955 80.25398
#
# Poissons Ratio (x) = 0.56086 -0.00057
# Poissons Ratio (y) = 0.35609 0.44866
# Poissons Ratio (z) = -0.00026 0.32866
#
# Static dielectric constant tensor:
#      x y z
#    x 3.456720 0.000000 0.000000 
#    y 0.000000 3.583110 0.000000 
#    z 0.000000 0.000000 3.917440 
# 
# 
# High freq. dielectric constant tensor:
#      x y z
#    x 1.767210 0.000000 0.000000 
#    y 0.000000 1.764810 0.000000 
#    z 0.000000 0.000000 1.782990 
# 
# From -- ./inp_files/9643.got.cif
#   From: 2010.03.12/outbox.cif.g09.slc.cpg/sg42_5_cif.got.tgz:9643.got - 2010.04.14 02:04:31.
