data_PCOD8186657
_publ_section_title
;
Structure prediction by ZEFSAII (Michael W. Deem and Ramdas Pophale) SiO2 
 PCOD8186657
Probable space group: F M M 2
;
_chemical_formula_sum "Si O2"
_cell_formula_units_Z 88
_cell_length_a 27.527705
_cell_length_b 17.564071
_cell_length_c 8.462837
_cell_angle_alpha 90.000000
_cell_angle_beta 90.000000
_cell_angle_gamma 90.000000
_cell_volume 4091.769546
_symmetry_space_group_name_H-M "F M M 2"
_symmetry_group_IT_number 42
_symmetry_cell_setting 'orthorhombic'
loop_
_space_group_symop_operation_xyz
x,y,z
-x,-y,z
-x,y,z
x,-y,z
x,1/2+y,1/2+z
-x,1/2-y,1/2+z
-x,1/2+y,1/2+z
x,1/2-y,1/2+z
1/2+x,y,1/2+z
1/2-x,-y,1/2+z
1/2-x,y,1/2+z
1/2+x,-y,1/2+z
1/2+x,1/2+y,z
1/2-x,1/2-y,z
1/2-x,1/2+y,z
1/2+x,1/2-y,z
loop_
_atom_site_type_symbol
_atom_site_label
_atom_site_fract_x
_atom_site_fract_y
_atom_site_fract_z
Si Si1 0.604875 0.794812 0.217630
Si Si2 0.000000 0.717159 0.177074
Si Si3 0.750000 0.250000 0.137857
Si Si4 0.394017 0.361259 0.374330
Si Si5 0.000000 0.357399 0.853311
Si Si6 0.678131 0.500000 0.346806
Si Si7 0.771284 0.000000 0.018532
Si Si8 0.195057 0.342125 0.390015
O O1 0.548868 0.818278 0.254819
O O2 0.611080 0.703148 0.238464
O O3 0.638539 0.837935 0.343549
O O4 0.617561 0.820266 0.040031
O O5 0.000000 0.808873 0.192706
O O6 0.000000 0.706466 0.989995
O O7 0.772120 0.318154 0.240521
O O8 0.793474 0.215216 0.033692
O O9 0.448295 0.401651 0.369172
O O10 0.354606 0.425273 0.341662
O O11 0.712378 0.500000 0.502343
O O12 0.715318 0.500000 0.201573
O O13 0.793760 0.072104 0.931754
#
# Coordination Sequence:
#
# PCOD8186657 Si02
#       8
#    16   8   8  16   8   8   8  16
#     4  10  21  38  69  97 127 166 211 261 309 377
#     4   8  16  34  58  99 129 155 203 259 313 363
#     4  10  24  40  66  94 118 164 220 272 300 376
#     4  10  23  41  69  97 132 164 213 257 321 376
#     4   8  16  37  64  97 125 164 201 259 309 380
#     4  12  30  47  62  91 131 170 213 264 328 379
#     4  12  30  46  62  87 133 171 209 268 324 379
#     4  11  24  42  64  91 125 166 216 260 322 368
#
# _framework density 21.506588000000001
#
# number of rings (size 3 to 8) (size 9 to 14) (size 15 to 20)
#    0.000    1.818    0.000    2.182   15.273    0.364 
#    0.000    0.000    0.000    2.727    0.000    0.000 
#    0.000    0.000    0.000    0.000    0.000    0.000 
#
# Total GULP energy -272657.492375 kJ/mol
# GULP energy per Si atom -12393.522381 kJ/mol
# Density = 2.145764 g / cm^3
# Si number density = 21.506588 Si / 1000 Ang^3
#
#
#
# Elastic Constant Matrix: (Units=GPa)
#
#
# Indices 1 2 3 4 5 6 
#
# 1 147.8829 50.2879 45.4187 0.0000 0.0000 0.0000
# 2 50.2879 101.6398 34.3868 0.0000 0.0000 0.0000
# 3 45.4187 34.3868 93.6919 0.0000 0.0000 0.0000
# 4 0.0000 0.0000 0.0000 16.0272 0.0000 0.0000
# 5 0.0000 0.0000 0.0000 0.0000 28.6627 0.0000
# 6 0.0000 0.0000 0.0000 0.0000 0.0000 27.4359
#
#
#
# Elastic Compliance Matrix: (Units=1/GPa)
#
#
# Indices 1 2 3 4 5 6 
#
# 1 0.008836 -0.003337 -0.003059 0.000000 0.000000 0.000000
# 2 -0.003337 0.012494 -0.002968 0.000000 0.000000 0.000000
# 3 -0.003059 -0.002968 0.013245 0.000000 0.000000 0.000000
# 4 0.000000 0.000000 0.000000 0.062394 0.000000 0.000000
# 5 0.000000 0.000000 0.000000 0.000000 0.034889 0.000000
# 6 0.000000 0.000000 0.000000 0.000000 0.000000 0.036449
#
#
# Mechanical properties :
#
#
# Convention : Reuss Voigt Hill
#
# Bulk Modulus (GPa) = 63.09873 67.04458 65.07166
# Shear Modulus (GPa) = 25.99881 28.63324 27.31603
#
# Velocity S-wave (km/s) = 3.48066 3.65275 3.56775
# Velocity P-wave (km/s) = 6.74954 7.00227 6.87707
#
# Compressibility (1/GPa) = 0.01584818
#
# Stress axis : x y z
#
# Youngs Moduli (GPa) = 113.16939 80.03979 75.49841
#
# Poissons Ratio (x) = 0.26710 0.23093
# Poissons Ratio (y) = 0.37765 0.22406
# Poissons Ratio (z) = 0.34616 0.23754
#
# Static dielectric constant tensor:
#      x y z
#    x 4.391460 0.000000 0.000000 
#    y 0.000000 3.562400 0.000000 
#    z 0.000000 0.000000 4.017590 
# 
# 
# High freq. dielectric constant tensor:
#      x y z
#    x 1.871030 0.000000 0.000000 
#    y 0.000000 1.807400 0.000000 
#    z 0.000000 0.000000 1.846450 
# 
# From -- ./inp_files/5566.got.cif
#   From: 2010.03.12/outbox.cif.g09.slc.cpg/sg42_3_cif.got.tgz:5566.got - 2010.04.14 02:04:31.
