data_PCOD8186740
_publ_section_title
;
Structure prediction by ZEFSAII (Michael W. Deem and Ramdas Pophale) SiO2 
 PCOD8186740
Probable space group: F M M 2
;
_chemical_formula_sum "Si O2"
_cell_formula_units_Z 84
_cell_length_a 7.887450
_cell_length_b 26.989137
_cell_length_c 19.554400
_cell_angle_alpha 90.000000
_cell_angle_beta 90.000000
_cell_angle_gamma 90.000000
_cell_volume 4162.652064
_symmetry_space_group_name_H-M "F M M 2"
_symmetry_group_IT_number 42
_symmetry_cell_setting 'orthorhombic'
loop_
_space_group_symop_operation_xyz
x,y,z
-x,-y,z
-x,y,z
x,-y,z
x,1/2+y,1/2+z
-x,1/2-y,1/2+z
-x,1/2+y,1/2+z
x,1/2-y,1/2+z
1/2+x,y,1/2+z
1/2-x,-y,1/2+z
1/2-x,y,1/2+z
1/2+x,-y,1/2+z
1/2+x,1/2+y,z
1/2-x,1/2-y,z
1/2-x,1/2+y,z
1/2+x,1/2-y,z
loop_
_atom_site_type_symbol
_atom_site_label
_atom_site_fract_x
_atom_site_fract_y
_atom_site_fract_z
Si Si1 0.802093 0.500000 0.035671
Si Si2 0.693336 0.386991 0.248043
Si Si3 0.000000 0.447304 0.298669
Si Si4 0.299987 0.695272 0.499677
Si Si5 0.500000 0.000000 0.430530
Si Si6 0.197669 0.197257 0.347839
Si Si7 0.301248 0.607587 0.598351
O O1 0.761854 0.550564 0.077236
O O2 0.000000 0.500000 0.011435
O O3 0.674569 0.500000 0.972219
O O4 0.500000 0.400868 0.268282
O O5 0.823478 0.427879 0.271088
O O6 0.761648 0.339772 0.289905
O O7 0.701849 0.378817 0.167113
O O8 0.000000 0.451043 0.381770
O O9 0.000000 0.500000 0.262706
O O10 0.500000 0.692045 0.497503
O O11 0.250000 0.750000 0.528841
O O12 0.220618 0.688492 0.423298
O O13 0.232884 0.648660 0.544284
O O14 0.250000 0.250000 0.318549
O O15 0.000000 0.192659 0.357015
O O16 0.500000 0.614063 0.611308
#
# Coordination Sequence:
#
# PCOD8186740 Si02
#       7
#     8  16   8  16   4  16  16
#     4  10  24  43  65  93 131 163 201 266 319 363
#     4  11  24  41  64  94 126 170 211 258 318 378
#     4  10  26  44  64  92 129 157 213 265 313 373
#     4   9  19  37  59  89 123 162 205 261 315 370
#     4  10  26  44  64 104 114 162 224 244 316 396
#     4   9  20  37  60  91 122 162 211 258 320 376
#     4  10  22  40  64  89 128 168 210 259 315 374
#
# _framework density 20.179442999999999
#
# number of rings (size 3 to 8) (size 9 to 14) (size 15 to 20)
#    0.286    1.905    0.952    0.000    6.667    2.667 
#    0.000    3.810    0.000    0.000    0.000    0.000 
#    0.000    0.000    0.000    0.000    0.000    0.000 
#
# Total GULP energy -260178.862372 kJ/mol
# GULP energy per Si atom -12389.469637 kJ/mol
# Density = 2.013351 g / cm^3
# Si number density = 20.179443 Si / 1000 Ang^3
#
#
#
# Elastic Constant Matrix: (Units=GPa)
#
#
# Indices 1 2 3 4 5 6 
#
# 1 72.1511 36.6574 39.3573 0.0000 0.0000 0.0000
# 2 36.6574 177.2571 80.8406 0.0000 0.0000 0.0000
# 3 39.3573 80.8406 129.8766 0.0000 0.0000 0.0000
# 4 0.0000 0.0000 0.0000 89.5319 0.0000 0.0000
# 5 0.0000 0.0000 0.0000 0.0000 22.7846 0.0000
# 6 0.0000 0.0000 0.0000 0.0000 0.0000 24.1513
#
#
#
# Elastic Compliance Matrix: (Units=1/GPa)
#
#
# Indices 1 2 3 4 5 6 
#
# 1 0.016932 -0.001622 -0.004121 0.000000 0.000000 0.000000
# 2 -0.001622 0.008033 -0.004509 0.000000 0.000000 0.000000
# 3 -0.004121 -0.004509 0.011755 0.000000 0.000000 0.000000
# 4 0.000000 0.000000 0.000000 0.011169 0.000000 0.000000
# 5 0.000000 0.000000 0.000000 0.000000 0.043889 0.000000
# 6 0.000000 0.000000 0.000000 0.000000 0.000000 0.041406
#
#
# Mechanical properties :
#
#
# Convention : Reuss Voigt Hill
#
# Bulk Modulus (GPa) = 61.66740 76.99948 69.33344
# Shear Modulus (GPa) = 31.42799 42.12219 36.77509
#
# Velocity S-wave (km/s) = 3.95071 4.57374 4.27359
# Velocity P-wave (km/s) = 7.17193 8.13218 7.66711
#
# Compressibility (1/GPa) = 0.01621602
#
# Stress axis : x y z
#
# Youngs Moduli (GPa) = 59.05962 124.48339 85.07052
#
# Poissons Ratio (x) = 0.20191 0.35061
# Poissons Ratio (y) = 0.09579 0.38356
# Poissons Ratio (z) = 0.24341 0.56126
#
# Static dielectric constant tensor:
#      x y z
#    x 3.368530 0.000000 0.000000 
#    y 0.000000 3.816680 0.000000 
#    z 0.000000 0.000000 3.940730 
# 
# 
# High freq. dielectric constant tensor:
#      x y z
#    x 1.786290 0.000000 0.000000 
#    y 0.000000 1.792210 0.000000 
#    z 0.000000 0.000000 1.785900 
# 
# From -- ./inp_files/23490.got.cif
#   From: 2010.03.12/outbox.cif.g09.slc.cpg/sg42_12_cif.got.tgz:23490.got - 2010.04.14 02:04:31.
