data_PCOD8186158
_publ_section_title
;
Structure prediction by ZEFSAII (Michael W. Deem and Ramdas Pophale) SiO2 
 PCOD8186158
Probable space group: F M M 2
;
_chemical_formula_sum "Si O2"
_cell_formula_units_Z 80
_cell_length_a 10.276327
_cell_length_b 16.888207
_cell_length_c 23.084152
_cell_angle_alpha 90.000000
_cell_angle_beta 90.000000
_cell_angle_gamma 90.000000
_cell_volume 4006.225438
_symmetry_space_group_name_H-M "F M M 2"
_symmetry_group_IT_number 42
_symmetry_cell_setting 'orthorhombic'
loop_
_space_group_symop_operation_xyz
x,y,z
-x,-y,z
-x,y,z
x,-y,z
x,1/2+y,1/2+z
-x,1/2-y,1/2+z
-x,1/2+y,1/2+z
x,1/2-y,1/2+z
1/2+x,y,1/2+z
1/2-x,-y,1/2+z
1/2-x,y,1/2+z
1/2+x,-y,1/2+z
1/2+x,1/2+y,z
1/2-x,1/2-y,z
1/2-x,1/2+y,z
1/2+x,1/2-y,z
loop_
_atom_site_type_symbol
_atom_site_label
_atom_site_fract_x
_atom_site_fract_y
_atom_site_fract_z
Si Si1 0.500000 0.827441 0.740731
Si Si2 0.000000 0.849638 0.598520
Si Si3 0.254003 0.591343 0.296090
Si Si4 0.353256 0.906340 0.418680
Si Si5 0.243649 0.656130 0.536950
Si Si6 0.000000 0.139538 0.729791
Si Si7 0.000000 0.338220 0.608896
O O1 0.628697 0.855237 0.773515
O O2 0.500000 0.733198 0.739288
O O3 0.500000 0.863597 0.676000
O O4 0.125451 0.880404 0.563734
O O5 0.000000 0.885018 0.662680
O O6 0.000000 0.755517 0.603087
O O7 0.298035 0.500000 0.295963
O O8 0.219392 0.621185 0.360524
O O9 0.127526 0.600819 0.256703
O O10 0.500000 0.871172 0.419793
O O11 0.270609 0.873737 0.471860
O O12 0.360193 0.000000 0.421514
O O13 0.250000 0.750000 0.536485
O O14 0.125807 0.625554 0.577169
#
# Coordination Sequence:
#
# PCOD8186158 Si02
#       7
#     8   8  16  16  16   8   8
#     4  11  23  38  63  94 120 149 202 255 294 341
#     4   9  20  34  55  88 118 149 184 241 304 337
#     4  11  23  41  61  86 122 162 197 244 304 356
#     4  10  21  40  61  80 113 160 198 234 293 359
#     4  10  19  35  60  86 114 148 194 240 286 343
#     4  11  21  40  65  86 120 163 200 235 292 371
#     4   9  18  36  57  82 120 155 184 235 296 349
#
# _framework density 19.968921999999999
#
# number of rings (size 3 to 8) (size 9 to 14) (size 15 to 20)
#    0.000    1.800    2.000    2.400    0.000    5.600 
#    0.000    7.500    0.000    0.000    0.000    0.000 
#    0.000    0.000    0.000    0.000    0.000    0.000 
#
# Total GULP energy -248066.321449 kJ/mol
# GULP energy per Si atom -12403.316072 kJ/mol
# Density = 1.992347 g / cm^3
# Si number density = 19.968922 Si / 1000 Ang^3
#
#
#
# Elastic Constant Matrix: (Units=GPa)
#
#
# Indices 1 2 3 4 5 6 
#
# 1 162.4559 11.7360 89.5096 0.0000 0.0000 0.0000
# 2 11.7360 24.8590 23.4376 0.0000 0.0000 0.0000
# 3 89.5096 23.4376 193.3298 0.0000 0.0000 0.0000
# 4 0.0000 0.0000 0.0000 -10.3788 0.0000 0.0000
# 5 0.0000 0.0000 0.0000 0.0000 27.9162 0.0000
# 6 0.0000 0.0000 0.0000 0.0000 0.0000 8.5643
#
#
#
# Elastic Compliance Matrix: (Units=1/GPa)
#
#
# Indices 1 2 3 4 5 6 
#
# 1 0.008266 -0.000332 -0.003787 0.000000 0.000000 0.000000
# 2 -0.000332 0.045431 -0.005354 0.000000 0.000000 0.000000
# 3 -0.003787 -0.005354 0.007575 0.000000 0.000000 0.000000
# 4 0.000000 0.000000 0.000000 -0.096351 0.000000 0.000000
# 5 0.000000 0.000000 0.000000 0.000000 0.035821 0.000000
# 6 0.000000 0.000000 0.000000 0.000000 0.000000 0.116764
#
#
# Mechanical properties :
#
#
# Convention : Reuss Voigt Hill
#
# Bulk Modulus (GPa) = 23.62583 70.00123 46.81353
# Shear Modulus (GPa) = 33.20911 22.28446 27.74679
#
# Velocity S-wave (km/s) = 4.08246 3.34422 3.73164
# Velocity P-wave (km/s) = 5.83772 7.07410 6.48544
#
# Compressibility (1/GPa) = 0.04232655
#
# Stress axis : x y z
#
# Youngs Moduli (GPa) = 120.97836 22.01117 132.01649
#
# Poissons Ratio (x) = 0.00731 0.49992
# Poissons Ratio (y) = 0.04018 0.70681
# Poissons Ratio (z) = 0.45812 0.11785
#
# Static dielectric constant tensor:
#      x y z
#    x 3.737890 0.000000 0.000000 
#    y 0.000000 3.331250 0.000000 
#    z 0.000000 0.000000 3.925720 
# 
# 
# High freq. dielectric constant tensor:
#      x y z
#    x 1.791260 0.000000 0.000000 
#    y 0.000000 1.753510 0.000000 
#    z 0.000000 0.000000 1.796000 
# 
# From -- ./inp_files/24295.got.cif
#   From: 2010.03.12/outbox.cif.g09.slc.cpg/sg42_13_cif.got.tgz:24295.got - 2010.04.14 02:04:31.
