data_PCOD8186341
_publ_section_title
;
Structure prediction by ZEFSAII (Michael W. Deem and Ramdas Pophale) SiO2 
 PCOD8186341
Probable space group: F M M 2
;
_chemical_formula_sum "Si O2"
_cell_formula_units_Z 80
_cell_length_a 7.722007
_cell_length_b 18.614819
_cell_length_c 29.430220
_cell_angle_alpha 90.000000
_cell_angle_beta 90.000000
_cell_angle_gamma 90.000000
_cell_volume 4230.410558
_symmetry_space_group_name_H-M "F M M 2"
_symmetry_group_IT_number 42
_symmetry_cell_setting 'orthorhombic'
loop_
_space_group_symop_operation_xyz
x,y,z
-x,-y,z
-x,y,z
x,-y,z
x,1/2+y,1/2+z
-x,1/2-y,1/2+z
-x,1/2+y,1/2+z
x,1/2-y,1/2+z
1/2+x,y,1/2+z
1/2-x,-y,1/2+z
1/2-x,y,1/2+z
1/2+x,-y,1/2+z
1/2+x,1/2+y,z
1/2-x,1/2-y,z
1/2-x,1/2+y,z
1/2+x,1/2-y,z
loop_
_atom_site_type_symbol
_atom_site_label
_atom_site_fract_x
_atom_site_fract_y
_atom_site_fract_z
Si Si1 0.000000 0.914097 0.494720
Si Si2 0.705156 0.920350 0.657371
Si Si3 0.307164 0.585589 0.057161
Si Si4 0.500000 0.914892 0.893019
Si Si5 0.193783 0.417693 0.329337
Si Si6 0.796704 0.832658 0.242769
O O1 0.171552 0.884782 0.520148
O O2 0.000000 0.882369 0.443750
O O3 0.000000 0.000000 0.494893
O O4 0.500000 0.925530 0.659744
O O5 0.756878 0.890372 0.607488
O O6 0.775775 0.866876 0.696037
O O7 0.784214 0.000000 0.665468
O O8 0.500000 0.615879 0.046134
O O9 0.313803 0.500000 0.056558
O O10 0.328416 0.887975 0.866759
O O11 0.500000 0.000000 0.896848
O O12 0.239793 0.500000 0.316782
O O13 0.201627 0.370769 0.284226
O O14 0.000000 0.411844 0.349766
O O15 0.750000 0.750000 0.242777
O O16 0.000000 0.845280 0.248189
#
# Coordination Sequence:
#
# PCOD8186341 Si02
#       6
#     8  16  16   8  16  16
#     4   9  16  26  44  73 102 130 162 204 258 306
#     4   8  15  29  50  72  99 140 176 206 254 308
#     4   8  14  26  43  67 101 133 164 202 247 302
#     4   9  18  32  50  73 104 136 167 210 264 310
#     4  10  20  35  54  76 104 138 175 214 260 314
#     4  11  21  34  51  74 108 139 178 217 260 307
#
# _framework density 18.910692999999998
#
# number of rings (size 3 to 8) (size 9 to 14) (size 15 to 20)
#    0.000    2.800    1.000    2.400    0.000    1.600 
#    3.600    4.000    0.000    0.000    0.000    1.400 
#    0.000    0.000    0.000    0.000    0.000    0.000 
#
# Total GULP energy -247923.643690 kJ/mol
# GULP energy per Si atom -12396.182185 kJ/mol
# Density = 1.886765 g / cm^3
# Si number density = 18.910693 Si / 1000 Ang^3
#
#
#
# Elastic Constant Matrix: (Units=GPa)
#
#
# Indices 1 2 3 4 5 6 
#
# 1 110.9867 20.8550 70.2487 0.0000 0.0000 0.0000
# 2 20.8550 57.0645 43.7649 0.0000 0.0000 0.0000
# 3 70.2487 43.7649 176.2656 0.0000 0.0000 0.0000
# 4 0.0000 0.0000 0.0000 3.9427 0.0000 0.0000
# 5 0.0000 0.0000 0.0000 0.0000 20.3072 0.0000
# 6 0.0000 0.0000 0.0000 0.0000 0.0000 14.0726
#
#
#
# Elastic Compliance Matrix: (Units=1/GPa)
#
#
# Indices 1 2 3 4 5 6 
#
# 1 0.012086 -0.000893 -0.004595 0.000000 0.000000 0.000000
# 2 -0.000893 0.021712 -0.005035 0.000000 0.000000 0.000000
# 3 -0.004595 -0.005035 0.008755 0.000000 0.000000 0.000000
# 4 0.000000 0.000000 0.000000 0.253636 0.000000 0.000000
# 5 0.000000 0.000000 0.000000 0.000000 0.049244 0.000000
# 6 0.000000 0.000000 0.000000 0.000000 0.000000 0.071060
#
#
# Mechanical properties :
#
#
# Convention : Reuss Voigt Hill
#
# Bulk Modulus (GPa) = 46.49679 68.22823 57.36251
# Shear Modulus (GPa) = 11.24334 21.62771 16.43553
#
# Velocity S-wave (km/s) = 2.44098 3.38550 2.95127
# Velocity P-wave (km/s) = 5.70837 7.17214 6.48171
#
# Compressibility (1/GPa) = 0.02150686
#
# Stress axis : x y z
#
# Youngs Moduli (GPa) = 82.73766 46.05773 114.22365
#
# Poissons Ratio (x) = 0.04113 0.52488
# Poissons Ratio (y) = 0.07388 0.57511
# Poissons Ratio (z) = 0.38020 0.23190
#
# Static dielectric constant tensor:
#      x y z
#    x 3.595740 0.000000 0.000000 
#    y 0.000000 3.021240 0.000000 
#    z 0.000000 0.000000 3.714460 
# 
# 
# High freq. dielectric constant tensor:
#      x y z
#    x 1.739320 0.000000 0.000000 
#    y 0.000000 1.675600 0.000000 
#    z 0.000000 0.000000 1.735670 
# 
# From -- ./inp_files/27829.got.cif
#   From: 2010.03.12/outbox.cif.g09.slc.cpg/sg42_14_cif.got.tgz:27829.got - 2010.04.14 02:04:31.
