data_PCOD8186049
_publ_section_title
;
Structure prediction by ZEFSAII (Michael W. Deem and Ramdas Pophale) SiO2 
 PCOD8186049
Probable space group: F M M 2
;
_chemical_formula_sum "Si O2"
_cell_formula_units_Z 96
_cell_length_a 8.944097
_cell_length_b 28.207501
_cell_length_c 20.644531
_cell_angle_alpha 90.000000
_cell_angle_beta 90.000000
_cell_angle_gamma 90.000000
_cell_volume 5208.421630
_symmetry_space_group_name_H-M "F M M 2"
_symmetry_group_IT_number 42
_symmetry_cell_setting 'orthorhombic'
loop_
_space_group_symop_operation_xyz
x,y,z
-x,-y,z
-x,y,z
x,-y,z
x,1/2+y,1/2+z
-x,1/2-y,1/2+z
-x,1/2+y,1/2+z
x,1/2-y,1/2+z
1/2+x,y,1/2+z
1/2-x,-y,1/2+z
1/2-x,y,1/2+z
1/2+x,-y,1/2+z
1/2+x,1/2+y,z
1/2-x,1/2-y,z
1/2-x,1/2+y,z
1/2+x,1/2-y,z
loop_
_atom_site_type_symbol
_atom_site_label
_atom_site_fract_x
_atom_site_fract_y
_atom_site_fract_z
Si Si1 0.823519 0.891149 0.207430
Si Si2 0.170456 0.444180 0.321623
Si Si3 0.824923 0.797990 0.899994
Si Si4 0.822748 0.603704 0.452553
Si Si5 0.321975 0.053595 0.580392
Si Si6 0.824320 0.701487 0.250290
O O1 0.779680 0.921465 0.269684
O O2 0.767203 0.919329 0.144323
O O3 0.742933 0.840511 0.207258
O O4 0.000000 0.883165 0.206773
O O5 0.180667 0.500000 0.315730
O O6 0.227042 0.428861 0.392453
O O7 0.000000 0.426177 0.309938
O O8 0.750000 0.750000 0.926046
O O9 0.764739 0.842427 0.941986
O O10 0.782998 0.807948 0.825282
O O11 0.000000 0.791340 0.907995
O O12 0.755376 0.581413 0.518151
O O13 0.000000 0.604378 0.457172
O O14 0.500000 0.052186 0.577269
O O15 0.258488 0.000000 0.581178
O O16 0.750000 0.750000 0.226046
O O17 0.000000 0.704649 0.239131
#
# Coordination Sequence:
#
# PCOD8186049 Si02
#       6
#    16  16  16  16  16  16
#     4  11  21  33  51  78 111 144 176 215 268 321
#     4  10  19  32  53  78 102 133 178 230 276 316
#     4   9  17  30  51  77 104 130 165 213 262 312
#     4   9  16  31  52  76 102 133 176 225 267 311
#     4   9  18  32  51  75 105 142 182 221 262 313
#     4  10  19  34  55  81 109 138 177 219 267 318
#
# _framework density 18.431687
#
# number of rings (size 3 to 8) (size 9 to 14) (size 15 to 20)
#    0.000    2.333    1.667    2.000    0.000    3.667 
#    0.000    0.833    0.000    6.000    0.000    0.000 
#    0.000    0.000    0.000    0.000    0.000    0.000 
#
# Total GULP energy -297615.064875 kJ/mol
# GULP energy per Si atom -12400.627703 kJ/mol
# Density = 1.838974 g / cm^3
# Si number density = 18.431687 Si / 1000 Ang^3
#
#
#
# Elastic Constant Matrix: (Units=GPa)
#
#
# Indices 1 2 3 4 5 6 
#
# 1 42.0614 39.2880 27.8210 0.0000 0.0000 0.0000
# 2 39.2880 168.1900 72.0699 0.0000 0.0000 0.0000
# 3 27.8210 72.0699 112.5920 0.0000 0.0000 0.0000
# 4 0.0000 0.0000 0.0000 36.0650 0.0000 0.0000
# 5 0.0000 0.0000 0.0000 0.0000 19.2466 0.0000
# 6 0.0000 0.0000 0.0000 0.0000 0.0000 30.0665
#
#
#
# Elastic Compliance Matrix: (Units=1/GPa)
#
#
# Indices 1 2 3 4 5 6 
#
# 1 0.031840 -0.005603 -0.004281 0.000000 0.000000 0.000000
# 2 -0.005603 0.009179 -0.004491 0.000000 0.000000 0.000000
# 3 -0.004281 -0.004491 0.012814 0.000000 0.000000 0.000000
# 4 0.000000 0.000000 0.000000 0.027728 0.000000 0.000000
# 5 0.000000 0.000000 0.000000 0.000000 0.051957 0.000000
# 6 0.000000 0.000000 0.000000 0.000000 0.000000 0.033260
#
#
# Mechanical properties :
#
#
# Convention : Reuss Voigt Hill
#
# Bulk Modulus (GPa) = 39.86768 66.80014 53.33391
# Shear Modulus (GPa) = 24.52319 29.31991 26.92155
#
# Velocity S-wave (km/s) = 3.65155 3.99273 3.82594
# Velocity P-wave (km/s) = 6.28135 7.58792 6.96534
#
# Compressibility (1/GPa) = 0.02508297
#
# Stress axis : x y z
#
# Youngs Moduli (GPa) = 31.40690 108.94587 78.03967
#
# Poissons Ratio (x) = 0.61045 0.33408
# Poissons Ratio (y) = 0.17598 0.35046
# Poissons Ratio (z) = 0.13445 0.48926
#
# Static dielectric constant tensor:
#      x y z
#    x 2.940590 0.000000 0.000000 
#    y 0.000000 3.674020 0.000000 
#    z 0.000000 0.000000 3.421950 
# 
# 
# High freq. dielectric constant tensor:
#      x y z
#    x 1.680330 0.000000 0.000000 
#    y 0.000000 1.735660 0.000000 
#    z 0.000000 0.000000 1.700160 
# 
# From -- ./inp_files/23711.got.cif
#   From: 2010.03.12/outbox.cif.g09.slc.cpg/sg42_12_cif.got.tgz:23711.got - 2010.04.14 02:04:31.
