data_PCOD8186118
_publ_section_title
;
Structure prediction by ZEFSAII (Michael W. Deem and Ramdas Pophale) SiO2 
 PCOD8186118
Probable space group: F M M 2
;
_chemical_formula_sum "Si O2"
_cell_formula_units_Z 96
_cell_length_a 28.079444
_cell_length_b 9.206666
_cell_length_c 20.325829
_cell_angle_alpha 90.000000
_cell_angle_beta 90.000000
_cell_angle_gamma 90.000000
_cell_volume 5254.593929
_symmetry_space_group_name_H-M "F M M 2"
_symmetry_group_IT_number 42
_symmetry_cell_setting 'orthorhombic'
loop_
_space_group_symop_operation_xyz
x,y,z
-x,-y,z
-x,y,z
x,-y,z
x,1/2+y,1/2+z
-x,1/2-y,1/2+z
-x,1/2+y,1/2+z
x,1/2-y,1/2+z
1/2+x,y,1/2+z
1/2-x,-y,1/2+z
1/2-x,y,1/2+z
1/2+x,-y,1/2+z
1/2+x,1/2+y,z
1/2-x,1/2-y,z
1/2-x,1/2+y,z
1/2+x,1/2-y,z
loop_
_atom_site_type_symbol
_atom_site_label
_atom_site_fract_x
_atom_site_fract_y
_atom_site_fract_z
Si Si1 0.551476 0.328006 0.150170
Si Si2 0.641282 0.831321 0.960442
Si Si3 0.298919 0.668743 0.337568
Si Si4 0.849737 0.669463 0.703203
Si Si5 0.053692 0.831337 0.001644
Si Si6 0.201885 0.329498 0.088091
O O1 0.500000 0.269161 0.176803
O O2 0.548960 0.500000 0.147537
O O3 0.595338 0.277158 0.195767
O O4 0.559308 0.271068 0.075954
O O5 0.676084 0.771333 0.903532
O O6 0.632105 0.000000 0.948541
O O7 0.590394 0.752885 0.954897
O O8 0.663930 0.798263 0.031152
O O9 0.286633 0.500000 0.344382
O O10 0.250000 0.750000 0.324487
O O11 0.334802 0.698971 0.277690
O O12 0.844374 0.500000 0.683966
O O13 0.816304 0.763520 0.656257
O O14 0.000000 0.803065 0.976229
O O15 0.066616 0.000000 0.998613
O O16 0.211562 0.500000 0.097341
O O17 0.250000 0.250000 0.066760
#
# Coordination Sequence:
#
# PCOD8186118 Si02
#       6
#    16  16  16  16  16  16
#     4   8  14  27  50  79 106 132 167 210 253 302
#     4  10  21  36  52  76 108 139 174 216 264 314
#     4  10  22  38  54  75 104 142 181 216 262 316
#     4  10  19  34  56  79 105 136 174 219 262 309
#     4   9  17  31  54  82 108 137 175 214 257 312
#     4  11  22  34  51  75 103 134 173 221 266 313
#
# _framework density 18.269728000000001
#
# number of rings (size 3 to 8) (size 9 to 14) (size 15 to 20)
#    0.000    2.333    1.667    2.500    0.000    3.667 
#    0.000    0.833    0.000    3.500    0.000    0.000 
#    0.000    0.000    0.000    0.000    0.000    0.000 
#
# Total GULP energy -297577.921318 kJ/mol
# GULP energy per Si atom -12399.080055 kJ/mol
# Density = 1.822815 g / cm^3
# Si number density = 18.269728 Si / 1000 Ang^3
#
#
#
# Elastic Constant Matrix: (Units=GPa)
#
#
# Indices 1 2 3 4 5 6 
#
# 1 137.8787 45.8538 31.2842 0.0000 0.0000 0.0000
# 2 45.8538 53.8493 27.9426 0.0000 0.0000 0.0000
# 3 31.2842 27.9426 68.2359 0.0000 0.0000 0.0000
# 4 0.0000 0.0000 0.0000 20.3158 0.0000 0.0000
# 5 0.0000 0.0000 0.0000 0.0000 31.6029 0.0000
# 6 0.0000 0.0000 0.0000 0.0000 0.0000 31.1206
#
#
#
# Elastic Compliance Matrix: (Units=1/GPa)
#
#
# Indices 1 2 3 4 5 6 
#
# 1 0.010226 -0.007968 -0.001425 0.000000 0.000000 0.000000
# 2 -0.007968 0.029790 -0.008546 0.000000 0.000000 0.000000
# 3 -0.001425 -0.008546 0.018808 0.000000 0.000000 0.000000
# 4 0.000000 0.000000 0.000000 0.049223 0.000000 0.000000
# 5 0.000000 0.000000 0.000000 0.000000 0.031643 0.000000
# 6 0.000000 0.000000 0.000000 0.000000 0.000000 0.032133
#
#
# Mechanical properties :
#
#
# Convention : Reuss Voigt Hill
#
# Bulk Modulus (GPa) = 43.58187 52.23614 47.90901
# Shear Modulus (GPa) = 23.21807 26.93340 25.07574
#
# Velocity S-wave (km/s) = 3.56876 3.84371 3.70879
# Velocity P-wave (km/s) = 6.39437 6.95360 6.67984
#
# Compressibility (1/GPa) = 0.02294532
#
# Stress axis : x y z
#
# Youngs Moduli (GPa) = 97.78913 33.56862 53.16869
#
# Poissons Ratio (x) = 0.26748 0.07579
# Poissons Ratio (y) = 0.77919 0.45437
# Poissons Ratio (z) = 0.13939 0.28687
#
# Static dielectric constant tensor:
#      x y z
#    x 3.756810 0.000000 0.000000 
#    y 0.000000 3.138780 0.000000 
#    z 0.000000 0.000000 3.234810 
# 
# 
# High freq. dielectric constant tensor:
#      x y z
#    x 1.725110 0.000000 0.000000 
#    y 0.000000 1.685900 0.000000 
#    z 0.000000 0.000000 1.690010 
# 
# From -- ./inp_files/23697.got.cif
#   From: 2010.03.12/outbox.cif.g09.slc.cpg/sg42_12_cif.got.tgz:23697.got - 2010.04.14 02:04:31.
