data_PCOD8186582
_publ_section_title
;
Structure prediction by ZEFSAII (Michael W. Deem and Ramdas Pophale) SiO2 
 PCOD8186582
Probable space group: F M M 2
;
_chemical_formula_sum "Si O2"
_cell_formula_units_Z 112
_cell_length_a 22.616960
_cell_length_b 19.835684
_cell_length_c 12.457545
_cell_angle_alpha 90.000000
_cell_angle_beta 90.000000
_cell_angle_gamma 90.000000
_cell_volume 5588.739611
_symmetry_space_group_name_H-M "F M M 2"
_symmetry_group_IT_number 42
_symmetry_cell_setting 'orthorhombic'
loop_
_space_group_symop_operation_xyz
x,y,z
-x,-y,z
-x,y,z
x,-y,z
x,1/2+y,1/2+z
-x,1/2-y,1/2+z
-x,1/2+y,1/2+z
x,1/2-y,1/2+z
1/2+x,y,1/2+z
1/2-x,-y,1/2+z
1/2-x,y,1/2+z
1/2+x,-y,1/2+z
1/2+x,1/2+y,z
1/2-x,1/2-y,z
1/2-x,1/2+y,z
1/2+x,1/2-y,z
loop_
_atom_site_type_symbol
_atom_site_label
_atom_site_fract_x
_atom_site_fract_y
_atom_site_fract_z
Si Si1 0.931742 0.211842 0.367470
Si Si2 0.377072 0.335473 0.580745
Si Si3 0.144595 0.688654 0.662482
Si Si4 0.221468 0.077218 0.478852
Si Si5 0.140963 0.573705 0.509603
Si Si6 0.885953 0.148776 0.808678
Si Si7 0.248864 0.323635 0.298630
O O1 0.918350 0.169208 0.475441
O O2 0.893008 0.183530 0.270702
O O3 0.916898 0.291543 0.376042
O O4 0.000000 0.202336 0.339548
O O5 0.357400 0.258931 0.601002
O O6 0.322621 0.386743 0.562162
O O7 0.413614 0.361791 0.688292
O O8 0.116333 0.630858 0.587657
O O9 0.213784 0.677227 0.688624
O O10 0.288477 0.077935 0.519815
O O11 0.220203 0.119045 0.369145
O O12 0.200600 0.000000 0.459274
O O13 0.118579 0.500000 0.545193
O O14 0.116372 0.584853 0.387922
O O15 0.819099 0.164992 0.772268
O O16 0.250000 0.250000 0.356964
#
# Coordination Sequence:
#
# PCOD8186582 Si02
#       7
#    16  16  16  16  16  16  16
#     4  11  23  40  61  90 118 153 210 266 307 346
#     4  11  20  37  61  84 119 160 201 251 299 354
#     4  11  22  37  62  93 117 161 201 258 304 362
#     4  10  22  35  56  91 130 165 195 240 300 370
#     4  10  22  38  59  91 131 163 194 240 306 377
#     4  10  21  36  57  90 122 158 195 247 301 361
#     4  11  18  34  60  90 120 159 199 242 303 366
#
# _framework density 20.040298
#
# number of rings (size 3 to 8) (size 9 to 14) (size 15 to 20)
#    0.000    1.429    5.714    0.857    2.000    3.429 
#    0.000    2.857    0.000    3.000    0.000    4.000 
#    0.000    0.000    0.000    0.000    0.000    0.000 
#
# Total GULP energy -346903.186075 kJ/mol
# GULP energy per Si atom -12389.399503 kJ/mol
# Density = 1.999469 g / cm^3
# Si number density = 20.040298 Si / 1000 Ang^3
#
#
#
# Elastic Constant Matrix: (Units=GPa)
#
#
# Indices 1 2 3 4 5 6 
#
# 1 53.1807 5.8442 19.9093 0.0000 0.0000 0.0000
# 2 5.8442 139.5059 58.3897 0.0000 0.0000 0.0000
# 3 19.9093 58.3897 94.5015 0.0000 0.0000 0.0000
# 4 0.0000 0.0000 0.0000 17.2579 0.0000 0.0000
# 5 0.0000 0.0000 0.0000 0.0000 8.0888 0.0000
# 6 0.0000 0.0000 0.0000 0.0000 0.0000 8.6700
#
#
#
# Elastic Compliance Matrix: (Units=1/GPa)
#
#
# Indices 1 2 3 4 5 6 
#
# 1 0.020583 0.001285 -0.005130 0.000000 0.000000 0.000000
# 2 0.001285 0.009749 -0.006294 0.000000 0.000000 0.000000
# 3 -0.005130 -0.006294 0.015552 0.000000 0.000000 0.000000
# 4 0.000000 0.000000 0.000000 0.057944 0.000000 0.000000
# 5 0.000000 0.000000 0.000000 0.000000 0.123628 0.000000
# 6 0.000000 0.000000 0.000000 0.000000 0.000000 0.115340
#
#
# Mechanical properties :
#
#
# Convention : Reuss Voigt Hill
#
# Bulk Modulus (GPa) = 39.05551 50.60829 44.83190
# Shear Modulus (GPa) = 13.45498 20.33967 16.89732
#
# Velocity S-wave (km/s) = 2.59394 3.18927 2.90688
# Velocity P-wave (km/s) = 5.33874 6.23458 5.80397
#
# Compressibility (1/GPa) = 0.02560458
#
# Stress axis : x y z
#
# Youngs Moduli (GPa) = 48.58314 102.57741 64.30165
#
# Poissons Ratio (x) = -0.13182 0.32989
# Poissons Ratio (y) = -0.06243 0.40473
# Poissons Ratio (z) = 0.24925 0.64564
#
# Static dielectric constant tensor:
#      x y z
#    x 3.306210 0.000000 0.000000 
#    y 0.000000 3.697010 0.000000 
#    z 0.000000 0.000000 3.859130 
# 
# 
# High freq. dielectric constant tensor:
#      x y z
#    x 1.742290 0.000000 0.000000 
#    y 0.000000 1.767840 0.000000 
#    z 0.000000 0.000000 1.793020 
# 
# From -- ./inp_files/9675.got.cif
#   From: 2010.03.12/outbox.cif.g09.slc.cpg/sg42_5_cif.got.tgz:9675.got - 2010.04.14 02:04:31.
