data_PCOD8186855
_publ_section_title
;
Structure prediction by ZEFSAII (Michael W. Deem and Ramdas Pophale) SiO2 
 PCOD8186855
Probable space group: F M M 2
;
_chemical_formula_sum "Si O2"
_cell_formula_units_Z 112
_cell_length_a 15.044606
_cell_length_b 15.044607
_cell_length_c 23.229051
_cell_angle_alpha 90.000000
_cell_angle_beta 90.000000
_cell_angle_gamma 90.000000
_cell_volume 5257.667695
_symmetry_space_group_name_H-M "F M M 2"
_symmetry_group_IT_number 42
_symmetry_cell_setting 'orthorhombic'
loop_
_space_group_symop_operation_xyz
x,y,z
-x,-y,z
-x,y,z
x,-y,z
x,1/2+y,1/2+z
-x,1/2-y,1/2+z
-x,1/2+y,1/2+z
x,1/2-y,1/2+z
1/2+x,y,1/2+z
1/2-x,-y,1/2+z
1/2-x,y,1/2+z
1/2+x,-y,1/2+z
1/2+x,1/2+y,z
1/2-x,1/2-y,z
1/2-x,1/2+y,z
1/2+x,1/2-y,z
loop_
_atom_site_type_symbol
_atom_site_label
_atom_site_fract_x
_atom_site_fract_y
_atom_site_fract_z
Si Si1 0.647362 0.765205 0.704560
Si Si2 0.400976 0.400105 0.769757
Si Si3 0.598599 0.713806 0.080324
Si Si4 0.901901 0.401901 0.037123
Si Si5 0.599895 0.900976 0.804490
Si Si6 0.734795 0.352638 0.869687
Si Si7 0.713806 0.098599 0.493923
O O1 0.750000 0.750000 0.696565
O O2 0.603214 0.669175 0.716806
O O3 0.611659 0.812585 0.646752
O O4 0.628354 0.831491 0.756372
O O5 0.500000 0.397414 0.796220
O O6 0.378650 0.500000 0.747651
O O7 0.331491 0.371646 0.817875
O O8 0.500000 0.684936 0.060075
O O9 0.609174 0.821098 0.081775
O O10 0.668554 0.668554 0.037123
O O11 0.894323 0.500000 0.067255
O O12 0.821098 0.390826 0.992472
O O13 0.000000 0.394323 0.006992
O O14 0.500000 0.878650 0.826596
O O15 0.669175 0.896786 0.857441
O O16 0.602586 0.000000 0.778027
O O17 0.750000 0.250000 0.877682
O O18 0.687415 0.388341 0.927495
O O19 0.684936 0.000000 0.514172
#
# Coordination Sequence:
#
# PCOD8186855 Si02
#       7
#    16  16  16  16  16  16  16
#     4  12  23  41  67  95 129 174 216 276 328 393
#     4  11  23  40  63  94 133 173 217 272 332 391
#     4  11  24  42  65  93 131 173 219 270 327 400
#     4   9  19  38  62  90 123 161 210 268 324 381
#     4  11  23  40  63  94 133 173 217 272 332 391
#     4  12  23  41  67  95 129 174 216 276 328 393
#     4  11  24  42  65  93 131 173 219 270 327 400
#
# _framework density 21.302222
#
# number of rings (size 3 to 8) (size 9 to 14) (size 15 to 20)
#    0.000    1.000    2.857    4.714    0.000    2.571 
#    0.000    2.857    0.000    0.000    0.000    0.000 
#    0.000    0.000    0.000    0.000    0.000    0.000 
#
# Total GULP energy -347031.488541 kJ/mol
# GULP energy per Si atom -12393.981734 kJ/mol
# Density = 2.125374 g / cm^3
# Si number density = 21.302222 Si / 1000 Ang^3
#
#
#
# Elastic Constant Matrix: (Units=GPa)
#
#
# Indices 1 2 3 4 5 6 
#
# 1 124.7777 32.7327 35.4704 0.0000 0.0000 0.0000
# 2 32.7327 124.7778 35.4704 0.0000 0.0000 0.0000
# 3 35.4704 35.4704 108.8718 0.0000 0.0000 0.0000
# 4 0.0000 0.0000 0.0000 -7.4659 0.0000 0.0000
# 5 0.0000 0.0000 0.0000 0.0000 -7.4656 0.0000
# 6 0.0000 0.0000 0.0000 0.0000 0.0000 31.1662
#
#
#
# Elastic Compliance Matrix: (Units=1/GPa)
#
#
# Indices 1 2 3 4 5 6 
#
# 1 0.009152 -0.001712 -0.002424 0.000000 0.000000 0.000000
# 2 -0.001712 0.009152 -0.002424 0.000000 0.000000 0.000000
# 3 -0.002424 -0.002424 0.010765 0.000000 0.000000 0.000000
# 4 0.000000 0.000000 0.000000 -0.133943 0.000000 0.000000
# 5 0.000000 0.000000 0.000000 0.000000 -0.133947 0.000000
# 6 0.000000 0.000000 0.000000 0.000000 0.000000 0.032086
#
#
# Mechanical properties :
#
#
# Convention : Reuss Voigt Hill
#
# Bulk Modulus (GPa) = 62.69867 62.86379 62.78123
# Shear Modulus (GPa) = -26.55368 20.23054 -3.16157
#
# Velocity S-wave (km/s) = -3.53444 3.08505 -1.21958
# Velocity P-wave (km/s) = 3.58336 6.50112 5.24905
#
# Compressibility (1/GPa) = 0.01594930
#
# Stress axis : x y z
#
# Youngs Moduli (GPa) = 109.26075 109.26078 92.89638
#
# Poissons Ratio (x) = 0.18704 0.22519
# Poissons Ratio (y) = 0.18704 0.22519
# Poissons Ratio (z) = 0.26486 0.26486
#
# Static dielectric constant tensor:
#      x y z
#    x 4.261010 0.000000 0.000000 
#    y 0.000000 4.261010 0.000000 
#    z 0.000000 0.000000 3.633660 
# 
# 
# High freq. dielectric constant tensor:
#      x y z
#    x 1.853000 0.000000 0.000000 
#    y 0.000000 1.853000 0.000000 
#    z 0.000000 0.000000 1.801670 
# 
# From -- ./inp_files/29478.got.cif
#   From: 2010.03.12/outbox.cif.g09.slc.cpg/sg42_15_cif.got.tgz:29478.got - 2010.04.14 02:04:31.
