data_PCOD8186561
_publ_section_title
;
Structure prediction by ZEFSAII (Michael W. Deem and Ramdas Pophale) SiO2 
 PCOD8186561
Probable space group: F M M 2
;
_chemical_formula_sum "Si O2"
_cell_formula_units_Z 96
_cell_length_a 19.674458
_cell_length_b 24.918221
_cell_length_c 10.412770
_cell_angle_alpha 90.000000
_cell_angle_beta 90.000000
_cell_angle_gamma 90.000000
_cell_volume 5104.886446
_symmetry_space_group_name_H-M "F M M 2"
_symmetry_group_IT_number 42
_symmetry_cell_setting 'orthorhombic'
loop_
_space_group_symop_operation_xyz
x,y,z
-x,-y,z
-x,y,z
x,-y,z
x,1/2+y,1/2+z
-x,1/2-y,1/2+z
-x,1/2+y,1/2+z
x,1/2-y,1/2+z
1/2+x,y,1/2+z
1/2-x,-y,1/2+z
1/2-x,y,1/2+z
1/2+x,-y,1/2+z
1/2+x,1/2+y,z
1/2-x,1/2-y,z
1/2-x,1/2+y,z
1/2+x,1/2-y,z
loop_
_atom_site_type_symbol
_atom_site_label
_atom_site_fract_x
_atom_site_fract_y
_atom_site_fract_z
Si Si1 0.693999 0.342873 0.071250
Si Si2 0.576503 0.717677 0.964210
Si Si3 0.288039 0.632590 0.352488
Si Si4 0.175080 0.938082 0.909543
Si Si5 0.076935 0.869707 0.753440
Si Si6 0.423445 0.657841 0.462338
O O1 0.725956 0.341454 0.213024
O O2 0.632565 0.299917 0.068685
O O3 0.752248 0.330039 0.963212
O O4 0.662827 0.402332 0.038360
O O5 0.500000 0.707222 0.017967
O O6 0.590542 0.683863 0.835480
O O7 0.585230 0.779691 0.930869
O O8 0.251764 0.574021 0.357636
O O9 0.368705 0.626117 0.375821
O O10 0.123123 0.919203 0.798845
O O11 0.164844 0.000000 0.941979
O O12 0.094525 0.854190 0.608960
O O13 0.000000 0.889488 0.767746
O O14 0.500000 0.638633 0.428170
#
# Coordination Sequence:
#
# PCOD8186561 Si02
#       6
#    16  16  16  16  16  16
#     4   9  21  37  55  82 115 145 189 236 279 338
#     4   9  19  34  55  81 113 154 190 227 278 338
#     4  10  21  37  54  83 114 148 190 233 287 336
#     4   9  20  37  59  82 108 147 189 236 293 335
#     4   9  18  36  56  84 118 146 194 240 276 343
#     4  10  21  35  56  82 116 156 191 233 287 338
#
# _framework density 18.805510999999999
#
# number of rings (size 3 to 8) (size 9 to 14) (size 15 to 20)
#    1.000    1.667    0.000    1.000    2.333    2.333 
#    0.000    1.667    0.000    1.500    0.000    2.333 
#    0.000    0.000    0.000    0.000    0.000    0.000 
#
# Total GULP energy -297382.030207 kJ/mol
# GULP energy per Si atom -12390.917925 kJ/mol
# Density = 1.876271 g / cm^3
# Si number density = 18.805511 Si / 1000 Ang^3
#
#
#
# Elastic Constant Matrix: (Units=GPa)
#
#
# Indices 1 2 3 4 5 6 
#
# 1 109.6600 36.9438 40.0254 0.0000 0.0000 0.0000
# 2 36.9438 60.9880 7.4270 0.0000 0.0000 0.0000
# 3 40.0254 7.4270 100.9353 0.0000 0.0000 0.0000
# 4 0.0000 0.0000 0.0000 12.7253 0.0000 0.0000
# 5 0.0000 0.0000 0.0000 0.0000 33.8285 0.0000
# 6 0.0000 0.0000 0.0000 0.0000 0.0000 19.9948
#
#
#
# Elastic Compliance Matrix: (Units=1/GPa)
#
#
# Indices 1 2 3 4 5 6 
#
# 1 0.013393 -0.007534 -0.004757 0.000000 0.000000 0.000000
# 2 -0.007534 0.020783 0.001458 0.000000 0.000000 0.000000
# 3 -0.004757 0.001458 0.011686 0.000000 0.000000 0.000000
# 4 0.000000 0.000000 0.000000 0.078583 0.000000 0.000000
# 5 0.000000 0.000000 0.000000 0.000000 0.029561 0.000000
# 6 0.000000 0.000000 0.000000 0.000000 0.000000 0.050013
#
#
# Mechanical properties :
#
#
# Convention : Reuss Voigt Hill
#
# Bulk Modulus (GPa) = 41.32600 48.93063 45.12831
# Shear Modulus (GPa) = 21.39035 25.78886 23.58960
#
# Velocity S-wave (km/s) = 3.37627 3.70719 3.54559
# Velocity P-wave (km/s) = 6.10099 6.66334 6.38836
#
# Compressibility (1/GPa) = 0.02419784
#
# Stress axis : x y z
#
# Youngs Moduli (GPa) = 74.66363 48.11682 85.57032
#
# Poissons Ratio (x) = 0.36251 0.40704
# Poissons Ratio (y) = 0.56251 -0.12479
# Poissons Ratio (z) = 0.35516 -0.07017
#
# Static dielectric constant tensor:
#      x y z
#    x 3.664300 0.000000 0.000000 
#    y 0.000000 3.006280 0.000000 
#    z 0.000000 0.000000 3.284930 
# 
# 
# High freq. dielectric constant tensor:
#      x y z
#    x 1.744420 0.000000 0.000000 
#    y 0.000000 1.685680 0.000000 
#    z 0.000000 0.000000 1.720790 
# 
# From -- ./inp_files/8820.got.cif
#   From: 2010.03.12/outbox.cif.g09.slc.cpg/sg42_5_cif.got.tgz:8820.got - 2010.04.14 02:04:31.
