data_PCOD8186796
_publ_section_title
;
Structure prediction by ZEFSAII (Michael W. Deem and Ramdas Pophale) SiO2 
 PCOD8186796
Probable space group: F M M 2
;
_chemical_formula_sum "Si O2"
_cell_formula_units_Z 80
_cell_length_a 16.573104
_cell_length_b 21.198546
_cell_length_c 12.558670
_cell_angle_alpha 90.000000
_cell_angle_beta 90.000000
_cell_angle_gamma 90.000000
_cell_volume 4412.183623
_symmetry_space_group_name_H-M "F M M 2"
_symmetry_group_IT_number 42
_symmetry_cell_setting 'orthorhombic'
loop_
_space_group_symop_operation_xyz
x,y,z
-x,-y,z
-x,y,z
x,-y,z
x,1/2+y,1/2+z
-x,1/2-y,1/2+z
-x,1/2+y,1/2+z
x,1/2-y,1/2+z
1/2+x,y,1/2+z
1/2-x,-y,1/2+z
1/2-x,y,1/2+z
1/2+x,-y,1/2+z
1/2+x,1/2+y,z
1/2-x,1/2-y,z
1/2-x,1/2+y,z
1/2+x,1/2-y,z
loop_
_atom_site_type_symbol
_atom_site_label
_atom_site_fract_x
_atom_site_fract_y
_atom_site_fract_z
Si Si1 0.596431 0.571197 0.549580
Si Si2 0.592469 0.197585 0.456701
Si Si3 0.836895 0.281765 0.670536
Si Si4 0.907731 0.335927 0.868525
Si Si5 0.592519 0.843377 0.234248
O O1 0.500000 0.573844 0.555027
O O2 0.629245 0.500000 0.545027
O O3 0.625099 0.607960 0.443901
O O4 0.633218 0.604818 0.656091
O O5 0.500000 0.177893 0.479467
O O6 0.648462 0.182560 0.558539
O O7 0.598117 0.271783 0.434736
O O8 0.628688 0.158939 0.354725
O O9 0.750000 0.250000 0.678514
O O10 0.850374 0.332727 0.764532
O O11 0.902335 0.226035 0.682287
O O12 0.000000 0.348505 0.832717
O O13 0.500000 0.860781 0.246908
#
# Coordination Sequence:
#
# PCOD8186796 Si02
#       5
#    16  16  16  16  16
#     4   9  16  29  52  76  94 119 163 210 241 278
#     4   9  16  28  47  67  95 128 152 190 244 291
#     4  11  20  28  44  71 101 131 156 195 239 293
#     4   9  17  30  48  70  97 124 157 199 246 289
#     4   9  17  31  48  70  97 124 157 198 246 290
#
# _framework density 18.131613000000002
#
# number of rings (size 3 to 8) (size 9 to 14) (size 15 to 20)
#    0.000    2.600    2.000    3.000    0.000    3.200 
#    0.000    0.000    0.000    2.400    0.000    5.600 
#    0.000    0.000    0.000    0.000    0.000    0.000 
#
# Total GULP energy -247846.987314 kJ/mol
# GULP energy per Si atom -12392.349366 kJ/mol
# Density = 1.809034 g / cm^3
# Si number density = 18.131613 Si / 1000 Ang^3
#
#
#
# Elastic Constant Matrix: (Units=GPa)
#
#
# Indices 1 2 3 4 5 6 
#
# 1 37.0894 11.3411 46.0674 0.0000 0.0000 0.0000
# 2 11.3411 94.1848 70.0886 0.0000 0.0000 0.0000
# 3 46.0674 70.0886 195.1153 0.0000 0.0000 0.0000
# 4 0.0000 0.0000 0.0000 27.3898 0.0000 0.0000
# 5 0.0000 0.0000 0.0000 0.0000 10.2410 0.0000
# 6 0.0000 0.0000 0.0000 0.0000 0.0000 9.1187
#
#
#
# Elastic Compliance Matrix: (Units=1/GPa)
#
#
# Indices 1 2 3 4 5 6 
#
# 1 0.038730 0.002922 -0.010194 0.000000 0.000000 0.000000
# 2 0.002922 0.014712 -0.005975 0.000000 0.000000 0.000000
# 3 -0.010194 -0.005975 0.009678 0.000000 0.000000 0.000000
# 4 0.000000 0.000000 0.000000 0.036510 0.000000 0.000000
# 5 0.000000 0.000000 0.000000 0.000000 0.097647 0.000000
# 6 0.000000 0.000000 0.000000 0.000000 0.000000 0.109665
#
#
# Mechanical properties :
#
#
# Convention : Reuss Voigt Hill
#
# Bulk Modulus (GPa) = 27.30206 64.59817 45.95012
# Shear Modulus (GPa) = 14.46580 22.60940 18.53760
#
# Velocity S-wave (km/s) = 2.82764 3.53506 3.20095
# Velocity P-wave (km/s) = 5.07456 7.23650 6.24972
#
# Compressibility (1/GPa) = 0.03662727
#
# Stress axis : x y z
#
# Youngs Moduli (GPa) = 25.81977 67.97343 103.32470
#
# Poissons Ratio (x) = -0.19865 1.05330
# Poissons Ratio (y) = -0.07546 0.61733
# Poissons Ratio (z) = 0.26321 0.40612
#
# Static dielectric constant tensor:
#      x y z
#    x 2.961140 0.000000 0.000000 
#    y 0.000000 3.147480 0.000000 
#    z 0.000000 0.000000 3.709070 
# 
# 
# High freq. dielectric constant tensor:
#      x y z
#    x 1.663820 0.000000 0.000000 
#    y 0.000000 1.647540 0.000000 
#    z 0.000000 0.000000 1.722550 
# 
# From -- ./inp_files/7741.got.cif
#   From: 2010.03.12/outbox.cif.g09.slc.cpg/sg42_4_cif.got.tgz:7741.got - 2010.04.14 02:04:31.
