data_PCOD8186028
_publ_section_title
;
Structure prediction by ZEFSAII (Michael W. Deem and Ramdas Pophale) SiO2 
 PCOD8186028
Probable space group: F M M 2
;
_chemical_formula_sum "Si O2"
_cell_formula_units_Z 96
_cell_length_a 18.241990
_cell_length_b 9.244278
_cell_length_c 31.333204
_cell_angle_alpha 90.000000
_cell_angle_beta 90.000000
_cell_angle_gamma 90.000000
_cell_volume 5283.844364
_symmetry_space_group_name_H-M "F M M 2"
_symmetry_group_IT_number 42
_symmetry_cell_setting 'orthorhombic'
loop_
_space_group_symop_operation_xyz
x,y,z
-x,-y,z
-x,y,z
x,-y,z
x,1/2+y,1/2+z
-x,1/2-y,1/2+z
-x,1/2+y,1/2+z
x,1/2-y,1/2+z
1/2+x,y,1/2+z
1/2-x,-y,1/2+z
1/2-x,y,1/2+z
1/2+x,-y,1/2+z
1/2+x,1/2+y,z
1/2-x,1/2-y,z
1/2-x,1/2+y,z
1/2+x,1/2-y,z
loop_
_atom_site_type_symbol
_atom_site_label
_atom_site_fract_x
_atom_site_fract_y
_atom_site_fract_z
Si Si1 0.823529 0.664623 0.733770
Si Si2 0.673117 0.330721 0.325866
Si Si3 0.585202 0.166208 0.070889
Si Si4 0.172260 0.170070 0.140978
Si Si5 0.081873 0.672041 0.905681
Si Si6 0.326282 0.169635 0.986302
O O1 0.798975 0.500000 0.733381
O O2 0.750000 0.750000 0.734863
O O3 0.864865 0.697743 0.778831
O O4 0.863207 0.698809 0.688532
O O5 0.688496 0.500000 0.332943
O O6 0.750000 0.250000 0.330526
O O7 0.617492 0.271978 0.361556
O O8 0.500000 0.196363 0.063509
O O9 0.613469 0.268481 0.108340
O O10 0.599871 0.000000 0.083527
O O11 0.625934 0.207452 0.027497
O O12 0.250000 0.250000 0.135307
O O13 0.184362 0.000000 0.132374
O O14 0.077870 0.500000 0.906760
O O15 0.130201 0.728773 0.945132
O O16 0.000000 0.736910 0.909096
O O17 0.250000 0.250000 0.990201
O O18 0.310912 0.000000 0.982385
#
# Coordination Sequence:
#
# PCOD8186028 Si02
#       6
#    16  16  16  16  16  16
#     4   8  15  27  44  69  97 124 157 197 239 279
#     4   9  16  28  48  72  96 124 159 197 236 279
#     4  10  21  36  52  71  98 131 164 200 245 295
#     4  10  19  32  51  74 100 130 166 206 246 289
#     4   9  17  30  49  72  97 126 159 193 232 282
#     4  10  20  34  53  75  97 123 158 199 240 284
#
# _framework density 18.168589000000001
#
# number of rings (size 3 to 8) (size 9 to 14) (size 15 to 20)
#    0.000    2.667    0.000    2.000    0.000    5.000 
#    0.000    0.833    0.000    6.000    0.000    0.000 
#    0.000    0.000    0.000    0.000    0.000    0.000 
#
# Total GULP energy -297379.780485 kJ/mol
# GULP energy per Si atom -12390.824187 kJ/mol
# Density = 1.812724 g / cm^3
# Si number density = 18.168589 Si / 1000 Ang^3
#
#
#
# Elastic Constant Matrix: (Units=GPa)
#
#
# Indices 1 2 3 4 5 6 
#
# 1 120.4943 40.0198 81.4195 0.0000 0.0000 0.0000
# 2 40.0198 46.7239 54.5769 0.0000 0.0000 0.0000
# 3 81.4195 54.5769 187.3461 0.0000 0.0000 0.0000
# 4 0.0000 0.0000 0.0000 26.6292 0.0000 0.0000
# 5 0.0000 0.0000 0.0000 0.0000 7.9490 0.0000
# 6 0.0000 0.0000 0.0000 0.0000 0.0000 22.2954
#
#
#
# Elastic Compliance Matrix: (Units=1/GPa)
#
#
# Indices 1 2 3 4 5 6 
#
# 1 0.013074 -0.006914 -0.003668 0.000000 0.000000 0.000000
# 2 -0.006914 0.036098 -0.007511 0.000000 0.000000 0.000000
# 3 -0.003668 -0.007511 0.009120 0.000000 0.000000 0.000000
# 4 0.000000 0.000000 0.000000 0.037553 0.000000 0.000000
# 5 0.000000 0.000000 0.000000 0.000000 0.125801 0.000000
# 6 0.000000 0.000000 0.000000 0.000000 0.000000 0.044852
#
#
# Mechanical properties :
#
#
# Convention : Reuss Voigt Hill
#
# Bulk Modulus (GPa) = 45.23659 78.51074 61.87366
# Shear Modulus (GPa) = 16.12638 23.27795 19.70216
#
# Velocity S-wave (km/s) = 2.98249 3.58330 3.29661
# Velocity P-wave (km/s) = 6.06734 7.77343 6.97276
#
# Compressibility (1/GPa) = 0.02210600
#
# Stress axis : x y z
#
# Youngs Moduli (GPa) = 76.48951 27.70269 109.65183
#
# Poissons Ratio (x) = 0.19153 0.40217
# Poissons Ratio (y) = 0.52883 0.82361
# Poissons Ratio (z) = 0.28054 0.20808
#
# Static dielectric constant tensor:
#      x y z
#    x 3.110340 0.000000 0.000000 
#    y 0.000000 3.180520 0.000000 
#    z 0.000000 0.000000 4.123350 
# 
# 
# High freq. dielectric constant tensor:
#      x y z
#    x 1.677090 0.000000 0.000000 
#    y 0.000000 1.684840 0.000000 
#    z 0.000000 0.000000 1.733750 
# 
# From -- ./inp_files/32991.got.cif
#   From: 2010.03.12/outbox.cif.g09.slc.cpg/sg42_17_cif.got.tgz:32991.got - 2010.04.14 02:04:31.
