data_PCOD8186346
_publ_section_title
;
Structure prediction by ZEFSAII (Michael W. Deem and Ramdas Pophale) SiO2 
 PCOD8186346
Probable space group: F M M 2
;
_chemical_formula_sum "Si O2"
_cell_formula_units_Z 96
_cell_length_a 18.602848
_cell_length_b 8.755692
_cell_length_c 30.875596
_cell_angle_alpha 90.000000
_cell_angle_beta 90.000000
_cell_angle_gamma 90.000000
_cell_volume 5029.042006
_symmetry_space_group_name_H-M "F M M 2"
_symmetry_group_IT_number 42
_symmetry_cell_setting 'orthorhombic'
loop_
_space_group_symop_operation_xyz
x,y,z
-x,-y,z
-x,y,z
x,-y,z
x,1/2+y,1/2+z
-x,1/2-y,1/2+z
-x,1/2+y,1/2+z
x,1/2-y,1/2+z
1/2+x,y,1/2+z
1/2-x,-y,1/2+z
1/2-x,y,1/2+z
1/2+x,-y,1/2+z
1/2+x,1/2+y,z
1/2-x,1/2-y,z
1/2-x,1/2+y,z
1/2+x,1/2-y,z
loop_
_atom_site_type_symbol
_atom_site_label
_atom_site_fract_x
_atom_site_fract_y
_atom_site_fract_z
Si Si1 0.917482 0.677982 0.417470
Si Si2 0.671755 0.319856 0.586471
Si Si3 0.916185 0.177544 0.670948
Si Si4 0.173247 0.318469 0.335783
Si Si5 0.827287 0.680403 0.745572
Si Si6 0.081342 0.319166 0.005651
O O1 0.905044 0.500000 0.424844
O O2 0.878091 0.735416 0.374439
O O3 0.886670 0.762944 0.459830
O O4 0.000000 0.721033 0.410712
O O5 0.679710 0.500000 0.583520
O O6 0.750000 0.250000 0.591071
O O7 0.624079 0.271557 0.627431
O O8 0.631940 0.254819 0.543795
O O9 0.886079 0.278618 0.709892
O O10 0.000000 0.212671 0.664799
O O11 0.902601 0.000000 0.681314
O O12 0.177138 0.500000 0.331203
O O13 0.250000 0.250000 0.347109
O O14 0.144402 0.248661 0.290903
O O15 0.818681 0.500000 0.749625
O O16 0.750000 0.750000 0.732784
O O17 0.080679 0.500000 0.006623
O O18 0.000000 0.256157 0.012109
#
# Coordination Sequence:
#
# PCOD8186346 Si02
#       6
#    16  16  16  16  16  16
#     4   9  19  35  54  77 105 138 176 217 263 315
#     4  10  21  36  55  80 108 140 178 218 262 315
#     4  10  21  38  59  81 108 143 180 220 269 322
#     4  10  20  35  55  78 106 141 179 219 265 317
#     4  11  22  37  57  81 110 142 180 224 270 321
#     4   9  18  34  55  77 103 137 177 219 262 310
#
# _framework density 19.089123000000001
#
# number of rings (size 3 to 8) (size 9 to 14) (size 15 to 20)
#    0.000    2.167    0.000    4.000    0.000    7.667 
#    0.000    5.000    0.000    3.000    0.000    0.000 
#    0.000    0.000    0.000    0.000    0.000    0.000 
#
# Total GULP energy -297653.702740 kJ/mol
# GULP energy per Si atom -12402.237614 kJ/mol
# Density = 1.904568 g / cm^3
# Si number density = 19.089123 Si / 1000 Ang^3
#
#
#
# Elastic Constant Matrix: (Units=GPa)
#
#
# Indices 1 2 3 4 5 6 
#
# 1 111.3565 38.3381 92.2453 0.0000 0.0000 0.0000
# 2 38.3381 66.3857 53.6355 0.0000 0.0000 0.0000
# 3 92.2453 53.6355 175.1391 0.0000 0.0000 0.0000
# 4 0.0000 0.0000 0.0000 31.9984 0.0000 0.0000
# 5 0.0000 0.0000 0.0000 0.0000 41.2442 0.0000
# 6 0.0000 0.0000 0.0000 0.0000 0.0000 29.2238
#
#
#
# Elastic Compliance Matrix: (Units=1/GPa)
#
#
# Indices 1 2 3 4 5 6 
#
# 1 0.016465 -0.003325 -0.007654 0.000000 0.000000 0.000000
# 2 -0.003325 0.020687 -0.004584 0.000000 0.000000 0.000000
# 3 -0.007654 -0.004584 0.011145 0.000000 0.000000 0.000000
# 4 0.000000 0.000000 0.000000 0.031252 0.000000 0.000000
# 5 0.000000 0.000000 0.000000 0.000000 0.024246 0.000000
# 6 0.000000 0.000000 0.000000 0.000000 0.000000 0.034219
#
#
# Mechanical properties :
#
#
# Convention : Reuss Voigt Hill
#
# Bulk Modulus (GPa) = 58.23601 80.14658 69.19130
# Shear Modulus (GPa) = 28.59372 31.73746 30.16559
#
# Velocity S-wave (km/s) = 3.87448 4.08192 3.97955
# Velocity P-wave (km/s) = 7.11260 8.01827 7.57898
#
# Compressibility (1/GPa) = 0.01717150
#
# Stress axis : x y z
#
# Youngs Moduli (GPa) = 60.73391 48.33867 89.72645
#
# Poissons Ratio (x) = 0.16072 0.68677
# Poissons Ratio (y) = 0.20193 0.41133
# Poissons Ratio (z) = 0.46486 0.22160
#
# Static dielectric constant tensor:
#      x y z
#    x 3.593910 0.000000 0.000000 
#    y 0.000000 3.392780 0.000000 
#    z 0.000000 0.000000 3.773110 
# 
# 
# High freq. dielectric constant tensor:
#      x y z
#    x 1.738760 0.000000 0.000000 
#    y 0.000000 1.734830 0.000000 
#    z 0.000000 0.000000 1.758710 
# 
# From -- ./inp_files/31424.got.cif
#   From: 2010.03.12/outbox.cif.g09.slc.cpg/sg42_16_cif.got.tgz:31424.got - 2010.04.14 02:04:31.
