data_PCOD8186546
_publ_section_title
;
Structure prediction by ZEFSAII (Michael W. Deem and Ramdas Pophale) SiO2 
 PCOD8186546
Probable space group: F M M 2
;
_chemical_formula_sum "Si O2"
_cell_formula_units_Z 44
_cell_length_a 13.513096
_cell_length_b 13.933631
_cell_length_c 11.022243
_cell_angle_alpha 90.000000
_cell_angle_beta 90.000000
_cell_angle_gamma 90.000000
_cell_volume 2075.339483
_symmetry_space_group_name_H-M "F M M 2"
_symmetry_group_IT_number 42
_symmetry_cell_setting 'orthorhombic'
loop_
_space_group_symop_operation_xyz
x,y,z
-x,-y,z
-x,y,z
x,-y,z
x,1/2+y,1/2+z
-x,1/2-y,1/2+z
-x,1/2+y,1/2+z
x,1/2-y,1/2+z
1/2+x,y,1/2+z
1/2-x,-y,1/2+z
1/2-x,y,1/2+z
1/2+x,-y,1/2+z
1/2+x,1/2+y,z
1/2-x,1/2-y,z
1/2-x,1/2+y,z
1/2+x,1/2-y,z
loop_
_atom_site_type_symbol
_atom_site_label
_atom_site_fract_x
_atom_site_fract_y
_atom_site_fract_z
Si Si1 0.000000 0.108741 0.043850
Si Si2 0.193982 0.846786 0.173695
Si Si3 0.839605 0.500000 0.104530
Si Si4 0.500000 0.500000 0.810437
Si Si5 0.609134 0.500000 0.340428
O O1 0.096229 0.167546 0.089836
O O2 0.000000 0.000000 0.099245
O O3 0.000000 0.096067 0.896212
O O4 0.250000 0.750000 0.211542
O O5 0.271214 0.906954 0.095294
O O6 0.166194 0.904543 0.295901
O O7 0.903383 0.500000 0.227121
O O8 0.904942 0.500000 0.984478
O O9 0.500000 0.500000 0.283661
#
# Coordination Sequence:
#
# PCOD8186546 Si02
#       5
#     8  16   8   4   8
#     4  10  20  46  69  94 139 183 216 281 338 398
#     4  11  24  42  71  99 130 181 232 275 342 400
#     4  11  24  41  67 102 136 178 231 273 334 406
#     4  10  22  42  68 100 136 182 222 280 334 400
#     4  11  21  47  67  97 141 178 216 286 337 401
#
# _framework density 21.201350000000001
#
# number of rings (size 3 to 8) (size 9 to 14) (size 15 to 20)
#    0.545    0.727    6.364    0.000   10.182    2.909 
#    0.000    0.000    0.000    0.000    0.000    0.000 
#    0.000    0.000    0.000    0.000    0.000    0.000 
#
# Total GULP energy -136333.274651 kJ/mol
# GULP energy per Si atom -12393.934059 kJ/mol
# Density = 2.115309 g / cm^3
# Si number density = 21.201350 Si / 1000 Ang^3
#
#
#
# Elastic Constant Matrix: (Units=GPa)
#
#
# Indices 1 2 3 4 5 6 
#
# 1 159.3063 62.1709 56.1553 0.0000 0.0000 0.0000
# 2 62.1709 133.4063 34.4795 0.0000 0.0000 0.0000
# 3 56.1553 34.4795 153.6668 0.0000 0.0000 0.0000
# 4 0.0000 0.0000 0.0000 14.4015 0.0000 0.0000
# 5 0.0000 0.0000 0.0000 0.0000 29.1342 0.0000
# 6 0.0000 0.0000 0.0000 0.0000 0.0000 28.8456
#
#
#
# Elastic Compliance Matrix: (Units=1/GPa)
#
#
# Indices 1 2 3 4 5 6 
#
# 1 0.008387 -0.003308 -0.002323 0.000000 0.000000 0.000000
# 2 -0.003308 0.009262 -0.000869 0.000000 0.000000 0.000000
# 3 -0.002323 -0.000869 0.007551 0.000000 0.000000 0.000000
# 4 0.000000 0.000000 0.000000 0.069437 0.000000 0.000000
# 5 0.000000 0.000000 0.000000 0.000000 0.034324 0.000000
# 6 0.000000 0.000000 0.000000 0.000000 0.000000 0.034667
#
#
# Mechanical properties :
#
#
# Convention : Reuss Voigt Hill
#
# Bulk Modulus (GPa) = 81.96479 83.55452 82.75965
# Shear Modulus (GPa) = 27.67075 34.04786 30.85931
#
# Velocity S-wave (km/s) = 3.61659 4.01175 3.81929
# Velocity P-wave (km/s) = 7.49558 7.80733 7.65304
#
# Compressibility (1/GPa) = 0.01220036
#
# Stress axis : x y z
#
# Youngs Moduli (GPa) = 119.23183 107.96428 132.42577
#
# Poissons Ratio (x) = 0.35718 0.30757
# Poissons Ratio (y) = 0.39445 0.11512
# Poissons Ratio (z) = 0.27693 0.09385
#
# Static dielectric constant tensor:
#      x y z
#    x 3.939690 0.000000 0.000000 
#    y 0.000000 3.302450 0.000000 
#    z 0.000000 0.000000 3.559840 
# 
# 
# High freq. dielectric constant tensor:
#      x y z
#    x 1.851790 0.000000 0.000000 
#    y 0.000000 1.793380 0.000000 
#    z 0.000000 0.000000 1.833090 
# 
# From -- ./inp_files/7265.got.cif
#   From: 2010.03.12/outbox.cif.g09.slc.cpg/sg42_4_cif.got.tgz:7265.got - 2010.04.14 02:04:31.
