data_PCOD8186062
_publ_section_title
;
Structure prediction by ZEFSAII (Michael W. Deem and Ramdas Pophale) SiO2 
 PCOD8186062
Probable space group: F M M 2
;
_chemical_formula_sum "Si O2"
_cell_formula_units_Z 96
_cell_length_a 8.801452
_cell_length_b 23.714167
_cell_length_c 26.180211
_cell_angle_alpha 90.000000
_cell_angle_beta 90.000000
_cell_angle_gamma 90.000000
_cell_volume 5464.310145
_symmetry_space_group_name_H-M "F M M 2"
_symmetry_group_IT_number 42
_symmetry_cell_setting 'orthorhombic'
loop_
_space_group_symop_operation_xyz
x,y,z
-x,-y,z
-x,y,z
x,-y,z
x,1/2+y,1/2+z
-x,1/2-y,1/2+z
-x,1/2+y,1/2+z
x,1/2-y,1/2+z
1/2+x,y,1/2+z
1/2-x,-y,1/2+z
1/2-x,y,1/2+z
1/2+x,-y,1/2+z
1/2+x,1/2+y,z
1/2-x,1/2-y,z
1/2-x,1/2+y,z
1/2+x,1/2-y,z
loop_
_atom_site_type_symbol
_atom_site_label
_atom_site_fract_x
_atom_site_fract_y
_atom_site_fract_z
Si Si1 0.679276 0.689079 0.463080
Si Si2 0.670416 0.093534 0.526694
Si Si3 0.179265 0.091586 0.789733
Si Si4 0.820084 0.500000 0.210276
Si Si5 0.680744 0.000000 0.094467
Si Si6 0.178779 0.810412 0.347103
Si Si7 0.672778 0.500000 0.352103
Si Si8 0.660593 0.500000 0.944834
O O1 0.500000 0.693050 0.469721
O O2 0.750000 0.750000 0.472504
O O3 0.742614 0.649439 0.508331
O O4 0.719845 0.668364 0.404963
O O5 0.500000 0.108566 0.546291
O O6 0.758093 0.058117 0.570250
O O7 0.661304 0.055623 0.477523
O O8 0.256948 0.151506 0.800561
O O9 0.000000 0.099971 0.789077
O O10 0.236482 0.057364 0.739102
O O11 0.234329 0.054871 0.837056
O O12 0.760147 0.500000 0.152808
O O13 0.000000 0.500000 0.212784
O O14 0.500000 0.000000 0.090397
O O15 0.250000 0.750000 0.337752
O O16 0.000000 0.806779 0.340400
O O17 0.500000 0.500000 0.332578
O O18 0.683268 0.500000 0.413121
O O19 0.500000 0.500000 0.913269
#
# Coordination Sequence:
#
# PCOD8186062 Si02
#       8
#    16  16  16   8   8  16   8   8
#     4  10  20  33  50  73 103 139 174 206 241 287
#     4  10  20  33  49  72 100 129 164 204 249 300
#     4  10  19  33  51  71  98 131 166 204 249 297
#     4   8  18  35  55  77  98 126 164 208 258 307
#     4  10  19  35  57  77  98 126 164 210 260 307
#     4  10  20  33  50  75 105 138 174 206 241 288
#     4  11  20  28  42  68  99 128 162 202 243 292
#     4   9  18  30  44  64  95 132 162 194 241 294
#
# _framework density 17.568549000000001
#
# number of rings (size 3 to 8) (size 9 to 14) (size 15 to 20)
#    0.000    2.167    0.000    5.000    0.000    6.667 
#    0.000    5.000    0.000    1.000    0.000    4.667 
#    0.000    0.000    0.000    0.000    0.000    0.000 
#
# Total GULP energy -297330.696021 kJ/mol
# GULP energy per Si atom -12388.779001 kJ/mol
# Density = 1.752856 g / cm^3
# Si number density = 17.568549 Si / 1000 Ang^3
#
#
#
# Elastic Constant Matrix: (Units=GPa)
#
#
# Indices 1 2 3 4 5 6 
#
# 1 99.4145 52.7670 48.0817 0.0000 0.0000 0.0000
# 2 52.7670 113.0181 60.0581 0.0000 0.0000 0.0000
# 3 48.0817 60.0581 110.0232 0.0000 0.0000 0.0000
# 4 0.0000 0.0000 0.0000 16.5772 0.0000 0.0000
# 5 0.0000 0.0000 0.0000 0.0000 18.5554 0.0000
# 6 0.0000 0.0000 0.0000 0.0000 0.0000 35.1048
#
#
#
# Elastic Compliance Matrix: (Units=1/GPa)
#
#
# Indices 1 2 3 4 5 6 
#
# 1 0.014360 -0.004747 -0.003685 0.000000 0.000000 0.000000
# 2 -0.004747 0.014032 -0.005585 0.000000 0.000000 0.000000
# 3 -0.003685 -0.005585 0.013748 0.000000 0.000000 0.000000
# 4 0.000000 0.000000 0.000000 0.060324 0.000000 0.000000
# 5 0.000000 0.000000 0.000000 0.000000 0.053893 0.000000
# 6 0.000000 0.000000 0.000000 0.000000 0.000000 0.028486
#
#
# Mechanical properties :
#
#
# Convention : Reuss Voigt Hill
#
# Bulk Modulus (GPa) = 70.88484 71.58549 71.23516
# Shear Modulus (GPa) = 22.98008 24.81742 23.89875
#
# Velocity S-wave (km/s) = 3.62059 3.76254 3.69225
# Velocity P-wave (km/s) = 7.61008 7.72725 7.66889
#
# Compressibility (1/GPa) = 0.01410739
#
# Stress axis : x y z
#
# Youngs Moduli (GPa) = 69.63595 71.26320 72.73703
#
# Poissons Ratio (x) = 0.33827 0.26801
# Poissons Ratio (y) = 0.33054 0.40627
# Poissons Ratio (z) = 0.25658 0.39804
#
# Static dielectric constant tensor:
#      x y z
#    x 3.440920 0.000000 0.000000 
#    y 0.000000 3.204070 0.000000 
#    z 0.000000 0.000000 3.204730 
# 
# 
# High freq. dielectric constant tensor:
#      x y z
#    x 1.690430 0.000000 0.000000 
#    y 0.000000 1.678400 0.000000 
#    z 0.000000 0.000000 1.647830 
# 
# From -- ./inp_files/31661.got.cif
#   From: 2010.03.12/outbox.cif.g09.slc.cpg/sg42_16_cif.got.tgz:31661.got - 2010.04.14 02:04:31.
