data_PCOD8186888
_publ_section_title
;
Structure prediction by ZEFSAII (Michael W. Deem and Ramdas Pophale) SiO2 
 PCOD8186888
Probable space group: F M M 2
;
_chemical_formula_sum "Si O2"
_cell_formula_units_Z 96
_cell_length_a 9.734618
_cell_length_b 32.892018
_cell_length_c 18.277960
_cell_angle_alpha 90.000000
_cell_angle_beta 90.000000
_cell_angle_gamma 90.000000
_cell_volume 5852.442503
_symmetry_space_group_name_H-M "F M M 2"
_symmetry_group_IT_number 42
_symmetry_cell_setting 'orthorhombic'
loop_
_space_group_symop_operation_xyz
x,y,z
-x,-y,z
-x,y,z
x,-y,z
x,1/2+y,1/2+z
-x,1/2-y,1/2+z
-x,1/2+y,1/2+z
x,1/2-y,1/2+z
1/2+x,y,1/2+z
1/2-x,-y,1/2+z
1/2-x,y,1/2+z
1/2+x,-y,1/2+z
1/2+x,1/2+y,z
1/2-x,1/2-y,z
1/2-x,1/2+y,z
1/2+x,1/2-y,z
loop_
_atom_site_type_symbol
_atom_site_label
_atom_site_fract_x
_atom_site_fract_y
_atom_site_fract_z
Si Si1 0.161598 0.789055 0.665430
Si Si2 0.848705 0.337505 0.026114
Si Si3 0.161478 0.377241 0.415534
Si Si4 0.847309 0.918569 0.620255
Si Si5 0.156869 0.045350 0.008018
Si Si6 0.163078 0.367786 0.251141
O O1 0.250000 0.750000 0.686322
O O2 0.192474 0.801152 0.581054
O O3 0.214106 0.824563 0.719953
O O4 0.000000 0.780217 0.676336
O O5 0.855174 0.378126 0.072880
O O6 0.000000 0.329242 0.992061
O O7 0.737275 0.342022 0.961730
O O8 0.198855 0.422081 0.446015
O O9 0.217981 0.374927 0.332963
O O10 0.000000 0.368272 0.419831
O O11 0.746476 0.950452 0.581626
O O12 0.787662 0.905447 0.699884
O O13 0.000000 0.937963 0.626533
O O14 0.000000 0.052523 0.031569
O O15 0.178898 0.000000 0.975804
O O16 0.000000 0.367919 0.248460
#
# Coordination Sequence:
#
# PCOD8186888 Si02
#       6
#    16  16  16  16  16  16
#     4   9  17  30  47  65  87 114 144 182 222 256
#     4   8  15  28  44  62  85 111 140 176 213 248
#     4   9  16  28  47  66  86 116 148 175 211 262
#     4   8  14  27  46  63  80 108 145 177 207 250
#     4   9  17  28  42  63  90 115 141 179 222 257
#     4   8  15  29  47  66  88 113 143 181 219 253
#
# _framework density 16.403407999999999
#
# number of rings (size 3 to 8) (size 9 to 14) (size 15 to 20)
#    0.000    3.500    0.000    2.000    0.000    1.000 
#    0.000    5.833    0.000    7.000    0.000    0.000 
#    0.000    0.000    0.000    0.000    0.000    0.000 
#
# Total GULP energy -297425.137850 kJ/mol
# GULP energy per Si atom -12392.714077 kJ/mol
# Density = 1.636607 g / cm^3
# Si number density = 16.403408 Si / 1000 Ang^3
#
#
#
# Elastic Constant Matrix: (Units=GPa)
#
#
# Indices 1 2 3 4 5 6 
#
# 1 52.8167 32.4478 45.0561 0.0000 0.0000 0.0000
# 2 32.4478 74.6954 41.4878 0.0000 0.0000 0.0000
# 3 45.0561 41.4878 125.9298 0.0000 0.0000 0.0000
# 4 0.0000 0.0000 0.0000 17.8466 0.0000 0.0000
# 5 0.0000 0.0000 0.0000 0.0000 21.1811 0.0000
# 6 0.0000 0.0000 0.0000 0.0000 0.0000 23.5854
#
#
#
# Elastic Compliance Matrix: (Units=1/GPa)
#
#
# Indices 1 2 3 4 5 6 
#
# 1 0.031627 -0.009123 -0.008310 0.000000 0.000000 0.000000
# 2 -0.009123 0.019018 -0.003001 0.000000 0.000000 0.000000
# 3 -0.008310 -0.003001 0.011903 0.000000 0.000000 0.000000
# 4 0.000000 0.000000 0.000000 0.056033 0.000000 0.000000
# 5 0.000000 0.000000 0.000000 0.000000 0.047212 0.000000
# 6 0.000000 0.000000 0.000000 0.000000 0.000000 0.042399
#
#
# Mechanical properties :
#
#
# Convention : Reuss Voigt Hill
#
# Bulk Modulus (GPa) = 46.12816 54.60283 50.36550
# Shear Modulus (GPa) = 19.50929 21.48598 20.49764
#
# Velocity S-wave (km/s) = 3.45243 3.62311 3.53880
# Velocity P-wave (km/s) = 6.63886 7.13178 6.88973
#
# Compressibility (1/GPa) = 0.02167873
#
# Stress axis : x y z
#
# Youngs Moduli (GPa) = 31.61812 52.58215 84.01246
#
# Poissons Ratio (x) = 0.47972 0.69816
# Poissons Ratio (y) = 0.28846 0.25214
# Poissons Ratio (z) = 0.26275 0.15781
#
# Static dielectric constant tensor:
#      x y z
#    x 3.086330 0.000000 0.000000 
#    y 0.000000 2.961000 0.000000 
#    z 0.000000 0.000000 3.346800 
# 
# 
# High freq. dielectric constant tensor:
#      x y z
#    x 1.615390 0.000000 0.000000 
#    y 0.000000 1.612790 0.000000 
#    z 0.000000 0.000000 1.620910 
# 
# From -- ./inp_files/19216.got.cif
#   From: 2010.03.12/outbox.cif.g09.slc.cpg/sg42_10_cif.got.tgz:19216.got - 2010.04.14 02:04:31.
