data_PCOD8186801
_publ_section_title
;
Structure prediction by ZEFSAII (Michael W. Deem and Ramdas Pophale) SiO2 
 PCOD8186801
Probable space group: F M M 2
;
_chemical_formula_sum "Si O2"
_cell_formula_units_Z 80
_cell_length_a 21.315287
_cell_length_b 19.168383
_cell_length_c 7.301513
_cell_angle_alpha 90.000000
_cell_angle_beta 90.000000
_cell_angle_gamma 90.000000
_cell_volume 2983.249151
_symmetry_space_group_name_H-M "F M M 2"
_symmetry_group_IT_number 42
_symmetry_cell_setting 'orthorhombic'
loop_
_space_group_symop_operation_xyz
x,y,z
-x,-y,z
-x,y,z
x,-y,z
x,1/2+y,1/2+z
-x,1/2-y,1/2+z
-x,1/2+y,1/2+z
x,1/2-y,1/2+z
1/2+x,y,1/2+z
1/2-x,-y,1/2+z
1/2-x,y,1/2+z
1/2+x,-y,1/2+z
1/2+x,1/2+y,z
1/2-x,1/2-y,z
1/2-x,1/2+y,z
1/2+x,1/2-y,z
loop_
_atom_site_type_symbol
_atom_site_label
_atom_site_fract_x
_atom_site_fract_y
_atom_site_fract_z
Si Si1 0.928761 0.500000 0.851490
Si Si2 0.143554 0.864651 0.278850
Si Si3 0.369552 0.353518 0.834628
Si Si4 0.426987 0.000000 0.284246
Si Si5 0.426934 0.734972 0.516651
Si Si6 0.760455 0.169208 0.583152
O O1 0.897311 0.566979 0.762732
O O2 0.000000 0.500000 0.786919
O O3 0.922038 0.500000 0.067244
O O4 0.099238 0.797016 0.321502
O O5 0.193157 0.869899 0.446058
O O6 0.190407 0.864488 0.098640
O O7 0.389794 0.433254 0.861257
O O8 0.412041 0.321158 0.671571
O O9 0.392104 0.311220 0.021389
O O10 0.295868 0.339130 0.783781
O O11 0.500000 0.000000 0.346788
O O12 0.500000 0.746476 0.494925
O O13 0.750000 0.250000 0.537054
#
# Coordination Sequence:
#
# PCOD8186801 Si02
#       6
#     8  16  16   8  16  16
#     4  11  22  41  65  94 125 166 224 271 318 387
#     4  11  24  37  65  92 126 169 209 268 321 380
#     4  11  24  38  67  94 130 173 216 276 330 387
#     4  11  20  39  63  94 125 166 218 269 318 389
#     4  11  21  38  60  95 125 168 222 269 326 389
#     4  11  22  39  60  92 130 162 213 259 322 386
#
# _framework density 26.816396999999998
#
# number of rings (size 3 to 8) (size 9 to 14) (size 15 to 20)
#    0.000    1.000    6.000    3.000    2.800    1.600 
#    0.000    0.000    0.000    2.400    0.000   14.000 
#    0.000    0.000    0.000    0.000    0.000    0.000 
#
# Total GULP energy -248086.282141 kJ/mol
# GULP energy per Si atom -12404.314107 kJ/mol
# Density = 2.675536 g / cm^3
# Si number density = 26.816397 Si / 1000 Ang^3
#
#
#
# Elastic Constant Matrix: (Units=GPa)
#
#
# Indices 1 2 3 4 5 6 
#
# 1 256.7652 88.8149 21.6405 0.0004 0.0001 0.0000
# 2 88.8149 212.0584 16.6302 -0.0051 0.0015 0.0016
# 3 21.6405 16.6302 91.2586 -0.0136 0.0052 0.0048
# 4 0.0004 -0.0051 -0.0136 30.0121 0.0025 0.0026
# 5 0.0001 0.0015 0.0052 0.0025 34.4047 -0.0009
# 6 0.0000 0.0016 0.0048 0.0026 -0.0009 57.7785
#
#
#
# Elastic Compliance Matrix: (Units=1/GPa)
#
#
# Indices 1 2 3 4 5 6 
#
# 1 0.004605 -0.001870 -0.000751 -0.000001 0.000000 0.000000
# 2 -0.001870 0.005543 -0.000567 0.000001 0.000000 0.000000
# 3 -0.000751 -0.000567 0.011239 0.000005 -0.000002 -0.000001
# 4 -0.000001 0.000001 0.000005 0.033320 -0.000002 -0.000002
# 5 0.000000 0.000000 -0.000002 -0.000002 0.029066 0.000000
# 6 0.000000 0.000000 -0.000001 -0.000002 0.000000 0.017307
#
#
# Mechanical properties :
#
#
# Convention : Reuss Voigt Hill
#
# Bulk Modulus (GPa) = 66.61399 90.47259 78.54329
# Shear Modulus (GPa) = 44.46047 53.30550 48.88298
#
# Velocity S-wave (km/s) = 4.07622 4.46331 4.27415
# Velocity P-wave (km/s) = 6.85921 7.76997 7.32875
#
# Compressibility (1/GPa) = 0.01501186
#
# Stress axis : x y z
#
# Youngs Moduli (GPa) = 217.17335 180.40239 88.97357
#
# Poissons Ratio (x) = 0.33728 0.06684
# Poissons Ratio (y) = 0.40603 0.05043
# Poissons Ratio (z) = 0.16314 0.10225
#
# Static dielectric constant tensor:
#      x y z
#    x 5.334480 0.000000 0.000000 
#    y 0.000000 4.646100 0.000000 
#    z 0.000000 0.000000 5.971530 
# 
# 
# High freq. dielectric constant tensor:
#      x y z
#    x 2.112490 0.000000 0.000000 
#    y 0.000000 2.050910 0.000000 
#    z 0.000000 0.000000 2.148510 
# 
# From -- ./inp_files/9366.got.cif
#   From: 2010.03.12/outbox.cif.g09.slc.cpg/sg42_5_cif.got.tgz:9366.got - 2010.04.14 02:04:31.
