data_PCOD8186798
_publ_section_title
;
Structure prediction by ZEFSAII (Michael W. Deem and Ramdas Pophale) SiO2 
 PCOD8186798
Probable space group: F M M 2
;
_chemical_formula_sum "Si O2"
_cell_formula_units_Z 80
_cell_length_a 17.570073
_cell_length_b 18.188679
_cell_length_c 15.115270
_cell_angle_alpha 90.000000
_cell_angle_beta 90.000000
_cell_angle_gamma 90.000000
_cell_volume 4830.483841
_symmetry_space_group_name_H-M "F M M 2"
_symmetry_group_IT_number 42
_symmetry_cell_setting 'orthorhombic'
loop_
_space_group_symop_operation_xyz
x,y,z
-x,-y,z
-x,y,z
x,-y,z
x,1/2+y,1/2+z
-x,1/2-y,1/2+z
-x,1/2+y,1/2+z
x,1/2-y,1/2+z
1/2+x,y,1/2+z
1/2-x,-y,1/2+z
1/2-x,y,1/2+z
1/2+x,-y,1/2+z
1/2+x,1/2+y,z
1/2-x,1/2-y,z
1/2-x,1/2+y,z
1/2+x,1/2-y,z
loop_
_atom_site_type_symbol
_atom_site_label
_atom_site_fract_x
_atom_site_fract_y
_atom_site_fract_z
Si Si1 0.801167 0.817718 0.922450
Si Si2 0.585348 0.708034 0.485787
Si Si3 0.754274 0.085107 0.269098
Si Si4 0.780022 0.326680 0.100819
Si Si5 0.084218 0.916000 0.340647
O O1 0.750000 0.750000 0.890631
O O2 0.884949 0.783185 0.938338
O O3 0.797052 0.878259 0.846008
O O4 0.768629 0.850584 0.014428
O O5 0.500000 0.723751 0.516104
O O6 0.632779 0.687294 0.573026
O O7 0.591573 0.637811 0.422767
O O8 0.725137 0.110845 0.173956
O O9 0.845232 0.101639 0.275237
O O10 0.736659 0.000000 0.277220
O O11 0.750000 0.250000 0.141335
O O12 0.000000 0.905061 0.295350
O O13 0.091816 0.000000 0.374875
#
# Coordination Sequence:
#
# PCOD8186798 Si02
#       5
#    16  16  16  16  16
#     4   9  17  34  51  73 103 134 173 226 252 306
#     4   9  17  33  55  76 100 135 173 217 271 307
#     4  11  20  31  52  77 107 144 175 211 266 317
#     4   9  19  32  50  74 104 136 173 221 254 303
#     4   9  17  29  48  77 106 132 169 215 262 310
#
# _framework density 16.561489000000002
#
# number of rings (size 3 to 8) (size 9 to 14) (size 15 to 20)
#    0.000    3.000    4.000    0.600    0.000    1.600 
#    0.000    5.000    0.000    1.800    0.000    0.000 
#    0.000    0.000    0.000    0.000    0.000    0.000 
#
# Total GULP energy -247816.998209 kJ/mol
# GULP energy per Si atom -12390.849910 kJ/mol
# Density = 1.652379 g / cm^3
# Si number density = 16.561489 Si / 1000 Ang^3
#
#
#
# Elastic Constant Matrix: (Units=GPa)
#
#
# Indices 1 2 3 4 5 6 
#
# 1 138.5718 48.0443 47.2937 0.0000 0.0000 0.0000
# 2 48.0443 82.4216 58.0697 0.0000 0.0000 0.0000
# 3 47.2937 58.0697 91.6798 0.0000 0.0000 0.0000
# 4 0.0000 0.0000 0.0000 14.7222 0.0000 0.0000
# 5 0.0000 0.0000 0.0000 0.0000 16.3084 0.0000
# 6 0.0000 0.0000 0.0000 0.0000 0.0000 20.4754
#
#
#
# Elastic Compliance Matrix: (Units=1/GPa)
#
#
# Indices 1 2 3 4 5 6 
#
# 1 0.009345 -0.003704 -0.002475 0.000000 0.000000 0.000000
# 2 -0.003704 0.023378 -0.012897 0.000000 0.000000 0.000000
# 3 -0.002475 -0.012897 0.020353 0.000000 0.000000 0.000000
# 4 0.000000 0.000000 0.000000 0.067925 0.000000 0.000000
# 5 0.000000 0.000000 0.000000 0.000000 0.061318 0.000000
# 6 0.000000 0.000000 0.000000 0.000000 0.000000 0.048839
#
#
# Mechanical properties :
#
#
# Convention : Reuss Voigt Hill
#
# Bulk Modulus (GPa) = 67.00061 68.83207 67.91634
# Shear Modulus (GPa) = 18.22922 20.91891 19.57407
#
# Velocity S-wave (km/s) = 3.32128 3.55788 3.44161
# Velocity P-wave (km/s) = 7.43312 7.65047 7.54258
#
# Compressibility (1/GPa) = 0.01492524
#
# Stress axis : x y z
#
# Youngs Moduli (GPa) = 107.00588 42.77469 49.13238
#
# Poissons Ratio (x) = 0.15843 0.12160
# Poissons Ratio (y) = 0.39633 0.63367
# Poissons Ratio (z) = 0.26482 0.55167
#
# Static dielectric constant tensor:
#      x y z
#    x 3.376810 0.000000 0.000000 
#    y 0.000000 3.133030 0.000000 
#    z 0.000000 0.000000 2.838270 
# 
# 
# High freq. dielectric constant tensor:
#      x y z
#    x 1.634120 0.000000 0.000000 
#    y 0.000000 1.633500 0.000000 
#    z 0.000000 0.000000 1.613240 
# 
# From -- ./inp_files/13821.got.cif
#   From: 2010.03.12/outbox.cif.g09.slc.cpg/sg42_7_cif.got.tgz:13821.got - 2010.04.14 02:04:31.
