data_PCOD8186893
_publ_section_title
;
Structure prediction by ZEFSAII (Michael W. Deem and Ramdas Pophale) SiO2 
 PCOD8186893
Probable space group: F M M 2
;
_chemical_formula_sum "Si O2"
_cell_formula_units_Z 112
_cell_length_a 22.715524
_cell_length_b 17.978925
_cell_length_c 17.534510
_cell_angle_alpha 90.000000
_cell_angle_beta 90.000000
_cell_angle_gamma 90.000000
_cell_volume 7161.106199
_symmetry_space_group_name_H-M "F M M 2"
_symmetry_group_IT_number 42
_symmetry_cell_setting 'orthorhombic'
loop_
_space_group_symop_operation_xyz
x,y,z
-x,-y,z
-x,y,z
x,-y,z
x,1/2+y,1/2+z
-x,1/2-y,1/2+z
-x,1/2+y,1/2+z
x,1/2-y,1/2+z
1/2+x,y,1/2+z
1/2-x,-y,1/2+z
1/2-x,y,1/2+z
1/2+x,-y,1/2+z
1/2+x,1/2+y,z
1/2-x,1/2-y,z
1/2-x,1/2+y,z
1/2+x,1/2-y,z
loop_
_atom_site_type_symbol
_atom_site_label
_atom_site_fract_x
_atom_site_fract_y
_atom_site_fract_z
Si Si1 0.783757 0.913239 0.873450
Si Si2 0.684146 0.664325 0.190907
Si Si3 0.848204 0.587082 0.831795
Si Si4 0.684147 0.164324 0.229577
Si Si5 0.848203 0.412918 0.088689
Si Si6 0.066115 0.088860 0.460243
Si Si7 0.783758 0.913239 0.047035
O O1 0.715274 0.890289 0.866132
O O2 0.824332 0.861099 0.817939
O O3 0.792443 0.000000 0.851662
O O4 0.804118 0.898254 0.960242
O O5 0.641077 0.619699 0.247290
O O6 0.673517 0.750001 0.210241
O O7 0.749999 0.638989 0.210243
O O8 0.675666 0.638900 0.102546
O O9 0.853943 0.500000 0.826108
O O10 0.899406 0.619060 0.886095
O O11 0.641078 0.119696 0.173195
O O12 0.853941 0.500000 0.094371
O O13 0.784725 0.390287 0.054353
O O14 0.899405 0.380939 0.034390
O O15 0.000000 0.121119 0.460243
O O16 0.065800 0.000000 0.460244
O O17 0.792443 0.000000 0.068823
#
# Coordination Sequence:
#
# PCOD8186893 Si02
#       7
#    16  16  16  16  16  16  16
#     4   9  15  25  41  59  81 111 142 166 192 233
#     4   9  17  27  36  57  85 113 138 161 194 237
#     4   9  15  26  41  57  80 108 135 165 202 241
#     4   9  17  27  36  57  85 113 138 161 194 237
#     4   9  15  26  41  57  80 108 135 165 202 241
#     4   9  16  26  42  63  80  96 129 174 212 242
#     4   9  15  25  41  59  81 111 142 166 192 233
#
# _framework density 15.640041999999999
#
# number of rings (size 3 to 8) (size 9 to 14) (size 15 to 20)
#    0.000    3.000    1.429    0.857    0.000    3.429 
#    2.571    2.857    0.000    0.857    0.000    0.000 
#    0.000    0.000    0.000   10.571    0.000    0.000 
#
# Total GULP energy -346947.691076 kJ/mol
# GULP energy per Si atom -12390.988967 kJ/mol
# Density = 1.560444 g / cm^3
# Si number density = 15.640042 Si / 1000 Ang^3
#
#
#
# Elastic Constant Matrix: (Units=GPa)
#
#
# Indices 1 2 3 4 5 6 
#
# 1 46.8624 21.7681 46.3754 0.0000 0.0000 0.0000
# 2 21.7681 40.4777 49.3655 0.0000 0.0000 0.0000
# 3 46.3754 49.3655 152.7060 0.0000 0.0000 0.0000
# 4 0.0000 0.0000 0.0000 18.1067 0.0000 0.0000
# 5 0.0000 0.0000 0.0000 0.0000 12.1310 0.0000
# 6 0.0000 0.0000 0.0000 0.0000 0.0000 5.9543
#
#
#
# Elastic Compliance Matrix: (Units=1/GPa)
#
#
# Indices 1 2 3 4 5 6 
#
# 1 0.032356 -0.008942 -0.006936 0.000000 0.000000 0.000000
# 2 -0.008942 0.043256 -0.011268 0.000000 0.000000 0.000000
# 3 -0.006936 -0.011268 0.012297 0.000000 0.000000 0.000000
# 4 0.000000 0.000000 0.000000 0.055228 0.000000 0.000000
# 5 0.000000 0.000000 0.000000 0.000000 0.082433 0.000000
# 6 0.000000 0.000000 0.000000 0.000000 0.000000 0.167947
#
#
# Mechanical properties :
#
#
# Convention : Reuss Voigt Hill
#
# Bulk Modulus (GPa) = 29.74554 52.78490 41.26522
# Shear Modulus (GPa) = 10.89290 15.40754 13.15022
#
# Velocity S-wave (km/s) = 2.64194 3.14209 2.90281
# Velocity P-wave (km/s) = 5.32603 6.85469 6.13813
#
# Compressibility (1/GPa) = 0.03361849
#
# Stress axis : x y z
#
# Youngs Moduli (GPa) = 30.90595 23.11835 81.31852
#
# Poissons Ratio (x) = 0.20673 0.56399
# Poissons Ratio (y) = 0.27636 0.91627
# Poissons Ratio (z) = 0.21435 0.26049
#
# Static dielectric constant tensor:
#      x y z
#    x 2.640060 0.000000 0.000000 
#    y 0.000000 2.738890 0.000000 
#    z 0.000000 0.000000 3.332990 
# 
# 
# High freq. dielectric constant tensor:
#      x y z
#    x 1.530400 0.000000 0.000000 
#    y 0.000000 1.580170 0.000000 
#    z 0.000000 0.000000 1.617110 
# 
# From -- ./inp_files/21058.got.cif
#   From: 2010.03.12/outbox.cif.g09.slc.cpg/sg42_11_cif.got.tgz:21058.got - 2010.04.14 02:04:31.
