data_PCOD8186091
_publ_section_title
;
Structure prediction by ZEFSAII (Michael W. Deem and Ramdas Pophale) SiO2 
 PCOD8186091
Probable space group: F M M 2
;
_chemical_formula_sum "Si O2"
_cell_formula_units_Z 128
_cell_length_a 19.203108
_cell_length_b 19.026149
_cell_length_c 18.566734
_cell_angle_alpha 90.000000
_cell_angle_beta 90.000000
_cell_angle_gamma 90.000000
_cell_volume 6783.564104
_symmetry_space_group_name_H-M "F M M 2"
_symmetry_group_IT_number 42
_symmetry_cell_setting 'orthorhombic'
loop_
_space_group_symop_operation_xyz
x,y,z
-x,-y,z
-x,y,z
x,-y,z
x,1/2+y,1/2+z
-x,1/2-y,1/2+z
-x,1/2+y,1/2+z
x,1/2-y,1/2+z
1/2+x,y,1/2+z
1/2-x,-y,1/2+z
1/2-x,y,1/2+z
1/2+x,-y,1/2+z
1/2+x,1/2+y,z
1/2-x,1/2-y,z
1/2-x,1/2+y,z
1/2+x,1/2-y,z
loop_
_atom_site_type_symbol
_atom_site_label
_atom_site_fract_x
_atom_site_fract_y
_atom_site_fract_z
Si Si1 0.076192 0.580981 0.186820
Si Si2 0.665702 0.342939 0.585554
Si Si3 0.717126 0.679379 0.194296
Si Si4 0.077294 0.689990 0.454376
Si Si5 0.185417 0.196569 0.428124
Si Si6 0.581909 0.708302 0.113580
Si Si7 0.383251 0.920972 0.341554
Si Si8 0.225392 0.580226 0.821958
O O1 0.070555 0.500000 0.203057
O O2 0.132737 0.588375 0.122670
O O3 0.101099 0.614611 0.263373
O O4 0.000000 0.611596 0.166085
O O5 0.739798 0.324612 0.620253
O O6 0.681649 0.348595 0.501467
O O7 0.603333 0.288869 0.602908
O O8 0.750000 0.750000 0.233370
O O9 0.634345 0.679987 0.175628
O O10 0.729198 0.609440 0.240777
O O11 0.119773 0.753283 0.418897
O O12 0.098431 0.670276 0.536834
O O13 0.080692 0.621251 0.405476
O O14 0.000000 0.720041 0.456858
O O15 0.250000 0.250000 0.425051
O O16 0.180940 0.137223 0.366628
O O17 0.500000 0.700404 0.136364
O O18 0.301254 0.920868 0.356722
O O19 0.412757 0.000000 0.345758
O O20 0.194640 0.500000 0.822288
#
# Coordination Sequence:
#
# PCOD8186091 Si02
#       8
#    16  16  16  16  16  16  16  16
#     4  10  20  33  51  78 112 147 180 222 278 334
#     4  10  19  33  55  81 110 142 182 228 281 326
#     4  10  20  35  58  83 109 145 184 230 281 326
#     4  10  20  35  58  87 116 148 184 228 284 336
#     4  11  21  38  60  81 113 145 187 234 275 324
#     4   9  19  35  56  83 111 140 183 232 281 332
#     4  10  20  35  54  84 120 151 184 228 282 336
#     4  11  23  38  58  83 113 149 189 231 276 324
#
# _framework density 18.869136999999998
#
# number of rings (size 3 to 8) (size 9 to 14) (size 15 to 20)
#    0.000    1.875    2.500    3.000    0.000    1.750 
#    0.000    2.500    0.000    2.250    0.000    0.000 
#    0.000    0.000    0.000    0.000    0.000    0.000 
#
# Total GULP energy -396484.676527 kJ/mol
# GULP energy per Si atom -12390.146141 kJ/mol
# Density = 1.882619 g / cm^3
# Si number density = 18.869137 Si / 1000 Ang^3
#
#
#
# Elastic Constant Matrix: (Units=GPa)
#
#
# Indices 1 2 3 4 5 6 
#
# 1 97.0106 29.8746 25.1699 0.0000 0.0000 0.0000
# 2 29.8746 85.9355 43.5263 0.0000 0.0000 0.0000
# 3 25.1699 43.5263 82.0341 0.0000 0.0000 0.0000
# 4 0.0000 0.0000 0.0000 28.8400 0.0000 0.0000
# 5 0.0000 0.0000 0.0000 0.0000 25.1191 0.0000
# 6 0.0000 0.0000 0.0000 0.0000 0.0000 21.0761
#
#
#
# Elastic Compliance Matrix: (Units=1/GPa)
#
#
# Indices 1 2 3 4 5 6 
#
# 1 0.011772 -0.003095 -0.001970 0.000000 0.000000 0.000000
# 2 -0.003095 0.016727 -0.007925 0.000000 0.000000 0.000000
# 3 -0.001970 -0.007925 0.017000 0.000000 0.000000 0.000000
# 4 0.000000 0.000000 0.000000 0.034674 0.000000 0.000000
# 5 0.000000 0.000000 0.000000 0.000000 0.039810 0.000000
# 6 0.000000 0.000000 0.000000 0.000000 0.000000 0.047447
#
#
# Mechanical properties :
#
#
# Convention : Reuss Voigt Hill
#
# Bulk Modulus (GPa) = 51.23390 51.34685 51.29037
# Shear Modulus (GPa) = 25.01043 26.10102 25.55572
#
# Velocity S-wave (km/s) = 3.64465 3.72326 3.68416
# Velocity P-wave (km/s) = 6.70242 6.76422 6.73339
#
# Compressibility (1/GPa) = 0.01951833
#
# Stress axis : x y z
#
# Youngs Moduli (GPa) = 84.94518 59.78457 58.82476
#
# Poissons Ratio (x) = 0.18502 0.11588
# Poissons Ratio (y) = 0.26288 0.46621
# Poissons Ratio (z) = 0.16734 0.47382
#
# Static dielectric constant tensor:
#      x y z
#    x 3.533130 0.000000 0.000000 
#    y 0.000000 3.386650 0.000000 
#    z 0.000000 0.000000 3.467290 
# 
# 
# High freq. dielectric constant tensor:
#      x y z
#    x 1.734700 0.000000 0.000000 
#    y 0.000000 1.709990 0.000000 
#    z 0.000000 0.000000 1.728920 
# 
# From -- ./inp_files/21950.got.cif
#   From: 2010.03.12/outbox.cif.g09.slc.cpg/sg42_11_cif.got.tgz:21950.got - 2010.04.14 02:04:31.
