data_PCOD8186772
_publ_section_title
;
Structure prediction by ZEFSAII (Michael W. Deem and Ramdas Pophale) SiO2 
 PCOD8186772
Probable space group: F M M 2
;
_chemical_formula_sum "Si O2"
_cell_formula_units_Z 96
_cell_length_a 12.215351
_cell_length_b 27.389731
_cell_length_c 14.628653
_cell_angle_alpha 90.000000
_cell_angle_beta 90.000000
_cell_angle_gamma 90.000000
_cell_volume 4894.384181
_symmetry_space_group_name_H-M "F M M 2"
_symmetry_group_IT_number 42
_symmetry_cell_setting 'orthorhombic'
loop_
_space_group_symop_operation_xyz
x,y,z
-x,-y,z
-x,y,z
x,-y,z
x,1/2+y,1/2+z
-x,1/2-y,1/2+z
-x,1/2+y,1/2+z
x,1/2-y,1/2+z
1/2+x,y,1/2+z
1/2-x,-y,1/2+z
1/2-x,y,1/2+z
1/2+x,-y,1/2+z
1/2+x,1/2+y,z
1/2-x,1/2-y,z
1/2-x,1/2+y,z
1/2+x,1/2-y,z
loop_
_atom_site_type_symbol
_atom_site_label
_atom_site_fract_x
_atom_site_fract_y
_atom_site_fract_z
Si Si1 0.500000 0.779629 0.473068
Si Si2 0.627929 0.057099 0.800507
Si Si3 0.733752 0.889754 0.146484
Si Si4 0.000000 0.859869 0.718504
Si Si5 0.722022 0.443589 0.969174
Si Si6 0.000000 0.890902 0.916159
Si Si7 0.660540 0.711782 0.130582
Si Si8 0.000000 0.253790 0.771335
O O1 0.500000 0.835290 0.445110
O O2 0.397571 0.769179 0.538456
O O3 0.500000 0.744877 0.382706
O O4 0.500000 0.073407 0.799445
O O5 0.700671 0.087804 0.730807
O O6 0.681302 0.068934 0.898347
O O7 0.636886 0.000000 0.776232
O O8 0.609336 0.874360 0.165122
O O9 0.799753 0.842692 0.112600
O O10 0.730165 0.929670 0.067248
O O11 0.000000 0.893672 0.807485
O O12 0.000000 0.802183 0.737555
O O13 0.691866 0.500000 0.966491
O O14 0.608876 0.415871 0.952979
O O15 0.750000 0.750000 0.151427
O O16 0.598382 0.715302 0.227629
#
# Coordination Sequence:
#
# PCOD8186772 Si02
#       8
#     8  16  16   8  16   8  16   8
#     4  10  23  42  64  90 126 162 217 263 315 375
#     4  10  24  45  65  93 130 168 215 268 323 389
#     4  12  24  43  66  97 129 172 216 265 327 382
#     4  11  23  42  67  90 132 169 215 265 320 387
#     4  11  24  42  65  95 130 171 216 265 324 387
#     4  11  20  43  65  95 124 164 211 267 320 378
#     4  11  23  42  63  92 128 165 213 263 316 385
#     4  10  23  43  62  93 124 169 207 269 324 368
#
# _framework density 19.614317
#
# number of rings (size 3 to 8) (size 9 to 14) (size 15 to 20)
#    0.000    1.167    5.000    0.750    4.667    0.667 
#    3.000    1.250    0.000    0.000    0.000    0.000 
#    0.000    0.000    0.000    0.000    0.000    0.000 
#
# Total GULP energy -297453.734766 kJ/mol
# GULP energy per Si atom -12393.905615 kJ/mol
# Density = 1.956967 g / cm^3
# Si number density = 19.614317 Si / 1000 Ang^3
#
#
#
# Elastic Constant Matrix: (Units=GPa)
#
#
# Indices 1 2 3 4 5 6 
#
# 1 127.6270 16.3218 34.8767 0.0000 0.0000 0.0000
# 2 16.3218 39.0320 16.8398 0.0000 0.0000 0.0000
# 3 34.8767 16.8398 120.6574 0.0000 0.0000 0.0000
# 4 0.0000 0.0000 0.0000 33.7533 0.0000 0.0000
# 5 0.0000 0.0000 0.0000 0.0000 6.2384 0.0000
# 6 0.0000 0.0000 0.0000 0.0000 0.0000 24.8267
#
#
#
# Elastic Compliance Matrix: (Units=1/GPa)
#
#
# Indices 1 2 3 4 5 6 
#
# 1 0.008774 -0.002740 -0.002154 0.000000 0.000000 0.000000
# 2 -0.002740 0.028117 -0.003132 0.000000 0.000000 0.000000
# 3 -0.002154 -0.003132 0.009348 0.000000 0.000000 0.000000
# 4 0.000000 0.000000 0.000000 0.029627 0.000000 0.000000
# 5 0.000000 0.000000 0.000000 0.000000 0.160298 0.000000
# 6 0.000000 0.000000 0.000000 0.000000 0.000000 0.040279
#
#
# Mechanical properties :
#
#
# Convention : Reuss Voigt Hill
#
# Bulk Modulus (GPa) = 33.12671 47.04365 40.08518
# Shear Modulus (GPa) = 16.52578 27.58221 22.05400
#
# Velocity S-wave (km/s) = 2.90580 3.75404 3.35682
# Velocity P-wave (km/s) = 5.30885 6.54422 5.95864
#
# Compressibility (1/GPa) = 0.03018712
#
# Stress axis : x y z
#
# Youngs Moduli (GPa) = 113.96910 35.56563 106.97851
#
# Poissons Ratio (x) = 0.09744 0.23042
# Poissons Ratio (y) = 0.31226 0.33508
# Poissons Ratio (z) = 0.24547 0.11140
#
# Static dielectric constant tensor:
#      x y z
#    x 3.921670 0.000000 0.000000 
#    y 0.000000 3.326910 0.000000 
#    z 0.000000 0.000000 3.751950 
# 
# 
# High freq. dielectric constant tensor:
#      x y z
#    x 1.778310 0.000000 0.000000 
#    y 0.000000 1.766560 0.000000 
#    z 0.000000 0.000000 1.771140 
# 
# From -- ./inp_files/13219.got.cif
#   From: 2010.03.12/outbox.cif.g09.slc.cpg/sg42_7_cif.got.tgz:13219.got - 2010.04.14 02:04:31.
