data_PCOD8186359
_publ_section_title
;
Structure prediction by ZEFSAII (Michael W. Deem and Ramdas Pophale) SiO2 
 PCOD8186359
Probable space group: F M M 2
;
_chemical_formula_sum "Si O2"
_cell_formula_units_Z 80
_cell_length_a 15.720336
_cell_length_b 8.660283
_cell_length_c 28.748314
_cell_angle_alpha 90.000000
_cell_angle_beta 90.000000
_cell_angle_gamma 90.000000
_cell_volume 3913.869024
_symmetry_space_group_name_H-M "F M M 2"
_symmetry_group_IT_number 42
_symmetry_cell_setting 'orthorhombic'
loop_
_space_group_symop_operation_xyz
x,y,z
-x,-y,z
-x,y,z
x,-y,z
x,1/2+y,1/2+z
-x,1/2-y,1/2+z
-x,1/2+y,1/2+z
x,1/2-y,1/2+z
1/2+x,y,1/2+z
1/2-x,-y,1/2+z
1/2-x,y,1/2+z
1/2+x,-y,1/2+z
1/2+x,1/2+y,z
1/2-x,1/2-y,z
1/2-x,1/2+y,z
1/2+x,1/2-y,z
loop_
_atom_site_type_symbol
_atom_site_label
_atom_site_fract_x
_atom_site_fract_y
_atom_site_fract_z
Si Si1 0.000000 0.317313 0.032251
Si Si2 0.155848 0.316759 0.368801
Si Si3 0.663011 0.820034 0.085860
Si Si4 0.000000 0.817270 0.424973
Si Si5 0.340336 0.818376 0.771762
Si Si6 0.903757 0.675167 0.673297
O O1 0.915772 0.247964 0.056922
O O2 0.000000 0.500000 0.038976
O O3 0.000000 0.269946 0.978720
O O4 0.160140 0.500000 0.372342
O O5 0.250000 0.250000 0.379620
O O6 0.086323 0.253042 0.404367
O O7 0.124235 0.266268 0.317542
O O8 0.750000 0.750000 0.065929
O O9 0.653791 0.782741 0.140749
O O10 0.667763 0.000000 0.078288
O O11 0.000000 0.000000 0.416984
O O12 0.250000 0.750000 0.758148
O O13 0.399470 0.780074 0.727703
O O14 0.334516 0.000000 0.782553
O O15 0.871630 0.500000 0.666727
O O16 0.000000 0.695962 0.656802
#
# Coordination Sequence:
#
# PCOD8186359 Si02
#       6
#     8  16  16   8  16  16
#     4   9  22  43  64  89 120 153 198 249 306 365
#     4  11  23  41  63  93 126 162 207 252 303 366
#     4  11  22  40  63  90 121 159 200 246 300 359
#     4  11  23  43  68  91 122 159 198 257 316 367
#     4  10  20  35  56  83 119 162 203 248 296 352
#     4  10  21  36  56  87 123 161 204 247 294 352
#
# _framework density 20.440131000000001
#
# number of rings (size 3 to 8) (size 9 to 14) (size 15 to 20)
#    0.000    1.600    1.000    5.100    1.400    4.000 
#    0.000    6.000    0.000    0.000    0.000    0.000 
#    0.000    0.000    0.000    0.000    0.000    0.000 
#
# Total GULP energy -248009.803219 kJ/mol
# GULP energy per Si atom -12400.490161 kJ/mol
# Density = 2.039361 g / cm^3
# Si number density = 20.440131 Si / 1000 Ang^3
#
#
#
# Elastic Constant Matrix: (Units=GPa)
#
#
# Indices 1 2 3 4 5 6 
#
# 1 143.7666 51.0740 77.8082 0.0000 0.0000 0.0000
# 2 51.0740 109.5517 49.1708 0.0000 0.0000 0.0000
# 3 77.8082 49.1708 128.2025 0.0000 0.0000 0.0000
# 4 0.0000 0.0000 0.0000 25.9487 0.0000 0.0000
# 5 0.0000 0.0000 0.0000 0.0000 29.9037 0.0000
# 6 0.0000 0.0000 0.0000 0.0000 0.0000 32.8158
#
#
#
# Elastic Compliance Matrix: (Units=1/GPa)
#
#
# Indices 1 2 3 4 5 6 
#
# 1 0.010920 -0.002556 -0.005647 0.000000 0.000000 0.000000
# 2 -0.002556 0.011625 -0.002907 0.000000 0.000000 0.000000
# 3 -0.005647 -0.002907 0.012342 0.000000 0.000000 0.000000
# 4 0.000000 0.000000 0.000000 0.038538 0.000000 0.000000
# 5 0.000000 0.000000 0.000000 0.000000 0.033441 0.000000
# 6 0.000000 0.000000 0.000000 0.000000 0.000000 0.030473
#
#
# Mechanical properties :
#
#
# Convention : Reuss Voigt Hill
#
# Bulk Modulus (GPa) = 78.95034 81.95853 80.45443
# Shear Modulus (GPa) = 30.52839 31.29818 30.91328
#
# Velocity S-wave (km/s) = 3.86884 3.91732 3.89315
# Velocity P-wave (km/s) = 7.65939 7.78745 7.72369
#
# Compressibility (1/GPa) = 0.01266619
#
# Stress axis : x y z
#
# Youngs Moduli (GPa) = 91.57323 86.02362 81.02114
#
# Poissons Ratio (x) = 0.21992 0.45754
# Poissons Ratio (y) = 0.23410 0.23553
# Poissons Ratio (z) = 0.51713 0.25007
#
# Static dielectric constant tensor:
#      x y z
#    x 3.869450 0.000000 0.000000 
#    y 0.000000 3.636600 0.000000 
#    z 0.000000 0.000000 3.716620 
# 
# 
# High freq. dielectric constant tensor:
#      x y z
#    x 1.807970 0.000000 0.000000 
#    y 0.000000 1.794810 0.000000 
#    z 0.000000 0.000000 1.797520 
# 
# From -- ./inp_files/31355.got.cif
#   From: 2010.03.12/outbox.cif.g09.slc.cpg/sg42_16_cif.got.tgz:31355.got - 2010.04.14 02:04:31.
