data_PCOD8186986
_publ_section_title
;
Structure prediction by ZEFSAII (Michael W. Deem and Ramdas Pophale) SiO2 
 PCOD8186986
Probable space group: F D D 2
;
_chemical_formula_sum "Si O2"
_cell_formula_units_Z 88
_cell_length_a 19.047383
_cell_length_b 25.914482
_cell_length_c 8.287334
_cell_angle_alpha 90.000000
_cell_angle_beta 90.000000
_cell_angle_gamma 90.000000
_cell_volume 4090.653454
_symmetry_space_group_name_H-M "F D D 2"
_symmetry_group_IT_number 43
_symmetry_cell_setting 'orthorhombic'
loop_
_space_group_symop_operation_xyz
x,y,z
-x,-y,z
1/4-x,1/4+y,1/4+z
1/4+x,1/4-y,1/4+z
x,1/2+y,1/2+z
-x,1/2-y,1/2+z
1/4-x,3/4+y,3/4+z
1/4+x,3/4-y,3/4+z
1/2+x,y,1/2+z
1/2-x,-y,1/2+z
3/4-x,1/4+y,3/4+z
3/4+x,1/4-y,3/4+z
1/2+x,1/2+y,z
1/2-x,1/2-y,z
3/4-x,3/4+y,1/4+z
3/4+x,3/4-y,1/4+z
loop_
_atom_site_type_symbol
_atom_site_label
_atom_site_fract_x
_atom_site_fract_y
_atom_site_fract_z
Si Si1 0.888748 0.318689 0.898590
Si Si2 0.639162 0.274242 0.695194
Si Si3 0.388749 0.681311 0.017655
Si Si4 0.389162 0.524241 0.471051
Si Si5 0.250000 0.750000 0.458123
Si Si6 0.982278 0.249999 0.458122
O O1 0.844415 0.280268 0.784030
O O2 0.874999 0.375000 0.833123
O O3 0.969165 0.297747 0.897264
O O4 0.862153 0.318394 0.084475
O O5 0.700824 0.286579 0.567994
O O6 0.564657 0.271044 0.604719
O O7 0.637847 0.318394 0.831770
O O8 0.344414 0.719732 0.132215
O O9 0.469165 0.702255 0.018980
O O10 0.450823 0.536579 0.598252
O O11 0.314657 0.521043 0.561525
#
# Coordination Sequence:
#
# PCOD8186986 Si02
#       6
#    16  16  16  16   8  16
#     4  10  19  35  61  97 114 155 213 269 303 374
#     4   9  20  40  61  83 127 173 200 252 326 381
#     4  10  19  35  61  97 114 155 213 269 303 374
#     4   9  20  40  61  83 127 173 200 252 326 381
#     4  10  20  42  56  84 124 176 196 254 320 368
#     4   9  18  41  64  83 124 171 204 252 322 383
#
# _framework density 21.512456
#
# number of rings (size 3 to 8) (size 9 to 14) (size 15 to 20)
#    0.000    2.909    0.000    4.364    0.000    2.909 
#   19.636    3.636    0.000    0.000    0.000    0.000 
#    0.000    0.000    0.000    0.000    0.000    0.000 
#
# Total GULP energy -272575.037944 kJ/mol
# GULP energy per Si atom -12389.774452 kJ/mol
# Density = 2.146349 g / cm^3
# Si number density = 21.512456 Si / 1000 Ang^3
#
#
#
# Elastic Constant Matrix: (Units=GPa)
#
#
# Indices 1 2 3 4 5 6 
#
# 1 137.1853 43.8677 75.3893 -0.0001 0.0001 0.0000
# 2 43.8677 146.7907 70.6114 0.0000 0.0000 0.0000
# 3 75.3893 70.6114 175.0620 -0.0007 0.0009 0.0001
# 4 -0.0001 0.0000 -0.0007 37.6410 0.0002 0.0001
# 5 0.0001 0.0000 0.0009 0.0002 41.4528 0.0000
# 6 0.0000 0.0000 0.0001 0.0001 0.0000 8.0728
#
#
#
# Elastic Compliance Matrix: (Units=1/GPa)
#
#
# Indices 1 2 3 4 5 6 
#
# 1 0.009691 -0.001102 -0.003729 0.000000 0.000000 0.000000
# 2 -0.001102 0.008578 -0.002985 0.000000 0.000000 0.000000
# 3 -0.003729 -0.002985 0.008522 0.000000 0.000000 0.000000
# 4 0.000000 0.000000 0.000000 0.026567 0.000000 0.000000
# 5 0.000000 0.000000 0.000000 0.000000 0.024124 0.000000
# 6 0.000000 0.000000 0.000000 0.000000 0.000000 0.123873
#
#
# Mechanical properties :
#
#
# Convention : Reuss Voigt Hill
#
# Bulk Modulus (GPa) = 89.61899 93.19720 91.40810
# Shear Modulus (GPa) = 22.65447 35.37795 29.01621
#
# Velocity S-wave (km/s) = 3.24865 4.05968 3.67660
# Velocity P-wave (km/s) = 7.47136 8.08648 7.78500
#
# Compressibility (1/GPa) = 0.01115835
#
# Stress axis : x y z
#
# Youngs Moduli (GPa) = 103.18824 116.57965 117.34287
#
# Poissons Ratio (x) = 0.12853 0.43753
# Poissons Ratio (y) = 0.11376 0.35028
# Poissons Ratio (z) = 0.38476 0.34800
#
# Static dielectric constant tensor:
#      x y z
#    x 3.909500 0.000000 0.000000 
#    y 0.000000 3.225480 0.000000 
#    z 0.000000 0.000000 4.507140 
# 
# 
# High freq. dielectric constant tensor:
#      x y z
#    x 1.845940 0.000000 0.000000 
#    y 0.000000 1.781760 0.000000 
#    z 0.000000 0.000000 1.884100 
# 
# From -- ./inp_files/3226.got.cif
#   From: 2010.06.25/outbox.cif.g09.slc.cpg/sg43_2_cif.got.tgz:3226.got - 2010.06.26 16:48:59.
