data_PCOD8186864
_publ_section_title
;
Structure prediction by ZEFSAII (Michael W. Deem and Ramdas Pophale) SiO2 
 PCOD8186864
Probable space group: F M M 2
;
_chemical_formula_sum "Si O2"
_cell_formula_units_Z 80
_cell_length_a 29.930924
_cell_length_b 9.219421
_cell_length_c 14.700817
_cell_angle_alpha 90.000000
_cell_angle_beta 90.000000
_cell_angle_gamma 90.000000
_cell_volume 4056.628550
_symmetry_space_group_name_H-M "F M M 2"
_symmetry_group_IT_number 42
_symmetry_cell_setting 'orthorhombic'
loop_
_space_group_symop_operation_xyz
x,y,z
-x,-y,z
-x,y,z
x,-y,z
x,1/2+y,1/2+z
-x,1/2-y,1/2+z
-x,1/2+y,1/2+z
x,1/2-y,1/2+z
1/2+x,y,1/2+z
1/2-x,-y,1/2+z
1/2-x,y,1/2+z
1/2+x,-y,1/2+z
1/2+x,1/2+y,z
1/2-x,1/2-y,z
1/2-x,1/2+y,z
1/2+x,1/2-y,z
loop_
_atom_site_type_symbol
_atom_site_label
_atom_site_fract_x
_atom_site_fract_y
_atom_site_fract_z
Si Si1 0.548791 0.668768 0.278100
Si Si2 0.547617 0.836024 0.461313
Si Si3 0.143854 0.834595 0.978954
Si Si4 0.866305 0.332747 0.266809
Si Si5 0.796744 0.828974 0.616503
O O1 0.500000 0.700062 0.232320
O O2 0.559712 0.500000 0.276064
O O3 0.546651 0.720308 0.381648
O O4 0.589737 0.749919 0.228981
O O5 0.500000 0.822070 0.516503
O O6 0.593090 0.810909 0.519082
O O7 0.551269 0.000000 0.420201
O O8 0.144154 0.796587 0.871755
O O9 0.159735 0.000000 0.995438
O O10 0.177302 0.725101 0.027233
O O11 0.876637 0.500000 0.252092
O O12 0.824121 0.285002 0.206574
O O13 0.750000 0.750000 0.624084
O O14 0.789198 0.000000 0.607738
#
# Coordination Sequence:
#
# PCOD8186864 Si02
#       5
#    16  16  16  16  16
#     4   9  16  26  46  79 113 143 178 219 260 305
#     4   8  14  27  49  76 108 147 183 213 254 311
#     4   9  18  35  58  83 111 143 179 218 262 316
#     4   9  20  38  58  80 109 145 181 217 264 322
#     4  11  24  41  59  80 106 137 177 226 277 326
#
# _framework density 19.720811000000001
#
# number of rings (size 3 to 8) (size 9 to 14) (size 15 to 20)
#    0.000    2.800    0.000    2.400    0.000    6.800 
#    0.000    3.000    0.000    3.600    0.000    0.000 
#    0.000    0.000    0.000    0.000    0.000    0.000 
#
# Total GULP energy -247769.327384 kJ/mol
# GULP energy per Si atom -12388.466369 kJ/mol
# Density = 1.967593 g / cm^3
# Si number density = 19.720811 Si / 1000 Ang^3
#
#
#
# Elastic Constant Matrix: (Units=GPa)
#
#
# Indices 1 2 3 4 5 6 
#
# 1 205.8233 89.0586 55.8591 0.0000 0.0000 0.0000
# 2 89.0586 89.7573 38.8911 0.0000 0.0000 0.0000
# 3 55.8591 38.8911 61.4461 0.0000 0.0000 0.0000
# 4 0.0000 0.0000 0.0000 17.8110 0.0000 0.0000
# 5 0.0000 0.0000 0.0000 0.0000 219.0825 0.0000
# 6 0.0000 0.0000 0.0000 0.0000 0.0000 31.7290
#
#
#
# Elastic Compliance Matrix: (Units=1/GPa)
#
#
# Indices 1 2 3 4 5 6 
#
# 1 0.009028 -0.007443 -0.003496 0.000000 0.000000 0.000000
# 2 -0.007443 0.021487 -0.006834 0.000000 0.000000 0.000000
# 3 -0.003496 -0.006834 0.023778 0.000000 0.000000 0.000000
# 4 0.000000 0.000000 0.000000 0.056145 0.000000 0.000000
# 5 0.000000 0.000000 0.000000 0.000000 0.004564 0.000000
# 6 0.000000 0.000000 0.000000 0.000000 0.000000 0.031517
#
#
# Mechanical properties :
#
#
# Convention : Reuss Voigt Hill
#
# Bulk Modulus (GPa) = 53.34076 80.51605 66.92840
# Shear Modulus (GPa) = 26.55141 65.27236 45.91189
#
# Velocity S-wave (km/s) = 3.67327 5.75935 4.83027
# Velocity P-wave (km/s) = 6.71544 9.22732 8.06971
#
# Compressibility (1/GPa) = 0.01874739
#
# Stress axis : x y z
#
# Youngs Moduli (GPa) = 110.76933 46.54005 42.05543
#
# Poissons Ratio (x) = 0.34638 0.14704
# Poissons Ratio (y) = 0.82441 0.28740
# Poissons Ratio (z) = 0.38728 0.31805
#
# Static dielectric constant tensor:
#      x y z
#    x 3.915140 0.000000 0.000000 
#    y 0.000000 3.559870 0.000000 
#    z 0.000000 0.000000 3.205570 
# 
# 
# High freq. dielectric constant tensor:
#      x y z
#    x 1.788190 0.000000 0.000000 
#    y 0.000000 1.768230 0.000000 
#    z 0.000000 0.000000 1.727670 
# 
# From -- ./inp_files/18183.got.cif
#   From: 2010.03.12/outbox.cif.g09.slc.cpg/sg42_10_cif.got.tgz:18183.got - 2010.04.14 02:04:31.
