data_PCOD8186137
_publ_section_title
;
Structure prediction by ZEFSAII (Michael W. Deem and Ramdas Pophale) SiO2 
 PCOD8186137
Probable space group: F M M 2
;
_chemical_formula_sum "Si O2"
_cell_formula_units_Z 96
_cell_length_a 10.665063
_cell_length_b 19.078936
_cell_length_c 23.467471
_cell_angle_alpha 90.000000
_cell_angle_beta 90.000000
_cell_angle_gamma 90.000000
_cell_volume 4775.115341
_symmetry_space_group_name_H-M "F M M 2"
_symmetry_group_IT_number 42
_symmetry_cell_setting 'orthorhombic'
loop_
_space_group_symop_operation_xyz
x,y,z
-x,-y,z
-x,y,z
x,-y,z
x,1/2+y,1/2+z
-x,1/2-y,1/2+z
-x,1/2+y,1/2+z
x,1/2-y,1/2+z
1/2+x,y,1/2+z
1/2-x,-y,1/2+z
1/2-x,y,1/2+z
1/2+x,-y,1/2+z
1/2+x,1/2+y,z
1/2-x,1/2-y,z
1/2-x,1/2+y,z
1/2+x,1/2-y,z
loop_
_atom_site_type_symbol
_atom_site_label
_atom_site_fract_x
_atom_site_fract_y
_atom_site_fract_z
Si Si1 0.860836 0.082458 0.364130
Si Si2 0.360738 0.699745 0.554382
Si Si3 0.000000 0.417398 0.539413
Si Si4 0.265231 0.917361 0.742717
Si Si5 0.139532 0.800326 0.686381
Si Si6 0.258338 0.582248 0.484254
Si Si7 0.500000 0.082620 0.666827
O O1 0.795157 0.108708 0.306558
O O2 0.774980 0.102694 0.418001
O O3 0.000000 0.115900 0.370398
O O4 0.876757 0.000000 0.359340
O O5 0.500000 0.732952 0.544480
O O6 0.250000 0.750000 0.530868
O O7 0.337909 0.683292 0.620295
O O8 0.357123 0.625641 0.521593
O O9 0.120370 0.393730 0.503645
O O10 0.000000 0.500000 0.547086
O O11 0.000000 0.383117 0.603166
O O12 0.145771 0.873870 0.720678
O O13 0.378143 0.893590 0.701290
O O14 0.236853 0.000000 0.739622
O O15 0.250000 0.750000 0.709638
O O16 0.000000 0.767916 0.696178
O O17 0.283706 0.500000 0.494584
O O18 0.500000 0.000000 0.661616
#
# Coordination Sequence:
#
# PCOD8186137 Si02
#       7
#    16  16   8  16  16  16   8
#     4   9  17  32  54  82 115 152 196 238 284 343
#     4  10  22  39  59  84 116 154 193 238 295 354
#     4   9  18  30  48  82 117 146 184 238 297 344
#     4  10  19  34  58  87 115 148 191 244 295 344
#     4  10  23  40  58  84 117 154 192 237 298 357
#     4  10  20  35  57  85 117 154 196 241 288 343
#     4   9  16  28  52  84 113 142 186 240 293 344
#
# _framework density 20.104226000000001
#
# number of rings (size 3 to 8) (size 9 to 14) (size 15 to 20)
#    0.000    2.333    0.833    1.500    2.333    3.333 
#    1.500    2.500    0.000    2.000    0.000    0.000 
#    0.000    0.000    0.000    0.000    0.000    0.000 
#
# Total GULP energy -297533.356528 kJ/mol
# GULP energy per Si atom -12397.223189 kJ/mol
# Density = 2.005847 g / cm^3
# Si number density = 20.104226 Si / 1000 Ang^3
#
#
#
# Elastic Constant Matrix: (Units=GPa)
#
#
# Indices 1 2 3 4 5 6 
#
# 1 123.2511 43.1386 61.1891 0.0000 0.0000 0.0000
# 2 43.1386 58.4698 34.1408 0.0000 0.0000 0.0000
# 3 61.1891 34.1408 131.5726 0.0000 0.0000 0.0000
# 4 0.0000 0.0000 0.0000 20.4286 0.0000 0.0000
# 5 0.0000 0.0000 0.0000 0.0000 25.3107 0.0000
# 6 0.0000 0.0000 0.0000 0.0000 0.0000 27.4864
#
#
#
# Elastic Compliance Matrix: (Units=1/GPa)
#
#
# Indices 1 2 3 4 5 6 
#
# 1 0.012529 -0.006885 -0.004040 0.000000 0.000000 0.000000
# 2 -0.006885 0.023940 -0.003010 0.000000 0.000000 0.000000
# 3 -0.004040 -0.003010 0.010260 0.000000 0.000000 0.000000
# 4 0.000000 0.000000 0.000000 0.048951 0.000000 0.000000
# 5 0.000000 0.000000 0.000000 0.000000 0.039509 0.000000
# 6 0.000000 0.000000 0.000000 0.000000 0.000000 0.036382
#
#
# Mechanical properties :
#
#
# Convention : Reuss Voigt Hill
#
# Bulk Modulus (GPa) = 53.02485 65.58117 59.30301
# Shear Modulus (GPa) = 24.30395 26.30014 25.30205
#
# Velocity S-wave (km/s) = 3.48069 3.62081 3.55144
# Velocity P-wave (km/s) = 6.52578 7.08321 6.81020
#
# Compressibility (1/GPa) = 0.01885908
#
# Stress axis : x y z
#
# Youngs Moduli (GPa) = 79.81455 41.77105 97.46165
#
# Poissons Ratio (x) = 0.28758 0.39377
# Poissons Ratio (y) = 0.54950 0.29338
# Poissons Ratio (z) = 0.32247 0.12574
#
# Static dielectric constant tensor:
#      x y z
#    x 3.733010 0.000000 0.000000 
#    y 0.000000 3.331780 0.000000 
#    z 0.000000 0.000000 3.774980 
# 
# 
# High freq. dielectric constant tensor:
#      x y z
#    x 1.784220 0.000000 0.000000 
#    y 0.000000 1.759410 0.000000 
#    z 0.000000 0.000000 1.780770 
# 
# From -- ./inp_files/28859.got.cif
#   From: 2010.03.12/outbox.cif.g09.slc.cpg/sg42_15_cif.got.tgz:28859.got - 2010.04.14 02:04:31.
