data_PCOD8186152
_publ_section_title
;
Structure prediction by ZEFSAII (Michael W. Deem and Ramdas Pophale) SiO2 
 PCOD8186152
Probable space group: F M M 2
;
_chemical_formula_sum "Si O2"
_cell_formula_units_Z 64
_cell_length_a 18.187449
_cell_length_b 14.914410
_cell_length_c 13.371030
_cell_angle_alpha 90.000000
_cell_angle_beta 90.000000
_cell_angle_gamma 90.000000
_cell_volume 3626.959695
_symmetry_space_group_name_H-M "F M M 2"
_symmetry_group_IT_number 42
_symmetry_cell_setting 'orthorhombic'
loop_
_space_group_symop_operation_xyz
x,y,z
-x,-y,z
-x,y,z
x,-y,z
x,1/2+y,1/2+z
-x,1/2-y,1/2+z
-x,1/2+y,1/2+z
x,1/2-y,1/2+z
1/2+x,y,1/2+z
1/2-x,-y,1/2+z
1/2-x,y,1/2+z
1/2+x,-y,1/2+z
1/2+x,1/2+y,z
1/2-x,1/2-y,z
1/2-x,1/2+y,z
1/2+x,1/2-y,z
loop_
_atom_site_type_symbol
_atom_site_label
_atom_site_fract_x
_atom_site_fract_y
_atom_site_fract_z
Si Si1 0.585705 0.751479 0.356080
Si Si2 0.818187 0.690798 0.689370
Si Si3 0.844064 0.896066 0.985404
Si Si4 0.810492 0.601271 0.887271
O O1 0.500000 0.732214 0.349637
O O2 0.619881 0.752763 0.243752
O O3 0.600943 0.845170 0.410843
O O4 0.624691 0.670344 0.418951
O O5 0.750000 0.750000 0.651697
O O6 0.855540 0.639667 0.597409
O O7 0.789046 0.617992 0.770772
O O8 0.865260 0.000000 0.979870
O O9 0.760032 0.878521 0.954766
O O10 0.838483 0.500000 0.902413
#
# Coordination Sequence:
#
# PCOD8186152 Si02
#       4
#    16  16  16  16
#     4  10  21  37  54  82 121 153 183 233 289 341
#     4  10  19  35  58  84 115 145 189 236 287 335
#     4  11  21  37  61  87 112 148 195 241 286 337
#     4   9  18  35  57  86 111 143 192 240 284 328
#
# _framework density 17.645634000000001
#
# number of rings (size 3 to 8) (size 9 to 14) (size 15 to 20)
#    1.500    0.500    2.500    3.000    0.000    2.000 
#    0.000    0.000    0.000    0.000    0.000    3.500 
#    0.000    0.000    0.000    0.000    0.000    0.000 
#
# Total GULP energy -198307.416125 kJ/mol
# GULP energy per Si atom -12394.213508 kJ/mol
# Density = 1.760547 g / cm^3
# Si number density = 17.645634 Si / 1000 Ang^3
#
#
#
# Elastic Constant Matrix: (Units=GPa)
#
#
# Indices 1 2 3 4 5 6 
#
# 1 86.0590 38.6806 17.9026 0.0000 0.0000 0.0000
# 2 38.6806 97.9833 38.0861 0.0000 0.0000 0.0000
# 3 17.9026 38.0861 99.9329 0.0000 0.0000 0.0000
# 4 0.0000 0.0000 0.0000 29.2641 0.0000 0.0000
# 5 0.0000 0.0000 0.0000 0.0000 7.1437 0.0000
# 6 0.0000 0.0000 0.0000 0.0000 0.0000 18.4446
#
#
#
# Elastic Compliance Matrix: (Units=1/GPa)
#
#
# Indices 1 2 3 4 5 6 
#
# 1 0.014146 -0.005399 -0.000476 0.000000 0.000000 0.000000
# 2 -0.005399 0.014041 -0.004384 0.000000 0.000000 0.000000
# 3 -0.000476 -0.004384 0.011763 0.000000 0.000000 0.000000
# 4 0.000000 0.000000 0.000000 0.034172 0.000000 0.000000
# 5 0.000000 0.000000 0.000000 0.000000 0.139984 0.000000
# 6 0.000000 0.000000 0.000000 0.000000 0.000000 0.054216
#
#
# Mechanical properties :
#
#
# Convention : Reuss Voigt Hill
#
# Bulk Modulus (GPa) = 51.46522 52.59042 52.02782
# Shear Modulus (GPa) = 16.93087 23.59086 20.26086
#
# Velocity S-wave (km/s) = 3.10093 3.66036 3.39220
# Velocity P-wave (km/s) = 6.48462 6.90888 6.70011
#
# Compressibility (1/GPa) = 0.01943060
#
# Stress axis : x y z
#
# Youngs Moduli (GPa) = 70.69255 71.21837 85.01265
#
# Poissons Ratio (x) = 0.38451 0.04051
# Poissons Ratio (y) = 0.38167 0.37271
# Poissons Ratio (z) = 0.03368 0.31223
#
# Static dielectric constant tensor:
#      x y z
#    x 2.912160 0.000000 0.000000 
#    y 0.000000 3.261870 0.000000 
#    z 0.000000 0.000000 3.115200 
# 
# 
# High freq. dielectric constant tensor:
#      x y z
#    x 1.657090 0.000000 0.000000 
#    y 0.000000 1.684110 0.000000 
#    z 0.000000 0.000000 1.674530 
# 
# From -- ./inp_files/7492.got.cif
#   From: 2010.03.12/outbox.cif.g09.slc.cpg/sg42_4_cif.got.tgz:7492.got - 2010.04.14 02:04:31.
