data_PCOD8186821
_publ_section_title
;
Structure prediction by ZEFSAII (Michael W. Deem and Ramdas Pophale) SiO2 
 PCOD8186821
Probable space group: F M M 2
;
_chemical_formula_sum "Si O2"
_cell_formula_units_Z 96
_cell_length_a 8.941750
_cell_length_b 18.940067
_cell_length_c 30.775517
_cell_angle_alpha 90.000000
_cell_angle_beta 90.000000
_cell_angle_gamma 90.000000
_cell_volume 5212.059822
_symmetry_space_group_name_H-M "F M M 2"
_symmetry_group_IT_number 42
_symmetry_cell_setting 'orthorhombic'
loop_
_space_group_symop_operation_xyz
x,y,z
-x,-y,z
-x,y,z
x,-y,z
x,1/2+y,1/2+z
-x,1/2-y,1/2+z
-x,1/2+y,1/2+z
x,1/2-y,1/2+z
1/2+x,y,1/2+z
1/2-x,-y,1/2+z
1/2-x,y,1/2+z
1/2+x,-y,1/2+z
1/2+x,1/2+y,z
1/2-x,1/2-y,z
1/2-x,1/2+y,z
1/2+x,1/2-y,z
loop_
_atom_site_type_symbol
_atom_site_label
_atom_site_fract_x
_atom_site_fract_y
_atom_site_fract_z
Si Si1 0.676116 0.823434 0.028830
Si Si2 0.322839 0.173229 0.284290
Si Si3 0.824379 0.824147 0.626342
Si Si4 0.326123 0.082619 0.856917
Si Si5 0.677574 0.079363 0.203758
Si Si6 0.323332 0.077199 0.954291
O O1 0.500000 0.815435 0.023625
O O2 0.750000 0.750000 0.018321
O O3 0.717801 0.848949 0.077536
O O4 0.744808 0.875752 0.992861
O O5 0.500000 0.182649 0.283670
O O6 0.250000 0.250000 0.282254
O O7 0.276085 0.131753 0.327377
O O8 0.264799 0.126797 0.243689
O O9 0.750000 0.750000 0.638474
O O10 0.766425 0.884533 0.659077
O O11 0.000000 0.812551 0.631482
O O12 0.500000 0.096427 0.846579
O O13 0.286691 0.106114 0.906185
O O14 0.288029 0.000000 0.849710
O O15 0.500000 0.074948 0.204616
O O16 0.744909 0.000000 0.206900
O O17 0.500000 0.071868 0.959777
O O18 0.251423 0.000000 0.959683
#
# Coordination Sequence:
#
# PCOD8186821 Si02
#       6
#    16  16  16  16  16  16
#     4   9  17  29  47  71  97 126 159 194 234 280
#     4  11  22  35  52  73  99 130 164 203 245 291
#     4   9  17  30  49  71  96 126 158 194 235 281
#     4   9  18  34  54  74  99 130 163 202 247 293
#     4   9  18  32  50  73  98 123 155 198 244 286
#     4   8  15  29  49  72  97 125 158 197 238 279
#
# _framework density 18.418821999999999
#
# number of rings (size 3 to 8) (size 9 to 14) (size 15 to 20)
#    0.000    2.833    0.000    2.500    0.000    2.333 
#    0.000    6.667    0.000    4.000    0.000    4.667 
#    0.000    0.000    0.000    0.000    0.000    0.000 
#
# Total GULP energy -297507.621127 kJ/mol
# GULP energy per Si atom -12396.150880 kJ/mol
# Density = 1.837690 g / cm^3
# Si number density = 18.418822 Si / 1000 Ang^3
#
#
#
# Elastic Constant Matrix: (Units=GPa)
#
#
# Indices 1 2 3 4 5 6 
#
# 1 28.8632 34.4027 29.3967 0.0000 0.0000 0.0000
# 2 34.4027 141.5136 102.7485 0.0000 0.0000 0.0000
# 3 29.3967 102.7485 160.3193 0.0000 0.0000 0.0000
# 4 0.0000 0.0000 0.0000 38.7589 0.0000 0.0000
# 5 0.0000 0.0000 0.0000 0.0000 20.4534 0.0000
# 6 0.0000 0.0000 0.0000 0.0000 0.0000 21.7239
#
#
#
# Elastic Compliance Matrix: (Units=1/GPa)
#
#
# Indices 1 2 3 4 5 6 
#
# 1 0.049329 -0.010146 -0.002543 0.000000 0.000000 0.000000
# 2 -0.010146 0.015304 -0.007948 0.000000 0.000000 0.000000
# 3 -0.002543 -0.007948 0.011797 0.000000 0.000000 0.000000
# 4 0.000000 0.000000 0.000000 0.025801 0.000000 0.000000
# 5 0.000000 0.000000 0.000000 0.000000 0.048892 0.000000
# 6 0.000000 0.000000 0.000000 0.000000 0.000000 0.046032
#
#
# Mechanical properties :
#
#
# Convention : Reuss Voigt Hill
#
# Bulk Modulus (GPa) = 28.44344 73.75464 51.09904
# Shear Modulus (GPa) = 19.98834 27.13046 23.55940
#
# Velocity S-wave (km/s) = 3.29783 3.84210 3.58032
# Velocity P-wave (km/s) = 5.47513 7.73384 6.70035
#
# Compressibility (1/GPa) = 0.03515749
#
# Stress axis : x y z
#
# Youngs Moduli (GPa) = 20.27205 65.34439 84.76465
#
# Poissons Ratio (x) = 0.66299 0.21551
# Poissons Ratio (y) = 0.20568 0.67368
# Poissons Ratio (z) = 0.05154 0.51933
#
# Static dielectric constant tensor:
#      x y z
#    x 3.018250 0.000000 0.000000 
#    y 0.000000 3.908990 0.000000 
#    z 0.000000 0.000000 3.700190 
# 
# 
# High freq. dielectric constant tensor:
#      x y z
#    x 1.676410 0.000000 0.000000 
#    y 0.000000 1.715130 0.000000 
#    z 0.000000 0.000000 1.731010 
# 
# From -- ./inp_files/28842.got.cif
#   From: 2010.03.12/outbox.cif.g09.slc.cpg/sg42_15_cif.got.tgz:28842.got - 2010.04.14 02:04:31.
