data_PCOD8186408
_publ_section_title
;
Structure prediction by ZEFSAII (Michael W. Deem and Ramdas Pophale) SiO2 
 PCOD8186408
Probable space group: F M M 2
;
_chemical_formula_sum "Si O2"
_cell_formula_units_Z 96
_cell_length_a 18.640840
_cell_length_b 8.778244
_cell_length_c 30.579562
_cell_angle_alpha 90.000000
_cell_angle_beta 90.000000
_cell_angle_gamma 90.000000
_cell_volume 5003.851213
_symmetry_space_group_name_H-M "F M M 2"
_symmetry_group_IT_number 42
_symmetry_cell_setting 'orthorhombic'
loop_
_space_group_symop_operation_xyz
x,y,z
-x,-y,z
-x,y,z
x,-y,z
x,1/2+y,1/2+z
-x,1/2-y,1/2+z
-x,1/2+y,1/2+z
x,1/2-y,1/2+z
1/2+x,y,1/2+z
1/2-x,-y,1/2+z
1/2-x,y,1/2+z
1/2+x,-y,1/2+z
1/2+x,1/2+y,z
1/2-x,1/2-y,z
1/2-x,1/2+y,z
1/2+x,1/2-y,z
loop_
_atom_site_type_symbol
_atom_site_label
_atom_site_fract_x
_atom_site_fract_y
_atom_site_fract_z
Si Si1 0.079745 0.819101 0.552870
Si Si2 0.172363 0.679428 0.972912
Si Si3 0.674433 0.321669 0.813333
Si Si4 0.174332 0.821433 0.222658
Si Si5 0.583260 0.323644 0.897095
Si Si6 0.584767 0.171881 0.150139
O O1 0.135399 0.755031 0.517050
O O2 0.106245 0.772068 0.601335
O O3 0.000000 0.752082 0.543472
O O4 0.075113 0.000000 0.550123
O O5 0.181232 0.500000 0.975496
O O6 0.250000 0.750000 0.966661
O O7 0.122462 0.719780 0.932273
O O8 0.686024 0.500000 0.806261
O O9 0.750000 0.250000 0.828103
O O10 0.646571 0.249450 0.768139
O O11 0.615034 0.286024 0.849583
O O12 0.250000 0.750000 0.209043
O O13 0.118040 0.787319 0.184667
O O14 0.183124 0.000000 0.228751
O O15 0.500000 0.280148 0.896392
O O16 0.595564 0.500000 0.909132
O O17 0.500000 0.176096 0.155205
O O18 0.613044 0.000000 0.158488
#
# Coordination Sequence:
#
# PCOD8186408 Si02
#       6
#    16  16  16  16  16  16
#     4   8  16  33  56  80 106 140 182 224 267 319
#     4  11  22  36  56  82 112 145 182 223 268 319
#     4  10  20  36  57  79 106 142 182 223 270 322
#     4  11  22  36  55  80 111 144 182 226 270 319
#     4  10  22  39  58  82 111 142 178 221 269 322
#     4   9  18  35  58  81 109 145 181 220 270 324
#
# _framework density 19.185222
#
# number of rings (size 3 to 8) (size 9 to 14) (size 15 to 20)
#    0.000    2.167    0.000    5.500    0.000    5.333 
#    0.000    5.000    0.000    2.000    0.000    0.000 
#    0.000    0.000    0.000    0.000    0.000    0.000 
#
# Total GULP energy -297634.198687 kJ/mol
# GULP energy per Si atom -12401.424945 kJ/mol
# Density = 1.914156 g / cm^3
# Si number density = 19.185222 Si / 1000 Ang^3
#
#
#
# Elastic Constant Matrix: (Units=GPa)
#
#
# Indices 1 2 3 4 5 6 
#
# 1 106.0676 39.1369 74.1306 0.0000 0.0000 0.0000
# 2 39.1369 87.3266 51.6716 0.0000 0.0000 0.0000
# 3 74.1306 51.6716 137.1765 0.0000 0.0000 0.0000
# 4 0.0000 0.0000 0.0000 25.1776 0.0000 0.0000
# 5 0.0000 0.0000 0.0000 0.0000 40.1820 0.0000
# 6 0.0000 0.0000 0.0000 0.0000 0.0000 23.2311
#
#
#
# Elastic Compliance Matrix: (Units=1/GPa)
#
#
# Indices 1 2 3 4 5 6 
#
# 1 0.015587 -0.002576 -0.007453 0.000000 0.000000 0.000000
# 2 -0.002576 0.015161 -0.004319 0.000000 0.000000 0.000000
# 3 -0.007453 -0.004319 0.012945 0.000000 0.000000 0.000000
# 4 0.000000 0.000000 0.000000 0.039718 0.000000 0.000000
# 5 0.000000 0.000000 0.000000 0.000000 0.024887 0.000000
# 6 0.000000 0.000000 0.000000 0.000000 0.000000 0.043046
#
#
# Mechanical properties :
#
#
# Convention : Reuss Voigt Hill
#
# Bulk Modulus (GPa) = 66.67896 73.38321 70.03109
# Shear Modulus (GPa) = 27.02142 28.76025 27.89083
#
# Velocity S-wave (km/s) = 3.75700 3.87600 3.81697
# Velocity P-wave (km/s) = 7.32468 7.63964 7.48382
#
# Compressibility (1/GPa) = 0.01499723
#
# Stress axis : x y z
#
# Youngs Moduli (GPa) = 64.15431 65.95803 77.25257
#
# Poissons Ratio (x) = 0.16988 0.57579
# Poissons Ratio (y) = 0.16524 0.33366
# Poissons Ratio (z) = 0.47816 0.28487
#
# Static dielectric constant tensor:
#      x y z
#    x 3.691480 0.000000 0.000000 
#    y 0.000000 3.396350 0.000000 
#    z 0.000000 0.000000 3.720150 
# 
# 
# High freq. dielectric constant tensor:
#      x y z
#    x 1.744250 0.000000 0.000000 
#    y 0.000000 1.733620 0.000000 
#    z 0.000000 0.000000 1.760100 
# 
# From -- ./inp_files/31444.got.cif
#   From: 2010.03.12/outbox.cif.g09.slc.cpg/sg42_16_cif.got.tgz:31444.got - 2010.04.14 02:04:31.
