data_PCOD8186248
_publ_section_title
;
Structure prediction by ZEFSAII (Michael W. Deem and Ramdas Pophale) SiO2 
 PCOD8186248
Probable space group: F M M 2
;
_chemical_formula_sum "Si O2"
_cell_formula_units_Z 80
_cell_length_a 15.755932
_cell_length_b 9.161365
_cell_length_c 28.719138
_cell_angle_alpha 90.000000
_cell_angle_beta 90.000000
_cell_angle_gamma 90.000000
_cell_volume 4145.488213
_symmetry_space_group_name_H-M "F M M 2"
_symmetry_group_IT_number 42
_symmetry_cell_setting 'orthorhombic'
loop_
_space_group_symop_operation_xyz
x,y,z
-x,-y,z
-x,y,z
x,-y,z
x,1/2+y,1/2+z
-x,1/2-y,1/2+z
-x,1/2+y,1/2+z
x,1/2-y,1/2+z
1/2+x,y,1/2+z
1/2-x,-y,1/2+z
1/2-x,y,1/2+z
1/2+x,-y,1/2+z
1/2+x,1/2+y,z
1/2-x,1/2-y,z
1/2-x,1/2+y,z
1/2+x,1/2-y,z
loop_
_atom_site_type_symbol
_atom_site_label
_atom_site_fract_x
_atom_site_fract_y
_atom_site_fract_z
Si Si1 0.595610 0.166145 0.746750
Si Si2 0.666795 0.667750 0.342455
Si Si3 0.334044 0.326929 0.663933
Si Si4 0.000000 0.326256 0.003777
Si Si5 0.838005 0.672706 0.946655
Si Si6 0.000000 0.826828 0.608897
O O1 0.500000 0.189980 0.730004
O O2 0.598267 0.200059 0.802155
O O3 0.654316 0.275565 0.717384
O O4 0.625744 0.000000 0.737242
O O5 0.691301 0.500000 0.345108
O O6 0.750000 0.750000 0.326373
O O7 0.635670 0.716811 0.393723
O O8 0.323143 0.500000 0.661982
O O9 0.250000 0.250000 0.643086
O O10 0.414825 0.270926 0.634287
O O11 0.085299 0.268314 0.978660
O O12 0.000000 0.500000 0.001911
O O13 0.000000 0.266224 0.056342
O O14 0.825473 0.500000 0.952618
O O15 0.750000 0.750000 0.961255
O O16 0.000000 0.000000 0.609285
#
# Coordination Sequence:
#
# PCOD8186248 Si02
#       6
#    16  16  16   8  16   8
#     4  10  20  33  52  79 111 143 180 222 263 314
#     4   9  18  31  48  74 106 140 175 215 257 307
#     4  11  22  38  58  80 108 143 181 223 270 321
#     4   9  18  34  58  81 103 139 179 217 266 325
#     4   9  18  33  55  80 108 140 178 217 260 313
#     4   9  20  38  56  79 109 137 175 223 272 325
#
# _framework density 19.298089000000001
#
# number of rings (size 3 to 8) (size 9 to 14) (size 15 to 20)
#    0.000    2.400    1.000    1.200    1.400    3.200 
#    0.000    0.500    0.000    3.600    0.000    0.000 
#    0.000    0.000    0.000    0.000    0.000    0.000 
#
# Total GULP energy -247933.513150 kJ/mol
# GULP energy per Si atom -12396.675658 kJ/mol
# Density = 1.925417 g / cm^3
# Si number density = 19.298089 Si / 1000 Ang^3
#
#
#
# Elastic Constant Matrix: (Units=GPa)
#
#
# Indices 1 2 3 4 5 6 
#
# 1 148.6199 42.1689 73.2576 0.0000 0.0000 0.0000
# 2 42.1689 45.4772 30.7652 0.0000 0.0000 0.0000
# 3 73.2576 30.7652 122.4835 0.0000 0.0000 0.0000
# 4 0.0000 0.0000 0.0000 17.8929 0.0000 0.0000
# 5 0.0000 0.0000 0.0000 0.0000 27.6835 0.0000
# 6 0.0000 0.0000 0.0000 0.0000 0.0000 30.4903
#
#
#
# Elastic Compliance Matrix: (Units=1/GPa)
#
#
# Indices 1 2 3 4 5 6 
#
# 1 0.011131 -0.007008 -0.004897 0.000000 0.000000 0.000000
# 2 -0.007008 0.030903 -0.003570 0.000000 0.000000 0.000000
# 3 -0.004897 -0.003570 0.011990 0.000000 0.000000 0.000000
# 4 0.000000 0.000000 0.000000 0.055888 0.000000 0.000000
# 5 0.000000 0.000000 0.000000 0.000000 0.036123 0.000000
# 6 0.000000 0.000000 0.000000 0.000000 0.000000 0.032797
#
#
# Mechanical properties :
#
#
# Convention : Reuss Voigt Hill
#
# Bulk Modulus (GPa) = 43.34204 67.66264 55.50234
# Shear Modulus (GPa) = 22.99118 26.57260 24.78189
#
# Velocity S-wave (km/s) = 3.45537 3.71476 3.58741
# Velocity P-wave (km/s) = 6.19899 7.31691 6.78103
#
# Compressibility (1/GPa) = 0.02307229
#
# Stress axis : x y z
#
# Youngs Moduli (GPa) = 89.83930 32.35936 83.40173
#
# Poissons Ratio (x) = 0.22679 0.40843
# Poissons Ratio (y) = 0.62963 0.29778
# Poissons Ratio (z) = 0.43995 0.11554
#
# Static dielectric constant tensor:
#      x y z
#    x 3.910080 0.000000 0.000000 
#    y 0.000000 3.248300 0.000000 
#    z 0.000000 0.000000 3.644310 
# 
# 
# High freq. dielectric constant tensor:
#      x y z
#    x 1.754770 0.000000 0.000000 
#    y 0.000000 1.722460 0.000000 
#    z 0.000000 0.000000 1.751410 
# 
# From -- ./inp_files/31287.got.cif
#   From: 2010.03.12/outbox.cif.g09.slc.cpg/sg42_16_cif.got.tgz:31287.got - 2010.04.14 02:04:31.
