data_PCOD8186914
_publ_section_title
;
Structure prediction by ZEFSAII (Michael W. Deem and Ramdas Pophale) SiO2 
 PCOD8186914
Probable space group: F D D 2
;
_chemical_formula_sum "Si O2"
_cell_formula_units_Z 112
_cell_length_a 9.483846
_cell_length_b 33.363342
_cell_length_c 16.588663
_cell_angle_alpha 90.000000
_cell_angle_beta 90.000000
_cell_angle_gamma 90.000000
_cell_volume 5248.865268
_symmetry_space_group_name_H-M "F D D 2"
_symmetry_group_IT_number 43
_symmetry_cell_setting 'orthorhombic'
loop_
_space_group_symop_operation_xyz
x,y,z
-x,-y,z
1/4-x,1/4+y,1/4+z
1/4+x,1/4-y,1/4+z
x,1/2+y,1/2+z
-x,1/2-y,1/2+z
1/4-x,3/4+y,3/4+z
1/4+x,3/4-y,3/4+z
1/2+x,y,1/2+z
1/2-x,-y,1/2+z
3/4-x,1/4+y,3/4+z
3/4+x,1/4-y,3/4+z
1/2+x,1/2+y,z
1/2-x,1/2-y,z
3/4-x,3/4+y,1/4+z
3/4+x,3/4-y,1/4+z
loop_
_atom_site_type_symbol
_atom_site_label
_atom_site_fract_x
_atom_site_fract_y
_atom_site_fract_z
Si Si1 0.014316 0.830198 0.519040
Si Si2 0.041371 0.069504 0.040842
Si Si3 0.331431 0.398247 0.332429
Si Si4 0.400533 0.728534 0.653899
Si Si5 0.275772 0.203988 0.465693
Si Si6 0.492893 0.198142 0.729555
Si Si7 0.122739 0.352013 0.857262
O O1 0.868759 0.821181 0.472368
O O2 0.998499 0.868589 0.578691
O O3 0.058011 0.791183 0.569347
O O4 0.134570 0.839221 0.451328
O O5 0.029721 0.117801 0.041458
O O6 0.090029 0.051988 0.126794
O O7 0.893309 0.048576 0.021791
O O8 0.149852 0.056242 0.971750
O O9 0.357056 0.436978 0.276938
O O10 0.262455 0.411663 0.416321
O O11 0.476625 0.375647 0.348238
O O12 0.250000 0.750000 0.641829
O O13 0.524168 0.759595 0.682286
O O14 0.250000 0.250000 0.486718
O O15 0.378351 0.187807 0.799455
#
# Coordination Sequence:
#
# PCOD8186914 Si02
#       7
#    16  16  16  16  16  16  16
#     4  11  21  39  60  84 118 153 195 240 297 353
#     4  10  19  35  56  81 112 153 190 230 286 342
#     4  10  18  33  56  86 112 143 192 237 288 337
#     4  10  23  39  58  81 122 158 190 238 302 350
#     4  11  20  32  59  91 109 140 196 245 281 337
#     4  10  17  35  58  84 112 152 187 242 288 340
#     4  10  19  35  63  84 114 152 194 241 292 350
#
# _framework density 21.337945999999999
#
# number of rings (size 3 to 8) (size 9 to 14) (size 15 to 20)
#    0.000    1.714    4.286    3.857    0.000    0.000 
#    7.714    0.000    3.143    0.000    0.000    0.000 
#    0.000    0.000    0.000    0.000    0.000    0.000 
#
# Total GULP energy -347092.289443 kJ/mol
# GULP energy per Si atom -12396.153194 kJ/mol
# Density = 2.128938 g / cm^3
# Si number density = 21.337946 Si / 1000 Ang^3
#
#
#
# Elastic Constant Matrix: (Units=GPa)
#
#
# Indices 1 2 3 4 5 6 
#
# 1 16.7838 12.2831 16.3641 0.0000 0.0000 0.0000
# 2 12.2831 133.5020 61.0195 0.0000 0.0000 0.0000
# 3 16.3641 61.0195 144.5231 0.0000 0.0000 0.0000
# 4 0.0000 0.0000 0.0000 46.2051 0.0000 0.0000
# 5 0.0000 0.0000 0.0000 0.0000 17.2012 0.0000
# 6 0.0000 0.0000 0.0000 0.0000 0.0000 20.2009
#
#
#
# Elastic Compliance Matrix: (Units=1/GPa)
#
#
# Indices 1 2 3 4 5 6 
#
# 1 0.068200 -0.003402 -0.006286 0.000000 0.000000 0.000000
# 2 -0.003402 0.009451 -0.003605 0.000000 0.000000 0.000000
# 3 -0.006286 -0.003605 0.009153 0.000000 0.000000 0.000000
# 4 0.000000 0.000000 0.000000 0.021643 0.000000 0.000000
# 5 0.000000 0.000000 0.000000 0.000000 0.058136 0.000000
# 6 0.000000 0.000000 0.000000 0.000000 0.000000 0.049503
#
#
# Mechanical properties :
#
#
# Convention : Reuss Voigt Hill
#
# Bulk Modulus (GPa) = 16.60622 52.68248 34.64435
# Shear Modulus (GPa) = 19.02993 30.39758 24.71375
#
# Velocity S-wave (km/s) = 2.98960 3.77845 3.40694
# Velocity P-wave (km/s) = 4.44031 6.61655 5.63450
#
# Compressibility (1/GPa) = 0.06021838
#
# Stress axis : x y z
#
# Youngs Moduli (GPa) = 14.66283 105.80465 109.25073
#
# Poissons Ratio (x) = 0.35992 0.68674
# Poissons Ratio (y) = 0.04988 0.39388
# Poissons Ratio (z) = 0.09217 0.38146
#
# Static dielectric constant tensor:
#      x y z
#    x 3.263080 0.000000 0.000000 
#    y 0.000000 4.101620 0.000000 
#    z 0.000000 0.000000 4.124150 
# 
# 
# High freq. dielectric constant tensor:
#      x y z
#    x 1.770660 0.000000 0.000000 
#    y 0.000000 1.843490 0.000000 
#    z 0.000000 0.000000 1.856010 
# 
# From -- ./inp_files/9765.got.cif
#   From: 2010.06.25/outbox.cif.g09.slc.cpg/sg43_5_cif.got.tgz:9765.got - 2010.06.26 16:48:59.
