data_PCOD8186245
_publ_section_title
;
Structure prediction by ZEFSAII (Michael W. Deem and Ramdas Pophale) SiO2 
 PCOD8186245
Probable space group: F M M 2
;
_chemical_formula_sum "Si O2"
_cell_formula_units_Z 80
_cell_length_a 17.785546
_cell_length_b 9.195397
_cell_length_c 25.991444
_cell_angle_alpha 90.000000
_cell_angle_beta 90.000000
_cell_angle_gamma 90.000000
_cell_volume 4250.774772
_symmetry_space_group_name_H-M "F M M 2"
_symmetry_group_IT_number 42
_symmetry_cell_setting 'orthorhombic'
loop_
_space_group_symop_operation_xyz
x,y,z
-x,-y,z
-x,y,z
x,-y,z
x,1/2+y,1/2+z
-x,1/2-y,1/2+z
-x,1/2+y,1/2+z
x,1/2-y,1/2+z
1/2+x,y,1/2+z
1/2-x,-y,1/2+z
1/2-x,y,1/2+z
1/2+x,-y,1/2+z
1/2+x,1/2+y,z
1/2-x,1/2-y,z
1/2-x,1/2+y,z
1/2+x,1/2-y,z
loop_
_atom_site_type_symbol
_atom_site_label
_atom_site_fract_x
_atom_site_fract_y
_atom_site_fract_z
Si Si1 0.829169 0.327021 0.534900
Si Si2 0.414504 0.670548 0.932535
Si Si3 0.089199 0.336108 0.834502
Si Si4 0.089506 0.336158 0.721478
Si Si5 0.089327 0.664295 0.123952
O O1 0.820967 0.500000 0.539847
O O2 0.750000 0.250000 0.541346
O O3 0.864415 0.279950 0.480516
O O4 0.883946 0.269357 0.578889
O O5 0.500000 0.725226 0.941811
O O6 0.412995 0.500000 0.925225
O O7 0.378372 0.738308 0.880729
O O8 0.116250 0.500000 0.844429
O O9 0.117968 0.283843 0.778092
O O10 0.000000 0.325569 0.835102
O O11 0.118439 0.500000 0.710373
O O12 0.120883 0.227020 0.678093
O O13 0.000000 0.336297 0.720752
O O14 0.120090 0.500000 0.116952
O O15 0.000000 0.665412 0.123738
#
# Coordination Sequence:
#
# PCOD8186245 Si02
#       5
#    16  16  16  16  16
#     4  11  23  38  54  72  99 135 173 213 259 307
#     4   9  18  32  51  75 101 130 164 203 250 302
#     4   8  14  25  44  72 103 132 162 199 244 292
#     4   8  14  26  45  71 103 135 164 198 246 299
#     4  10  20  33  52  79 106 133 169 211 253 299
#
# _framework density 18.820098999999999
#
# number of rings (size 3 to 8) (size 9 to 14) (size 15 to 20)
#    0.000    2.800    0.000    3.000    0.000    4.400 
#    0.000    6.000    0.000    1.200    0.000    2.800 
#    0.000    0.000    0.000    0.000    0.000    0.000 
#
# Total GULP energy -247906.335545 kJ/mol
# GULP energy per Si atom -12395.316777 kJ/mol
# Density = 1.877726 g / cm^3
# Si number density = 18.820099 Si / 1000 Ang^3
#
#
#
# Elastic Constant Matrix: (Units=GPa)
#
#
# Indices 1 2 3 4 5 6 
#
# 1 19.5437 19.3160 18.3310 0.0000 0.0000 0.0000
# 2 19.3160 80.4070 65.9899 0.0000 0.0000 0.0000
# 3 18.3310 65.9899 163.8222 0.0000 0.0000 0.0000
# 4 0.0000 0.0000 0.0000 40.9827 0.0000 0.0000
# 5 0.0000 0.0000 0.0000 0.0000 -0.1692 0.0000
# 6 0.0000 0.0000 0.0000 0.0000 0.0000 19.5063
#
#
#
# Elastic Compliance Matrix: (Units=1/GPa)
#
#
# Indices 1 2 3 4 5 6 
#
# 1 0.067352 -0.014931 -0.001522 0.000000 0.000000 0.000000
# 2 -0.014931 0.021888 -0.007146 0.000000 0.000000 0.000000
# 3 -0.001522 -0.007146 0.009153 0.000000 0.000000 0.000000
# 4 0.000000 0.000000 0.000000 0.024401 0.000000 0.000000
# 5 0.000000 0.000000 0.000000 0.000000 -5.909047 0.000000
# 6 0.000000 0.000000 0.000000 0.000000 0.000000 0.051266
#
#
# Mechanical properties :
#
#
# Convention : Reuss Voigt Hill
#
# Bulk Modulus (GPa) = 19.53302 52.33852 35.93577
# Shear Modulus (GPa) = -0.88172 22.73969 10.92898
#
# Velocity S-wave (km/s) = -0.68521 3.47978 2.41240
# Velocity P-wave (km/s) = 3.12655 6.63442 5.18608
#
# Compressibility (1/GPa) = 0.05119536
#
# Stress axis : x y z
#
# Youngs Moduli (GPa) = 14.84742 45.68629 109.25224
#
# Poissons Ratio (x) = 0.68212 0.16630
# Poissons Ratio (y) = 0.22168 0.78075
# Poissons Ratio (z) = 0.02260 0.32649
#
# Static dielectric constant tensor:
#      x y z
#    x 2.967490 0.000000 0.000000 
#    y 0.000000 3.584890 0.000000 
#    z 0.000000 0.000000 3.974680 
# 
# 
# High freq. dielectric constant tensor:
#      x y z
#    x 1.676720 0.000000 0.000000 
#    y 0.000000 1.731090 0.000000 
#    z 0.000000 0.000000 1.752070 
# 
# From -- ./inp_files/31259.got.cif
#   From: 2010.03.12/outbox.cif.g09.slc.cpg/sg42_16_cif.got.tgz:31259.got - 2010.04.14 02:04:31.
