data_PCOD8186724
_publ_section_title
;
Structure prediction by ZEFSAII (Michael W. Deem and Ramdas Pophale) SiO2 
 PCOD8186724
Probable space group: F M M 2
;
_chemical_formula_sum "Si O2"
_cell_formula_units_Z 80
_cell_length_a 23.081859
_cell_length_b 18.555226
_cell_length_c 8.687327
_cell_angle_alpha 90.000000
_cell_angle_beta 90.000000
_cell_angle_gamma 90.000000
_cell_volume 3720.687551
_symmetry_space_group_name_H-M "F M M 2"
_symmetry_group_IT_number 42
_symmetry_cell_setting 'orthorhombic'
loop_
_space_group_symop_operation_xyz
x,y,z
-x,-y,z
-x,y,z
x,-y,z
x,1/2+y,1/2+z
-x,1/2-y,1/2+z
-x,1/2+y,1/2+z
x,1/2-y,1/2+z
1/2+x,y,1/2+z
1/2-x,-y,1/2+z
1/2-x,y,1/2+z
1/2+x,-y,1/2+z
1/2+x,1/2+y,z
1/2-x,1/2-y,z
1/2-x,1/2+y,z
1/2+x,1/2-y,z
loop_
_atom_site_type_symbol
_atom_site_label
_atom_site_fract_x
_atom_site_fract_y
_atom_site_fract_z
Si Si1 0.935084 0.804147 0.514170
Si Si2 0.777147 0.676567 0.962946
Si Si3 0.128374 0.690316 0.712632
Si Si4 0.668405 0.580846 0.977206
Si Si5 0.367179 0.418769 0.643890
O O1 0.885129 0.753324 0.589539
O O2 0.925060 0.809493 0.331130
O O3 0.927411 0.884412 0.583569
O O4 0.000000 0.775692 0.544856
O O5 0.750000 0.750000 0.035841
O O6 0.811640 0.698923 0.807288
O O7 0.725180 0.623111 0.923228
O O8 0.816406 0.633367 0.083487
O O9 0.133234 0.616229 0.617823
O O10 0.685179 0.500000 0.027943
O O11 0.627786 0.580441 0.827687
O O12 0.359136 0.500000 0.579610
#
# Coordination Sequence:
#
# PCOD8186724 Si02
#       5
#    16  16  16  16  16
#     4  11  23  42  67  90 119 161 210 267 323 370
#     4  11  22  37  61  92 125 164 204 246 304 378
#     4  11  24  39  62  95 124 158 210 265 308 369
#     4  11  23  39  60  89 128 168 203 248 308 373
#     4  10  22  39  60  89 122 159 205 253 307 374
#
# _framework density 21.501401999999999
#
# number of rings (size 3 to 8) (size 9 to 14) (size 15 to 20)
#    0.000    1.200    0.000    7.200    0.000    9.200 
#    0.000    1.000    0.000    4.200    0.000    0.000 
#    0.000    0.000    0.000    0.000    0.000    0.000 
#
# Total GULP energy -247902.839284 kJ/mol
# GULP energy per Si atom -12395.141964 kJ/mol
# Density = 2.145246 g / cm^3
# Si number density = 21.501402 Si / 1000 Ang^3
#
#
#
# Elastic Constant Matrix: (Units=GPa)
#
#
# Indices 1 2 3 4 5 6 
#
# 1 89.5714 51.2183 34.3492 0.0001 0.0000 0.0000
# 2 51.2183 176.0806 58.8003 -0.0002 0.0000 0.0001
# 3 34.3492 58.8003 116.5447 -0.0008 0.0000 0.0001
# 4 0.0001 -0.0002 -0.0008 37.9587 0.0000 0.0001
# 5 0.0000 0.0000 0.0000 0.0000 22.2857 0.0000
# 6 0.0000 0.0001 0.0001 0.0001 0.0000 22.0332
#
#
#
# Elastic Compliance Matrix: (Units=1/GPa)
#
#
# Indices 1 2 3 4 5 6 
#
# 1 0.013966 -0.003232 -0.002485 0.000000 0.000000 0.000000
# 2 -0.003232 0.007578 -0.002871 0.000000 0.000000 0.000000
# 3 -0.002485 -0.002871 0.010761 0.000000 0.000000 0.000000
# 4 0.000000 0.000000 0.000000 0.026344 0.000000 0.000000
# 5 0.000000 0.000000 0.000000 0.000000 0.044872 0.000000
# 6 0.000000 0.000000 0.000000 0.000000 0.000000 0.045386
#
#
# Mechanical properties :
#
#
# Convention : Reuss Voigt Hill
#
# Bulk Modulus (GPa) = 66.10130 74.54803 70.32467
# Shear Modulus (GPa) = 29.21809 32.31078 30.76443
#
# Velocity S-wave (km/s) = 3.69032 3.88071 3.78671
# Velocity P-wave (km/s) = 6.99767 7.40448 7.20395
#
# Compressibility (1/GPa) = 0.01512830
#
# Stress axis : x y z
#
# Youngs Moduli (GPa) = 71.60413 131.95920 92.92620
#
# Poissons Ratio (x) = 0.42655 0.23094
# Poissons Ratio (y) = 0.23145 0.26676
# Poissons Ratio (z) = 0.17795 0.37881
#
# Static dielectric constant tensor:
#      x y z
#    x 3.715140 0.000000 0.000000 
#    y 0.000000 4.126990 0.000000 
#    z 0.000000 0.000000 3.907270 
# 
# 
# High freq. dielectric constant tensor:
#      x y z
#    x 1.820580 0.000000 0.000000 
#    y 0.000000 1.850900 0.000000 
#    z 0.000000 0.000000 1.854750 
# 
# From -- ./inp_files/3486.got.cif
#   From: 2010.03.12/outbox.cif.g09.slc.cpg/sg42_2_cif.got.tgz:3486.got - 2010.04.14 02:04:31.
