data_PCOD8186095
_publ_section_title
;
Structure prediction by ZEFSAII (Michael W. Deem and Ramdas Pophale) SiO2 
 PCOD8186095
Probable space group: F M M 2
;
_chemical_formula_sum "Si O2"
_cell_formula_units_Z 128
_cell_length_a 18.183493
_cell_length_b 19.511111
_cell_length_c 20.308569
_cell_angle_alpha 90.000000
_cell_angle_beta 90.000000
_cell_angle_gamma 90.000000
_cell_volume 7205.077162
_symmetry_space_group_name_H-M "F M M 2"
_symmetry_group_IT_number 42
_symmetry_cell_setting 'orthorhombic'
loop_
_space_group_symop_operation_xyz
x,y,z
-x,-y,z
-x,y,z
x,-y,z
x,1/2+y,1/2+z
-x,1/2-y,1/2+z
-x,1/2+y,1/2+z
x,1/2-y,1/2+z
1/2+x,y,1/2+z
1/2-x,-y,1/2+z
1/2-x,y,1/2+z
1/2+x,-y,1/2+z
1/2+x,1/2+y,z
1/2-x,1/2-y,z
1/2-x,1/2+y,z
1/2+x,1/2-y,z
loop_
_atom_site_type_symbol
_atom_site_label
_atom_site_fract_x
_atom_site_fract_y
_atom_site_fract_z
Si Si1 0.085284 0.284062 0.406780
Si Si2 0.585374 0.924424 0.831086
Si Si3 0.413449 0.714061 0.272723
Si Si4 0.147269 0.922730 0.875972
Si Si5 0.699456 0.423276 0.442451
Si Si6 0.583320 0.923528 0.236941
Si Si7 0.586090 0.702434 0.650551
Si Si8 0.176363 0.290561 0.018741
O O1 0.113847 0.258027 0.335490
O O2 0.098291 0.365907 0.413373
O O3 0.132923 0.244040 0.459557
O O4 0.000000 0.267163 0.418516
O O5 0.500000 0.915313 0.848289
O O6 0.610066 0.865795 0.779458
O O7 0.625980 0.914432 0.899971
O O8 0.601890 0.000000 0.800757
O O9 0.500000 0.722980 0.269206
O O10 0.381602 0.743905 0.204597
O O11 0.232043 0.910190 0.893881
O O12 0.138564 0.912983 0.797675
O O13 0.121701 0.000000 0.896331
O O14 0.703731 0.500000 0.472791
O O15 0.697134 0.369020 0.501590
O O16 0.500000 0.908364 0.262518
O O17 0.603249 0.873476 0.177366
O O18 0.589751 0.000000 0.208318
O O19 0.500000 0.713757 0.637482
O O20 0.627070 0.713250 0.582937
O O21 0.250000 0.250000 0.033886
#
# Coordination Sequence:
#
# PCOD8186095 Si02
#       8
#    16  16  16  16  16  16  16  16
#     4  11  20  34  60  87 107 141 189 235 281 333
#     4   9  17  31  54  83 111 140 179 226 275 332
#     4   9  17  32  55  82 108 136 175 228 282 326
#     4  10  19  33  55  85 118 147 178 227 285 334
#     4  10  21  36  55  80 115 150 184 227 282 335
#     4   9  17  32  56  85 113 140 176 224 280 340
#     4  10  21  37  55  78 111 146 183 229 281 332
#     4  12  24  39  53  78 112 154 191 231 278 332
#
# _framework density 17.765250999999999
#
# number of rings (size 3 to 8) (size 9 to 14) (size 15 to 20)
#    0.000    2.000    3.750    0.750    0.000    1.750 
#    2.250    0.625    0.000    1.500    0.000    1.750 
#    0.000    0.000    0.000    0.000    0.000    0.000 
#
# Total GULP energy -396714.926002 kJ/mol
# GULP energy per Si atom -12397.341438 kJ/mol
# Density = 1.772482 g / cm^3
# Si number density = 17.765251 Si / 1000 Ang^3
#
#
#
# Elastic Constant Matrix: (Units=GPa)
#
#
# Indices 1 2 3 4 5 6 
#
# 1 58.1618 34.1008 36.2280 0.0000 0.0000 0.0000
# 2 34.1008 145.1665 56.8908 0.0000 0.0000 0.0000
# 3 36.2280 56.8908 106.7035 0.0000 0.0000 0.0000
# 4 0.0000 0.0000 0.0000 20.3268 0.0000 0.0000
# 5 0.0000 0.0000 0.0000 0.0000 16.5106 0.0000
# 6 0.0000 0.0000 0.0000 0.0000 0.0000 22.9278
#
#
#
# Elastic Compliance Matrix: (Units=1/GPa)
#
#
# Indices 1 2 3 4 5 6 
#
# 1 0.022749 -0.002929 -0.006162 0.000000 0.000000 0.000000
# 2 -0.002929 0.009085 -0.003850 0.000000 0.000000 0.000000
# 3 -0.006162 -0.003850 0.013516 0.000000 0.000000 0.000000
# 4 0.000000 0.000000 0.000000 0.049196 0.000000 0.000000
# 5 0.000000 0.000000 0.000000 0.000000 0.060567 0.000000
# 6 0.000000 0.000000 0.000000 0.000000 0.000000 0.043615
#
#
# Mechanical properties :
#
#
# Convention : Reuss Voigt Hill
#
# Bulk Modulus (GPa) = 51.36265 62.71901 57.04083
# Shear Modulus (GPa) = 21.63562 24.14050 22.88806
#
# Velocity S-wave (km/s) = 3.49357 3.69027 3.59327
# Velocity P-wave (km/s) = 6.72667 7.31700 7.02803
#
# Compressibility (1/GPa) = 0.01946940
#
# Stress axis : x y z
#
# Youngs Moduli (GPa) = 43.95803 110.06756 73.98434
#
# Poissons Ratio (x) = 0.32239 0.45590
# Poissons Ratio (y) = 0.12875 0.28481
# Poissons Ratio (z) = 0.27087 0.42371
#
# Static dielectric constant tensor:
#      x y z
#    x 3.217020 0.000000 0.000000 
#    y 0.000000 3.761630 0.000000 
#    z 0.000000 0.000000 3.032480 
# 
# 
# High freq. dielectric constant tensor:
#      x y z
#    x 1.677160 0.000000 0.000000 
#    y 0.000000 1.710630 0.000000 
#    z 0.000000 0.000000 1.653860 
# 
# From -- ./inp_files/21932.got.cif
#   From: 2010.03.12/outbox.cif.g09.slc.cpg/sg42_11_cif.got.tgz:21932.got - 2010.04.14 02:04:31.
