data_PCOD8186234
_publ_section_title
;
Structure prediction by ZEFSAII (Michael W. Deem and Ramdas Pophale) SiO2 
 PCOD8186234
Probable space group: F M M 2
;
_chemical_formula_sum "Si O2"
_cell_formula_units_Z 96
_cell_length_a 23.284198
_cell_length_b 17.708312
_cell_length_c 13.343363
_cell_angle_alpha 90.000000
_cell_angle_beta 90.000000
_cell_angle_gamma 90.000000
_cell_volume 5501.786709
_symmetry_space_group_name_H-M "F M M 2"
_symmetry_group_IT_number 42
_symmetry_cell_setting 'orthorhombic'
loop_
_space_group_symop_operation_xyz
x,y,z
-x,-y,z
-x,y,z
x,-y,z
x,1/2+y,1/2+z
-x,1/2-y,1/2+z
-x,1/2+y,1/2+z
x,1/2-y,1/2+z
1/2+x,y,1/2+z
1/2-x,-y,1/2+z
1/2-x,y,1/2+z
1/2+x,-y,1/2+z
1/2+x,1/2+y,z
1/2-x,1/2-y,z
1/2-x,1/2+y,z
1/2+x,1/2-y,z
loop_
_atom_site_type_symbol
_atom_site_label
_atom_site_fract_x
_atom_site_fract_y
_atom_site_fract_z
Si Si1 0.433131 0.586849 0.728580
Si Si2 0.836225 0.173840 0.395310
Si Si3 0.738327 0.586181 0.009023
Si Si4 0.761831 0.334016 0.710968
Si Si5 0.839765 0.654420 0.361248
Si Si6 0.566342 0.088250 0.001200
O O1 0.500000 0.599190 0.747832
O O2 0.415736 0.500000 0.742432
O O3 0.400970 0.635774 0.812461
O O4 0.417379 0.612266 0.615093
O O5 0.787100 0.141463 0.467153
O O6 0.819105 0.161087 0.279419
O O7 0.841150 0.263275 0.411669
O O8 0.896549 0.134891 0.421248
O O9 0.758944 0.500000 0.999142
O O10 0.678062 0.597749 0.950750
O O11 0.728444 0.605634 0.124517
O O12 0.750000 0.250000 0.668415
O O13 0.706966 0.357340 0.775120
O O14 0.500000 0.106636 0.979814
O O15 0.578654 0.000000 0.986322
#
# Coordination Sequence:
#
# PCOD8186234 Si02
#       6
#    16  16  16  16  16  16
#     4   9  18  33  53  76 100 127 163 206 247 287
#     4  10  20  33  51  73 100 132 163 202 245 291
#     4  11  21  32  50  74 100 130 164 203 247 294
#     4   9  19  34  49  70 100 131 162 201 245 291
#     4  10  20  33  51  73  99 131 164 201 246 293
#     4   9  18  33  54  78 101 127 162 205 248 288
#
# _framework density 17.448877
#
# number of rings (size 3 to 8) (size 9 to 14) (size 15 to 20)
#    0.000    2.333    0.000    5.500    0.000    7.333 
#    0.000    0.000    0.000    1.000    0.000    2.333 
#    0.000    0.000    0.000    0.000    0.000    0.000 
#
# Total GULP energy -297577.153819 kJ/mol
# GULP energy per Si atom -12399.048076 kJ/mol
# Density = 1.740916 g / cm^3
# Si number density = 17.448877 Si / 1000 Ang^3
#
#
#
# Elastic Constant Matrix: (Units=GPa)
#
#
# Indices 1 2 3 4 5 6 
#
# 1 86.7410 44.8086 45.4542 0.0000 0.0000 0.0000
# 2 44.8086 99.0748 56.6564 0.0000 0.0000 0.0000
# 3 45.4542 56.6564 85.7020 0.0000 0.0000 0.0000
# 4 0.0000 0.0000 0.0000 25.1241 0.0000 0.0000
# 5 0.0000 0.0000 0.0000 0.0000 30.7043 0.0000
# 6 0.0000 0.0000 0.0000 0.0000 0.0000 28.4273
#
#
#
# Elastic Compliance Matrix: (Units=1/GPa)
#
#
# Indices 1 2 3 4 5 6 
#
# 1 0.016921 -0.004053 -0.006295 0.000000 0.000000 0.000000
# 2 -0.004053 0.017199 -0.009221 0.000000 0.000000 0.000000
# 3 -0.006295 -0.009221 0.021103 0.000000 0.000000 0.000000
# 4 0.000000 0.000000 0.000000 0.039802 0.000000 0.000000
# 5 0.000000 0.000000 0.000000 0.000000 0.032569 0.000000
# 6 0.000000 0.000000 0.000000 0.000000 0.000000 0.035177
#
#
# Mechanical properties :
#
#
# Convention : Reuss Voigt Hill
#
# Bulk Modulus (GPa) = 62.16732 62.81736 62.49234
# Shear Modulus (GPa) = 24.12303 25.15773 24.64038
#
# Velocity S-wave (km/s) = 3.72223 3.80122 3.76193
# Velocity P-wave (km/s) = 7.36063 7.43940 7.40012
#
# Compressibility (1/GPa) = 0.01608562
#
# Stress axis : x y z
#
# Youngs Moduli (GPa) = 59.09802 58.14204 47.38729
#
# Poissons Ratio (x) = 0.23565 0.29831
# Poissons Ratio (y) = 0.23952 0.43694
# Poissons Ratio (z) = 0.37203 0.53610
#
# Static dielectric constant tensor:
#      x y z
#    x 3.159250 0.000000 0.000000 
#    y 0.000000 3.176810 0.000000 
#    z 0.000000 0.000000 3.223270 
# 
# 
# High freq. dielectric constant tensor:
#      x y z
#    x 1.661860 0.000000 0.000000 
#    y 0.000000 1.671940 0.000000 
#    z 0.000000 0.000000 1.669590 
# 
# From -- ./inp_files/8797.got.cif
#   From: 2010.03.12/outbox.cif.g09.slc.cpg/sg42_5_cif.got.tgz:8797.got - 2010.04.14 02:04:31.
