data_PCOD8186554
_publ_section_title
;
Structure prediction by ZEFSAII (Michael W. Deem and Ramdas Pophale) SiO2 
 PCOD8186554
Probable space group: F M M 2
;
_chemical_formula_sum "Si O2"
_cell_formula_units_Z 92
_cell_length_a 7.636816
_cell_length_b 24.605522
_cell_length_c 26.892154
_cell_angle_alpha 90.000000
_cell_angle_beta 90.000000
_cell_angle_gamma 90.000000
_cell_volume 5053.246681
_symmetry_space_group_name_H-M "F M M 2"
_symmetry_group_IT_number 42
_symmetry_cell_setting 'orthorhombic'
loop_
_space_group_symop_operation_xyz
x,y,z
-x,-y,z
-x,y,z
x,-y,z
x,1/2+y,1/2+z
-x,1/2-y,1/2+z
-x,1/2+y,1/2+z
x,1/2-y,1/2+z
1/2+x,y,1/2+z
1/2-x,-y,1/2+z
1/2-x,y,1/2+z
1/2+x,-y,1/2+z
1/2+x,1/2+y,z
1/2-x,1/2-y,z
1/2-x,1/2+y,z
1/2+x,1/2-y,z
loop_
_atom_site_type_symbol
_atom_site_label
_atom_site_fract_x
_atom_site_fract_y
_atom_site_fract_z
Si Si1 0.000000 0.564155 0.762118
Si Si2 0.202254 0.690451 0.000171
Si Si3 0.794688 0.310998 0.115065
Si Si4 0.698126 0.436067 0.836308
Si Si5 0.804843 0.910193 0.944094
Si Si6 0.500000 0.500000 0.092624
Si Si7 0.000000 0.111144 0.154404
Si Si8 0.311277 0.000000 0.015494
O O1 0.173261 0.581833 0.792261
O O2 0.000000 0.598567 0.712344
O O3 0.000000 0.500000 0.750603
O O4 0.250000 0.750000 0.981219
O O5 0.257783 0.683503 0.057413
O O6 0.000000 0.677764 0.992773
O O7 0.311263 0.650282 0.965625
O O8 0.750000 0.250000 0.133527
O O9 0.675743 0.354670 0.143549
O O10 0.000000 0.323553 0.124338
O O11 0.500000 0.417281 0.822986
O O12 0.707416 0.500000 0.844416
O O13 0.767410 0.409375 0.887740
O O14 0.000000 0.934816 0.942382
O O15 0.692930 0.947175 0.980790
O O16 0.500000 0.554398 0.125036
O O17 0.669793 0.500000 0.058435
O O18 0.500000 0.000000 0.042437
#
# Coordination Sequence:
#
# PCOD8186554 Si02
#       8
#     8  16  16  16  16   4   8   8
#     4  10  22  40  60  85 114 155 197 238 302 362
#     4  10  21  34  53  84 119 158 196 233 285 348
#     4  10  21  39  63  92 118 156 210 255 293 354
#     4   9  19  35  57  84 115 147 198 249 284 343
#     4  11  20  34  56  86 118 158 195 238 292 342
#     4  12  26  42  52  88 142 170 188 244 304 374
#     4  12  24  40  66  87 123 163 200 249 317 358
#     4  12  24  36  55  85 125 165 200 232 286 351
#
# _framework density 18.206116999999999
#
# number of rings (size 3 to 8) (size 9 to 14) (size 15 to 20)
#    0.000    1.565    3.043    2.087    4.870    2.783 
#    0.000    0.000    0.000    1.043    0.000    0.000 
#    0.000    0.000    0.000    0.000    0.000    0.000 
#
# Total GULP energy -285222.332225 kJ/mol
# GULP energy per Si atom -12400.970966 kJ/mol
# Density = 1.816468 g / cm^3
# Si number density = 18.206117 Si / 1000 Ang^3
#
#
#
# Elastic Constant Matrix: (Units=GPa)
#
#
# Indices 1 2 3 4 5 6 
#
# 1 117.3358 42.7231 60.4006 0.0000 0.0000 0.0000
# 2 42.7231 113.3174 65.5993 0.0000 0.0000 0.0000
# 3 60.4006 65.5993 125.8487 0.0000 0.0000 0.0000
# 4 0.0000 0.0000 0.0000 14.9710 0.0000 0.0000
# 5 0.0000 0.0000 0.0000 0.0000 78.6402 0.0000
# 6 0.0000 0.0000 0.0000 0.0000 0.0000 25.0539
#
#
#
# Elastic Compliance Matrix: (Units=1/GPa)
#
#
# Indices 1 2 3 4 5 6 
#
# 1 0.011527 -0.001637 -0.004679 0.000000 0.000000 0.000000
# 2 -0.001637 0.012871 -0.005923 0.000000 0.000000 0.000000
# 3 -0.004679 -0.005923 0.013279 0.000000 0.000000 0.000000
# 4 0.000000 0.000000 0.000000 0.066796 0.000000 0.000000
# 5 0.000000 0.000000 0.000000 0.000000 0.012716 0.000000
# 6 0.000000 0.000000 0.000000 0.000000 0.000000 0.039914
#
#
# Mechanical properties :
#
#
# Convention : Reuss Voigt Hill
#
# Bulk Modulus (GPa) = 75.76698 77.10531 76.43615
# Shear Modulus (GPa) = 26.88426 36.25161 31.56794
#
# Velocity S-wave (km/s) = 3.84690 4.46710 4.16855
# Velocity P-wave (km/s) = 7.83825 8.30963 8.07738
#
# Compressibility (1/GPa) = 0.01319836
#
# Stress axis : x y z
#
# Youngs Moduli (GPa) = 86.75030 77.69371 75.30546
#
# Poissons Ratio (x) = 0.12721 0.35236
# Poissons Ratio (y) = 0.14204 0.44605
# Poissons Ratio (z) = 0.40591 0.46020
#
# Static dielectric constant tensor:
#      x y z
#    x 3.514660 0.000000 0.000000 
#    y 0.000000 3.286980 0.000000 
#    z 0.000000 0.000000 3.196860 
# 
# 
# High freq. dielectric constant tensor:
#      x y z
#    x 1.722990 0.000000 0.000000 
#    y 0.000000 1.696090 0.000000 
#    z 0.000000 0.000000 1.683400 
# 
# From -- ./inp_files/28138.got.cif
#   From: 2010.03.12/outbox.cif.g09.slc.cpg/sg42_15_cif.got.tgz:28138.got - 2010.04.14 02:04:31.
