data_PCOD8186078
_publ_section_title
;
Structure prediction by ZEFSAII (Michael W. Deem and Ramdas Pophale) SiO2 
 PCOD8186078
Probable space group: F M M 2
;
_chemical_formula_sum "Si O2"
_cell_formula_units_Z 88
_cell_length_a 19.968832
_cell_length_b 13.200369
_cell_length_c 18.942077
_cell_angle_alpha 90.000000
_cell_angle_beta 90.000000
_cell_angle_gamma 90.000000
_cell_volume 4993.054799
_symmetry_space_group_name_H-M "F M M 2"
_symmetry_group_IT_number 42
_symmetry_cell_setting 'orthorhombic'
loop_
_space_group_symop_operation_xyz
x,y,z
-x,-y,z
-x,y,z
x,-y,z
x,1/2+y,1/2+z
-x,1/2-y,1/2+z
-x,1/2+y,1/2+z
x,1/2-y,1/2+z
1/2+x,y,1/2+z
1/2-x,-y,1/2+z
1/2-x,y,1/2+z
1/2+x,-y,1/2+z
1/2+x,1/2+y,z
1/2-x,1/2-y,z
1/2-x,1/2+y,z
1/2+x,1/2-y,z
loop_
_atom_site_type_symbol
_atom_site_label
_atom_site_fract_x
_atom_site_fract_y
_atom_site_fract_z
Si Si1 0.000000 0.620007 0.869761
Si Si2 0.679961 0.709400 0.180467
Si Si3 0.644902 0.118405 0.821901
Si Si4 0.870326 0.884873 0.605944
Si Si5 0.273582 0.885870 0.538212
Si Si6 0.750000 0.250000 0.412934
Si Si7 0.000000 0.119605 0.524190
O O1 0.068760 0.656209 0.833425
O O2 0.000000 0.500000 0.872057
O O3 0.000000 0.669009 0.947278
O O4 0.750000 0.750000 0.208941
O O5 0.653910 0.630077 0.237836
O O6 0.634274 0.810335 0.173265
O O7 0.684109 0.657831 0.103515
O O8 0.696519 0.188777 0.865294
O O9 0.655617 0.000000 0.842990
O O10 0.805181 0.876332 0.556143
O O11 0.933554 0.844260 0.563090
O O12 0.879441 0.000000 0.633265
O O13 0.288795 0.827594 0.465171
O O14 0.296251 0.000000 0.526096
O O15 0.000000 0.000000 0.517065
#
# Coordination Sequence:
#
# PCOD8186078 Si02
#       7
#     8  16  16  16  16   8   8
#     4   9  20  35  54  78 112 148 178 222 280 324
#     4  10  19  36  52  79 109 142 186 220 276 327
#     4  11  23  38  56  82 114 148 185 228 274 329
#     4   9  17  30  52  78 108 137 175 224 268 317
#     4  10  19  33  53  78 109 138 171 227 273 315
#     4  12  20  34  56  86 110 140 188 224 274 330
#     4   9  16  29  50  80 108 138 174 218 272 322
#
# _framework density 17.624480999999999
#
# number of rings (size 3 to 8) (size 9 to 14) (size 15 to 20)
#    0.000    2.000    3.636    2.182    0.000    4.364 
#    0.000    0.000    0.000    0.000    0.000    5.091 
#    0.000    0.000    0.000    0.000    0.000    0.000 
#
# Total GULP energy -272629.119164 kJ/mol
# GULP energy per Si atom -12392.232689 kJ/mol
# Density = 1.758437 g / cm^3
# Si number density = 17.624481 Si / 1000 Ang^3
#
#
#
# Elastic Constant Matrix: (Units=GPa)
#
#
# Indices 1 2 3 4 5 6 
#
# 1 96.4283 35.8577 54.2133 0.0000 0.0000 0.0000
# 2 35.8577 102.9100 47.2899 0.0000 0.0000 0.0000
# 3 54.2133 47.2899 108.5066 0.0000 0.0000 0.0000
# 4 0.0000 0.0000 0.0000 31.6627 0.0000 0.0000
# 5 0.0000 0.0000 0.0000 0.0000 46.5953 0.0000
# 6 0.0000 0.0000 0.0000 0.0000 0.0000 18.4640
#
#
#
# Elastic Compliance Matrix: (Units=1/GPa)
#
#
# Indices 1 2 3 4 5 6 
#
# 1 0.014810 -0.002201 -0.006440 0.000000 0.000000 0.000000
# 2 -0.002201 0.012478 -0.004339 0.000000 0.000000 0.000000
# 3 -0.006440 -0.004339 0.014325 0.000000 0.000000 0.000000
# 4 0.000000 0.000000 0.000000 0.031583 0.000000 0.000000
# 5 0.000000 0.000000 0.000000 0.000000 0.021461 0.000000
# 6 0.000000 0.000000 0.000000 0.000000 0.000000 0.054160
#
#
# Mechanical properties :
#
#
# Convention : Reuss Voigt Hill
#
# Bulk Modulus (GPa) = 63.88585 64.72961 64.30773
# Shear Modulus (GPa) = 27.77899 30.71000 29.24450
#
# Velocity S-wave (km/s) = 3.97439 4.17881 4.07788
# Velocity P-wave (km/s) = 7.57550 7.75178 7.66415
#
# Compressibility (1/GPa) = 0.01565292
#
# Stress axis : x y z
#
# Youngs Moduli (GPa) = 67.52419 80.14284 69.81019
#
# Poissons Ratio (x) = 0.17638 0.44959
# Poissons Ratio (y) = 0.14861 0.30287
# Poissons Ratio (z) = 0.43487 0.34770
#
# Static dielectric constant tensor:
#      x y z
#    x 3.159180 0.000000 0.000000 
#    y 0.000000 3.418690 0.000000 
#    z 0.000000 0.000000 3.210300 
# 
# 
# High freq. dielectric constant tensor:
#      x y z
#    x 1.665430 0.000000 0.000000 
#    y 0.000000 1.677180 0.000000 
#    z 0.000000 0.000000 1.675500 
# 
# From -- ./inp_files/21649.got.cif
#   From: 2010.03.12/outbox.cif.g09.slc.cpg/sg42_11_cif.got.tgz:21649.got - 2010.04.14 02:04:31.
