data_PCOD8186227
_publ_section_title
;
Structure prediction by ZEFSAII (Michael W. Deem and Ramdas Pophale) SiO2 
 PCOD8186227
Probable space group: F M M 2
;
_chemical_formula_sum "Si O2"
_cell_formula_units_Z 96
_cell_length_a 18.654235
_cell_length_b 9.555108
_cell_length_c 30.620689
_cell_angle_alpha 90.000000
_cell_angle_beta 90.000000
_cell_angle_gamma 90.000000
_cell_volume 5457.930515
_symmetry_space_group_name_H-M "F M M 2"
_symmetry_group_IT_number 42
_symmetry_cell_setting 'orthorhombic'
loop_
_space_group_symop_operation_xyz
x,y,z
-x,-y,z
-x,y,z
x,-y,z
x,1/2+y,1/2+z
-x,1/2-y,1/2+z
-x,1/2+y,1/2+z
x,1/2-y,1/2+z
1/2+x,y,1/2+z
1/2-x,-y,1/2+z
1/2-x,y,1/2+z
1/2+x,-y,1/2+z
1/2+x,1/2+y,z
1/2-x,1/2-y,z
1/2-x,1/2+y,z
1/2+x,1/2-y,z
loop_
_atom_site_type_symbol
_atom_site_label
_atom_site_fract_x
_atom_site_fract_y
_atom_site_fract_z
Si Si1 0.823316 0.665033 0.841470
Si Si2 0.917555 0.337994 0.925205
Si Si3 0.679989 0.837184 0.684077
Si Si4 0.681407 0.661578 0.085274
Si Si5 0.417413 0.661083 0.006679
Si Si6 0.920024 0.165365 0.261460
O O1 0.806527 0.500000 0.837995
O O2 0.750000 0.750000 0.842787
O O3 0.868954 0.701354 0.884218
O O4 0.869948 0.719905 0.800595
O O5 0.910969 0.500000 0.937254
O O6 0.887612 0.251538 0.966419
O O7 0.000000 0.298180 0.914342
O O8 0.750000 0.750000 0.696976
O O9 0.655544 0.804831 0.634514
O O10 0.615055 0.790628 0.715352
O O11 0.698864 0.000000 0.690716
O O12 0.702404 0.500000 0.080720
O O13 0.750000 0.750000 0.072211
O O14 0.619416 0.704968 0.051909
O O15 0.500000 0.694238 0.014170
O O16 0.403028 0.500000 0.995094
O O17 0.000000 0.231443 0.264424
O O18 0.926693 0.000000 0.265330
#
# Coordination Sequence:
#
# PCOD8186227 Si02
#       6
#    16  16  16  16  16  16
#     4  10  20  33  50  72  97 124 154 191 233 276
#     4   9  18  33  51  69  91 122 159 195 231 274
#     4   9  17  30  49  71  95 124 156 191 231 275
#     4   9  18  31  47  69  96 125 156 191 232 276
#     4   9  18  32  49  69  94 123 155 194 237 276
#     4   9  17  30  50  74  96 121 156 194 230 272
#
# _framework density 17.589082999999999
#
# number of rings (size 3 to 8) (size 9 to 14) (size 15 to 20)
#    0.000    2.833    0.000    1.000    0.000    4.667 
#    0.000    6.667    0.000    3.000    0.000    4.667 
#    0.000    0.000    0.000    0.000    0.000    0.000 
#
# Total GULP energy -297589.796050 kJ/mol
# GULP energy per Si atom -12399.574835 kJ/mol
# Density = 1.754905 g / cm^3
# Si number density = 17.589083 Si / 1000 Ang^3
#
#
#
# Elastic Constant Matrix: (Units=GPa)
#
#
# Indices 1 2 3 4 5 6 
#
# 1 123.3614 47.2162 87.3860 0.0000 0.0000 0.0000
# 2 47.2162 41.6238 50.7489 0.0000 0.0000 0.0000
# 3 87.3860 50.7489 145.4302 0.0000 0.0000 0.0000
# 4 0.0000 0.0000 0.0000 22.2801 0.0000 0.0000
# 5 0.0000 0.0000 0.0000 0.0000 32.0330 0.0000
# 6 0.0000 0.0000 0.0000 0.0000 0.0000 27.4951
#
#
#
# Elastic Compliance Matrix: (Units=1/GPa)
#
#
# Indices 1 2 3 4 5 6 
#
# 1 0.016903 -0.011820 -0.006032 0.000000 0.000000 0.000000
# 2 -0.011820 0.050080 -0.010374 0.000000 0.000000 0.000000
# 3 -0.006032 -0.010374 0.014121 0.000000 0.000000 0.000000
# 4 0.000000 0.000000 0.000000 0.044883 0.000000 0.000000
# 5 0.000000 0.000000 0.000000 0.000000 0.031218 0.000000
# 6 0.000000 0.000000 0.000000 0.000000 0.000000 0.036370
#
#
# Mechanical properties :
#
#
# Convention : Reuss Voigt Hill
#
# Bulk Modulus (GPa) = 40.56279 75.67973 58.12126
# Shear Modulus (GPa) = 19.36151 24.69926 22.03039
#
# Velocity S-wave (km/s) = 3.32138 3.75138 3.54291
# Velocity P-wave (km/s) = 6.14981 7.86662 7.06059
#
# Compressibility (1/GPa) = 0.02465313
#
# Stress axis : x y z
#
# Youngs Moduli (GPa) = 59.15999 19.96796 70.81743
#
# Poissons Ratio (x) = 0.23601 0.42719
# Poissons Ratio (y) = 0.69925 0.73464
# Poissons Ratio (z) = 0.35687 0.20714
#
# Static dielectric constant tensor:
#      x y z
#    x 3.303850 0.000000 0.000000 
#    y 0.000000 3.105330 0.000000 
#    z 0.000000 0.000000 3.491520 
# 
# 
# High freq. dielectric constant tensor:
#      x y z
#    x 1.676240 0.000000 0.000000 
#    y 0.000000 1.657020 0.000000 
#    z 0.000000 0.000000 1.694370 
# 
# From -- ./inp_files/28830.got.cif
#   From: 2010.03.12/outbox.cif.g09.slc.cpg/sg42_15_cif.got.tgz:28830.got - 2010.04.14 02:04:31.
