data_PCOD8186298
_publ_section_title
;
Structure prediction by ZEFSAII (Michael W. Deem and Ramdas Pophale) SiO2 
 PCOD8186298
Probable space group: F M M 2
;
_chemical_formula_sum "Si O2"
_cell_formula_units_Z 80
_cell_length_a 26.173838
_cell_length_b 8.942806
_cell_length_c 18.483710
_cell_angle_alpha 90.000000
_cell_angle_beta 90.000000
_cell_angle_gamma 90.000000
_cell_volume 4326.436816
_symmetry_space_group_name_H-M "F M M 2"
_symmetry_group_IT_number 42
_symmetry_cell_setting 'orthorhombic'
loop_
_space_group_symop_operation_xyz
x,y,z
-x,-y,z
-x,y,z
x,-y,z
x,1/2+y,1/2+z
-x,1/2-y,1/2+z
-x,1/2+y,1/2+z
x,1/2-y,1/2+z
1/2+x,y,1/2+z
1/2-x,-y,1/2+z
1/2-x,y,1/2+z
1/2+x,-y,1/2+z
1/2+x,1/2+y,z
1/2-x,1/2-y,z
1/2-x,1/2+y,z
1/2+x,1/2-y,z
loop_
_atom_site_type_symbol
_atom_site_label
_atom_site_fract_x
_atom_site_fract_y
_atom_site_fract_z
Si Si1 0.702766 0.672413 0.755370
Si Si2 0.500000 0.176467 0.009313
Si Si3 0.911407 0.326231 0.597749
Si Si4 0.590784 0.327333 0.751015
Si Si5 0.500000 0.174647 0.356112
Si Si6 0.797846 0.173887 0.100437
O O1 0.716357 0.500000 0.748343
O O2 0.750000 0.750000 0.799557
O O3 0.646407 0.697124 0.789197
O O4 0.700321 0.746398 0.677234
O O5 0.449265 0.236095 0.047197
O O6 0.500000 0.000000 0.014524
O O7 0.500000 0.225973 0.926808
O O8 0.926118 0.500000 0.595757
O O9 0.916624 0.272820 0.680257
O O10 0.853938 0.301103 0.565618
O O11 0.584106 0.500000 0.727232
O O12 0.549596 0.280814 0.810205
O O13 0.500000 0.000000 0.377021
O O14 0.750000 0.250000 0.056316
O O15 0.786176 0.000000 0.109650
#
# Coordination Sequence:
#
# PCOD8186298 Si02
#       6
#    16   8  16  16   8  16
#     4   9  15  24  41  69 102 132 162 197 241 291
#     4  12  25  38  53  73  99 133 173 216 261 306
#     4  10  20  34  54  79 106 136 170 209 252 300
#     4   9  18  32  53  79 104 132 167 208 252 299
#     4  10  21  38  55  71  97 131 167 210 261 308
#     4   9  16  26  44  72 103 133 163 199 245 293
#
# _framework density 18.490966
#
# number of rings (size 3 to 8) (size 9 to 14) (size 15 to 20)
#    0.000    2.400    0.000    4.500    0.000    4.800 
#    0.000    0.000    0.000    1.200    0.000    2.800 
#    0.000    0.000    0.000    0.000    0.000    0.000 
#
# Total GULP energy -247805.381420 kJ/mol
# GULP energy per Si atom -12390.269071 kJ/mol
# Density = 1.844888 g / cm^3
# Si number density = 18.490966 Si / 1000 Ang^3
#
#
#
# Elastic Constant Matrix: (Units=GPa)
#
#
# Indices 1 2 3 4 5 6 
#
# 1 193.9051 86.3867 58.3513 0.0000 0.0000 0.0000
# 2 86.3867 139.0056 45.1145 0.0000 0.0000 0.0000
# 3 58.3513 45.1145 61.9340 0.0000 0.0000 0.0000
# 4 0.0000 0.0000 0.0000 22.0415 0.0000 0.0000
# 5 0.0000 0.0000 0.0000 0.0000 -3.1923 0.0000
# 6 0.0000 0.0000 0.0000 0.0000 0.0000 41.3991
#
#
#
# Elastic Compliance Matrix: (Units=1/GPa)
#
#
# Indices 1 2 3 4 5 6 
#
# 1 0.008279 -0.003423 -0.005307 0.000000 0.000000 0.000000
# 2 -0.003423 0.010836 -0.004669 0.000000 0.000000 0.000000
# 3 -0.005307 -0.004669 0.024547 0.000000 0.000000 0.000000
# 4 0.000000 0.000000 0.000000 0.045369 0.000000 0.000000
# 5 0.000000 0.000000 0.000000 0.000000 -0.313258 0.000000
# 6 0.000000 0.000000 0.000000 0.000000 0.000000 0.024155
#
#
# Mechanical properties :
#
#
# Convention : Reuss Voigt Hill
#
# Bulk Modulus (GPa) = 59.29239 86.06107 72.67673
# Shear Modulus (GPa) = -29.82344 25.71584 -2.05380
#
# Velocity S-wave (km/s) = -4.02041 3.73329 -1.05504
# Velocity P-wave (km/s) = 3.25325 8.07629 6.15671
#
# Compressibility (1/GPa) = 0.01686557
#
# Stress axis : x y z
#
# Youngs Moduli (GPa) = 120.78750 92.28249 40.73829
#
# Poissons Ratio (x) = 0.31586 0.21619
# Poissons Ratio (y) = 0.41342 0.19020
# Poissons Ratio (z) = 0.64100 0.43084
#
# Static dielectric constant tensor:
#      x y z
#    x 4.973940 0.000000 0.000000 
#    y 0.000000 3.531070 0.000000 
#    z 0.000000 0.000000 2.806210 
# 
# 
# High freq. dielectric constant tensor:
#      x y z
#    x 1.755620 0.000000 0.000000 
#    y 0.000000 1.729990 0.000000 
#    z 0.000000 0.000000 1.645970 
# 
# From -- ./inp_files/18237.got.cif
#   From: 2010.03.12/outbox.cif.g09.slc.cpg/sg42_10_cif.got.tgz:18237.got - 2010.04.14 02:04:31.
