data_PCOD8186540
_publ_section_title
;
Structure prediction by ZEFSAII (Michael W. Deem and Ramdas Pophale) SiO2 
 PCOD8186540
Probable space group: F M M 2
;
_chemical_formula_sum "Si O2"
_cell_formula_units_Z 112
_cell_length_a 13.508216
_cell_length_b 24.189575
_cell_length_c 14.242241
_cell_angle_alpha 90.000000
_cell_angle_beta 90.000000
_cell_angle_gamma 90.000000
_cell_volume 4653.766242
_symmetry_space_group_name_H-M "F M M 2"
_symmetry_group_IT_number 42
_symmetry_cell_setting 'orthorhombic'
loop_
_space_group_symop_operation_xyz
x,y,z
-x,-y,z
-x,y,z
x,-y,z
x,1/2+y,1/2+z
-x,1/2-y,1/2+z
-x,1/2+y,1/2+z
x,1/2-y,1/2+z
1/2+x,y,1/2+z
1/2-x,-y,1/2+z
1/2-x,y,1/2+z
1/2+x,-y,1/2+z
1/2+x,1/2+y,z
1/2-x,1/2-y,z
1/2-x,1/2+y,z
1/2+x,1/2-y,z
loop_
_atom_site_type_symbol
_atom_site_label
_atom_site_fract_x
_atom_site_fract_y
_atom_site_fract_z
Si Si1 0.115323 0.615314 0.561990
Si Si2 0.274038 0.063437 0.735945
Si Si3 0.616266 0.265864 0.129084
Si Si4 0.383509 0.749835 0.832269
Si Si5 0.882950 0.939394 0.425224
Si Si6 0.118519 0.825623 0.495988
Si Si7 0.615647 0.624606 0.850930
O O1 0.183238 0.583723 0.636530
O O2 0.139984 0.680557 0.567085
O O3 0.137538 0.597348 0.453917
O O4 0.000000 0.604167 0.586303
O O5 0.355240 0.072412 0.817345
O O6 0.173482 0.093816 0.767606
O O7 0.245879 0.000000 0.722741
O O8 0.500000 0.256985 0.134774
O O9 0.660118 0.270967 0.233151
O O10 0.660983 0.209017 0.084566
O O11 0.500000 0.752923 0.835702
O O12 0.339480 0.793010 0.906078
O O13 0.349238 0.687890 0.854009
O O14 0.841278 0.889267 0.491516
O O15 0.000000 0.939170 0.430348
O O16 0.842330 0.000000 0.458170
O O17 0.000000 0.826063 0.496484
O O18 0.500000 0.619783 0.826044
#
# Coordination Sequence:
#
# PCOD8186540 Si02
#       7
#    16  16  16  16  16  16  16
#     4  10  20  40  71 102 130 171 226 281 337 404
#     4  11  24  41  64  95 132 171 221 288 346 396
#     4   9  16  29  58  94 126 165 214 267 330 397
#     4   9  16  30  56  88 122 163 210 267 331 392
#     4   9  18  34  57  88 130 176 218 267 331 398
#     4   9  15  28  53  87 125 170 216 261 324 397
#     4  10  22  43  69  93 130 179 228 280 343 412
#
# _framework density 24.066528000000002
#
# number of rings (size 3 to 8) (size 9 to 14) (size 15 to 20)
#    0.000    2.429    1.429    1.286    0.000    4.000 
#    2.571    4.286    0.000    0.857    0.000    2.000 
#    0.000    0.000    0.000    0.000    0.000    0.000 
#
# Total GULP energy -347007.997253 kJ/mol
# GULP energy per Si atom -12393.142759 kJ/mol
# Density = 2.401175 g / cm^3
# Si number density = 24.066528 Si / 1000 Ang^3
#
#
#
# Elastic Constant Matrix: (Units=GPa)
#
#
# Indices 1 2 3 4 5 6 
#
# 1 63.3670 12.2699 -3.9533 0.0000 0.0000 0.0000
# 2 12.2699 134.6052 18.8173 0.0000 0.0000 0.0000
# 3 -3.9533 18.8173 68.8427 0.0000 0.0000 0.0000
# 4 0.0000 0.0000 0.0000 40.4077 0.0000 0.0000
# 5 0.0000 0.0000 0.0000 0.0000 20.5150 0.0000
# 6 0.0000 0.0000 0.0000 0.0000 0.0000 16.1206
#
#
#
# Elastic Compliance Matrix: (Units=1/GPa)
#
#
# Indices 1 2 3 4 5 6 
#
# 1 0.016191 -0.001670 0.001386 0.000000 0.000000 0.000000
# 2 -0.001670 0.007896 -0.002254 0.000000 0.000000 0.000000
# 3 0.001386 -0.002254 0.015222 0.000000 0.000000 0.000000
# 4 0.000000 0.000000 0.000000 0.024748 0.000000 0.000000
# 5 0.000000 0.000000 0.000000 0.000000 0.048745 0.000000
# 6 0.000000 0.000000 0.000000 0.000000 0.000000 0.062033
#
#
# Mechanical properties :
#
#
# Convention : Reuss Voigt Hill
#
# Bulk Modulus (GPa) = 29.21125 35.67587 32.44356
# Shear Modulus (GPa) = 26.13410 31.38737 28.76074
#
# Velocity S-wave (km/s) = 3.29889 3.61528 3.46070
# Velocity P-wave (km/s) = 5.16472 5.68181 5.42943
#
# Compressibility (1/GPa) = 0.03423339
#
# Stress axis : x y z
#
# Youngs Moduli (GPa) = 61.76325 126.63883 65.69587
#
# Poissons Ratio (x) = 0.21144 -0.09106
# Poissons Ratio (y) = 0.10312 0.14810
# Poissons Ratio (z) = -0.08561 0.28548
#
# Static dielectric constant tensor:
#      x y z
#    x 4.154720 0.000000 0.000000 
#    y 0.000000 4.644960 0.000000 
#    z 0.000000 0.000000 4.494790 
# 
# 
# High freq. dielectric constant tensor:
#      x y z
#    x 1.960900 0.000000 0.000000 
#    y 0.000000 1.947260 0.000000 
#    z 0.000000 0.000000 1.949500 
# 
# From -- ./inp_files/14215.got.cif
#   From: 2010.03.12/outbox.cif.g09.slc.cpg/sg42_8_cif.got.tgz:14215.got - 2010.04.14 02:04:31.
