data_PCOD8186375
_publ_section_title
;
Structure prediction by ZEFSAII (Michael W. Deem and Ramdas Pophale) SiO2 
 PCOD8186375
Probable space group: F M M 2
;
_chemical_formula_sum "Si O2"
_cell_formula_units_Z 112
_cell_length_a 17.026031
_cell_length_b 23.301805
_cell_length_c 13.758137
_cell_angle_alpha 90.000000
_cell_angle_beta 90.000000
_cell_angle_gamma 90.000000
_cell_volume 5458.365497
_symmetry_space_group_name_H-M "F M M 2"
_symmetry_group_IT_number 42
_symmetry_cell_setting 'orthorhombic'
loop_
_space_group_symop_operation_xyz
x,y,z
-x,-y,z
-x,y,z
x,-y,z
x,1/2+y,1/2+z
-x,1/2-y,1/2+z
-x,1/2+y,1/2+z
x,1/2-y,1/2+z
1/2+x,y,1/2+z
1/2-x,-y,1/2+z
1/2-x,y,1/2+z
1/2+x,-y,1/2+z
1/2+x,1/2+y,z
1/2-x,1/2-y,z
1/2-x,1/2+y,z
1/2+x,1/2-y,z
loop_
_atom_site_type_symbol
_atom_site_label
_atom_site_fract_x
_atom_site_fract_y
_atom_site_fract_z
Si Si1 0.090604 0.159301 0.462070
Si Si2 0.340945 0.764678 0.357249
Si Si3 0.591990 0.832248 0.183072
Si Si4 0.411033 0.633144 0.969172
Si Si5 0.907169 0.564996 0.654751
Si Si6 0.675425 0.433977 0.350604
Si Si7 0.354809 0.934556 0.299672
O O1 0.108702 0.209436 0.385959
O O2 0.109860 0.181230 0.570812
O O3 0.143832 0.103875 0.439609
O O4 0.000000 0.141170 0.453229
O O5 0.250000 0.750000 0.357466
O O6 0.366645 0.784257 0.249678
O O7 0.355899 0.814822 0.435735
O O8 0.500000 0.831151 0.206925
O O9 0.626550 0.895278 0.206614
O O10 0.500000 0.655632 0.982222
O O11 0.411517 0.582993 0.888298
O O12 0.377993 0.606895 0.069249
O O13 0.879465 0.500000 0.631342
O O14 0.868125 0.587056 0.753271
O O15 0.000000 0.567712 0.666338
O O16 0.655828 0.500000 0.373841
O O17 0.767066 0.423620 0.336908
O O18 0.369545 0.000000 0.268855
#
# Coordination Sequence:
#
# PCOD8186375 Si02
#       7
#    16  16  16  16  16  16  16
#     4  11  23  39  61  85 112 152 194 234 287 344
#     4  11  23  40  61  84 113 148 187 238 292 342
#     4  10  23  41  59  84 116 148 191 240 281 337
#     4  10  20  36  59  86 115 146 188 240 285 333
#     4   9  18  34  58  87 117 152 193 235 280 330
#     4  10  22  38  56  84 121 155 191 236 282 335
#     4  10  20  35  57  84 116 154 190 231 286 338
#
# _framework density 20.518961999999998
#
# number of rings (size 3 to 8) (size 9 to 14) (size 15 to 20)
#    0.000    1.857    0.000    5.143    0.000    7.143 
#    0.000    5.714    0.000    0.000    0.000    0.000 
#    0.000    0.000    0.000    0.000    0.000    0.000 
#
# Total GULP energy -347294.756086 kJ/mol
# GULP energy per Si atom -12403.384146 kJ/mol
# Density = 2.047226 g / cm^3
# Si number density = 20.518962 Si / 1000 Ang^3
#
#
#
# Elastic Constant Matrix: (Units=GPa)
#
#
# Indices 1 2 3 4 5 6 
#
# 1 87.1913 47.2177 39.0018 0.0000 0.0000 0.0000
# 2 47.2177 108.0916 50.8928 0.0000 0.0000 0.0000
# 3 39.0018 50.8928 104.6133 0.0000 0.0000 0.0000
# 4 0.0000 0.0000 0.0000 30.0542 0.0000 0.0000
# 5 0.0000 0.0000 0.0000 0.0000 19.8471 0.0000
# 6 0.0000 0.0000 0.0000 0.0000 0.0000 35.1687
#
#
#
# Elastic Compliance Matrix: (Units=1/GPa)
#
#
# Indices 1 2 3 4 5 6 
#
# 1 0.015853 -0.005373 -0.003296 0.000000 0.000000 0.000000
# 2 -0.005373 0.013821 -0.004721 0.000000 0.000000 0.000000
# 3 -0.003296 -0.004721 0.013084 0.000000 0.000000 0.000000
# 4 0.000000 0.000000 0.000000 0.033273 0.000000 0.000000
# 5 0.000000 0.000000 0.000000 0.000000 0.050385 0.000000
# 6 0.000000 0.000000 0.000000 0.000000 0.000000 0.028434
#
#
# Mechanical properties :
#
#
# Convention : Reuss Voigt Hill
#
# Bulk Modulus (GPa) = 62.58365 63.79121 63.18743
# Shear Modulus (GPa) = 26.74390 27.86625 27.30507
#
# Velocity S-wave (km/s) = 3.61414 3.68920 3.65187
# Velocity P-wave (km/s) = 6.92695 7.02163 6.97445
#
# Compressibility (1/GPa) = 0.01597861
#
# Stress axis : x y z
#
# Youngs Moduli (GPa) = 63.07801 72.35280 76.42634
#
# Poissons Ratio (x) = 0.38876 0.25194
# Poissons Ratio (y) = 0.33893 0.36078
# Poissons Ratio (z) = 0.20794 0.34155
#
# Static dielectric constant tensor:
#      x y z
#    x 3.707910 0.000000 0.000000 
#    y 0.000000 3.767840 0.000000 
#    z 0.000000 0.000000 3.692820 
# 
# 
# High freq. dielectric constant tensor:
#      x y z
#    x 1.807740 0.000000 0.000000 
#    y 0.000000 1.803940 0.000000 
#    z 0.000000 0.000000 1.797780 
# 
# From -- ./inp_files/14270.got.cif
#   From: 2010.03.12/outbox.cif.g09.slc.cpg/sg42_8_cif.got.tgz:14270.got - 2010.04.14 02:04:31.
