data_PCOD8186337
_publ_section_title
;
Structure prediction by ZEFSAII (Michael W. Deem and Ramdas Pophale) SiO2 
 PCOD8186337
Probable space group: F M M 2
;
_chemical_formula_sum "Si O2"
_cell_formula_units_Z 80
_cell_length_a 19.598702
_cell_length_b 8.767039
_cell_length_c 25.649864
_cell_angle_alpha 90.000000
_cell_angle_beta 90.000000
_cell_angle_gamma 90.000000
_cell_volume 4407.225932
_symmetry_space_group_name_H-M "F M M 2"
_symmetry_group_IT_number 42
_symmetry_cell_setting 'orthorhombic'
loop_
_space_group_symop_operation_xyz
x,y,z
-x,-y,z
-x,y,z
x,-y,z
x,1/2+y,1/2+z
-x,1/2-y,1/2+z
-x,1/2+y,1/2+z
x,1/2-y,1/2+z
1/2+x,y,1/2+z
1/2-x,-y,1/2+z
1/2-x,y,1/2+z
1/2+x,-y,1/2+z
1/2+x,1/2+y,z
1/2-x,1/2-y,z
1/2-x,1/2+y,z
1/2+x,1/2-y,z
loop_
_atom_site_type_symbol
_atom_site_label
_atom_site_fract_x
_atom_site_fract_y
_atom_site_fract_z
Si Si1 0.579472 0.321183 0.642460
Si Si2 0.177262 0.182029 0.834528
Si Si3 0.822298 0.180159 0.224646
Si Si4 0.080995 0.668536 0.027045
Si Si5 0.076381 0.679436 0.423618
O O1 0.500000 0.284544 0.650763
O O2 0.593669 0.500000 0.652024
O O3 0.621386 0.217498 0.681854
O O4 0.604226 0.273377 0.584161
O O5 0.250000 0.250000 0.850419
O O6 0.153288 0.246093 0.778924
O O7 0.123629 0.242028 0.877377
O O8 0.181376 0.000000 0.832085
O O9 0.750000 0.250000 0.207196
O O10 0.814352 0.000000 0.231524
O O11 0.110590 0.500000 0.016969
O O12 0.000000 0.663380 0.027990
O O13 0.107415 0.774458 0.979983
O O14 0.073769 0.500000 0.421231
O O15 0.000000 0.747442 0.416370
#
# Coordination Sequence:
#
# PCOD8186337 Si02
#       5
#    16  16  16  16  16
#     4   9  18  34  55  78 105 136 169 207 253 302
#     4  10  20  35  53  72  98 133 169 205 252 304
#     4  11  22  36  54  75 101 134 172 212 257 305
#     4   8  15  29  50  75 102 132 163 198 245 296
#     4   9  18  32  51  75 101 130 165 204 246 293
#
# _framework density 18.152006
#
# number of rings (size 3 to 8) (size 9 to 14) (size 15 to 20)
#    0.000    2.600    0.000    4.800    0.000    3.600 
#    0.000    5.000    0.000    2.400    0.000    0.000 
#    0.000    0.000    0.000    0.000    0.000    0.000 
#
# Total GULP energy -247931.241303 kJ/mol
# GULP energy per Si atom -12396.562065 kJ/mol
# Density = 1.811069 g / cm^3
# Si number density = 18.152006 Si / 1000 Ang^3
#
#
#
# Elastic Constant Matrix: (Units=GPa)
#
#
# Indices 1 2 3 4 5 6 
#
# 1 68.9027 31.5558 72.2942 0.0000 0.0000 -0.0001
# 2 31.5558 68.0399 43.2627 0.0000 0.0000 -0.0001
# 3 72.2942 43.2627 149.2598 0.0000 0.0000 0.0000
# 4 0.0000 0.0000 0.0000 34.8693 0.0000 0.0000
# 5 0.0000 0.0000 0.0000 0.0000 6.3848 0.0000
# 6 -0.0001 -0.0001 0.0000 0.0000 0.0000 25.7402
#
#
#
# Elastic Compliance Matrix: (Units=1/GPa)
#
#
# Indices 1 2 3 4 5 6 
#
# 1 0.031386 -0.005995 -0.013464 0.000000 0.000000 0.000000
# 2 -0.005995 0.019163 -0.002651 0.000000 0.000000 0.000000
# 3 -0.013464 -0.002651 0.013989 0.000000 0.000000 0.000000
# 4 0.000000 0.000000 0.000000 0.028679 0.000000 0.000000
# 5 0.000000 0.000000 0.000000 0.000000 0.156622 0.000000
# 6 0.000000 0.000000 0.000000 0.000000 0.000000 0.038850
#
#
# Mechanical properties :
#
#
# Convention : Reuss Voigt Hill
#
# Bulk Modulus (GPa) = 49.21629 64.49197 56.85413
# Shear Modulus (GPa) = 14.71971 22.67151 18.69561
#
# Velocity S-wave (km/s) = 2.85074 3.53793 3.21276
# Velocity P-wave (km/s) = 6.16506 7.23154 6.71949
#
# Compressibility (1/GPa) = 0.02031848
#
# Stress axis : x y z
#
# Youngs Moduli (GPa) = 31.86178 52.18361 71.48319
#
# Poissons Ratio (x) = 0.31285 0.96245
# Poissons Ratio (y) = 0.19102 0.18948
# Poissons Ratio (z) = 0.42899 0.13832
#
# Static dielectric constant tensor:
#      x y z
#    x 3.267990 0.000000 0.000000 
#    y 0.000000 3.313700 0.000000 
#    z 0.000000 0.000000 3.635500 
# 
# 
# High freq. dielectric constant tensor:
#      x y z
#    x 1.677670 0.000000 0.000000 
#    y 0.000000 1.700070 0.000000 
#    z 0.000000 0.000000 1.716920 
# 
# From -- ./inp_files/31263.got.cif
#   From: 2010.03.12/outbox.cif.g09.slc.cpg/sg42_16_cif.got.tgz:31263.got - 2010.04.14 02:04:31.
