data_PCOD8186766
_publ_section_title
;
Structure prediction by ZEFSAII (Michael W. Deem and Ramdas Pophale) SiO2 
 PCOD8186766
Probable space group: F M M 2
;
_chemical_formula_sum "Si O2"
_cell_formula_units_Z 96
_cell_length_a 22.179524
_cell_length_b 22.569043
_cell_length_c 8.762571
_cell_angle_alpha 90.000000
_cell_angle_beta 90.000000
_cell_angle_gamma 90.000000
_cell_volume 4386.285694
_symmetry_space_group_name_H-M "F M M 2"
_symmetry_group_IT_number 42
_symmetry_cell_setting 'orthorhombic'
loop_
_space_group_symop_operation_xyz
x,y,z
-x,-y,z
-x,y,z
x,-y,z
x,1/2+y,1/2+z
-x,1/2-y,1/2+z
-x,1/2+y,1/2+z
x,1/2-y,1/2+z
1/2+x,y,1/2+z
1/2-x,-y,1/2+z
1/2-x,y,1/2+z
1/2+x,-y,1/2+z
1/2+x,1/2+y,z
1/2-x,1/2-y,z
1/2-x,1/2+y,z
1/2+x,1/2-y,z
loop_
_atom_site_type_symbol
_atom_site_label
_atom_site_fract_x
_atom_site_fract_y
_atom_site_fract_z
Si Si1 0.747502 0.634419 0.574420
Si Si2 0.929779 0.433757 0.339157
Si Si3 0.362999 0.826543 0.450411
Si Si4 0.680829 0.567519 0.336078
Si Si5 0.133455 0.713089 0.127185
Si Si6 0.929824 0.891788 0.500543
O O1 0.791899 0.659729 0.444035
O O2 0.711357 0.579593 0.501011
O O3 0.789626 0.611851 0.713170
O O4 0.701490 0.687311 0.615554
O O5 0.908530 0.500000 0.381510
O O6 0.897651 0.389406 0.458475
O O7 0.912754 0.422114 0.162661
O O8 0.000000 0.425322 0.363080
O O9 0.373445 0.782721 0.592568
O O10 0.386302 0.792237 0.301849
O O11 0.691291 0.500000 0.285591
O O12 0.609271 0.579597 0.362714
O O13 0.087789 0.677281 0.017433
O O14 0.000000 0.899839 0.459493
#
# Coordination Sequence:
#
# PCOD8186766 Si02
#       6
#    16  16  16  16  16  16
#     4  11  23  41  59  91 132 169 214 273 327 393
#     4   9  19  39  66  96 131 172 218 268 328 395
#     4  11  23  39  65  94 124 167 216 265 322 387
#     4  11  23  39  63  95 130 174 222 272 329 387
#     4  10  23  39  63  94 126 167 215 266 326 383
#     4   9  20  40  65  96 131 173 222 269 324 389
#
# _framework density 21.886399000000001
#
# number of rings (size 3 to 8) (size 9 to 14) (size 15 to 20)
#    0.000    1.833    1.667    1.500    4.667    4.333 
#    0.000    0.833    0.000    0.000    0.000    0.000 
#    0.000    0.000    0.000    0.000    0.000    0.000 
#
# Total GULP energy -297477.826642 kJ/mol
# GULP energy per Si atom -12394.909443 kJ/mol
# Density = 2.183658 g / cm^3
# Si number density = 21.886399 Si / 1000 Ang^3
#
#
#
# Elastic Constant Matrix: (Units=GPa)
#
#
# Indices 1 2 3 4 5 6 
#
# 1 89.2682 42.4867 34.3761 -0.0049 0.0021 0.0009
# 2 42.4867 151.1821 36.3738 -0.0009 -0.0016 -0.0015
# 3 34.3761 36.3738 55.0617 0.0006 -0.0047 -0.0061
# 4 -0.0049 -0.0009 0.0006 31.5510 -0.0007 -0.0011
# 5 0.0021 -0.0016 -0.0047 -0.0007 32.8882 0.0028
# 6 0.0009 -0.0015 -0.0061 -0.0011 0.0028 18.6817
#
#
#
# Elastic Compliance Matrix: (Units=1/GPa)
#
#
# Indices 1 2 3 4 5 6 
#
# 1 0.015449 -0.002403 -0.008058 0.000002 -0.000002 -0.000004
# 2 -0.002403 0.008238 -0.003942 0.000000 0.000000 -0.000001
# 3 -0.008058 -0.003942 0.025796 -0.000002 0.000004 0.000008
# 4 0.000002 0.000000 -0.000002 0.031695 0.000001 0.000002
# 5 -0.000002 0.000000 0.000004 0.000001 0.030406 -0.000004
# 6 -0.000004 -0.000001 0.000008 0.000002 -0.000004 0.053528
#
#
# Mechanical properties :
#
#
# Convention : Reuss Voigt Hill
#
# Bulk Modulus (GPa) = 48.36050 57.99834 53.17942
# Shear Modulus (GPa) = 24.89917 28.77586 26.83752
#
# Velocity S-wave (km/s) = 3.37657 3.62993 3.50554
# Velocity P-wave (km/s) = 6.11112 6.64272 6.38246
#
# Compressibility (1/GPa) = 0.02067803
#
# Stress axis : x y z
#
# Youngs Moduli (GPa) = 64.73028 121.38472 38.76564
#
# Poissons Ratio (x) = 0.29168 0.31236
# Poissons Ratio (y) = 0.15554 0.15281
# Poissons Ratio (z) = 0.52157 0.47850
#
# Static dielectric constant tensor:
#      x y z
#    x 3.974680 0.000000 0.000000 
#    y 0.000000 3.928810 0.000000 
#    z 0.000000 0.000000 3.711740 
# 
# 
# High freq. dielectric constant tensor:
#      x y z
#    x 1.856720 0.000000 0.000000 
#    y 0.000000 1.860580 0.000000 
#    z 0.000000 0.000000 1.842890 
# 
# From -- ./inp_files/4727.got.cif
#   From: 2010.03.12/outbox.cif.g09.slc.cpg/sg42_3_cif.got.tgz:4727.got - 2010.04.14 02:04:31.
