data_PCOD8186264
_publ_section_title
;
Structure prediction by ZEFSAII (Michael W. Deem and Ramdas Pophale) SiO2 
 PCOD8186264
Probable space group: F M M 2
;
_chemical_formula_sum "Si O2"
_cell_formula_units_Z 96
_cell_length_a 31.338451
_cell_length_b 9.262818
_cell_length_c 18.861872
_cell_angle_alpha 90.000000
_cell_angle_beta 90.000000
_cell_angle_gamma 90.000000
_cell_volume 5475.268869
_symmetry_space_group_name_H-M "F M M 2"
_symmetry_group_IT_number 42
_symmetry_cell_setting 'orthorhombic'
loop_
_space_group_symop_operation_xyz
x,y,z
-x,-y,z
-x,y,z
x,-y,z
x,1/2+y,1/2+z
-x,1/2-y,1/2+z
-x,1/2+y,1/2+z
x,1/2-y,1/2+z
1/2+x,y,1/2+z
1/2-x,-y,1/2+z
1/2-x,y,1/2+z
1/2+x,-y,1/2+z
1/2+x,1/2+y,z
1/2-x,1/2-y,z
1/2-x,1/2+y,z
1/2+x,1/2-y,z
loop_
_atom_site_type_symbol
_atom_site_label
_atom_site_fract_x
_atom_site_fract_y
_atom_site_fract_z
Si Si1 0.127716 0.333504 0.777910
Si Si2 0.954511 0.663200 0.930592
Si Si3 0.292285 0.668420 0.025765
Si Si4 0.707951 0.831718 0.689708
Si Si5 0.453206 0.167894 0.288293
Si Si6 0.636953 0.663163 0.444982
O O1 0.121023 0.500000 0.759499
O O2 0.168257 0.272546 0.735059
O O3 0.085373 0.251460 0.749416
O O4 0.135675 0.307352 0.860990
O O5 0.950899 0.500000 0.898246
O O6 0.955488 0.778921 0.868656
O O7 0.911357 0.687996 0.976474
O O8 0.000000 0.677058 0.973398
O O9 0.285849 0.500000 0.011432
O O10 0.250000 0.750000 0.999278
O O11 0.301304 0.702656 0.107708
O O12 0.332332 0.722888 0.981166
O O13 0.750000 0.750000 0.716425
O O14 0.715671 0.000000 0.703062
O O15 0.500000 0.195926 0.252504
O O16 0.442024 0.000000 0.287975
O O17 0.652692 0.500000 0.460853
#
# Coordination Sequence:
#
# PCOD8186264 Si02
#       6
#    16  16  16  16  16  16
#     4   9  18  32  49  70  95 122 154 190 228 272
#     4   8  14  26  44  65  91 124 157 186 221 268
#     4  10  20  34  51  68  90 121 155 190 229 276
#     4   9  19  35  52  69  89 118 156 192 228 274
#     4   9  16  25  40  66  97 124 152 187 226 268
#     4   9  17  29  47  72  98 121 150 189 228 268
#
# _framework density 17.533386
#
# number of rings (size 3 to 8) (size 9 to 14) (size 15 to 20)
#    0.000    3.000    0.000    2.000    0.000    5.667 
#    0.000    1.667    0.000    1.000    0.000    4.667 
#    0.000    0.000    0.000    0.000    0.000    0.000 
#
# Total GULP energy -297374.270312 kJ/mol
# GULP energy per Si atom -12390.594596 kJ/mol
# Density = 1.749348 g / cm^3
# Si number density = 17.533386 Si / 1000 Ang^3
#
#
#
# Elastic Constant Matrix: (Units=GPa)
#
#
# Indices 1 2 3 4 5 6 
#
# 1 192.1012 75.1777 46.8204 0.0000 0.0000 0.0000
# 2 75.1777 79.7633 25.6972 0.0000 0.0000 0.0000
# 3 46.8204 25.6972 30.6025 0.0000 0.0000 0.0000
# 4 0.0000 0.0000 0.0000 14.7406 0.0000 0.0000
# 5 0.0000 0.0000 0.0000 0.0000 1.1073 0.0000
# 6 0.0000 0.0000 0.0000 0.0000 0.0000 35.6524
#
#
#
# Elastic Compliance Matrix: (Units=1/GPa)
#
#
# Indices 1 2 3 4 5 6 
#
# 1 0.010166 -0.006266 -0.010292 0.000000 0.000000 0.000000
# 2 -0.006266 0.021049 -0.008088 0.000000 0.000000 0.000000
# 3 -0.010292 -0.008088 0.055215 0.000000 0.000000 0.000000
# 4 0.000000 0.000000 0.000000 0.067840 0.000000 0.000000
# 5 0.000000 0.000000 0.000000 0.000000 0.903109 0.000000
# 6 0.000000 0.000000 0.000000 0.000000 0.000000 0.028049
#
#
# Mechanical properties :
#
#
# Convention : Reuss Voigt Hill
#
# Bulk Modulus (GPa) = 26.92689 66.42862 46.67776
# Shear Modulus (GPa) = 4.35882 20.61819 12.48850
#
# Velocity S-wave (km/s) = 1.57842 3.43292 2.67173
# Velocity P-wave (km/s) = 4.32582 7.32683 6.01644
#
# Compressibility (1/GPa) = 0.03713760
#
# Stress axis : x y z
#
# Youngs Moduli (GPa) = 98.36469 47.50928 18.11088
#
# Poissons Ratio (x) = 0.29769 0.18640
# Poissons Ratio (y) = 0.61635 0.14648
# Poissons Ratio (z) = 1.01240 0.38426
#
# Static dielectric constant tensor:
#      x y z
#    x 3.817580 0.000000 0.000000 
#    y 0.000000 3.244980 0.000000 
#    z 0.000000 0.000000 2.791650 
# 
# 
# High freq. dielectric constant tensor:
#      x y z
#    x 1.705140 0.000000 0.000000 
#    y 0.000000 1.680460 0.000000 
#    z 0.000000 0.000000 1.615920 
# 
# From -- ./inp_files/23716.got.cif
#   From: 2010.03.12/outbox.cif.g09.slc.cpg/sg42_12_cif.got.tgz:23716.got - 2010.04.14 02:04:31.
