data_PCOD8186712
_publ_section_title
;
Structure prediction by ZEFSAII (Michael W. Deem and Ramdas Pophale) SiO2 
 PCOD8186712
Probable space group: F M M 2
;
_chemical_formula_sum "Si O2"
_cell_formula_units_Z 96
_cell_length_a 28.249655
_cell_length_b 8.862814
_cell_length_c 20.598402
_cell_angle_alpha 90.000000
_cell_angle_beta 90.000000
_cell_angle_gamma 90.000000
_cell_volume 5157.251526
_symmetry_space_group_name_H-M "F M M 2"
_symmetry_group_IT_number 42
_symmetry_cell_setting 'orthorhombic'
loop_
_space_group_symop_operation_xyz
x,y,z
-x,-y,z
-x,y,z
x,-y,z
x,1/2+y,1/2+z
-x,1/2-y,1/2+z
-x,1/2+y,1/2+z
x,1/2-y,1/2+z
1/2+x,y,1/2+z
1/2-x,-y,1/2+z
1/2-x,y,1/2+z
1/2+x,-y,1/2+z
1/2+x,1/2+y,z
1/2-x,1/2-y,z
1/2-x,1/2+y,z
1/2+x,1/2-y,z
loop_
_atom_site_type_symbol
_atom_site_label
_atom_site_fract_x
_atom_site_fract_y
_atom_site_fract_z
Si Si1 0.300184 0.821785 0.235950
Si Si2 0.053596 0.174941 0.809508
Si Si3 0.851684 0.320631 0.106874
Si Si4 0.357325 0.176766 0.849800
Si Si5 0.051555 0.320600 0.161269
Si Si6 0.698700 0.321828 0.478148
O O1 0.250000 0.750000 0.251225
O O2 0.318813 0.765774 0.166129
O O3 0.336507 0.770066 0.290339
O O4 0.295309 0.000000 0.238435
O O5 0.087632 0.275616 0.855071
O O6 0.059529 0.230807 0.735347
O O7 0.000000 0.201553 0.833354
O O8 0.067676 0.000000 0.815805
O O9 0.853594 0.500000 0.105153
O O10 0.905412 0.257728 0.116872
O O11 0.829508 0.256718 0.040516
O O12 0.331002 0.225478 0.915347
O O13 0.351924 0.000000 0.837026
O O14 0.051219 0.500000 0.160008
O O15 0.000000 0.260793 0.136372
O O16 0.704836 0.500000 0.483718
O O17 0.750000 0.250000 0.473970
#
# Coordination Sequence:
#
# PCOD8186712 Si02
#       6
#    16  16  16  16  16  16
#     4  11  21  34  54  78 104 134 176 229 274 317
#     4   9  17  32  56  83 108 139 179 218 262 316
#     4   9  17  32  53  77 104 134 174 223 266 311
#     4  11  22  35  52  78 111 143 176 217 268 322
#     4   8  13  25  50  81 105 128 165 212 259 307
#     4  10  22  38  54  74 104 143 182 219 266 320
#
# _framework density 18.614566
#
# number of rings (size 3 to 8) (size 9 to 14) (size 15 to 20)
#    0.000    2.333    1.667    3.000    0.000    3.000 
#    0.000    1.667    0.000    3.000    0.000    0.000 
#    0.000    0.000    0.000    0.000    0.000    0.000 
#
# Total GULP energy -297548.699210 kJ/mol
# GULP energy per Si atom -12397.862467 kJ/mol
# Density = 1.857220 g / cm^3
# Si number density = 18.614566 Si / 1000 Ang^3
#
#
#
# Elastic Constant Matrix: (Units=GPa)
#
#
# Indices 1 2 3 4 5 6 
#
# 1 155.9212 32.2503 62.5347 0.0000 0.0000 0.0000
# 2 32.2503 34.5896 31.3158 0.0000 0.0000 0.0000
# 3 62.5347 31.3158 115.6817 0.0000 0.0000 0.0000
# 4 0.0000 0.0000 0.0000 17.2713 0.0000 0.0000
# 5 0.0000 0.0000 0.0000 0.0000 31.3239 0.0000
# 6 0.0000 0.0000 0.0000 0.0000 0.0000 23.3803
#
#
#
# Elastic Compliance Matrix: (Units=1/GPa)
#
#
# Indices 1 2 3 4 5 6 
#
# 1 0.008840 -0.005187 -0.003374 0.000000 0.000000 0.000000
# 2 -0.005187 0.041340 -0.008387 0.000000 0.000000 0.000000
# 3 -0.003374 -0.008387 0.012739 0.000000 0.000000 0.000000
# 4 0.000000 0.000000 0.000000 0.057899 0.000000 0.000000
# 5 0.000000 0.000000 0.000000 0.000000 0.031925 0.000000
# 6 0.000000 0.000000 0.000000 0.000000 0.000000 0.042771
#
#
# Mechanical properties :
#
#
# Convention : Reuss Voigt Hill
#
# Bulk Modulus (GPa) = 34.45686 62.04378 48.25032
# Shear Modulus (GPa) = 20.91316 26.40121 23.65718
#
# Velocity S-wave (km/s) = 3.35548 3.77013 3.56883
# Velocity P-wave (km/s) = 5.79337 7.23567 6.55432
#
# Compressibility (1/GPa) = 0.02902180
#
# Stress axis : x y z
#
# Youngs Moduli (GPa) = 113.12608 24.18979 78.49929
#
# Poissons Ratio (x) = 0.12547 0.26489
# Poissons Ratio (y) = 0.58677 0.65838
# Poissons Ratio (z) = 0.38173 0.20288
#
# Static dielectric constant tensor:
#      x y z
#    x 3.843090 0.000000 0.000000 
#    y 0.000000 3.041280 0.000000 
#    z 0.000000 0.000000 3.465940 
# 
# 
# High freq. dielectric constant tensor:
#      x y z
#    x 1.745430 0.000000 0.000000 
#    y 0.000000 1.687450 0.000000 
#    z 0.000000 0.000000 1.705750 
# 
# From -- ./inp_files/23709.got.cif
#   From: 2010.03.12/outbox.cif.g09.slc.cpg/sg42_12_cif.got.tgz:23709.got - 2010.04.14 02:04:31.
