data_PCOD8186171
_publ_section_title
;
Structure prediction by ZEFSAII (Michael W. Deem and Ramdas Pophale) SiO2 
 PCOD8186171
Probable space group: F M M 2
;
_chemical_formula_sum "Si O2"
_cell_formula_units_Z 76
_cell_length_a 11.128383
_cell_length_b 22.413676
_cell_length_c 14.688477
_cell_angle_alpha 90.000000
_cell_angle_beta 90.000000
_cell_angle_gamma 90.000000
_cell_volume 3663.717015
_symmetry_space_group_name_H-M "F M M 2"
_symmetry_group_IT_number 42
_symmetry_cell_setting 'orthorhombic'
loop_
_space_group_symop_operation_xyz
x,y,z
-x,-y,z
-x,y,z
x,-y,z
x,1/2+y,1/2+z
-x,1/2-y,1/2+z
-x,1/2+y,1/2+z
x,1/2-y,1/2+z
1/2+x,y,1/2+z
1/2-x,-y,1/2+z
1/2-x,y,1/2+z
1/2+x,-y,1/2+z
1/2+x,1/2+y,z
1/2-x,1/2-y,z
1/2-x,1/2+y,z
1/2+x,1/2-y,z
loop_
_atom_site_type_symbol
_atom_site_label
_atom_site_fract_x
_atom_site_fract_y
_atom_site_fract_z
Si Si1 0.268358 0.500000 0.026250
Si Si2 0.358160 0.202963 0.088426
Si Si3 0.138585 0.000000 0.702289
Si Si4 0.500000 0.000000 0.648484
Si Si5 0.359322 0.373537 0.764545
Si Si6 0.212344 0.381948 0.926230
Si Si7 0.000000 0.065896 0.322250
O O1 0.153249 0.500000 0.092734
O O2 0.384443 0.500000 0.087739
O O3 0.271784 0.441576 0.964933
O O4 0.500000 0.226143 0.088151
O O5 0.250000 0.250000 0.075143
O O6 0.326744 0.170988 0.183018
O O7 0.343986 0.157599 0.005279
O O8 0.196992 0.939816 0.744634
O O9 0.000000 0.000000 0.724662
O O10 0.500000 0.059022 0.712575
O O11 0.500000 0.379396 0.772031
O O12 0.311273 0.349010 0.862093
O O13 0.112727 0.396479 0.852465
O O14 0.000000 0.000000 0.369776
#
# Coordination Sequence:
#
# PCOD8186171 Si02
#       7
#     8  16   8   4  16  16   8
#     4  12  22  35  66 100 140 170 210 259 326 389
#     4  11  26  49  70  95 126 174 232 284 338 400
#     4  10  19  35  65  95 131 173 206 248 319 392
#     4  10  24  38  56 100 154 180 206 250 328 400
#     4  10  23  42  66  97 135 170 213 267 330 398
#     4  12  23  40  70  97 132 172 216 269 328 400
#     4  10  22  38  60  96 138 174 214 254 318 402
#
# _framework density 20.743960000000001
#
# number of rings (size 3 to 8) (size 9 to 14) (size 15 to 20)
#    0.316    0.842    4.211    1.895    2.947    1.684 
#    1.895    2.105    0.000    0.000    0.000    0.000 
#    0.000    0.000    0.000    0.000    0.000    0.000 
#
# Total GULP energy -235434.687830 kJ/mol
# GULP energy per Si atom -12391.299359 kJ/mol
# Density = 2.069675 g / cm^3
# Si number density = 20.743960 Si / 1000 Ang^3
#
#
#
# Elastic Constant Matrix: (Units=GPa)
#
#
# Indices 1 2 3 4 5 6 
#
# 1 76.6221 52.4940 50.1171 0.0000 0.0000 0.0000
# 2 52.4940 64.2368 21.1647 0.0000 0.0000 0.0000
# 3 50.1171 21.1647 124.8089 0.0000 0.0000 0.0000
# 4 0.0000 0.0000 0.0000 14.0997 0.0000 0.0000
# 5 0.0000 0.0000 0.0000 0.0000 19.8137 0.0000
# 6 0.0000 0.0000 0.0000 0.0000 0.0000 65.5843
#
#
#
# Elastic Compliance Matrix: (Units=1/GPa)
#
#
# Indices 1 2 3 4 5 6 
#
# 1 0.040680 -0.029510 -0.011331 0.000000 0.000000 0.000000
# 2 -0.029510 0.037896 0.005424 0.000000 0.000000 0.000000
# 3 -0.011331 0.005424 0.011642 0.000000 0.000000 0.000000
# 4 0.000000 0.000000 0.000000 0.070923 0.000000 0.000000
# 5 0.000000 0.000000 0.000000 0.000000 0.050470 0.000000
# 6 0.000000 0.000000 0.000000 0.000000 0.000000 0.015248
#
#
# Mechanical properties :
#
#
# Convention : Reuss Voigt Hill
#
# Bulk Modulus (GPa) = 51.59024 57.02436 54.30730
# Shear Modulus (GPa) = 16.43899 29.35900 22.89899
#
# Velocity S-wave (km/s) = 2.81814 3.76613 3.32608
# Velocity P-wave (km/s) = 5.95930 6.81623 6.40212
#
# Compressibility (1/GPa) = 0.01938351
#
# Stress axis : x y z
#
# Youngs Moduli (GPa) = 24.58225 26.38806 85.89270
#
# Poissons Ratio (x) = 0.77871 0.97323
# Poissons Ratio (y) = 0.72542 -0.46584
# Poissons Ratio (z) = 0.27854 -0.14312
#
# Static dielectric constant tensor:
#      x y z
#    x 3.714960 0.000000 0.000000 
#    y 0.000000 3.684900 0.000000 
#    z 0.000000 0.000000 3.890020 
# 
# 
# High freq. dielectric constant tensor:
#      x y z
#    x 1.823240 0.000000 0.000000 
#    y 0.000000 1.779680 0.000000 
#    z 0.000000 0.000000 1.828590 
# 
# From -- ./inp_files/12891.got.cif
#   From: 2010.03.12/outbox.cif.g09.slc.cpg/sg42_7_cif.got.tgz:12891.got - 2010.04.14 02:04:31.
