data_PCOD8186187
_publ_section_title
;
Structure prediction by ZEFSAII (Michael W. Deem and Ramdas Pophale) SiO2 
 PCOD8186187
Probable space group: F M M 2
;
_chemical_formula_sum "Si O2"
_cell_formula_units_Z 128
_cell_length_a 23.565602
_cell_length_b 22.205040
_cell_length_c 11.728456
_cell_angle_alpha 90.000000
_cell_angle_beta 90.000000
_cell_angle_gamma 90.000000
_cell_volume 6137.209397
_symmetry_space_group_name_H-M "F M M 2"
_symmetry_group_IT_number 42
_symmetry_cell_setting 'orthorhombic'
loop_
_space_group_symop_operation_xyz
x,y,z
-x,-y,z
-x,y,z
x,-y,z
x,1/2+y,1/2+z
-x,1/2-y,1/2+z
-x,1/2+y,1/2+z
x,1/2-y,1/2+z
1/2+x,y,1/2+z
1/2-x,-y,1/2+z
1/2-x,y,1/2+z
1/2+x,-y,1/2+z
1/2+x,1/2+y,z
1/2-x,1/2-y,z
1/2-x,1/2+y,z
1/2+x,1/2-y,z
loop_
_atom_site_type_symbol
_atom_site_label
_atom_site_fract_x
_atom_site_fract_y
_atom_site_fract_z
Si Si1 0.880019 0.434088 0.928570
Si Si2 0.753423 0.181067 0.151162
Si Si3 0.065267 0.732634 0.988770
Si Si4 0.064976 0.149799 0.270296
Si Si5 0.768019 0.933361 0.303581
Si Si6 0.374318 0.145341 0.137416
Si Si7 0.866071 0.160724 0.042570
Si Si8 0.861233 0.568528 0.358245
O O1 0.900370 0.500000 0.955810
O O2 0.916282 0.414753 0.818092
O O3 0.812766 0.429386 0.905715
O O4 0.895633 0.400553 0.043165
O O5 0.750000 0.250000 0.202794
O O6 0.777667 0.127109 0.230366
O O7 0.690751 0.162921 0.113270
O O8 0.799316 0.179862 0.048165
O O9 0.075896 0.693831 0.876332
O O10 0.000000 0.749436 0.006363
O O11 0.086643 0.703479 0.109902
O O12 0.102276 0.791448 0.962491
O O13 0.105362 0.165380 0.165917
O O14 0.000000 0.149943 0.229214
O O15 0.706130 0.932425 0.355997
O O16 0.776094 0.000000 0.240988
O O17 0.384520 0.113541 0.259538
O O18 0.876432 0.096101 0.982056
O O19 0.885544 0.500000 0.346780
#
# Coordination Sequence:
#
# PCOD8186187 Si02
#       8
#    16  16  16  16  16  16  16  16
#     4  10  19  36  62  87 119 162 213 260 305 364
#     4  11  21  36  59  95 131 164 205 264 325 370
#     4  10  23  42  65  89 121 167 216 263 314 378
#     4  10  23  41  61  90 122 160 216 266 316 373
#     4   9  19  37  59  89 127 174 212 249 308 387
#     4  10  21  40  62  93 126 166 208 261 311 377
#     4  12  23  39  63  93 127 169 205 260 323 383
#     4  10  23  40  62  93 130 168 207 252 315 389
#
# _framework density 20.856383999999998
#
# number of rings (size 3 to 8) (size 9 to 14) (size 15 to 20)
#    0.000    1.750    2.500    1.500    1.750    1.750 
#    0.000    1.250    0.000    3.750    0.000    0.000 
#    0.000    0.000    0.000    0.000    0.000    0.000 
#
# Total GULP energy -396426.498018 kJ/mol
# GULP energy per Si atom -12388.328063 kJ/mol
# Density = 2.080891 g / cm^3
# Si number density = 20.856384 Si / 1000 Ang^3
#
#
#
# Elastic Constant Matrix: (Units=GPa)
#
#
# Indices 1 2 3 4 5 6 
#
# 1 65.7254 19.2734 21.7040 0.0000 0.0000 0.0000
# 2 19.2734 133.8132 34.1666 0.0000 0.0000 0.0000
# 3 21.7040 34.1666 70.5567 0.0001 0.0000 0.0000
# 4 0.0000 0.0000 0.0001 19.3705 0.0000 0.0000
# 5 0.0000 0.0000 0.0000 0.0000 23.7534 0.0000
# 6 0.0000 0.0000 0.0000 0.0000 0.0000 15.3581
#
#
#
# Elastic Compliance Matrix: (Units=1/GPa)
#
#
# Indices 1 2 3 4 5 6 
#
# 1 0.017125 -0.001280 -0.004648 0.000000 0.000000 0.000000
# 2 -0.001280 0.008623 -0.003782 0.000000 0.000000 0.000000
# 3 -0.004648 -0.003782 0.017434 0.000000 0.000000 0.000000
# 4 0.000000 0.000000 0.000000 0.051625 0.000000 0.000000
# 5 0.000000 0.000000 0.000000 0.000000 0.042099 0.000000
# 6 0.000000 0.000000 0.000000 0.000000 0.000000 0.065112
#
#
# Mechanical properties :
#
#
# Convention : Reuss Voigt Hill
#
# Bulk Modulus (GPa) = 42.08302 46.70927 44.39615
# Shear Modulus (GPa) = 21.79985 24.69314 23.24649
#
# Velocity S-wave (km/s) = 3.23652 3.44461 3.34218
# Velocity P-wave (km/s) = 5.84706 6.18585 6.01884
#
# Compressibility (1/GPa) = 0.02376255
#
# Stress axis : x y z
#
# Youngs Moduli (GPa) = 58.39410 115.96763 57.35844
#
# Poissons Ratio (x) = 0.14841 0.26661
# Poissons Ratio (y) = 0.07473 0.21693
# Poissons Ratio (z) = 0.27142 0.43859
#
# Static dielectric constant tensor:
#      x y z
#    x 3.748270 0.000000 0.000000 
#    y 0.000000 4.343200 0.000000 
#    z 0.000000 0.000000 3.513840 
# 
# 
# High freq. dielectric constant tensor:
#      x y z
#    x 1.808020 0.000000 0.000000 
#    y 0.000000 1.833980 0.000000 
#    z 0.000000 0.000000 1.793630 
# 
# From -- ./inp_files/10370.got.cif
#   From: 2010.03.12/outbox.cif.g09.slc.cpg/sg42_6_cif.got.tgz:10370.got - 2010.04.14 02:04:31.
