data_PCOD8186277
_publ_section_title
;
Structure prediction by ZEFSAII (Michael W. Deem and Ramdas Pophale) SiO2 
 PCOD8186277
Probable space group: F M M 2
;
_chemical_formula_sum "Si O2"
_cell_formula_units_Z 80
_cell_length_a 19.628440
_cell_length_b 9.002945
_cell_length_c 25.227149
_cell_angle_alpha 90.000000
_cell_angle_beta 90.000000
_cell_angle_gamma 90.000000
_cell_volume 4457.984499
_symmetry_space_group_name_H-M "F M M 2"
_symmetry_group_IT_number 42
_symmetry_cell_setting 'orthorhombic'
loop_
_space_group_symop_operation_xyz
x,y,z
-x,-y,z
-x,y,z
x,-y,z
x,1/2+y,1/2+z
-x,1/2-y,1/2+z
-x,1/2+y,1/2+z
x,1/2-y,1/2+z
1/2+x,y,1/2+z
1/2-x,-y,1/2+z
1/2-x,y,1/2+z
1/2+x,-y,1/2+z
1/2+x,1/2+y,z
1/2-x,1/2-y,z
1/2-x,1/2+y,z
1/2+x,1/2-y,z
loop_
_atom_site_type_symbol
_atom_site_label
_atom_site_fract_x
_atom_site_fract_y
_atom_site_fract_z
Si Si1 0.179700 0.175658 0.559680
Si Si2 0.181618 0.173367 0.438551
Si Si3 0.080965 0.167477 0.744803
Si Si4 0.580231 0.827359 0.639106
Si Si5 0.577987 0.673995 0.349839
O O1 0.250000 0.250000 0.579092
O O2 0.165010 0.219301 0.498765
O O3 0.116793 0.240458 0.592078
O O4 0.184674 0.000000 0.568198
O O5 0.250000 0.250000 0.417855
O O6 0.119416 0.225068 0.401586
O O7 0.194048 0.000000 0.434065
O O8 0.107123 0.261956 0.694789
O O9 0.108338 0.241364 0.798791
O O10 0.000000 0.169759 0.745747
O O11 0.109198 0.000000 0.740359
O O12 0.500000 0.800849 0.632209
O O13 0.599208 0.000000 0.637005
O O14 0.500000 0.718622 0.360580
O O15 0.585198 0.500000 0.338521
#
# Coordination Sequence:
#
# PCOD8186277 Si02
#       5
#    16  16  16  16  16
#     4  10  20  35  54  75 102 136 172 210 254 303
#     4   9  19  34  52  73  99 133 167 202 247 297
#     4   9  17  30  49  74 102 131 164 204 252 301
#     4  10  20  34  53  77 104 134 169 210 255 302
#     4   9  17  31  51  74 100 130 165 204 246 294
#
# _framework density 17.945329000000001
#
# number of rings (size 3 to 8) (size 9 to 14) (size 15 to 20)
#    0.000    2.600    0.000    1.800    0.000    6.000 
#    0.000    3.000    0.000    4.800    0.000    0.000 
#    0.000    0.000    0.000    0.000    0.000    0.000 
#
# Total GULP energy -248030.628521 kJ/mol
# GULP energy per Si atom -12401.531426 kJ/mol
# Density = 1.790449 g / cm^3
# Si number density = 17.945329 Si / 1000 Ang^3
#
#
#
# Elastic Constant Matrix: (Units=GPa)
#
#
# Indices 1 2 3 4 5 6 
#
# 1 70.9772 42.8181 61.4441 0.0000 0.0000 0.0000
# 2 42.8181 90.4065 56.2903 0.0000 0.0000 -0.0001
# 3 61.4441 56.2903 122.9231 0.0000 0.0000 0.0000
# 4 0.0000 0.0000 0.0000 32.1436 0.0000 0.0000
# 5 0.0000 0.0000 0.0000 0.0000 10.4290 0.0000
# 6 0.0000 -0.0001 0.0000 0.0000 0.0000 28.3251
#
#
#
# Elastic Compliance Matrix: (Units=1/GPa)
#
#
# Indices 1 2 3 4 5 6 
#
# 1 0.027079 -0.006151 -0.010719 0.000000 0.000000 0.000000
# 2 -0.006151 0.016870 -0.004651 0.000000 0.000000 0.000000
# 3 -0.010719 -0.004651 0.015623 0.000000 0.000000 0.000000
# 4 0.000000 0.000000 0.000000 0.031110 0.000000 0.000000
# 5 0.000000 0.000000 0.000000 0.000000 0.095886 0.000000
# 6 0.000000 0.000000 0.000000 0.000000 0.000000 0.035304
#
#
# Mechanical properties :
#
#
# Convention : Reuss Voigt Hill
#
# Bulk Modulus (GPa) = 60.49402 67.26797 63.88099
# Shear Modulus (GPa) = 18.48948 22.42984 20.45966
#
# Velocity S-wave (km/s) = 3.21335 3.53923 3.38022
# Velocity P-wave (km/s) = 6.89571 7.36667 7.13508
#
# Compressibility (1/GPa) = 0.01653056
#
# Stress axis : x y z
#
# Youngs Moduli (GPa) = 36.92904 59.27654 64.00929
#
# Poissons Ratio (x) = 0.36462 0.68611
# Poissons Ratio (y) = 0.22716 0.29768
# Poissons Ratio (z) = 0.39584 0.27567
#
# Static dielectric constant tensor:
#      x y z
#    x 3.150560 0.000000 0.000000 
#    y 0.000000 3.412500 0.000000 
#    z 0.000000 0.000000 3.500320 
# 
# 
# High freq. dielectric constant tensor:
#      x y z
#    x 1.669180 0.000000 0.000000 
#    y 0.000000 1.703130 0.000000 
#    z 0.000000 0.000000 1.702300 
# 
# From -- ./inp_files/29260.got.cif
#   From: 2010.03.12/outbox.cif.g09.slc.cpg/sg42_15_cif.got.tgz:29260.got - 2010.04.14 02:04:31.
