data_PCOD8186870
_publ_section_title
;
Structure prediction by ZEFSAII (Michael W. Deem and Ramdas Pophale) SiO2 
 PCOD8186870
Probable space group: F M M 2
;
_chemical_formula_sum "Si O2"
_cell_formula_units_Z 64
_cell_length_a 17.540971
_cell_length_b 15.239363
_cell_length_c 10.239090
_cell_angle_alpha 90.000000
_cell_angle_beta 90.000000
_cell_angle_gamma 90.000000
_cell_volume 2737.044163
_symmetry_space_group_name_H-M "F M M 2"
_symmetry_group_IT_number 42
_symmetry_cell_setting 'orthorhombic'
loop_
_space_group_symop_operation_xyz
x,y,z
-x,-y,z
-x,y,z
x,-y,z
x,1/2+y,1/2+z
-x,1/2-y,1/2+z
-x,1/2+y,1/2+z
x,1/2-y,1/2+z
1/2+x,y,1/2+z
1/2-x,-y,1/2+z
1/2-x,y,1/2+z
1/2+x,-y,1/2+z
1/2+x,1/2+y,z
1/2-x,1/2-y,z
1/2-x,1/2+y,z
1/2+x,1/2-y,z
loop_
_atom_site_type_symbol
_atom_site_label
_atom_site_fract_x
_atom_site_fract_y
_atom_site_fract_z
Si Si1 0.589554 0.500000 0.742740
Si Si2 0.911493 0.000000 0.030399
Si Si3 0.909047 0.661235 0.066353
Si Si4 0.287474 0.895603 0.886415
Si Si5 0.324327 0.159663 0.612185
O O1 0.500000 0.500000 0.753192
O O2 0.616058 0.412189 0.670857
O O3 0.627730 0.500000 0.886237
O O4 0.887561 0.084405 0.111282
O O5 0.000000 0.000000 0.010269
O O6 0.869946 0.750071 0.114204
O O7 0.000000 0.672466 0.052086
O O8 0.874301 0.628801 0.928641
O O9 0.274220 0.853973 0.743168
O O10 0.274588 0.000000 0.885829
O O11 0.231113 0.847383 0.987978
#
# Coordination Sequence:
#
# PCOD8186870 Si02
#       5
#     8   8  16  16  16
#     4   9  22  44  72 107 146 190 235 293 366 439
#     4  11  24  44  74 109 149 192 241 307 373 437
#     4  11  26  47  76 110 150 194 246 306 369 437
#     4  12  26  49  74 108 148 198 245 306 368 440
#     4  12  28  48  75 110 150 192 250 305 367 443
#
# _framework density 23.38289
#
# number of rings (size 3 to 8) (size 9 to 14) (size 15 to 20)
#    0.000    0.750    3.750    1.500    7.000    4.000 
#    0.000    0.000    0.000    0.000    0.000    0.000 
#    0.000    0.000    0.000    0.000    0.000    0.000 
#
# Total GULP energy -198415.909950 kJ/mol
# GULP energy per Si atom -12400.994372 kJ/mol
# Density = 2.332967 g / cm^3
# Si number density = 23.382890 Si / 1000 Ang^3
#
#
#
# Elastic Constant Matrix: (Units=GPa)
#
#
# Indices 1 2 3 4 5 6 
#
# 1 116.3141 66.3620 48.8144 0.0000 0.0000 0.0000
# 2 66.3620 193.3874 43.5041 0.0000 0.0000 0.0000
# 3 48.8144 43.5041 136.9063 0.0000 0.0000 0.0000
# 4 0.0000 0.0000 0.0000 31.3889 0.0000 0.0000
# 5 0.0000 0.0000 0.0000 0.0000 36.9489 0.0000
# 6 0.0000 0.0000 0.0000 0.0000 0.0000 38.3185
#
#
#
# Elastic Compliance Matrix: (Units=1/GPa)
#
#
# Indices 1 2 3 4 5 6 
#
# 1 0.011833 -0.003351 -0.003154 0.000000 0.000000 0.000000
# 2 -0.003351 0.006518 -0.000876 0.000000 0.000000 0.000000
# 3 -0.003154 -0.000876 0.008707 0.000000 0.000000 0.000000
# 4 0.000000 0.000000 0.000000 0.031858 0.000000 0.000000
# 5 0.000000 0.000000 0.000000 0.000000 0.027064 0.000000
# 6 0.000000 0.000000 0.000000 0.000000 0.000000 0.026097
#
#
# Mechanical properties :
#
#
# Convention : Reuss Voigt Hill
#
# Bulk Modulus (GPa) = 81.33280 84.88542 83.10911
# Shear Modulus (GPa) = 38.18537 40.52640 39.35589
#
# Velocity S-wave (km/s) = 4.04548 4.16765 4.10702
# Velocity P-wave (km/s) = 7.52860 7.71623 7.62299
#
# Compressibility (1/GPa) = 0.01229516
#
# Stress axis : x y z
#
# Youngs Moduli (GPa) = 84.50884 153.42039 114.84445
#
# Poissons Ratio (x) = 0.51411 0.36225
# Poissons Ratio (y) = 0.28319 0.10065
# Poissons Ratio (z) = 0.26657 0.13446
#
# Static dielectric constant tensor:
#      x y z
#    x 4.269080 0.000000 0.000000 
#    y 0.000000 4.471950 0.000000 
#    z 0.000000 0.000000 4.492320 
# 
# 
# High freq. dielectric constant tensor:
#      x y z
#    x 1.936790 0.000000 0.000000 
#    y 0.000000 1.944930 0.000000 
#    z 0.000000 0.000000 1.925930 
# 
# From -- ./inp_files/3804.got.cif
#   From: 2010.03.12/outbox.cif.g09.slc.cpg/sg42_2_cif.got.tgz:3804.got - 2010.04.14 02:04:31.
