data_PCOD8186754
_publ_section_title
;
Structure prediction by ZEFSAII (Michael W. Deem and Ramdas Pophale) SiO2 
 PCOD8186754
Probable space group: F M M 2
;
_chemical_formula_sum "Si O2"
_cell_formula_units_Z 80
_cell_length_a 13.422452
_cell_length_b 27.004218
_cell_length_c 10.699504
_cell_angle_alpha 90.000000
_cell_angle_beta 90.000000
_cell_angle_gamma 90.000000
_cell_volume 3878.172391
_symmetry_space_group_name_H-M "F M M 2"
_symmetry_group_IT_number 42
_symmetry_cell_setting 'orthorhombic'
loop_
_space_group_symop_operation_xyz
x,y,z
-x,-y,z
-x,y,z
x,-y,z
x,1/2+y,1/2+z
-x,1/2-y,1/2+z
-x,1/2+y,1/2+z
x,1/2-y,1/2+z
1/2+x,y,1/2+z
1/2-x,-y,1/2+z
1/2-x,y,1/2+z
1/2+x,-y,1/2+z
1/2+x,1/2+y,z
1/2-x,1/2-y,z
1/2-x,1/2+y,z
1/2+x,1/2-y,z
loop_
_atom_site_type_symbol
_atom_site_label
_atom_site_fract_x
_atom_site_fract_y
_atom_site_fract_z
Si Si1 0.000000 0.292757 0.107970
Si Si2 0.176138 0.294734 0.286338
Si Si3 0.000000 0.362826 0.704124
Si Si4 0.000000 0.702580 0.466984
Si Si5 0.000000 0.887661 0.466877
Si Si6 0.701426 0.942155 0.961811
Si Si7 0.715843 0.393794 0.208878
O O1 0.100816 0.276825 0.178893
O O2 0.000000 0.262250 0.978673
O O3 0.000000 0.352303 0.088309
O O4 0.250000 0.250000 0.326923
O O5 0.245661 0.338523 0.236066
O O6 0.102723 0.313571 0.398143
O O7 0.000000 0.317389 0.608539
O O8 0.000000 0.348111 0.851455
O O9 0.902250 0.396000 0.685608
O O10 0.911751 0.926157 0.460824
O O11 0.749712 0.926863 0.828250
O O12 0.715429 0.000000 0.982071
O O13 0.745215 0.913792 0.079170
#
# Coordination Sequence:
#
# PCOD8186754 Si02
#       7
#     8  16   8   8   8  16  16
#     4  11  23  41  60  89 127 163 211 258 314 370
#     4  11  25  40  64  93 127 173 211 258 314 384
#     4  10  23  40  62  91 131 167 209 256 318 379
#     4  11  25  38  61  93 132 166 218 257 311 380
#     4  10  22  41  67  89 122 166 208 265 322 381
#     4  11  23  42  67  96 126 166 217 271 325 382
#     4  11  23  42  67  94 132 170 215 264 323 381
#
# _framework density 20.628273
#
# number of rings (size 3 to 8) (size 9 to 14) (size 15 to 20)
#    0.000    1.200    2.000    3.300    8.400    2.400 
#    0.000    1.500    0.000    0.000    0.000    0.000 
#    0.000    0.000    0.000    0.000    0.000    0.000 
#
# Total GULP energy -247833.820268 kJ/mol
# GULP energy per Si atom -12391.691013 kJ/mol
# Density = 2.058132 g / cm^3
# Si number density = 20.628273 Si / 1000 Ang^3
#
#
#
# Elastic Constant Matrix: (Units=GPa)
#
#
# Indices 1 2 3 4 5 6 
#
# 1 112.7143 25.4536 33.1686 0.0000 0.0000 0.0000
# 2 25.4536 93.6422 23.7118 0.0000 0.0000 0.0000
# 3 33.1686 23.7118 83.9773 0.0000 0.0000 0.0000
# 4 0.0000 0.0000 0.0000 31.1874 0.0000 0.0000
# 5 0.0000 0.0000 0.0000 0.0000 11.5533 0.0000
# 6 0.0000 0.0000 0.0000 0.0000 0.0000 10.7618
#
#
#
# Elastic Compliance Matrix: (Units=1/GPa)
#
#
# Indices 1 2 3 4 5 6 
#
# 1 0.010348 -0.001915 -0.003547 0.000000 0.000000 0.000000
# 2 -0.001915 0.011856 -0.002591 0.000000 0.000000 0.000000
# 3 -0.003547 -0.002591 0.014040 0.000000 0.000000 0.000000
# 4 0.000000 0.000000 0.000000 0.032064 0.000000 0.000000
# 5 0.000000 0.000000 0.000000 0.000000 0.086555 0.000000
# 6 0.000000 0.000000 0.000000 0.000000 0.000000 0.092921
#
#
# Mechanical properties :
#
#
# Convention : Reuss Voigt Hill
#
# Bulk Modulus (GPa) = 49.65502 50.55575 50.10538
# Shear Modulus (GPa) = 18.47729 24.56717 21.52223
#
# Velocity S-wave (km/s) = 2.99612 3.45475 3.23358
# Velocity P-wave (km/s) = 6.00771 6.36199 6.18739
#
# Compressibility (1/GPa) = 0.02013895
#
# Stress axis : x y z
#
# Youngs Moduli (GPa) = 96.63684 84.34862 71.22298
#
# Poissons Ratio (x) = 0.16151 0.25259
# Poissons Ratio (y) = 0.18503 0.18456
# Poissons Ratio (z) = 0.34272 0.21857
#
# Static dielectric constant tensor:
#      x y z
#    x 4.829040 0.000000 0.000000 
#    y 0.000000 3.475750 0.000000 
#    z 0.000000 0.000000 4.009170 
# 
# 
# High freq. dielectric constant tensor:
#      x y z
#    x 1.818470 0.000000 0.000000 
#    y 0.000000 1.789420 0.000000 
#    z 0.000000 0.000000 1.821560 
# 
# From -- ./inp_files/7022.got.cif
#   From: 2010.03.12/outbox.cif.g09.slc.cpg/sg42_4_cif.got.tgz:7022.got - 2010.04.14 02:04:31.
