data_PCOD8186253
_publ_section_title
;
Structure prediction by ZEFSAII (Michael W. Deem and Ramdas Pophale) SiO2 
 PCOD8186253
Probable space group: F M M 2
;
_chemical_formula_sum "Si O2"
_cell_formula_units_Z 96
_cell_length_a 8.761607
_cell_length_b 25.593313
_cell_length_c 23.187137
_cell_angle_alpha 90.000000
_cell_angle_beta 90.000000
_cell_angle_gamma 90.000000
_cell_volume 5199.449987
_symmetry_space_group_name_H-M "F M M 2"
_symmetry_group_IT_number 42
_symmetry_cell_setting 'orthorhombic'
loop_
_space_group_symop_operation_xyz
x,y,z
-x,-y,z
-x,y,z
x,-y,z
x,1/2+y,1/2+z
-x,1/2-y,1/2+z
-x,1/2+y,1/2+z
x,1/2-y,1/2+z
1/2+x,y,1/2+z
1/2-x,-y,1/2+z
1/2-x,y,1/2+z
1/2+x,-y,1/2+z
1/2+x,1/2+y,z
1/2-x,1/2-y,z
1/2-x,1/2+y,z
1/2+x,1/2-y,z
loop_
_atom_site_type_symbol
_atom_site_label
_atom_site_fract_x
_atom_site_fract_y
_atom_site_fract_z
Si Si1 0.680740 0.400625 0.177970
Si Si2 0.679713 0.304161 0.874070
Si Si3 0.321730 0.902597 0.447920
Si Si4 0.819402 0.804786 0.743264
Si Si5 0.178923 0.060557 0.563089
Si Si6 0.174476 0.500000 0.367831
Si Si7 0.321050 0.000000 0.746505
O O1 0.500000 0.395147 0.182803
O O2 0.757259 0.348204 0.200417
O O3 0.727321 0.410043 0.112263
O O4 0.746678 0.448562 0.215927
O O5 0.500000 0.298494 0.875240
O O6 0.750000 0.250000 0.896319
O O7 0.733788 0.349727 0.916878
O O8 0.734098 0.317098 0.808873
O O9 0.500000 0.901074 0.464663
O O10 0.220299 0.910270 0.504196
O O11 0.287041 0.949338 0.404547
O O12 0.750000 0.750000 0.722728
O O13 0.000000 0.802249 0.738432
O O14 0.000000 0.065719 0.575133
O O15 0.229752 0.000000 0.559740
O O16 0.282868 0.500000 0.313221
O O17 0.000000 0.500000 0.346576
O O18 0.500000 0.000000 0.737466
#
# Coordination Sequence:
#
# PCOD8186253 Si02
#       7
#    16  16  16  16  16   8   8
#     4  11  22  38  58  82 113 151 192 235 285 340
#     4   9  19  35  57  84 114 149 187 226 276 333
#     4  10  20  36  57  81 110 147 188 228 278 339
#     4  10  20  37  60  87 118 151 190 234 283 340
#     4  11  23  38  57  82 111 148 191 236 286 340
#     4  10  20  33  54  81 111 144 180 228 283 340
#     4  10  22  35  52  81 115 146 182 230 285 340
#
# _framework density 18.463491999999999
#
# number of rings (size 3 to 8) (size 9 to 14) (size 15 to 20)
#    0.000    1.833    1.667    2.500    0.000    5.333 
#    0.000    0.833    0.000    2.000    0.000    0.000 
#    0.000    0.000    0.000    0.000    0.000    0.000 
#
# Total GULP energy -297704.603547 kJ/mol
# GULP energy per Si atom -12404.358481 kJ/mol
# Density = 1.842147 g / cm^3
# Si number density = 18.463492 Si / 1000 Ang^3
#
#
#
# Elastic Constant Matrix: (Units=GPa)
#
#
# Indices 1 2 3 4 5 6 
#
# 1 47.2914 37.2403 24.0213 0.0000 0.0000 0.0000
# 2 37.2403 157.5578 66.4827 0.0000 0.0000 0.0000
# 3 24.0213 66.4827 98.9593 0.0000 0.0000 0.0000
# 4 0.0000 0.0000 0.0000 30.9204 0.0000 0.0000
# 5 0.0000 0.0000 0.0000 0.0000 33.6234 0.0000
# 6 0.0000 0.0000 0.0000 0.0000 0.0000 29.7169
#
#
#
# Elastic Compliance Matrix: (Units=1/GPa)
#
#
# Indices 1 2 3 4 5 6 
#
# 1 0.026655 -0.004982 -0.003123 0.000000 0.000000 0.000000
# 2 -0.004982 0.009789 -0.005367 0.000000 0.000000 0.000000
# 3 -0.003123 -0.005367 0.014469 0.000000 0.000000 0.000000
# 4 0.000000 0.000000 0.000000 0.032341 0.000000 0.000000
# 5 0.000000 0.000000 0.000000 0.000000 0.029741 0.000000
# 6 0.000000 0.000000 0.000000 0.000000 0.000000 0.033651
#
#
# Mechanical properties :
#
#
# Convention : Reuss Voigt Hill
#
# Bulk Modulus (GPa) = 41.72172 62.14413 51.93293
# Shear Modulus (GPa) = 27.53587 30.58975 29.06281
#
# Velocity S-wave (km/s) = 3.86601 4.07476 3.97176
# Velocity P-wave (km/s) = 6.52488 7.47457 7.01581
#
# Compressibility (1/GPa) = 0.02396833
#
# Stress axis : x y z
#
# Youngs Moduli (GPa) = 37.51604 102.15295 69.11339
#
# Poissons Ratio (x) = 0.50897 0.21584
# Poissons Ratio (y) = 0.18692 0.37094
# Poissons Ratio (z) = 0.11716 0.54827
#
# Static dielectric constant tensor:
#      x y z
#    x 3.315320 0.000000 0.000000 
#    y 0.000000 3.552420 0.000000 
#    z 0.000000 0.000000 3.337930 
# 
# 
# High freq. dielectric constant tensor:
#      x y z
#    x 1.715470 0.000000 0.000000 
#    y 0.000000 1.722900 0.000000 
#    z 0.000000 0.000000 1.714600 
# 
# From -- ./inp_files/28089.got.cif
#   From: 2010.03.12/outbox.cif.g09.slc.cpg/sg42_15_cif.got.tgz:28089.got - 2010.04.14 02:04:31.
