data_PCOD8186379
_publ_section_title
;
Structure prediction by ZEFSAII (Michael W. Deem and Ramdas Pophale) SiO2 
 PCOD8186379
Probable space group: F M M 2
;
_chemical_formula_sum "Si O2"
_cell_formula_units_Z 112
_cell_length_a 14.363581
_cell_length_b 28.144926
_cell_length_c 13.951711
_cell_angle_alpha 90.000000
_cell_angle_beta 90.000000
_cell_angle_gamma 90.000000
_cell_volume 5640.145537
_symmetry_space_group_name_H-M "F M M 2"
_symmetry_group_IT_number 42
_symmetry_cell_setting 'orthorhombic'
loop_
_space_group_symop_operation_xyz
x,y,z
-x,-y,z
-x,y,z
x,-y,z
x,1/2+y,1/2+z
-x,1/2-y,1/2+z
-x,1/2+y,1/2+z
x,1/2-y,1/2+z
1/2+x,y,1/2+z
1/2-x,-y,1/2+z
1/2-x,y,1/2+z
1/2+x,-y,1/2+z
1/2+x,1/2+y,z
1/2-x,1/2-y,z
1/2-x,1/2+y,z
1/2+x,1/2-y,z
loop_
_atom_site_type_symbol
_atom_site_label
_atom_site_fract_x
_atom_site_fract_y
_atom_site_fract_z
Si Si1 0.242375 0.444834 0.438020
Si Si2 0.890279 0.610285 0.301869
Si Si3 0.107596 0.783165 0.777460
Si Si4 0.256471 0.103516 0.639642
Si Si5 0.607551 0.905442 0.802203
Si Si6 0.106293 0.305024 0.890410
Si Si7 0.704759 0.798030 0.081336
O O1 0.219158 0.500000 0.434264
O O2 0.155001 0.418263 0.389296
O O3 0.253653 0.429229 0.547379
O O4 0.339307 0.435116 0.383609
O O5 0.873746 0.665889 0.326744
O O6 0.838448 0.597929 0.202081
O O7 0.000000 0.598328 0.291494
O O8 0.154752 0.740920 0.840057
O O9 0.142650 0.781781 0.669689
O O10 0.000000 0.771738 0.769930
O O11 0.345461 0.084918 0.699212
O O12 0.273063 0.158959 0.612005
O O13 0.500000 0.921422 0.800492
O O14 0.620068 0.849586 0.820894
O O15 0.000000 0.293104 0.909850
O O16 0.146874 0.318885 0.993146
O O17 0.750000 0.750000 0.042076
#
# Coordination Sequence:
#
# PCOD8186379 Si02
#       7
#    16  16  16  16  16  16  16
#     4  11  24  42  62  89 122 153 199 260 314 364
#     4   9  21  41  65  89 121 160 199 245 299 360
#     4   9  19  36  55  83 120 155 196 241 286 346
#     4  10  22  39  60  92 123 159 200 249 304 356
#     4  10  22  42  65  89 122 162 204 250 303 361
#     4  10  20  35  57  85 119 160 202 242 288 350
#     4  11  21  31  55  85 119 160 199 237 290 359
#
# _framework density 19.857644000000001
#
# number of rings (size 3 to 8) (size 9 to 14) (size 15 to 20)
#    0.000    2.000    1.429    1.286    2.000    6.286 
#    0.000    0.714    0.000    0.000    0.000    0.000 
#    0.000    0.000    0.000    0.000    0.000    0.000 
#
# Total GULP energy -347166.774354 kJ/mol
# GULP energy per Si atom -12398.813370 kJ/mol
# Density = 1.981245 g / cm^3
# Si number density = 19.857644 Si / 1000 Ang^3
#
#
#
# Elastic Constant Matrix: (Units=GPa)
#
#
# Indices 1 2 3 4 5 6 
#
# 1 78.4509 17.9434 32.3395 0.0000 0.0000 0.0000
# 2 17.9434 77.8134 25.8071 0.0000 0.0000 0.0000
# 3 32.3395 25.8071 119.5183 0.0000 0.0000 0.0000
# 4 0.0000 0.0000 0.0000 18.0511 0.0000 0.0000
# 5 0.0000 0.0000 0.0000 0.0000 22.5577 0.0000
# 6 0.0000 0.0000 0.0000 0.0000 0.0000 20.9674
#
#
#
# Elastic Compliance Matrix: (Units=1/GPa)
#
#
# Indices 1 2 3 4 5 6 
#
# 1 0.014698 -0.002230 -0.003495 0.000000 0.000000 0.000000
# 2 -0.002230 0.014181 -0.002459 0.000000 0.000000 0.000000
# 3 -0.003495 -0.002459 0.009844 0.000000 0.000000 0.000000
# 4 0.000000 0.000000 0.000000 0.055398 0.000000 0.000000
# 5 0.000000 0.000000 0.000000 0.000000 0.044331 0.000000
# 6 0.000000 0.000000 0.000000 0.000000 0.000000 0.047693
#
#
# Mechanical properties :
#
#
# Convention : Reuss Voigt Hill
#
# Bulk Modulus (GPa) = 44.73435 47.55141 46.14288
# Shear Modulus (GPa) = 23.81362 25.62807 24.72084
#
# Velocity S-wave (km/s) = 3.46673 3.59638 3.53215
# Velocity P-wave (km/s) = 6.21295 6.42210 6.31839
#
# Compressibility (1/GPa) = 0.02235419
#
# Stress axis : x y z
#
# Youngs Moduli (GPa) = 68.03747 70.51739 101.58878
#
# Poissons Ratio (x) = 0.15725 0.35510
# Poissons Ratio (y) = 0.15172 0.24977
# Poissons Ratio (z) = 0.23782 0.17338
#
# Static dielectric constant tensor:
#      x y z
#    x 3.603310 0.000000 0.000000 
#    y 0.000000 3.625170 0.000000 
#    z 0.000000 0.000000 3.628430 
# 
# 
# High freq. dielectric constant tensor:
#      x y z
#    x 1.768120 0.000000 0.000000 
#    y 0.000000 1.768700 0.000000 
#    z 0.000000 0.000000 1.781150 
# 
# From -- ./inp_files/8114.got.cif
#   From: 2010.03.12/outbox.cif.g09.slc.cpg/sg42_5_cif.got.tgz:8114.got - 2010.04.14 02:04:31.
