data_PCOD8186411
_publ_section_title
;
Structure prediction by ZEFSAII (Michael W. Deem and Ramdas Pophale) SiO2 
 PCOD8186411
Probable space group: F M M 2
;
_chemical_formula_sum "Si O2"
_cell_formula_units_Z 72
_cell_length_a 22.469783
_cell_length_b 12.607181
_cell_length_c 12.293506
_cell_angle_alpha 90.000000
_cell_angle_beta 90.000000
_cell_angle_gamma 90.000000
_cell_volume 3482.512018
_symmetry_space_group_name_H-M "F M M 2"
_symmetry_group_IT_number 42
_symmetry_cell_setting 'orthorhombic'
loop_
_space_group_symop_operation_xyz
x,y,z
-x,-y,z
-x,y,z
x,-y,z
x,1/2+y,1/2+z
-x,1/2-y,1/2+z
-x,1/2+y,1/2+z
x,1/2-y,1/2+z
1/2+x,y,1/2+z
1/2-x,-y,1/2+z
1/2-x,y,1/2+z
1/2+x,-y,1/2+z
1/2+x,1/2+y,z
1/2-x,1/2-y,z
1/2-x,1/2+y,z
1/2+x,1/2-y,z
loop_
_atom_site_type_symbol
_atom_site_label
_atom_site_fract_x
_atom_site_fract_y
_atom_site_fract_z
Si Si1 0.750000 0.750000 0.405591
Si Si2 0.346623 0.620989 0.286940
Si Si3 0.432450 0.197994 0.356707
Si Si4 0.932467 0.380533 0.123159
Si Si5 0.857591 0.188977 0.046267
O O1 0.716814 0.666561 0.326785
O O2 0.794779 0.689727 0.485424
O O3 0.353270 0.500000 0.325626
O O4 0.399411 0.689490 0.338911
O O5 0.351009 0.622630 0.155881
O O6 0.500000 0.226885 0.381117
O O7 0.424762 0.122513 0.253379
O O8 0.404762 0.137268 0.461556
O O9 0.921067 0.500000 0.083525
O O10 0.882462 0.307598 0.068927
O O11 0.000000 0.343550 0.093428
#
# Coordination Sequence:
#
# PCOD8186411 Si02
#       5
#     8  16  16  16  16
#     4  10  22  40  54  76 110 146 186 234 282 330
#     4  10  22  39  58  82 112 146 187 234 280 328
#     4   9  19  36  57  85 121 151 178 221 276 333
#     4   9  18  34  58  88 119 149 181 220 271 332
#     4  10  20  36  57  80 109 145 189 232 274 325
#
# _framework density 20.674731000000001
#
# number of rings (size 3 to 8) (size 9 to 14) (size 15 to 20)
#    0.000    2.444    0.000    1.333    0.000    6.667 
#    0.000   15.556    0.000    0.000    0.000    0.000 
#    0.000    0.000    0.000    0.000    0.000    0.000 
#
# Total GULP energy -223126.779280 kJ/mol
# GULP energy per Si atom -12395.932182 kJ/mol
# Density = 2.062767 g / cm^3
# Si number density = 20.674731 Si / 1000 Ang^3
#
#
#
# Elastic Constant Matrix: (Units=GPa)
#
#
# Indices 1 2 3 4 5 6 
#
# 1 135.9487 15.9882 33.3906 0.0000 0.0000 0.0000
# 2 15.9882 60.1792 -14.3396 0.0000 0.0000 0.0000
# 3 33.3906 -14.3396 94.1498 0.0000 0.0000 0.0000
# 4 0.0000 0.0000 0.0000 10.6010 0.0000 0.0000
# 5 0.0000 0.0000 0.0000 0.0000 35.1323 0.0000
# 6 0.0000 0.0000 0.0000 0.0000 0.0000 20.0819
#
#
#
# Elastic Compliance Matrix: (Units=1/GPa)
#
#
# Indices 1 2 3 4 5 6 
#
# 1 0.008587 -0.003120 -0.003521 0.000000 0.000000 0.000000
# 2 -0.003120 0.018377 0.003906 0.000000 0.000000 0.000000
# 3 -0.003521 0.003906 0.012465 0.000000 0.000000 0.000000
# 4 0.000000 0.000000 0.000000 0.094331 0.000000 0.000000
# 5 0.000000 0.000000 0.000000 0.000000 0.028464 0.000000
# 6 0.000000 0.000000 0.000000 0.000000 0.000000 0.049796
#
#
# Mechanical properties :
#
#
# Convention : Reuss Voigt Hill
#
# Bulk Modulus (GPa) = 29.44848 40.03956 34.74402
# Shear Modulus (GPa) = 21.85213 30.17893 26.01553
#
# Velocity S-wave (km/s) = 3.25460 3.82475 3.55114
# Velocity P-wave (km/s) = 5.32897 6.23806 5.80135
#
# Compressibility (1/GPa) = 0.03395761
#
# Stress axis : x y z
#
# Youngs Moduli (GPa) = 116.44899 54.41682 80.22527
#
# Poissons Ratio (x) = 0.16980 0.28246
# Poissons Ratio (y) = 0.36337 -0.31332
# Poissons Ratio (z) = 0.41000 -0.21253
#
# Static dielectric constant tensor:
#      x y z
#    x 3.824860 0.000000 0.000000 
#    y 0.000000 3.274160 0.000000 
#    z 0.000000 0.000000 4.091750 
# 
# 
# High freq. dielectric constant tensor:
#      x y z
#    x 1.812830 0.000000 0.000000 
#    y 0.000000 1.774910 0.000000 
#    z 0.000000 0.000000 1.833090 
# 
# From -- ./inp_files/12777.got.cif
#   From: 2010.03.12/outbox.cif.g09.slc.cpg/sg42_7_cif.got.tgz:12777.got - 2010.04.14 02:04:31.
