data_PCOD8186681
_publ_section_title
;
Structure prediction by ZEFSAII (Michael W. Deem and Ramdas Pophale) SiO2 
 PCOD8186681
Probable space group: F M M 2
;
_chemical_formula_sum "Si O2"
_cell_formula_units_Z 96
_cell_length_a 27.235774
_cell_length_b 19.951746
_cell_length_c 8.870790
_cell_angle_alpha 90.000000
_cell_angle_beta 90.000000
_cell_angle_gamma 90.000000
_cell_volume 4820.398330
_symmetry_space_group_name_H-M "F M M 2"
_symmetry_group_IT_number 42
_symmetry_cell_setting 'orthorhombic'
loop_
_space_group_symop_operation_xyz
x,y,z
-x,-y,z
-x,y,z
x,-y,z
x,1/2+y,1/2+z
-x,1/2-y,1/2+z
-x,1/2+y,1/2+z
x,1/2-y,1/2+z
1/2+x,y,1/2+z
1/2-x,-y,1/2+z
1/2-x,y,1/2+z
1/2+x,-y,1/2+z
1/2+x,1/2+y,z
1/2-x,1/2-y,z
1/2-x,1/2+y,z
1/2+x,1/2-y,z
loop_
_atom_site_type_symbol
_atom_site_label
_atom_site_fract_x
_atom_site_fract_y
_atom_site_fract_z
Si Si1 0.805745 0.309463 0.681540
Si Si2 0.054017 0.074409 0.325829
Si Si3 0.914621 0.814518 0.117271
Si Si4 0.291027 0.332283 0.537145
Si Si5 0.879818 0.921522 0.604935
Si Si6 0.442691 0.178901 0.278072
O O1 0.858327 0.338593 0.633894
O O2 0.765130 0.349748 0.582988
O O3 0.805792 0.231471 0.637598
O O4 0.795673 0.317055 0.859782
O O5 0.053110 0.127448 0.191531
O O6 0.093579 0.095768 0.448760
O O7 0.000000 0.075198 0.401307
O O8 0.065832 0.000000 0.262563
O O9 0.922329 0.742606 0.190563
O O10 0.933433 0.805756 0.950431
O O11 0.324743 0.393873 0.589426
O O12 0.911084 0.886427 0.735899
O O13 0.877784 0.000000 0.640808
O O14 0.500000 0.166891 0.243834
#
# Coordination Sequence:
#
# PCOD8186681 Si02
#       6
#    16  16  16  16  16  16
#     4  11  22  38  68  95 126 158 206 262 317 381
#     4  10  21  40  64  88 123 170 212 255 316 384
#     4  12  23  41  64  98 129 163 210 270 322 376
#     4  11  22  40  65  99 122 164 208 258 319 380
#     4  11  24  43  64  90 129 171 215 263 316 380
#     4  12  25  39  64  96 130 169 216 267 317 376
#
# _framework density 19.915365999999999
#
# number of rings (size 3 to 8) (size 9 to 14) (size 15 to 20)
#    0.000    0.833    3.333    6.000    2.333    1.667 
#    0.000    1.667    0.000    0.000    0.000    0.000 
#    0.000    0.000    0.000    0.000    0.000    0.000 
#
# Total GULP energy -297629.950316 kJ/mol
# GULP energy per Si atom -12401.247930 kJ/mol
# Density = 1.987004 g / cm^3
# Si number density = 19.915366 Si / 1000 Ang^3
#
#
#
# Elastic Constant Matrix: (Units=GPa)
#
#
# Indices 1 2 3 4 5 6 
#
# 1 136.7466 33.3463 15.1716 0.0001 0.0000 0.0000
# 2 33.3463 100.3750 24.6273 -0.0013 0.0001 0.0001
# 3 15.1716 24.6273 54.2328 -0.0022 0.0003 0.0003
# 4 0.0001 -0.0013 -0.0022 23.0439 0.0002 0.0002
# 5 0.0000 0.0001 0.0003 0.0002 36.2896 0.0000
# 6 0.0000 0.0001 0.0003 0.0002 0.0000 32.3053
#
#
#
# Elastic Compliance Matrix: (Units=1/GPa)
#
#
# Indices 1 2 3 4 5 6 
#
# 1 0.008022 -0.002380 -0.001164 0.000000 0.000000 0.000000
# 2 -0.002380 0.011918 -0.004746 0.000000 0.000000 0.000000
# 3 -0.001164 -0.004746 0.020920 0.000002 0.000000 0.000000
# 4 0.000000 0.000000 0.000002 0.043395 0.000000 0.000000
# 5 0.000000 0.000000 0.000000 0.000000 0.027556 0.000000
# 6 0.000000 0.000000 0.000000 0.000000 0.000000 0.030955
#
#
# Mechanical properties :
#
#
# Convention : Reuss Voigt Hill
#
# Bulk Modulus (GPa) = 41.18467 48.62719 44.90593
# Shear Modulus (GPa) = 29.86177 32.87504 31.36841
#
# Velocity S-wave (km/s) = 3.87645 4.06733 3.97304
# Velocity P-wave (km/s) = 6.38440 6.82111 6.60637
#
# Compressibility (1/GPa) = 0.02428088
#
# Stress axis : x y z
#
# Youngs Moduli (GPa) = 124.65444 83.90905 47.80169
#
# Poissons Ratio (x) = 0.19967 0.05562
# Poissons Ratio (y) = 0.29663 0.22687
# Poissons Ratio (z) = 0.14505 0.39824
#
# Static dielectric constant tensor:
#      x y z
#    x 4.016970 0.000000 0.000000 
#    y 0.000000 3.473150 0.000000 
#    z 0.000000 0.000000 3.603060 
# 
# 
# High freq. dielectric constant tensor:
#      x y z
#    x 1.799950 0.000000 0.000000 
#    y 0.000000 1.761190 0.000000 
#    z 0.000000 0.000000 1.777540 
# 
# From -- ./inp_files/5175.got.cif
#   From: 2010.03.12/outbox.cif.g09.slc.cpg/sg42_3_cif.got.tgz:5175.got - 2010.04.14 02:04:31.
