data_PCOD8186747
_publ_section_title
;
Structure prediction by ZEFSAII (Michael W. Deem and Ramdas Pophale) SiO2 
 PCOD8186747
Probable space group: F M M 2
;
_chemical_formula_sum "Si O2"
_cell_formula_units_Z 96
_cell_length_a 26.556142
_cell_length_b 18.599237
_cell_length_c 9.448569
_cell_angle_alpha 90.000000
_cell_angle_beta 90.000000
_cell_angle_gamma 90.000000
_cell_volume 4666.874795
_symmetry_space_group_name_H-M "F M M 2"
_symmetry_group_IT_number 42
_symmetry_cell_setting 'orthorhombic'
loop_
_space_group_symop_operation_xyz
x,y,z
-x,-y,z
-x,y,z
x,-y,z
x,1/2+y,1/2+z
-x,1/2-y,1/2+z
-x,1/2+y,1/2+z
x,1/2-y,1/2+z
1/2+x,y,1/2+z
1/2-x,-y,1/2+z
1/2-x,y,1/2+z
1/2+x,-y,1/2+z
1/2+x,1/2+y,z
1/2-x,1/2-y,z
1/2-x,1/2+y,z
1/2+x,1/2-y,z
loop_
_atom_site_type_symbol
_atom_site_label
_atom_site_fract_x
_atom_site_fract_y
_atom_site_fract_z
Si Si1 0.621904 0.417747 0.385320
Si Si2 0.442800 0.300155 0.859795
Si Si3 0.263249 0.415817 0.341874
Si Si4 0.280991 0.676758 0.073543
Si Si5 0.606966 0.809232 0.655610
Si Si6 0.057330 0.418438 0.141761
O O1 0.606034 0.500000 0.374965
O O2 0.681397 0.407339 0.410550
O O3 0.604205 0.385347 0.235736
O O4 0.592408 0.383052 0.519290
O O5 0.500000 0.272372 0.842249
O O6 0.405036 0.248283 0.777152
O O7 0.435631 0.378358 0.790381
O O8 0.431819 0.305358 0.026467
O O9 0.247801 0.500000 0.330090
O O10 0.261624 0.379193 0.189701
O O11 0.223149 0.369897 0.430887
O O12 0.250000 0.750000 0.065987
O O13 0.337636 0.703199 0.094650
O O14 0.073748 0.500000 0.171267
O O15 0.000000 0.412667 0.087459
#
# Coordination Sequence:
#
# PCOD8186747 Si02
#       6
#    16  16  16  16  16  16
#     4   9  20  39  61  89 123 162 206 254 312 374
#     4  11  24  41  62  89 123 163 208 259 315 377
#     4  10  22  41  62  89 126 170 212 256 310 380
#     4  11  25  39  64  92 128 163 208 262 315 370
#     4  11  25  39  63  88 125 159 208 255 313 371
#     4   9  19  37  62  90 121 159 206 256 308 370
#
# _framework density 20.570512000000001
#
# number of rings (size 3 to 8) (size 9 to 14) (size 15 to 20)
#    0.000    1.833    0.000    2.500    9.333    4.000 
#    0.000    1.667    0.000    0.000    0.000    0.000 
#    0.000    0.000    0.000    0.000    0.000    0.000 
#
# Total GULP energy -297612.929094 kJ/mol
# GULP energy per Si atom -12400.538712 kJ/mol
# Density = 2.052369 g / cm^3
# Si number density = 20.570512 Si / 1000 Ang^3
#
#
#
# Elastic Constant Matrix: (Units=GPa)
#
#
# Indices 1 2 3 4 5 6 
#
# 1 48.8775 32.4938 29.2816 0.0000 0.0000 0.0000
# 2 32.4938 91.1704 21.9859 0.0000 0.0000 0.0000
# 3 29.2816 21.9859 86.8940 -0.0002 0.0000 0.0000
# 4 0.0000 0.0000 -0.0002 36.1236 0.0000 0.0000
# 5 0.0000 0.0000 0.0000 0.0000 35.0023 0.0000
# 6 0.0000 0.0000 0.0000 0.0000 0.0000 17.2299
#
#
#
# Elastic Compliance Matrix: (Units=1/GPa)
#
#
# Indices 1 2 3 4 5 6 
#
# 1 0.031586 -0.009255 -0.008302 0.000000 0.000000 0.000000
# 2 -0.009255 0.014393 -0.000523 0.000000 0.000000 0.000000
# 3 -0.008302 -0.000523 0.014438 0.000000 0.000000 0.000000
# 4 0.000000 0.000000 0.000000 0.027683 0.000000 0.000000
# 5 0.000000 0.000000 0.000000 0.000000 0.028570 0.000000
# 6 0.000000 0.000000 0.000000 0.000000 0.000000 0.058039
#
#
# Mechanical properties :
#
#
# Convention : Reuss Voigt Hill
#
# Bulk Modulus (GPa) = 41.22570 43.82939 42.52754
# Shear Modulus (GPa) = 22.83579 27.21654 25.02616
#
# Velocity S-wave (km/s) = 3.33546 3.64137 3.49177
# Velocity P-wave (km/s) = 5.90918 6.24761 6.08075
#
# Compressibility (1/GPa) = 0.02425671
#
# Stress axis : x y z
#
# Youngs Moduli (GPa) = 31.65964 69.47686 69.26070
#
# Poissons Ratio (x) = 0.64304 0.57501
# Poissons Ratio (y) = 0.29302 0.03622
# Poissons Ratio (z) = 0.26284 0.03633
#
# Static dielectric constant tensor:
#      x y z
#    x 3.736190 0.000000 0.000000 
#    y 0.000000 3.852150 0.000000 
#    z 0.000000 0.000000 3.753950 
# 
# 
# High freq. dielectric constant tensor:
#      x y z
#    x 1.801270 0.000000 0.000000 
#    y 0.000000 1.812840 0.000000 
#    z 0.000000 0.000000 1.807810 
# 
# From -- ./inp_files/4147.got.cif
#   From: 2010.03.12/outbox.cif.g09.slc.cpg/sg42_3_cif.got.tgz:4147.got - 2010.04.14 02:04:31.
