data_PCOD8186156
_publ_section_title
;
Structure prediction by ZEFSAII (Michael W. Deem and Ramdas Pophale) SiO2 
 PCOD8186156
Probable space group: F M M 2
;
_chemical_formula_sum "Si O2"
_cell_formula_units_Z 80
_cell_length_a 25.839508
_cell_length_b 9.030301
_cell_length_c 18.207504
_cell_angle_alpha 90.000000
_cell_angle_beta 90.000000
_cell_angle_gamma 90.000000
_cell_volume 4248.512308
_symmetry_space_group_name_H-M "F M M 2"
_symmetry_group_IT_number 42
_symmetry_cell_setting 'orthorhombic'
loop_
_space_group_symop_operation_xyz
x,y,z
-x,-y,z
-x,y,z
x,-y,z
x,1/2+y,1/2+z
-x,1/2-y,1/2+z
-x,1/2+y,1/2+z
x,1/2-y,1/2+z
1/2+x,y,1/2+z
1/2-x,-y,1/2+z
1/2-x,y,1/2+z
1/2+x,-y,1/2+z
1/2+x,1/2+y,z
1/2-x,1/2-y,z
1/2-x,1/2+y,z
1/2+x,1/2-y,z
loop_
_atom_site_type_symbol
_atom_site_label
_atom_site_fract_x
_atom_site_fract_y
_atom_site_fract_z
Si Si1 0.000000 0.828046 0.231781
Si Si2 0.197228 0.325905 0.220544
Si Si3 0.198035 0.826448 0.889846
Si Si4 0.598538 0.324382 0.974745
Si Si5 0.500000 0.176410 0.387093
Si Si6 0.897585 0.826239 0.142080
O O1 0.000000 0.731688 0.304428
O O2 0.949738 0.785923 0.184834
O O3 0.000000 0.000000 0.252983
O O4 0.202177 0.500000 0.207840
O O5 0.250000 0.250000 0.192703
O O6 0.187123 0.285683 0.305368
O O7 0.149733 0.264231 0.174696
O O8 0.250000 0.750000 0.918830
O O9 0.150918 0.762582 0.937994
O O10 0.204960 0.000000 0.900768
O O11 0.597750 0.500000 0.969364
O O12 0.550002 0.260360 0.929561
O O13 0.594756 0.272693 0.058625
O O14 0.500000 0.000000 0.385869
O O15 0.884967 0.000000 0.146590
#
# Coordination Sequence:
#
# PCOD8186156 Si02
#       6
#     8  16  16  16   8  16
#     4  10  21  35  53  79 109 140 174 216 266 314
#     4  10  20  35  55  79 106 138 177 219 263 312
#     4   9  18  33  52  74 100 131 170 212 252 300
#     4   9  18  33  54  78 102 132 172 214 257 307
#     4  10  19  35  59  79  99 134 178 220 260 310
#     4  10  20  35  54  77 108 142 175 215 264 317
#
# _framework density 18.830121999999999
#
# number of rings (size 3 to 8) (size 9 to 14) (size 15 to 20)
#    0.000    2.400    0.000    2.400    0.000    6.400 
#    0.000    5.000    0.000    1.200    0.000    0.000 
#    0.000    0.000    0.000    0.000    0.000    0.000 
#
# Total GULP energy -248050.803323 kJ/mol
# GULP energy per Si atom -12402.540166 kJ/mol
# Density = 1.878726 g / cm^3
# Si number density = 18.830122 Si / 1000 Ang^3
#
#
#
# Elastic Constant Matrix: (Units=GPa)
#
#
# Indices 1 2 3 4 5 6 
#
# 1 190.1556 48.0465 94.6842 0.0000 0.0000 0.0000
# 2 48.0465 42.3142 39.5312 0.0000 0.0000 0.0000
# 3 94.6842 39.5312 133.7590 0.0000 0.0000 0.0000
# 4 0.0000 0.0000 0.0000 25.4974 0.0000 0.0000
# 5 0.0000 0.0000 0.0000 0.0000 4.5521 0.0000
# 6 0.0000 0.0000 0.0000 0.0000 0.0000 31.6042
#
#
#
# Elastic Compliance Matrix: (Units=1/GPa)
#
#
# Indices 1 2 3 4 5 6 
#
# 1 0.009092 -0.005955 -0.004676 0.000000 0.000000 0.000000
# 2 -0.005955 0.036547 -0.006586 0.000000 0.000000 0.000000
# 3 -0.004676 -0.006586 0.012732 0.000000 0.000000 0.000000
# 4 0.000000 0.000000 0.000000 0.039220 0.000000 0.000000
# 5 0.000000 0.000000 0.000000 0.000000 0.219681 0.000000
# 6 0.000000 0.000000 0.000000 0.000000 0.000000 0.031641
#
#
# Mechanical properties :
#
#
# Convention : Reuss Voigt Hill
#
# Bulk Modulus (GPa) = 41.77460 81.19473 61.48467
# Shear Modulus (GPa) = 12.77707 24.59520 18.68613
#
# Velocity S-wave (km/s) = 2.60771 3.61801 3.15358
# Velocity P-wave (km/s) = 5.59464 7.78887 6.78110
#
# Compressibility (1/GPa) = 0.02393799
#
# Stress axis : x y z
#
# Youngs Moduli (GPa) = 109.98972 27.36188 78.54007
#
# Poissons Ratio (x) = 0.16294 0.36724
# Poissons Ratio (y) = 0.65500 0.51724
# Poissons Ratio (z) = 0.51429 0.18020
#
# Static dielectric constant tensor:
#      x y z
#    x 3.809990 0.000000 0.000000 
#    y 0.000000 3.182740 0.000000 
#    z 0.000000 0.000000 3.523250 
# 
# 
# High freq. dielectric constant tensor:
#      x y z
#    x 1.750600 0.000000 0.000000 
#    y 0.000000 1.704220 0.000000 
#    z 0.000000 0.000000 1.735820 
# 
# From -- ./inp_files/16930.got.cif
#   From: 2010.03.12/outbox.cif.g09.slc.cpg/sg42_9_cif.got.tgz:16930.got - 2010.04.14 02:04:31.
