data_PCOD8186321
_publ_section_title
;
Structure prediction by ZEFSAII (Michael W. Deem and Ramdas Pophale) SiO2 
 PCOD8186321
Probable space group: F M M 2
;
_chemical_formula_sum "Si O2"
_cell_formula_units_Z 80
_cell_length_a 8.760066
_cell_length_b 15.740554
_cell_length_c 28.624210
_cell_angle_alpha 90.000000
_cell_angle_beta 90.000000
_cell_angle_gamma 90.000000
_cell_volume 3946.943424
_symmetry_space_group_name_H-M "F M M 2"
_symmetry_group_IT_number 42
_symmetry_cell_setting 'orthorhombic'
loop_
_space_group_symop_operation_xyz
x,y,z
-x,-y,z
-x,y,z
x,-y,z
x,1/2+y,1/2+z
-x,1/2-y,1/2+z
-x,1/2+y,1/2+z
x,1/2-y,1/2+z
1/2+x,y,1/2+z
1/2-x,-y,1/2+z
1/2-x,y,1/2+z
1/2+x,-y,1/2+z
1/2+x,1/2+y,z
1/2-x,1/2-y,z
1/2-x,1/2+y,z
1/2+x,1/2-y,z
loop_
_atom_site_type_symbol
_atom_site_label
_atom_site_fract_x
_atom_site_fract_y
_atom_site_fract_z
Si Si1 0.318767 0.000000 0.571331
Si Si2 0.680545 0.000000 0.172308
Si Si3 0.179339 0.162091 0.222820
Si Si4 0.819579 0.159938 0.009748
Si Si5 0.673770 0.095775 0.309807
Si Si6 0.321494 0.337362 0.906028
O O1 0.267020 0.083960 0.543239
O O2 0.500000 0.000000 0.580775
O O3 0.224429 0.000000 0.618416
O O4 0.747421 0.915473 0.195131
O O5 0.500000 0.000000 0.178988
O O6 0.250000 0.250000 0.203736
O O7 0.216559 0.153305 0.278025
O O8 0.000000 0.162629 0.214299
O O9 0.750000 0.250000 0.026254
O O10 0.000000 0.169457 0.011043
O O11 0.760248 0.135665 0.957313
O O12 0.500000 0.128750 0.303780
O O13 0.721211 0.097170 0.364643
O O14 0.688579 0.000000 0.291661
O O15 0.500000 0.325501 0.910517
O O16 0.250000 0.250000 0.889329
#
# Coordination Sequence:
#
# PCOD8186321 Si02
#       6
#     8   8  16  16  16  16
#     4  10  22  40  63  88 117 155 198 249 307 368
#     4  12  26  46  67  92 123 155 200 257 313 372
#     4  12  25  43  67  93 124 162 204 251 306 367
#     4   9  19  36  59  86 120 158 202 247 295 353
#     4  10  20  34  56  87 125 164 206 250 296 354
#     4   9  18  32  52  81 116 159 203 245 290 347
#
# _framework density 20.26885
#
# number of rings (size 3 to 8) (size 9 to 14) (size 15 to 20)
#    0.000    1.800    1.000    3.300    1.400    4.000 
#    0.000    2.000    0.000    0.000    0.000    0.000 
#    0.000    0.000    0.000    0.000    0.000    0.000 
#
# Total GULP energy -247954.421014 kJ/mol
# GULP energy per Si atom -12397.721051 kJ/mol
# Density = 2.022272 g / cm^3
# Si number density = 20.268850 Si / 1000 Ang^3
#
#
#
# Elastic Constant Matrix: (Units=GPa)
#
#
# Indices 1 2 3 4 5 6 
#
# 1 94.1895 57.9719 48.6467 0.0000 0.0000 0.0000
# 2 57.9719 152.7429 70.5041 0.0000 0.0000 0.0000
# 3 48.6467 70.5041 119.6540 0.0000 0.0000 0.0000
# 4 0.0000 0.0000 0.0000 22.9128 0.0000 0.0000
# 5 0.0000 0.0000 0.0000 0.0000 31.6777 0.0000
# 6 0.0000 0.0000 0.0000 0.0000 0.0000 33.3387
#
#
#
# Elastic Compliance Matrix: (Units=1/GPa)
#
#
# Indices 1 2 3 4 5 6 
#
# 1 0.014995 -0.003952 -0.003768 0.000000 0.000000 0.000000
# 2 -0.003952 0.010034 -0.004306 0.000000 0.000000 0.000000
# 3 -0.003768 -0.004306 0.012426 0.000000 0.000000 0.000000
# 4 0.000000 0.000000 0.000000 0.043644 0.000000 0.000000
# 5 0.000000 0.000000 0.000000 0.000000 0.031568 0.000000
# 6 0.000000 0.000000 0.000000 0.000000 0.000000 0.029995
#
#
# Mechanical properties :
#
#
# Convention : Reuss Voigt Hill
#
# Bulk Modulus (GPa) = 74.60098 80.09241 77.34669
# Shear Modulus (GPa) = 29.20852 30.21675 29.71264
#
# Velocity S-wave (km/s) = 3.80024 3.86527 3.83290
# Velocity P-wave (km/s) = 7.49276 7.71500 7.60469
#
# Compressibility (1/GPa) = 0.01340465
#
# Stress axis : x y z
#
# Youngs Moduli (GPa) = 66.68739 99.65649 80.47376
#
# Poissons Ratio (x) = 0.39386 0.30321
# Poissons Ratio (y) = 0.26356 0.34651
# Poissons Ratio (z) = 0.25126 0.42911
#
# Static dielectric constant tensor:
#      x y z
#    x 3.544200 0.000000 0.000000 
#    y 0.000000 3.701820 0.000000 
#    z 0.000000 0.000000 3.905390 
# 
# 
# High freq. dielectric constant tensor:
#      x y z
#    x 1.778680 0.000000 0.000000 
#    y 0.000000 1.795720 0.000000 
#    z 0.000000 0.000000 1.798070 
# 
# From -- ./inp_files/31330.got.cif
#   From: 2010.03.12/outbox.cif.g09.slc.cpg/sg42_16_cif.got.tgz:31330.got - 2010.04.14 02:04:31.
