data_PCOD8186541
_publ_section_title
;
Structure prediction by ZEFSAII (Michael W. Deem and Ramdas Pophale) SiO2 
 PCOD8186541
Probable space group: F M M 2
;
_chemical_formula_sum "Si O2"
_cell_formula_units_Z 88
_cell_length_a 17.369796
_cell_length_b 27.612803
_cell_length_c 8.650958
_cell_angle_alpha 90.000000
_cell_angle_beta 90.000000
_cell_angle_gamma 90.000000
_cell_volume 4149.248216
_symmetry_space_group_name_H-M "F M M 2"
_symmetry_group_IT_number 42
_symmetry_cell_setting 'orthorhombic'
loop_
_space_group_symop_operation_xyz
x,y,z
-x,-y,z
-x,y,z
x,-y,z
x,1/2+y,1/2+z
-x,1/2-y,1/2+z
-x,1/2+y,1/2+z
x,1/2-y,1/2+z
1/2+x,y,1/2+z
1/2-x,-y,1/2+z
1/2-x,y,1/2+z
1/2+x,-y,1/2+z
1/2+x,1/2+y,z
1/2-x,1/2-y,z
1/2-x,1/2+y,z
1/2+x,1/2-y,z
loop_
_atom_site_type_symbol
_atom_site_label
_atom_site_fract_x
_atom_site_fract_y
_atom_site_fract_z
Si Si1 0.500000 0.420208 0.115750
Si Si2 0.130494 0.000000 0.620398
Si Si3 0.911912 0.223988 0.921191
Si Si4 0.500000 0.000000 0.870725
Si Si5 0.586921 0.816776 0.086906
Si Si6 0.845451 0.370001 0.535474
Si Si7 0.806232 0.601423 0.191169
Si Si8 0.500000 0.000000 0.365479
O O1 0.500000 0.451822 0.269498
O O2 0.424307 0.387827 0.111054
O O3 0.500000 0.451798 0.962889
O O4 0.184882 0.047055 0.626684
O O5 0.076896 0.000000 0.768219
O O6 0.078317 0.000000 0.468134
O O7 0.887435 0.279808 0.951366
O O8 0.854568 0.187502 0.009994
O O9 0.000000 0.215810 0.978007
O O10 0.904721 0.214982 0.740489
O O11 0.500000 0.835514 0.063693
O O12 0.638479 0.864453 0.089172
O O13 0.826295 0.396077 0.372479
O O14 0.780443 0.381052 0.661799
#
# Coordination Sequence:
#
# PCOD8186541 Si02
#       8
#     8   8  16   4  16  16  16   4
#     4  11  22  46  68  94 128 169 227 260 329 386
#     4  11  24  44  64  98 133 169 217 270 325 377
#     4   9  18  38  64  93 126 168 214 263 323 388
#     4  10  28  40  68  98 128 166 228 280 308 394
#     4   9  20  38  63  95 127 168 216 265 322 389
#     4  11  24  43  68  95 132 175 215 272 325 393
#     4  11  26  41  66  96 135 173 220 269 329 382
#     4  10  20  40  76  88 110 186 216 256 316 388
#
# _framework density 21.208662
#
# number of rings (size 3 to 8) (size 9 to 14) (size 15 to 20)
#    0.000    1.818    2.727    0.000    6.364    4.364 
#    0.000    3.636    0.000    0.000    0.000    0.000 
#    0.000    0.000    0.000    0.000    0.000    0.000 
#
# Total GULP energy -272838.166097 kJ/mol
# GULP energy per Si atom -12401.734823 kJ/mol
# Density = 2.116039 g / cm^3
# Si number density = 21.208662 Si / 1000 Ang^3
#
#
#
# Elastic Constant Matrix: (Units=GPa)
#
#
# Indices 1 2 3 4 5 6 
#
# 1 114.5673 36.8047 17.3252 0.0000 0.0000 0.0000
# 2 36.8047 113.3862 14.8231 0.0000 0.0000 0.0000
# 3 17.3252 14.8231 51.1046 0.0000 0.0000 0.0000
# 4 0.0000 0.0000 0.0000 39.8836 0.0000 0.0000
# 5 0.0000 0.0000 0.0000 0.0000 88.0151 0.0000
# 6 0.0000 0.0000 0.0000 0.0000 0.0000 37.1049
#
#
#
# Elastic Compliance Matrix: (Units=1/GPa)
#
#
# Indices 1 2 3 4 5 6 
#
# 1 0.010057 -0.002930 -0.002560 0.000000 0.000000 0.000000
# 2 -0.002930 0.010021 -0.001913 0.000000 0.000000 0.000000
# 3 -0.002560 -0.001913 0.020990 0.000000 0.000000 0.000000
# 4 0.000000 0.000000 0.000000 0.025073 0.000000 0.000000
# 5 0.000000 0.000000 0.000000 0.000000 0.011362 0.000000
# 6 0.000000 0.000000 0.000000 0.000000 0.000000 0.026951
#
#
# Mechanical properties :
#
#
# Convention : Reuss Voigt Hill
#
# Bulk Modulus (GPa) = 38.07718 46.32934 42.20326
# Shear Modulus (GPa) = 39.05873 47.00772 43.03322
#
# Velocity S-wave (km/s) = 4.29609 4.71302 4.50937
# Velocity P-wave (km/s) = 6.52695 7.17695 6.85965
#
# Compressibility (1/GPa) = 0.02626245
#
# Stress axis : x y z
#
# Youngs Moduli (GPa) = 99.43574 99.79516 47.64080
#
# Poissons Ratio (x) = 0.29238 0.12194
# Poissons Ratio (y) = 0.29132 0.09115
# Poissons Ratio (z) = 0.25452 0.19093
#
# Static dielectric constant tensor:
#      x y z
#    x 3.685750 0.000000 0.000000 
#    y 0.000000 3.894700 0.000000 
#    z 0.000000 0.000000 3.761980 
# 
# 
# High freq. dielectric constant tensor:
#      x y z
#    x 1.825210 0.000000 0.000000 
#    y 0.000000 1.838440 0.000000 
#    z 0.000000 0.000000 1.827410 
# 
# From -- ./inp_files/3671.got.cif
#   From: 2010.03.12/outbox.cif.g09.slc.cpg/sg42_2_cif.got.tgz:3671.got - 2010.04.14 02:04:31.
