data_PCOD8186690
_publ_section_title
;
Structure prediction by ZEFSAII (Michael W. Deem and Ramdas Pophale) SiO2 
 PCOD8186690
Probable space group: F M M 2
;
_chemical_formula_sum "Si O2"
_cell_formula_units_Z 112
_cell_length_a 15.393161
_cell_length_b 27.615312
_cell_length_c 11.964919
_cell_angle_alpha 90.000000
_cell_angle_beta 90.000000
_cell_angle_gamma 90.000000
_cell_volume 5086.130849
_symmetry_space_group_name_H-M "F M M 2"
_symmetry_group_IT_number 42
_symmetry_cell_setting 'orthorhombic'
loop_
_space_group_symop_operation_xyz
x,y,z
-x,-y,z
-x,y,z
x,-y,z
x,1/2+y,1/2+z
-x,1/2-y,1/2+z
-x,1/2+y,1/2+z
x,1/2-y,1/2+z
1/2+x,y,1/2+z
1/2-x,-y,1/2+z
1/2-x,y,1/2+z
1/2+x,-y,1/2+z
1/2+x,1/2+y,z
1/2-x,1/2-y,z
1/2-x,1/2+y,z
1/2+x,1/2-y,z
loop_
_atom_site_type_symbol
_atom_site_label
_atom_site_fract_x
_atom_site_fract_y
_atom_site_fract_z
Si Si1 0.760280 0.554565 0.861760
Si Si2 0.162675 0.127350 0.529918
Si Si3 0.099753 0.307316 0.836583
Si Si4 0.099872 0.054112 0.168402
Si Si5 0.840743 0.846573 0.106073
Si Si6 0.900025 0.109448 0.765200
Si Si7 0.599528 0.296712 0.893772
O O1 0.749102 0.500000 0.900760
O O2 0.836907 0.560702 0.772718
O O3 0.667134 0.570142 0.811837
O O4 0.789607 0.582572 0.971645
O O5 0.106934 0.159187 0.445320
O O6 0.239229 0.159421 0.582394
O O7 0.101186 0.109533 0.630439
O O8 0.148825 0.332046 0.734429
O O9 0.143319 0.254954 0.863645
O O10 0.000000 0.302931 0.802436
O O11 0.123595 0.098169 0.084006
O O12 0.000000 0.060070 0.208464
O O13 0.112776 0.000000 0.114849
O O14 0.889971 0.809890 0.024035
O O15 0.864789 0.160480 0.814985
O O16 0.000000 0.098536 0.802962
O O17 0.500000 0.289164 0.866768
#
# Coordination Sequence:
#
# PCOD8186690 Si02
#       7
#    16  16  16  16  16  16  16
#     4  11  24  45  69  99 140 180 228 284 348 417
#     4  12  24  43  66 104 135 181 226 289 345 408
#     4  11  25  45  69  97 134 185 237 282 341 411
#     4  10  21  40  70 102 133 177 235 292 343 402
#     4  12  23  43  70  98 140 175 230 291 348 414
#     4  11  24  46  69  98 143 184 229 284 346 415
#     4  10  24  44  67  99 136 182 234 287 342 406
#
# _framework density 22.020669000000002
#
# number of rings (size 3 to 8) (size 9 to 14) (size 15 to 20)
#    0.000    1.000    4.286    1.714    2.000    2.571 
#    0.000    0.000    0.000    0.000    0.000    0.000 
#    0.000    0.000    0.000    0.000    0.000    0.000 
#
# Total GULP energy -347158.281790 kJ/mol
# GULP energy per Si atom -12398.510064 kJ/mol
# Density = 2.197055 g / cm^3
# Si number density = 22.020669 Si / 1000 Ang^3
#
#
#
# Elastic Constant Matrix: (Units=GPa)
#
#
# Indices 1 2 3 4 5 6 
#
# 1 84.8401 22.9502 9.1978 0.0000 0.0000 0.0000
# 2 22.9502 122.5618 27.9405 0.0000 0.0000 0.0000
# 3 9.1978 27.9405 78.7082 0.0000 0.0000 0.0000
# 4 0.0000 0.0000 0.0000 25.1881 0.0000 0.0000
# 5 0.0000 0.0000 0.0000 0.0000 35.2927 0.0000
# 6 0.0000 0.0000 0.0000 0.0000 0.0000 24.0691
#
#
#
# Elastic Compliance Matrix: (Units=1/GPa)
#
#
# Indices 1 2 3 4 5 6 
#
# 1 0.012449 -0.002176 -0.000683 0.000000 0.000000 0.000000
# 2 -0.002176 0.009258 -0.003032 0.000000 0.000000 0.000000
# 3 -0.000683 -0.003032 0.013861 0.000000 0.000000 0.000000
# 4 0.000000 0.000000 0.000000 0.039701 0.000000 0.000000
# 5 0.000000 0.000000 0.000000 0.000000 0.028335 0.000000
# 6 0.000000 0.000000 0.000000 0.000000 0.000000 0.041547
#
#
# Mechanical properties :
#
#
# Convention : Reuss Voigt Hill
#
# Bulk Modulus (GPa) = 42.03816 45.14301 43.59059
# Shear Modulus (GPa) = 30.32856 31.97809 31.15332
#
# Velocity S-wave (km/s) = 3.71519 3.81489 3.76537
# Velocity P-wave (km/s) = 6.12661 6.32055 6.22433
#
# Compressibility (1/GPa) = 0.02378791
#
# Stress axis : x y z
#
# Youngs Moduli (GPa) = 80.32518 108.01718 72.14330
#
# Poissons Ratio (x) = 0.23500 0.04924
# Poissons Ratio (y) = 0.17476 0.21875
# Poissons Ratio (z) = 0.05482 0.32753
#
# Static dielectric constant tensor:
#      x y z
#    x 3.919230 0.000000 0.000000 
#    y 0.000000 4.467860 0.000000 
#    z 0.000000 0.000000 3.836560 
# 
# 
# High freq. dielectric constant tensor:
#      x y z
#    x 1.873170 0.000000 0.000000 
#    y 0.000000 1.870720 0.000000 
#    z 0.000000 0.000000 1.861510 
# 
# From -- ./inp_files/8115.got.cif
#   From: 2010.03.12/outbox.cif.g09.slc.cpg/sg42_5_cif.got.tgz:8115.got - 2010.04.14 02:04:31.
