data_PCOD8186265
_publ_section_title
;
Structure prediction by ZEFSAII (Michael W. Deem and Ramdas Pophale) SiO2 
 PCOD8186265
Probable space group: F M M 2
;
_chemical_formula_sum "Si O2"
_cell_formula_units_Z 128
_cell_length_a 28.409684
_cell_length_b 9.666118
_cell_length_c 25.079343
_cell_angle_alpha 90.000000
_cell_angle_beta 90.000000
_cell_angle_gamma 90.000000
_cell_volume 6887.072436
_symmetry_space_group_name_H-M "F M M 2"
_symmetry_group_IT_number 42
_symmetry_cell_setting 'orthorhombic'
loop_
_space_group_symop_operation_xyz
x,y,z
-x,-y,z
-x,y,z
x,-y,z
x,1/2+y,1/2+z
-x,1/2-y,1/2+z
-x,1/2+y,1/2+z
x,1/2-y,1/2+z
1/2+x,y,1/2+z
1/2-x,-y,1/2+z
1/2-x,y,1/2+z
1/2+x,-y,1/2+z
1/2+x,1/2+y,z
1/2-x,1/2-y,z
1/2-x,1/2+y,z
1/2+x,1/2-y,z
loop_
_atom_site_type_symbol
_atom_site_label
_atom_site_fract_x
_atom_site_fract_y
_atom_site_fract_z
Si Si1 0.947987 0.745193 0.468650
Si Si2 0.649039 0.149571 0.451408
Si Si3 0.448963 0.840326 0.086041
Si Si4 0.202358 0.663747 0.234671
Si Si5 0.853782 0.662920 0.131673
Si Si6 0.136863 0.657854 0.331147
Si Si7 0.703112 0.664291 0.528478
Si Si8 0.552483 0.654819 0.353495
O O1 0.906984 0.632049 0.462008
O O2 0.939579 0.829854 0.522900
O O3 0.943273 0.846073 0.417776
O O4 0.000000 0.674512 0.469261
O O5 0.659417 0.178038 0.389344
O O6 0.668030 0.281253 0.483103
O O7 0.671417 0.000000 0.467797
O O8 0.500000 0.771772 0.100903
O O9 0.405573 0.770766 0.119095
O O10 0.451303 0.000000 0.100989
O O11 0.213642 0.500000 0.230337
O O12 0.250000 0.750000 0.230066
O O13 0.167166 0.713410 0.187655
O O14 0.176871 0.703714 0.289566
O O15 0.860144 0.500000 0.131089
O O16 0.817273 0.705591 0.085799
O O17 0.121944 0.500000 0.320525
O O18 0.089718 0.747057 0.323981
O O19 0.710879 0.500000 0.521725
O O20 0.750000 0.750000 0.520103
O O21 0.500000 0.703067 0.336568
O O22 0.562379 0.500000 0.333584
#
# Coordination Sequence:
#
# PCOD8186265 Si02
#       8
#    16  16  16  16  16  16  16  16
#     4   9  16  27  47  75 109 146 180 212 250 302
#     4  10  20  34  51  76 110 144 175 212 262 318
#     4   9  15  25  46  77 110 139 169 208 254 304
#     4  10  21  39  60  79 101 131 178 231 273 319
#     4   9  18  33  54  79 106 135 171 216 265 314
#     4   9  20  36  53  76 107 140 177 221 267 316
#     4  11  22  36  54  77 105 136 172 215 269 326
#     4   9  17  29  49  79 111 144 182 219 256 307
#
# _framework density 18.585546000000001
#
# number of rings (size 3 to 8) (size 9 to 14) (size 15 to 20)
#    0.000    2.500    1.250    1.125    0.000    5.000 
#    0.000    5.000    0.000    2.250    0.000    0.000 
#    0.000    0.000    0.000    0.000    0.000    0.000 
#
# Total GULP energy -396534.125432 kJ/mol
# GULP energy per Si atom -12391.691420 kJ/mol
# Density = 1.854324 g / cm^3
# Si number density = 18.585546 Si / 1000 Ang^3
#
#
#
# Elastic Constant Matrix: (Units=GPa)
#
#
# Indices 1 2 3 4 5 6 
#
# 1 132.6572 39.3278 60.1218 0.0000 0.0000 0.0000
# 2 39.3278 63.3621 26.3424 0.0000 0.0000 0.0000
# 3 60.1218 26.3424 96.1206 0.0000 0.0000 0.0000
# 4 0.0000 0.0000 0.0000 18.9634 0.0000 0.0000
# 5 0.0000 0.0000 0.0000 0.0000 30.0535 0.0000
# 6 0.0000 0.0000 0.0000 0.0000 0.0000 28.9687
#
#
#
# Elastic Compliance Matrix: (Units=1/GPa)
#
#
# Indices 1 2 3 4 5 6 
#
# 1 0.011662 -0.004746 -0.005993 0.000000 0.000000 0.000000
# 2 -0.004746 0.019744 -0.002442 0.000000 0.000000 0.000000
# 3 -0.005993 -0.002442 0.014822 0.000000 0.000000 0.000000
# 4 0.000000 0.000000 0.000000 0.052733 0.000000 0.000000
# 5 0.000000 0.000000 0.000000 0.000000 0.033274 0.000000
# 6 0.000000 0.000000 0.000000 0.000000 0.000000 0.034520
#
#
# Mechanical properties :
#
#
# Convention : Reuss Voigt Hill
#
# Bulk Modulus (GPa) = 50.34450 60.41378 55.37914
# Shear Modulus (GPa) = 25.03270 26.68698 25.85984
#
# Velocity S-wave (km/s) = 3.67398 3.79344 3.73419
# Velocity P-wave (km/s) = 6.71895 7.19467 6.96088
#
# Compressibility (1/GPa) = 0.01986314
#
# Stress axis : x y z
#
# Youngs Moduli (GPa) = 85.75126 50.64928 67.46919
#
# Poissons Ratio (x) = 0.24041 0.40437
# Poissons Ratio (y) = 0.40702 0.16476
# Poissons Ratio (z) = 0.51394 0.12369
#
# Static dielectric constant tensor:
#      x y z
#    x 3.735570 0.000000 0.000000 
#    y 0.000000 3.109370 0.000000 
#    z 0.000000 0.000000 3.415480 
# 
# 
# High freq. dielectric constant tensor:
#      x y z
#    x 1.733150 0.000000 0.000000 
#    y 0.000000 1.691580 0.000000 
#    z 0.000000 0.000000 1.705190 
# 
# From -- ./inp_files/30782.got.cif
#   From: 2010.03.12/outbox.cif.g09.slc.cpg/sg42_16_cif.got.tgz:30782.got - 2010.04.14 02:04:31.
