data_PCOD8186282
_publ_section_title
;
Structure prediction by ZEFSAII (Michael W. Deem and Ramdas Pophale) SiO2 
 PCOD8186282
Probable space group: F M M 2
;
_chemical_formula_sum "Si O2"
_cell_formula_units_Z 96
_cell_length_a 18.587022
_cell_length_b 8.830519
_cell_length_c 30.803436
_cell_angle_alpha 90.000000
_cell_angle_beta 90.000000
_cell_angle_gamma 90.000000
_cell_volume 5055.861930
_symmetry_space_group_name_H-M "F M M 2"
_symmetry_group_IT_number 42
_symmetry_cell_setting 'orthorhombic'
loop_
_space_group_symop_operation_xyz
x,y,z
-x,-y,z
-x,y,z
x,-y,z
x,1/2+y,1/2+z
-x,1/2-y,1/2+z
-x,1/2+y,1/2+z
x,1/2-y,1/2+z
1/2+x,y,1/2+z
1/2-x,-y,1/2+z
1/2-x,y,1/2+z
1/2+x,-y,1/2+z
1/2+x,1/2+y,z
1/2-x,1/2-y,z
1/2-x,1/2+y,z
1/2+x,1/2-y,z
loop_
_atom_site_type_symbol
_atom_site_label
_atom_site_fract_x
_atom_site_fract_y
_atom_site_fract_z
Si Si1 0.416560 0.175037 0.237240
Si Si2 0.081593 0.820835 0.394283
Si Si3 0.326943 0.319950 0.064191
Si Si4 0.671907 0.178618 0.812584
Si Si5 0.417544 0.323149 0.982291
Si Si6 0.173874 0.822804 0.653085
O O1 0.500000 0.220321 0.236618
O O2 0.375944 0.278764 0.271481
O O3 0.384447 0.208936 0.189990
O O4 0.405483 0.000000 0.249943
O O5 0.131901 0.759809 0.355615
O O6 0.113425 0.758983 0.439545
O O7 0.000000 0.760542 0.386862
O O8 0.082187 0.000000 0.395616
O O9 0.322628 0.500000 0.067609
O O10 0.250000 0.250000 0.054270
O O11 0.357064 0.253344 0.109334
O O12 0.377446 0.265369 0.025106
O O13 0.750000 0.250000 0.808728
O O14 0.680882 0.000000 0.814009
O O15 0.500000 0.278431 0.988924
O O16 0.406155 0.500000 0.975274
O O17 0.250000 0.750000 0.666663
O O18 0.186348 0.000000 0.645014
#
# Coordination Sequence:
#
# PCOD8186282 Si02
#       6
#    16  16  16  16  16  16
#     4  10  22  39  58  82 111 142 178 221 269 322
#     4   9  19  36  56  78 105 138 177 220 265 315
#     4  10  20  34  53  77 106 139 176 218 263 313
#     4  11  23  38  57  82 111 143 181 223 268 320
#     4   9  19  35  54  77 105 138 176 217 262 313
#     4  10  20  35  55  78 106 140 178 219 264 315
#
# _framework density 18.987860999999999
#
# number of rings (size 3 to 8) (size 9 to 14) (size 15 to 20)
#    0.000    2.167    0.000    3.500    0.000    7.667 
#    0.000    5.000    0.000    0.000    0.000    0.000 
#    0.000    0.000    0.000    0.000    0.000    0.000 
#
# Total GULP energy -297655.444927 kJ/mol
# GULP energy per Si atom -12402.310205 kJ/mol
# Density = 1.894464 g / cm^3
# Si number density = 18.987861 Si / 1000 Ang^3
#
#
#
# Elastic Constant Matrix: (Units=GPa)
#
#
# Indices 1 2 3 4 5 6 
#
# 1 111.1877 38.1267 83.2986 0.0000 0.0000 0.0000
# 2 38.1267 64.3343 50.7317 0.0000 0.0000 0.0000
# 3 83.2986 50.7317 157.3444 0.0000 0.0000 0.0000
# 4 0.0000 0.0000 0.0000 35.0173 0.0000 0.0000
# 5 0.0000 0.0000 0.0000 0.0000 42.5210 0.0000
# 6 0.0000 0.0000 0.0000 0.0000 0.0000 21.0058
#
#
#
# Elastic Compliance Matrix: (Units=1/GPa)
#
#
# Indices 1 2 3 4 5 6 
#
# 1 0.015518 -0.003645 -0.007040 0.000000 0.000000 0.000000
# 2 -0.003645 0.021699 -0.005067 0.000000 0.000000 0.000000
# 3 -0.007040 -0.005067 0.011716 0.000000 0.000000 0.000000
# 4 0.000000 0.000000 0.000000 0.028557 0.000000 0.000000
# 5 0.000000 0.000000 0.000000 0.000000 0.023518 0.000000
# 6 0.000000 0.000000 0.000000 0.000000 0.000000 0.047606
#
#
# Mechanical properties :
#
#
# Convention : Reuss Voigt Hill
#
# Bulk Modulus (GPa) = 57.37239 75.24227 66.30733
# Shear Modulus (GPa) = 26.89216 30.42276 28.65746
#
# Velocity S-wave (km/s) = 3.76743 4.00712 3.88912
# Velocity P-wave (km/s) = 7.01467 7.81805 7.42723
#
# Compressibility (1/GPa) = 0.01742999
#
# Stress axis : x y z
#
# Youngs Moduli (GPa) = 64.44221 46.08416 85.35259
#
# Poissons Ratio (x) = 0.16797 0.60088
# Poissons Ratio (y) = 0.23489 0.43246
# Poissons Ratio (z) = 0.45367 0.23350
#
# Static dielectric constant tensor:
#      x y z
#    x 3.561950 0.000000 0.000000 
#    y 0.000000 3.448240 0.000000 
#    z 0.000000 0.000000 3.732160 
# 
# 
# High freq. dielectric constant tensor:
#      x y z
#    x 1.734640 0.000000 0.000000 
#    y 0.000000 1.738900 0.000000 
#    z 0.000000 0.000000 1.753290 
# 
# From -- ./inp_files/31436.got.cif
#   From: 2010.03.12/outbox.cif.g09.slc.cpg/sg42_16_cif.got.tgz:31436.got - 2010.04.14 02:04:31.
