data_PCOD8186887
_publ_section_title
;
Structure prediction by ZEFSAII (Michael W. Deem and Ramdas Pophale) SiO2 
 PCOD8186887
Probable space group: F M M 2
;
_chemical_formula_sum "Si O2"
_cell_formula_units_Z 80
_cell_length_a 9.671822
_cell_length_b 19.862525
_cell_length_c 25.239960
_cell_angle_alpha 90.000000
_cell_angle_beta 90.000000
_cell_angle_gamma 90.000000
_cell_volume 4848.768106
_symmetry_space_group_name_H-M "F M M 2"
_symmetry_group_IT_number 42
_symmetry_cell_setting 'orthorhombic'
loop_
_space_group_symop_operation_xyz
x,y,z
-x,-y,z
-x,y,z
x,-y,z
x,1/2+y,1/2+z
-x,1/2-y,1/2+z
-x,1/2+y,1/2+z
x,1/2-y,1/2+z
1/2+x,y,1/2+z
1/2-x,-y,1/2+z
1/2-x,y,1/2+z
1/2+x,-y,1/2+z
1/2+x,1/2+y,z
1/2-x,1/2-y,z
1/2-x,1/2+y,z
1/2+x,1/2-y,z
loop_
_atom_site_type_symbol
_atom_site_label
_atom_site_fract_x
_atom_site_fract_y
_atom_site_fract_z
Si Si1 0.660390 0.422749 0.277100
Si Si2 0.659270 0.313456 0.362427
Si Si3 0.346358 0.419969 0.681387
Si Si4 0.835825 0.925501 0.565119
Si Si5 0.838668 0.685845 0.984048
O O1 0.500000 0.416521 0.262777
O O2 0.700639 0.500000 0.289961
O O3 0.700031 0.378462 0.328020
O O4 0.743587 0.393659 0.226756
O O5 0.500000 0.293289 0.354111
O O6 0.750000 0.250000 0.344272
O O7 0.689237 0.333214 0.423096
O O8 0.500000 0.390783 0.692459
O O9 0.351998 0.500000 0.681587
O O10 0.291455 0.397468 0.623232
O O11 0.782885 0.875771 0.519446
O O12 0.000000 0.930700 0.563999
O O13 0.772786 0.000000 0.554631
O O14 0.750000 0.750000 0.001109
O O15 0.000000 0.701047 0.994387
#
# Coordination Sequence:
#
# PCOD8186887 Si02
#       5
#    16  16  16  16  16
#     4   9  17  29  45  66  90 113 141 179 218 254
#     4   9  18  31  46  64  87 116 146 176 214 258
#     4   8  14  26  44  65  88 114 143 174 211 255
#     4   8  14  26  46  69  88 109 143 182 213 248
#     4   9  17  30  47  65  87 115 144 176 216 258
#
# _framework density 16.499036
#
# number of rings (size 3 to 8) (size 9 to 14) (size 15 to 20)
#    0.000    3.400    0.000    1.200    0.000    1.600 
#    0.000    6.000    0.000    6.600    0.000    5.600 
#    0.000    0.000    0.000    0.000    0.000    0.000 
#
# Total GULP energy -247912.659747 kJ/mol
# GULP energy per Si atom -12395.632987 kJ/mol
# Density = 1.646148 g / cm^3
# Si number density = 16.499036 Si / 1000 Ang^3
#
#
#
# Elastic Constant Matrix: (Units=GPa)
#
#
# Indices 1 2 3 4 5 6 
#
# 1 47.2666 41.9669 48.3575 0.0000 0.0000 0.0000
# 2 41.9669 95.4344 77.8059 0.0000 0.0000 0.0000
# 3 48.3575 77.8059 124.0580 0.0000 0.0000 0.0000
# 4 0.0000 0.0000 0.0000 14.7959 0.0000 0.0000
# 5 0.0000 0.0000 0.0000 0.0000 23.1183 0.0000
# 6 0.0000 0.0000 0.0000 0.0000 0.0000 22.0434
#
#
#
# Elastic Compliance Matrix: (Units=1/GPa)
#
#
# Indices 1 2 3 4 5 6 
#
# 1 0.039196 -0.009782 -0.009144 0.000000 0.000000 0.000000
# 2 -0.009782 0.023883 -0.011166 0.000000 0.000000 0.000000
# 3 -0.009144 -0.011166 0.018628 0.000000 0.000000 0.000000
# 4 0.000000 0.000000 0.000000 0.067586 0.000000 0.000000
# 5 0.000000 0.000000 0.000000 0.000000 0.043256 0.000000
# 6 0.000000 0.000000 0.000000 0.000000 0.000000 0.045365
#
#
# Mechanical properties :
#
#
# Convention : Reuss Voigt Hill
#
# Bulk Modulus (GPa) = 46.45857 67.00218 56.73038
# Shear Modulus (GPa) = 16.37877 18.56677 17.47277
#
# Velocity S-wave (km/s) = 3.15415 3.35823 3.25779
# Velocity P-wave (km/s) = 6.44084 7.46558 6.97206
#
# Compressibility (1/GPa) = 0.02152455
#
# Stress axis : x y z
#
# Youngs Moduli (GPa) = 25.51256 41.87000 53.68224
#
# Poissons Ratio (x) = 0.40956 0.49086
# Poissons Ratio (y) = 0.24955 0.59943
# Poissons Ratio (z) = 0.23328 0.46753
#
# Static dielectric constant tensor:
#      x y z
#    x 3.019600 0.000000 0.000000 
#    y 0.000000 3.078890 0.000000 
#    z 0.000000 0.000000 3.368250 
# 
# 
# High freq. dielectric constant tensor:
#      x y z
#    x 1.613850 0.000000 0.000000 
#    y 0.000000 1.613100 0.000000 
#    z 0.000000 0.000000 1.642950 
# 
# From -- ./inp_files/28615.got.cif
#   From: 2010.03.12/outbox.cif.g09.slc.cpg/sg42_15_cif.got.tgz:28615.got - 2010.04.14 02:04:31.
