data_PCOD8186351
_publ_section_title
;
Structure prediction by ZEFSAII (Michael W. Deem and Ramdas Pophale) SiO2 
 PCOD8186351
Probable space group: F M M 2
;
_chemical_formula_sum "Si O2"
_cell_formula_units_Z 80
_cell_length_a 17.312146
_cell_length_b 20.058061
_cell_length_c 13.027639
_cell_angle_alpha 90.000000
_cell_angle_beta 90.000000
_cell_angle_gamma 90.000000
_cell_volume 4523.822636
_symmetry_space_group_name_H-M "F M M 2"
_symmetry_group_IT_number 42
_symmetry_cell_setting 'orthorhombic'
loop_
_space_group_symop_operation_xyz
x,y,z
-x,-y,z
-x,y,z
x,-y,z
x,1/2+y,1/2+z
-x,1/2-y,1/2+z
-x,1/2+y,1/2+z
x,1/2-y,1/2+z
1/2+x,y,1/2+z
1/2-x,-y,1/2+z
1/2-x,y,1/2+z
1/2+x,-y,1/2+z
1/2+x,1/2+y,z
1/2-x,1/2-y,z
1/2-x,1/2+y,z
1/2+x,1/2-y,z
loop_
_atom_site_type_symbol
_atom_site_label
_atom_site_fract_x
_atom_site_fract_y
_atom_site_fract_z
Si Si1 0.664141 0.370003 0.975360
Si Si2 0.407642 0.500000 0.657369
Si Si3 0.676938 0.871336 0.078685
Si Si4 0.909753 0.744355 0.598706
Si Si5 0.319026 0.703943 0.772129
Si Si6 0.590975 0.000000 0.395759
O O1 0.647578 0.332457 0.869821
O O2 0.620004 0.438810 0.963794
O O3 0.754414 0.384796 0.998042
O O4 0.628489 0.324821 0.064574
O O5 0.500000 0.500000 0.651232
O O6 0.375789 0.563901 0.596166
O O7 0.379519 0.500000 0.776883
O O8 0.625246 0.808713 0.037125
O O9 0.713114 0.849633 0.188825
O O10 0.888790 0.753969 0.719356
O O11 0.000000 0.741084 0.580562
O O12 0.250000 0.750000 0.809798
O O13 0.500000 0.000000 0.393424
#
# Coordination Sequence:
#
# PCOD8186351 Si02
#       6
#    16   8  16  16  16   8
#     4  12  21  38  60  83 118 154 199 242 287 356
#     4  11  21  38  60  87 121 149 189 245 299 346
#     4  10  20  37  56  85 112 153 192 239 287 348
#     4  10  20  35  55  84 116 149 189 238 293 342
#     4  10  20  36  56  81 115 147 193 243 282 342
#     4  11  23  36  56  87 117 155 193 239 303 352
#
# _framework density 17.684158
#
# number of rings (size 3 to 8) (size 9 to 14) (size 15 to 20)
#    1.200    0.200    4.000    3.600    0.000    1.600 
#    0.000    0.000    0.000    0.000    0.000    1.400 
#    0.000    0.000    0.000    0.000    0.000    0.000 
#
# Total GULP energy -247846.900264 kJ/mol
# GULP energy per Si atom -12392.345013 kJ/mol
# Density = 1.764391 g / cm^3
# Si number density = 17.684158 Si / 1000 Ang^3
#
#
#
# Elastic Constant Matrix: (Units=GPa)
#
#
# Indices 1 2 3 4 5 6 
#
# 1 102.5176 48.3799 23.8333 0.0000 0.0000 0.0000
# 2 48.3799 137.0491 31.9365 0.0000 0.0000 0.0000
# 3 23.8333 31.9365 71.4887 0.0000 0.0000 0.0000
# 4 0.0000 0.0000 0.0000 25.6306 0.0000 0.0000
# 5 0.0000 0.0000 0.0000 0.0000 22.2287 0.0000
# 6 0.0000 0.0000 0.0000 0.0000 0.0000 28.8961
#
#
#
# Elastic Compliance Matrix: (Units=1/GPa)
#
#
# Indices 1 2 3 4 5 6 
#
# 1 0.012052 -0.003704 -0.002363 0.000000 0.000000 0.000000
# 2 -0.003704 0.009283 -0.002912 0.000000 0.000000 0.000000
# 3 -0.002363 -0.002912 0.016077 0.000000 0.000000 0.000000
# 4 0.000000 0.000000 0.000000 0.039016 0.000000 0.000000
# 5 0.000000 0.000000 0.000000 0.000000 0.044987 0.000000
# 6 0.000000 0.000000 0.000000 0.000000 0.000000 0.034607
#
#
# Mechanical properties :
#
#
# Convention : Reuss Voigt Hill
#
# Bulk Modulus (GPa) = 51.40540 57.70610 54.55575
# Shear Modulus (GPa) = 27.70642 29.14480 28.42561
#
# Velocity S-wave (km/s) = 3.96250 4.06405 4.01360
# Velocity P-wave (km/s) = 7.07580 7.39759 7.23848
#
# Compressibility (1/GPa) = 0.01945321
#
# Stress axis : x y z
#
# Youngs Moduli (GPa) = 82.97611 107.72717 62.20037
#
# Poissons Ratio (x) = 0.39898 0.14700
# Poissons Ratio (y) = 0.30732 0.18114
# Poissons Ratio (z) = 0.19610 0.31372
#
# Static dielectric constant tensor:
#      x y z
#    x 3.084410 0.000000 0.000000 
#    y 0.000000 3.406400 0.000000 
#    z 0.000000 0.000000 3.123240 
# 
# 
# High freq. dielectric constant tensor:
#      x y z
#    x 1.678150 0.000000 0.000000 
#    y 0.000000 1.690720 0.000000 
#    z 0.000000 0.000000 1.665670 
# 
# From -- ./inp_files/8607.got.cif
#   From: 2010.03.12/outbox.cif.g09.slc.cpg/sg42_5_cif.got.tgz:8607.got - 2010.04.14 02:04:31.
