data_PCOD8186192
_publ_section_title
;
Structure prediction by ZEFSAII (Michael W. Deem and Ramdas Pophale) SiO2 
 PCOD8186192
Probable space group: F M M 2
;
_chemical_formula_sum "Si O2"
_cell_formula_units_Z 112
_cell_length_a 26.676859
_cell_length_b 10.774473
_cell_length_c 19.143835
_cell_angle_alpha 90.000000
_cell_angle_beta 90.000000
_cell_angle_gamma 90.000000
_cell_volume 5502.495208
_symmetry_space_group_name_H-M "F M M 2"
_symmetry_group_IT_number 42
_symmetry_cell_setting 'orthorhombic'
loop_
_space_group_symop_operation_xyz
x,y,z
-x,-y,z
-x,y,z
x,-y,z
x,1/2+y,1/2+z
-x,1/2-y,1/2+z
-x,1/2+y,1/2+z
x,1/2-y,1/2+z
1/2+x,y,1/2+z
1/2-x,-y,1/2+z
1/2-x,y,1/2+z
1/2+x,-y,1/2+z
1/2+x,1/2+y,z
1/2-x,1/2-y,z
1/2-x,1/2+y,z
1/2+x,1/2-y,z
loop_
_atom_site_type_symbol
_atom_site_label
_atom_site_fract_x
_atom_site_fract_y
_atom_site_fract_z
Si Si1 0.098360 0.646186 0.122610
Si Si2 0.710077 0.137388 0.473228
Si Si3 0.055027 0.645248 0.265330
Si Si4 0.944973 0.145248 0.479890
Si Si5 0.631686 0.250000 0.872610
Si Si6 0.710077 0.637388 0.271992
Si Si7 0.806033 0.205095 0.122610
O O1 0.094164 0.500000 0.122610
O O2 0.072041 0.704003 0.191206
O O3 0.157073 0.677961 0.122610
O O4 0.072041 0.704003 0.054014
O O5 0.750000 0.250000 0.465536
O O6 0.665770 0.158106 0.418154
O O7 0.686213 0.129016 0.550953
O O8 0.733989 0.000000 0.457979
O O9 0.050488 0.500000 0.255283
O O10 0.096175 0.669034 0.323784
O O11 0.000000 0.700186 0.285216
O O12 0.903825 0.169034 0.421436
O O13 0.000000 0.200186 0.460004
O O14 0.949512 0.000000 0.489937
O O15 0.665770 0.158107 0.827065
O O16 0.733989 0.500000 0.287241
O O17 0.750000 0.750000 0.279684
O O18 0.686213 0.629016 0.194267
O O19 0.750000 0.250000 0.122610
#
# Coordination Sequence:
#
# PCOD8186192 Si02
#       7
#    16  16  16  16  16  16  16
#     4  10  19  37  64  90 120 159 206 261 309 356
#     4  11  25  42  64  91 125 166 208 255 308 370
#     4  10  21  37  60  90 121 158 208 261 308 359
#     4  10  21  37  60  90 121 158 208 261 308 359
#     4  12  22  38  60  88 128 166 202 248 312 376
#     4  11  25  42  64  91 125 166 208 255 308 370
#     4  10  21  40  60  89 119 156 204 254 305 366
#
# _framework density 20.354402
#
# number of rings (size 3 to 8) (size 9 to 14) (size 15 to 20)
#    0.000    1.429    2.857    2.571    0.000    9.714 
#    0.000    0.000    0.000    0.000    0.000    2.000 
#    0.000    0.000    0.000    0.000    0.000    0.000 
#
# Total GULP energy -346980.836389 kJ/mol
# GULP energy per Si atom -12392.172728 kJ/mol
# Density = 2.030807 g / cm^3
# Si number density = 20.354402 Si / 1000 Ang^3
#
#
#
# Elastic Constant Matrix: (Units=GPa)
#
#
# Indices 1 2 3 4 5 6 
#
# 1 135.3716 48.8083 74.2374 0.0000 0.0000 0.0000
# 2 48.8083 94.1752 34.8744 0.0000 0.0000 0.0000
# 3 74.2374 34.8744 163.1707 0.0000 0.0000 0.0000
# 4 0.0000 0.0000 0.0000 15.5212 0.0000 0.0000
# 5 0.0000 0.0000 0.0000 0.0000 -17.8117 0.0000
# 6 0.0000 0.0000 0.0000 0.0000 0.0000 28.7341
#
#
#
# Elastic Compliance Matrix: (Units=1/GPa)
#
#
# Indices 1 2 3 4 5 6 
#
# 1 0.011225 -0.004264 -0.004196 0.000000 0.000000 0.000000
# 2 -0.004264 0.013151 -0.000871 0.000000 0.000000 0.000000
# 3 -0.004196 -0.000871 0.008224 0.000000 0.000000 0.000000
# 4 0.000000 0.000000 0.000000 0.064428 0.000000 0.000000
# 5 0.000000 0.000000 0.000000 0.000000 -0.056143 0.000000
# 6 0.000000 0.000000 0.000000 0.000000 0.000000 0.034802
#
#
# Mechanical properties :
#
#
# Convention : Reuss Voigt Hill
#
# Bulk Modulus (GPa) = 71.74274 78.72862 75.23568
# Shear Modulus (GPa) = 50.50792 20.94190 35.72491
#
# Velocity S-wave (km/s) = 4.98679 3.21107 4.19399
# Velocity P-wave (km/s) = 8.27531 7.24644 7.77791
#
# Compressibility (1/GPa) = 0.01393869
#
# Stress axis : x y z
#
# Youngs Moduli (GPa) = 89.08300 76.04054 121.60065
#
# Poissons Ratio (x) = 0.32424 0.51022
# Poissons Ratio (y) = 0.37985 0.10588
# Poissons Ratio (z) = 0.37378 0.06621
#
# Static dielectric constant tensor:
#      x y z
#    x 3.817920 0.000000 0.000000 
#    y 0.000000 3.362400 0.000000 
#    z 0.000000 0.000000 4.590650 
# 
# 
# High freq. dielectric constant tensor:
#      x y z
#    x 1.797040 0.000000 0.000000 
#    y 0.000000 1.760070 0.000000 
#    z 0.000000 0.000000 1.824560 
# 
# From -- ./inp_files/26862.got.cif
#   From: 2010.03.12/outbox.cif.g09.slc.cpg/sg42_14_cif.got.tgz:26862.got - 2010.04.14 02:04:31.
