data_PCOD8186085
_publ_section_title
;
Structure prediction by ZEFSAII (Michael W. Deem and Ramdas Pophale) SiO2 
 PCOD8186085
Probable space group: F M M 2
;
_chemical_formula_sum "Si O2"
_cell_formula_units_Z 96
_cell_length_a 18.745361
_cell_length_b 8.689329
_cell_length_c 30.805220
_cell_angle_alpha 90.000000
_cell_angle_beta 90.000000
_cell_angle_gamma 90.000000
_cell_volume 5017.696213
_symmetry_space_group_name_H-M "F M M 2"
_symmetry_group_IT_number 42
_symmetry_cell_setting 'orthorhombic'
loop_
_space_group_symop_operation_xyz
x,y,z
-x,-y,z
-x,y,z
x,-y,z
x,1/2+y,1/2+z
-x,1/2-y,1/2+z
-x,1/2+y,1/2+z
x,1/2-y,1/2+z
1/2+x,y,1/2+z
1/2-x,-y,1/2+z
1/2-x,y,1/2+z
1/2+x,-y,1/2+z
1/2+x,1/2+y,z
1/2-x,1/2-y,z
1/2-x,1/2+y,z
1/2+x,1/2-y,z
loop_
_atom_site_type_symbol
_atom_site_label
_atom_site_fract_x
_atom_site_fract_y
_atom_site_fract_z
Si Si1 0.327880 0.319703 0.141320
Si Si2 0.327164 0.683367 0.892295
Si Si3 0.583123 0.680034 0.057985
Si Si4 0.078503 0.317606 0.313847
Si Si5 0.327447 0.681634 0.482435
Si Si6 0.917555 0.680366 0.216950
O O1 0.318551 0.500000 0.141420
O O2 0.250000 0.250000 0.136108
O O3 0.377604 0.265452 0.101690
O O4 0.365084 0.271083 0.185743
O O5 0.326049 0.500000 0.894242
O O6 0.250000 0.750000 0.884382
O O7 0.372463 0.748775 0.851997
O O8 0.357657 0.747875 0.937588
O O9 0.500000 0.719783 0.062882
O O10 0.595346 0.500000 0.048898
O O11 0.615319 0.777717 0.018851
O O12 0.074981 0.500000 0.317050
O O13 0.105906 0.272311 0.265818
O O14 0.000000 0.247843 0.320995
O O15 0.319222 0.500000 0.477761
O O16 0.250000 0.750000 0.494418
O O17 0.907374 0.500000 0.209097
O O18 0.000000 0.726934 0.208743
#
# Coordination Sequence:
#
# PCOD8186085 Si02
#       6
#    16  16  16  16  16  16
#     4  11  23  38  57  82 111 143 181 223 268 320
#     4  10  19  33  54  78 107 143 181 222 269 319
#     4  10  22  40  60  82 109 141 177 219 269 324
#     4   8  16  32  54  79 106 140 181 221 264 317
#     4  11  22  37  57  81 110 143 182 225 270 320
#     4   9  18  35  58  82 110 144 182 224 270 320
#
# _framework density 19.132285
#
# number of rings (size 3 to 8) (size 9 to 14) (size 15 to 20)
#    0.000    2.167    0.000    5.500    0.000    5.333 
#    0.000    5.000    0.000    3.500    0.000    0.000 
#    0.000    0.000    0.000    0.000    0.000    0.000 
#
# Total GULP energy -297597.089842 kJ/mol
# GULP energy per Si atom -12399.878743 kJ/mol
# Density = 1.908874 g / cm^3
# Si number density = 19.132285 Si / 1000 Ang^3
#
#
#
# Elastic Constant Matrix: (Units=GPa)
#
#
# Indices 1 2 3 4 5 6 
#
# 1 116.0882 44.4484 92.5170 0.0000 0.0000 0.0000
# 2 44.4484 73.1665 51.0398 0.0000 0.0000 0.0000
# 3 92.5170 51.0398 171.7318 0.0000 0.0000 0.0000
# 4 0.0000 0.0000 0.0000 29.3860 0.0000 0.0000
# 5 0.0000 0.0000 0.0000 0.0000 40.6860 0.0000
# 6 0.0000 0.0000 0.0000 0.0000 0.0000 23.3227
#
#
#
# Elastic Compliance Matrix: (Units=1/GPa)
#
#
# Indices 1 2 3 4 5 6 
#
# 1 0.016315 -0.004769 -0.007372 0.000000 0.000000 0.000000
# 2 -0.004769 0.018636 -0.002970 0.000000 0.000000 0.000000
# 3 -0.007372 -0.002970 0.010677 0.000000 0.000000 0.000000
# 4 0.000000 0.000000 0.000000 0.034030 0.000000 0.000000
# 5 0.000000 0.000000 0.000000 0.000000 0.024578 0.000000
# 6 0.000000 0.000000 0.000000 0.000000 0.000000 0.042877
#
#
# Mechanical properties :
#
#
# Convention : Reuss Voigt Hill
#
# Bulk Modulus (GPa) = 64.90421 81.88854 73.39638
# Shear Modulus (GPa) = 27.40162 30.21103 28.80632
#
# Velocity S-wave (km/s) = 3.78857 3.97805 3.88447
# Velocity P-wave (km/s) = 7.28939 7.99962 7.65275
#
# Compressibility (1/GPa) = 0.01540732
#
# Stress axis : x y z
#
# Youngs Moduli (GPa) = 61.29173 53.65935 93.65654
#
# Poissons Ratio (x) = 0.25589 0.69046
# Poissons Ratio (y) = 0.29229 0.27813
# Poissons Ratio (z) = 0.45186 0.15935
#
# Static dielectric constant tensor:
#      x y z
#    x 3.681360 0.000000 0.000000 
#    y 0.000000 3.327100 0.000000 
#    z 0.000000 0.000000 3.882950 
# 
# 
# High freq. dielectric constant tensor:
#      x y z
#    x 1.743150 0.000000 0.000000 
#    y 0.000000 1.731490 0.000000 
#    z 0.000000 0.000000 1.761000 
# 
# From -- ./inp_files/31459.got.cif
#   From: 2010.03.12/outbox.cif.g09.slc.cpg/sg42_16_cif.got.tgz:31459.got - 2010.04.14 02:04:31.
