data_PCOD8186838
_publ_section_title
;
Structure prediction by ZEFSAII (Michael W. Deem and Ramdas Pophale) SiO2 
 PCOD8186838
Probable space group: F M M 2
;
_chemical_formula_sum "Si O2"
_cell_formula_units_Z 64
_cell_length_a 17.930022
_cell_length_b 7.637444
_cell_length_c 24.172209
_cell_angle_alpha 90.000000
_cell_angle_beta 90.000000
_cell_angle_gamma 90.000000
_cell_volume 3310.131156
_symmetry_space_group_name_H-M "F M M 2"
_symmetry_group_IT_number 42
_symmetry_cell_setting 'orthorhombic'
loop_
_space_group_symop_operation_xyz
x,y,z
-x,-y,z
-x,y,z
x,-y,z
x,1/2+y,1/2+z
-x,1/2-y,1/2+z
-x,1/2+y,1/2+z
x,1/2-y,1/2+z
1/2+x,y,1/2+z
1/2-x,-y,1/2+z
1/2-x,y,1/2+z
1/2+x,-y,1/2+z
1/2+x,1/2+y,z
1/2-x,1/2-y,z
1/2-x,1/2+y,z
1/2+x,1/2-y,z
loop_
_atom_site_type_symbol
_atom_site_label
_atom_site_fract_x
_atom_site_fract_y
_atom_site_fract_z
Si Si1 0.163472 0.205157 0.886270
Si Si2 0.331536 0.189539 0.171386
Si Si3 0.912630 0.000000 0.583913
Si Si4 0.916920 0.792608 0.773674
Si Si5 0.911763 0.500000 0.956325
O O1 0.250000 0.250000 0.886653
O O2 0.130670 0.260205 0.827085
O O3 0.121889 0.321991 0.931687
O O4 0.149783 0.000000 0.899492
O O5 0.250000 0.250000 0.154638
O O6 0.375799 0.293892 0.219692
O O7 0.319450 0.000000 0.198801
O O8 0.379690 0.173830 0.114583
O O9 0.889167 0.000000 0.520498
O O10 0.000000 0.000000 0.592412
O O11 0.000000 0.711127 0.778274
O O12 0.924823 0.000000 0.768125
O O13 0.000000 0.500000 0.947447
#
# Coordination Sequence:
#
# PCOD8186838 Si02
#       5
#    16  16   8  16   8
#     4  11  22  39  61  90 123 162 201 251 306 360
#     4   9  18  33  56  84 110 144 190 238 287 349
#     4   9  20  38  61  80 111 159 195 238 292 358
#     4   9  17  31  56  84 116 154 192 237 297 364
#     4  11  24  42  61  90 123 159 209 254 302 366
#
# _framework density 19.334579999999999
#
# number of rings (size 3 to 8) (size 9 to 14) (size 15 to 20)
#    0.750    1.500    1.250    2.250    0.000    2.500 
#    2.250    0.000    0.000    3.750    0.000    0.000 
#    0.000    0.000    0.000    0.000    0.000    0.000 
#
# Total GULP energy -198222.718246 kJ/mol
# GULP energy per Si atom -12388.919890 kJ/mol
# Density = 1.929057 g / cm^3
# Si number density = 19.334580 Si / 1000 Ang^3
#
#
#
# Elastic Constant Matrix: (Units=GPa)
#
#
# Indices 1 2 3 4 5 6 
#
# 1 158.7823 35.5817 99.0314 0.0002 0.0000 -0.0002
# 2 35.5817 68.1389 45.5163 0.0003 0.0000 -0.0004
# 3 99.0314 45.5163 184.2475 0.0000 0.0000 0.0000
# 4 0.0002 0.0003 0.0000 80.1029 0.0000 -0.0002
# 5 0.0000 0.0000 0.0000 0.0000 26.8336 0.0000
# 6 -0.0002 -0.0004 0.0000 -0.0002 0.0000 20.1777
#
#
#
# Elastic Compliance Matrix: (Units=1/GPa)
#
#
# Indices 1 2 3 4 5 6 
#
# 1 0.009673 -0.001890 -0.004732 0.000000 0.000000 0.000000
# 2 -0.001890 0.017946 -0.003417 0.000000 0.000000 0.000000
# 3 -0.004732 -0.003417 0.008815 0.000000 0.000000 0.000000
# 4 0.000000 0.000000 0.000000 0.012484 0.000000 0.000000
# 5 0.000000 0.000000 0.000000 0.000000 0.037267 0.000000
# 6 0.000000 0.000000 0.000000 0.000000 0.000000 0.049560
#
#
# Mechanical properties :
#
#
# Convention : Reuss Voigt Hill
#
# Bulk Modulus (GPa) = 61.14516 85.71416 73.42966
# Shear Modulus (GPa) = 31.00296 40.82545 35.91420
#
# Velocity S-wave (km/s) = 4.00871 4.60012 4.31456
# Velocity P-wave (km/s) = 7.28833 8.52309 7.92978
#
# Compressibility (1/GPa) = 0.01635452
#
# Stress axis : x y z
#
# Youngs Moduli (GPa) = 103.38147 55.72376 113.44020
#
# Poissons Ratio (x) = 0.10532 0.53682
# Poissons Ratio (y) = 0.19540 0.38767
# Poissons Ratio (z) = 0.48922 0.19043
#
# Static dielectric constant tensor:
#      x y z
#    x 3.780160 0.000000 0.000000 
#    y 0.000000 3.278530 0.000000 
#    z 0.000000 0.000000 3.525110 
# 
# 
# High freq. dielectric constant tensor:
#      x y z
#    x 1.774230 0.000000 0.000000 
#    y 0.000000 1.721040 0.000000 
#    z 0.000000 0.000000 1.749360 
# 
# From -- ./inp_files/29722.got.cif
#   From: 2010.03.12/outbox.cif.g09.slc.cpg/sg42_15_cif.got.tgz:29722.got - 2010.04.14 02:04:31.
