data_PCOD8186732
_publ_section_title
;
Structure prediction by ZEFSAII (Michael W. Deem and Ramdas Pophale) SiO2 
 PCOD8186732
Probable space group: F M M 2
;
_chemical_formula_sum "Si O2"
_cell_formula_units_Z 96
_cell_length_a 17.518995
_cell_length_b 26.779163
_cell_length_c 10.116046
_cell_angle_alpha 90.000000
_cell_angle_beta 90.000000
_cell_angle_gamma 90.000000
_cell_volume 4745.882514
_symmetry_space_group_name_H-M "F M M 2"
_symmetry_group_IT_number 42
_symmetry_cell_setting 'orthorhombic'
loop_
_space_group_symop_operation_xyz
x,y,z
-x,-y,z
-x,y,z
x,-y,z
x,1/2+y,1/2+z
-x,1/2-y,1/2+z
-x,1/2+y,1/2+z
x,1/2-y,1/2+z
1/2+x,y,1/2+z
1/2-x,-y,1/2+z
1/2-x,y,1/2+z
1/2+x,-y,1/2+z
1/2+x,1/2+y,z
1/2-x,1/2-y,z
1/2-x,1/2+y,z
1/2+x,1/2-y,z
loop_
_atom_site_type_symbol
_atom_site_label
_atom_site_fract_x
_atom_site_fract_y
_atom_site_fract_z
Si Si1 0.666792 0.772175 0.687830
Si Si2 0.412448 0.282582 0.456042
Si Si3 0.588053 0.397695 0.431381
Si Si4 0.175967 0.942413 0.662878
Si Si5 0.833952 0.610479 0.660642
Si Si6 0.912141 0.442419 0.424828
O O1 0.750000 0.750000 0.667455
O O2 0.608349 0.745445 0.589891
O O3 0.639250 0.761963 0.836719
O O4 0.666912 0.830226 0.654352
O O5 0.500000 0.271806 0.419791
O O6 0.398431 0.341155 0.478199
O O7 0.500000 0.408502 0.400059
O O8 0.615532 0.434610 0.545870
O O9 0.636206 0.409714 0.300401
O O10 0.249494 0.909214 0.633805
O O11 0.138102 0.925525 0.800059
O O12 0.200288 0.000000 0.667210
O O13 0.890871 0.591626 0.548209
O O14 0.896536 0.500000 0.460885
O O15 0.000000 0.433495 0.387696
#
# Coordination Sequence:
#
# PCOD8186732 Si02
#       6
#    16  16  16  16  16  16
#     4  11  23  39  60  87 118 153 194 238 286 342
#     4  10  22  40  61  87 118 151 191 239 289 343
#     4  10  22  40  61  87 118 151 191 239 289 343
#     4  11  23  39  60  87 118 153 194 238 286 342
#     4  11  23  39  60  87 118 153 194 238 286 342
#     4  10  22  40  61  87 118 151 191 239 289 343
#
# _framework density 20.228061
#
# number of rings (size 3 to 8) (size 9 to 14) (size 15 to 20)
#    0.000    1.500    0.000    4.500    0.000   11.000 
#    0.000    0.000    0.000    0.000    0.000    0.000 
#    0.000    0.000    0.000    0.000    0.000    0.000 
#
# Total GULP energy -297786.915388 kJ/mol
# GULP energy per Si atom -12407.788141 kJ/mol
# Density = 2.018202 g / cm^3
# Si number density = 20.228061 Si / 1000 Ang^3
#
#
#
# Elastic Constant Matrix: (Units=GPa)
#
#
# Indices 1 2 3 4 5 6 
#
# 1 83.9167 20.8048 15.5698 0.0000 0.0000 0.0000
# 2 20.8048 30.8752 20.9071 0.0000 0.0000 0.0000
# 3 15.5698 20.9071 86.2526 0.0000 0.0000 0.0000
# 4 0.0000 0.0000 0.0000 38.8596 0.0000 0.0000
# 5 0.0000 0.0000 0.0000 0.0000 53.8752 0.0000
# 6 0.0000 0.0000 0.0000 0.0000 0.0000 29.0291
#
#
#
# Elastic Compliance Matrix: (Units=1/GPa)
#
#
# Indices 1 2 3 4 5 6 
#
# 1 0.014313 -0.009445 -0.000294 0.000000 0.000000 0.000000
# 2 -0.009445 0.044982 -0.009198 0.000000 0.000000 0.000000
# 3 -0.000294 -0.009198 0.013877 0.000000 0.000000 0.000000
# 4 0.000000 0.000000 0.000000 0.025734 0.000000 0.000000
# 5 0.000000 0.000000 0.000000 0.000000 0.018561 0.000000
# 6 0.000000 0.000000 0.000000 0.000000 0.000000 0.034448
#
#
# Mechanical properties :
#
#
# Convention : Reuss Voigt Hill
#
# Bulk Modulus (GPa) = 28.33221 35.06755 31.69988
# Shear Modulus (GPa) = 24.80711 33.93696 29.37204
#
# Velocity S-wave (km/s) = 3.50576 4.10044 3.81470
# Velocity P-wave (km/s) = 5.51579 6.30808 5.92519
#
# Compressibility (1/GPa) = 0.03529551
#
# Stress axis : x y z
#
# Youngs Moduli (GPa) = 69.86720 22.23129 72.06390
#
# Poissons Ratio (x) = 0.20998 0.02120
# Poissons Ratio (y) = 0.65992 0.66286
# Poissons Ratio (z) = 0.02055 0.20449
#
# Static dielectric constant tensor:
#      x y z
#    x 3.700890 0.000000 0.000000 
#    y 0.000000 3.651690 0.000000 
#    z 0.000000 0.000000 3.688340 
# 
# 
# High freq. dielectric constant tensor:
#      x y z
#    x 1.804950 0.000000 0.000000 
#    y 0.000000 1.789130 0.000000 
#    z 0.000000 0.000000 1.800940 
# 
# From -- ./inp_files/8823.got.cif
#   From: 2010.03.12/outbox.cif.g09.slc.cpg/sg42_5_cif.got.tgz:8823.got - 2010.04.14 02:04:31.
