data_PCOD8186566
_publ_section_title
;
Structure prediction by ZEFSAII (Michael W. Deem and Ramdas Pophale) SiO2 
 PCOD8186566
Probable space group: F M M 2
;
_chemical_formula_sum "Si O2"
_cell_formula_units_Z 96
_cell_length_a 29.890452
_cell_length_b 19.601011
_cell_length_c 9.394707
_cell_angle_alpha 90.000000
_cell_angle_beta 90.000000
_cell_angle_gamma 90.000000
_cell_volume 5504.199858
_symmetry_space_group_name_H-M "F M M 2"
_symmetry_group_IT_number 42
_symmetry_cell_setting 'orthorhombic'
loop_
_space_group_symop_operation_xyz
x,y,z
-x,-y,z
-x,y,z
x,-y,z
x,1/2+y,1/2+z
-x,1/2-y,1/2+z
-x,1/2+y,1/2+z
x,1/2-y,1/2+z
1/2+x,y,1/2+z
1/2-x,-y,1/2+z
1/2-x,y,1/2+z
1/2+x,-y,1/2+z
1/2+x,1/2+y,z
1/2-x,1/2-y,z
1/2-x,1/2+y,z
1/2+x,1/2-y,z
loop_
_atom_site_type_symbol
_atom_site_label
_atom_site_fract_x
_atom_site_fract_y
_atom_site_fract_z
Si Si1 0.289918 0.918972 0.508280
Si Si2 0.052559 0.816710 0.500548
Si Si3 0.210082 0.418972 0.822244
Si Si4 0.110337 0.420180 0.830628
Si Si5 0.889663 0.579820 0.499895
Si Si6 0.947441 0.683290 0.329975
O O1 0.250000 0.886528 0.415262
O O2 0.283687 0.888586 0.665262
O O3 0.339281 0.899588 0.451451
O O4 0.285721 0.000000 0.512755
O O5 0.076075 0.881953 0.432387
O O6 0.068482 0.750000 0.415262
O O7 0.066349 0.808795 0.665262
O O8 0.000000 0.828146 0.483601
O O9 0.214279 0.500000 0.817768
O O10 0.160719 0.399588 0.879072
O O11 0.102138 0.500000 0.853157
O O12 0.102582 0.400793 0.665262
O O13 0.897861 0.500000 0.477367
O O14 0.923925 0.618046 0.398136
O O15 0.000000 0.671853 0.346922
#
# Coordination Sequence:
#
# PCOD8186566 Si02
#       6
#    16  16  16  16  16  16
#     4   8  14  25  42  66  96 128 160 193 231 278
#     4  10  21  36  53  72  95 126 164 203 244 293
#     4   8  14  25  42  66  96 128 160 193 231 278
#     4   9  18  32  50  74 103 132 162 198 241 287
#     4   9  18  32  50  74 103 132 162 198 241 287
#     4  10  21  36  53  72  95 126 164 203 244 293
#
# _framework density 17.441227999999999
#
# number of rings (size 3 to 8) (size 9 to 14) (size 15 to 20)
#    0.000    3.000    0.000    3.000    0.000    4.667 
#    0.000    6.667    0.000    1.000    0.000    7.000 
#    0.000    0.000    0.000    0.000    0.000    0.000 
#
# Total GULP energy -297496.931153 kJ/mol
# GULP energy per Si atom -12395.705465 kJ/mol
# Density = 1.740153 g / cm^3
# Si number density = 17.441228 Si / 1000 Ang^3
#
#
#
# Elastic Constant Matrix: (Units=GPa)
#
#
# Indices 1 2 3 4 5 6 
#
# 1 72.9332 42.6167 62.1125 0.0000 0.0000 0.0000
# 2 42.6167 56.5257 53.3233 -0.0001 0.0000 0.0000
# 3 62.1125 53.3233 117.9259 -0.0003 0.0000 0.0000
# 4 0.0000 -0.0001 -0.0003 27.7194 0.0000 0.0000
# 5 0.0000 0.0000 0.0000 0.0000 37.9999 0.0000
# 6 0.0000 0.0000 0.0000 0.0000 0.0000 1.4968
#
#
#
# Elastic Compliance Matrix: (Units=1/GPa)
#
#
# Indices 1 2 3 4 5 6 
#
# 1 0.029670 -0.013301 -0.009613 0.000000 0.000000 0.000000
# 2 -0.013301 0.036813 -0.009640 0.000000 0.000000 0.000000
# 3 -0.009613 -0.009640 0.017902 0.000000 0.000000 0.000000
# 4 0.000000 0.000000 0.000000 0.036076 0.000000 0.000000
# 5 0.000000 0.000000 0.000000 0.000000 0.026316 0.000000
# 6 0.000000 0.000000 0.000000 0.000000 0.000000 0.668097
#
#
# Mechanical properties :
#
#
# Convention : Reuss Voigt Hill
#
# Bulk Modulus (GPa) = 51.87538 62.60998 57.24268
# Shear Modulus (GPa) = 5.64073 19.39870 12.51972
#
# Velocity S-wave (km/s) = 1.80032 3.33863 2.68213
# Velocity P-wave (km/s) = 5.84201 7.13005 6.51792
#
# Compressibility (1/GPa) = 0.01927697
#
# Stress axis : x y z
#
# Youngs Moduli (GPa) = 33.70395 27.16407 55.85839
#
# Poissons Ratio (x) = 0.36130 0.53698
# Poissons Ratio (y) = 0.44829 0.53850
# Poissons Ratio (z) = 0.32400 0.26187
#
# Static dielectric constant tensor:
#      x y z
#    x 3.366280 0.000000 0.000000 
#    y 0.000000 2.847440 0.000000 
#    z 0.000000 0.000000 3.459500 
# 
# 
# High freq. dielectric constant tensor:
#      x y z
#    x 1.680280 0.000000 0.000000 
#    y 0.000000 1.634710 0.000000 
#    z 0.000000 0.000000 1.677590 
# 
# From -- ./inp_files/4180.got.cif
#   From: 2010.03.12/outbox.cif.g09.slc.cpg/sg42_3_cif.got.tgz:4180.got - 2010.04.14 02:04:31.
