data_PCOD8186919
_publ_section_title
;
Structure prediction by ZEFSAII (Michael W. Deem and Ramdas Pophale) SiO2 
 PCOD8186919
Probable space group: F D D 2
;
_chemical_formula_sum "Si O2"
_cell_formula_units_Z 104
_cell_length_a 16.564558
_cell_length_b 15.191170
_cell_length_c 23.076554
_cell_angle_alpha 90.000000
_cell_angle_beta 90.000000
_cell_angle_gamma 90.000000
_cell_volume 5806.869048
_symmetry_space_group_name_H-M "F D D 2"
_symmetry_group_IT_number 43
_symmetry_cell_setting 'orthorhombic'
loop_
_space_group_symop_operation_xyz
x,y,z
-x,-y,z
1/4-x,1/4+y,1/4+z
1/4+x,1/4-y,1/4+z
x,1/2+y,1/2+z
-x,1/2-y,1/2+z
1/4-x,3/4+y,3/4+z
1/4+x,3/4-y,3/4+z
1/2+x,y,1/2+z
1/2-x,-y,1/2+z
3/4-x,1/4+y,3/4+z
3/4+x,1/4-y,3/4+z
1/2+x,1/2+y,z
1/2-x,1/2-y,z
3/4-x,3/4+y,1/4+z
3/4+x,3/4-y,1/4+z
loop_
_atom_site_type_symbol
_atom_site_label
_atom_site_fract_x
_atom_site_fract_y
_atom_site_fract_z
Si Si1 0.250000 0.750000 0.407411
Si Si2 0.370822 0.544836 0.025081
Si Si3 0.162519 0.530380 0.222380
Si Si4 0.223278 0.872443 0.793268
Si Si5 0.387132 0.316504 0.146622
Si Si6 0.740322 0.533363 0.120489
Si Si7 0.146264 0.119689 0.837283
O O1 0.177479 0.785856 0.446971
O O2 0.220897 0.667330 0.368926
O O3 0.435575 0.467927 0.022247
O O4 0.429466 0.629177 0.036163
O O5 0.306336 0.529467 0.075505
O O6 0.330430 0.556410 0.962188
O O7 0.171824 0.439162 0.255452
O O8 0.231854 0.531223 0.172883
O O9 0.173351 0.606724 0.270294
O O10 0.209097 0.887598 0.861555
O O11 0.309303 0.381450 0.143076
O O12 0.369922 0.220629 0.119177
O O13 0.819104 0.567362 0.087460
#
# Coordination Sequence:
#
# PCOD8186919 Si02
#       7
#     8  16  16  16  16  16  16
#     4  10  22  36  54  84 112 146 190 236 282 334
#     4  10  18  31  52  76 113 135 177 219 274 324
#     4  10  20  36  54  77 115 142 183 235 274 331
#     4   9  19  31  50  81 106 141 171 225 273 320
#     4  10  19  31  54  81 110 137 179 223 278 324
#     4  10  20  33  54  85 107 146 176 229 280 326
#     4  10  22  33  55  81 112 146 187 228 284 332
#
# _framework density 17.909822999999999
#
# number of rings (size 3 to 8) (size 9 to 14) (size 15 to 20)
#    0.000    2.154    1.538    2.308   10.769    0.000 
#    0.000    3.077    0.000    0.000    0.000    0.000 
#    0.000    0.000    0.000    0.000    0.000    0.000 
#
# Total GULP energy -322141.502828 kJ/mol
# GULP energy per Si atom -12390.057801 kJ/mol
# Density = 1.786906 g / cm^3
# Si number density = 17.909823 Si / 1000 Ang^3
#
#
#
# Elastic Constant Matrix: (Units=GPa)
#
#
# Indices 1 2 3 4 5 6 
#
# 1 95.3117 32.1131 60.9206 0.0000 0.0000 0.0000
# 2 32.1131 42.3639 38.0743 0.0000 0.0000 0.0000
# 3 60.9206 38.0743 159.0392 0.0000 0.0000 0.0000
# 4 0.0000 0.0000 0.0000 31.4865 0.0000 0.0000
# 5 0.0000 0.0000 0.0000 0.0000 16.8224 0.0000
# 6 0.0000 0.0000 0.0000 0.0000 0.0000 23.2777
#
#
#
# Elastic Compliance Matrix: (Units=1/GPa)
#
#
# Indices 1 2 3 4 5 6 
#
# 1 0.015940 -0.008404 -0.004094 0.000000 0.000000 0.000000
# 2 -0.008404 0.034506 -0.005042 0.000000 0.000000 0.000000
# 3 -0.004094 -0.005042 0.009063 0.000000 0.000000 0.000000
# 4 0.000000 0.000000 0.000000 0.031760 0.000000 0.000000
# 5 0.000000 0.000000 0.000000 0.000000 0.059445 0.000000
# 6 0.000000 0.000000 0.000000 0.000000 0.000000 0.042960
#
#
# Mechanical properties :
#
#
# Convention : Reuss Voigt Hill
#
# Bulk Modulus (GPa) = 40.93230 62.10340 51.51785
# Shear Modulus (GPa) = 21.10629 25.35776 23.23203
#
# Velocity S-wave (km/s) = 3.43662 3.76687 3.60553
# Velocity P-wave (km/s) = 6.21703 7.32598 6.79417
#
# Compressibility (1/GPa) = 0.02443058
#
# Stress axis : x y z
#
# Youngs Moduli (GPa) = 62.73484 28.98006 110.33797
#
# Poissons Ratio (x) = 0.24353 0.45173
# Poissons Ratio (y) = 0.52719 0.55631
# Poissons Ratio (z) = 0.25684 0.14611
#
# Static dielectric constant tensor:
#      x y z
#    x 3.520730 0.000000 0.000000 
#    y 0.000000 3.173830 0.000000 
#    z 0.000000 0.000000 3.631340 
# 
# 
# High freq. dielectric constant tensor:
#      x y z
#    x 1.681430 0.000000 0.000000 
#    y 0.000000 1.664580 0.000000 
#    z 0.000000 0.000000 1.708030 
# 
# From -- ./inp_files/17634.got.cif
#   From: 2010.06.25/outbox.cif.g09.slc.cpg/sg43_9_cif.got.tgz:17634.got - 2010.06.26 16:48:59.
