data_PCOD8186591
_publ_section_title
;
Structure prediction by ZEFSAII (Michael W. Deem and Ramdas Pophale) SiO2 
 PCOD8186591
Probable space group: F M M 2
;
_chemical_formula_sum "Si O2"
_cell_formula_units_Z 96
_cell_length_a 30.375051
_cell_length_b 8.941069
_cell_length_c 19.893258
_cell_angle_alpha 90.000000
_cell_angle_beta 90.000000
_cell_angle_gamma 90.000000
_cell_volume 5402.718966
_symmetry_space_group_name_H-M "F M M 2"
_symmetry_group_IT_number 42
_symmetry_cell_setting 'orthorhombic'
loop_
_space_group_symop_operation_xyz
x,y,z
-x,-y,z
-x,y,z
x,-y,z
x,1/2+y,1/2+z
-x,1/2-y,1/2+z
-x,1/2+y,1/2+z
x,1/2-y,1/2+z
1/2+x,y,1/2+z
1/2-x,-y,1/2+z
1/2-x,y,1/2+z
1/2+x,-y,1/2+z
1/2+x,1/2+y,z
1/2-x,1/2-y,z
1/2-x,1/2+y,z
1/2+x,1/2-y,z
loop_
_atom_site_type_symbol
_atom_site_label
_atom_site_fract_x
_atom_site_fract_y
_atom_site_fract_z
Si Si1 0.616381 0.822570 0.317790
Si Si2 0.708891 0.163307 0.969632
Si Si3 0.292806 0.332657 0.310341
Si Si4 0.550742 0.828751 0.079106
Si Si5 0.551432 0.173308 0.715990
Si Si6 0.113421 0.677773 0.959225
O O1 0.662936 0.757205 0.292289
O O2 0.578294 0.774788 0.267111
O O3 0.602107 0.760819 0.390338
O O4 0.620277 0.000000 0.320728
O O5 0.750000 0.250000 0.002048
O O6 0.713184 0.157512 0.889768
O O7 0.661145 0.233415 0.986916
O O8 0.711775 0.000000 0.001751
O O9 0.296041 0.500000 0.279973
O O10 0.250000 0.250000 0.279030
O O11 0.500000 0.810275 0.059796
O O12 0.563928 0.723118 0.140735
O O13 0.561963 0.000000 0.098187
O O14 0.577510 0.776425 0.013891
O O15 0.500000 0.202158 0.729630
O O16 0.563826 0.000000 0.725311
O O17 0.114812 0.500000 0.944653
#
# Coordination Sequence:
#
# PCOD8186591 Si02
#       6
#    16  16  16  16  16  16
#     4  11  21  32  50  77 106 135 170 212 254 296
#     4   8  14  24  40  63  93 127 160 194 233 281
#     4   9  16  28  46  70 101 134 168 205 249 299
#     4   9  18  34  55  75  96 126 164 204 250 307
#     4  10  21  37  55  73  97 131 169 210 258 310
#     4   9  18  32  49  73 104 133 162 203 253 299
#
# _framework density 17.768830000000001
#
# number of rings (size 3 to 8) (size 9 to 14) (size 15 to 20)
#    0.000    2.667    0.000    3.500    0.000    6.333 
#    0.000    1.667    0.000    1.000    0.000    4.667 
#    0.000    0.000    0.000    0.000    0.000    0.000 
#
# Total GULP energy -297532.077751 kJ/mol
# GULP energy per Si atom -12397.169906 kJ/mol
# Density = 1.772839 g / cm^3
# Si number density = 17.768830 Si / 1000 Ang^3
#
#
#
# Elastic Constant Matrix: (Units=GPa)
#
#
# Indices 1 2 3 4 5 6 
#
# 1 109.5775 53.1103 61.4488 0.0000 0.0000 0.0000
# 2 53.1103 104.8451 42.3623 0.0000 0.0000 0.0000
# 3 61.4488 42.3623 69.4046 0.0000 0.0000 0.0000
# 4 0.0000 0.0000 0.0000 23.5255 0.0000 0.0000
# 5 0.0000 0.0000 0.0000 0.0000 -0.5364 0.0000
# 6 0.0000 0.0000 0.0000 0.0000 0.0000 31.9278
#
#
#
# Elastic Compliance Matrix: (Units=1/GPa)
#
#
# Indices 1 2 3 4 5 6 
#
# 1 0.019198 -0.003792 -0.014682 0.000000 0.000000 0.000000
# 2 -0.003792 0.013409 -0.004827 0.000000 0.000000 0.000000
# 3 -0.014682 -0.004827 0.030354 0.000000 0.000000 0.000000
# 4 0.000000 0.000000 0.000000 0.042507 0.000000 0.000000
# 5 0.000000 0.000000 0.000000 0.000000 -1.864331 -0.000001
# 6 0.000000 0.000000 0.000000 0.000000 -0.000001 0.031321
#
#
# Mechanical properties :
#
#
# Convention : Reuss Voigt Hill
#
# Bulk Modulus (GPa) = 61.13414 66.40776 63.77095
# Shear Modulus (GPa) = -2.98421 19.44376 8.22978
#
# Velocity S-wave (km/s) = -1.29735 3.31155 2.15445
# Velocity P-wave (km/s) = 5.67766 7.21638 6.49276
#
# Compressibility (1/GPa) = 0.01635747
#
# Stress axis : x y z
#
# Youngs Moduli (GPa) = 52.08999 74.57544 32.94498
#
# Poissons Ratio (x) = 0.28282 0.48370
# Poissons Ratio (y) = 0.19755 0.15902
# Poissons Ratio (z) = 0.76480 0.35997
#
# Static dielectric constant tensor:
#      x y z
#    x 3.518710 0.000000 0.000000 
#    y 0.000000 3.430160 0.000000 
#    z 0.000000 0.000000 2.899070 
# 
# 
# High freq. dielectric constant tensor:
#      x y z
#    x 1.700550 0.000000 0.000000 
#    y 0.000000 1.691430 0.000000 
#    z 0.000000 0.000000 1.642270 
# 
# From -- ./inp_files/23710.got.cif
#   From: 2010.03.12/outbox.cif.g09.slc.cpg/sg42_12_cif.got.tgz:23710.got - 2010.04.14 02:04:31.
