data_PCOD8186474
_publ_section_title
;
Structure prediction by ZEFSAII (Michael W. Deem and Ramdas Pophale) SiO2 
 PCOD8186474
Probable space group: F M M 2
;
_chemical_formula_sum "Si O2"
_cell_formula_units_Z 96
_cell_length_a 23.514313
_cell_length_b 8.642085
_cell_length_c 25.340876
_cell_angle_alpha 90.000000
_cell_angle_beta 90.000000
_cell_angle_gamma 90.000000
_cell_volume 5149.587621
_symmetry_space_group_name_H-M "F M M 2"
_symmetry_group_IT_number 42
_symmetry_cell_setting 'orthorhombic'
loop_
_space_group_symop_operation_xyz
x,y,z
-x,-y,z
-x,y,z
x,-y,z
x,1/2+y,1/2+z
-x,1/2-y,1/2+z
-x,1/2+y,1/2+z
x,1/2-y,1/2+z
1/2+x,y,1/2+z
1/2-x,-y,1/2+z
1/2-x,y,1/2+z
1/2+x,-y,1/2+z
1/2+x,1/2+y,z
1/2-x,1/2-y,z
1/2-x,1/2+y,z
1/2+x,1/2-y,z
loop_
_atom_site_type_symbol
_atom_site_label
_atom_site_fract_x
_atom_site_fract_y
_atom_site_fract_z
Si Si1 0.379700 0.816734 0.951190
Si Si2 0.000000 0.316321 0.994272
Si Si3 0.000000 0.680915 0.112494
Si Si4 0.613423 0.819609 0.647664
Si Si5 0.188800 0.316934 0.357903
Si Si6 0.688347 0.817114 0.547604
Si Si7 0.810130 0.682952 0.745293
O O1 0.443713 0.758584 0.963773
O O2 0.360384 0.737847 0.897146
O O3 0.377033 0.000000 0.944893
O O4 0.337522 0.765466 0.997020
O O5 0.000000 0.500000 0.997697
O O6 0.000000 0.244787 0.053528
O O7 0.945611 0.730669 0.145763
O O8 0.000000 0.500000 0.105946
O O9 0.651518 0.770684 0.598163
O O10 0.643987 0.770298 0.701582
O O11 0.600503 0.000000 0.646575
O O12 0.193419 0.500000 0.357990
O O13 0.250000 0.250000 0.375299
O O14 0.170877 0.257704 0.300321
O O15 0.750000 0.750000 0.558336
O O16 0.690839 0.000000 0.538095
O O17 0.804480 0.500000 0.752269
O O18 0.750000 0.750000 0.726417
#
# Coordination Sequence:
#
# PCOD8186474 Si02
#       7
#    16   8   8  16  16  16  16
#     4  11  21  38  59  82 113 148 190 234 281 339
#     4   9  20  37  58  83 110 147 190 232 281 333
#     4  11  21  37  60  85 112 151 196 236 281 333
#     4  10  22  38  57  83 116 151 190 232 282 338
#     4  11  22  38  59  86 115 149 190 233 287 340
#     4  11  22  35  53  82 115 148 183 230 284 337
#     4  10  20  37  60  86 115 151 190 232 285 338
#
# _framework density 18.64227
#
# number of rings (size 3 to 8) (size 9 to 14) (size 15 to 20)
#    0.000    1.500    1.667    5.250    0.000    2.000 
#    0.000    2.500    0.000    2.000    0.000    0.000 
#    0.000    0.000    0.000    0.000    0.000    0.000 
#
# Total GULP energy -297704.329676 kJ/mol
# GULP energy per Si atom -12404.347070 kJ/mol
# Density = 1.859984 g / cm^3
# Si number density = 18.642270 Si / 1000 Ang^3
#
#
#
# Elastic Constant Matrix: (Units=GPa)
#
#
# Indices 1 2 3 4 5 6 
#
# 1 147.9796 48.5785 82.1051 0.0000 0.0000 0.0000
# 2 48.5785 89.3421 53.8015 0.0000 0.0000 -0.0001
# 3 82.1051 53.8015 128.3166 0.0000 0.0000 0.0000
# 4 0.0000 0.0000 0.0000 31.4827 0.0000 0.0000
# 5 0.0000 0.0000 0.0000 0.0000 28.2584 0.0000
# 6 0.0000 -0.0001 0.0000 0.0000 0.0000 24.2189
#
#
#
# Elastic Compliance Matrix: (Units=1/GPa)
#
#
# Indices 1 2 3 4 5 6 
#
# 1 0.010817 -0.002292 -0.005960 0.000000 0.000000 0.000000
# 2 -0.002292 0.015460 -0.005015 0.000000 0.000000 0.000000
# 3 -0.005960 -0.005015 0.013710 0.000000 0.000000 0.000000
# 4 0.000000 0.000000 0.000000 0.031763 0.000000 0.000000
# 5 0.000000 0.000000 0.000000 0.000000 0.035388 0.000000
# 6 0.000000 0.000000 0.000000 0.000000 0.000000 0.041290
#
#
# Mechanical properties :
#
#
# Convention : Reuss Voigt Hill
#
# Bulk Modulus (GPa) = 74.34543 81.62318 77.98430
# Shear Modulus (GPa) = 27.86331 28.86889 28.36610
#
# Velocity S-wave (km/s) = 3.87024 3.93946 3.90500
# Velocity P-wave (km/s) = 7.74198 8.03563 7.89017
#
# Compressibility (1/GPa) = 0.01345073
#
# Stress axis : x y z
#
# Youngs Moduli (GPa) = 92.44427 64.68508 72.94018
#
# Poissons Ratio (x) = 0.14829 0.43475
# Poissons Ratio (y) = 0.21192 0.36581
# Poissons Ratio (z) = 0.55101 0.32440
#
# Static dielectric constant tensor:
#      x y z
#    x 3.499020 0.000000 0.000000 
#    y 0.000000 3.444150 0.000000 
#    z 0.000000 0.000000 3.527280 
# 
# 
# High freq. dielectric constant tensor:
#      x y z
#    x 1.725620 0.000000 0.000000 
#    y 0.000000 1.729520 0.000000 
#    z 0.000000 0.000000 1.728420 
# 
# From -- ./inp_files/30435.got.cif
#   From: 2010.03.12/outbox.cif.g09.slc.cpg/sg42_16_cif.got.tgz:30435.got - 2010.04.14 02:04:31.
