data_PCOD8186412
_publ_section_title
;
Structure prediction by ZEFSAII (Michael W. Deem and Ramdas Pophale) SiO2 
 PCOD8186412
Probable space group: F M M 2
;
_chemical_formula_sum "Si O2"
_cell_formula_units_Z 96
_cell_length_a 17.899951
_cell_length_b 10.181015
_cell_length_c 27.843337
_cell_angle_alpha 90.000000
_cell_angle_beta 90.000000
_cell_angle_gamma 90.000000
_cell_volume 5074.160536
_symmetry_space_group_name_H-M "F M M 2"
_symmetry_group_IT_number 42
_symmetry_cell_setting 'orthorhombic'
loop_
_space_group_symop_operation_xyz
x,y,z
-x,-y,z
-x,y,z
x,-y,z
x,1/2+y,1/2+z
-x,1/2-y,1/2+z
-x,1/2+y,1/2+z
x,1/2-y,1/2+z
1/2+x,y,1/2+z
1/2-x,-y,1/2+z
1/2-x,y,1/2+z
1/2+x,-y,1/2+z
1/2+x,1/2+y,z
1/2-x,1/2-y,z
1/2-x,1/2+y,z
1/2+x,1/2-y,z
loop_
_atom_site_type_symbol
_atom_site_label
_atom_site_fract_x
_atom_site_fract_y
_atom_site_fract_z
Si Si1 0.661213 0.245085 0.342740
Si Si2 0.163987 0.500000 0.788810
Si Si3 0.180193 0.845281 0.029892
Si Si4 0.414145 0.150877 0.435305
Si Si5 0.415878 0.500000 0.190716
Si Si6 0.912580 0.500000 0.176979
Si Si7 0.913758 0.238059 0.121160
Si Si8 0.159723 0.500000 0.281260
O O1 0.750000 0.250000 0.348963
O O2 0.632298 0.375728 0.317196
O O3 0.625280 0.239324 0.395240
O O4 0.630644 0.127796 0.309314
O O5 0.138470 0.500000 0.734786
O O6 0.252073 0.500000 0.784317
O O7 0.250000 0.750000 0.021190
O O8 0.138180 0.793621 0.076572
O O9 0.203004 0.000000 0.034807
O O10 0.124570 0.824275 0.985921
O O11 0.500000 0.192897 0.440422
O O12 0.405909 0.000000 0.419507
O O13 0.500000 0.500000 0.209917
O O14 0.398830 0.628291 0.160355
O O15 0.890042 0.375296 0.144957
O O16 0.867444 0.500000 0.226562
O O17 0.000000 0.500000 0.189911
O O18 0.000000 0.239041 0.104305
#
# Coordination Sequence:
#
# PCOD8186412 Si02
#       8
#    16   8  16  16   8   8  16   8
#     4  10  20  37  57  85 118 155 194 240 292 342
#     4  10  22  34  55  84 119 156 193 242 292 342
#     4  11  24  41  64  91 118 152 194 240 292 352
#     4  10  21  39  64  89 113 150 197 240 286 351
#     4  10  20  36  57  82 113 156 201 238 286 344
#     4  10  22  36  57  88 121 154 195 250 298 342
#     4  10  21  39  61  86 118 157 198 243 294 345
#     4  10  20  36  57  80 117 160 199 236 288 344
#
# _framework density 18.919384999999998
#
# number of rings (size 3 to 8) (size 9 to 14) (size 15 to 20)
#    0.000    1.833    1.667    2.000    1.167    3.333 
#    1.500    0.000    0.000    0.000    0.000    0.000 
#    0.000    0.000    0.000    0.000    0.000    0.000 
#
# Total GULP energy -297638.795746 kJ/mol
# GULP energy per Si atom -12401.616489 kJ/mol
# Density = 1.887632 g / cm^3
# Si number density = 18.919385 Si / 1000 Ang^3
#
#
#
# Elastic Constant Matrix: (Units=GPa)
#
#
# Indices 1 2 3 4 5 6 
#
# 1 54.3291 39.2269 31.0576 0.0000 0.0000 0.0000
# 2 39.2269 153.5109 54.6419 0.0000 0.0000 0.0000
# 3 31.0576 54.6419 96.2829 0.0000 0.0000 0.0000
# 4 0.0000 0.0000 0.0000 47.1605 0.0000 0.0000
# 5 0.0000 0.0000 0.0000 0.0000 59.0171 0.0000
# 6 0.0000 0.0000 0.0000 0.0000 0.0000 25.4760
#
#
#
# Elastic Compliance Matrix: (Units=1/GPa)
#
#
# Indices 1 2 3 4 5 6 
#
# 1 0.024690 -0.004354 -0.005493 0.000000 0.000000 0.000000
# 2 -0.004354 0.008931 -0.003664 0.000000 0.000000 0.000000
# 3 -0.005493 -0.003664 0.014237 0.000000 0.000000 0.000000
# 4 0.000000 0.000000 0.000000 0.021204 0.000000 0.000000
# 5 0.000000 0.000000 0.000000 0.000000 0.016944 0.000000
# 6 0.000000 0.000000 0.000000 0.000000 0.000000 0.039253
#
#
# Mechanical properties :
#
#
# Convention : Reuss Voigt Hill
#
# Bulk Modulus (GPa) = 47.99354 61.55285 54.77319
# Shear Modulus (GPa) = 31.40163 38.27716 34.83939
#
# Velocity S-wave (km/s) = 4.07843 4.50285 4.29589
# Velocity P-wave (km/s) = 6.89932 7.72263 7.32256
#
# Compressibility (1/GPa) = 0.02083614
#
# Stress axis : x y z
#
# Youngs Moduli (GPa) = 40.50194 111.97037 70.23734
#
# Poissons Ratio (x) = 0.48749 0.38584
# Poissons Ratio (y) = 0.17634 0.25735
# Poissons Ratio (z) = 0.22249 0.41026
#
# Static dielectric constant tensor:
#      x y z
#    x 3.386690 0.000000 0.000000 
#    y 0.000000 3.719380 0.000000 
#    z 0.000000 0.000000 3.417850 
# 
# 
# High freq. dielectric constant tensor:
#      x y z
#    x 1.728610 0.000000 0.000000 
#    y 0.000000 1.745090 0.000000 
#    z 0.000000 0.000000 1.747540 
# 
# From -- ./inp_files/32829.got.cif
#   From: 2010.03.12/outbox.cif.g09.slc.cpg/sg42_17_cif.got.tgz:32829.got - 2010.04.14 02:04:31.
