data_PCOD8186093
_publ_section_title
;
Structure prediction by ZEFSAII (Michael W. Deem and Ramdas Pophale) SiO2 
 PCOD8186093
Probable space group: F M M 2
;
_chemical_formula_sum "Si O2"
_cell_formula_units_Z 80
_cell_length_a 28.914026
_cell_length_b 9.340297
_cell_length_c 15.243122
_cell_angle_alpha 90.000000
_cell_angle_beta 90.000000
_cell_angle_gamma 90.000000
_cell_volume 4116.642741
_symmetry_space_group_name_H-M "F M M 2"
_symmetry_group_IT_number 42
_symmetry_cell_setting 'orthorhombic'
loop_
_space_group_symop_operation_xyz
x,y,z
-x,-y,z
-x,y,z
x,-y,z
x,1/2+y,1/2+z
-x,1/2-y,1/2+z
-x,1/2+y,1/2+z
x,1/2-y,1/2+z
1/2+x,y,1/2+z
1/2-x,-y,1/2+z
1/2-x,y,1/2+z
1/2+x,-y,1/2+z
1/2+x,1/2+y,z
1/2-x,1/2-y,z
1/2-x,1/2+y,z
1/2+x,1/2-y,z
loop_
_atom_site_type_symbol
_atom_site_label
_atom_site_fract_x
_atom_site_fract_y
_atom_site_fract_z
Si Si1 0.106390 0.835972 0.215680
Si Si2 0.705360 0.334291 0.954075
Si Si3 0.206171 0.663458 0.660675
Si Si4 0.052755 0.167902 0.571826
Si Si5 0.616579 0.164247 0.911528
O O1 0.159061 0.779649 0.204867
O O2 0.071347 0.744295 0.158446
O O3 0.091533 0.821970 0.317259
O O4 0.103865 0.000000 0.183060
O O5 0.709436 0.500000 0.927512
O O6 0.750000 0.250000 0.918349
O O7 0.660735 0.266043 0.909415
O O8 0.700620 0.313259 0.057551
O O9 0.215373 0.500000 0.685695
O O10 0.250000 0.750000 0.698025
O O11 0.081086 0.216398 0.485999
O O12 0.000000 0.214212 0.556508
O O13 0.057404 0.000000 0.587641
O O14 0.632231 0.000000 0.928122
#
# Coordination Sequence:
#
# PCOD8186093 Si02
#       5
#    16  16  16  16  16
#     4  10  21  38  59  86 115 148 190 232 278 338
#     4  10  19  33  55  82 116 154 193 232 276 331
#     4   9  18  32  52  79 111 147 188 226 268 324
#     4  10  22  40  60  83 112 146 186 235 290 343
#     4  10  21  37  59  85 116 150 187 232 284 339
#
# _framework density 19.433312999999998
#
# number of rings (size 3 to 8) (size 9 to 14) (size 15 to 20)
#    0.000    2.200    2.000    0.600    0.000    4.400 
#    0.000    4.000    0.000    0.000    0.000    0.000 
#    0.000    0.000    0.000    0.000    0.000    0.000 
#
# Total GULP energy -248058.894312 kJ/mol
# GULP energy per Si atom -12402.944716 kJ/mol
# Density = 1.938908 g / cm^3
# Si number density = 19.433313 Si / 1000 Ang^3
#
#
#
# Elastic Constant Matrix: (Units=GPa)
#
#
# Indices 1 2 3 4 5 6 
#
# 1 130.6451 54.8824 52.5405 0.0000 0.0000 0.0000
# 2 54.8824 73.4940 40.8172 0.0000 0.0000 0.0000
# 3 52.5405 40.8172 84.9579 0.0000 0.0000 0.0000
# 4 0.0000 0.0000 0.0000 24.4155 0.0000 0.0000
# 5 0.0000 0.0000 0.0000 0.0000 10.4211 0.0000
# 6 0.0000 0.0000 0.0000 0.0000 0.0000 33.9292
#
#
#
# Elastic Compliance Matrix: (Units=1/GPa)
#
#
# Indices 1 2 3 4 5 6 
#
# 1 0.012218 -0.006721 -0.004327 0.000000 0.000000 0.000000
# 2 -0.006721 0.022255 -0.006536 0.000000 0.000000 0.000000
# 3 -0.004327 -0.006536 0.017587 0.000000 0.000000 0.000000
# 4 0.000000 0.000000 0.000000 0.040958 0.000000 0.000000
# 5 0.000000 0.000000 0.000000 0.000000 0.095959 0.000000
# 6 0.000000 0.000000 0.000000 0.000000 0.000000 0.029473
#
#
# Mechanical properties :
#
#
# Convention : Reuss Voigt Hill
#
# Bulk Modulus (GPa) = 59.19848 65.06412 62.13130
# Shear Modulus (GPa) = 19.28661 23.14364 21.21512
#
# Velocity S-wave (km/s) = 3.15374 3.45472 3.30766
# Velocity P-wave (km/s) = 6.61739 7.03327 6.82850
#
# Compressibility (1/GPa) = 0.01689233
#
# Stress axis : x y z
#
# Youngs Moduli (GPa) = 81.84853 44.93325 56.86126
#
# Poissons Ratio (x) = 0.30198 0.24604
# Poissons Ratio (y) = 0.55007 0.37165
# Poissons Ratio (z) = 0.35415 0.29369
#
# Static dielectric constant tensor:
#      x y z
#    x 3.544130 0.000000 0.000000 
#    y 0.000000 3.500730 0.000000 
#    z 0.000000 0.000000 3.483980 
# 
# 
# High freq. dielectric constant tensor:
#      x y z
#    x 1.751760 0.000000 0.000000 
#    y 0.000000 1.749950 0.000000 
#    z 0.000000 0.000000 1.756200 
# 
# From -- ./inp_files/16372.got.cif
#   From: 2010.03.12/outbox.cif.g09.slc.cpg/sg42_9_cif.got.tgz:16372.got - 2010.04.14 02:04:31.
