data_PCOD8186905
_publ_section_title
;
Structure prediction by ZEFSAII (Michael W. Deem and Ramdas Pophale) SiO2 
 PCOD8186905
Probable space group: F D D 2
;
_chemical_formula_sum "Si O2"
_cell_formula_units_Z 104
_cell_length_a 22.961320
_cell_length_b 14.606332
_cell_length_c 15.174511
_cell_angle_alpha 90.000000
_cell_angle_beta 90.000000
_cell_angle_gamma 90.000000
_cell_volume 5089.237561
_symmetry_space_group_name_H-M "F D D 2"
_symmetry_group_IT_number 43
_symmetry_cell_setting 'orthorhombic'
loop_
_space_group_symop_operation_xyz
x,y,z
-x,-y,z
1/4-x,1/4+y,1/4+z
1/4+x,1/4-y,1/4+z
x,1/2+y,1/2+z
-x,1/2-y,1/2+z
1/4-x,3/4+y,3/4+z
1/4+x,3/4-y,3/4+z
1/2+x,y,1/2+z
1/2-x,-y,1/2+z
3/4-x,1/4+y,3/4+z
3/4+x,1/4-y,3/4+z
1/2+x,1/2+y,z
1/2-x,1/2-y,z
3/4-x,3/4+y,1/4+z
3/4+x,3/4-y,1/4+z
loop_
_atom_site_type_symbol
_atom_site_label
_atom_site_fract_x
_atom_site_fract_y
_atom_site_fract_z
Si Si1 0.727766 0.954164 0.417080
Si Si2 0.844678 0.226552 0.259491
Si Si3 0.605425 0.061096 0.683294
Si Si4 0.846223 0.881008 0.355509
Si Si5 0.283328 0.439732 0.595640
Si Si6 0.515604 0.854192 0.027991
Si Si7 0.500000 0.500000 0.299123
O O1 0.666710 0.905057 0.386639
O O2 0.781211 0.886767 0.392231
O O3 0.736757 0.975417 0.522470
O O4 0.728627 0.050325 0.368906
O O5 0.861986 0.200543 0.158981
O O6 0.900987 0.217254 0.321933
O O7 0.795559 0.155326 0.288917
O O8 0.821207 0.329088 0.269249
O O9 0.656172 0.087438 0.753134
O O10 0.548437 0.045206 0.740268
O O11 0.619411 0.974394 0.620441
O O12 0.266513 0.469130 0.695678
O O13 0.278413 0.328900 0.608982
#
# Coordination Sequence:
#
# PCOD8186905 Si02
#       7
#    16  16  16  16  16  16   8
#     4  10  22  36  56  86 122 153 195 251 304 366
#     4  10  21  34  60  89 117 154 201 259 310 364
#     4  11  19  36  55  88 116 148 193 253 303 368
#     4  11  20  33  63  85 114 148 199 258 320 343
#     4  10  20  35  62  87 121 152 197 263 308 353
#     4  11  22  37  56  91 122 160 204 246 313 377
#     4  10  16  34  56  86 116 130 188 264 308 336
#
# _framework density 20.435281
#
# number of rings (size 3 to 8) (size 9 to 14) (size 15 to 20)
#    0.000    1.538    4.615    4.615    4.308    0.000 
#    2.769    0.000    0.000    0.000    4.000    0.000 
#    0.000    0.000    0.000    0.000    0.000    0.000 
#
# Total GULP energy -322109.687849 kJ/mol
# GULP energy per Si atom -12388.834148 kJ/mol
# Density = 2.038877 g / cm^3
# Si number density = 20.435281 Si / 1000 Ang^3
#
#
#
# Elastic Constant Matrix: (Units=GPa)
#
#
# Indices 1 2 3 4 5 6 
#
# 1 43.5955 17.2104 11.5481 0.0000 0.0000 0.0000
# 2 17.2104 83.3064 52.9110 0.0000 0.0000 0.0000
# 3 11.5481 52.9110 87.0287 0.0000 0.0000 0.0000
# 4 0.0000 0.0000 0.0000 29.4289 0.0000 0.0000
# 5 0.0000 0.0000 0.0000 0.0000 12.5921 0.0000
# 6 0.0000 0.0000 0.0000 0.0000 0.0000 32.1018
#
#
#
# Elastic Compliance Matrix: (Units=1/GPa)
#
#
# Indices 1 2 3 4 5 6 
#
# 1 0.024979 -0.004977 -0.000289 0.000000 0.000000 0.000000
# 2 -0.004977 0.020547 -0.011831 0.000000 0.000000 0.000000
# 3 -0.000289 -0.011831 0.018722 0.000000 0.000000 0.000000
# 4 0.000000 0.000000 0.000000 0.033980 0.000000 0.000000
# 5 0.000000 0.000000 0.000000 0.000000 0.079415 0.000000
# 6 0.000000 0.000000 0.000000 0.000000 0.000000 0.031151
#
#
# Mechanical properties :
#
#
# Convention : Reuss Voigt Hill
#
# Bulk Modulus (GPa) = 33.27383 41.91885 37.59634
# Shear Modulus (GPa) = 19.76235 23.64196 21.70216
#
# Velocity S-wave (km/s) = 3.11315 3.40504 3.26236
# Velocity P-wave (km/s) = 5.40742 6.00138 5.71212
#
# Compressibility (1/GPa) = 0.03005365
#
# Stress axis : x y z
#
# Youngs Moduli (GPa) = 40.03287 48.66970 53.41347
#
# Poissons Ratio (x) = 0.24224 0.01541
# Poissons Ratio (y) = 0.19925 0.63195
# Poissons Ratio (z) = 0.01155 0.57583
#
# Static dielectric constant tensor:
#      x y z
#    x 3.834630 0.000000 0.000000 
#    y 0.000000 3.761320 0.000000 
#    z 0.000000 0.000000 3.734600 
# 
# 
# High freq. dielectric constant tensor:
#      x y z
#    x 1.797190 0.000000 0.000000 
#    y 0.000000 1.776450 0.000000 
#    z 0.000000 0.000000 1.782250 
# 
# From -- ./inp_files/14605.got.cif
#   From: 2010.06.25/outbox.cif.g09.slc.cpg/sg43_8_cif.got.tgz:14605.got - 2010.06.26 16:48:59.
