data_PCOD8186565
_publ_section_title
;
Structure prediction by ZEFSAII (Michael W. Deem and Ramdas Pophale) SiO2 
 PCOD8186565
Probable space group: F M M 2
;
_chemical_formula_sum "Si O2"
_cell_formula_units_Z 96
_cell_length_a 18.281591
_cell_length_b 9.029540
_cell_length_c 31.527789
_cell_angle_alpha 90.000000
_cell_angle_beta 90.000000
_cell_angle_gamma 90.000000
_cell_volume 5204.429503
_symmetry_space_group_name_H-M "F M M 2"
_symmetry_group_IT_number 42
_symmetry_cell_setting 'orthorhombic'
loop_
_space_group_symop_operation_xyz
x,y,z
-x,-y,z
-x,y,z
x,-y,z
x,1/2+y,1/2+z
-x,1/2-y,1/2+z
-x,1/2+y,1/2+z
x,1/2-y,1/2+z
1/2+x,y,1/2+z
1/2-x,-y,1/2+z
1/2-x,y,1/2+z
1/2+x,-y,1/2+z
1/2+x,1/2+y,z
1/2-x,1/2-y,z
1/2-x,1/2+y,z
1/2+x,1/2-y,z
loop_
_atom_site_type_symbol
_atom_site_label
_atom_site_fract_x
_atom_site_fract_y
_atom_site_fract_z
Si Si1 0.672291 0.673211 0.209290
Si Si2 0.085272 0.672616 0.627540
Si Si3 0.328346 0.825552 0.892276
Si Si4 0.173878 0.828556 0.300816
Si Si5 0.918265 0.324066 0.971769
Si Si6 0.828557 0.175801 0.553305
O O1 0.687851 0.500000 0.206256
O O2 0.750000 0.750000 0.201807
O O3 0.614980 0.722004 0.173569
O O4 0.635898 0.714372 0.255724
O O5 0.101201 0.500000 0.618429
O O6 0.124582 0.773507 0.593230
O O7 0.000000 0.708163 0.626355
O O8 0.250000 0.750000 0.897551
O O9 0.365600 0.789292 0.845779
O O10 0.382649 0.763776 0.928240
O O11 0.316371 0.000000 0.898227
O O12 0.250000 0.750000 0.301749
O O13 0.191349 0.000000 0.300552
O O14 0.922132 0.500000 0.971398
O O15 0.000000 0.257715 0.975824
O O16 0.869884 0.268761 0.011130
O O17 0.750000 0.250000 0.554774
O O18 0.819368 0.000000 0.554407
#
# Coordination Sequence:
#
# PCOD8186565 Si02
#       6
#    16  16  16  16  16  16
#     4   9  17  30  48  70  96 126 161 200 241 284
#     4  10  21  36  52  72 101 133 163 200 246 293
#     4   9  16  28  48  71  95 124 159 198 237 280
#     4   8  14  25  43  68  94 121 156 196 237 279
#     4   9  18  32  49  71  99 128 157 193 239 288
#     4  11  22  36  55  76  98 126 163 205 246 291
#
# _framework density 18.445827000000001
#
# number of rings (size 3 to 8) (size 9 to 14) (size 15 to 20)
#    0.000    2.667    0.000    2.000    0.000    3.000 
#    0.000    1.667    0.000    7.500    0.000    0.000 
#    0.000   13.333    0.000    0.000    0.000    0.000 
#
# Total GULP energy -297346.406455 kJ/mol
# GULP energy per Si atom -12389.433602 kJ/mol
# Density = 1.840384 g / cm^3
# Si number density = 18.445827 Si / 1000 Ang^3
#
#
#
# Elastic Constant Matrix: (Units=GPa)
#
#
# Indices 1 2 3 4 5 6 
#
# 1 115.8036 30.0830 80.7865 0.0000 0.0000 0.0000
# 2 30.0830 32.0264 39.7426 0.0000 0.0000 0.0000
# 3 80.7865 39.7426 199.4131 0.0000 0.0000 0.0000
# 4 0.0000 0.0000 0.0000 22.4475 0.0000 0.0000
# 5 0.0000 0.0000 0.0000 0.0000 10.0603 0.0000
# 6 0.0000 0.0000 0.0000 0.0000 0.0000 15.0554
#
#
#
# Elastic Compliance Matrix: (Units=1/GPa)
#
#
# Indices 1 2 3 4 5 6 
#
# 1 0.013340 -0.007738 -0.003862 0.000000 0.000000 0.000000
# 2 -0.007738 0.045972 -0.006027 0.000000 0.000000 0.000000
# 3 -0.003862 -0.006027 0.007781 0.000000 0.000000 0.000000
# 4 0.000000 0.000000 0.000000 0.044548 0.000000 0.000000
# 5 0.000000 0.000000 0.000000 0.000000 0.099401 0.000000
# 6 0.000000 0.000000 0.000000 0.000000 0.000000 0.066421
#
#
# Mechanical properties :
#
#
# Convention : Reuss Voigt Hill
#
# Bulk Modulus (GPa) = 31.40906 72.05193 51.73050
# Shear Modulus (GPa) = 15.46411 22.62138 19.04274
#
# Velocity S-wave (km/s) = 2.89857 3.50575 3.21652
# Velocity P-wave (km/s) = 5.31667 7.45206 6.47303
#
# Compressibility (1/GPa) = 0.03183794
#
# Stress axis : x y z
#
# Youngs Moduli (GPa) = 74.96483 21.75238 128.52501
#
# Poissons Ratio (x) = 0.16831 0.49637
# Poissons Ratio (y) = 0.58004 0.77468
# Poissons Ratio (z) = 0.28952 0.13111
#
# Static dielectric constant tensor:
#      x y z
#    x 3.246590 0.000000 0.000000 
#    y 0.000000 3.130910 0.000000 
#    z 0.000000 0.000000 4.254610 
# 
# 
# High freq. dielectric constant tensor:
#      x y z
#    x 1.689300 0.000000 0.000000 
#    y 0.000000 1.694740 0.000000 
#    z 0.000000 0.000000 1.747980 
# 
# From -- ./inp_files/32812.got.cif
#   From: 2010.03.12/outbox.cif.g09.slc.cpg/sg42_17_cif.got.tgz:32812.got - 2010.04.14 02:04:31.
