data_PCOD8186777
_publ_section_title
;
Structure prediction by ZEFSAII (Michael W. Deem and Ramdas Pophale) SiO2 
 PCOD8186777
Probable space group: F M M 2
;
_chemical_formula_sum "Si O2"
_cell_formula_units_Z 96
_cell_length_a 24.815202
_cell_length_b 20.355807
_cell_length_c 9.051189
_cell_angle_alpha 90.000000
_cell_angle_beta 90.000000
_cell_angle_gamma 90.000000
_cell_volume 4572.058440
_symmetry_space_group_name_H-M "F M M 2"
_symmetry_group_IT_number 42
_symmetry_cell_setting 'orthorhombic'
loop_
_space_group_symop_operation_xyz
x,y,z
-x,-y,z
-x,y,z
x,-y,z
x,1/2+y,1/2+z
-x,1/2-y,1/2+z
-x,1/2+y,1/2+z
x,1/2-y,1/2+z
1/2+x,y,1/2+z
1/2-x,-y,1/2+z
1/2-x,y,1/2+z
1/2+x,-y,1/2+z
1/2+x,1/2+y,z
1/2-x,1/2-y,z
1/2-x,1/2+y,z
1/2+x,1/2-y,z
loop_
_atom_site_type_symbol
_atom_site_label
_atom_site_fract_x
_atom_site_fract_y
_atom_site_fract_z
Si Si1 0.240849 0.390872 0.893350
Si Si2 0.361000 0.573301 0.931430
Si Si3 0.900025 0.193907 0.744083
Si Si4 0.868627 0.426820 0.769012
Si Si5 0.560716 0.817281 0.924773
Si Si6 0.283610 0.692838 0.654048
O O1 0.296630 0.430390 0.905693
O O2 0.194467 0.431599 0.811261
O O3 0.253444 0.323701 0.806433
O O4 0.216607 0.372052 0.052892
O O5 0.383421 0.500000 0.900049
O O6 0.391618 0.623842 0.824543
O O7 0.373579 0.595023 0.098799
O O8 0.938570 0.185630 0.602877
O O9 0.923163 0.246652 0.858558
O O10 0.843272 0.219703 0.681978
O O11 0.892959 0.500000 0.792004
O O12 0.900135 0.374538 0.868254
O O13 0.500000 0.833928 0.875126
O O14 0.250000 0.750000 0.573937
#
# Coordination Sequence:
#
# PCOD8186777 Si02
#       6
#    16  16  16  16  16  16
#     4  11  20  37  57  94 133 177 210 254 310 384
#     4  10  23  42  65  97 137 178 213 254 320 397
#     4  11  25  42  67  97 130 168 216 270 328 388
#     4  11  23  42  65  94 133 173 218 266 321 388
#     4  12  26  46  69  95 125 166 223 283 340 384
#     4  11  22  33  58  92 137 170 211 251 312 387
#
# _framework density 20.997108000000001
#
# number of rings (size 3 to 8) (size 9 to 14) (size 15 to 20)
#    0.000    1.000    3.333    3.500    4.667    1.000 
#    0.000    0.833    0.000    3.500    0.000    0.000 
#    0.000    0.000    0.000    0.000    0.000    0.000 
#
# Total GULP energy -297591.299562 kJ/mol
# GULP energy per Si atom -12399.637482 kJ/mol
# Density = 2.094932 g / cm^3
# Si number density = 20.997108 Si / 1000 Ang^3
#
#
#
# Elastic Constant Matrix: (Units=GPa)
#
#
# Indices 1 2 3 4 5 6 
#
# 1 86.7702 32.6011 22.6200 0.0000 -0.0001 0.0000
# 2 32.6011 109.7448 49.1177 0.0007 -0.0001 -0.0001
# 3 22.6200 49.1177 113.7736 0.0018 -0.0003 -0.0001
# 4 0.0000 0.0007 0.0018 32.1745 -0.0002 -0.0001
# 5 -0.0001 -0.0001 -0.0003 -0.0002 24.1054 0.0000
# 6 0.0000 -0.0001 -0.0001 -0.0001 0.0000 13.9620
#
#
#
# Elastic Compliance Matrix: (Units=1/GPa)
#
#
# Indices 1 2 3 4 5 6 
#
# 1 0.013092 -0.003377 -0.001145 0.000000 0.000000 0.000000
# 2 -0.003377 0.012165 -0.004581 0.000000 0.000000 0.000000
# 3 -0.001145 -0.004581 0.010995 -0.000001 0.000000 0.000000
# 4 0.000000 0.000000 -0.000001 0.031080 0.000000 0.000000
# 5 0.000000 0.000000 0.000000 0.000000 0.041484 0.000000
# 6 0.000000 0.000000 0.000000 0.000000 0.000000 0.071623
#
#
# Mechanical properties :
#
#
# Convention : Reuss Voigt Hill
#
# Bulk Modulus (GPa) = 55.41085 57.66292 56.53689
# Shear Modulus (GPa) = 24.43075 27.77837 26.10456
#
# Velocity S-wave (km/s) = 3.41476 3.64120 3.52979
# Velocity P-wave (km/s) = 6.48031 6.72307 6.60281
#
# Compressibility (1/GPa) = 0.01804701
#
# Stress axis : x y z
#
# Youngs Moduli (GPa) = 76.38336 82.20172 90.95409
#
# Poissons Ratio (x) = 0.27756 0.10416
# Poissons Ratio (y) = 0.25791 0.41662
# Poissons Ratio (z) = 0.08747 0.37653
#
# Static dielectric constant tensor:
#      x y z
#    x 3.594320 0.000000 0.000000 
#    y 0.000000 3.623870 0.000000 
#    z 0.000000 0.000000 3.879410 
# 
# 
# High freq. dielectric constant tensor:
#      x y z
#    x 1.801000 0.000000 0.000000 
#    y 0.000000 1.820890 0.000000 
#    z 0.000000 0.000000 1.837360 
# 
# From -- ./inp_files/4153.got.cif
#   From: 2010.03.12/outbox.cif.g09.slc.cpg/sg42_3_cif.got.tgz:4153.got - 2010.04.14 02:04:31.
