data_PCOD8186631
_publ_section_title
;
Structure prediction by ZEFSAII (Michael W. Deem and Ramdas Pophale) SiO2 
 PCOD8186631
Probable space group: F M M 2
;
_chemical_formula_sum "Si O2"
_cell_formula_units_Z 104
_cell_length_a 23.394857
_cell_length_b 29.467234
_cell_length_c 7.401287
_cell_angle_alpha 90.000000
_cell_angle_beta 90.000000
_cell_angle_gamma 90.000000
_cell_volume 5102.312004
_symmetry_space_group_name_H-M "F M M 2"
_symmetry_group_IT_number 42
_symmetry_cell_setting 'orthorhombic'
loop_
_space_group_symop_operation_xyz
x,y,z
-x,-y,z
-x,y,z
x,-y,z
x,1/2+y,1/2+z
-x,1/2-y,1/2+z
-x,1/2+y,1/2+z
x,1/2-y,1/2+z
1/2+x,y,1/2+z
1/2-x,-y,1/2+z
1/2-x,y,1/2+z
1/2+x,-y,1/2+z
1/2+x,1/2+y,z
1/2-x,1/2-y,z
1/2-x,1/2+y,z
1/2+x,1/2-y,z
loop_
_atom_site_type_symbol
_atom_site_label
_atom_site_fract_x
_atom_site_fract_y
_atom_site_fract_z
Si Si1 0.316388 0.887545 0.541900
Si Si2 0.380312 0.300190 0.044452
Si Si3 0.623781 0.447742 0.753327
Si Si4 0.000000 0.334819 0.968732
Si Si5 0.380311 0.199808 0.962193
Si Si6 0.183616 0.612454 0.964757
Si Si7 0.500000 0.911868 0.253312
Si Si8 0.500000 0.165184 0.537896
O O1 0.337610 0.838367 0.466362
O O2 0.350232 0.925861 0.434043
O O3 0.250002 0.891779 0.503323
O O4 0.329454 0.894362 0.753329
O O5 0.382857 0.308547 0.253322
O O6 0.444621 0.306722 0.969001
O O7 0.356821 0.249999 0.003328
O O8 0.641363 0.500000 0.753337
O O9 0.649774 0.425862 0.572618
O O10 0.555546 0.443402 0.753316
O O11 0.944620 0.306726 0.037640
O O12 0.000000 0.343643 0.753314
O O13 0.000000 0.382677 0.069674
O O14 0.337606 0.161633 0.040281
O O15 0.500000 0.882673 0.436939
#
# Coordination Sequence:
#
# PCOD8186631 Si02
#       8
#    16  16  16   8  16  16   8   8
#     4  11  24  45  67  96 136 174 219 276 325 389
#     4  10  22  36  60  93 131 176 221 264 324 382
#     4  12  27  46  72 100 129 170 222 276 338 396
#     4  10  21  38  59  92 131 173 219 273 322 381
#     4  10  22  36  60  93 131 176 221 264 324 382
#     4  11  24  45  67  96 136 174 219 276 325 389
#     4  12  23  42  76  90 132 176 210 274 341 386
#     4  10  21  38  59  92 131 173 219 273 322 381
#
# _framework density 20.382918
#
# number of rings (size 3 to 8) (size 9 to 14) (size 15 to 20)
#    0.000    1.231    4.615    0.692    4.308    1.846 
#    0.000    3.077    0.000    2.769    0.000    0.000 
#    0.000    0.000    0.000    0.000    0.000    0.000 
#
# Total GULP energy -322376.348777 kJ/mol
# GULP energy per Si atom -12399.090338 kJ/mol
# Density = 2.033653 g / cm^3
# Si number density = 20.382918 Si / 1000 Ang^3
#
#
#
# Elastic Constant Matrix: (Units=GPa)
#
#
# Indices 1 2 3 4 5 6 
#
# 1 144.2840 61.4955 32.5748 0.0008 0.0063 0.0024
# 2 61.4955 172.2477 47.2577 0.0024 0.0056 0.0054
# 3 32.5748 47.2577 99.2506 -0.0014 0.0569 -0.0174
# 4 0.0008 0.0024 -0.0014 25.8386 0.0097 -0.0005
# 5 0.0063 0.0056 0.0569 0.0097 -5.8312 0.0148
# 6 0.0024 0.0054 -0.0174 -0.0005 0.0148 12.5110
#
#
#
# Elastic Compliance Matrix: (Units=1/GPa)
#
#
# Indices 1 2 3 4 5 6 
#
# 1 0.008370 -0.002570 -0.001523 0.000000 -0.000008 -0.000003
# 2 -0.002570 0.007467 -0.002712 -0.000001 -0.000022 -0.000006
# 3 -0.001523 -0.002712 0.011867 0.000001 0.000112 0.000018
# 4 0.000000 -0.000001 0.000001 0.038702 0.000064 0.000001
# 5 -0.000008 -0.000022 0.000112 0.000064 -0.171491 0.000203
# 6 -0.000003 -0.000006 0.000018 0.000001 0.000203 0.079929
#
#
# Mechanical properties :
#
#
# Convention : Reuss Voigt Hill
#
# Bulk Modulus (GPa) = 70.95700 77.60426 74.28063
# Shear Modulus (GPa) = -730.31077 24.80064 -352.75507
#
# Velocity S-wave (km/s) = -18.94923 3.49196 -13.16965
# Velocity P-wave (km/s) = 21.06839 7.37660 13.95462
#
# Compressibility (1/GPa) = 0.01409304
#
# Stress axis : x y z
#
# Youngs Moduli (GPa) = 119.47124 133.91727 84.26979
#
# Poissons Ratio (x) = 0.34422 0.12837
# Poissons Ratio (y) = 0.30709 0.22853
# Poissons Ratio (z) = 0.18199 0.36317
#
# Static dielectric constant tensor:
#      x y z
#    x 4.091040 -0.000110 0.000010 
#    y -0.000110 4.481350 -0.000180 
#    z 0.000010 -0.000180 3.784860 
# 
# 
# High freq. dielectric constant tensor:
#      x y z
#    x 1.805290 0.000000 0.000000 
#    y 0.000000 1.783560 0.000000 
#    z 0.000000 0.000000 1.804510 
# 
# From -- ./inp_files/4280.got.cif
#   From: 2010.03.12/outbox.cif.g09.slc.cpg/sg42_3_cif.got.tgz:4280.got - 2010.04.14 02:04:31.
