data_PCOD8186913
_publ_section_title
;
Structure prediction by ZEFSAII (Michael W. Deem and Ramdas Pophale) SiO2 
 PCOD8186913
Probable space group: F D D 2
;
_chemical_formula_sum "Si O2"
_cell_formula_units_Z 120
_cell_length_a 11.665125
_cell_length_b 16.258885
_cell_length_c 32.384231
_cell_angle_alpha 90.000000
_cell_angle_beta 90.000000
_cell_angle_gamma 90.000000
_cell_volume 6142.055620
_symmetry_space_group_name_H-M "F D D 2"
_symmetry_group_IT_number 43
_symmetry_cell_setting 'orthorhombic'
loop_
_space_group_symop_operation_xyz
x,y,z
-x,-y,z
1/4-x,1/4+y,1/4+z
1/4+x,1/4-y,1/4+z
x,1/2+y,1/2+z
-x,1/2-y,1/2+z
1/4-x,3/4+y,3/4+z
1/4+x,3/4-y,3/4+z
1/2+x,y,1/2+z
1/2-x,-y,1/2+z
3/4-x,1/4+y,3/4+z
3/4+x,1/4-y,3/4+z
1/2+x,1/2+y,z
1/2-x,1/2-y,z
3/4-x,3/4+y,1/4+z
3/4+x,3/4-y,1/4+z
loop_
_atom_site_type_symbol
_atom_site_label
_atom_site_fract_x
_atom_site_fract_y
_atom_site_fract_z
Si Si1 0.815110 0.167406 0.257460
Si Si2 0.929254 0.776532 0.243895
Si Si3 0.956562 0.870928 0.012316
Si Si4 0.122287 0.965649 0.686501
Si Si5 0.718931 0.052005 0.410649
Si Si6 0.784587 0.369153 0.170026
Si Si7 0.000000 0.000000 0.351694
Si Si8 0.987165 0.770344 0.567795
O O1 0.750000 0.250000 0.269095
O O2 0.792641 0.139956 0.210483
O O3 0.757370 0.100490 0.288270
O O4 0.951881 0.185755 0.261328
O O5 0.899733 0.685560 0.262736
O O6 0.829370 0.836369 0.258453
O O7 0.924193 0.765895 0.193660
O O8 0.951625 0.812440 0.052082
O O9 0.948148 0.805457 0.975732
O O10 0.107639 0.884078 0.659657
O O11 0.189228 0.035268 0.660340
O O12 0.000000 0.000000 0.701780
O O13 0.847630 0.069018 0.426326
O O14 0.709693 0.026388 0.363345
O O15 0.723088 0.329965 0.130303
O O16 0.102445 0.990732 0.320502
#
# Coordination Sequence:
#
# PCOD8186913 Si02
#       8
#    16  16  16  16  16  16   8  16
#     4  12  21  35  61  94 114 149 204 252 297 353
#     4  10  21  39  64  80 121 166 202 229 298 378
#     4  10  21  38  62  85 120 162 196 242 294 362
#     4   9  18  34  64  83 111 154 206 234 284 365
#     4   9  19  37  61  84 117 157 194 248 301 352
#     4  10  17  34  59  87 112 156 200 240 291 368
#     4  10  20  34  54  82 120 156 184 246 316 340
#     4  11  22  35  59  90 120 148 200 261 302 345
#
# _framework density 19.537431999999999
#
# number of rings (size 3 to 8) (size 9 to 14) (size 15 to 20)
#    0.000    1.867    3.333    1.600    0.000    2.667 
#    0.000    0.000   32.267    0.000    0.000    0.000 
#    0.000    0.000    0.000    0.000    0.000    0.000 
#
# Total GULP energy -371714.771338 kJ/mol
# GULP energy per Si atom -12390.492378 kJ/mol
# Density = 1.949296 g / cm^3
# Si number density = 19.537432 Si / 1000 Ang^3
#
#
#
# Elastic Constant Matrix: (Units=GPa)
#
#
# Indices 1 2 3 4 5 6 
#
# 1 51.9034 20.5898 21.5618 0.0000 0.0000 0.0000
# 2 20.5898 101.0066 37.9931 0.0000 0.0000 0.0000
# 3 21.5618 37.9931 83.6898 0.0000 0.0000 0.0000
# 4 0.0000 0.0000 0.0000 -86.0314 0.0000 0.0000
# 5 0.0000 0.0000 0.0000 0.0000 26.3408 0.0000
# 6 0.0000 0.0000 0.0000 0.0000 0.0000 25.7368
#
#
#
# Elastic Compliance Matrix: (Units=1/GPa)
#
#
# Indices 1 2 3 4 5 6 
#
# 1 0.022244 -0.002869 -0.004429 0.000000 0.000000 0.000000
# 2 -0.002869 0.012309 -0.004849 0.000000 0.000000 0.000000
# 3 -0.004429 -0.004849 0.015291 0.000000 0.000000 0.000000
# 4 0.000000 0.000000 0.000000 -0.011624 0.000000 0.000000
# 5 0.000000 0.000000 0.000000 0.000000 0.037964 0.000000
# 6 0.000000 0.000000 0.000000 0.000000 0.000000 0.038855
#
#
# Mechanical properties :
#
#
# Convention : Reuss Voigt Hill
#
# Bulk Modulus (GPa) = 39.13587 44.09881 41.61734
# Shear Modulus (GPa) = 33.81818 3.63958 18.72888
#
# Velocity S-wave (km/s) = 4.16497 1.36635 3.09951
# Velocity P-wave (km/s) = 6.57298 5.01096 5.84439
#
# Compressibility (1/GPa) = 0.02555201
#
# Stress axis : x y z
#
# Youngs Moduli (GPa) = 44.95531 81.24150 65.39715
#
# Poissons Ratio (x) = 0.23305 0.28963
# Poissons Ratio (y) = 0.12896 0.31710
# Poissons Ratio (z) = 0.19910 0.39393
#
# Static dielectric constant tensor:
#      x y z
#    x 3.537050 0.000000 0.000000 
#    y 0.000000 3.975240 0.000000 
#    z 0.000000 0.000000 3.449250 
# 
# 
# High freq. dielectric constant tensor:
#      x y z
#    x 1.750730 0.000000 0.000000 
#    y 0.000000 1.771860 0.000000 
#    z 0.000000 0.000000 1.745700 
# 
# From -- ./inp_files/25700.got.cif
#   From: 2010.06.25/outbox.cif.g09.slc.cpg/sg43_13_cif.got.tgz:25700.got - 2010.06.26 16:48:59.
