data_PCOD8186572
_publ_section_title
;
Structure prediction by ZEFSAII (Michael W. Deem and Ramdas Pophale) SiO2 
 PCOD8186572
Probable space group: F M M 2
;
_chemical_formula_sum "Si O2"
_cell_formula_units_Z 96
_cell_length_a 17.995833
_cell_length_b 9.190310
_cell_length_c 30.847501
_cell_angle_alpha 90.000000
_cell_angle_beta 90.000000
_cell_angle_gamma 90.000000
_cell_volume 5101.784408
_symmetry_space_group_name_H-M "F M M 2"
_symmetry_group_IT_number 42
_symmetry_cell_setting 'orthorhombic'
loop_
_space_group_symop_operation_xyz
x,y,z
-x,-y,z
-x,y,z
x,-y,z
x,1/2+y,1/2+z
-x,1/2-y,1/2+z
-x,1/2+y,1/2+z
x,1/2-y,1/2+z
1/2+x,y,1/2+z
1/2-x,-y,1/2+z
1/2-x,y,1/2+z
1/2+x,-y,1/2+z
1/2+x,1/2+y,z
1/2-x,1/2-y,z
1/2-x,1/2+y,z
1/2+x,1/2-y,z
loop_
_atom_site_type_symbol
_atom_site_label
_atom_site_fract_x
_atom_site_fract_y
_atom_site_fract_z
Si Si1 0.172977 0.669961 0.792780
Si Si2 0.828214 0.171726 0.632353
Si Si3 0.085863 0.329667 0.877455
Si Si4 0.411611 0.664280 0.961767
Si Si5 0.414587 0.330667 0.545961
Si Si6 0.412939 0.333333 0.206144
O O1 0.189034 0.500000 0.795673
O O2 0.250000 0.750000 0.786857
O O3 0.131730 0.724691 0.836000
O O4 0.121340 0.708645 0.752285
O O5 0.750000 0.250000 0.636359
O O6 0.865808 0.214531 0.587032
O O7 0.881414 0.225318 0.670348
O O8 0.816910 0.000000 0.636873
O O9 0.095699 0.500000 0.885964
O O10 0.118476 0.246042 0.919199
O O11 0.000000 0.290415 0.869196
O O12 0.500000 0.670561 0.961755
O O13 0.381437 0.500000 0.961441
O O14 0.382098 0.743115 0.004982
O O15 0.500000 0.288522 0.555786
O O16 0.407668 0.500000 0.535042
O O17 0.500000 0.308060 0.209782
O O18 0.393998 0.500000 0.193660
#
# Coordination Sequence:
#
# PCOD8186572 Si02
#       6
#    16  16  16  16  16  16
#     4  10  21  36  54  78 108 142 178 216 262 316
#     4  11  23  38  56  80 111 145 181 221 268 322
#     4   9  17  32  54  76 101 137 179 219 260 310
#     4   9  17  29  49  79 109 134 168 218 269 313
#     4   9  18  34  55  77 103 138 179 220 263 315
#     4  10  21  38  60  84 109 139 178 223 269 319
#
# _framework density 18.816946000000002
#
# number of rings (size 3 to 8) (size 9 to 14) (size 15 to 20)
#    0.000    2.333    0.000    2.500    0.000    9.000 
#    0.000    2.500    0.000    3.000    0.000    0.000 
#    0.000    0.000    0.000    0.000    0.000    0.000 
#
# Total GULP energy -297673.005295 kJ/mol
# GULP energy per Si atom -12403.041887 kJ/mol
# Density = 1.877412 g / cm^3
# Si number density = 18.816946 Si / 1000 Ang^3
#
#
#
# Elastic Constant Matrix: (Units=GPa)
#
#
# Indices 1 2 3 4 5 6 
#
# 1 91.8640 42.6218 62.4462 0.0000 0.0000 0.0000
# 2 42.6218 77.6545 74.4274 0.0000 0.0000 0.0000
# 3 62.4462 74.4274 171.5147 0.0000 0.0000 0.0000
# 4 0.0000 0.0000 0.0000 34.2355 0.0000 0.0000
# 5 0.0000 0.0000 0.0000 0.0000 -27.8761 0.0000
# 6 0.0000 0.0000 0.0000 0.0000 0.0000 23.2262
#
#
#
# Elastic Compliance Matrix: (Units=1/GPa)
#
#
# Indices 1 2 3 4 5 6 
#
# 1 0.015670 -0.005363 -0.003378 0.000000 0.000000 0.000000
# 2 -0.005363 0.023883 -0.008411 0.000000 0.000000 0.000000
# 3 -0.003378 -0.008411 0.010710 0.000000 0.000000 0.000000
# 4 0.000000 0.000000 0.000000 0.029209 0.000000 0.000000
# 5 0.000000 0.000000 0.000000 0.000000 -0.035873 0.000000
# 6 0.000000 0.000000 0.000000 0.000000 0.000000 0.043055
#
#
# Mechanical properties :
#
#
# Convention : Reuss Voigt Hill
#
# Bulk Modulus (GPa) = 62.66194 77.78048 70.22121
# Shear Modulus (GPa) = 39.59500 16.68630 28.14065
#
# Velocity S-wave (km/s) = 4.59215 2.98110 3.87136
# Velocity P-wave (km/s) = 7.84157 7.29893 7.57511
#
# Compressibility (1/GPa) = 0.01595865
#
# Stress axis : x y z
#
# Youngs Moduli (GPa) = 63.81506 41.87125 93.36897
#
# Poissons Ratio (x) = 0.22457 0.31540
# Poissons Ratio (y) = 0.34225 0.78533
# Poissons Ratio (z) = 0.21557 0.35218
#
# Static dielectric constant tensor:
#      x y z
#    x 3.296120 0.000000 0.000000 
#    y 0.000000 3.478550 0.000000 
#    z 0.000000 0.000000 3.662570 
# 
# 
# High freq. dielectric constant tensor:
#      x y z
#    x 1.714950 0.000000 0.000000 
#    y 0.000000 1.728600 0.000000 
#    z 0.000000 0.000000 1.747860 
# 
# From -- ./inp_files/31440.got.cif
#   From: 2010.03.12/outbox.cif.g09.slc.cpg/sg42_16_cif.got.tgz:31440.got - 2010.04.14 02:04:31.
