data_PCOD8186256
_publ_section_title
;
Structure prediction by ZEFSAII (Michael W. Deem and Ramdas Pophale) SiO2 
 PCOD8186256
Probable space group: F M M 2
;
_chemical_formula_sum "Si O2"
_cell_formula_units_Z 112
_cell_length_a 13.882317
_cell_length_b 14.263780
_cell_length_c 28.338418
_cell_angle_alpha 90.000000
_cell_angle_beta 90.000000
_cell_angle_gamma 90.000000
_cell_volume 5611.412445
_symmetry_space_group_name_H-M "F M M 2"
_symmetry_group_IT_number 42
_symmetry_cell_setting 'orthorhombic'
loop_
_space_group_symop_operation_xyz
x,y,z
-x,-y,z
-x,y,z
x,-y,z
x,1/2+y,1/2+z
-x,1/2-y,1/2+z
-x,1/2+y,1/2+z
x,1/2-y,1/2+z
1/2+x,y,1/2+z
1/2-x,-y,1/2+z
1/2-x,y,1/2+z
1/2+x,-y,1/2+z
1/2+x,1/2+y,z
1/2-x,1/2-y,z
1/2-x,1/2+y,z
1/2+x,1/2-y,z
loop_
_atom_site_type_symbol
_atom_site_label
_atom_site_fract_x
_atom_site_fract_y
_atom_site_fract_z
Si Si1 0.275495 0.147497 0.387300
Si Si2 0.107817 0.396948 0.476406
Si Si3 0.386501 0.782643 0.566761
Si Si4 0.390827 0.391987 0.701243
Si Si5 0.783903 0.889545 0.605026
Si Si6 0.112684 0.799000 0.796045
Si Si7 0.891593 0.100442 0.329444
O O1 0.250000 0.250000 0.405274
O O2 0.327082 0.097145 0.430174
O O3 0.339695 0.147379 0.339830
O O4 0.176170 0.094422 0.375435
O O5 0.113754 0.500000 0.500685
O O6 0.138780 0.318325 0.514074
O O7 0.000000 0.374803 0.459165
O O8 0.500000 0.792564 0.578208
O O9 0.325546 0.850134 0.602160
O O10 0.351860 0.674236 0.570823
O O11 0.500000 0.359480 0.688208
O O12 0.391206 0.500000 0.715308
O O13 0.320434 0.372295 0.657866
O O14 0.348865 0.336737 0.746233
O O15 0.791002 0.000000 0.590980
O O16 0.139937 0.688026 0.796836
O O17 0.000000 0.817787 0.799879
O O18 0.000000 0.117485 0.347805
O O19 0.884623 0.000000 0.302079
#
# Coordination Sequence:
#
# PCOD8186256 Si02
#       7
#    16  16  16  16  16  16  16
#     4  10  20  33  55  83 116 152 194 236 288 342
#     4  10  21  37  59  86 117 151 189 240 300 359
#     4  10  22  40  62  90 124 159 197 251 313 365
#     4   9  18  34  59  90 119 147 189 248 302 348
#     4  10  21  39  66  92 117 157 206 251 304 368
#     4   9  18  34  56  84 117 150 187 235 291 346
#     4   9  18  34  54  76 110 158 201 234 276 337
#
# _framework density 19.959323999999999
#
# number of rings (size 3 to 8) (size 9 to 14) (size 15 to 20)
#    0.000    2.429    0.000    1.714    2.000    3.429 
#    7.714    1.429    0.000    0.857    0.000    4.000 
#    0.000    0.000    0.000    0.000    0.000    0.000 
#
# Total GULP energy -346998.068125 kJ/mol
# GULP energy per Si atom -12392.788147 kJ/mol
# Density = 1.991390 g / cm^3
# Si number density = 19.959324 Si / 1000 Ang^3
#
#
#
# Elastic Constant Matrix: (Units=GPa)
#
#
# Indices 1 2 3 4 5 6 
#
# 1 104.4127 45.5262 59.3233 0.0000 0.0000 0.0000
# 2 45.5262 129.7922 60.6689 0.0000 0.0000 0.0000
# 3 59.3233 60.6689 117.4080 0.0000 0.0000 0.0000
# 4 0.0000 0.0000 0.0000 15.5391 0.0000 0.0000
# 5 0.0000 0.0000 0.0000 0.0000 30.7241 0.0000
# 6 0.0000 0.0000 0.0000 0.0000 0.0000 23.0286
#
#
#
# Elastic Compliance Matrix: (Units=1/GPa)
#
#
# Indices 1 2 3 4 5 6 
#
# 1 0.013852 -0.002093 -0.005918 0.000000 0.000000 0.000000
# 2 -0.002093 0.010474 -0.004355 0.000000 0.000000 0.000000
# 3 -0.005918 -0.004355 0.013758 0.000000 0.000000 0.000000
# 4 0.000000 0.000000 0.000000 0.064354 0.000000 0.000000
# 5 0.000000 0.000000 0.000000 0.000000 0.032548 0.000000
# 6 0.000000 0.000000 0.000000 0.000000 0.000000 0.043424
#
#
# Mechanical properties :
#
#
# Convention : Reuss Voigt Hill
#
# Bulk Modulus (GPa) = 74.88819 75.84997 75.36908
# Shear Modulus (GPa) = 24.08565 26.26463 25.17514
#
# Velocity S-wave (km/s) = 3.47758 3.63148 3.55536
# Velocity P-wave (km/s) = 7.32984 7.46112 7.39577
#
# Compressibility (1/GPa) = 0.01335324
#
# Stress axis : x y z
#
# Youngs Moduli (GPa) = 72.19144 95.47125 72.68580
#
# Poissons Ratio (x) = 0.19979 0.43014
# Poissons Ratio (y) = 0.15107 0.31656
# Poissons Ratio (z) = 0.42721 0.41579
#
# Static dielectric constant tensor:
#      x y z
#    x 3.830730 0.000000 0.000000 
#    y 0.000000 3.869760 0.000000 
#    z 0.000000 0.000000 3.342480 
# 
# 
# High freq. dielectric constant tensor:
#      x y z
#    x 1.790270 0.000000 0.000000 
#    y 0.000000 1.788770 0.000000 
#    z 0.000000 0.000000 1.749040 
# 
# From -- ./inp_files/32592.got.cif
#   From: 2010.03.12/outbox.cif.g09.slc.cpg/sg42_17_cif.got.tgz:32592.got - 2010.04.14 02:04:31.
