data_PCOD8186437
_publ_section_title
;
Structure prediction by ZEFSAII (Michael W. Deem and Ramdas Pophale) SiO2 
 PCOD8186437
Probable space group: F M M 2
;
_chemical_formula_sum "Si O2"
_cell_formula_units_Z 80
_cell_length_a 25.704271
_cell_length_b 8.780010
_cell_length_c 17.941428
_cell_angle_alpha 90.000000
_cell_angle_beta 90.000000
_cell_angle_gamma 90.000000
_cell_volume 4049.088867
_symmetry_space_group_name_H-M "F M M 2"
_symmetry_group_IT_number 42
_symmetry_cell_setting 'orthorhombic'
loop_
_space_group_symop_operation_xyz
x,y,z
-x,-y,z
-x,y,z
x,-y,z
x,1/2+y,1/2+z
-x,1/2-y,1/2+z
-x,1/2+y,1/2+z
x,1/2-y,1/2+z
1/2+x,y,1/2+z
1/2-x,-y,1/2+z
1/2-x,y,1/2+z
1/2+x,-y,1/2+z
1/2+x,1/2+y,z
1/2-x,1/2-y,z
1/2-x,1/2+y,z
1/2+x,1/2-y,z
loop_
_atom_site_type_symbol
_atom_site_label
_atom_site_fract_x
_atom_site_fract_y
_atom_site_fract_z
Si Si1 0.093164 0.823949 0.433570
Si Si2 0.803263 0.678226 0.852520
Si Si3 0.000000 0.820219 0.189098
Si Si4 0.902257 0.323771 0.108406
Si Si5 0.195852 0.180101 0.182624
Si Si6 0.000000 0.677687 0.349018
O O1 0.149395 0.768678 0.404625
O O2 0.089382 0.800979 0.521222
O O3 0.050644 0.716778 0.396612
O O4 0.083139 0.000000 0.411252
O O5 0.795431 0.500000 0.856349
O O6 0.750000 0.750000 0.883183
O O7 0.814867 0.730697 0.767878
O O8 0.051024 0.754866 0.151139
O O9 0.000000 0.777801 0.275218
O O10 0.000000 0.000000 0.180357
O O11 0.900722 0.500000 0.130788
O O12 0.848606 0.246186 0.130532
O O13 0.250000 0.250000 0.154421
O O14 0.197668 0.000000 0.174083
O O15 0.000000 0.500000 0.328704
#
# Coordination Sequence:
#
# PCOD8186437 Si02
#       6
#    16  16   8  16  16   8
#     4  10  22  40  60  85 121 158 189 233 295 353
#     4   9  19  36  58  83 111 149 193 236 286 340
#     4  12  25  42  63  85 115 155 197 242 295 354
#     4  11  23  39  60  88 121 155 195 244 296 351
#     4  10  20  36  59  85 116 156 201 248 297 350
#     4  12  25  40  63  91 115 147 195 244 289 346
#
# _framework density 19.757529999999999
#
# number of rings (size 3 to 8) (size 9 to 14) (size 15 to 20)
#    0.000    1.600    0.000    4.800    0.000    8.000 
#    0.000    2.000    0.000    0.000    0.000    0.000 
#    0.000    0.000    0.000    0.000    0.000    0.000 
#
# Total GULP energy -248110.147185 kJ/mol
# GULP energy per Si atom -12405.507359 kJ/mol
# Density = 1.971256 g / cm^3
# Si number density = 19.757530 Si / 1000 Ang^3
#
#
#
# Elastic Constant Matrix: (Units=GPa)
#
#
# Indices 1 2 3 4 5 6 
#
# 1 149.9560 50.9575 48.9900 0.0000 0.0000 0.0000
# 2 50.9575 86.4708 34.9338 0.0000 0.0000 0.0000
# 3 48.9900 34.9338 74.8801 0.0000 0.0000 0.0000
# 4 0.0000 0.0000 0.0000 26.9287 0.0000 0.0000
# 5 0.0000 0.0000 0.0000 0.0000 145.5877 0.0000
# 6 0.0000 0.0000 0.0000 0.0000 0.0000 38.3999
#
#
#
# Elastic Compliance Matrix: (Units=1/GPa)
#
#
# Indices 1 2 3 4 5 6 
#
# 1 0.009376 -0.003755 -0.004383 0.000000 0.000000 0.000000
# 2 -0.003755 0.015754 -0.004893 0.000000 0.000000 0.000000
# 3 -0.004383 -0.004893 0.018505 0.000000 0.000000 0.000000
# 4 0.000000 0.000000 0.000000 0.037135 0.000000 0.000000
# 5 0.000000 0.000000 0.000000 0.000000 0.006869 0.000000
# 6 0.000000 0.000000 0.000000 0.000000 0.000000 0.026042
#
#
# Mechanical properties :
#
#
# Convention : Reuss Voigt Hill
#
# Bulk Modulus (GPa) = 56.90259 64.56327 60.73293
# Shear Modulus (GPa) = 34.34055 53.94499 44.14277
#
# Velocity S-wave (km/s) = 4.17357 5.23094 4.73189
# Velocity P-wave (km/s) = 7.21720 8.32060 7.78847
#
# Compressibility (1/GPa) = 0.01757389
#
# Stress axis : x y z
#
# Youngs Moduli (GPa) = 106.65046 63.47509 54.04001
#
# Poissons Ratio (x) = 0.23835 0.23684
# Poissons Ratio (y) = 0.40047 0.26442
# Poissons Ratio (z) = 0.46741 0.31059
#
# Static dielectric constant tensor:
#      x y z
#    x 3.585660 0.000000 0.000000 
#    y 0.000000 3.652510 0.000000 
#    z 0.000000 0.000000 3.664790 
# 
# 
# High freq. dielectric constant tensor:
#      x y z
#    x 1.788450 0.000000 0.000000 
#    y 0.000000 1.774830 0.000000 
#    z 0.000000 0.000000 1.772300 
# 
# From -- ./inp_files/18246.got.cif
#   From: 2010.03.12/outbox.cif.g09.slc.cpg/sg42_10_cif.got.tgz:18246.got - 2010.04.14 02:04:31.
