data_PCOD8186731
_publ_section_title
;
Structure prediction by ZEFSAII (Michael W. Deem and Ramdas Pophale) SiO2 
 PCOD8186731
Probable space group: F M M 2
;
_chemical_formula_sum "Si O2"
_cell_formula_units_Z 96
_cell_length_a 18.041994
_cell_length_b 9.153309
_cell_length_c 30.731346
_cell_angle_alpha 90.000000
_cell_angle_beta 90.000000
_cell_angle_gamma 90.000000
_cell_volume 5075.095746
_symmetry_space_group_name_H-M "F M M 2"
_symmetry_group_IT_number 42
_symmetry_cell_setting 'orthorhombic'
loop_
_space_group_symop_operation_xyz
x,y,z
-x,-y,z
-x,y,z
x,-y,z
x,1/2+y,1/2+z
-x,1/2-y,1/2+z
-x,1/2+y,1/2+z
x,1/2-y,1/2+z
1/2+x,y,1/2+z
1/2-x,-y,1/2+z
1/2-x,y,1/2+z
1/2+x,-y,1/2+z
1/2+x,1/2+y,z
1/2-x,1/2-y,z
1/2-x,1/2+y,z
1/2+x,1/2-y,z
loop_
_atom_site_type_symbol
_atom_site_label
_atom_site_fract_x
_atom_site_fract_y
_atom_site_fract_z
Si Si1 0.826346 0.170365 0.370060
Si Si2 0.086560 0.666542 0.782834
Si Si3 0.411980 0.161271 0.541175
Si Si4 0.414433 0.827879 0.444378
Si Si5 0.671788 0.326804 0.709061
Si Si6 0.915876 0.171858 0.624334
O O1 0.750000 0.250000 0.359443
O O2 0.880659 0.199553 0.330024
O O3 0.862953 0.235556 0.412990
O O4 0.811140 0.000000 0.377582
O O5 0.103845 0.500000 0.768520
O O6 0.120191 0.778843 0.748608
O O7 0.000000 0.696932 0.785696
O O8 0.500000 0.156549 0.541860
O O9 0.388023 0.215302 0.493236
O O10 0.381911 0.265193 0.579482
O O11 0.379742 0.000000 0.550029
O O12 0.500000 0.784383 0.436827
O O13 0.403428 0.000000 0.436421
O O14 0.682105 0.500000 0.710690
O O15 0.750000 0.250000 0.713895
O O16 0.633969 0.274046 0.664315
O O17 0.000000 0.227605 0.632107
O O18 0.914322 0.000000 0.620199
#
# Coordination Sequence:
#
# PCOD8186731 Si02
#       6
#    16  16  16  16  16  16
#     4  11  23  38  56  80 111 145 181 221 268 322
#     4  10  22  40  61  85 110 137 175 222 269 321
#     4   8  15  29  51  79 108 138 175 220 268 317
#     4   9  18  34  56  82 111 143 182 226 270 319
#     4  11  23  38  56  80 111 146 183 222 268 321
#     4   9  18  33  53  78 107 139 179 225 269 317
#
# _framework density 18.915900000000001
#
# number of rings (size 3 to 8) (size 9 to 14) (size 15 to 20)
#    0.000    2.333    0.000    3.500    0.000    6.667 
#    0.000    4.167    0.000    2.000    0.000    0.000 
#    0.000    0.000    0.000    0.000    0.000    0.000 
#
# Total GULP energy -297610.956993 kJ/mol
# GULP energy per Si atom -12400.456541 kJ/mol
# Density = 1.887285 g / cm^3
# Si number density = 18.915900 Si / 1000 Ang^3
#
#
#
# Elastic Constant Matrix: (Units=GPa)
#
#
# Indices 1 2 3 4 5 6 
#
# 1 96.7210 43.7262 54.8959 0.0000 0.0000 0.0000
# 2 43.7262 68.7952 57.4710 0.0000 0.0000 0.0000
# 3 54.8959 57.4710 141.0470 0.0000 0.0000 0.0000
# 4 0.0000 0.0000 0.0000 37.3538 0.0000 0.0000
# 5 0.0000 0.0000 0.0000 0.0000 -2.2592 0.0000
# 6 0.0000 0.0000 0.0000 0.0000 0.0000 24.5231
#
#
#
# Elastic Compliance Matrix: (Units=1/GPa)
#
#
# Indices 1 2 3 4 5 6 
#
# 1 0.015313 -0.007208 -0.003023 0.000000 0.000000 0.000000
# 2 -0.007208 0.025430 -0.007556 0.000000 0.000000 0.000000
# 3 -0.003023 -0.007556 0.011345 0.000000 0.000000 0.000000
# 4 0.000000 0.000000 0.000000 0.026771 0.000000 0.000000
# 5 0.000000 0.000000 0.000000 0.000000 -0.442633 0.000000
# 6 0.000000 0.000000 0.000000 0.000000 0.000000 0.040778
#
#
# Mechanical properties :
#
#
# Convention : Reuss Voigt Hill
#
# Bulk Modulus (GPa) = 60.55446 68.74991 64.65219
# Shear Modulus (GPa) = -17.73572 21.95487 2.10958
#
# Velocity S-wave (km/s) = -3.06536 3.41054 1.05719
# Velocity P-wave (km/s) = 4.42192 7.20645 5.97856
#
# Compressibility (1/GPa) = 0.01651406
#
# Stress axis : x y z
#
# Youngs Moduli (GPa) = 65.30255 39.32440 88.14185
#
# Poissons Ratio (x) = 0.28343 0.26647
# Poissons Ratio (y) = 0.47067 0.66602
# Poissons Ratio (z) = 0.19742 0.29715
#
# Static dielectric constant tensor:
#      x y z
#    x 3.407000 0.000000 0.000000 
#    y 0.000000 3.490540 0.000000 
#    z 0.000000 0.000000 3.701160 
# 
# 
# High freq. dielectric constant tensor:
#      x y z
#    x 1.720790 0.000000 0.000000 
#    y 0.000000 1.733440 0.000000 
#    z 0.000000 0.000000 1.750570 
# 
# From -- ./inp_files/31451.got.cif
#   From: 2010.03.12/outbox.cif.g09.slc.cpg/sg42_16_cif.got.tgz:31451.got - 2010.04.14 02:04:31.
