data_PCOD8186921
_publ_section_title
;
Structure prediction by ZEFSAII (Michael W. Deem and Ramdas Pophale) SiO2 
 PCOD8186921
Probable space group: F D D 2
;
_chemical_formula_sum "Si O2"
_cell_formula_units_Z 128
_cell_length_a 22.016542
_cell_length_b 11.498781
_cell_length_c 25.076956
_cell_angle_alpha 90.000000
_cell_angle_beta 90.000000
_cell_angle_gamma 90.000000
_cell_volume 6348.567313
_symmetry_space_group_name_H-M "F D D 2"
_symmetry_group_IT_number 43
_symmetry_cell_setting 'orthorhombic'
loop_
_space_group_symop_operation_xyz
x,y,z
-x,-y,z
1/4-x,1/4+y,1/4+z
1/4+x,1/4-y,1/4+z
x,1/2+y,1/2+z
-x,1/2-y,1/2+z
1/4-x,3/4+y,3/4+z
1/4+x,3/4-y,3/4+z
1/2+x,y,1/2+z
1/2-x,-y,1/2+z
3/4-x,1/4+y,3/4+z
3/4+x,1/4-y,3/4+z
1/2+x,1/2+y,z
1/2-x,1/2-y,z
3/4-x,3/4+y,1/4+z
3/4+x,3/4-y,1/4+z
loop_
_atom_site_type_symbol
_atom_site_label
_atom_site_fract_x
_atom_site_fract_y
_atom_site_fract_z
Si Si1 0.489311 0.634812 0.161800
Si Si2 0.431920 0.489515 0.700159
Si Si3 0.038407 0.227235 0.764999
Si Si4 0.869324 0.044122 0.878661
Si Si5 0.022252 0.367240 0.440257
Si Si6 0.402621 0.179809 0.278589
Si Si7 0.835060 0.032868 0.624961
Si Si8 0.549443 0.902208 0.551008
O O1 0.500000 0.500000 0.173477
O O2 0.457577 0.686135 0.214853
O O3 0.552406 0.703052 0.153973
O O4 0.446115 0.659454 0.109416
O O5 0.500000 0.500000 0.676283
O O6 0.434724 0.397373 0.747924
O O7 0.404349 0.612348 0.721826
O O8 0.385890 0.451967 0.653254
O O9 0.077651 0.270457 0.815583
O O10 0.971941 0.211719 0.791206
O O11 0.912095 0.130466 0.912698
O O12 0.869042 0.096179 0.819782
O O13 0.892335 0.914438 0.872681
O O14 0.026399 0.321125 0.501912
O O15 0.000000 0.500000 0.442513
O O16 0.977837 0.281336 0.408206
O O17 0.362859 0.297009 0.277845
O O18 0.500000 0.000000 0.563823
#
# Coordination Sequence:
#
# PCOD8186921 Si02
#       8
#    16  16  16  16  16  16  16  16
#     4  11  23  38  58  84 119 159 198 242 298 356
#     4  10  21  36  56  84 118 152 190 240 303 355
#     4  11  23  38  58  83 120 159 199 237 294 358
#     4  11  18  33  56  89 117 151 188 245 306 348
#     4   9  18  29  52  86 115 143 182 242 300 344
#     4  11  18  34  57  87 116 149 186 246 306 352
#     4  11  21  34  58  86 121 154 199 241 295 358
#     4  10  18  32  52  81 118 144 187 242 295 350
#
# _framework density 20.162029
#
# number of rings (size 3 to 8) (size 9 to 14) (size 15 to 20)
#    0.000    1.500    5.000    4.500    0.000    0.000 
#    0.000    2.500    0.000    1.500    0.000    0.000 
#    0.000    0.000    0.000    0.000    0.000    0.000 
#
# Total GULP energy -396546.386523 kJ/mol
# GULP energy per Si atom -12392.074579 kJ/mol
# Density = 2.011614 g / cm^3
# Si number density = 20.162029 Si / 1000 Ang^3
#
#
#
# Elastic Constant Matrix: (Units=GPa)
#
#
# Indices 1 2 3 4 5 6 
#
# 1 101.1844 17.9619 68.5780 0.0000 0.0000 0.0000
# 2 17.9619 32.5321 28.1771 0.0000 0.0000 0.0000
# 3 68.5780 28.1771 165.9366 0.0000 0.0000 0.0000
# 4 0.0000 0.0000 0.0000 23.1128 0.0000 0.0000
# 5 0.0000 0.0000 0.0000 0.0000 34.3691 0.0000
# 6 0.0000 0.0000 0.0000 0.0000 0.0000 20.5645
#
#
#
# Elastic Compliance Matrix: (Units=1/GPa)
#
#
# Indices 1 2 3 4 5 6 
#
# 1 0.014005 -0.003188 -0.005246 0.000000 0.000000 0.000000
# 2 -0.003188 0.036765 -0.004925 0.000000 0.000000 0.000000
# 3 -0.005246 -0.004925 0.009031 0.000000 0.000000 0.000000
# 4 0.000000 0.000000 0.000000 0.043266 0.000000 0.000000
# 5 0.000000 0.000000 0.000000 0.000000 0.029096 0.000000
# 6 0.000000 0.000000 0.000000 0.000000 0.000000 0.048627
#
#
# Mechanical properties :
#
#
# Convention : Reuss Voigt Hill
#
# Bulk Modulus (GPa) = 30.22900 58.78747 44.50824
# Shear Modulus (GPa) = 22.87937 27.93836 25.40886
#
# Velocity S-wave (km/s) = 3.37230 3.72653 3.55383
# Velocity P-wave (km/s) = 5.49443 6.90918 6.24202
#
# Compressibility (1/GPa) = 0.03308081
#
# Stress axis : x y z
#
# Youngs Moduli (GPa) = 71.40453 27.19959 110.72978
#
# Poissons Ratio (x) = 0.08672 0.58094
# Poissons Ratio (y) = 0.22766 0.54538
# Poissons Ratio (z) = 0.37462 0.13397
#
# Static dielectric constant tensor:
#      x y z
#    x 3.785150 0.000000 0.000000 
#    y 0.000000 3.142550 0.000000 
#    z 0.000000 0.000000 3.997250 
# 
# 
# High freq. dielectric constant tensor:
#      x y z
#    x 1.783680 0.000000 0.000000 
#    y 0.000000 1.719370 0.000000 
#    z 0.000000 0.000000 1.811290 
# 
# From -- ./inp_files/22656.got.cif
#   From: 2010.06.25/outbox.cif.g09.slc.cpg/sg43_12_cif.got.tgz:22656.got - 2010.06.26 16:48:59.
