data_PCOD8186082
_publ_section_title
;
Structure prediction by ZEFSAII (Michael W. Deem and Ramdas Pophale) SiO2 
 PCOD8186082
Probable space group: F M M 2
;
_chemical_formula_sum "Si O2"
_cell_formula_units_Z 96
_cell_length_a 8.688636
_cell_length_b 18.713482
_cell_length_c 30.797174
_cell_angle_alpha 90.000000
_cell_angle_beta 90.000000
_cell_angle_gamma 90.000000
_cell_volume 5007.455216
_symmetry_space_group_name_H-M "F M M 2"
_symmetry_group_IT_number 42
_symmetry_cell_setting 'orthorhombic'
loop_
_space_group_symop_operation_xyz
x,y,z
-x,-y,z
-x,y,z
x,-y,z
x,1/2+y,1/2+z
-x,1/2-y,1/2+z
-x,1/2+y,1/2+z
x,1/2-y,1/2+z
1/2+x,y,1/2+z
1/2-x,-y,1/2+z
1/2-x,y,1/2+z
1/2+x,-y,1/2+z
1/2+x,1/2+y,z
1/2-x,1/2-y,z
1/2-x,1/2+y,z
1/2+x,1/2-y,z
loop_
_atom_site_type_symbol
_atom_site_label
_atom_site_fract_x
_atom_site_fract_y
_atom_site_fract_z
Si Si1 0.176153 0.917328 0.686860
Si Si2 0.682896 0.919649 0.940291
Si Si3 0.320772 0.082450 0.597190
Si Si4 0.818624 0.171542 0.521236
Si Si5 0.182648 0.672295 0.859004
Si Si6 0.682374 0.672930 0.768913
O O1 0.280295 0.894373 0.646166
O O2 0.235108 0.876838 0.729438
O O3 0.000000 0.897786 0.675894
O O4 0.195759 0.000000 0.697460
O O5 0.500000 0.922307 0.942102
O O6 0.738712 0.881912 0.896182
O O7 0.750809 0.000000 0.942050
O O8 0.747208 0.874953 0.981158
O O9 0.500000 0.094595 0.588894
O O10 0.224916 0.132495 0.565561
O O11 0.272744 0.000000 0.589425
O O12 0.750000 0.250000 0.519352
O O13 0.000000 0.178661 0.518286
O O14 0.250000 0.750000 0.869512
O O15 0.246668 0.642212 0.813480
O O16 0.000000 0.678275 0.856815
O O17 0.500000 0.676867 0.773894
O O18 0.750000 0.750000 0.758840
#
# Coordination Sequence:
#
# PCOD8186082 Si02
#       6
#    16  16  16  16  16  16
#     4   9  19  36  56  77 104 141 181 219 264 317
#     4   9  19  35  55  80 107 138 177 218 263 317
#     4  10  21  37  57  82 111 141 178 224 270 320
#     4  11  22  37  58  81 109 144 181 222 268 320
#     4  10  19  33  54  77 105 139 175 217 262 312
#     4  10  20  34  53  77 106 139 176 218 263 314
#
# _framework density 19.171415
#
# number of rings (size 3 to 8) (size 9 to 14) (size 15 to 20)
#    0.000    2.167    0.000    4.000    0.000    4.333 
#    0.000    4.167    0.000    5.500    0.000    0.000 
#    0.000    0.000    0.000    0.000    0.000    0.000 
#
# Total GULP energy -297656.761252 kJ/mol
# GULP energy per Si atom -12402.365052 kJ/mol
# Density = 1.912778 g / cm^3
# Si number density = 19.171415 Si / 1000 Ang^3
#
#
#
# Elastic Constant Matrix: (Units=GPa)
#
#
# Indices 1 2 3 4 5 6 
#
# 1 64.6592 35.7554 39.7266 0.0000 0.0000 0.0000
# 2 35.7554 124.5903 96.0414 0.0000 0.0000 0.0000
# 3 39.7266 96.0414 161.6822 0.0000 0.0000 0.0000
# 4 0.0000 0.0000 0.0000 43.6083 0.0000 0.0000
# 5 0.0000 0.0000 0.0000 0.0000 24.2888 0.0000
# 6 0.0000 0.0000 0.0000 0.0000 0.0000 23.2222
#
#
#
# Elastic Compliance Matrix: (Units=1/GPa)
#
#
# Indices 1 2 3 4 5 6 
#
# 1 0.018972 -0.003415 -0.002633 0.000000 0.000000 0.000000
# 2 -0.003415 0.015421 -0.008321 0.000000 0.000000 0.000000
# 3 -0.002633 -0.008321 0.011775 0.000000 0.000000 0.000000
# 4 0.000000 0.000000 0.000000 0.022931 0.000000 0.000000
# 5 0.000000 0.000000 0.000000 0.000000 0.041171 0.000000
# 6 0.000000 0.000000 0.000000 0.000000 0.000000 0.043062
#
#
# Mechanical properties :
#
#
# Convention : Reuss Voigt Hill
#
# Bulk Modulus (GPa) = 57.37468 77.10873 67.24170
# Shear Modulus (GPa) = 26.61277 30.18441 28.39859
#
# Velocity S-wave (km/s) = 3.72983 3.97224 3.85294
# Velocity P-wave (km/s) = 6.96714 7.83238 7.41240
#
# Compressibility (1/GPa) = 0.01742929
#
# Stress axis : x y z
#
# Youngs Moduli (GPa) = 52.70978 64.84806 84.92775
#
# Poissons Ratio (x) = 0.22145 0.22361
# Poissons Ratio (y) = 0.18000 0.70668
# Poissons Ratio (z) = 0.13878 0.53960
#
# Static dielectric constant tensor:
#      x y z
#    x 3.389740 0.000000 0.000000 
#    y 0.000000 3.575650 0.000000 
#    z 0.000000 0.000000 3.724470 
# 
# 
# High freq. dielectric constant tensor:
#      x y z
#    x 1.737510 0.000000 0.000000 
#    y 0.000000 1.744670 0.000000 
#    z 0.000000 0.000000 1.760750 
# 
# From -- ./inp_files/31418.got.cif
#   From: 2010.03.12/outbox.cif.g09.slc.cpg/sg42_16_cif.got.tgz:31418.got - 2010.04.14 02:04:31.
