data_PCOD8186620
_publ_section_title
;
Structure prediction by ZEFSAII (Michael W. Deem and Ramdas Pophale) SiO2 
 PCOD8186620
Probable space group: F M M 2
;
_chemical_formula_sum "Si O2"
_cell_formula_units_Z 80
_cell_length_a 22.693036
_cell_length_b 13.715391
_cell_length_c 11.945234
_cell_angle_alpha 90.000000
_cell_angle_beta 90.000000
_cell_angle_gamma 90.000000
_cell_volume 3717.880759
_symmetry_space_group_name_H-M "F M M 2"
_symmetry_group_IT_number 42
_symmetry_cell_setting 'orthorhombic'
loop_
_space_group_symop_operation_xyz
x,y,z
-x,-y,z
-x,y,z
x,-y,z
x,1/2+y,1/2+z
-x,1/2-y,1/2+z
-x,1/2+y,1/2+z
x,1/2-y,1/2+z
1/2+x,y,1/2+z
1/2-x,-y,1/2+z
1/2-x,y,1/2+z
1/2+x,-y,1/2+z
1/2+x,1/2+y,z
1/2-x,1/2-y,z
1/2-x,1/2+y,z
1/2+x,1/2-y,z
loop_
_atom_site_type_symbol
_atom_site_label
_atom_site_fract_x
_atom_site_fract_y
_atom_site_fract_z
Si Si1 0.348799 0.110653 0.131230
Si Si2 0.931430 0.710084 0.966002
Si Si3 0.657330 0.706254 0.273879
Si Si4 0.742517 0.111242 0.936826
Si Si5 0.635386 0.112502 0.541405
O O1 0.340364 0.180125 0.238321
O O2 0.354050 0.000000 0.175215
O O3 0.407810 0.138807 0.063390
O O4 0.292765 0.125627 0.051950
O O5 0.899927 0.685143 0.849374
O O6 0.000000 0.692059 0.949880
O O7 0.919328 0.822104 0.001520
O O8 0.716865 0.679984 0.340306
O O9 0.652609 0.634963 0.168447
O O10 0.738157 0.000000 0.896029
O O11 0.809649 0.142039 0.961856
O O12 0.618166 0.000000 0.529074
#
# Coordination Sequence:
#
# PCOD8186620 Si02
#       5
#    16  16  16  16  16
#     4   9  20  38  61  89 118 151 196 248 301 360
#     4  10  23  40  57  83 120 160 203 251 302 353
#     4  10  21  37  62  87 119 159 199 241 297 360
#     4   9  19  37  60  90 123 151 186 237 301 368
#     4  10  22  39  61  89 120 155 197 247 299 357
#
# _framework density 21.517634000000001
#
# number of rings (size 3 to 8) (size 9 to 14) (size 15 to 20)
#    0.000    2.400    0.000    0.600    0.000   16.000 
#    0.000    4.000    0.000    4.800    0.000    0.000 
#    0.000    0.000    0.000    0.000    0.000    0.000 
#
# Total GULP energy -248071.451418 kJ/mol
# GULP energy per Si atom -12403.572571 kJ/mol
# Density = 2.146866 g / cm^3
# Si number density = 21.517634 Si / 1000 Ang^3
#
#
#
# Elastic Constant Matrix: (Units=GPa)
#
#
# Indices 1 2 3 4 5 6 
#
# 1 76.6211 28.4415 22.2730 0.0000 0.0000 0.0000
# 2 28.4415 113.8940 34.8524 0.0000 0.0000 0.0000
# 3 22.2730 34.8524 106.5772 0.0000 0.0000 0.0000
# 4 0.0000 0.0000 0.0000 28.1100 0.0000 0.0000
# 5 0.0000 0.0000 0.0000 0.0000 16.5124 0.0000
# 6 0.0000 0.0000 0.0000 0.0000 0.0000 23.3282
#
#
#
# Elastic Compliance Matrix: (Units=1/GPa)
#
#
# Indices 1 2 3 4 5 6 
#
# 1 0.014793 -0.003054 -0.002093 0.000000 0.000000 0.000000
# 2 -0.003054 0.010387 -0.002758 0.000000 0.000000 0.000000
# 3 -0.002093 -0.002758 0.010722 0.000000 0.000000 0.000000
# 4 0.000000 0.000000 0.000000 0.035574 0.000000 0.000000
# 5 0.000000 0.000000 0.000000 0.000000 0.060561 0.000000
# 6 0.000000 0.000000 0.000000 0.000000 0.000000 0.042867
#
#
# Mechanical properties :
#
#
# Convention : Reuss Voigt Hill
#
# Bulk Modulus (GPa) = 49.77086 52.02512 50.89799
# Shear Modulus (GPa) = 25.32781 27.69181 26.50981
#
# Velocity S-wave (km/s) = 3.43457 3.59128 3.51380
# Velocity P-wave (km/s) = 6.23770 6.43636 6.33781
#
# Compressibility (1/GPa) = 0.02009208
#
# Stress axis : x y z
#
# Youngs Moduli (GPa) = 67.59887 96.27642 93.26333
#
# Poissons Ratio (x) = 0.29400 0.19520
# Poissons Ratio (y) = 0.20642 0.25726
# Poissons Ratio (z) = 0.14148 0.26558
#
# Static dielectric constant tensor:
#      x y z
#    x 3.545960 0.000000 0.000000 
#    y 0.000000 4.013430 0.000000 
#    z 0.000000 0.000000 3.881310 
# 
# 
# High freq. dielectric constant tensor:
#      x y z
#    x 1.818170 0.000000 0.000000 
#    y 0.000000 1.858550 0.000000 
#    z 0.000000 0.000000 1.854440 
# 
# From -- ./inp_files/7740.got.cif
#   From: 2010.03.12/outbox.cif.g09.slc.cpg/sg42_4_cif.got.tgz:7740.got - 2010.04.14 02:04:31.
