data_PCOD8186505
_publ_section_title
;
Structure prediction by ZEFSAII (Michael W. Deem and Ramdas Pophale) SiO2 
 PCOD8186505
Probable space group: F M M 2
;
_chemical_formula_sum "Si O2"
_cell_formula_units_Z 80
_cell_length_a 29.740081
_cell_length_b 7.630256
_cell_length_c 18.013067
_cell_angle_alpha 90.000000
_cell_angle_beta 90.000000
_cell_angle_gamma 90.000000
_cell_volume 4087.604988
_symmetry_space_group_name_H-M "F M M 2"
_symmetry_group_IT_number 42
_symmetry_cell_setting 'orthorhombic'
loop_
_space_group_symop_operation_xyz
x,y,z
-x,-y,z
-x,y,z
x,-y,z
x,1/2+y,1/2+z
-x,1/2-y,1/2+z
-x,1/2+y,1/2+z
x,1/2-y,1/2+z
1/2+x,y,1/2+z
1/2-x,-y,1/2+z
1/2-x,y,1/2+z
1/2+x,-y,1/2+z
1/2+x,1/2+y,z
1/2-x,1/2-y,z
1/2-x,1/2+y,z
1/2+x,1/2-y,z
loop_
_atom_site_type_symbol
_atom_site_label
_atom_site_fract_x
_atom_site_fract_y
_atom_site_fract_z
Si Si1 0.447347 0.000000 0.507368
Si Si2 0.202653 0.204733 0.086132
Si Si3 0.203668 0.296616 0.750568
Si Si4 0.106781 0.699903 0.085842
Si Si5 0.106977 0.703114 0.757980
Si Si6 0.947895 0.000000 0.834172
O O1 0.426485 0.822351 0.539720
O O2 0.500000 0.000000 0.525754
O O3 0.437337 0.000000 0.420488
O O4 0.250000 0.250000 0.043896
O O5 0.206943 0.289168 0.168711
O O6 0.157545 0.290187 0.051262
O O7 0.193964 0.000000 0.085370
O O8 0.199694 0.500000 0.738554
O O9 0.250000 0.250000 0.795430
O O10 0.156821 0.237931 0.788916
O O11 0.089374 0.500000 0.080990
O O12 0.106479 0.769115 0.169890
O O13 0.096194 0.500000 0.776179
O O14 0.071087 0.823345 0.798178
O O15 0.000000 0.000000 0.816196
#
# Coordination Sequence:
#
# PCOD8186505 Si02
#       6
#     8  16  16  16  16   8
#     4  11  26  46  62  85 121 157 201 254 307 369
#     4   9  15  26  47  84 125 156 191 242 293 344
#     4   8  15  24  45  81 119 152 184 232 288 336
#     4  11  20  37  63  93 123 157 202 251 301 353
#     4  10  20  38  61  93 125 152 198 253 298 349
#     4  11  26  44  64  87 115 161 203 242 311 369
#
# _framework density 19.571361
#
# number of rings (size 3 to 8) (size 9 to 14) (size 15 to 20)
#    0.000    2.200    3.000    1.800    1.400    4.800 
#    0.000    2.000    0.000    1.200    0.000    0.000 
#    0.000    0.000    0.000    0.000    0.000    0.000 
#
# Total GULP energy -247768.661022 kJ/mol
# GULP energy per Si atom -12388.433051 kJ/mol
# Density = 1.952682 g / cm^3
# Si number density = 19.571361 Si / 1000 Ang^3
#
#
#
# Elastic Constant Matrix: (Units=GPa)
#
#
# Indices 1 2 3 4 5 6 
#
# 1 157.1121 63.0075 62.7847 0.0000 0.0001 0.0000
# 2 63.0075 128.6924 32.0390 0.0000 0.0001 0.0000
# 3 62.7847 32.0390 48.6492 0.0000 0.0000 0.0000
# 4 0.0000 0.0000 0.0000 26.1380 0.0000 0.0000
# 5 0.0001 0.0001 0.0000 0.0000 -10.3284 -0.0001
# 6 0.0000 0.0000 0.0000 0.0000 -0.0001 35.0503
#
#
#
# Elastic Compliance Matrix: (Units=1/GPa)
#
#
# Indices 1 2 3 4 5 6 
#
# 1 0.013942 -0.002807 -0.016145 0.000000 0.000000 0.000000
# 2 -0.002807 0.009859 -0.002871 0.000000 0.000000 0.000000
# 3 -0.016145 -0.002871 0.043282 0.000000 0.000000 0.000000
# 4 0.000000 0.000000 0.000000 0.038258 0.000000 0.000000
# 5 0.000000 0.000000 0.000000 0.000000 -0.096821 0.000000
# 6 0.000000 0.000000 0.000000 0.000000 0.000000 0.028530
#
#
# Mechanical properties :
#
#
# Convention : Reuss Voigt Hill
#
# Bulk Modulus (GPa) = 42.66463 72.23513 57.44988
# Shear Modulus (GPa) = 56.49093 21.94681 39.21887
#
# Velocity S-wave (km/s) = 5.37836 3.35232 4.48134
# Velocity P-wave (km/s) = 7.77276 7.20922 7.49629
#
# Compressibility (1/GPa) = 0.02343862
#
# Stress axis : x y z
#
# Youngs Moduli (GPa) = 71.72445 101.42667 23.10432
#
# Poissons Ratio (x) = 0.28467 0.37302
# Poissons Ratio (y) = 0.20131 0.06633
# Poissons Ratio (z) = 1.15798 0.29118
#
# Static dielectric constant tensor:
#      x y z
#    x 4.147340 0.000000 0.000000 
#    y 0.000000 3.501310 0.000000 
#    z 0.000000 0.000000 3.006630 
# 
# 
# High freq. dielectric constant tensor:
#      x y z
#    x 1.783520 0.000000 0.000000 
#    y 0.000000 1.773380 0.000000 
#    z 0.000000 0.000000 1.689000 
# 
# From -- ./inp_files/22728.got.cif
#   From: 2010.03.12/outbox.cif.g09.slc.cpg/sg42_12_cif.got.tgz:22728.got - 2010.04.14 02:04:31.
