data_PCOD8186023
_publ_section_title
;
Structure prediction by ZEFSAII (Michael W. Deem and Ramdas Pophale) SiO2 
 PCOD8186023
Probable space group: F M M 2
;
_chemical_formula_sum "Si O2"
_cell_formula_units_Z 128
_cell_length_a 18.598100
_cell_length_b 19.493404
_cell_length_c 20.184843
_cell_angle_alpha 90.000000
_cell_angle_beta 90.000000
_cell_angle_gamma 90.000000
_cell_volume 7317.818571
_symmetry_space_group_name_H-M "F M M 2"
_symmetry_group_IT_number 42
_symmetry_cell_setting 'orthorhombic'
loop_
_space_group_symop_operation_xyz
x,y,z
-x,-y,z
-x,y,z
x,-y,z
x,1/2+y,1/2+z
-x,1/2-y,1/2+z
-x,1/2+y,1/2+z
x,1/2-y,1/2+z
1/2+x,y,1/2+z
1/2-x,-y,1/2+z
1/2-x,y,1/2+z
1/2+x,-y,1/2+z
1/2+x,1/2+y,z
1/2-x,1/2-y,z
1/2-x,1/2+y,z
1/2+x,1/2-y,z
loop_
_atom_site_type_symbol
_atom_site_label
_atom_site_fract_x
_atom_site_fract_y
_atom_site_fract_z
Si Si1 0.366566 0.242880 0.770530
Si Si2 0.919928 0.295782 0.140224
Si Si3 0.720257 0.423873 0.029880
Si Si4 0.329848 0.721160 0.030676
Si Si5 0.185386 0.076285 0.884518
Si Si6 0.172704 0.577081 0.142291
Si Si7 0.750218 0.861069 0.261220
Si Si8 0.916674 0.200551 0.902547
O O1 0.421150 0.256379 0.710288
O O2 0.303899 0.298271 0.766975
O O3 0.331729 0.167288 0.762649
O O4 0.408209 0.248373 0.840199
O O5 0.863334 0.260507 0.092067
O O6 0.896549 0.374733 0.150312
O O7 0.000000 0.293880 0.110322
O O8 0.686303 0.500000 0.045695
O O9 0.669257 0.359976 0.050034
O O10 0.795835 0.416986 0.067967
O O11 0.733342 0.416384 0.951091
O O12 0.250000 0.750000 0.017868
O O13 0.376272 0.734578 0.964884
O O14 0.239114 0.089725 0.823959
O O15 0.117166 0.126758 0.885083
O O16 0.153170 0.000000 0.878052
O O17 0.146933 0.500000 0.157636
O O18 0.236124 0.597976 0.193277
O O19 0.000000 0.190337 0.920038
#
# Coordination Sequence:
#
# PCOD8186023 Si02
#       8
#    16  16  16  16  16  16  16  16
#     4   9  19  31  51  71 103 133 174 209 260 308
#     4  11  22  35  52  77 108 142 177 218 269 326
#     4   9  18  32  51  76 103 131 171 219 264 307
#     4  11  21  34  56  78 105 140 181 226 266 309
#     4   9  18  31  49  74 103 134 172 213 259 314
#     4  10  19  32  50  74 105 136 172 217 267 319
#     4   9  17  29  49  75  97 128 172 215 252 305
#     4  10  21  34  50  76 109 141 172 214 266 320
#
# _framework density 17.491551000000001
#
# number of rings (size 3 to 8) (size 9 to 14) (size 15 to 20)
#    0.000    2.250    1.250    1.875    7.000    0.500 
#    0.000    0.000    0.000    5.625    0.000    0.000 
#    0.000    7.000    0.000    0.000    0.000    0.125 
#
# Total GULP energy -396689.764604 kJ/mol
# GULP energy per Si atom -12396.555144 kJ/mol
# Density = 1.745174 g / cm^3
# Si number density = 17.491551 Si / 1000 Ang^3
#
#
#
# Elastic Constant Matrix: (Units=GPa)
#
#
# Indices 1 2 3 4 5 6 
#
# 1 92.9845 37.8319 41.0751 0.0000 0.0000 0.0000
# 2 37.8319 88.7176 30.4498 0.0000 0.0000 0.0000
# 3 41.0751 30.4498 97.4441 0.0000 0.0000 0.0000
# 4 0.0000 0.0000 0.0000 25.3624 0.0000 0.0000
# 5 0.0000 0.0000 0.0000 0.0000 21.2889 0.0000
# 6 0.0000 0.0000 0.0000 0.0000 0.0000 14.5265
#
#
#
# Elastic Compliance Matrix: (Units=1/GPa)
#
#
# Indices 1 2 3 4 5 6 
#
# 1 0.014753 -0.004656 -0.004764 0.000000 0.000000 0.000000
# 2 -0.004656 0.014095 -0.002442 0.000000 0.000000 0.000000
# 3 -0.004764 -0.002442 0.013033 0.000000 0.000000 0.000000
# 4 0.000000 0.000000 0.000000 0.039428 0.000000 0.000000
# 5 0.000000 0.000000 0.000000 0.000000 0.046973 0.000000
# 6 0.000000 0.000000 0.000000 0.000000 0.000000 0.068839
#
#
# Mechanical properties :
#
#
# Convention : Reuss Voigt Hill
#
# Bulk Modulus (GPa) = 55.07160 55.31775 55.19468
# Shear Modulus (GPa) = 22.03617 23.55486 22.79552
#
# Velocity S-wave (km/s) = 3.55324 3.67364 3.61394
# Velocity P-wave (km/s) = 6.95608 7.04899 7.00269
#
# Compressibility (1/GPa) = 0.01815818
#
# Stress axis : x y z
#
# Youngs Moduli (GPa) = 67.78127 70.94521 76.72568
#
# Poissons Ratio (x) = 0.33034 0.36551
# Poissons Ratio (y) = 0.31560 0.18735
# Poissons Ratio (z) = 0.32290 0.17324
#
# Static dielectric constant tensor:
#      x y z
#    x 2.893770 0.000000 0.000000 
#    y 0.000000 3.456440 0.000000 
#    z 0.000000 0.000000 3.449180 
# 
# 
# High freq. dielectric constant tensor:
#      x y z
#    x 1.635700 0.000000 0.000000 
#    y 0.000000 1.675270 0.000000 
#    z 0.000000 0.000000 1.692090 
# 
# From -- ./inp_files/26216.got.cif
#   From: 2010.03.12/outbox.cif.g09.slc.cpg/sg42_14_cif.got.tgz:26216.got - 2010.04.14 02:04:31.
