data_PCOD8186460
_publ_section_title
;
Structure prediction by ZEFSAII (Michael W. Deem and Ramdas Pophale) SiO2 
 PCOD8186460
Probable space group: F M M 2
;
_chemical_formula_sum "Si O2"
_cell_formula_units_Z 112
_cell_length_a 15.483538
_cell_length_b 27.591833
_cell_length_c 12.026316
_cell_angle_alpha 90.000000
_cell_angle_beta 90.000000
_cell_angle_gamma 90.000000
_cell_volume 5137.873037
_symmetry_space_group_name_H-M "F M M 2"
_symmetry_group_IT_number 42
_symmetry_cell_setting 'orthorhombic'
loop_
_space_group_symop_operation_xyz
x,y,z
-x,-y,z
-x,y,z
x,-y,z
x,1/2+y,1/2+z
-x,1/2-y,1/2+z
-x,1/2+y,1/2+z
x,1/2-y,1/2+z
1/2+x,y,1/2+z
1/2-x,-y,1/2+z
1/2-x,y,1/2+z
1/2+x,-y,1/2+z
1/2+x,1/2+y,z
1/2-x,1/2-y,z
1/2-x,1/2+y,z
1/2+x,1/2-y,z
loop_
_atom_site_type_symbol
_atom_site_label
_atom_site_fract_x
_atom_site_fract_y
_atom_site_fract_z
Si Si1 0.832866 0.873936 0.793330
Si Si2 0.344689 0.847918 0.720230
Si Si3 0.847763 0.306167 0.483076
Si Si4 0.598784 0.054140 0.646807
Si Si5 0.143832 0.802059 0.447897
Si Si6 0.906036 0.893527 0.570266
Si Si7 0.257049 0.944719 0.462717
O O1 0.759578 0.844729 0.723765
O O2 0.882927 0.840629 0.883768
O O3 0.899788 0.895008 0.704445
O O4 0.779966 0.917409 0.850164
O O5 0.376883 0.826288 0.602854
O O6 0.380684 0.903190 0.734979
O O7 0.381726 0.816204 0.821602
O O8 0.887192 0.252679 0.469685
O O9 0.745215 0.307229 0.469259
O O10 0.500000 0.058147 0.604958
O O11 0.662548 0.063202 0.544236
O O12 0.614909 0.000000 0.697788
O O13 0.095268 0.837646 0.531660
O O14 0.830639 0.924234 0.514531
O O15 0.000000 0.915724 0.539723
O O16 0.241375 0.000000 0.432503
#
# Coordination Sequence:
#
# PCOD8186460 Si02
#       7
#    16  16  16  16  16  16  16
#     4  11  20  41  65  97 129 178 225 278 343 408
#     4  11  19  39  65  94 130 170 221 283 338 406
#     4  10  20  36  67  95 125 171 232 276 338 401
#     4  10  21  39  67  98 127 166 222 287 344 397
#     4  10  22  36  62  98 127 174 223 281 336 405
#     4  12  25  44  66  98 146 184 226 283 346 413
#     4  11  23  44  69  96 134 177 227 280 341 414
#
# _framework density 21.798905000000001
#
# number of rings (size 3 to 8) (size 9 to 14) (size 15 to 20)
#    0.000    1.286    7.143    0.000    2.000    3.714 
#    0.000    1.429    0.000    0.000    0.000    0.000 
#    0.000    0.000    0.000    0.000    0.000    0.000 
#
# Total GULP energy -347143.095392 kJ/mol
# GULP energy per Si atom -12397.967693 kJ/mol
# Density = 2.174929 g / cm^3
# Si number density = 21.798905 Si / 1000 Ang^3
#
#
#
# Elastic Constant Matrix: (Units=GPa)
#
#
# Indices 1 2 3 4 5 6 
#
# 1 96.7451 20.9602 24.2668 0.0000 0.0000 0.0000
# 2 20.9602 124.7690 53.6701 0.0000 0.0000 0.0000
# 3 24.2668 53.6701 126.9410 0.0000 0.0000 0.0000
# 4 0.0000 0.0000 0.0000 20.3774 0.0000 0.0000
# 5 0.0000 0.0000 0.0000 0.0000 4.2774 0.0000
# 6 0.0000 0.0000 0.0000 0.0000 0.0000 17.0731
#
#
#
# Elastic Compliance Matrix: (Units=1/GPa)
#
#
# Indices 1 2 3 4 5 6 
#
# 1 0.010991 -0.001152 -0.001614 0.000000 0.000000 0.000000
# 2 -0.001152 0.009917 -0.003973 0.000000 0.000000 0.000000
# 3 -0.001614 -0.003973 0.009866 0.000000 0.000000 0.000000
# 4 0.000000 0.000000 0.000000 0.049074 0.000000 0.000000
# 5 0.000000 0.000000 0.000000 0.000000 0.233785 0.000000
# 6 0.000000 0.000000 0.000000 0.000000 0.000000 0.058572
#
#
# Mechanical properties :
#
#
# Convention : Reuss Voigt Hill
#
# Bulk Modulus (GPa) = 57.81559 60.69434 59.25497
# Shear Modulus (GPa) = 12.77310 24.98280 18.87795
#
# Velocity S-wave (km/s) = 2.42327 3.38902 2.94599
# Velocity P-wave (km/s) = 5.86596 6.57398 6.23004
#
# Compressibility (1/GPa) = 0.01729637
#
# Stress axis : x y z
#
# Youngs Moduli (GPa) = 90.98444 100.83446 101.35961
#
# Poissons Ratio (x) = 0.11617 0.16359
# Poissons Ratio (y) = 0.10483 0.40267
# Poissons Ratio (z) = 0.14685 0.40059
#
# Static dielectric constant tensor:
#      x y z
#    x 3.659950 0.000000 0.000000 
#    y 0.000000 4.226510 0.000000 
#    z 0.000000 0.000000 3.889570 
# 
# 
# High freq. dielectric constant tensor:
#      x y z
#    x 1.833130 0.000000 0.000000 
#    y 0.000000 1.858970 0.000000 
#    z 0.000000 0.000000 1.856140 
# 
# From -- ./inp_files/8147.got.cif
#   From: 2010.03.12/outbox.cif.g09.slc.cpg/sg42_5_cif.got.tgz:8147.got - 2010.04.14 02:04:31.
