data_PCOD8186516
_publ_section_title
;
Structure prediction by ZEFSAII (Michael W. Deem and Ramdas Pophale) SiO2 
 PCOD8186516
Probable space group: F M M 2
;
_chemical_formula_sum "Si O2"
_cell_formula_units_Z 80
_cell_length_a 10.499077
_cell_length_b 18.232567
_cell_length_c 20.006021
_cell_angle_alpha 90.000000
_cell_angle_beta 90.000000
_cell_angle_gamma 90.000000
_cell_volume 3829.655067
_symmetry_space_group_name_H-M "F M M 2"
_symmetry_group_IT_number 42
_symmetry_cell_setting 'orthorhombic'
loop_
_space_group_symop_operation_xyz
x,y,z
-x,-y,z
-x,y,z
x,-y,z
x,1/2+y,1/2+z
-x,1/2-y,1/2+z
-x,1/2+y,1/2+z
x,1/2-y,1/2+z
1/2+x,y,1/2+z
1/2-x,-y,1/2+z
1/2-x,y,1/2+z
1/2+x,-y,1/2+z
1/2+x,1/2+y,z
1/2-x,1/2-y,z
1/2-x,1/2+y,z
1/2+x,1/2-y,z
loop_
_atom_site_type_symbol
_atom_site_label
_atom_site_fract_x
_atom_site_fract_y
_atom_site_fract_z
Si Si1 0.357021 0.917394 0.939670
Si Si2 0.246781 0.913730 0.801779
Si Si3 0.259367 0.163352 0.061966
Si Si4 0.856521 0.811595 0.701784
Si Si5 0.500000 0.915625 0.735521
Si Si6 0.500000 0.085506 0.579263
O O1 0.500000 0.912185 0.909796
O O2 0.257316 0.896430 0.880802
O O3 0.328735 0.000000 0.964112
O O4 0.349102 0.863912 0.002527
O O5 0.136655 0.867506 0.764943
O O6 0.373340 0.881303 0.766492
O O7 0.224352 0.000000 0.789263
O O8 0.250000 0.250000 0.056328
O O9 0.321238 0.143581 0.133871
O O10 0.123992 0.124676 0.049696
O O11 0.750000 0.750000 0.713823
O O12 0.000000 0.777756 0.694631
O O13 0.500000 0.902217 0.657532
O O14 0.500000 0.000000 0.756177
O O15 0.500000 0.000000 0.559061
#
# Coordination Sequence:
#
# PCOD8186516 Si02
#       6
#    16  16  16  16   8   8
#     4  10  21  39  63  91 126 170 217 265 323 390
#     4  10  20  38  65  93 123 162 212 267 320 383
#     4  11  25  39  64  91 132 170 222 273 330 385
#     4  11  26  42  65  95 131 170 211 267 334 394
#     4   9  16  32  61  92 114 154 213 262 309 380
#     4  11  22  40  65  94 129 176 227 276 338 406
#
# _framework density 20.889610999999999
#
# number of rings (size 3 to 8) (size 9 to 14) (size 15 to 20)
#    0.000    1.600    3.000    1.200    8.400    2.000 
#    1.800    0.000    0.000    0.000    0.000    0.000 
#    0.000    0.000    0.000    0.000    0.000    0.000 
#
# Total GULP energy -247954.199345 kJ/mol
# GULP energy per Si atom -12397.709967 kJ/mol
# Density = 2.084207 g / cm^3
# Si number density = 20.889611 Si / 1000 Ang^3
#
#
#
# Elastic Constant Matrix: (Units=GPa)
#
#
# Indices 1 2 3 4 5 6 
#
# 1 99.0972 30.2074 25.6264 0.0000 0.0000 0.0000
# 2 30.2074 88.5189 61.2466 0.0000 0.0000 0.0000
# 3 25.6264 61.2466 116.2045 0.0000 0.0000 0.0000
# 4 0.0000 0.0000 0.0000 43.9247 0.0000 0.0000
# 5 0.0000 0.0000 0.0000 0.0000 28.1643 0.0000
# 6 0.0000 0.0000 0.0000 0.0000 0.0000 30.6235
#
#
#
# Elastic Compliance Matrix: (Units=1/GPa)
#
#
# Indices 1 2 3 4 5 6 
#
# 1 0.011301 -0.003356 -0.000723 0.000000 0.000000 0.000000
# 2 -0.003356 0.018778 -0.009157 0.000000 0.000000 0.000000
# 3 -0.000723 -0.009157 0.013591 0.000000 0.000000 0.000000
# 4 0.000000 0.000000 0.000000 0.022766 0.000000 0.000000
# 5 0.000000 0.000000 0.000000 0.000000 0.035506 0.000000
# 6 0.000000 0.000000 0.000000 0.000000 0.000000 0.032655
#
#
# Mechanical properties :
#
#
# Convention : Reuss Voigt Hill
#
# Bulk Modulus (GPa) = 58.14756 59.77571 58.96163
# Shear Modulus (GPa) = 29.97548 32.99184 31.48366
#
# Velocity S-wave (km/s) = 3.79218 3.97841 3.88641
# Velocity P-wave (km/s) = 6.86077 7.05555 6.95884
#
# Compressibility (1/GPa) = 0.01719763
#
# Stress axis : x y z
#
# Youngs Moduli (GPa) = 88.48624 53.25357 73.57623
#
# Poissons Ratio (x) = 0.17872 0.05322
# Poissons Ratio (y) = 0.29697 0.67374
# Poissons Ratio (z) = 0.06401 0.48765
#
# Static dielectric constant tensor:
#      x y z
#    x 3.756880 0.000000 0.000000 
#    y 0.000000 3.557780 0.000000 
#    z 0.000000 0.000000 3.720320 
# 
# 
# High freq. dielectric constant tensor:
#      x y z
#    x 1.812080 0.000000 0.000000 
#    y 0.000000 1.805490 0.000000 
#    z 0.000000 0.000000 1.817620 
# 
# From -- ./inp_files/18952.got.cif
#   From: 2010.03.12/outbox.cif.g09.slc.cpg/sg42_10_cif.got.tgz:18952.got - 2010.04.14 02:04:31.
