data_PCOD8186205
_publ_section_title
;
Structure prediction by ZEFSAII (Michael W. Deem and Ramdas Pophale) SiO2 
 PCOD8186205
Probable space group: F M M 2
;
_chemical_formula_sum "Si O2"
_cell_formula_units_Z 112
_cell_length_a 29.297247
_cell_length_b 17.466101
_cell_length_c 13.332316
_cell_angle_alpha 90.000000
_cell_angle_beta 90.000000
_cell_angle_gamma 90.000000
_cell_volume 6822.261757
_symmetry_space_group_name_H-M "F M M 2"
_symmetry_group_IT_number 42
_symmetry_cell_setting 'orthorhombic'
loop_
_space_group_symop_operation_xyz
x,y,z
-x,-y,z
-x,y,z
x,-y,z
x,1/2+y,1/2+z
-x,1/2-y,1/2+z
-x,1/2+y,1/2+z
x,1/2-y,1/2+z
1/2+x,y,1/2+z
1/2-x,-y,1/2+z
1/2-x,y,1/2+z
1/2+x,-y,1/2+z
1/2+x,1/2+y,z
1/2-x,1/2-y,z
1/2-x,1/2+y,z
1/2+x,1/2-y,z
loop_
_atom_site_type_symbol
_atom_site_label
_atom_site_fract_x
_atom_site_fract_y
_atom_site_fract_z
Si Si1 0.500000 0.417038 0.625000
Si Si2 0.259480 0.664891 0.143199
Si Si3 0.098377 0.908552 0.626291
Si Si4 0.177928 0.652350 0.994668
Si Si5 0.500000 0.582847 0.860642
Si Si6 0.819298 0.326749 0.459701
Si Si7 0.099258 0.408377 0.355676
Si Si8 0.258810 0.086707 0.846497
O O1 0.500000 0.500000 0.571574
O O2 0.547737 0.375354 0.597653
O O3 0.500000 0.430789 0.742896
O O4 0.250000 0.750000 0.185566
O O5 0.215822 0.641473 0.079250
O O6 0.305090 0.659325 0.075189
O O7 0.266816 0.604115 0.230349
O O8 0.130420 0.871252 0.543422
O O9 0.111518 0.884777 0.740620
O O10 0.099456 0.000000 0.617996
O O11 0.174347 0.736260 0.946039
O O12 0.192915 0.596894 0.903677
O O13 0.500000 0.500000 0.914414
O O14 0.451538 0.623646 0.887087
O O15 0.865732 0.370302 0.432905
O O16 0.779009 0.354981 0.387483
O O17 0.100918 0.500000 0.366179
O O18 0.241140 0.000000 0.858484
#
# Coordination Sequence:
#
# PCOD8186205 Si02
#       8
#     8  16  16  16   8  16  16  16
#     4   7  12  24  43  68  95 117 141 181 228 265
#     4   9  19  34  47  61  88 122 151 181 223 268
#     4   9  16  28  48  72  94 117 148 186 226 265
#     4  10  20  32  46  66  92 121 150 181 222 272
#     4   7  12  24  43  70  97 117 141 179 228 267
#     4  10  20  32  46  66  92 122 151 180 223 271
#     4   9  16  28  49  73  95 118 147 186 226 265
#     4  11  21  32  48  67  88 116 151 191 226 262
#
# _framework density 16.416843
#
# number of rings (size 3 to 8) (size 9 to 14) (size 15 to 20)
#    0.000    2.714    0.000    5.571    0.000    5.714 
#    0.000    0.714    0.000    0.000    0.000    1.000 
#    0.000    3.429    0.000    0.000    0.000    0.000 
#
# Total GULP energy -346911.609312 kJ/mol
# GULP energy per Si atom -12389.700333 kJ/mol
# Density = 1.637948 g / cm^3
# Si number density = 16.416843 Si / 1000 Ang^3
#
#
#
# Elastic Constant Matrix: (Units=GPa)
#
#
# Indices 1 2 3 4 5 6 
#
# 1 131.1509 37.2826 44.9093 0.0000 0.0000 0.0000
# 2 37.2826 66.9570 38.9242 0.0000 0.0000 0.0000
# 3 44.9093 38.9242 65.8744 0.0000 0.0000 0.0000
# 4 0.0000 0.0000 0.0000 18.9649 0.0000 0.0000
# 5 0.0000 0.0000 0.0000 0.0000 25.8722 0.0000
# 6 0.0000 0.0000 0.0000 0.0000 0.0000 10.7047
#
#
#
# Elastic Compliance Matrix: (Units=1/GPa)
#
#
# Indices 1 2 3 4 5 6 
#
# 1 0.010214 -0.002497 -0.005488 0.000000 0.000000 0.000000
# 2 -0.002497 0.023360 -0.012101 0.000000 0.000000 0.000000
# 3 -0.005488 -0.012101 0.026072 0.000000 0.000000 0.000000
# 4 0.000000 0.000000 0.000000 0.052729 0.000000 0.000000
# 5 0.000000 0.000000 0.000000 0.000000 0.038651 0.000000
# 6 0.000000 0.000000 0.000000 0.000000 0.000000 0.093417
#
#
# Mechanical properties :
#
#
# Convention : Reuss Voigt Hill
#
# Bulk Modulus (GPa) = 51.34905 56.24604 53.79755
# Shear Modulus (GPa) = 17.17594 20.63279 18.90437
#
# Velocity S-wave (km/s) = 3.23807 3.54899 3.39709
# Velocity P-wave (km/s) = 6.73248 7.15048 6.94463
#
# Compressibility (1/GPa) = 0.01947456
#
# Stress axis : x y z
#
# Youngs Moduli (GPa) = 97.90719 42.80864 38.35583
#
# Poissons Ratio (x) = 0.10689 0.21049
# Poissons Ratio (y) = 0.24447 0.46413
# Poissons Ratio (z) = 0.53729 0.51801
#
# Static dielectric constant tensor:
#      x y z
#    x 3.446620 0.000000 0.000000 
#    y 0.000000 2.878790 0.000000 
#    z 0.000000 0.000000 2.945360 
# 
# 
# High freq. dielectric constant tensor:
#      x y z
#    x 1.634040 0.000000 0.000000 
#    y 0.000000 1.610400 0.000000 
#    z 0.000000 0.000000 1.610310 
# 
# From -- ./inp_files/17471.got.cif
#   From: 2010.03.12/outbox.cif.g09.slc.cpg/sg42_9_cif.got.tgz:17471.got - 2010.04.14 02:04:31.
