data_PCOD8186627
_publ_section_title
;
Structure prediction by ZEFSAII (Michael W. Deem and Ramdas Pophale) SiO2 
 PCOD8186627
Probable space group: F M M 2
;
_chemical_formula_sum "Si O2"
_cell_formula_units_Z 112
_cell_length_a 17.202533
_cell_length_b 24.427505
_cell_length_c 14.110065
_cell_angle_alpha 90.000000
_cell_angle_beta 90.000000
_cell_angle_gamma 90.000000
_cell_volume 5929.260412
_symmetry_space_group_name_H-M "F M M 2"
_symmetry_group_IT_number 42
_symmetry_cell_setting 'orthorhombic'
loop_
_space_group_symop_operation_xyz
x,y,z
-x,-y,z
-x,y,z
x,-y,z
x,1/2+y,1/2+z
-x,1/2-y,1/2+z
-x,1/2+y,1/2+z
x,1/2-y,1/2+z
1/2+x,y,1/2+z
1/2-x,-y,1/2+z
1/2-x,y,1/2+z
1/2+x,-y,1/2+z
1/2+x,1/2+y,z
1/2-x,1/2-y,z
1/2-x,1/2+y,z
1/2+x,1/2-y,z
loop_
_atom_site_type_symbol
_atom_site_label
_atom_site_fract_x
_atom_site_fract_y
_atom_site_fract_z
Si Si1 0.908941 0.244294 0.970020
Si Si2 0.916314 0.436035 0.361750
Si Si3 0.658866 0.831849 0.624878
Si Si4 0.158865 0.331849 0.098622
Si Si5 0.091059 0.244294 0.753480
Si Si6 0.907056 0.438325 0.566713
Si Si7 0.407056 0.061675 0.156787
O O1 0.885617 0.232162 0.861750
O O2 0.000000 0.254704 0.981522
O O3 0.884286 0.192690 0.033066
O O4 0.864773 0.298875 0.004604
O O5 0.933608 0.500000 0.361750
O O6 0.873313 0.422668 0.461061
O O7 0.873313 0.422668 0.262439
O O8 0.000000 0.405135 0.361750
O O9 0.750000 0.827143 0.611750
O O10 0.635227 0.798875 0.718896
O O11 0.632061 0.894991 0.638049
O O12 0.115713 0.307310 0.190433
O O13 0.132060 0.394991 0.085451
O O14 0.000000 0.254704 0.741978
O O15 0.882108 0.500000 0.596061
O O16 0.000000 0.433443 0.567779
O O17 0.500000 0.066557 0.155721
O O18 0.382107 0.000000 0.127439
#
# Coordination Sequence:
#
# PCOD8186627 Si02
#       7
#    16  16  16  16  16  16  16
#     4  10  21  38  59  78 100 136 183 227 260 304
#     4   7  12  24  44  72  99 124 163 213 255 288
#     4  11  22  34  52  81 113 142 169 211 270 328
#     4  11  22  34  52  81 113 142 169 211 270 328
#     4  10  21  38  59  78 100 136 183 227 260 304
#     4   9  17  31  52  77 106 140 179 219 256 303
#     4   9  17  31  52  77 106 140 179 219 256 303
#
# _framework density 18.889371000000001
#
# number of rings (size 3 to 8) (size 9 to 14) (size 15 to 20)
#    0.000    2.429    0.000    6.857    2.000    2.857 
#    0.000    0.000    0.000    0.857    0.000    4.000 
#    0.000    0.000    0.000    0.000    0.000    0.000 
#
# Total GULP energy -346979.754165 kJ/mol
# GULP energy per Si atom -12392.134077 kJ/mol
# Density = 1.884638 g / cm^3
# Si number density = 18.889371 Si / 1000 Ang^3
#
#
#
# Elastic Constant Matrix: (Units=GPa)
#
#
# Indices 1 2 3 4 5 6 
#
# 1 79.9807 23.9164 15.6675 0.0000 0.0000 0.0000
# 2 23.9164 105.5610 14.7894 0.0000 0.0000 0.0000
# 3 15.6675 14.7894 60.9072 0.0000 0.0000 0.0000
# 4 0.0000 0.0000 0.0000 20.2557 0.0000 0.0000
# 5 0.0000 0.0000 0.0000 0.0000 -4.3114 0.0000
# 6 0.0000 0.0000 0.0000 0.0000 0.0000 16.1960
#
#
#
# Elastic Compliance Matrix: (Units=1/GPa)
#
#
# Indices 1 2 3 4 5 6 
#
# 1 0.013892 -0.002740 -0.002908 0.000000 0.000000 0.000000
# 2 -0.002740 0.010347 -0.001808 0.000000 0.000000 0.000000
# 3 -0.002908 -0.001808 0.017605 0.000000 0.000000 0.000000
# 4 0.000000 0.000000 0.000000 0.049369 0.000000 0.000000
# 5 0.000000 0.000000 0.000000 0.000000 -0.231942 0.000000
# 6 0.000000 0.000000 0.000000 0.000000 0.000000 0.061744
#
#
# Mechanical properties :
#
#
# Convention : Reuss Voigt Hill
#
# Bulk Modulus (GPa) = 37.12923 39.46618 38.29770
# Shear Modulus (GPa) = -90.75097 19.23311 -35.75893
#
# Velocity S-wave (km/s) = -6.93885 3.19438 -4.35566
# Velocity P-wave (km/s) = 6.67069 5.87742 2.23092
#
# Compressibility (1/GPa) = 0.02693296
#
# Stress axis : x y z
#
# Youngs Moduli (GPa) = 71.98366 96.64413 56.80063
#
# Poissons Ratio (x) = 0.26480 0.16519
# Poissons Ratio (y) = 0.19724 0.10268
# Poissons Ratio (z) = 0.20934 0.17470
#
# Static dielectric constant tensor:
#      x y z
#    x 3.203440 0.000000 0.000000 
#    y 0.000000 3.578340 0.000000 
#    z 0.000000 0.000000 3.576550 
# 
# 
# High freq. dielectric constant tensor:
#      x y z
#    x 1.710820 0.000000 0.000000 
#    y 0.000000 1.740080 0.000000 
#    z 0.000000 0.000000 1.711720 
# 
# From -- ./inp_files/14246.got.cif
#   From: 2010.03.12/outbox.cif.g09.slc.cpg/sg42_8_cif.got.tgz:14246.got - 2010.04.14 02:04:31.
