data_PCOD8186825
_publ_section_title
;
Structure prediction by ZEFSAII (Michael W. Deem and Ramdas Pophale) SiO2 
 PCOD8186825
Probable space group: F M M 2
;
_chemical_formula_sum "Si O2"
_cell_formula_units_Z 96
_cell_length_a 23.637627
_cell_length_b 23.189889
_cell_length_c 8.421188
_cell_angle_alpha 90.000000
_cell_angle_beta 90.000000
_cell_angle_gamma 90.000000
_cell_volume 4616.107435
_symmetry_space_group_name_H-M "F M M 2"
_symmetry_group_IT_number 42
_symmetry_cell_setting 'orthorhombic'
loop_
_space_group_symop_operation_xyz
x,y,z
-x,-y,z
-x,y,z
x,-y,z
x,1/2+y,1/2+z
-x,1/2-y,1/2+z
-x,1/2+y,1/2+z
x,1/2-y,1/2+z
1/2+x,y,1/2+z
1/2-x,-y,1/2+z
1/2-x,y,1/2+z
1/2+x,-y,1/2+z
1/2+x,1/2+y,z
1/2-x,1/2-y,z
1/2-x,1/2+y,z
1/2+x,1/2-y,z
loop_
_atom_site_type_symbol
_atom_site_label
_atom_site_fract_x
_atom_site_fract_y
_atom_site_fract_z
Si Si1 0.293801 0.935255 0.313350
Si Si2 0.500000 0.330390 0.829716
Si Si3 0.500000 0.211649 0.686654
Si Si4 0.809062 0.223528 0.874934
Si Si5 0.111691 0.830061 0.356062
Si Si6 0.700111 0.372776 0.127168
Si Si7 0.613403 0.633194 0.699388
O O1 0.301843 0.924545 0.500810
O O2 0.251999 0.885900 0.245256
O O3 0.354687 0.927469 0.229146
O O4 0.271244 0.000000 0.285361
O O5 0.500000 0.280661 0.696181
O O6 0.443173 0.367382 0.806252
O O7 0.500000 0.302887 0.002575
O O8 0.445223 0.187453 0.770867
O O9 0.750000 0.250000 0.806827
O O10 0.851332 0.275682 0.911452
O O11 0.841972 0.182899 0.750699
O O12 0.795323 0.189126 0.038541
O O13 0.144415 0.872282 0.235759
O O14 0.096648 0.864129 0.515752
#
# Coordination Sequence:
#
# PCOD8186825 Si02
#       7
#    16   8   8  16  16  16  16
#     4  11  23  43  66  91 122 165 218 280 331 377
#     4  12  24  42  59  91 126 171 217 261 302 388
#     4  12  24  38  60  89 130 177 216 243 310 374
#     4  11  22  36  56  88 128 168 202 249 306 387
#     4  12  23  38  60  92 129 170 207 254 310 394
#     4  11  24  39  60  93 128 165 213 261 322 385
#     4  11  23  39  62  88 122 162 210 261 321 373
#
# _framework density 20.796742999999999
#
# number of rings (size 3 to 8) (size 9 to 14) (size 15 to 20)
#    0.000    0.667    1.667    9.000    0.000    2.667 
#    0.000    1.250    0.000    0.000    0.000    4.083 
#    0.000    0.000    0.000    0.000    0.000    0.000 
#
# Total GULP energy -297584.959382 kJ/mol
# GULP energy per Si atom -12399.373308 kJ/mol
# Density = 2.074941 g / cm^3
# Si number density = 20.796743 Si / 1000 Ang^3
#
#
#
# Elastic Constant Matrix: (Units=GPa)
#
#
# Indices 1 2 3 4 5 6 
#
# 1 151.5192 35.6282 33.5033 -0.0206 0.0141 0.0096
# 2 35.6282 66.1379 24.2839 -0.0272 0.0193 0.0126
# 3 33.5033 24.2839 108.1727 -0.0441 0.0203 0.0162
# 4 -0.0206 -0.0272 -0.0441 20.8424 0.0353 0.0324
# 5 0.0141 0.0193 0.0203 0.0353 39.4618 -0.0166
# 6 0.0096 0.0126 0.0162 0.0324 -0.0166 10.7071
#
#
#
# Elastic Compliance Matrix: (Units=1/GPa)
#
#
# Indices 1 2 3 4 5 6 
#
# 1 0.007805 -0.003615 -0.001606 0.000000 0.000000 0.000000
# 2 -0.003615 0.018152 -0.002955 0.000014 -0.000006 -0.000014
# 3 -0.001606 -0.002955 0.010405 0.000017 -0.000003 -0.000011
# 4 0.000000 0.000014 0.000017 0.047979 -0.000043 -0.000145
# 5 0.000000 -0.000006 -0.000003 -0.000043 0.025341 0.000039
# 6 0.000000 -0.000014 -0.000011 -0.000145 0.000039 0.093397
#
#
# Mechanical properties :
#
#
# Convention : Reuss Voigt Hill
#
# Bulk Modulus (GPa) = 49.97419 56.96230 53.46825
# Shear Modulus (GPa) = 22.11388 29.69656 25.90522
#
# Velocity S-wave (km/s) = 3.26442 3.78291 3.53319
# Velocity P-wave (km/s) = 6.18794 6.82129 6.51232
#
# Compressibility (1/GPa) = 0.02001033
#
# Stress axis : x y z
#
# Youngs Moduli (GPa) = 128.12474 55.08912 96.10470
#
# Poissons Ratio (x) = 0.19914 0.15433
# Poissons Ratio (y) = 0.46315 0.28403
# Poissons Ratio (z) = 0.20575 0.16281
#
# Static dielectric constant tensor:
#      x y z
#    x 3.970880 0.000000 0.000010 
#    y 0.000000 3.432840 -0.000010 
#    z 0.000010 -0.000010 3.895130 
# 
# 
# High freq. dielectric constant tensor:
#      x y z
#    x 1.822610 0.000000 0.000000 
#    y 0.000000 1.771430 0.000000 
#    z 0.000000 0.000000 1.833580 
# 
# From -- ./inp_files/4757.got.cif
#   From: 2010.03.12/outbox.cif.g09.slc.cpg/sg42_3_cif.got.tgz:4757.got - 2010.04.14 02:04:31.
