data_PCOD8186693
_publ_section_title
;
Structure prediction by ZEFSAII (Michael W. Deem and Ramdas Pophale) SiO2 
 PCOD8186693
Probable space group: F M M 2
;
_chemical_formula_sum "Si O2"
_cell_formula_units_Z 88
_cell_length_a 20.683654
_cell_length_b 20.816165
_cell_length_c 9.755060
_cell_angle_alpha 90.000000
_cell_angle_beta 90.000000
_cell_angle_gamma 90.000000
_cell_volume 4200.083561
_symmetry_space_group_name_H-M "F M M 2"
_symmetry_group_IT_number 42
_symmetry_cell_setting 'orthorhombic'
loop_
_space_group_symop_operation_xyz
x,y,z
-x,-y,z
-x,y,z
x,-y,z
x,1/2+y,1/2+z
-x,1/2-y,1/2+z
-x,1/2+y,1/2+z
x,1/2-y,1/2+z
1/2+x,y,1/2+z
1/2-x,-y,1/2+z
1/2-x,y,1/2+z
1/2+x,-y,1/2+z
1/2+x,1/2+y,z
1/2-x,1/2-y,z
1/2-x,1/2+y,z
1/2+x,1/2-y,z
loop_
_atom_site_type_symbol
_atom_site_label
_atom_site_fract_x
_atom_site_fract_y
_atom_site_fract_z
Si Si1 0.691247 0.069880 0.629450
Si Si2 0.750000 0.750000 0.748415
Si Si3 0.137258 0.833392 0.341488
Si Si4 0.000000 0.164843 0.960187
Si Si5 0.500000 0.721153 0.261998
Si Si6 0.889551 0.074220 0.878162
Si Si7 0.821963 0.130429 0.629766
O O1 0.650707 0.120215 0.715621
O O2 0.675391 0.076583 0.468363
O O3 0.768177 0.075423 0.639190
O O4 0.670824 0.000000 0.684375
O O5 0.807356 0.721562 0.842616
O O6 0.785422 0.802237 0.653733
O O7 0.141910 0.869906 0.485089
O O8 0.064658 0.808581 0.326268
O O9 0.000000 0.205570 0.817846
O O10 0.940363 0.116019 0.963903
O O11 0.000000 0.211819 0.095659
O O12 0.877110 0.111926 0.737548
O O13 0.912380 0.000000 0.854146
#
# Coordination Sequence:
#
# PCOD8186693 Si02
#       7
#    16   8  16   8   8  16  16
#     4  10  21  41  67  94 130 176 223 276 337 405
#     4  10  22  40  66  94 140 186 222 278 344 410
#     4  11  24  42  64 100 134 177 220 287 341 409
#     4  12  27  48  69  97 128 179 222 281 331 423
#     4  12  28  44  73  97 139 171 228 273 359 409
#     4  11  24  44  69  94 131 181 226 273 337 408
#     4  11  23  37  65 100 135 169 228 279 342 394
#
# _framework density 20.951965000000001
#
# number of rings (size 3 to 8) (size 9 to 14) (size 15 to 20)
#    0.000    1.091    1.818    4.636    5.091    4.364 
#    0.000    0.455    0.000    0.000    0.000    0.000 
#    0.000    0.000    0.000    0.000    0.000    0.000 
#
# Total GULP energy -272725.196302 kJ/mol
# GULP energy per Si atom -12396.599832 kJ/mol
# Density = 2.090428 g / cm^3
# Si number density = 20.951965 Si / 1000 Ang^3
#
#
#
# Elastic Constant Matrix: (Units=GPa)
#
#
# Indices 1 2 3 4 5 6 
#
# 1 114.2995 35.2045 29.0631 0.0000 0.0000 0.0000
# 2 35.2045 110.8340 40.7613 0.0000 0.0000 0.0000
# 3 29.0631 40.7613 115.2782 -0.0001 0.0000 0.0001
# 4 0.0000 0.0000 -0.0001 20.6446 0.0000 0.0001
# 5 0.0000 0.0000 0.0000 0.0000 24.5387 0.0000
# 6 0.0000 0.0000 0.0001 0.0001 0.0000 21.4635
#
#
#
# Elastic Compliance Matrix: (Units=1/GPa)
#
#
# Indices 1 2 3 4 5 6 
#
# 1 0.009948 -0.002572 -0.001599 0.000000 0.000000 0.000000
# 2 -0.002572 0.011036 -0.003254 0.000000 0.000000 0.000000
# 3 -0.001599 -0.003254 0.010228 0.000000 0.000000 0.000000
# 4 0.000000 0.000000 0.000000 0.048439 0.000000 0.000000
# 5 0.000000 0.000000 0.000000 0.000000 0.040752 0.000000
# 6 0.000000 0.000000 0.000000 0.000000 0.000000 0.046591
#
#
# Mechanical properties :
#
#
# Convention : Reuss Voigt Hill
#
# Bulk Modulus (GPa) = 61.11190 61.16330 61.13760
# Shear Modulus (GPa) = 26.69571 29.02155 27.85863
#
# Velocity S-wave (km/s) = 3.57338 3.72579 3.65038
# Velocity P-wave (km/s) = 6.80120 6.91117 6.85641
#
# Compressibility (1/GPa) = 0.01636343
#
# Stress axis : x y z
#
# Youngs Moduli (GPa) = 100.52761 90.61208 97.76873
#
# Poissons Ratio (x) = 0.23303 0.15629
# Poissons Ratio (y) = 0.25853 0.31813
# Poissons Ratio (z) = 0.16070 0.29484
#
# Static dielectric constant tensor:
#      x y z
#    x 3.796240 0.000000 0.000000 
#    y 0.000000 3.889740 0.000000 
#    z 0.000000 0.000000 3.695770 
# 
# 
# High freq. dielectric constant tensor:
#      x y z
#    x 1.821420 0.000000 0.000000 
#    y 0.000000 1.825710 0.000000 
#    z 0.000000 0.000000 1.821540 
# 
# From -- ./inp_files/8700.got.cif
#   From: 2010.03.12/outbox.cif.g09.slc.cpg/sg42_5_cif.got.tgz:8700.got - 2010.04.14 02:04:31.
