data_PCOD8186374
_publ_section_title
;
Structure prediction by ZEFSAII (Michael W. Deem and Ramdas Pophale) SiO2 
 PCOD8186374
Probable space group: F M M 2
;
_chemical_formula_sum "Si O2"
_cell_formula_units_Z 96
_cell_length_a 18.804761
_cell_length_b 22.038444
_cell_length_c 12.564135
_cell_angle_alpha 90.000000
_cell_angle_beta 90.000000
_cell_angle_gamma 90.000000
_cell_volume 5206.925222
_symmetry_space_group_name_H-M "F M M 2"
_symmetry_group_IT_number 42
_symmetry_cell_setting 'orthorhombic'
loop_
_space_group_symop_operation_xyz
x,y,z
-x,-y,z
-x,y,z
x,-y,z
x,1/2+y,1/2+z
-x,1/2-y,1/2+z
-x,1/2+y,1/2+z
x,1/2-y,1/2+z
1/2+x,y,1/2+z
1/2-x,-y,1/2+z
1/2-x,y,1/2+z
1/2+x,-y,1/2+z
1/2+x,1/2+y,z
1/2-x,1/2-y,z
1/2-x,1/2+y,z
1/2+x,1/2-y,z
loop_
_atom_site_type_symbol
_atom_site_label
_atom_site_fract_x
_atom_site_fract_y
_atom_site_fract_z
Si Si1 0.167462 0.145379 0.814080
Si Si2 0.303724 0.068455 0.115896
Si Si3 0.081148 0.750644 0.888049
Si Si4 0.143270 0.567249 0.689612
Si Si5 0.421489 0.366186 0.002469
Si Si6 0.323552 0.634669 0.393498
O O1 0.156644 0.106950 0.707027
O O2 0.124768 0.209351 0.799748
O O3 0.249480 0.158685 0.844115
O O4 0.132422 0.107201 0.912591
O O5 0.221609 0.066468 0.143248
O O6 0.334818 0.000000 0.112540
O O7 0.313366 0.100299 0.003444
O O8 0.122481 0.689428 0.913088
O O9 0.000000 0.737428 0.849918
O O10 0.080664 0.792242 0.995500
O O11 0.109883 0.500000 0.682535
O O12 0.097475 0.614218 0.621228
O O13 0.141022 0.587837 0.811588
O O14 0.500000 0.390285 0.974544
#
# Coordination Sequence:
#
# PCOD8186374 Si02
#       6
#    16  16  16  16  16  16
#     4   9  19  36  57  86 111 145 193 234 277 331
#     4  10  20  35  57  84 116 148 183 233 282 333
#     4   9  20  38  57  81 112 147 188 235 286 332
#     4  10  21  35  55  84 115 149 187 231 282 332
#     4   9  19  38  58  82 113 148 191 236 280 327
#     4  11  20  35  59  86 114 149 186 232 282 342
#
# _framework density 18.436983999999999
#
# number of rings (size 3 to 8) (size 9 to 14) (size 15 to 20)
#    1.000    1.333    1.667    1.000    0.000    3.667 
#    0.000    6.667    0.000    4.000    0.000    0.000 
#    0.000    0.000    0.000    0.000    0.000    0.000 
#
# Total GULP energy -297368.958204 kJ/mol
# GULP energy per Si atom -12390.373258 kJ/mol
# Density = 1.839502 g / cm^3
# Si number density = 18.436984 Si / 1000 Ang^3
#
#
#
# Elastic Constant Matrix: (Units=GPa)
#
#
# Indices 1 2 3 4 5 6 
#
# 1 63.8478 32.9413 19.8444 0.0000 0.0000 0.0000
# 2 32.9413 118.4168 52.1702 0.0000 0.0000 0.0000
# 3 19.8444 52.1702 118.2943 0.0000 0.0000 0.0000
# 4 0.0000 0.0000 0.0000 8.8209 0.0000 0.0000
# 5 0.0000 0.0000 0.0000 0.0000 20.2904 0.0000
# 6 0.0000 0.0000 0.0000 0.0000 0.0000 13.7303
#
#
#
# Elastic Compliance Matrix: (Units=1/GPa)
#
#
# Indices 1 2 3 4 5 6 
#
# 1 0.018387 -0.004662 -0.001029 0.000000 0.000000 0.000000
# 2 -0.004662 0.011663 -0.004362 0.000000 0.000000 0.000000
# 3 -0.001029 -0.004362 0.010550 0.000000 0.000000 0.000000
# 4 0.000000 0.000000 0.000000 0.113367 0.000000 0.000000
# 5 0.000000 0.000000 0.000000 0.000000 0.049284 0.000000
# 6 0.000000 0.000000 0.000000 0.000000 0.000000 0.072832
#
#
# Mechanical properties :
#
#
# Convention : Reuss Voigt Hill
#
# Bulk Modulus (GPa) = 48.79037 56.71898 52.75467
# Shear Modulus (GPa) = 16.50063 21.60851 19.05457
#
# Velocity S-wave (km/s) = 2.99486 3.42719 3.21829
# Velocity P-wave (km/s) = 6.20320 6.81846 6.51809
#
# Compressibility (1/GPa) = 0.02049585
#
# Stress axis : x y z
#
# Youngs Moduli (GPa) = 54.38592 85.74002 94.79010
#
# Poissons Ratio (x) = 0.39970 0.09750
# Poissons Ratio (y) = 0.25354 0.41344
# Poissons Ratio (z) = 0.05594 0.37397
#
# Static dielectric constant tensor:
#      x y z
#    x 3.352530 0.000000 0.000000 
#    y 0.000000 3.384280 0.000000 
#    z 0.000000 0.000000 3.287130 
# 
# 
# High freq. dielectric constant tensor:
#      x y z
#    x 1.709300 0.000000 0.000000 
#    y 0.000000 1.707680 0.000000 
#    z 0.000000 0.000000 1.703960 
# 
# From -- ./inp_files/9605.got.cif
#   From: 2010.03.12/outbox.cif.g09.slc.cpg/sg42_5_cif.got.tgz:9605.got - 2010.04.14 02:04:31.
