data_PCOD8186458
_publ_section_title
;
Structure prediction by ZEFSAII (Michael W. Deem and Ramdas Pophale) SiO2 
 PCOD8186458
Probable space group: F M M 2
;
_chemical_formula_sum "Si O2"
_cell_formula_units_Z 96
_cell_length_a 22.093200
_cell_length_b 14.488415
_cell_length_c 13.425063
_cell_angle_alpha 90.000000
_cell_angle_beta 90.000000
_cell_angle_gamma 90.000000
_cell_volume 4297.301586
_symmetry_space_group_name_H-M "F M M 2"
_symmetry_group_IT_number 42
_symmetry_cell_setting 'orthorhombic'
loop_
_space_group_symop_operation_xyz
x,y,z
-x,-y,z
-x,y,z
x,-y,z
x,1/2+y,1/2+z
-x,1/2-y,1/2+z
-x,1/2+y,1/2+z
x,1/2-y,1/2+z
1/2+x,y,1/2+z
1/2-x,-y,1/2+z
1/2-x,y,1/2+z
1/2+x,-y,1/2+z
1/2+x,1/2+y,z
1/2-x,1/2-y,z
1/2-x,1/2+y,z
1/2+x,1/2-y,z
loop_
_atom_site_type_symbol
_atom_site_label
_atom_site_fract_x
_atom_site_fract_y
_atom_site_fract_z
Si Si1 0.103139 0.894082 0.538970
Si Si2 0.931133 0.287832 0.445145
Si Si3 0.622719 0.103553 0.261377
Si Si4 0.838921 0.602790 0.554634
Si Si5 0.759230 0.349693 0.729510
Si Si6 0.775269 0.893488 0.437911
O O1 0.069056 0.823057 0.464510
O O2 0.090253 0.873423 0.655547
O O3 0.174789 0.878757 0.522870
O O4 0.084239 0.000000 0.512201
O O5 0.898460 0.321229 0.343030
O O6 0.897518 0.332345 0.541546
O O7 0.000000 0.322174 0.441006
O O8 0.694993 0.100237 0.243838
O O9 0.603925 0.000000 0.295629
O O10 0.859005 0.500000 0.524739
O O11 0.808742 0.597278 0.663456
O O12 0.788559 0.642503 0.479274
O O13 0.750000 0.250000 0.680275
O O14 0.790981 0.337943 0.837635
O O15 0.770153 0.000000 0.408260
#
# Coordination Sequence:
#
# PCOD8186458 Si02
#       6
#    16  16  16  16  16  16
#     4  10  23  44  70 100 135 176 229 294 352 404
#     4  12  27  44  66 100 141 186 232 276 334 411
#     4  11  22  42  71 100 131 178 238 291 337 395
#     4  11  23  39  63  97 139 178 217 278 349 412
#     4  12  22  34  63 100 137 177 224 286 350 412
#     4  10  20  36  62  96 132 167 213 280 356 409
#
# _framework density 22.339600000000001
#
# number of rings (size 3 to 8) (size 9 to 14) (size 15 to 20)
#    0.000    1.000    3.333    4.000    0.000    2.333 
#    0.000    1.667    0.000    1.000    0.000    7.000 
#    0.000    0.000    0.000    0.000    0.000    0.000 
#
# Total GULP energy -297482.332864 kJ/mol
# GULP energy per Si atom -12395.097203 kJ/mol
# Density = 2.228875 g / cm^3
# Si number density = 22.339600 Si / 1000 Ang^3
#
#
#
# Elastic Constant Matrix: (Units=GPa)
#
#
# Indices 1 2 3 4 5 6 
#
# 1 110.1504 34.8571 36.9852 0.0000 0.0000 0.0000
# 2 34.8571 104.1556 51.4240 0.0000 0.0000 0.0000
# 3 36.9852 51.4240 139.7256 0.0000 0.0000 0.0000
# 4 0.0000 0.0000 0.0000 36.9922 0.0000 0.0000
# 5 0.0000 0.0000 0.0000 0.0000 19.6802 0.0000
# 6 0.0000 0.0000 0.0000 0.0000 0.0000 18.3620
#
#
#
# Elastic Compliance Matrix: (Units=1/GPa)
#
#
# Indices 1 2 3 4 5 6 
#
# 1 0.010519 -0.002622 -0.001819 0.000000 0.000000 0.000000
# 2 -0.002622 0.012387 -0.003865 0.000000 0.000000 0.000000
# 3 -0.001819 -0.003865 0.009061 0.000000 0.000000 0.000000
# 4 0.000000 0.000000 0.000000 0.027033 0.000000 0.000000
# 5 0.000000 0.000000 0.000000 0.000000 0.050813 0.000000
# 6 0.000000 0.000000 0.000000 0.000000 0.000000 0.054460
#
#
# Mechanical properties :
#
#
# Convention : Reuss Voigt Hill
#
# Bulk Modulus (GPa) = 65.12835 66.72936 65.92886
# Shear Modulus (GPa) = 26.88133 30.39120 28.63627
#
# Velocity S-wave (km/s) = 3.47263 3.69239 3.58419
# Velocity P-wave (km/s) = 6.73023 6.93639 6.83409
#
# Compressibility (1/GPa) = 0.01535430
#
# Stress axis : x y z
#
# Youngs Moduli (GPa) = 95.06460 80.73229 110.36559
#
# Poissons Ratio (x) = 0.21169 0.20080
# Poissons Ratio (y) = 0.24927 0.42652
# Poissons Ratio (z) = 0.17296 0.31200
#
# Static dielectric constant tensor:
#      x y z
#    x 3.678900 0.000000 0.000000 
#    y 0.000000 4.205450 0.000000 
#    z 0.000000 0.000000 4.113460 
# 
# 
# High freq. dielectric constant tensor:
#      x y z
#    x 1.841150 0.000000 0.000000 
#    y 0.000000 1.888710 0.000000 
#    z 0.000000 0.000000 1.883370 
# 
# From -- ./inp_files/15821.got.cif
#   From: 2010.03.12/outbox.cif.g09.slc.cpg/sg42_8_cif.got.tgz:15821.got - 2010.04.14 02:04:31.
