data_PCOD8186229
_publ_section_title
;
Structure prediction by ZEFSAII (Michael W. Deem and Ramdas Pophale) SiO2 
 PCOD8186229
Probable space group: F M M 2
;
_chemical_formula_sum "Si O2"
_cell_formula_units_Z 96
_cell_length_a 30.522892
_cell_length_b 9.124028
_cell_length_c 18.891693
_cell_angle_alpha 90.000000
_cell_angle_beta 90.000000
_cell_angle_gamma 90.000000
_cell_volume 5261.180101
_symmetry_space_group_name_H-M "F M M 2"
_symmetry_group_IT_number 42
_symmetry_cell_setting 'orthorhombic'
loop_
_space_group_symop_operation_xyz
x,y,z
-x,-y,z
-x,y,z
x,-y,z
x,1/2+y,1/2+z
-x,1/2-y,1/2+z
-x,1/2+y,1/2+z
x,1/2-y,1/2+z
1/2+x,y,1/2+z
1/2-x,-y,1/2+z
1/2-x,y,1/2+z
1/2+x,-y,1/2+z
1/2+x,1/2+y,z
1/2-x,1/2-y,z
1/2-x,1/2+y,z
1/2+x,1/2-y,z
loop_
_atom_site_type_symbol
_atom_site_label
_atom_site_fract_x
_atom_site_fract_y
_atom_site_fract_z
Si Si1 0.874747 0.173978 0.013130
Si Si2 0.629100 0.827947 0.673426
Si Si3 0.450504 0.169130 0.771481
Si Si4 0.793898 0.828648 0.921386
Si Si5 0.794720 0.172416 0.758125
Si Si6 0.049386 0.173040 0.913821
O O1 0.872804 0.230990 0.093222
O O2 0.874902 0.000000 0.012097
O O3 0.833200 0.233545 0.969330
O O4 0.919057 0.232193 0.975851
O O5 0.581682 0.794339 0.706855
O O6 0.665838 0.736615 0.713115
O O7 0.640619 0.000000 0.677537
O O8 0.500000 0.211458 0.748222
O O9 0.435269 0.260345 0.839462
O O10 0.447620 0.000000 0.792906
O O11 0.750000 0.750000 0.947231
O O12 0.804547 0.791734 0.839988
O O13 0.787012 0.000000 0.932723
O O14 0.750000 0.250000 0.733584
O O15 0.790312 0.000000 0.744339
O O16 0.000000 0.222226 0.932739
O O17 0.053204 0.000000 0.905636
#
# Coordination Sequence:
#
# PCOD8186229 Si02
#       6
#    16  16  16  16  16  16
#     4   9  18  32  49  72 101 129 159 199 245 290
#     4  10  20  33  50  73 103 136 167 202 247 299
#     4   9  18  32  50  73 101 133 168 207 251 296
#     4   9  18  33  52  71  93 123 159 200 241 283
#     4  10  20  35  55  76  99 128 165 207 249 295
#     4   9  17  31  53  76  96 125 167 210 249 292
#
# _framework density 18.246856999999999
#
# number of rings (size 3 to 8) (size 9 to 14) (size 15 to 20)
#    0.000    2.667    0.000    1.500    0.000    4.000 
#    0.000    7.500    0.000    0.000    0.000    4.667 
#    0.000    0.000    0.000    0.000    0.000    0.000 
#
# Total GULP energy -297619.847167 kJ/mol
# GULP energy per Si atom -12400.826965 kJ/mol
# Density = 1.820533 g / cm^3
# Si number density = 18.246857 Si / 1000 Ang^3
#
#
#
# Elastic Constant Matrix: (Units=GPa)
#
#
# Indices 1 2 3 4 5 6 
#
# 1 146.4048 41.6201 92.7078 0.0000 0.0000 0.0000
# 2 41.6201 40.2853 37.3633 0.0000 0.0000 0.0000
# 3 92.7078 37.3633 131.9825 0.0000 0.0000 0.0000
# 4 0.0000 0.0000 0.0000 22.5763 0.0000 0.0000
# 5 0.0000 0.0000 0.0000 0.0000 16.2754 0.0000
# 6 0.0000 0.0000 0.0000 0.0000 0.0000 28.0673
#
#
#
# Elastic Compliance Matrix: (Units=1/GPa)
#
#
# Indices 1 2 3 4 5 6 
#
# 1 0.013637 -0.007058 -0.007581 0.000000 0.000000 0.000000
# 2 -0.007058 0.037314 -0.005606 0.000000 0.000000 0.000000
# 3 -0.007581 -0.005606 0.014489 0.000000 0.000000 0.000000
# 4 0.000000 0.000000 0.000000 0.044294 0.000000 0.000000
# 5 0.000000 0.000000 0.000000 0.000000 0.061442 0.000000
# 6 0.000000 0.000000 0.000000 0.000000 0.000000 0.035629
#
#
# Mechanical properties :
#
#
# Convention : Reuss Voigt Hill
#
# Bulk Modulus (GPa) = 40.07917 73.56165 56.82041
# Shear Modulus (GPa) = 19.56090 23.18256 21.37173
#
# Velocity S-wave (km/s) = 3.27772 3.56827 3.42607
# Velocity P-wave (km/s) = 6.02804 7.57489 6.84530
#
# Compressibility (1/GPa) = 0.02495062
#
# Stress axis : x y z
#
# Youngs Moduli (GPa) = 73.32724 26.79973 69.01834
#
# Poissons Ratio (x) = 0.18915 0.52324
# Poissons Ratio (y) = 0.51754 0.38689
# Poissons Ratio (z) = 0.55591 0.15023
#
# Static dielectric constant tensor:
#      x y z
#    x 3.644020 0.000000 0.000000 
#    y 0.000000 3.166530 0.000000 
#    z 0.000000 0.000000 3.475360 
# 
# 
# High freq. dielectric constant tensor:
#      x y z
#    x 1.721370 0.000000 0.000000 
#    y 0.000000 1.685290 0.000000 
#    z 0.000000 0.000000 1.702320 
# 
# From -- ./inp_files/19215.got.cif
#   From: 2010.03.12/outbox.cif.g09.slc.cpg/sg42_10_cif.got.tgz:19215.got - 2010.04.14 02:04:31.
