data_PCOD8186711
_publ_section_title
;
Structure prediction by ZEFSAII (Michael W. Deem and Ramdas Pophale) SiO2 
 PCOD8186711
Probable space group: F M M 2
;
_chemical_formula_sum "Si O2"
_cell_formula_units_Z 128
_cell_length_a 16.404226
_cell_length_b 17.356027
_cell_length_c 24.167749
_cell_angle_alpha 90.000000
_cell_angle_beta 90.000000
_cell_angle_gamma 90.000000
_cell_volume 6880.852730
_symmetry_space_group_name_H-M "F M M 2"
_symmetry_group_IT_number 42
_symmetry_cell_setting 'orthorhombic'
loop_
_space_group_symop_operation_xyz
x,y,z
-x,-y,z
-x,y,z
x,-y,z
x,1/2+y,1/2+z
-x,1/2-y,1/2+z
-x,1/2+y,1/2+z
x,1/2-y,1/2+z
1/2+x,y,1/2+z
1/2-x,-y,1/2+z
1/2-x,y,1/2+z
1/2+x,-y,1/2+z
1/2+x,1/2+y,z
1/2-x,1/2-y,z
1/2-x,1/2+y,z
1/2+x,1/2-y,z
loop_
_atom_site_type_symbol
_atom_site_label
_atom_site_fract_x
_atom_site_fract_y
_atom_site_fract_z
Si Si1 0.328048 0.298852 0.133840
Si Si2 0.095104 0.355503 0.360964
Si Si3 0.589978 0.325702 0.240090
Si Si4 0.757380 0.411883 0.426413
Si Si5 0.757381 0.088116 0.553768
Si Si6 0.328049 0.798853 0.846341
Si Si7 0.404896 0.355504 0.619217
Si Si8 0.089577 0.642780 0.240091
O O1 0.250000 0.250000 0.153933
O O2 0.361411 0.350266 0.184871
O O3 0.305896 0.357351 0.085260
O O4 0.395138 0.237155 0.112406
O O5 0.149582 0.399626 0.405947
O O6 0.104860 0.262844 0.367774
O O7 0.128861 0.381928 0.299221
O O8 0.000000 0.376523 0.369346
O O9 0.500000 0.363561 0.240091
O O10 0.638592 0.350265 0.295308
O O11 0.583456 0.234226 0.240090
O O12 0.731712 0.500000 0.417042
O O13 0.749999 0.388546 0.490090
O O14 0.694102 0.357353 0.394920
O O15 0.850418 0.100371 0.574235
O O16 0.731710 0.000000 0.563138
O O17 0.250000 0.750000 0.826251
O O18 0.500000 0.376523 0.610834
O O19 0.371140 0.381929 0.680961
O O20 0.000000 0.606403 0.240092
#
# Coordination Sequence:
#
# PCOD8186711 Si02
#       8
#    16  16  16  16  16  16  16  16
#     4   9  17  30  52  78 103 131 165 206 252 300
#     4   9  17  32  57  83 103 125 161 210 256 299
#     4   9  15  27  49  76 106 133 160 199 246 299
#     4  10  22  38  51  67 100 142 176 207 249 301
#     4  10  22  38  51  67 100 142 176 207 249 301
#     4   9  17  30  52  78 103 131 165 206 252 300
#     4   9  17  32  57  83 103 125 161 210 256 299
#     4   7  12  25  47  78 106 122 144 191 256 306
#
# _framework density 18.602345
#
# number of rings (size 3 to 8) (size 9 to 14) (size 15 to 20)
#    0.000    3.000    0.000    2.625    0.000    8.000 
#    0.000    6.250    0.000    9.000    0.000    0.000 
#    0.000    0.000    0.000    0.000    0.000    0.000 
#
# Total GULP energy -396453.584911 kJ/mol
# GULP energy per Si atom -12389.174528 kJ/mol
# Density = 1.856000 g / cm^3
# Si number density = 18.602345 Si / 1000 Ang^3
#
#
#
# Elastic Constant Matrix: (Units=GPa)
#
#
# Indices 1 2 3 4 5 6 
#
# 1 77.9914 16.4840 66.3568 0.0000 0.0000 0.0000
# 2 16.4840 48.8604 51.1013 0.0000 0.0000 0.0000
# 3 66.3568 51.1013 168.4643 0.0000 0.0000 0.0000
# 4 0.0000 0.0000 0.0000 -9.7611 0.0000 0.0000
# 5 0.0000 0.0000 0.0000 0.0000 27.6176 0.0000
# 6 0.0000 0.0000 0.0000 0.0000 0.0000 11.7244
#
#
#
# Elastic Compliance Matrix: (Units=1/GPa)
#
#
# Indices 1 2 3 4 5 6 
#
# 1 0.019434 0.002123 -0.008299 0.000000 0.000000 0.000000
# 2 0.002123 0.030208 -0.010000 0.000000 0.000000 0.000000
# 3 -0.008299 -0.010000 0.012238 0.000000 0.000000 0.000000
# 4 0.000000 0.000000 0.000000 -0.102448 0.000000 0.000000
# 5 0.000000 0.000000 0.000000 0.000000 0.036209 0.000000
# 6 0.000000 0.000000 0.000000 0.000000 0.000000 0.085292
#
#
# Mechanical properties :
#
#
# Convention : Reuss Voigt Hill
#
# Bulk Modulus (GPa) = 33.86417 62.57782 48.22099
# Shear Modulus (GPa) = 40.60822 16.67445 28.64134
#
# Velocity S-wave (km/s) = 4.67729 2.99718 3.92811
# Velocity P-wave (km/s) = 6.88572 6.75945 6.82288
#
# Compressibility (1/GPa) = 0.02952974
#
# Stress axis : x y z
#
# Youngs Moduli (GPa) = 51.45583 33.10343 81.71198
#
# Poissons Ratio (x) = -0.07028 0.67813
# Poissons Ratio (y) = -0.10925 0.81708
# Poissons Ratio (z) = 0.42703 0.33102
#
# Static dielectric constant tensor:
#      x y z
#    x 3.484720 0.000000 0.000000 
#    y 0.000000 3.056920 0.000000 
#    z 0.000000 0.000000 3.607920 
# 
# 
# High freq. dielectric constant tensor:
#      x y z
#    x 1.713510 0.000000 0.000000 
#    y 0.000000 1.679700 0.000000 
#    z 0.000000 0.000000 1.723950 
# 
# From -- ./inp_files/30011.got.cif
#   From: 2010.03.12/outbox.cif.g09.slc.cpg/sg42_16_cif.got.tgz:30011.got - 2010.04.14 02:04:31.
