data_PCOD8186580
_publ_section_title
;
Structure prediction by ZEFSAII (Michael W. Deem and Ramdas Pophale) SiO2 
 PCOD8186580
Probable space group: F M M 2
;
_chemical_formula_sum "Si O2"
_cell_formula_units_Z 96
_cell_length_a 26.430263
_cell_length_b 26.460279
_cell_length_c 7.314084
_cell_angle_alpha 90.000000
_cell_angle_beta 90.000000
_cell_angle_gamma 90.000000
_cell_volume 5115.120247
_symmetry_space_group_name_H-M "F M M 2"
_symmetry_group_IT_number 42
_symmetry_cell_setting 'orthorhombic'
loop_
_space_group_symop_operation_xyz
x,y,z
-x,-y,z
-x,y,z
x,-y,z
x,1/2+y,1/2+z
-x,1/2-y,1/2+z
-x,1/2+y,1/2+z
x,1/2-y,1/2+z
1/2+x,y,1/2+z
1/2-x,-y,1/2+z
1/2-x,y,1/2+z
1/2+x,-y,1/2+z
1/2+x,1/2+y,z
1/2-x,1/2-y,z
1/2-x,1/2+y,z
1/2+x,1/2-y,z
loop_
_atom_site_type_symbol
_atom_site_label
_atom_site_fract_x
_atom_site_fract_y
_atom_site_fract_z
Si Si1 0.865383 0.444483 0.198830
Si Si2 0.100210 0.818976 0.033704
Si Si3 0.555637 0.634548 0.696934
Si Si4 0.718552 0.441851 0.405188
Si Si5 0.558224 0.281422 0.403873
Si Si6 0.819030 0.399738 0.535253
O O1 0.888550 0.500000 0.176706
O O2 0.905488 0.405718 0.113690
O O3 0.856174 0.433983 0.413123
O O4 0.813113 0.439254 0.090491
O O5 0.076139 0.815497 0.234632
O O6 0.157469 0.842510 0.043384
O O7 0.066000 0.856057 0.911289
O O8 0.097823 0.764301 0.935197
O O9 0.500000 0.611572 0.674182
O O10 0.561154 0.686688 0.588469
O O11 0.737319 0.500000 0.371274
O O12 0.764326 0.402323 0.436701
O O13 0.684351 0.423567 0.236601
O O14 0.500000 0.262560 0.371385
#
# Coordination Sequence:
#
# PCOD8186580 Si02
#       6
#    16  16  16  16  16  16
#     4  10  21  36  57  86 117 151 192 239 292 349
#     4  11  22  35  57  86 115 145 190 247 294 335
#     4  10  21  36  57  86 117 151 192 239 292 349
#     4  11  20  36  61  85 112 152 197 239 284 345
#     4  11  20  36  61  85 112 152 197 239 284 345
#     4  11  22  35  57  86 115 145 190 247 294 335
#
# _framework density 18.767887999999999
#
# number of rings (size 3 to 8) (size 9 to 14) (size 15 to 20)
#    0.000    1.333    3.333    4.000    0.000    0.333 
#    0.000    0.000    0.000    8.000    0.000    4.667 
#    0.000    0.000    0.000    0.000    0.000    0.000 
#
# Total GULP energy -297476.507417 kJ/mol
# GULP energy per Si atom -12394.854476 kJ/mol
# Density = 1.872517 g / cm^3
# Si number density = 18.767888 Si / 1000 Ang^3
#
#
#
# Elastic Constant Matrix: (Units=GPa)
#
#
# Indices 1 2 3 4 5 6 
#
# 1 107.4355 75.5952 28.8710 0.0270 0.0237 0.0398
# 2 75.5952 108.3973 29.1526 0.0198 -0.0107 -0.0059
# 3 28.8710 29.1526 106.0446 0.0555 -0.0045 0.0232
# 4 0.0270 0.0198 0.0555 25.3413 -0.0066 -0.0313
# 5 0.0237 -0.0107 -0.0045 -0.0066 25.4328 -0.0694
# 6 0.0398 -0.0059 0.0232 -0.0313 -0.0694 32.0695
#
#
#
# Elastic Compliance Matrix: (Units=1/GPa)
#
#
# Indices 1 2 3 4 5 6 
#
# 1 0.018528 -0.012488 -0.001611 -0.000007 -0.000023 -0.000024
# 2 -0.012488 0.018379 -0.001653 0.000003 0.000019 0.000020
# 3 -0.001611 -0.001653 0.010323 -0.000020 0.000003 -0.000006
# 4 -0.000007 0.000003 -0.000020 0.039461 0.000010 0.000039
# 5 -0.000023 0.000019 0.000003 0.000010 0.039320 0.000085
# 6 -0.000024 0.000020 -0.000006 0.000039 0.000085 0.031183
#
#
# Mechanical properties :
#
#
# Convention : Reuss Voigt Hill
#
# Bulk Modulus (GPa) = 63.58839 65.45722 64.52280
# Shear Modulus (GPa) = 25.78145 29.11929 27.45037
#
# Velocity S-wave (km/s) = 3.71037 3.94324 3.82858
# Velocity P-wave (km/s) = 7.23262 7.46225 7.34833
#
# Compressibility (1/GPa) = 0.01572614
#
# Stress axis : x y z
#
# Youngs Moduli (GPa) = 53.97329 54.41116 96.87116
#
# Poissons Ratio (x) = 0.67947 0.15608
# Poissons Ratio (y) = 0.67400 0.16009
# Poissons Ratio (z) = 0.08696 0.08992
#
# Static dielectric constant tensor:
#      x y z
#    x 3.414780 0.000030 0.000040 
#    y 0.000030 3.419460 -0.000080 
#    z 0.000040 -0.000080 3.603650 
# 
# 
# High freq. dielectric constant tensor:
#      x y z
#    x 1.712280 0.000000 0.000000 
#    y 0.000000 1.712780 -0.000010 
#    z 0.000000 -0.000010 1.749420 
# 
# From -- ./inp_files/4164.got.cif
#   From: 2010.03.12/outbox.cif.g09.slc.cpg/sg42_3_cif.got.tgz:4164.got - 2010.04.14 02:04:31.
