data_PCOD8186532
_publ_section_title
;
Structure prediction by ZEFSAII (Michael W. Deem and Ramdas Pophale) SiO2 
 PCOD8186532
Probable space group: F M M 2
;
_chemical_formula_sum "Si O2"
_cell_formula_units_Z 112
_cell_length_a 21.630128
_cell_length_b 14.378313
_cell_length_c 17.209842
_cell_angle_alpha 90.000000
_cell_angle_beta 90.000000
_cell_angle_gamma 90.000000
_cell_volume 5352.342619
_symmetry_space_group_name_H-M "F M M 2"
_symmetry_group_IT_number 42
_symmetry_cell_setting 'orthorhombic'
loop_
_space_group_symop_operation_xyz
x,y,z
-x,-y,z
-x,y,z
x,-y,z
x,1/2+y,1/2+z
-x,1/2-y,1/2+z
-x,1/2+y,1/2+z
x,1/2-y,1/2+z
1/2+x,y,1/2+z
1/2-x,-y,1/2+z
1/2-x,y,1/2+z
1/2+x,-y,1/2+z
1/2+x,1/2+y,z
1/2-x,1/2-y,z
1/2-x,1/2+y,z
1/2+x,1/2-y,z
loop_
_atom_site_type_symbol
_atom_site_label
_atom_site_fract_x
_atom_site_fract_y
_atom_site_fract_z
Si Si1 0.570477 0.390605 0.536910
Si Si2 0.928887 0.216819 0.692560
Si Si3 0.142493 0.102779 0.818139
Si Si4 0.228276 0.148485 0.267251
Si Si5 0.179574 0.110304 0.426250
Si Si6 0.811253 0.890023 0.980352
Si Si7 0.864190 0.104679 0.141328
O O1 0.500000 0.364753 0.512563
O O2 0.577610 0.500000 0.550523
O O3 0.589334 0.342591 0.617331
O O4 0.617766 0.355496 0.470540
O O5 0.892438 0.178183 0.766577
O O6 0.913776 0.325274 0.678687
O O7 0.000000 0.206964 0.713060
O O8 0.212731 0.087515 0.790048
O O9 0.146386 0.140727 0.906916
O O10 0.110766 0.000000 0.813964
O O11 0.250000 0.250000 0.241114
O O12 0.180814 0.154946 0.340224
O O13 0.196156 0.099005 0.194941
O O14 0.240515 0.146595 0.472563
O O15 0.179240 0.000000 0.417286
O O16 0.807919 0.000000 0.984355
O O17 0.843905 0.853106 0.058110
O O18 0.892334 0.000000 0.134367
#
# Coordination Sequence:
#
# PCOD8186532 Si02
#       7
#    16  16  16  16  16  16  16
#     4   9  19  36  58  88 128 170 211 257 309 369
#     4  11  24  41  61  90 123 163 216 259 306 372
#     4  10  20  39  64  92 126 157 198 260 320 371
#     4  11  21  36  60  93 125 160 202 256 315 371
#     4   9  18  34  57  88 126 166 206 251 307 372
#     4   8  18  35  60  92 120 154 200 254 315 373
#     4  11  23  41  63  88 125 165 208 257 313 377
#
# _framework density 20.925416999999999
#
# number of rings (size 3 to 8) (size 9 to 14) (size 15 to 20)
#    0.000    2.143    1.429    2.571    2.000    3.429 
#    0.000    2.143    0.000    4.286    0.000    0.000 
#    0.000    0.000    0.000    0.000    0.000    0.000 
#
# Total GULP energy -347148.490140 kJ/mol
# GULP energy per Si atom -12398.160362 kJ/mol
# Density = 2.087779 g / cm^3
# Si number density = 20.925417 Si / 1000 Ang^3
#
#
#
# Elastic Constant Matrix: (Units=GPa)
#
#
# Indices 1 2 3 4 5 6 
#
# 1 87.1368 27.5907 64.6668 0.0000 0.0000 0.0000
# 2 27.5907 69.6368 33.3925 0.0000 0.0000 0.0000
# 3 64.6668 33.3925 141.1592 0.0000 0.0000 0.0000
# 4 0.0000 0.0000 0.0000 18.5208 0.0000 0.0000
# 5 0.0000 0.0000 0.0000 0.0000 30.8508 0.0000
# 6 0.0000 0.0000 0.0000 0.0000 0.0000 16.3783
#
#
#
# Elastic Compliance Matrix: (Units=1/GPa)
#
#
# Indices 1 2 3 4 5 6 
#
# 1 0.018161 -0.003616 -0.007464 0.000000 0.000000 0.000000
# 2 -0.003616 0.016918 -0.002345 0.000000 0.000000 0.000000
# 3 -0.007464 -0.002345 0.011058 0.000000 0.000000 0.000000
# 4 0.000000 0.000000 0.000000 0.053993 0.000000 0.000000
# 5 0.000000 0.000000 0.000000 0.000000 0.032414 0.000000
# 6 0.000000 0.000000 0.000000 0.000000 0.000000 0.061056
#
#
# Mechanical properties :
#
#
# Convention : Reuss Voigt Hill
#
# Bulk Modulus (GPa) = 51.85311 61.02587 56.43949
# Shear Modulus (GPa) = 22.03805 24.63551 23.33678
#
# Velocity S-wave (km/s) = 3.24878 3.43490 3.34314
# Velocity P-wave (km/s) = 6.23751 6.70509 6.47552
#
# Compressibility (1/GPa) = 0.01928525
#
# Stress axis : x y z
#
# Youngs Moduli (GPa) = 55.06433 59.10987 90.42845
#
# Poissons Ratio (x) = 0.21375 0.67497
# Poissons Ratio (y) = 0.19912 0.21209
# Poissons Ratio (z) = 0.41101 0.13864
#
# Static dielectric constant tensor:
#      x y z
#    x 3.695400 0.000000 0.000000 
#    y 0.000000 3.638490 0.000000 
#    z 0.000000 0.000000 3.991160 
# 
# 
# High freq. dielectric constant tensor:
#      x y z
#    x 1.791630 0.000000 0.000000 
#    y 0.000000 1.825840 0.000000 
#    z 0.000000 0.000000 1.822420 
# 
# From -- ./inp_files/16545.got.cif
#   From: 2010.03.12/outbox.cif.g09.slc.cpg/sg42_9_cif.got.tgz:16545.got - 2010.04.14 02:04:31.
