data_PCOD8186206
_publ_section_title
;
Structure prediction by ZEFSAII (Michael W. Deem and Ramdas Pophale) SiO2 
 PCOD8186206
Probable space group: F M M 2
;
_chemical_formula_sum "Si O2"
_cell_formula_units_Z 112
_cell_length_a 19.303659
_cell_length_b 9.442260
_cell_length_c 35.702117
_cell_angle_alpha 90.000000
_cell_angle_beta 90.000000
_cell_angle_gamma 90.000000
_cell_volume 6507.430836
_symmetry_space_group_name_H-M "F M M 2"
_symmetry_group_IT_number 42
_symmetry_cell_setting 'orthorhombic'
loop_
_space_group_symop_operation_xyz
x,y,z
-x,-y,z
-x,y,z
x,-y,z
x,1/2+y,1/2+z
-x,1/2-y,1/2+z
-x,1/2+y,1/2+z
x,1/2-y,1/2+z
1/2+x,y,1/2+z
1/2-x,-y,1/2+z
1/2-x,y,1/2+z
1/2+x,-y,1/2+z
1/2+x,1/2+y,z
1/2-x,1/2-y,z
1/2-x,1/2+y,z
1/2+x,1/2-y,z
loop_
_atom_site_type_symbol
_atom_site_label
_atom_site_fract_x
_atom_site_fract_y
_atom_site_fract_z
Si Si1 0.822050 0.332538 0.369900
Si Si2 0.420801 0.335500 0.511071
Si Si3 0.076475 0.831916 0.721672
Si Si4 0.420638 0.664346 0.938804
Si Si5 0.577817 0.667928 0.805012
Si Si6 0.818709 0.834600 0.660133
Si Si7 0.181685 0.336082 0.075547
O O1 0.807057 0.500000 0.367387
O O2 0.750000 0.250000 0.372638
O O3 0.869486 0.294680 0.405372
O O4 0.864941 0.274879 0.334006
O O5 0.500000 0.299200 0.520220
O O6 0.409933 0.500000 0.502225
O O7 0.394965 0.250266 0.474936
O O8 0.378125 0.286813 0.547376
O O9 0.101293 0.785087 0.763221
O O10 0.125596 0.771903 0.689221
O O11 0.000000 0.770447 0.714221
O O12 0.074488 0.000000 0.719482
O O13 0.500000 0.704105 0.927860
O O14 0.415231 0.500000 0.948732
O O15 0.500000 0.726375 0.813791
O O16 0.574628 0.500000 0.808393
O O17 0.750000 0.750000 0.668848
O O18 0.844537 0.805820 0.617791
O O19 0.804496 0.000000 0.666841
O O20 0.200078 0.500000 0.070336
O O21 0.250000 0.250000 0.065694
#
# Coordination Sequence:
#
# PCOD8186206 Si02
#       7
#    16  16  16  16  16  16  16
#     4  10  20  32  47  69  95 120 148 184 224 265
#     4   9  18  32  49  69  91 115 146 186 230 269
#     4   8  14  25  44  70  93 114 148 191 226 257
#     4   9  18  33  51  68  87 116 153 187 220 263
#     4   8  14  27  47  68  90 118 152 187 221 260
#     4   9  17  29  45  66  92 121 151 183 221 265
#     4   9  18  31  46  65  91 122 152 182 220 267
#
# _framework density 17.211093999999999
#
# number of rings (size 3 to 8) (size 9 to 14) (size 15 to 20)
#    0.000    3.143    0.000    1.286    0.000    4.571 
#    0.000    5.714    0.000    1.714    0.000    6.000 
#    0.000    0.000    0.000    0.000    0.000    0.000 
#
# Total GULP energy -347089.121858 kJ/mol
# GULP energy per Si atom -12396.040066 kJ/mol
# Density = 1.717192 g / cm^3
# Si number density = 17.211094 Si / 1000 Ang^3
#
#
#
# Elastic Constant Matrix: (Units=GPa)
#
#
# Indices 1 2 3 4 5 6 
#
# 1 124.0373 40.0754 106.7982 0.0000 0.0000 0.0000
# 2 40.0754 29.7895 44.9905 0.0000 0.0000 0.0000
# 3 106.7982 44.9905 164.5251 0.0000 0.0000 0.0000
# 4 0.0000 0.0000 0.0000 17.0282 0.0000 0.0000
# 5 0.0000 0.0000 0.0000 0.0000 29.3989 0.0000
# 6 0.0000 0.0000 0.0000 0.0000 0.0000 25.6819
#
#
#
# Elastic Compliance Matrix: (Units=1/GPa)
#
#
# Indices 1 2 3 4 5 6 
#
# 1 0.020854 -0.012964 -0.009992 0.000000 0.000000 0.000000
# 2 -0.012964 0.065246 -0.009427 0.000000 0.000000 0.000000
# 3 -0.009992 -0.009427 0.015142 0.000000 0.000000 0.000000
# 4 0.000000 0.000000 0.000000 0.058726 0.000000 0.000000
# 5 0.000000 0.000000 0.000000 0.000000 0.034015 0.000000
# 6 0.000000 0.000000 0.000000 0.000000 0.000000 0.038938
#
#
# Mechanical properties :
#
#
# Convention : Reuss Voigt Hill
#
# Bulk Modulus (GPa) = 27.41462 78.00889 52.71175
# Shear Modulus (GPa) = 16.13719 22.85434 19.49576
#
# Velocity S-wave (km/s) = 3.06535 3.64797 3.36928
# Velocity P-wave (km/s) = 5.33775 7.94775 6.76972
#
# Compressibility (1/GPa) = 0.03647689
#
# Stress axis : x y z
#
# Youngs Moduli (GPa) = 47.95352 15.32663 66.04266
#
# Poissons Ratio (x) = 0.19869 0.65987
# Poissons Ratio (y) = 0.62166 0.62256
# Poissons Ratio (z) = 0.47913 0.14448
#
# Static dielectric constant tensor:
#      x y z
#    x 3.324780 0.000000 0.000000 
#    y 0.000000 2.894800 0.000000 
#    z 0.000000 0.000000 3.494840 
# 
# 
# High freq. dielectric constant tensor:
#      x y z
#    x 1.662190 0.000000 0.000000 
#    y 0.000000 1.628070 0.000000 
#    z 0.000000 0.000000 1.677110 
# 
# From -- ./inp_files/34311.got.cif
#   From: 2010.03.12/outbox.cif.g09.slc.cpg/sg42_18_cif.got.tgz:34311.got - 2010.04.14 02:04:31.
