data_PCOD8186417
_publ_section_title
;
Structure prediction by ZEFSAII (Michael W. Deem and Ramdas Pophale) SiO2 
 PCOD8186417
Probable space group: F M M 2
;
_chemical_formula_sum "Si O2"
_cell_formula_units_Z 96
_cell_length_a 23.678067
_cell_length_b 8.354505
_cell_length_c 25.237945
_cell_angle_alpha 90.000000
_cell_angle_beta 90.000000
_cell_angle_gamma 90.000000
_cell_volume 4992.533158
_symmetry_space_group_name_H-M "F M M 2"
_symmetry_group_IT_number 42
_symmetry_cell_setting 'orthorhombic'
loop_
_space_group_symop_operation_xyz
x,y,z
-x,-y,z
-x,y,z
x,-y,z
x,1/2+y,1/2+z
-x,1/2-y,1/2+z
-x,1/2+y,1/2+z
x,1/2-y,1/2+z
1/2+x,y,1/2+z
1/2-x,-y,1/2+z
1/2-x,y,1/2+z
1/2+x,-y,1/2+z
1/2+x,1/2+y,z
1/2-x,1/2-y,z
1/2-x,1/2+y,z
1/2+x,1/2-y,z
loop_
_atom_site_type_symbol
_atom_site_label
_atom_site_fract_x
_atom_site_fract_y
_atom_site_fract_z
Si Si1 0.500000 0.191605 0.700770
Si Si2 0.117472 0.812690 0.244420
Si Si3 0.687960 0.685305 0.648643
Si Si4 0.311422 0.810118 0.959615
Si Si5 0.189328 0.189262 0.339800
Si Si6 0.500000 0.188657 0.082131
Si Si7 0.381398 0.185888 0.553152
O O1 0.444988 0.255489 0.732317
O O2 0.500000 0.274051 0.644073
O O3 0.500000 0.000000 0.693127
O O4 0.160194 0.778595 0.197008
O O5 0.142118 0.740553 0.299415
O O6 0.111593 0.000000 0.250990
O O7 0.690042 0.500000 0.663302
O O8 0.750000 0.750000 0.637621
O O9 0.651696 0.708838 0.595890
O O10 0.250000 0.750000 0.977855
O O11 0.323772 0.753260 0.899443
O O12 0.315008 0.000000 0.966176
O O13 0.358245 0.724358 0.994970
O O14 0.250000 0.250000 0.320434
O O15 0.190496 0.000000 0.337251
O O16 0.553361 0.267435 0.053670
O O17 0.500000 0.000000 0.072803
O O18 0.373543 0.000000 0.567030
#
# Coordination Sequence:
#
# PCOD8186417 Si02
#       7
#     8  16  16  16  16   8  16
#     4  10  20  36  59  82 115 157 196 234 284 341
#     4  10  20  36  57  84 116 153 195 237 287 345
#     4  12  24  37  55  83 116 150 188 238 293 348
#     4  10  20  37  59  86 118 154 196 242 292 346
#     4   9  19  35  57  84 116 153 194 238 289 346
#     4  12  24  40  61  86 115 151 196 238 286 343
#     4  12  24  40  60  84 115 152 193 237 290 347
#
# _framework density 19.228715999999999
#
# number of rings (size 3 to 8) (size 9 to 14) (size 15 to 20)
#    0.000    1.333    1.667    5.250    0.000    2.667 
#    0.000    0.833    0.000    3.000    0.000    0.000 
#    0.000    0.000    0.000    0.000    0.000    0.000 
#
# Total GULP energy -297677.572593 kJ/mol
# GULP energy per Si atom -12403.232191 kJ/mol
# Density = 1.918495 g / cm^3
# Si number density = 19.228716 Si / 1000 Ang^3
#
#
#
# Elastic Constant Matrix: (Units=GPa)
#
#
# Indices 1 2 3 4 5 6 
#
# 1 155.0754 14.7097 74.2928 0.0001 -0.0001 0.0000
# 2 14.7097 36.3725 7.4723 0.0001 -0.0001 0.0002
# 3 74.2928 7.4723 119.4586 0.0000 0.0000 0.0000
# 4 0.0001 0.0001 0.0000 22.7641 0.0000 -0.0001
# 5 -0.0001 -0.0001 0.0000 0.0000 39.6278 0.0001
# 6 0.0000 0.0002 0.0000 -0.0001 0.0001 28.3311
#
#
#
# Elastic Compliance Matrix: (Units=1/GPa)
#
#
# Indices 1 2 3 4 5 6 
#
# 1 0.009429 -0.002643 -0.005699 0.000000 0.000000 0.000000
# 2 -0.002643 0.028592 -0.000145 0.000000 0.000000 0.000000
# 3 -0.005699 -0.000145 0.011924 0.000000 0.000000 0.000000
# 4 0.000000 0.000000 0.000000 0.043929 0.000000 0.000000
# 5 0.000000 0.000000 0.000000 0.000000 0.025235 0.000000
# 6 0.000000 0.000000 0.000000 0.000000 0.000000 0.035297
#
#
# Mechanical properties :
#
#
# Convention : Reuss Voigt Hill
#
# Bulk Modulus (GPa) = 30.32833 55.98400 43.15616
# Shear Modulus (GPa) = 27.41678 32.44004 29.92841
#
# Velocity S-wave (km/s) = 3.78011 4.11184 3.94946
# Velocity P-wave (km/s) = 5.90414 7.19173 6.57951
#
# Compressibility (1/GPa) = 0.03297247
#
# Stress axis : x y z
#
# Youngs Moduli (GPa) = 106.05169 34.97509 83.86157
#
# Poissons Ratio (x) = 0.09243 0.47792
# Poissons Ratio (y) = 0.28025 0.01216
# Poissons Ratio (z) = 0.60438 0.00507
#
# Static dielectric constant tensor:
#      x y z
#    x 3.829260 0.000000 0.000000 
#    y 0.000000 3.486300 0.000000 
#    z 0.000000 0.000000 3.751900 
# 
# 
# High freq. dielectric constant tensor:
#      x y z
#    x 1.752710 0.000000 0.000000 
#    y 0.000000 1.748560 0.000000 
#    z 0.000000 0.000000 1.748960 
# 
# From -- ./inp_files/28062.got.cif
#   From: 2010.03.12/outbox.cif.g09.slc.cpg/sg42_15_cif.got.tgz:28062.got - 2010.04.14 02:04:31.
