data_PCOD8186997
_publ_section_title
;
Structure prediction by ZEFSAII (Michael W. Deem and Ramdas Pophale) SiO2 
 PCOD8186997
Probable space group: F D D 2
;
_chemical_formula_sum "Si O2"
_cell_formula_units_Z 104
_cell_length_a 20.779058
_cell_length_b 9.001157
_cell_length_c 26.203378
_cell_angle_alpha 90.000000
_cell_angle_beta 90.000000
_cell_angle_gamma 90.000000
_cell_volume 4900.963566
_symmetry_space_group_name_H-M "F D D 2"
_symmetry_group_IT_number 43
_symmetry_cell_setting 'orthorhombic'
loop_
_space_group_symop_operation_xyz
x,y,z
-x,-y,z
1/4-x,1/4+y,1/4+z
1/4+x,1/4-y,1/4+z
x,1/2+y,1/2+z
-x,1/2-y,1/2+z
1/4-x,3/4+y,3/4+z
1/4+x,3/4-y,3/4+z
1/2+x,y,1/2+z
1/2-x,-y,1/2+z
3/4-x,1/4+y,3/4+z
3/4+x,1/4-y,3/4+z
1/2+x,1/2+y,z
1/2-x,1/2-y,z
3/4-x,3/4+y,1/4+z
3/4+x,3/4-y,1/4+z
loop_
_atom_site_type_symbol
_atom_site_label
_atom_site_fract_x
_atom_site_fract_y
_atom_site_fract_z
Si Si1 0.337871 0.988953 0.049150
Si Si2 0.381012 0.461845 0.970448
Si Si3 0.083764 0.753018 0.093405
Si Si4 0.250000 0.250000 0.291531
Si Si5 0.433557 0.915685 0.198720
Si Si6 0.822307 0.264525 0.616773
Si Si7 0.694653 0.942781 0.559858
O O1 0.398778 0.877097 0.052356
O O2 0.270366 0.905477 0.064170
O O3 0.350458 0.118544 0.089776
O O4 0.330897 0.046145 0.992105
O O5 0.369331 0.293824 0.951487
O O6 0.389153 0.555064 0.918184
O O7 0.442840 0.444641 0.006221
O O8 0.326341 0.556387 0.000114
O O9 0.065531 0.675724 0.146280
O O10 0.151760 0.840403 0.096953
O O11 0.025277 0.860262 0.075809
O O12 0.500000 0.000000 0.208837
O O13 0.750000 0.250000 0.636310
O O14 0.824533 0.390066 0.574409
#
# Coordination Sequence:
#
# PCOD8186997 Si02
#       7
#    16  16  16   8  16  16  16
#     4  11  21  43  66 100 128 179 234 279 328 411
#     4  11  20  41  69  93 131 177 225 266 341 415
#     4  11  26  43  66  98 142 171 228 279 352 398
#     4  10  26  46  62 100 140 188 214 288 354 416
#     4  12  24  43  70 104 130 179 228 289 345 409
#     4  10  19  36  70  92 126 180 224 266 339 406
#     4  10  22  41  65  98 137 172 221 286 330 413
#
# _framework density 21.220316
#
# number of rings (size 3 to 8) (size 9 to 14) (size 15 to 20)
#    0.000    1.231    5.385    0.923    0.000    6.154 
#    2.769    0.000    0.000    0.000    0.000    0.000 
#    0.000    0.000    0.000    0.000    0.000    0.000 
#
# Total GULP energy -322210.266363 kJ/mol
# GULP energy per Si atom -12392.702552 kJ/mol
# Density = 2.117202 g / cm^3
# Si number density = 21.220316 Si / 1000 Ang^3
#
#
#
# Elastic Constant Matrix: (Units=GPa)
#
#
# Indices 1 2 3 4 5 6 
#
# 1 56.0939 24.8700 34.9925 0.0000 0.0000 0.0000
# 2 24.8700 62.0390 25.6278 0.0000 0.0000 0.0001
# 3 34.9925 25.6278 124.6830 0.0000 0.0000 0.0000
# 4 0.0000 0.0000 0.0000 12.3643 0.0000 0.0000
# 5 0.0000 0.0000 0.0000 0.0000 16.1968 0.0000
# 6 0.0000 0.0001 0.0000 0.0000 0.0000 49.3547
#
#
#
# Elastic Compliance Matrix: (Units=1/GPa)
#
#
# Indices 1 2 3 4 5 6 
#
# 1 0.024529 -0.007638 -0.005314 0.000000 0.000000 0.000000
# 2 -0.007638 0.019993 -0.001966 0.000000 0.000000 0.000000
# 3 -0.005314 -0.001966 0.009916 0.000000 0.000000 0.000000
# 4 0.000000 0.000000 0.000000 0.080878 0.000000 0.000000
# 5 0.000000 0.000000 0.000000 0.000000 0.061741 0.000000
# 6 0.000000 0.000000 0.000000 0.000000 0.000000 0.020261
#
#
# Mechanical properties :
#
#
# Convention : Reuss Voigt Hill
#
# Bulk Modulus (GPa) = 40.64742 45.97738 43.31240
# Shear Modulus (GPa) = 19.58074 26.07155 22.82614
#
# Velocity S-wave (km/s) = 3.04095 3.50896 3.28331
# Velocity P-wave (km/s) = 5.61484 6.17501 5.90157
#
# Compressibility (1/GPa) = 0.02460181
#
# Stress axis : x y z
#
# Youngs Moduli (GPa) = 40.76880 50.01812 100.84898
#
# Poissons Ratio (x) = 0.38202 0.53592
# Poissons Ratio (y) = 0.31138 0.19825
# Poissons Ratio (z) = 0.21665 0.09833
#
# Static dielectric constant tensor:
#      x y z
#    x 4.352110 0.000000 0.000000 
#    y 0.000000 4.255250 0.000000 
#    z 0.000000 0.000000 3.789380 
# 
# 
# High freq. dielectric constant tensor:
#      x y z
#    x 1.827420 0.000000 0.000000 
#    y 0.000000 1.834170 0.000000 
#    z 0.000000 0.000000 1.835070 
# 
# From -- ./inp_files/24320.got.cif
#   From: 2010.06.25/outbox.cif.g09.slc.cpg/sg43_13_cif.got.tgz:24320.got - 2010.06.26 16:48:59.
