data_PCOD8186040
_publ_section_title
;
Structure prediction by ZEFSAII (Michael W. Deem and Ramdas Pophale) SiO2 
 PCOD8186040
Probable space group: F M M 2
;
_chemical_formula_sum "Si O2"
_cell_formula_units_Z 80
_cell_length_a 18.403016
_cell_length_b 8.893623
_cell_length_c 25.733045
_cell_angle_alpha 90.000000
_cell_angle_beta 90.000000
_cell_angle_gamma 90.000000
_cell_volume 4211.714258
_symmetry_space_group_name_H-M "F M M 2"
_symmetry_group_IT_number 42
_symmetry_cell_setting 'orthorhombic'
loop_
_space_group_symop_operation_xyz
x,y,z
-x,-y,z
-x,y,z
x,-y,z
x,1/2+y,1/2+z
-x,1/2-y,1/2+z
-x,1/2+y,1/2+z
x,1/2-y,1/2+z
1/2+x,y,1/2+z
1/2-x,-y,1/2+z
1/2-x,y,1/2+z
1/2+x,-y,1/2+z
1/2+x,1/2+y,z
1/2-x,1/2-y,z
1/2-x,1/2+y,z
1/2+x,1/2-y,z
loop_
_atom_site_type_symbol
_atom_site_label
_atom_site_fract_x
_atom_site_fract_y
_atom_site_fract_z
Si Si1 0.327907 0.678599 0.491170
Si Si2 0.328377 0.177482 0.793685
Si Si3 0.914990 0.826339 0.703849
Si Si4 0.919650 0.178082 0.587169
Si Si5 0.581492 0.821409 0.892206
O O1 0.320172 0.500000 0.491466
O O2 0.250000 0.750000 0.483567
O O3 0.363001 0.740246 0.544754
O O4 0.378456 0.734495 0.444077
O O5 0.250000 0.250000 0.796532
O O6 0.368291 0.221037 0.740749
O O7 0.375421 0.239050 0.842035
O O8 0.319363 0.000000 0.795962
O O9 0.894110 0.778061 0.645100
O O10 0.000000 0.798753 0.713874
O O11 0.894961 0.000000 0.713903
O O12 0.000000 0.245247 0.576034
O O13 0.924961 0.000000 0.582606
O O14 0.500000 0.754304 0.891370
O O15 0.578116 0.000000 0.891123
#
# Coordination Sequence:
#
# PCOD8186040 Si02
#       5
#    16  16  16  16  16
#     4  10  19  32  52  76 103 132 163 203 250 299
#     4  11  22  35  52  75 105 137 171 211 255 305
#     4   9  18  34  55  78 104 134 171 213 255 302
#     4   8  15  30  53  77  99 129 170 209 244 290
#     4   9  18  33  54  77  98 126 168 212 251 298
#
# _framework density 18.994641000000001
#
# number of rings (size 3 to 8) (size 9 to 14) (size 15 to 20)
#    0.000    2.600    0.000    3.600    0.000    4.400 
#    0.000    4.000    0.000    6.000    0.000    0.000 
#    0.000    0.000    0.000    0.000    0.000    0.000 
#
# Total GULP energy -247988.415895 kJ/mol
# GULP energy per Si atom -12399.420795 kJ/mol
# Density = 1.895141 g / cm^3
# Si number density = 18.994641 Si / 1000 Ang^3
#
#
#
# Elastic Constant Matrix: (Units=GPa)
#
#
# Indices 1 2 3 4 5 6 
#
# 1 152.0068 34.3952 98.3455 0.0000 0.0000 0.0000
# 2 34.3952 34.9689 31.9393 0.0000 0.0000 0.0000
# 3 98.3455 31.9393 167.4669 0.0000 0.0000 0.0000
# 4 0.0000 0.0000 0.0000 20.8841 0.0000 0.0000
# 5 0.0000 0.0000 0.0000 0.0000 25.2535 0.0000
# 6 0.0000 0.0000 0.0000 0.0000 0.0000 21.1248
#
#
#
# Elastic Compliance Matrix: (Units=1/GPa)
#
#
# Indices 1 2 3 4 5 6 
#
# 1 0.011657 -0.006313 -0.005642 0.000000 0.000000 0.000000
# 2 -0.006313 0.038048 -0.003549 0.000000 0.000000 0.000000
# 3 -0.005642 -0.003549 0.009961 0.000000 0.000000 0.000000
# 4 0.000000 0.000000 0.000000 0.047883 0.000000 0.000000
# 5 0.000000 0.000000 0.000000 0.000000 0.039599 0.000000
# 6 0.000000 0.000000 0.000000 0.000000 0.000000 0.047338
#
#
# Mechanical properties :
#
#
# Convention : Reuss Voigt Hill
#
# Bulk Modulus (GPa) = 34.89337 75.97805 55.43571
# Shear Modulus (GPa) = 21.27235 26.10331 23.68783
#
# Velocity S-wave (km/s) = 3.35014 3.71110 3.53523
# Velocity P-wave (km/s) = 5.77707 7.64524 6.77585
#
# Compressibility (1/GPa) = 0.02865874
#
# Stress axis : x y z
#
# Youngs Moduli (GPa) = 85.78383 26.28258 100.38810
#
# Poissons Ratio (x) = 0.16592 0.56636
# Poissons Ratio (y) = 0.54156 0.35629
# Poissons Ratio (z) = 0.48397 0.09328
#
# Static dielectric constant tensor:
#      x y z
#    x 3.633740 0.000000 0.000000 
#    y 0.000000 3.013240 0.000000 
#    z 0.000000 0.000000 3.793760 
# 
# 
# High freq. dielectric constant tensor:
#      x y z
#    x 1.746380 0.000000 0.000000 
#    y 0.000000 1.692320 0.000000 
#    z 0.000000 0.000000 1.756630 
# 
# From -- ./inp_files/28629.got.cif
#   From: 2010.03.12/outbox.cif.g09.slc.cpg/sg42_15_cif.got.tgz:28629.got - 2010.04.14 02:04:31.
