data_PCOD8186121
_publ_section_title
;
Structure prediction by ZEFSAII (Michael W. Deem and Ramdas Pophale) SiO2 
 PCOD8186121
Probable space group: F M M 2
;
_chemical_formula_sum "Si O2"
_cell_formula_units_Z 104
_cell_length_a 27.438693
_cell_length_b 7.568926
_cell_length_c 29.152320
_cell_angle_alpha 90.000000
_cell_angle_beta 90.000000
_cell_angle_gamma 90.000000
_cell_volume 6054.395705
_symmetry_space_group_name_H-M "F M M 2"
_symmetry_group_IT_number 42
_symmetry_cell_setting 'orthorhombic'
loop_
_space_group_symop_operation_xyz
x,y,z
-x,-y,z
-x,y,z
x,-y,z
x,1/2+y,1/2+z
-x,1/2-y,1/2+z
-x,1/2+y,1/2+z
x,1/2-y,1/2+z
1/2+x,y,1/2+z
1/2-x,-y,1/2+z
1/2-x,y,1/2+z
1/2+x,-y,1/2+z
1/2+x,1/2+y,z
1/2-x,1/2-y,z
1/2-x,1/2+y,z
1/2+x,1/2-y,z
loop_
_atom_site_type_symbol
_atom_site_label
_atom_site_fract_x
_atom_site_fract_y
_atom_site_fract_z
Si Si1 0.196866 0.707929 0.878770
Si Si2 0.902460 0.201102 0.515501
Si Si3 0.698663 0.204847 0.982103
Si Si4 0.054648 0.291894 0.608381
Si Si5 0.121595 0.000000 0.864242
Si Si6 0.557989 0.000000 0.275943
Si Si7 0.444344 0.500000 0.954709
Si Si8 0.058065 0.195623 0.209484
O O1 0.184219 0.500000 0.874046
O O2 0.250000 0.750000 0.856526
O O3 0.198509 0.782708 0.930783
O O4 0.154291 0.824590 0.855869
O O5 0.847413 0.277992 0.510202
O O6 0.913060 0.201237 0.569487
O O7 0.937936 0.325382 0.485999
O O8 0.907654 0.000000 0.497027
O O9 0.750000 0.250000 0.006957
O O10 0.692631 0.000000 0.977462
O O11 0.054720 0.500000 0.600801
O O12 0.076340 0.245406 0.658730
O O13 0.000000 0.216942 0.603608
O O14 0.080069 0.000000 0.826077
O O15 0.093785 0.000000 0.912917
O O16 0.576903 0.829205 0.248056
O O17 0.500000 0.000000 0.280649
O O18 0.500000 0.500000 0.936460
O O19 0.000000 0.192192 0.207290
O O20 0.077867 0.000000 0.221712
#
# Coordination Sequence:
#
# PCOD8186121 Si02
#       8
#    16  16  16  16   8   8   8  16
#     4  10  19  34  56  81 106 134 173 227 277 311
#     4  11  22  34  49  77 109 144 184 220 261 316
#     4   9  19  31  50  74 101 135 175 222 268 305
#     4   9  17  30  50  76 104 138 177 219 269 316
#     4  12  23  36  56  80 109 146 182 223 260 319
#     4  10  21  36  54  78 106 143 185 218 262 320
#     4  12  25  38  50  70 113 161 186 209 250 311
#     4   8  16  32  52  74 102 133 174 230 275 307
#
# _framework density 17.177602
#
# number of rings (size 3 to 8) (size 9 to 14) (size 15 to 20)
#    0.000    2.154    3.077    1.615    3.231    1.846 
#    0.000    0.000    0.000    2.769    0.000    1.077 
#    0.000    0.000    0.000    0.000    0.000    0.000 
#
# Total GULP energy -322252.160278 kJ/mol
# GULP energy per Si atom -12394.313857 kJ/mol
# Density = 1.713851 g / cm^3
# Si number density = 17.177602 Si / 1000 Ang^3
#
#
#
# Elastic Constant Matrix: (Units=GPa)
#
#
# Indices 1 2 3 4 5 6 
#
# 1 80.5065 29.1098 24.6199 0.0001 0.0025 -0.0009
# 2 29.1098 95.9149 35.4790 0.0004 0.0041 0.0001
# 3 24.6199 35.4790 81.2780 -0.0001 0.0004 0.0001
# 4 0.0001 0.0004 -0.0001 20.1558 -0.0009 0.0001
# 5 0.0025 0.0041 0.0004 -0.0009 -15.2911 -0.0029
# 6 -0.0009 0.0001 0.0001 0.0001 -0.0029 22.3261
#
#
#
# Elastic Compliance Matrix: (Units=1/GPa)
#
#
# Indices 1 2 3 4 5 6 
#
# 1 0.014523 -0.003316 -0.002952 0.000000 0.000001 0.000001
# 2 -0.003316 0.013191 -0.004753 0.000000 0.000003 0.000000
# 3 -0.002952 -0.004753 0.015273 0.000000 -0.000001 0.000000
# 4 0.000000 0.000000 0.000000 0.049613 -0.000003 0.000000
# 5 0.000001 0.000003 -0.000001 -0.000003 -0.065397 -0.000009
# 6 0.000001 0.000000 0.000000 0.000000 -0.000009 0.044791
#
#
# Mechanical properties :
#
#
# Convention : Reuss Voigt Hill
#
# Bulk Modulus (GPa) = 47.74637 48.45740 48.10188
# Shear Modulus (GPa) = 49.49703 16.67087 33.08395
#
# Velocity S-wave (km/s) = 5.37377 3.11867 4.39338
# Velocity P-wave (km/s) = 8.14612 6.42176 7.33479
#
# Compressibility (1/GPa) = 0.02094400
#
# Stress axis : x y z
#
# Youngs Moduli (GPa) = 68.85635 75.81180 65.47708
#
# Poissons Ratio (x) = 0.25138 0.19327
# Poissons Ratio (y) = 0.22832 0.31124
# Poissons Ratio (z) = 0.20325 0.36037
#
# Static dielectric constant tensor:
#      x y z
#    x 5.409680 0.000000 -0.000010 
#    y 0.000000 3.334510 0.000000 
#    z -0.000010 0.000000 3.072770 
# 
# 
# High freq. dielectric constant tensor:
#      x y z
#    x 1.641070 0.000000 0.000000 
#    y 0.000000 1.676540 0.000000 
#    z 0.000000 0.000000 1.632290 
# 
# From -- ./inp_files/34784.got.cif
#   From: 2010.03.12/outbox.cif.g09.slc.cpg/sg42_18_cif.got.tgz:34784.got - 2010.04.14 02:04:31.
