data_PCOD8186678
_publ_section_title
;
Structure prediction by ZEFSAII (Michael W. Deem and Ramdas Pophale) SiO2 
 PCOD8186678
Probable space group: F M M 2
;
_chemical_formula_sum "Si O2"
_cell_formula_units_Z 96
_cell_length_a 19.062649
_cell_length_b 21.384909
_cell_length_c 12.241285
_cell_angle_alpha 90.000000
_cell_angle_beta 90.000000
_cell_angle_gamma 90.000000
_cell_volume 4990.196727
_symmetry_space_group_name_H-M "F M M 2"
_symmetry_group_IT_number 42
_symmetry_cell_setting 'orthorhombic'
loop_
_space_group_symop_operation_xyz
x,y,z
-x,-y,z
-x,y,z
x,-y,z
x,1/2+y,1/2+z
-x,1/2-y,1/2+z
-x,1/2+y,1/2+z
x,1/2-y,1/2+z
1/2+x,y,1/2+z
1/2-x,-y,1/2+z
1/2-x,y,1/2+z
1/2+x,-y,1/2+z
1/2+x,1/2+y,z
1/2-x,1/2-y,z
1/2-x,1/2+y,z
1/2+x,1/2-y,z
loop_
_atom_site_type_symbol
_atom_site_label
_atom_site_fract_x
_atom_site_fract_y
_atom_site_fract_z
Si Si1 0.861595 0.073095 0.808100
Si Si2 0.649307 0.642147 0.596458
Si Si3 0.750000 0.250000 0.829863
Si Si4 0.794779 0.851915 0.983012
Si Si5 0.500000 0.648762 0.788385
Si Si6 0.635763 0.715320 0.173746
Si Si7 0.500000 0.855520 0.041396
Si Si8 0.000000 0.715488 0.813967
O O1 0.824894 0.103170 0.701691
O O2 0.935546 0.106372 0.821119
O O3 0.870960 0.000000 0.790941
O O4 0.817945 0.085805 0.918693
O O5 0.713375 0.639235 0.513138
O O6 0.632255 0.714443 0.625548
O O7 0.577339 0.610321 0.544644
O O8 0.701100 0.207402 0.754577
O O9 0.800658 0.206840 0.901760
O O10 0.848667 0.836399 0.080707
O O11 0.500000 0.675113 0.663246
O O12 0.500000 0.712864 0.855308
O O13 0.566620 0.696638 0.240587
O O14 0.500000 0.815748 0.932315
#
# Coordination Sequence:
#
# PCOD8186678 Si02
#       8
#    16  16   8  16   8  16   8   8
#     4  11  24  40  60  86 117 162 205 245 291 358
#     4  11  20  39  56  87 119 157 199 249 295 361
#     4  12  18  36  56  82 118 152 192 234 300 366
#     4  12  22  35  61  85 123 159 194 243 313 358
#     4  10  21  40  57  83 119 154 206 250 294 355
#     4  12  21  34  53  90 119 151 191 242 304 359
#     4  10  22  35  57  86 123 155 196 244 308 356
#     4  12  22  33  58  89 126 149 189 252 310 363
#
# _framework density 19.237718999999998
#
# number of rings (size 3 to 8) (size 9 to 14) (size 15 to 20)
#    0.000    0.667    8.333    1.250    2.333    1.333 
#    0.000    0.000    0.000    0.000    0.000    5.833 
#    0.000    0.000    0.000    0.000    0.000    0.000 
#
# Total GULP energy -297337.156768 kJ/mol
# GULP energy per Si atom -12389.048199 kJ/mol
# Density = 1.919393 g / cm^3
# Si number density = 19.237719 Si / 1000 Ang^3
#
#
#
# Elastic Constant Matrix: (Units=GPa)
#
#
# Indices 1 2 3 4 5 6 
#
# 1 120.6257 28.7762 62.6662 0.0000 0.0000 0.0000
# 2 28.7762 63.7869 41.6791 0.0000 0.0000 0.0000
# 3 62.6662 41.6791 116.0165 0.0000 0.0000 0.0000
# 4 0.0000 0.0000 0.0000 19.4933 0.0000 0.0000
# 5 0.0000 0.0000 0.0000 0.0000 27.1317 0.0000
# 6 0.0000 0.0000 0.0000 0.0000 0.0000 -47.8461
#
#
#
# Elastic Compliance Matrix: (Units=1/GPa)
#
#
# Indices 1 2 3 4 5 6 
#
# 1 0.011632 -0.001492 -0.005747 0.000000 0.000000 0.000000
# 2 -0.001492 0.020678 -0.006622 0.000000 0.000000 0.000000
# 3 -0.005747 -0.006622 0.014103 0.000000 0.000000 0.000000
# 4 0.000000 0.000000 0.000000 0.051300 0.000000 0.000000
# 5 0.000000 0.000000 0.000000 0.000000 0.036857 0.000000
# 6 0.000000 0.000000 0.000000 0.000000 0.000000 -0.020900
#
#
# Mechanical properties :
#
#
# Convention : Reuss Voigt Hill
#
# Bulk Modulus (GPa) = 53.50749 62.96358 58.23554
# Shear Modulus (GPa) = 33.87054 10.90960 22.39007
#
# Velocity S-wave (km/s) = 4.20054 2.38396 3.41525
# Velocity P-wave (km/s) = 7.16940 6.35437 6.77415
#
# Compressibility (1/GPa) = 0.01868897
#
# Stress axis : x y z
#
# Youngs Moduli (GPa) = 85.97297 48.36150 70.90904
#
# Poissons Ratio (x) = 0.07218 0.40749
# Poissons Ratio (y) = 0.12831 0.46958
# Poissons Ratio (z) = 0.49405 0.32027
#
# Static dielectric constant tensor:
#      x y z
#    x 3.853560 0.000000 0.000000 
#    y 0.000000 3.050620 0.000000 
#    z 0.000000 0.000000 3.698110 
# 
# 
# High freq. dielectric constant tensor:
#      x y z
#    x 1.771020 0.000000 0.000000 
#    y 0.000000 1.685990 0.000000 
#    z 0.000000 0.000000 1.759920 
# 
# From -- ./inp_files/9583.got.cif
#   From: 2010.03.12/outbox.cif.g09.slc.cpg/sg42_5_cif.got.tgz:9583.got - 2010.04.14 02:04:31.
