data_PCOD8186319
_publ_section_title
;
Structure prediction by ZEFSAII (Michael W. Deem and Ramdas Pophale) SiO2 
 PCOD8186319
Probable space group: F M M 2
;
_chemical_formula_sum "Si O2"
_cell_formula_units_Z 80
_cell_length_a 28.434717
_cell_length_b 9.180525
_cell_length_c 15.555873
_cell_angle_alpha 90.000000
_cell_angle_beta 90.000000
_cell_angle_gamma 90.000000
_cell_volume 4060.792672
_symmetry_space_group_name_H-M "F M M 2"
_symmetry_group_IT_number 42
_symmetry_cell_setting 'orthorhombic'
loop_
_space_group_symop_operation_xyz
x,y,z
-x,-y,z
-x,y,z
x,-y,z
x,1/2+y,1/2+z
-x,1/2-y,1/2+z
-x,1/2+y,1/2+z
x,1/2-y,1/2+z
1/2+x,y,1/2+z
1/2-x,-y,1/2+z
1/2-x,y,1/2+z
1/2+x,-y,1/2+z
1/2+x,1/2+y,z
1/2-x,1/2-y,z
1/2-x,1/2+y,z
1/2+x,1/2-y,z
loop_
_atom_site_type_symbol
_atom_site_label
_atom_site_fract_x
_atom_site_fract_y
_atom_site_fract_z
Si Si1 0.553546 0.668807 0.835810
Si Si2 0.200877 0.829087 0.244260
Si Si3 0.146298 0.667996 0.573378
Si Si4 0.861557 0.171676 0.406812
Si Si5 0.052455 0.664747 0.662379
O O1 0.500000 0.694278 0.865821
O O2 0.567459 0.500000 0.839376
O O3 0.586875 0.757870 0.899605
O O4 0.560781 0.723551 0.739048
O O5 0.250000 0.750000 0.251547
O O6 0.174842 0.780563 0.157193
O O7 0.169178 0.781587 0.324900
O O8 0.209941 0.000000 0.245489
O O9 0.156836 0.500000 0.552339
O O10 0.162789 0.765102 0.492844
O O11 0.090602 0.694504 0.588624
O O12 0.866468 0.000000 0.415198
O O13 0.059700 0.500000 0.698632
O O14 0.000000 0.683064 0.623129
#
# Coordination Sequence:
#
# PCOD8186319 Si02
#       5
#    16  16  16  16  16
#     4  10  20  34  56  87 121 158 200 242 288 346
#     4  10  23  43  64  86 117 153 195 245 302 357
#     4  10  21  39  60  88 122 155 195 241 291 353
#     4  11  23  40  61  89 121 156 199 245 293 351
#     4   9  17  33  58  84 117 159 195 234 289 349
#
# _framework density 19.700586999999999
#
# number of rings (size 3 to 8) (size 9 to 14) (size 15 to 20)
#    0.000    2.000    2.000    1.200    0.000    6.000 
#    0.000    6.000    0.000    0.000    0.000    0.000 
#    0.000    0.000    0.000    0.000    0.000    0.000 
#
# Total GULP energy -248042.371055 kJ/mol
# GULP energy per Si atom -12402.118553 kJ/mol
# Density = 1.965575 g / cm^3
# Si number density = 19.700587 Si / 1000 Ang^3
#
#
#
# Elastic Constant Matrix: (Units=GPa)
#
#
# Indices 1 2 3 4 5 6 
#
# 1 109.3327 56.4722 57.7510 0.0000 0.0000 0.0000
# 2 56.4722 86.3547 65.2818 0.0000 0.0000 0.0000
# 3 57.7510 65.2818 144.0664 0.0000 0.0000 0.0000
# 4 0.0000 0.0000 0.0000 36.1219 0.0000 0.0000
# 5 0.0000 0.0000 0.0000 0.0000 11.4828 0.0000
# 6 0.0000 0.0000 0.0000 0.0000 0.0000 33.4110
#
#
#
# Elastic Compliance Matrix: (Units=1/GPa)
#
#
# Indices 1 2 3 4 5 6 
#
# 1 0.014284 -0.007624 -0.002271 0.000000 0.000000 0.000000
# 2 -0.007624 0.021683 -0.006769 0.000000 0.000000 0.000000
# 3 -0.002271 -0.006769 0.010919 0.000000 0.000000 0.000000
# 4 0.000000 0.000000 0.000000 0.027684 0.000000 0.000000
# 5 0.000000 0.000000 0.000000 0.000000 0.087087 0.000000
# 6 0.000000 0.000000 0.000000 0.000000 0.000000 0.029930
#
#
# Mechanical properties :
#
#
# Convention : Reuss Voigt Hill
#
# Bulk Modulus (GPa) = 73.76116 77.64042 75.70079
# Shear Modulus (GPa) = 21.79250 26.88636 24.33943
#
# Velocity S-wave (km/s) = 3.32954 3.69826 3.51873
# Velocity P-wave (km/s) = 7.23212 7.59815 7.41739
#
# Compressibility (1/GPa) = 0.01355727
#
# Stress axis : x y z
#
# Youngs Moduli (GPa) = 70.00792 46.11806 91.58267
#
# Poissons Ratio (x) = 0.35161 0.20800
# Poissons Ratio (y) = 0.53376 0.61995
# Poissons Ratio (z) = 0.15900 0.31219
#
# Static dielectric constant tensor:
#      x y z
#    x 3.641250 0.000000 0.000000 
#    y 0.000000 3.545230 0.000000 
#    z 0.000000 0.000000 3.495460 
# 
# 
# High freq. dielectric constant tensor:
#      x y z
#    x 1.767760 0.000000 0.000000 
#    y 0.000000 1.765150 0.000000 
#    z 0.000000 0.000000 1.762430 
# 
# From -- ./inp_files/18185.got.cif
#   From: 2010.03.12/outbox.cif.g09.slc.cpg/sg42_10_cif.got.tgz:18185.got - 2010.04.14 02:04:31.
