data_PCOD8186974
_publ_section_title
;
Structure prediction by ZEFSAII (Michael W. Deem and Ramdas Pophale) SiO2 
 PCOD8186974
Probable space group: F D D 2
;
_chemical_formula_sum "Si O2"
_cell_formula_units_Z 112
_cell_length_a 18.356581
_cell_length_b 10.783348
_cell_length_c 27.085560
_cell_angle_alpha 90.000000
_cell_angle_beta 90.000000
_cell_angle_gamma 90.000000
_cell_volume 5361.462036
_symmetry_space_group_name_H-M "F D D 2"
_symmetry_group_IT_number 43
_symmetry_cell_setting 'orthorhombic'
loop_
_space_group_symop_operation_xyz
x,y,z
-x,-y,z
1/4-x,1/4+y,1/4+z
1/4+x,1/4-y,1/4+z
x,1/2+y,1/2+z
-x,1/2-y,1/2+z
1/4-x,3/4+y,3/4+z
1/4+x,3/4-y,3/4+z
1/2+x,y,1/2+z
1/2-x,-y,1/2+z
3/4-x,1/4+y,3/4+z
3/4+x,1/4-y,3/4+z
1/2+x,1/2+y,z
1/2-x,1/2-y,z
3/4-x,3/4+y,1/4+z
3/4+x,3/4-y,1/4+z
loop_
_atom_site_type_symbol
_atom_site_label
_atom_site_fract_x
_atom_site_fract_y
_atom_site_fract_z
Si Si1 0.819218 0.665983 0.676990
Si Si2 0.028022 0.373730 0.273921
Si Si3 0.202890 0.870782 0.066587
Si Si4 0.417923 0.497973 0.585701
Si Si5 0.084079 0.116998 0.689821
Si Si6 0.663332 0.516273 0.778996
Si Si7 0.579685 0.730630 0.523868
O O1 0.750000 0.750000 0.692077
O O2 0.807594 0.602567 0.624255
O O3 0.893210 0.746767 0.671249
O O4 0.832505 0.557462 0.716566
O O5 0.005132 0.244277 0.298251
O O6 0.115871 0.389142 0.278059
O O7 0.000000 0.500000 0.301037
O O8 0.994079 0.377876 0.218089
O O9 0.250000 0.750000 0.056091
O O10 0.128089 0.852122 0.035600
O O11 0.500000 0.500000 0.565331
O O12 0.416437 0.479593 0.644478
O O13 0.383677 0.630392 0.569053
O O14 0.384172 0.379553 0.557218
O O15 0.150076 0.077179 0.725567
O O16 0.747149 0.483907 0.788924
#
# Coordination Sequence:
#
# PCOD8186974 Si02
#       7
#    16  16  16  16  16  16  16
#     4  11  20  36  64  97 128 166 227 269 328 398
#     4  10  24  43  65  91 134 171 215 268 330 392
#     4  11  25  41  66  95 130 176 218 277 337 393
#     4  10  19  33  61  97 123 169 222 265 317 390
#     4  11  19  38  63  98 127 171 225 268 323 400
#     4  10  21  37  63  93 130 167 214 274 326 391
#     4  11  20  38  61  91 128 163 216 274 327 387
#
# _framework density 20.889824999999998
#
# number of rings (size 3 to 8) (size 9 to 14) (size 15 to 20)
#    0.000    1.429    4.286    2.571    2.000    0.571 
#    0.000    5.714    3.143    0.000    0.000    0.000 
#    0.000    0.000    0.000    0.000    0.000    0.000 
#
# Total GULP energy -346919.985406 kJ/mol
# GULP energy per Si atom -12389.999479 kJ/mol
# Density = 2.084228 g / cm^3
# Si number density = 20.889825 Si / 1000 Ang^3
#
#
#
# Elastic Constant Matrix: (Units=GPa)
#
#
# Indices 1 2 3 4 5 6 
#
# 1 82.7535 34.1914 22.6696 0.0000 0.0000 0.0000
# 2 34.1914 110.4529 53.0881 0.0000 0.0000 0.0000
# 3 22.6696 53.0881 134.2696 0.0000 0.0000 0.0000
# 4 0.0000 0.0000 0.0000 26.6530 0.0000 0.0000
# 5 0.0000 0.0000 0.0000 0.0000 30.2900 0.0000
# 6 0.0000 0.0000 0.0000 0.0000 0.0000 33.2602
#
#
#
# Elastic Compliance Matrix: (Units=1/GPa)
#
#
# Indices 1 2 3 4 5 6 
#
# 1 0.013925 -0.003927 -0.000798 0.000000 0.000000 0.000000
# 2 -0.003927 0.012285 -0.004194 0.000000 0.000000 0.000000
# 3 -0.000798 -0.004194 0.009241 0.000000 0.000000 0.000000
# 4 0.000000 0.000000 0.000000 0.037519 0.000000 0.000000
# 5 0.000000 0.000000 0.000000 0.000000 0.033014 0.000000
# 6 0.000000 0.000000 0.000000 0.000000 0.000000 0.030066
#
#
# Mechanical properties :
#
#
# Convention : Reuss Voigt Hill
#
# Bulk Modulus (GPa) = 56.77966 60.81936 58.79951
# Shear Modulus (GPa) = 31.29677 32.54243 31.91960
#
# Velocity S-wave (km/s) = 3.87484 3.95120 3.91320
# Velocity P-wave (km/s) = 6.87449 7.07061 6.97324
#
# Compressibility (1/GPa) = 0.01761194
#
# Stress axis : x y z
#
# Youngs Moduli (GPa) = 71.81182 81.39867 108.21445
#
# Poissons Ratio (x) = 0.31964 0.08641
# Poissons Ratio (y) = 0.28200 0.45389
# Poissons Ratio (z) = 0.05734 0.34142
#
# Static dielectric constant tensor:
#      x y z
#    x 3.956560 0.000000 0.000000 
#    y 0.000000 3.718620 0.000000 
#    z 0.000000 0.000000 3.595580 
# 
# 
# High freq. dielectric constant tensor:
#      x y z
#    x 1.824180 0.000000 0.000000 
#    y 0.000000 1.793760 0.000000 
#    z 0.000000 0.000000 1.806390 
# 
# From -- ./inp_files/22403.got.cif
#   From: 2010.06.25/outbox.cif.g09.slc.cpg/sg43_12_cif.got.tgz:22403.got - 2010.06.26 16:48:59.
