data_PCOD8186172
_publ_section_title
;
Structure prediction by ZEFSAII (Michael W. Deem and Ramdas Pophale) SiO2 
 PCOD8186172
Probable space group: F M M 2
;
_chemical_formula_sum "Si O2"
_cell_formula_units_Z 48
_cell_length_a 13.878621
_cell_length_b 5.225908
_cell_length_c 29.998439
_cell_angle_alpha 90.000000
_cell_angle_beta 90.000000
_cell_angle_gamma 90.000000
_cell_volume 2175.738679
_symmetry_space_group_name_H-M "F M M 2"
_symmetry_group_IT_number 42
_symmetry_cell_setting 'orthorhombic'
loop_
_space_group_symop_operation_xyz
x,y,z
-x,-y,z
-x,y,z
x,-y,z
x,1/2+y,1/2+z
-x,1/2-y,1/2+z
-x,1/2+y,1/2+z
x,1/2-y,1/2+z
1/2+x,y,1/2+z
1/2-x,-y,1/2+z
1/2-x,y,1/2+z
1/2+x,-y,1/2+z
1/2+x,1/2+y,z
1/2-x,1/2-y,z
1/2-x,1/2+y,z
1/2+x,1/2-y,z
loop_
_atom_site_type_symbol
_atom_site_label
_atom_site_fract_x
_atom_site_fract_y
_atom_site_fract_z
Si Si1 0.384510 0.500000 0.410040
Si Si2 0.885526 0.500000 0.256744
Si Si3 0.606717 0.000000 0.454210
Si Si4 0.810149 0.500000 0.157876
Si Si5 0.000000 0.500000 0.539770
Si Si6 0.000000 0.500000 0.099515
Si Si7 0.885938 0.000000 0.309378
O O1 0.500000 0.500000 0.412907
O O2 0.340670 0.745812 0.435986
O O3 0.345493 0.500000 0.359530
O O4 0.833221 0.500000 0.209815
O O5 0.849592 0.251743 0.283702
O O6 0.000000 0.500000 0.249621
O O7 0.595875 0.000000 0.508245
O O8 0.500000 0.000000 0.432172
O O9 0.750000 0.750000 0.144675
O O10 0.907703 0.500000 0.130521
O O11 0.000000 0.249160 0.569263
O O12 0.000000 0.000000 0.311138
#
# Coordination Sequence:
#
# PCOD8186172 Si02
#       7
#     8   8   8   8   4   4   8
#     4   9  13  23  38  70 114 158 183 241 291 336
#     4  10  19  36  53  82 119 160 202 245 299 360
#     4   8  15  24  42  70 114 154 185 234 302 355
#     4  12  26  44  67  93 124 167 213 261 327 386
#     4  10  20  34  58  85 120 171 194 256 336 366
#     4  12  24  44  66  91 128 161 204 276 322 382
#     4   9  17  25  48  76 115 164 194 240 300 338
#
# _framework density 22.061474
#
# number of rings (size 3 to 8) (size 9 to 14) (size 15 to 20)
#    0.500    1.667    0.833    4.000    0.000    4.000 
#    0.000    0.000    0.000    0.000    0.000    0.000 
#    0.000   93.333    0.000    0.000    0.000    0.000 
#
# Total GULP energy -148768.247743 kJ/mol
# GULP energy per Si atom -12397.353979 kJ/mol
# Density = 2.201126 g / cm^3
# Si number density = 22.061474 Si / 1000 Ang^3
#
#
#
# Elastic Constant Matrix: (Units=GPa)
#
#
# Indices 1 2 3 4 5 6 
#
# 1 76.2846 34.8549 45.9725 0.0000 0.0000 0.0000
# 2 34.8549 257.1476 102.7205 0.0000 0.0000 0.0000
# 3 45.9725 102.7205 174.7263 0.0000 0.0000 0.0000
# 4 0.0000 0.0000 0.0000 137.4778 0.0000 0.0000
# 5 0.0000 0.0000 0.0000 0.0000 -38.4131 0.0000
# 6 0.0000 0.0000 0.0000 0.0000 0.0000 -18.3795
#
#
#
# Elastic Compliance Matrix: (Units=1/GPa)
#
#
# Indices 1 2 3 4 5 6 
#
# 1 0.015655 -0.000623 -0.003753 0.000000 0.000000 0.000000
# 2 -0.000623 0.005107 -0.002839 0.000000 0.000000 0.000000
# 3 -0.003753 -0.002839 0.008379 0.000000 0.000000 0.000000
# 4 0.000000 0.000000 0.000000 0.007274 0.000000 0.000000
# 5 0.000000 0.000000 0.000000 0.000000 -0.026033 0.000000
# 6 0.000000 0.000000 0.000000 0.000000 0.000000 -0.054408
#
#
# Mechanical properties :
#
#
# Convention : Reuss Voigt Hill
#
# Bulk Modulus (GPa) = 67.96679 97.25048 82.60863
# Shear Modulus (GPa) = -202.48772 37.77775 -82.35498
#
# Velocity S-wave (km/s) = -9.59076 4.14259 -6.11644
# Velocity P-wave (km/s) = 9.57960 8.18894 3.51497
#
# Compressibility (1/GPa) = 0.01471307
#
# Stress axis : x y z
#
# Youngs Moduli (GPa) = 63.87724 195.80424 119.33963
#
# Poissons Ratio (x) = 0.12195 0.44787
# Poissons Ratio (y) = 0.03978 0.33876
# Poissons Ratio (z) = 0.23972 0.55581
#
# Static dielectric constant tensor:
#      x y z
#    x 3.710160 0.000000 0.000000 
#    y 0.000000 4.153830 0.000000 
#    z 0.000000 0.000000 3.931710 
# 
# 
# High freq. dielectric constant tensor:
#      x y z
#    x 1.849530 0.000000 0.000000 
#    y 0.000000 1.889810 0.000000 
#    z 0.000000 0.000000 1.864390 
# 
# From -- ./inp_files/32351.got.cif
#   From: 2010.03.12/outbox.cif.g09.slc.cpg/sg42_17_cif.got.tgz:32351.got - 2010.04.14 02:04:31.
