data_PCOD8186763
_publ_section_title
;
Structure prediction by ZEFSAII (Michael W. Deem and Ramdas Pophale) SiO2 
 PCOD8186763
Probable space group: F M M 2
;
_chemical_formula_sum "Si O2"
_cell_formula_units_Z 64
_cell_length_a 14.664548
_cell_length_b 15.032651
_cell_length_c 11.836959
_cell_angle_alpha 90.000000
_cell_angle_beta 90.000000
_cell_angle_gamma 90.000000
_cell_volume 2609.422481
_symmetry_space_group_name_H-M "F M M 2"
_symmetry_group_IT_number 42
_symmetry_cell_setting 'orthorhombic'
loop_
_space_group_symop_operation_xyz
x,y,z
-x,-y,z
-x,y,z
x,-y,z
x,1/2+y,1/2+z
-x,1/2-y,1/2+z
-x,1/2+y,1/2+z
x,1/2-y,1/2+z
1/2+x,y,1/2+z
1/2-x,-y,1/2+z
1/2-x,y,1/2+z
1/2+x,-y,1/2+z
1/2+x,1/2+y,z
1/2-x,1/2-y,z
1/2-x,1/2+y,z
1/2+x,1/2-y,z
loop_
_atom_site_type_symbol
_atom_site_label
_atom_site_fract_x
_atom_site_fract_y
_atom_site_fract_z
Si Si1 0.395821 0.784655 0.100010
Si Si2 0.777103 0.155082 0.803931
Si Si3 0.099392 0.098323 0.381869
Si Si4 0.605164 0.901164 0.507580
O O1 0.500000 0.793488 0.142461
O O2 0.329502 0.834861 0.186068
O O3 0.382735 0.830886 0.979821
O O4 0.366511 0.680306 0.090505
O O5 0.750000 0.250000 0.855642
O O6 0.679381 0.105002 0.788343
O O7 0.838339 0.101429 0.891880
O O8 0.000000 0.117318 0.324317
O O9 0.099254 0.000000 0.435919
O O10 0.500000 0.887095 0.474095
O O11 0.620292 0.000000 0.562454
#
# Coordination Sequence:
#
# PCOD8186763 Si02
#       4
#    16  16  16  16
#     4  10  23  44  72 105 141 185 235 287 350 420
#     4  12  24  39  71 102 139 182 235 287 345 412
#     4  10  23  45  71 101 143 188 233 290 351 413
#     4  10  22  44  73 106 144 184 231 291 350 411
#
# _framework density 24.526501
#
# number of rings (size 3 to 8) (size 9 to 14) (size 15 to 20)
#    0.000    1.500    2.500    1.500    3.500    3.000 
#    0.000    5.000    0.000    3.000    0.000    0.000 
#    0.000    0.000    0.000    0.000    0.000    0.000 
#
# Total GULP energy -198292.327639 kJ/mol
# GULP energy per Si atom -12393.270477 kJ/mol
# Density = 2.447068 g / cm^3
# Si number density = 24.526501 Si / 1000 Ang^3
#
#
#
# Elastic Constant Matrix: (Units=GPa)
#
#
# Indices 1 2 3 4 5 6 
#
# 1 176.4037 41.1606 70.2371 0.0000 0.0000 0.0000
# 2 41.1606 131.2392 23.7483 0.0000 0.0000 0.0000
# 3 70.2371 23.7483 62.6362 0.0000 0.0000 0.0000
# 4 0.0000 0.0000 0.0000 27.9871 0.0000 0.0000
# 5 0.0000 0.0000 0.0000 0.0000 35.4101 0.0000
# 6 0.0000 0.0000 0.0000 0.0000 0.0000 35.0294
#
#
#
# Elastic Compliance Matrix: (Units=1/GPa)
#
#
# Indices 1 2 3 4 5 6 
#
# 1 0.010426 -0.001239 -0.011221 0.000000 0.000000 0.000000
# 2 -0.001239 0.008328 -0.001768 0.000000 0.000000 0.000000
# 3 -0.011221 -0.001768 0.029218 0.000000 0.000000 0.000000
# 4 0.000000 0.000000 0.000000 0.035731 0.000000 0.000000
# 5 0.000000 0.000000 0.000000 0.000000 0.028241 0.000000
# 6 0.000000 0.000000 0.000000 0.000000 0.000000 0.028547
#
#
# Mechanical properties :
#
#
# Convention : Reuss Voigt Hill
#
# Bulk Modulus (GPa) = 51.24084 71.17456 61.20770
# Shear Modulus (GPa) = 28.49771 35.36088 31.92929
#
# Velocity S-wave (km/s) = 3.41239 3.80115 3.61200
# Velocity P-wave (km/s) = 6.03848 6.95323 6.51194
#
# Compressibility (1/GPa) = 0.01951568
#
# Stress axis : x y z
#
# Youngs Moduli (GPa) = 95.91620 120.07283 34.22526
#
# Poissons Ratio (x) = 0.14881 0.38404
# Poissons Ratio (y) = 0.11887 0.06051
# Poissons Ratio (z) = 1.07628 0.21228
#
# Static dielectric constant tensor:
#      x y z
#    x 5.063310 0.000000 0.000000 
#    y 0.000000 4.734760 0.000000 
#    z 0.000000 0.000000 3.684640 
# 
# 
# High freq. dielectric constant tensor:
#      x y z
#    x 2.004410 0.000000 0.000000 
#    y 0.000000 1.985450 0.000000 
#    z 0.000000 0.000000 1.935470 
# 
# From -- ./inp_files/7489.got.cif
#   From: 2010.03.12/outbox.cif.g09.slc.cpg/sg42_4_cif.got.tgz:7489.got - 2010.04.14 02:04:31.
