data_PCOD8186120
_publ_section_title
;
Structure prediction by ZEFSAII (Michael W. Deem and Ramdas Pophale) SiO2 
 PCOD8186120
Probable space group: F M M 2
;
_chemical_formula_sum "Si O2"
_cell_formula_units_Z 104
_cell_length_a 7.544513
_cell_length_b 27.351413
_cell_length_c 29.416003
_cell_angle_alpha 90.000000
_cell_angle_beta 90.000000
_cell_angle_gamma 90.000000
_cell_volume 6070.083142
_symmetry_space_group_name_H-M "F M M 2"
_symmetry_group_IT_number 42
_symmetry_cell_setting 'orthorhombic'
loop_
_space_group_symop_operation_xyz
x,y,z
-x,-y,z
-x,y,z
x,-y,z
x,1/2+y,1/2+z
-x,1/2-y,1/2+z
-x,1/2+y,1/2+z
x,1/2-y,1/2+z
1/2+x,y,1/2+z
1/2-x,-y,1/2+z
1/2-x,y,1/2+z
1/2+x,-y,1/2+z
1/2+x,1/2+y,z
1/2-x,1/2-y,z
1/2-x,1/2+y,z
1/2+x,1/2-y,z
loop_
_atom_site_type_symbol
_atom_site_label
_atom_site_fract_x
_atom_site_fract_y
_atom_site_fract_z
Si Si1 0.705034 0.198309 0.167540
Si Si2 0.195965 0.057301 0.395809
Si Si3 0.500000 0.558277 0.960922
Si Si4 0.210995 0.902932 0.703818
Si Si5 0.291297 0.945499 0.298854
Si Si6 0.500000 0.378702 0.049090
Si Si7 0.500000 0.943879 0.639240
Si Si8 0.291398 0.303510 0.565409
O O1 0.500000 0.192065 0.161071
O O2 0.750000 0.250000 0.191803
O O3 0.774139 0.153183 0.197294
O O4 0.785856 0.197225 0.116939
O O5 0.330637 0.078353 0.432948
O O6 0.219679 0.079853 0.345131
O O7 0.000000 0.068737 0.414056
O O8 0.234087 0.000000 0.390301
O O9 0.500000 0.500000 0.966275
O O10 0.500000 0.580434 0.010610
O O11 0.268160 0.914649 0.755184
O O12 0.321266 0.935922 0.668703
O O13 0.000000 0.911559 0.695508
O O14 0.500000 0.947824 0.302560
O O15 0.212410 0.000000 0.292845
O O16 0.500000 0.407103 0.096845
O O17 0.675939 0.345667 0.041505
O O18 0.500000 0.000000 0.622364
O O19 0.500000 0.316160 0.561099
O O20 0.250000 0.250000 0.543902
#
# Coordination Sequence:
#
# PCOD8186120 Si02
#       8
#    16  16   8  16  16   8   8  16
#     4   9  18  30  50  73 102 137 174 223 267 301
#     4   9  17  31  52  75 100 132 176 230 275 308
#     4  10  21  38  54  74 108 145 181 220 264 318
#     4  10  21  35  49  75 110 146 182 218 261 317
#     4   9  16  29  50  74 103 137 173 219 268 313
#     4  12  23  36  56  80 109 146 182 221 260 321
#     4  12  25  36  50  74 111 157 188 209 250 313
#     4  10  19  34  56  81 106 134 173 227 276 310
#
# _framework density 17.133209000000001
#
# number of rings (size 3 to 8) (size 9 to 14) (size 15 to 20)
#    0.000    2.154    3.077    0.692    3.231    1.538 
#    0.000    0.000    0.000    2.769    0.000    1.077 
#    0.000    0.000    0.000    0.000    0.000    0.000 
#
# Total GULP energy -322252.209362 kJ/mol
# GULP energy per Si atom -12394.315745 kJ/mol
# Density = 1.709421 g / cm^3
# Si number density = 17.133209 Si / 1000 Ang^3
#
#
#
# Elastic Constant Matrix: (Units=GPa)
#
#
# Indices 1 2 3 4 5 6 
#
# 1 93.3009 28.8796 40.4734 0.0000 0.0000 0.0000
# 2 28.8796 82.6443 27.1138 0.0000 0.0000 0.0000
# 3 40.4734 27.1138 89.5837 0.0000 0.0000 0.0000
# 4 0.0000 0.0000 0.0000 25.2815 0.0000 0.0000
# 5 0.0000 0.0000 0.0000 0.0000 13.2140 0.0000
# 6 0.0000 0.0000 0.0000 0.0000 0.0000 17.2007
#
#
#
# Elastic Compliance Matrix: (Units=1/GPa)
#
#
# Indices 1 2 3 4 5 6 
#
# 1 0.014025 -0.003133 -0.005388 0.000000 0.000000 0.000000
# 2 -0.003133 0.014134 -0.002862 0.000000 0.000000 0.000000
# 3 -0.005388 -0.002862 0.014463 0.000000 0.000000 0.000000
# 4 0.000000 0.000000 0.000000 0.039555 0.000000 0.000000
# 5 0.000000 0.000000 0.000000 0.000000 0.075677 0.000000
# 6 0.000000 0.000000 0.000000 0.000000 0.000000 0.058137
#
#
# Mechanical properties :
#
#
# Convention : Reuss Voigt Hill
#
# Bulk Modulus (GPa) = 50.36472 50.94027 50.65249
# Shear Modulus (GPa) = 20.37677 22.41005 21.39341
#
# Velocity S-wave (km/s) = 3.45239 3.62054 3.53746
# Velocity P-wave (km/s) = 6.73437 6.87562 6.80536
#
# Compressibility (1/GPa) = 0.01985517
#
# Stress axis : x y z
#
# Youngs Moduli (GPa) = 71.30016 70.75138 69.14001
#
# Poissons Ratio (x) = 0.22168 0.37254
# Poissons Ratio (y) = 0.22340 0.19790
# Poissons Ratio (z) = 0.38418 0.20251
#
# Static dielectric constant tensor:
#      x y z
#    x 3.263090 0.000000 0.000000 
#    y 0.000000 2.349080 0.000000 
#    z 0.000000 0.000000 3.087230 
# 
# 
# High freq. dielectric constant tensor:
#      x y z
#    x 1.675180 0.000000 0.000000 
#    y 0.000000 1.636470 0.000000 
#    z 0.000000 0.000000 1.634530 
# 
# From -- ./inp_files/31847.got.cif
#   From: 2010.03.12/outbox.cif.g09.slc.cpg/sg42_16_cif.got.tgz:31847.got - 2010.04.14 02:04:31.
