data_PCOD8186979
_publ_section_title
;
Structure prediction by ZEFSAII (Michael W. Deem and Ramdas Pophale) SiO2 
 PCOD8186979
Probable space group: F D D 2
;
_chemical_formula_sum "Si O2"
_cell_formula_units_Z 112
_cell_length_a 12.471741
_cell_length_b 16.572553
_cell_length_c 27.146809
_cell_angle_alpha 90.000000
_cell_angle_beta 90.000000
_cell_angle_gamma 90.000000
_cell_volume 5610.935641
_symmetry_space_group_name_H-M "F D D 2"
_symmetry_group_IT_number 43
_symmetry_cell_setting 'orthorhombic'
loop_
_space_group_symop_operation_xyz
x,y,z
-x,-y,z
1/4-x,1/4+y,1/4+z
1/4+x,1/4-y,1/4+z
x,1/2+y,1/2+z
-x,1/2-y,1/2+z
1/4-x,3/4+y,3/4+z
1/4+x,3/4-y,3/4+z
1/2+x,y,1/2+z
1/2-x,-y,1/2+z
3/4-x,1/4+y,3/4+z
3/4+x,1/4-y,3/4+z
1/2+x,1/2+y,z
1/2-x,1/2-y,z
3/4-x,3/4+y,1/4+z
3/4+x,3/4-y,1/4+z
loop_
_atom_site_type_symbol
_atom_site_label
_atom_site_fract_x
_atom_site_fract_y
_atom_site_fract_z
Si Si1 0.767942 0.424314 0.192460
Si Si2 0.856740 0.700839 0.752704
Si Si3 0.521798 0.643403 0.732188
Si Si4 0.518642 0.908242 0.547676
Si Si5 0.238526 0.422803 0.585444
Si Si6 0.959713 0.361189 0.442157
Si Si7 0.447684 0.139889 0.338914
O O1 0.672782 0.375662 0.219247
O O2 0.884714 0.413474 0.214293
O O3 0.769608 0.386507 0.137933
O O4 0.749196 0.519420 0.194571
O O5 0.750000 0.750000 0.767047
O O6 0.943816 0.761714 0.727860
O O7 0.907893 0.662372 0.801352
O O8 0.417943 0.625798 0.698245
O O9 0.510440 0.615985 0.789151
O O10 0.634968 0.875720 0.564015
O O11 0.514930 0.903895 0.488425
O O12 0.425289 0.860738 0.578077
O O13 0.500000 0.000000 0.562407
O O14 0.205453 0.514675 0.593223
O O15 0.001464 0.398039 0.389339
#
# Coordination Sequence:
#
# PCOD8186979 Si02
#       7
#    16  16  16  16  16  16  16
#     4  10  20  33  52  81 110 138 180 233 271 312
#     4   9  19  36  54  76 109 145 180 221 271 331
#     4   9  18  34  54  77 107 141 180 222 269 332
#     4   9  18  35  53  74 104 138 178 220 267 334
#     4   9  18  33  54  73 101 147 180 205 267 345
#     4  10  19  34  57  81 102 139 185 230 273 316
#     4   8  17  33  54  76 101 136 178 221 270 326
#
# _framework density 19.961020000000001
#
# number of rings (size 3 to 8) (size 9 to 14) (size 15 to 20)
#    0.000    2.857    0.000    1.286    0.000    5.714 
#    0.000   10.714    0.000    1.714    0.000    0.000 
#    0.000    0.000    0.000    0.000    0.000    0.000 
#
# Total GULP energy -346878.024666 kJ/mol
# GULP energy per Si atom -12388.500881 kJ/mol
# Density = 1.991559 g / cm^3
# Si number density = 19.961020 Si / 1000 Ang^3
#
#
#
# Elastic Constant Matrix: (Units=GPa)
#
#
# Indices 1 2 3 4 5 6 
#
# 1 105.9946 25.6941 75.4124 0.0000 0.0000 0.0000
# 2 25.6941 35.5442 13.8747 0.0000 0.0000 0.0000
# 3 75.4124 13.8747 155.1437 0.0000 0.0000 0.0000
# 4 0.0000 0.0000 0.0000 24.0876 0.0000 0.0000
# 5 0.0000 0.0000 0.0000 0.0000 52.8230 0.0000
# 6 0.0000 0.0000 0.0000 0.0000 0.0000 23.3058
#
#
#
# Elastic Compliance Matrix: (Units=1/GPa)
#
#
# Indices 1 2 3 4 5 6 
#
# 1 0.016987 -0.009384 -0.007418 0.000000 0.000000 0.000000
# 2 -0.009384 0.034335 0.001491 0.000000 0.000000 0.000000
# 3 -0.007418 0.001491 0.009918 0.000000 0.000000 0.000000
# 4 0.000000 0.000000 0.000000 0.041515 0.000000 0.000000
# 5 0.000000 0.000000 0.000000 0.000000 0.018931 0.000000
# 6 0.000000 0.000000 0.000000 0.000000 0.000000 0.042908
#
#
# Mechanical properties :
#
#
# Convention : Reuss Voigt Hill
#
# Bulk Modulus (GPa) = 32.66016 58.51610 45.58813
# Shear Modulus (GPa) = 24.34014 32.15669 28.24841
#
# Velocity S-wave (km/s) = 3.49576 4.01805 3.76597
# Velocity P-wave (km/s) = 5.71762 7.13478 6.46515
#
# Compressibility (1/GPa) = 0.03061834
#
# Stress axis : x y z
#
# Youngs Moduli (GPa) = 58.86967 29.12438 100.82747
#
# Poissons Ratio (x) = 0.27330 0.74791
# Poissons Ratio (y) = 0.55242 -0.15030
# Poissons Ratio (z) = 0.43668 -0.04341
#
# Static dielectric constant tensor:
#      x y z
#    x 3.903480 0.000000 0.000000 
#    y 0.000000 3.268040 0.000000 
#    z 0.000000 0.000000 3.987050 
# 
# 
# High freq. dielectric constant tensor:
#      x y z
#    x 1.785890 0.000000 0.000000 
#    y 0.000000 1.741850 0.000000 
#    z 0.000000 0.000000 1.782850 
# 
# From -- ./inp_files/25234.got.cif
#   From: 2010.06.25/outbox.cif.g09.slc.cpg/sg43_13_cif.got.tgz:25234.got - 2010.06.26 16:48:59.
