data_PCOD8186026
_publ_section_title
;
Structure prediction by ZEFSAII (Michael W. Deem and Ramdas Pophale) SiO2 
 PCOD8186026
Probable space group: F M M 2
;
_chemical_formula_sum "Si O2"
_cell_formula_units_Z 96
_cell_length_a 9.179520
_cell_length_b 19.010520
_cell_length_c 31.156862
_cell_angle_alpha 90.000000
_cell_angle_beta 90.000000
_cell_angle_gamma 90.000000
_cell_volume 5437.104492
_symmetry_space_group_name_H-M "F M M 2"
_symmetry_group_IT_number 42
_symmetry_cell_setting 'orthorhombic'
loop_
_space_group_symop_operation_xyz
x,y,z
-x,-y,z
-x,y,z
x,-y,z
x,1/2+y,1/2+z
-x,1/2-y,1/2+z
-x,1/2+y,1/2+z
x,1/2-y,1/2+z
1/2+x,y,1/2+z
1/2-x,-y,1/2+z
1/2-x,y,1/2+z
1/2+x,-y,1/2+z
1/2+x,1/2+y,z
1/2-x,1/2-y,z
1/2-x,1/2+y,z
1/2+x,1/2-y,z
loop_
_atom_site_type_symbol
_atom_site_label
_atom_site_fract_x
_atom_site_fract_y
_atom_site_fract_z
Si Si1 0.328365 0.325169 0.062230
Si Si2 0.668957 0.418246 0.308461
Si Si3 0.338754 0.416512 0.212955
Si Si4 0.332887 0.583261 0.631096
Si Si5 0.329474 0.675513 0.876049
Si Si6 0.165614 0.179121 0.968960
O O1 0.500000 0.315510 0.071243
O O2 0.250000 0.250000 0.067528
O O3 0.262674 0.381064 0.094661
O O4 0.299473 0.359160 0.014387
O O5 0.500000 0.404058 0.318788
O O6 0.706288 0.500000 0.312828
O O7 0.706946 0.390504 0.260446
O O8 0.770092 0.377908 0.341342
O O9 0.500000 0.387625 0.201232
O O10 0.344741 0.500000 0.214103
O O11 0.223908 0.390065 0.177510
O O12 0.500000 0.606342 0.626547
O O13 0.313489 0.500000 0.626487
O O14 0.500000 0.687620 0.867913
O O15 0.250000 0.750000 0.871660
O O16 0.300764 0.639962 0.923630
O O17 0.250000 0.250000 0.968359
O O18 0.000000 0.202576 0.969395
#
# Coordination Sequence:
#
# PCOD8186026 Si02
#       6
#    16  16  16  16  16  16
#     4  10  19  33  53  74  98 128 163 202 244 290
#     4   9  18  33  52  74 100 129 162 200 242 289
#     4   8  15  30  51  71  93 126 165 200 238 288
#     4  10  20  33  50  74 102 129 161 201 242 287
#     4  10  19  32  51  74 100 129 163 202 243 288
#     4   8  16  30  48  70  94 125 163 199 237 285
#
# _framework density 17.656455999999999
#
# number of rings (size 3 to 8) (size 9 to 14) (size 15 to 20)
#    0.000    2.833    0.000    2.500    0.000    3.333 
#    0.000    3.333    0.000    9.000    0.000    0.000 
#    0.000    0.000    0.000    0.000    0.000    0.000 
#
# Total GULP energy -297317.500402 kJ/mol
# GULP energy per Si atom -12388.229183 kJ/mol
# Density = 1.761627 g / cm^3
# Si number density = 17.656456 Si / 1000 Ang^3
#
#
#
# Elastic Constant Matrix: (Units=GPa)
#
#
# Indices 1 2 3 4 5 6 
#
# 1 108.1338 38.2394 82.6547 0.0000 0.0000 0.0000
# 2 38.2394 38.7731 45.8053 0.0000 0.0000 0.0000
# 3 82.6547 45.8053 167.1200 0.0000 0.0000 0.0000
# 4 0.0000 0.0000 0.0000 26.8735 0.0000 0.0000
# 5 0.0000 0.0000 0.0000 0.0000 32.3208 0.0000
# 6 0.0000 0.0000 0.0000 0.0000 0.0000 28.0815
#
#
#
# Elastic Compliance Matrix: (Units=1/GPa)
#
#
# Indices 1 2 3 4 5 6 
#
# 1 0.017244 -0.010250 -0.005719 0.000000 0.000000 0.000000
# 2 -0.010250 0.044234 -0.007054 0.000000 0.000000 0.000000
# 3 -0.005719 -0.007054 0.010746 0.000000 0.000000 0.000000
# 4 0.000000 0.000000 0.000000 0.037211 0.000000 0.000000
# 5 0.000000 0.000000 0.000000 0.000000 0.030940 0.000000
# 6 0.000000 0.000000 0.000000 0.000000 0.000000 0.035611
#
#
# Mechanical properties :
#
#
# Convention : Reuss Voigt Hill
#
# Bulk Modulus (GPa) = 38.20239 71.93619 55.06929
# Shear Modulus (GPa) = 21.66759 27.27699 24.47229
#
# Velocity S-wave (km/s) = 3.50691 3.93475 3.72697
# Velocity P-wave (km/s) = 6.17101 7.84051 7.05532
#
# Compressibility (1/GPa) = 0.02617637
#
# Stress axis : x y z
#
# Youngs Moduli (GPa) = 57.99008 22.60700 93.05925
#
# Poissons Ratio (x) = 0.23173 0.53223
# Poissons Ratio (y) = 0.59442 0.65646
# Poissons Ratio (z) = 0.33166 0.15948
#
# Static dielectric constant tensor:
#      x y z
#    x 3.422100 0.000000 0.000000 
#    y 0.000000 2.758310 0.000000 
#    z 0.000000 0.000000 4.048450 
# 
# 
# High freq. dielectric constant tensor:
#      x y z
#    x 1.693680 0.000000 0.000000 
#    y 0.000000 1.632140 0.000000 
#    z 0.000000 0.000000 1.707420 
# 
# From -- ./inp_files/28054.got.cif
#   From: 2010.03.12/outbox.cif.g09.slc.cpg/sg42_15_cif.got.tgz:28054.got - 2010.04.14 02:04:31.
