data_PCOD8186207
_publ_section_title
;
Structure prediction by ZEFSAII (Michael W. Deem and Ramdas Pophale) SiO2 
 PCOD8186207
Probable space group: F M M 2
;
_chemical_formula_sum "Si O2"
_cell_formula_units_Z 72
_cell_length_a 14.747278
_cell_length_b 18.725962
_cell_length_c 16.248327
_cell_angle_alpha 90.000000
_cell_angle_beta 90.000000
_cell_angle_gamma 90.000000
_cell_volume 4487.088710
_symmetry_space_group_name_H-M "F M M 2"
_symmetry_group_IT_number 42
_symmetry_cell_setting 'orthorhombic'
loop_
_space_group_symop_operation_xyz
x,y,z
-x,-y,z
-x,y,z
x,-y,z
x,1/2+y,1/2+z
-x,1/2-y,1/2+z
-x,1/2+y,1/2+z
x,1/2-y,1/2+z
1/2+x,y,1/2+z
1/2-x,-y,1/2+z
1/2-x,y,1/2+z
1/2+x,-y,1/2+z
1/2+x,1/2+y,z
1/2-x,1/2-y,z
1/2-x,1/2+y,z
1/2+x,1/2-y,z
loop_
_atom_site_type_symbol
_atom_site_label
_atom_site_fract_x
_atom_site_fract_y
_atom_site_fract_z
Si Si1 0.102769 0.653627 0.140270
Si Si2 0.106150 0.418319 0.309981
Si Si3 0.602442 0.417962 0.467169
Si Si4 0.263059 0.672496 0.917529
Si Si5 0.750000 0.250000 0.074760
O O1 0.132863 0.608706 0.219553
O O2 0.168221 0.722147 0.131617
O O3 0.000000 0.682209 0.149396
O O4 0.111637 0.601316 0.062924
O O5 0.137799 0.500000 0.318320
O O6 0.155606 0.371156 0.378219
O O7 0.000000 0.410569 0.326348
O O8 0.500000 0.403623 0.436573
O O9 0.629777 0.500000 0.456302
O O10 0.668705 0.370786 0.410629
O O11 0.250000 0.750000 0.873161
O O12 0.286785 0.686534 0.014397
#
# Coordination Sequence:
#
# PCOD8186207 Si02
#       5
#    16  16  16  16   8
#     4   9  17  30  48  69  93 119 155 195 230 268
#     4  10  20  32  48  70  96 125 154 189 232 277
#     4   9  16  29  50  71  92 120 158 198 229 264
#     4   9  19  31  45  72  95 125 150 185 234 280
#     4   8  18  30  48  70  92 120 154 192 230 270
#
# _framework density 16.046039
#
# number of rings (size 3 to 8) (size 9 to 14) (size 15 to 20)
#    0.667    2.222    0.000    1.333    1.556    4.444 
#    0.000    0.000    0.000    0.000    0.000    0.000 
#    0.000    7.111    0.000    0.000    0.000    0.000 
#
# Total GULP energy -223096.144355 kJ/mol
# GULP energy per Si atom -12394.230242 kJ/mol
# Density = 1.600952 g / cm^3
# Si number density = 16.046039 Si / 1000 Ang^3
#
#
#
# Elastic Constant Matrix: (Units=GPa)
#
#
# Indices 1 2 3 4 5 6 
#
# 1 82.4897 74.2585 38.0258 0.0000 0.0000 0.0000
# 2 74.2585 128.2494 36.7278 0.0000 0.0000 0.0000
# 3 38.0258 36.7278 51.0657 0.0000 0.0000 0.0000
# 4 0.0000 0.0000 0.0000 14.7029 0.0000 0.0000
# 5 0.0000 0.0000 0.0000 0.0000 18.7191 0.0000
# 6 0.0000 0.0000 0.0000 0.0000 0.0000 33.4596
#
#
#
# Elastic Compliance Matrix: (Units=1/GPa)
#
#
# Indices 1 2 3 4 5 6 
#
# 1 0.030707 -0.014145 -0.012692 0.000000 0.000000 0.000000
# 2 -0.014145 0.016336 -0.001216 0.000000 0.000000 0.000000
# 3 -0.012692 -0.001216 0.029909 0.000000 0.000000 0.000000
# 4 0.000000 0.000000 0.000000 0.068014 0.000000 0.000000
# 5 0.000000 0.000000 0.000000 0.000000 0.053421 0.000000
# 6 0.000000 0.000000 0.000000 0.000000 0.000000 0.029887
#
#
# Mechanical properties :
#
#
# Convention : Reuss Voigt Hill
#
# Bulk Modulus (GPa) = 47.97450 62.20324 55.08887
# Shear Modulus (GPa) = 17.16269 20.89583 19.02926
#
# Velocity S-wave (km/s) = 3.27401 3.61257 3.44745
# Velocity P-wave (km/s) = 6.65245 7.50004 7.08892
#
# Compressibility (1/GPa) = 0.02084441
#
# Stress axis : x y z
#
# Youngs Moduli (GPa) = 32.56544 61.21493 33.43527
#
# Poissons Ratio (x) = 0.86590 0.42437
# Poissons Ratio (y) = 0.46065 0.04066
# Poissons Ratio (z) = 0.41333 0.07444
#
# Static dielectric constant tensor:
#      x y z
#    x 3.044300 0.000000 0.000000 
#    y 0.000000 3.077410 0.000000 
#    z 0.000000 0.000000 2.811390 
# 
# 
# High freq. dielectric constant tensor:
#      x y z
#    x 1.612600 0.000000 0.000000 
#    y 0.000000 1.618520 0.000000 
#    z 0.000000 0.000000 1.594220 
# 
# From -- ./inp_files/18909.got.cif
#   From: 2010.03.12/outbox.cif.g09.slc.cpg/sg42_10_cif.got.tgz:18909.got - 2010.04.14 02:04:31.
