data_PCOD8186769
_publ_section_title
;
Structure prediction by ZEFSAII (Michael W. Deem and Ramdas Pophale) SiO2 
 PCOD8186769
Probable space group: F M M 2
;
_chemical_formula_sum "Si O2"
_cell_formula_units_Z 96
_cell_length_a 25.159669
_cell_length_b 23.948112
_cell_length_c 7.608990
_cell_angle_alpha 90.000000
_cell_angle_beta 90.000000
_cell_angle_gamma 90.000000
_cell_volume 4584.618654
_symmetry_space_group_name_H-M "F M M 2"
_symmetry_group_IT_number 42
_symmetry_cell_setting 'orthorhombic'
loop_
_space_group_symop_operation_xyz
x,y,z
-x,-y,z
-x,y,z
x,-y,z
x,1/2+y,1/2+z
-x,1/2-y,1/2+z
-x,1/2+y,1/2+z
x,1/2-y,1/2+z
1/2+x,y,1/2+z
1/2-x,-y,1/2+z
1/2-x,y,1/2+z
1/2+x,-y,1/2+z
1/2+x,1/2+y,z
1/2-x,1/2-y,z
1/2-x,1/2+y,z
1/2+x,1/2-y,z
loop_
_atom_site_type_symbol
_atom_site_label
_atom_site_fract_x
_atom_site_fract_y
_atom_site_fract_z
Si Si1 0.119492 0.565365 0.101420
Si Si2 0.937961 0.826613 0.685391
Si Si3 0.700065 0.783216 0.772308
Si Si4 0.120194 0.229260 0.996814
Si Si5 0.305946 0.938607 0.417219
Si Si6 0.696376 0.595510 0.302506
O O1 0.101666 0.500000 0.117585
O O2 0.071012 0.608832 0.127058
O O3 0.161053 0.584370 0.251703
O O4 0.144867 0.575636 0.910045
O O5 0.914757 0.784324 0.539444
O O6 0.000000 0.815979 0.701754
O O7 0.912119 0.813931 0.876382
O O8 0.750000 0.750000 0.682611
O O9 0.643083 0.797541 0.674888
O O10 0.717600 0.842630 0.851787
O O11 0.679196 0.743358 0.925282
O O12 0.315216 0.903359 0.593603
O O13 0.244789 0.944117 0.357340
O O14 0.326584 0.000000 0.464278
#
# Coordination Sequence:
#
# PCOD8186769 Si02
#       6
#    16  16  16  16  16  16
#     4  11  24  42  64  94 127 167 216 270 326 386
#     4  11  23  44  67  90 119 164 219 277 329 381
#     4  11  24  35  58  92 131 167 197 252 319 389
#     4  10  23  40  61  93 125 162 212 256 323 388
#     4  11  23  36  58  87 124 170 209 246 303 386
#     4  12  23  37  59  88 129 172 209 248 312 387
#
# _framework density 20.939582999999999
#
# number of rings (size 3 to 8) (size 9 to 14) (size 15 to 20)
#    0.000    1.000    3.333    3.500    9.333    0.333 
#    0.000    0.000    0.000    0.000    0.000    2.333 
#    0.000    0.000    0.000    0.000    0.000    0.000 
#
# Total GULP energy -297365.490339 kJ/mol
# GULP energy per Si atom -12390.228764 kJ/mol
# Density = 2.089192 g / cm^3
# Si number density = 20.939583 Si / 1000 Ang^3
#
#
#
# Elastic Constant Matrix: (Units=GPa)
#
#
# Indices 1 2 3 4 5 6 
#
# 1 96.7975 30.7123 20.3378 0.0004 0.0024 0.0003
# 2 30.7123 114.9962 13.2457 0.0074 0.0005 -0.0014
# 3 20.3378 13.2457 77.5851 -0.0075 0.0017 0.0002
# 4 0.0004 0.0074 -0.0075 18.0219 0.0005 -0.0015
# 5 0.0024 0.0005 0.0017 0.0005 20.2165 -0.0017
# 6 0.0003 -0.0014 0.0002 -0.0015 -0.0017 23.6602
#
#
#
# Elastic Compliance Matrix: (Units=1/GPa)
#
#
# Indices 1 2 3 4 5 6 
#
# 1 0.011781 -0.002847 -0.002602 0.000000 -0.000001 0.000000
# 2 -0.002847 0.009558 -0.000886 -0.000004 0.000000 0.000001
# 3 -0.002602 -0.000886 0.013722 0.000006 -0.000001 0.000000
# 4 0.000000 -0.000004 0.000006 0.055488 -0.000001 0.000003
# 5 -0.000001 0.000000 -0.000001 -0.000001 0.049464 0.000004
# 6 0.000000 0.000001 0.000000 0.000003 0.000004 0.042265
#
#
# Mechanical properties :
#
#
# Convention : Reuss Voigt Hill
#
# Bulk Modulus (GPa) = 44.65767 46.44115 45.54941
# Shear Modulus (GPa) = 24.70212 27.38526 26.04369
#
# Velocity S-wave (km/s) = 3.43838 3.62031 3.53052
# Velocity P-wave (km/s) = 6.09397 6.30097 6.19834
#
# Compressibility (1/GPa) = 0.02239257
#
# Stress axis : x y z
#
# Youngs Moduli (GPa) = 84.88418 104.62227 72.87359
#
# Poissons Ratio (x) = 0.29782 0.18963
# Poissons Ratio (y) = 0.24163 0.06454
# Poissons Ratio (z) = 0.22088 0.09266
#
# Static dielectric constant tensor:
#      x y z
#    x 3.385270 0.000000 -0.000010 
#    y 0.000000 3.729220 0.000000 
#    z -0.000010 0.000000 3.910210 
# 
# 
# High freq. dielectric constant tensor:
#      x y z
#    x 1.785770 0.000000 0.000000 
#    y 0.000000 1.827630 0.000000 
#    z 0.000000 0.000000 1.829300 
# 
# From -- ./inp_files/4720.got.cif
#   From: 2010.03.12/outbox.cif.g09.slc.cpg/sg42_3_cif.got.tgz:4720.got - 2010.04.14 02:04:31.
