data_PCOD8186423
_publ_section_title
;
Structure prediction by ZEFSAII (Michael W. Deem and Ramdas Pophale) SiO2 
 PCOD8186423
Probable space group: F M M 2
;
_chemical_formula_sum "Si O2"
_cell_formula_units_Z 96
_cell_length_a 8.798970
_cell_length_b 18.704754
_cell_length_c 30.672362
_cell_angle_alpha 90.000000
_cell_angle_beta 90.000000
_cell_angle_gamma 90.000000
_cell_volume 5048.136145
_symmetry_space_group_name_H-M "F M M 2"
_symmetry_group_IT_number 42
_symmetry_cell_setting 'orthorhombic'
loop_
_space_group_symop_operation_xyz
x,y,z
-x,-y,z
-x,y,z
x,-y,z
x,1/2+y,1/2+z
-x,1/2-y,1/2+z
-x,1/2+y,1/2+z
x,1/2-y,1/2+z
1/2+x,y,1/2+z
1/2-x,-y,1/2+z
1/2-x,y,1/2+z
1/2+x,-y,1/2+z
1/2+x,1/2+y,z
1/2-x,1/2-y,z
1/2-x,1/2+y,z
1/2+x,1/2-y,z
loop_
_atom_site_type_symbol
_atom_site_label
_atom_site_fract_x
_atom_site_fract_y
_atom_site_fract_z
Si Si1 0.821338 0.916444 0.047420
Si Si2 0.320808 0.419031 0.296757
Si Si3 0.321511 0.323843 0.374966
Si Si4 0.180489 0.671611 0.125727
Si Si5 0.180365 0.173720 0.473860
Si Si6 0.320568 0.418666 0.708400
O O1 0.737622 0.873782 0.085172
O O2 0.000000 0.901457 0.049579
O O3 0.783806 0.000000 0.052089
O O4 0.755183 0.889196 0.001666
O O5 0.500000 0.411454 0.292425
O O6 0.266481 0.500000 0.301265
O O7 0.259635 0.381341 0.340433
O O8 0.247351 0.386133 0.253042
O O9 0.500000 0.315956 0.371846
O O10 0.250000 0.250000 0.360408
O O11 0.274380 0.344747 0.424063
O O12 0.250000 0.750000 0.124703
O O13 0.236740 0.631126 0.169144
O O14 0.000000 0.677388 0.123400
O O15 0.250000 0.250000 0.487935
O O16 0.000000 0.176207 0.481117
O O17 0.500000 0.417392 0.711773
O O18 0.261953 0.500000 0.700527
#
# Coordination Sequence:
#
# PCOD8186423 Si02
#       6
#    16  16  16  16  16  16
#     4  11  24  40  58  82 111 141 177 222 270 322
#     4   9  18  33  53  77 106 140 178 220 265 313
#     4   9  19  34  53  78 107 141 179 219 263 313
#     4  11  23  39  59  82 110 143 180 222 268 321
#     4  10  20  36  58  81 109 145 183 224 270 320
#     4   9  19  36  56  78 105 139 179 221 266 317
#
# _framework density 19.016919000000001
#
# number of rings (size 3 to 8) (size 9 to 14) (size 15 to 20)
#    0.000    2.167    0.000    2.500    0.000    6.000 
#    0.000    6.667    0.000    2.000    0.000    0.000 
#    0.000    0.000    0.000    0.000    0.000    0.000 
#
# Total GULP energy -297636.042715 kJ/mol
# GULP energy per Si atom -12401.501780 kJ/mol
# Density = 1.897364 g / cm^3
# Si number density = 19.016919 Si / 1000 Ang^3
#
#
#
# Elastic Constant Matrix: (Units=GPa)
#
#
# Indices 1 2 3 4 5 6 
#
# 1 49.2756 41.0877 38.2292 0.0000 0.0000 0.0000
# 2 41.0877 121.0585 84.5050 0.0000 0.0000 0.0000
# 3 38.2292 84.5050 151.0271 0.0000 0.0000 0.0000
# 4 0.0000 0.0000 0.0000 44.4630 0.0000 0.0000
# 5 0.0000 0.0000 0.0000 0.0000 33.6525 0.0000
# 6 0.0000 0.0000 0.0000 0.0000 0.0000 26.3935
#
#
#
# Elastic Compliance Matrix: (Units=1/GPa)
#
#
# Indices 1 2 3 4 5 6 
#
# 1 0.029121 -0.007775 -0.003021 0.000000 0.000000 0.000000
# 2 -0.007775 0.015631 -0.006778 0.000000 0.000000 0.000000
# 3 -0.003021 -0.006778 0.011178 0.000000 0.000000 0.000000
# 4 0.000000 0.000000 0.000000 0.022491 0.000000 0.000000
# 5 0.000000 0.000000 0.000000 0.000000 0.029715 0.000000
# 6 0.000000 0.000000 0.000000 0.000000 0.000000 0.037888
#
#
# Mechanical properties :
#
#
# Convention : Reuss Voigt Hill
#
# Bulk Modulus (GPa) = 48.11763 72.11166 60.11464
# Shear Modulus (GPa) = 26.58181 31.40442 28.99311
#
# Velocity S-wave (km/s) = 3.74277 4.06814 3.90884
# Velocity P-wave (km/s) = 6.63590 7.75038 7.21470
#
# Compressibility (1/GPa) = 0.02078240
#
# Stress axis : x y z
#
# Youngs Moduli (GPa) = 34.33983 63.97733 89.45803
#
# Poissons Ratio (x) = 0.49742 0.27025
# Poissons Ratio (y) = 0.26699 0.60633
# Poissons Ratio (z) = 0.10374 0.43362
#
# Static dielectric constant tensor:
#      x y z
#    x 3.448620 0.000000 0.000000 
#    y 0.000000 3.591240 0.000000 
#    z 0.000000 0.000000 3.810850 
# 
# 
# High freq. dielectric constant tensor:
#      x y z
#    x 1.739600 0.000000 0.000000 
#    y 0.000000 1.736640 0.000000 
#    z 0.000000 0.000000 1.755400 
# 
# From -- ./inp_files/31434.got.cif
#   From: 2010.03.12/outbox.cif.g09.slc.cpg/sg42_16_cif.got.tgz:31434.got - 2010.04.14 02:04:31.
