data_PCOD8186493
_publ_section_title
;
Structure prediction by ZEFSAII (Michael W. Deem and Ramdas Pophale) SiO2 
 PCOD8186493
Probable space group: F M M 2
;
_chemical_formula_sum "Si O2"
_cell_formula_units_Z 112
_cell_length_a 24.642465
_cell_length_b 14.826555
_cell_length_c 12.748653
_cell_angle_alpha 90.000000
_cell_angle_beta 90.000000
_cell_angle_gamma 90.000000
_cell_volume 4657.884355
_symmetry_space_group_name_H-M "F M M 2"
_symmetry_group_IT_number 42
_symmetry_cell_setting 'orthorhombic'
loop_
_space_group_symop_operation_xyz
x,y,z
-x,-y,z
-x,y,z
x,-y,z
x,1/2+y,1/2+z
-x,1/2-y,1/2+z
-x,1/2+y,1/2+z
x,1/2-y,1/2+z
1/2+x,y,1/2+z
1/2-x,-y,1/2+z
1/2-x,y,1/2+z
1/2+x,-y,1/2+z
1/2+x,1/2+y,z
1/2-x,1/2-y,z
1/2-x,1/2+y,z
1/2+x,1/2-y,z
loop_
_atom_site_type_symbol
_atom_site_label
_atom_site_fract_x
_atom_site_fract_y
_atom_site_fract_z
Si Si1 0.826820 0.712629 0.744260
Si Si2 0.059965 0.602194 0.051199
Si Si3 0.559856 0.219804 0.660306
Si Si4 0.834863 0.601502 0.339459
Si Si5 0.560447 0.898156 0.457008
Si Si6 0.833333 0.400604 0.938250
Si Si7 0.733015 0.844904 0.533686
O O1 0.891217 0.691619 0.735834
O O2 0.814640 0.820450 0.758445
O O3 0.807654 0.661466 0.847936
O O4 0.793793 0.671159 0.647317
O O5 0.071666 0.500000 0.091938
O O6 0.062105 0.671639 0.147398
O O7 0.000000 0.607158 0.997479
O O8 0.107038 0.633085 0.971538
O O9 0.500000 0.191117 0.703930
O O10 0.570854 0.173180 0.548792
O O11 0.824353 0.500000 0.293875
O O12 0.898666 0.618938 0.360659
O O13 0.807956 0.606226 0.454796
O O14 0.500000 0.884428 0.410980
O O15 0.567807 0.000000 0.501707
O O16 0.838537 0.500000 0.891326
O O17 0.790462 0.399624 0.035962
O O18 0.750000 0.750000 0.484328
#
# Coordination Sequence:
#
# PCOD8186493 Si02
#       7
#    16  16  16  16  16  16  16
#     4  12  26  43  72 104 140 179 231 290 346 400
#     4   9  19  40  68  96 132 176 220 276 344 408
#     4  10  20  37  64  99 137 180 225 274 338 412
#     4  11  24  45  71 102 138 182 232 282 345 413
#     4   9  18  36  64  97 137 183 228 278 337 403
#     4  11  25  44  69 103 138 179 234 285 342 414
#     4  12  25  47  70  90 136 185 221 287 344 401
#
# _framework density 24.045252000000001
#
# number of rings (size 3 to 8) (size 9 to 14) (size 15 to 20)
#    0.000    1.429    2.857    2.143    2.000    3.429 
#    0.000    1.429    0.000    0.000    0.000    0.000 
#    0.000    0.000    0.000    0.000    0.000    0.000 
#
# Total GULP energy -346965.941977 kJ/mol
# GULP energy per Si atom -12391.640785 kJ/mol
# Density = 2.399052 g / cm^3
# Si number density = 24.045252 Si / 1000 Ang^3
#
#
#
# Elastic Constant Matrix: (Units=GPa)
#
#
# Indices 1 2 3 4 5 6 
#
# 1 148.4184 24.4257 52.9667 0.0000 0.0000 0.0000
# 2 24.4257 86.1739 22.7525 0.0000 0.0000 0.0000
# 3 52.9667 22.7525 76.7169 0.0000 0.0000 0.0000
# 4 0.0000 0.0000 0.0000 20.7808 0.0000 0.0000
# 5 0.0000 0.0000 0.0000 0.0000 25.9368 0.0000
# 6 0.0000 0.0000 0.0000 0.0000 0.0000 31.6528
#
#
#
# Elastic Compliance Matrix: (Units=1/GPa)
#
#
# Indices 1 2 3 4 5 6 
#
# 1 0.009018 -0.000990 -0.005932 0.000000 0.000000 0.000000
# 2 -0.000990 0.012699 -0.003083 0.000000 0.000000 0.000000
# 3 -0.005932 -0.003083 0.018045 0.000000 0.000000 0.000000
# 4 0.000000 0.000000 0.000000 0.048121 0.000000 0.000000
# 5 0.000000 0.000000 0.000000 0.000000 0.038555 0.000000
# 6 0.000000 0.000000 0.000000 0.000000 0.000000 0.031593
#
#
# Mechanical properties :
#
#
# Convention : Reuss Voigt Hill
#
# Bulk Modulus (GPa) = 50.62868 56.84431 53.73650
# Shear Modulus (GPa) = 27.08185 29.75168 28.41676
#
# Velocity S-wave (km/s) = 3.35966 3.52137 3.44147
# Velocity P-wave (km/s) = 6.01257 6.34234 6.17966
#
# Compressibility (1/GPa) = 0.01975165
#
# Stress axis : x y z
#
# Youngs Moduli (GPa) = 110.89259 78.74670 55.41654
#
# Poissons Ratio (x) = 0.07793 0.32876
# Poissons Ratio (y) = 0.10975 0.17084
# Poissons Ratio (z) = 0.65787 0.24277
#
# Static dielectric constant tensor:
#      x y z
#    x 4.899040 0.000000 0.000000 
#    y 0.000000 4.517690 0.000000 
#    z 0.000000 0.000000 3.629730 
# 
# 
# High freq. dielectric constant tensor:
#      x y z
#    x 1.983920 0.000000 0.000000 
#    y 0.000000 1.960310 0.000000 
#    z 0.000000 0.000000 1.906120 
# 
# From -- ./inp_files/16558.got.cif
#   From: 2010.03.12/outbox.cif.g09.slc.cpg/sg42_9_cif.got.tgz:16558.got - 2010.04.14 02:04:31.
