data_PCOD8186433
_publ_section_title
;
Structure prediction by ZEFSAII (Michael W. Deem and Ramdas Pophale) SiO2 
 PCOD8186433
Probable space group: F M M 2
;
_chemical_formula_sum "Si O2"
_cell_formula_units_Z 104
_cell_length_a 9.208943
_cell_length_b 18.654613
_cell_length_c 28.146246
_cell_angle_alpha 90.000000
_cell_angle_beta 90.000000
_cell_angle_gamma 90.000000
_cell_volume 4835.222992
_symmetry_space_group_name_H-M "F M M 2"
_symmetry_group_IT_number 42
_symmetry_cell_setting 'orthorhombic'
loop_
_space_group_symop_operation_xyz
x,y,z
-x,-y,z
-x,y,z
x,-y,z
x,1/2+y,1/2+z
-x,1/2-y,1/2+z
-x,1/2+y,1/2+z
x,1/2-y,1/2+z
1/2+x,y,1/2+z
1/2-x,-y,1/2+z
1/2-x,y,1/2+z
1/2+x,-y,1/2+z
1/2+x,1/2+y,z
1/2-x,1/2-y,z
1/2-x,1/2+y,z
1/2+x,1/2-y,z
loop_
_atom_site_type_symbol
_atom_site_label
_atom_site_fract_x
_atom_site_fract_y
_atom_site_fract_z
Si Si1 0.163047 0.639666 0.913430
Si Si2 0.340639 0.658810 0.076048
Si Si3 0.750000 0.750000 0.988389
Si Si4 0.835552 0.083917 0.233926
Si Si5 0.657230 0.000000 0.550127
Si Si6 0.828987 0.916408 0.830031
Si Si7 0.330892 0.000000 0.962073
Si Si8 0.828083 0.681821 0.165964
O O1 0.152992 0.705444 0.950724
O O2 0.268290 0.642947 0.867603
O O3 0.234122 0.571436 0.939529
O O4 0.000000 0.625786 0.894921
O O5 0.500000 0.682187 0.095609
O O6 0.331809 0.572783 0.079880
O O7 0.210675 0.686009 0.109601
O O8 0.328021 0.691787 0.022608
O O9 0.749846 0.104563 0.281424
O O10 0.744482 0.112572 0.189219
O O11 0.000000 0.115148 0.235455
O O12 0.841974 0.000000 0.226768
O O13 0.500000 0.000000 0.523258
O O14 0.795328 0.000000 0.516904
O O15 0.000000 0.904762 0.824058
O O16 0.793899 0.000000 0.843727
O O17 0.500000 0.000000 0.955481
O O18 0.750000 0.750000 0.190816
O O19 0.000000 0.682199 0.173268
#
# Coordination Sequence:
#
# PCOD8186433 Si02
#       8
#    16  16   8  16   8  16   8  16
#     4  11  23  39  61  91 125 168 215 264 320 386
#     4  11  24  42  64  92 126 169 218 268 328 389
#     4  12  24  40  66  90 130 168 220 272 328 392
#     4  10  22  43  72 102 134 171 215 271 331 390
#     4  10  22  40  62  87 120 163 212 270 321 381
#     4  10  21  39  66  98 131 169 216 270 327 386
#     4  10  20  36  58  85 118 159 212 262 313 379
#     4  12  26  44  68  97 133 174 217 267 326 393
#
# _framework density 21.508831000000001
#
# number of rings (size 3 to 8) (size 9 to 14) (size 15 to 20)
#    0.000    1.231    3.077    2.769    1.077    4.615 
#    1.385    0.000    0.000    0.000    0.000    0.000 
#    0.000    0.000    0.000    0.000    0.000    0.000 
#
# Total GULP energy -322120.153645 kJ/mol
# GULP energy per Si atom -12389.236679 kJ/mol
# Density = 2.145988 g / cm^3
# Si number density = 21.508831 Si / 1000 Ang^3
#
#
#
# Elastic Constant Matrix: (Units=GPa)
#
#
# Indices 1 2 3 4 5 6 
#
# 1 155.1208 37.1600 57.5560 0.0000 0.0000 0.0000
# 2 37.1600 84.4684 31.7463 0.0000 0.0000 0.0000
# 3 57.5560 31.7463 112.0122 0.0000 0.0000 0.0000
# 4 0.0000 0.0000 0.0000 32.5800 0.0000 0.0000
# 5 0.0000 0.0000 0.0000 0.0000 35.6500 0.0000
# 6 0.0000 0.0000 0.0000 0.0000 0.0000 26.2682
#
#
#
# Elastic Compliance Matrix: (Units=1/GPa)
#
#
# Indices 1 2 3 4 5 6 
#
# 1 0.008348 -0.002306 -0.003636 0.000000 0.000000 0.000000
# 2 -0.002306 0.013887 -0.002751 0.000000 0.000000 0.000000
# 3 -0.003636 -0.002751 0.011576 0.000000 0.000000 0.000000
# 4 0.000000 0.000000 0.000000 0.030694 0.000000 0.000000
# 5 0.000000 0.000000 0.000000 0.000000 0.028051 0.000000
# 6 0.000000 0.000000 0.000000 0.000000 0.000000 0.038069
#
#
# Mechanical properties :
#
#
# Convention : Reuss Voigt Hill
#
# Bulk Modulus (GPa) = 60.88323 67.16955 64.02639
# Shear Modulus (GPa) = 32.57652 33.90890 33.24271
#
# Velocity S-wave (km/s) = 3.89596 3.97484 3.93560
# Velocity P-wave (km/s) = 6.97177 7.23619 7.10521
#
# Compressibility (1/GPa) = 0.01642489
#
# Stress axis : x y z
#
# Youngs Moduli (GPa) = 119.78757 72.00906 86.38878
#
# Poissons Ratio (x) = 0.16605 0.31411
# Poissons Ratio (y) = 0.27623 0.23765
# Poissons Ratio (z) = 0.43555 0.19809
#
# Static dielectric constant tensor:
#      x y z
#    x 3.835810 0.000000 0.000000 
#    y 0.000000 4.173460 0.000000 
#    z 0.000000 0.000000 3.701420 
# 
# 
# High freq. dielectric constant tensor:
#      x y z
#    x 1.845620 0.000000 0.000000 
#    y 0.000000 1.847560 0.000000 
#    z 0.000000 0.000000 1.833720 
# 
# From -- ./inp_files/31592.got.cif
#   From: 2010.03.12/outbox.cif.g09.slc.cpg/sg42_16_cif.got.tgz:31592.got - 2010.04.14 02:04:31.
