data_PCOD8186635
_publ_section_title
;
Structure prediction by ZEFSAII (Michael W. Deem and Ramdas Pophale) SiO2 
 PCOD8186635
Probable space group: F M M 2
;
_chemical_formula_sum "Si O2"
_cell_formula_units_Z 96
_cell_length_a 8.714311
_cell_length_b 25.320819
_cell_length_c 23.351698
_cell_angle_alpha 90.000000
_cell_angle_beta 90.000000
_cell_angle_gamma 90.000000
_cell_volume 5152.633697
_symmetry_space_group_name_H-M "F M M 2"
_symmetry_group_IT_number 42
_symmetry_cell_setting 'orthorhombic'
loop_
_space_group_symop_operation_xyz
x,y,z
-x,-y,z
-x,y,z
x,-y,z
x,1/2+y,1/2+z
-x,1/2-y,1/2+z
-x,1/2+y,1/2+z
x,1/2-y,1/2+z
1/2+x,y,1/2+z
1/2-x,-y,1/2+z
1/2-x,y,1/2+z
1/2+x,-y,1/2+z
1/2+x,1/2+y,z
1/2-x,1/2-y,z
1/2-x,1/2+y,z
1/2+x,1/2-y,z
loop_
_atom_site_type_symbol
_atom_site_label
_atom_site_fract_x
_atom_site_fract_y
_atom_site_fract_z
Si Si1 0.818831 0.940001 0.863110
Si Si2 0.174257 0.000000 0.040049
Si Si3 0.181768 0.902435 0.738509
Si Si4 0.821091 0.096595 0.476277
Si Si5 0.319612 0.805504 0.053446
Si Si6 0.682223 0.806694 0.674573
Si Si7 0.676064 0.500000 0.175296
O O1 0.766387 0.915830 0.802847
O O2 0.748954 0.904180 0.912959
O O3 0.000000 0.939466 0.868412
O O4 0.756940 0.000000 0.868424
O O5 0.186621 0.000000 0.107587
O O6 0.253290 0.948090 0.016490
O O7 0.000000 0.000000 0.018211
O O8 0.262087 0.847876 0.721983
O O9 0.237797 0.948415 0.697000
O O10 0.000000 0.896969 0.732655
O O11 0.781840 0.153027 0.503778
O O12 0.000000 0.086771 0.471589
O O13 0.500000 0.799450 0.064652
O O14 0.250000 0.750000 0.033110
O O15 0.241911 0.824752 0.112326
O O16 0.500000 0.803977 0.673676
O O17 0.750000 0.750000 0.691401
O O18 0.500000 0.500000 0.196282
#
# Coordination Sequence:
#
# PCOD8186635 Si02
#       7
#    16   8  16  16  16  16   8
#     4  10  21  39  60  83 112 154 196 233 286 343
#     4  11  23  36  53  80 115 150 186 229 284 345
#     4  11  22  39  60  84 116 153 193 239 290 345
#     4  11  23  37  57  85 114 148 191 238 286 337
#     4  10  21  38  60  87 117 152 192 234 289 345
#     4  11  22  38  61  89 118 153 194 237 290 345
#     4  11  23  36  55  86 117 150 190 237 290 347
#
# _framework density 18.631247999999999
#
# number of rings (size 3 to 8) (size 9 to 14) (size 15 to 20)
#    0.000    1.333    1.667    5.500    0.000    8.000 
#    0.000    0.833    0.000    2.000    0.000    0.000 
#    0.000    0.000    0.000    0.000    0.000    0.000 
#
# Total GULP energy -297722.072171 kJ/mol
# GULP energy per Si atom -12405.086340 kJ/mol
# Density = 1.858884 g / cm^3
# Si number density = 18.631248 Si / 1000 Ang^3
#
#
#
# Elastic Constant Matrix: (Units=GPa)
#
#
# Indices 1 2 3 4 5 6 
#
# 1 84.0477 48.9822 43.4760 0.0000 0.0000 0.0000
# 2 48.9822 115.3025 65.8632 0.0000 0.0000 0.0000
# 3 43.4760 65.8632 112.9767 0.0000 0.0000 0.0000
# 4 0.0000 0.0000 0.0000 30.7726 0.0000 0.0000
# 5 0.0000 0.0000 0.0000 0.0000 32.1589 0.0000
# 6 0.0000 0.0000 0.0000 0.0000 0.0000 37.5448
#
#
#
# Elastic Compliance Matrix: (Units=1/GPa)
#
#
# Indices 1 2 3 4 5 6 
#
# 1 0.016652 -0.005118 -0.003424 0.000000 0.000000 0.000000
# 2 -0.005118 0.014576 -0.006528 0.000000 0.000000 0.000000
# 3 -0.003424 -0.006528 0.013975 0.000000 0.000000 0.000000
# 4 0.000000 0.000000 0.000000 0.032496 0.000000 0.000000
# 5 0.000000 0.000000 0.000000 0.000000 0.031096 0.000000
# 6 0.000000 0.000000 0.000000 0.000000 0.000000 0.026635
#
#
# Mechanical properties :
#
#
# Convention : Reuss Voigt Hill
#
# Bulk Modulus (GPa) = 66.39155 69.88553 68.13854
# Shear Modulus (GPa) = 29.30983 30.36230 29.83606
#
# Velocity S-wave (km/s) = 3.97060 4.04126 4.00609
# Velocity P-wave (km/s) = 7.53212 7.70500 7.61905
#
# Compressibility (1/GPa) = 0.01506216
#
# Stress axis : x y z
#
# Youngs Moduli (GPa) = 60.05252 68.60622 71.55706
#
# Poissons Ratio (x) = 0.35112 0.24504
# Poissons Ratio (y) = 0.30735 0.46712
# Poissons Ratio (z) = 0.20565 0.44786
#
# Static dielectric constant tensor:
#      x y z
#    x 3.589170 0.000000 0.000000 
#    y 0.000000 3.508800 0.000000 
#    z 0.000000 0.000000 3.498280 
# 
# 
# High freq. dielectric constant tensor:
#      x y z
#    x 1.739170 0.000000 0.000000 
#    y 0.000000 1.727240 0.000000 
#    z 0.000000 0.000000 1.725410 
# 
# From -- ./inp_files/28106.got.cif
#   From: 2010.03.12/outbox.cif.g09.slc.cpg/sg42_15_cif.got.tgz:28106.got - 2010.04.14 02:04:31.
