data_PCOD8186602
_publ_section_title
;
Structure prediction by ZEFSAII (Michael W. Deem and Ramdas Pophale) SiO2 
 PCOD8186602
Probable space group: F M M 2
;
_chemical_formula_sum "Si O2"
_cell_formula_units_Z 80
_cell_length_a 8.797686
_cell_length_b 15.720163
_cell_length_c 28.471208
_cell_angle_alpha 90.000000
_cell_angle_beta 90.000000
_cell_angle_gamma 90.000000
_cell_volume 3937.598187
_symmetry_space_group_name_H-M "F M M 2"
_symmetry_group_IT_number 42
_symmetry_cell_setting 'orthorhombic'
loop_
_space_group_symop_operation_xyz
x,y,z
-x,-y,z
-x,y,z
x,-y,z
x,1/2+y,1/2+z
-x,1/2-y,1/2+z
-x,1/2+y,1/2+z
x,1/2-y,1/2+z
1/2+x,y,1/2+z
1/2-x,-y,1/2+z
1/2-x,y,1/2+z
1/2+x,-y,1/2+z
1/2+x,1/2+y,z
1/2-x,1/2-y,z
1/2-x,1/2+y,z
1/2+x,1/2-y,z
loop_
_atom_site_type_symbol
_atom_site_label
_atom_site_fract_x
_atom_site_fract_y
_atom_site_fract_z
Si Si1 0.179796 0.163398 0.785030
Si Si2 0.679851 0.000000 0.229221
Si Si3 0.328292 0.095672 0.874104
Si Si4 0.180333 0.500000 0.121549
Si Si5 0.679128 0.841120 0.568604
Si Si6 0.821932 0.660571 0.461136
O O1 0.250000 0.250000 0.763980
O O2 0.243878 0.084821 0.754269
O O3 0.231748 0.153827 0.838936
O O4 0.000000 0.169230 0.782741
O O5 0.731964 0.000000 0.175486
O O6 0.500000 0.000000 0.233903
O O7 0.500000 0.130804 0.876694
O O8 0.253919 0.093662 0.925884
O O9 0.325460 0.000000 0.854781
O O10 0.247245 0.585143 0.099205
O O11 0.000000 0.500000 0.115369
O O12 0.500000 0.836999 0.577868
O O13 0.750000 0.750000 0.582475
O O14 0.716372 0.864119 0.514635
O O15 0.750000 0.750000 0.447664
O O16 0.000000 0.663556 0.452586
#
# Coordination Sequence:
#
# PCOD8186602 Si02
#       6
#    16   8  16   8  16  16
#     4  11  22  41  65  89 120 159 200 245 300 358
#     4   9  22  43  64  89 120 155 200 249 304 365
#     4  11  23  37  56  87 123 158 202 247 293 353
#     4  11  23  41  66  93 124 159 200 255 314 369
#     4  10  22  41  63  92 125 163 208 253 303 363
#     4  10  21  37  58  83 118 159 202 245 292 350
#
# _framework density 20.316953999999999
#
# number of rings (size 3 to 8) (size 9 to 14) (size 15 to 20)
#    0.000    1.600    1.000    3.300    1.400    4.400 
#    0.000    6.000    0.000    0.000    0.000    0.000 
#    0.000    0.000    0.000    0.000    0.000    0.000 
#
# Total GULP energy -248057.759215 kJ/mol
# GULP energy per Si atom -12402.887961 kJ/mol
# Density = 2.027071 g / cm^3
# Si number density = 20.316954 Si / 1000 Ang^3
#
#
#
# Elastic Constant Matrix: (Units=GPa)
#
#
# Indices 1 2 3 4 5 6 
#
# 1 105.4376 59.7578 52.2955 0.0000 0.0000 0.0000
# 2 59.7578 156.3686 77.1559 0.0000 0.0000 0.0000
# 3 52.2955 77.1559 124.9833 0.0000 0.0000 0.0000
# 4 0.0000 0.0000 0.0000 26.2740 0.0000 0.0000
# 5 0.0000 0.0000 0.0000 0.0000 25.3170 0.0000
# 6 0.0000 0.0000 0.0000 0.0000 0.0000 37.2523
#
#
#
# Elastic Compliance Matrix: (Units=1/GPa)
#
#
# Indices 1 2 3 4 5 6 
#
# 1 0.013052 -0.003298 -0.003425 0.000000 0.000000 0.000000
# 2 -0.003298 0.010030 -0.004812 0.000000 0.000000 0.000000
# 3 -0.003425 -0.004812 0.012405 0.000000 0.000000 0.000000
# 4 0.000000 0.000000 0.000000 0.038061 0.000000 0.000000
# 5 0.000000 0.000000 0.000000 0.000000 0.039499 0.000000
# 6 0.000000 0.000000 0.000000 0.000000 0.000000 0.026844
#
#
# Mechanical properties :
#
#
# Convention : Reuss Voigt Hill
#
# Bulk Modulus (GPa) = 80.53700 85.02310 82.78005
# Shear Modulus (GPa) = 29.92230 30.94068 30.43149
#
# Velocity S-wave (km/s) = 3.84184 3.90667 3.87439
# Velocity P-wave (km/s) = 7.70753 7.89231 7.80047
#
# Compressibility (1/GPa) = 0.01241665
#
# Stress axis : x y z
#
# Youngs Moduli (GPa) = 76.61444 99.70416 80.61411
#
# Poissons Ratio (x) = 0.32881 0.27614
# Poissons Ratio (y) = 0.25266 0.38789
# Poissons Ratio (z) = 0.26244 0.47975
#
# Static dielectric constant tensor:
#      x y z
#    x 3.669500 0.000000 0.000000 
#    y 0.000000 3.766630 0.000000 
#    z 0.000000 0.000000 3.686350 
# 
# 
# High freq. dielectric constant tensor:
#      x y z
#    x 1.797880 0.000000 0.000000 
#    y 0.000000 1.803450 0.000000 
#    z 0.000000 0.000000 1.789300 
# 
# From -- ./inp_files/31327.got.cif
#   From: 2010.03.12/outbox.cif.g09.slc.cpg/sg42_16_cif.got.tgz:31327.got - 2010.04.14 02:04:31.
