data_PCOD8186960
_publ_section_title
;
Structure prediction by ZEFSAII (Michael W. Deem and Ramdas Pophale) SiO2 
 PCOD8186960
Probable space group: F D D 2
;
_chemical_formula_sum "Si O2"
_cell_formula_units_Z 96
_cell_length_a 21.987813
_cell_length_b 11.285257
_cell_length_c 18.031061
_cell_angle_alpha 90.000000
_cell_angle_beta 90.000000
_cell_angle_gamma 90.000000
_cell_volume 4474.193588
_symmetry_space_group_name_H-M "F D D 2"
_symmetry_group_IT_number 43
_symmetry_cell_setting 'orthorhombic'
loop_
_space_group_symop_operation_xyz
x,y,z
-x,-y,z
1/4-x,1/4+y,1/4+z
1/4+x,1/4-y,1/4+z
x,1/2+y,1/2+z
-x,1/2-y,1/2+z
1/4-x,3/4+y,3/4+z
1/4+x,3/4-y,3/4+z
1/2+x,y,1/2+z
1/2-x,-y,1/2+z
3/4-x,1/4+y,3/4+z
3/4+x,1/4-y,3/4+z
1/2+x,1/2+y,z
1/2-x,1/2-y,z
3/4-x,3/4+y,1/4+z
3/4+x,3/4-y,1/4+z
loop_
_atom_site_type_symbol
_atom_site_label
_atom_site_fract_x
_atom_site_fract_y
_atom_site_fract_z
Si Si1 0.006893 0.859178 0.879060
Si Si2 0.665134 0.531458 0.000199
Si Si3 0.023424 0.367596 0.688781
Si Si4 0.426927 0.986789 0.172382
Si Si5 0.350980 0.522861 0.535047
Si Si6 0.454572 0.105521 0.530072
O O1 0.065473 0.819435 0.832522
O O2 0.946340 0.800897 0.849778
O O3 0.018570 0.814734 0.963414
O O4 0.000000 0.000000 0.878027
O O5 0.610639 0.439906 0.004030
O O6 0.720305 0.473733 0.955945
O O7 0.644224 0.647666 0.956065
O O8 0.079758 0.348233 0.744937
O O9 0.048491 0.326440 0.608038
O O10 0.000000 0.500000 0.697674
O O11 0.399347 0.876179 0.220968
O O12 0.500000 0.000000 0.184049
O O13 0.411626 0.989878 0.083073
O O14 0.500000 0.000000 0.548628
#
# Coordination Sequence:
#
# PCOD8186960 Si02
#       6
#    16  16  16  16  16  16
#     4  10  18  40  61  96 127 161 223 276 334 391
#     4  11  22  39  70  91 133 174 215 297 334 404
#     4  10  24  45  62  94 140 179 225 278 347 412
#     4  12  23  45  75 104 137 181 234 289 359 416
#     4  11  24  44  69 101 140 182 224 292 342 424
#     4  10  23  36  62  98 123 173 228 267 336 411
#
# _framework density 21.456379999999999
#
# number of rings (size 3 to 8) (size 9 to 14) (size 15 to 20)
#    0.000    1.333    5.000    2.000    4.667    2.667 
#    0.000    2.500    0.000    0.000    0.000    0.000 
#    0.000    0.000    0.000    0.000    0.000    0.000 
#
# Total GULP energy -297368.338042 kJ/mol
# GULP energy per Si atom -12390.347418 kJ/mol
# Density = 2.140754 g / cm^3
# Si number density = 21.456380 Si / 1000 Ang^3
#
#
#
# Elastic Constant Matrix: (Units=GPa)
#
#
# Indices 1 2 3 4 5 6 
#
# 1 59.4521 2.7103 46.5596 0.0000 0.0000 0.0000
# 2 2.7103 76.6078 53.6829 0.0000 0.0000 0.0000
# 3 46.5596 53.6829 176.0352 0.0000 0.0000 0.0000
# 4 0.0000 0.0000 0.0000 2.1823 0.0000 0.0000
# 5 0.0000 0.0000 0.0000 0.0000 55.2902 0.0000
# 6 0.0000 0.0000 0.0000 0.0000 0.0000 13.7417
#
#
#
# Elastic Compliance Matrix: (Units=1/GPa)
#
#
# Indices 1 2 3 4 5 6 
#
# 1 0.022249 0.004243 -0.007179 0.000000 0.000000 0.000000
# 2 0.004243 0.017410 -0.006432 0.000000 0.000000 0.000000
# 3 -0.007179 -0.006432 0.009541 0.000000 0.000000 0.000000
# 4 0.000000 0.000000 0.000000 0.458240 0.000000 0.000000
# 5 0.000000 0.000000 0.000000 0.000000 0.018086 0.000000
# 6 0.000000 0.000000 0.000000 0.000000 0.000000 0.072771
#
#
# Mechanical properties :
#
#
# Convention : Reuss Voigt Hill
#
# Bulk Modulus (GPa) = 32.82372 57.55565 45.18968
# Shear Modulus (GPa) = 7.97211 28.18565 18.07888
#
# Velocity S-wave (km/s) = 1.92965 3.62833 2.90588
# Velocity P-wave (km/s) = 4.50509 6.66601 5.68909
#
# Compressibility (1/GPa) = 0.03046577
#
# Stress axis : x y z
#
# Youngs Moduli (GPa) = 44.94646 57.43696 104.81385
#
# Poissons Ratio (x) = -0.24372 0.75241
# Poissons Ratio (y) = -0.19072 0.67413
# Poissons Ratio (z) = 0.32265 0.36942
#
# Static dielectric constant tensor:
#      x y z
#    x 3.396540 0.000000 0.000000 
#    y 0.000000 3.808070 0.000000 
#    z 0.000000 0.000000 4.539220 
# 
# 
# High freq. dielectric constant tensor:
#      x y z
#    x 1.833490 0.000000 0.000000 
#    y 0.000000 1.819390 0.000000 
#    z 0.000000 0.000000 1.865360 
# 
# From -- ./inp_files/13301.got.cif
#   From: 2010.06.25/outbox.cif.g09.slc.cpg/sg43_7_cif.got.tgz:13301.got - 2010.06.26 16:48:59.
