data_PCOD8186808
_publ_section_title
;
Structure prediction by ZEFSAII (Michael W. Deem and Ramdas Pophale) SiO2 
 PCOD8186808
Probable space group: F M M 2
;
_chemical_formula_sum "Si O2"
_cell_formula_units_Z 112
_cell_length_a 17.333349
_cell_length_b 13.977166
_cell_length_c 22.735454
_cell_angle_alpha 90.000000
_cell_angle_beta 90.000000
_cell_angle_gamma 90.000000
_cell_volume 5508.143366
_symmetry_space_group_name_H-M "F M M 2"
_symmetry_group_IT_number 42
_symmetry_cell_setting 'orthorhombic'
loop_
_space_group_symop_operation_xyz
x,y,z
-x,-y,z
-x,y,z
x,-y,z
x,1/2+y,1/2+z
-x,1/2-y,1/2+z
-x,1/2+y,1/2+z
x,1/2-y,1/2+z
1/2+x,y,1/2+z
1/2-x,-y,1/2+z
1/2-x,y,1/2+z
1/2+x,-y,1/2+z
1/2+x,1/2+y,z
1/2-x,1/2-y,z
1/2-x,1/2+y,z
1/2+x,1/2-y,z
loop_
_atom_site_type_symbol
_atom_site_label
_atom_site_fract_x
_atom_site_fract_y
_atom_site_fract_z
Si Si1 0.317455 0.110160 0.599580
Si Si2 0.413172 0.264426 0.324796
Si Si3 0.586828 0.235574 0.041351
Si Si4 0.091519 0.391702 0.933074
Si Si5 0.354927 0.390170 0.230819
Si Si6 0.682545 0.110160 0.266567
Si Si7 0.354927 0.890170 0.135328
O O1 0.357304 0.172914 0.548655
O O2 0.359833 0.130710 0.661541
O O3 0.228385 0.137326 0.608328
O O4 0.326472 0.000000 0.581306
O O5 0.500000 0.229317 0.339281
O O6 0.379985 0.332981 0.376075
O O7 0.416426 0.325103 0.264431
O O8 0.357304 0.172914 0.317492
O O9 0.500000 0.270683 0.026866
O O10 0.583574 0.174897 0.101716
O O11 0.620015 0.167019 0.990072
O O12 0.126607 0.500000 0.933074
O O13 0.000000 0.399747 0.933074
O O14 0.374054 0.500000 0.243299
O O15 0.271615 0.362674 0.257819
O O16 0.640166 0.130710 0.204606
O O17 0.673528 0.000000 0.284841
O O18 0.374054 0.000000 0.122848
#
# Coordination Sequence:
#
# PCOD8186808 Si02
#       7
#    16  16  16  16  16  16  16
#     4   9  19  35  53  76 109 143 169 200 252 318
#     4  11  21  33  53  78 102 133 175 221 263 303
#     4  11  21  33  53  78 102 133 175 221 263 303
#     4   9  20  38  54  71 101 139 177 218 266 316
#     4   9  18  34  55  77 105 141 173 204 252 311
#     4   9  19  35  53  76 109 143 169 200 252 318
#     4   9  18  34  55  77 105 141 173 204 252 311
#
# _framework density 20.333531000000001
#
# number of rings (size 3 to 8) (size 9 to 14) (size 15 to 20)
#    0.000    2.429    0.000    4.286    0.000    6.857 
#    0.000    6.429    0.000    6.000    0.000    0.000 
#    0.000    0.000    0.000    0.000    0.000    0.000 
#
# Total GULP energy -347155.609250 kJ/mol
# GULP energy per Si atom -12398.414616 kJ/mol
# Density = 2.028725 g / cm^3
# Si number density = 20.333531 Si / 1000 Ang^3
#
#
#
# Elastic Constant Matrix: (Units=GPa)
#
#
# Indices 1 2 3 4 5 6 
#
# 1 41.3664 33.0434 16.8805 0.0000 0.0000 0.0000
# 2 33.0434 115.1517 55.1439 0.0000 0.0000 0.0000
# 3 16.8805 55.1439 72.1672 0.0000 0.0000 0.0000
# 4 0.0000 0.0000 0.0000 43.7856 0.0000 0.0000
# 5 0.0000 0.0000 0.0000 0.0000 25.0055 0.0000
# 6 0.0000 0.0000 0.0000 0.0000 0.0000 33.9542
#
#
#
# Elastic Compliance Matrix: (Units=1/GPa)
#
#
# Indices 1 2 3 4 5 6 
#
# 1 0.031387 -0.008660 -0.000725 0.000000 0.000000 0.000000
# 2 -0.008660 0.016085 -0.010265 0.000000 0.000000 0.000000
# 3 -0.000725 -0.010265 0.021870 0.000000 0.000000 0.000000
# 4 0.000000 0.000000 0.000000 0.022839 0.000000 0.000000
# 5 0.000000 0.000000 0.000000 0.000000 0.039991 0.000000
# 6 0.000000 0.000000 0.000000 0.000000 0.000000 0.029451
#
#
# Mechanical properties :
#
#
# Convention : Reuss Voigt Hill
#
# Bulk Modulus (GPa) = 33.28563 48.75789 41.02176
# Shear Modulus (GPa) = 23.70378 28.79021 26.24700
#
# Velocity S-wave (km/s) = 3.41801 3.76692 3.59670
# Velocity P-wave (km/s) = 5.65530 6.55368 6.12099
#
# Compressibility (1/GPa) = 0.03004300
#
# Stress axis : x y z
#
# Youngs Moduli (GPa) = 31.86004 62.17019 45.72483
#
# Poissons Ratio (x) = 0.53837 0.03314
# Poissons Ratio (y) = 0.27590 0.46937
# Poissons Ratio (z) = 0.02309 0.63818
#
# Static dielectric constant tensor:
#      x y z
#    x 3.315340 0.000000 0.000000 
#    y 0.000000 3.779490 0.000000 
#    z 0.000000 0.000000 3.544160 
# 
# 
# High freq. dielectric constant tensor:
#      x y z
#    x 1.764630 0.000000 0.000000 
#    y 0.000000 1.807250 0.000000 
#    z 0.000000 0.000000 1.773390 
# 
# From -- ./inp_files/29481.got.cif
#   From: 2010.03.12/outbox.cif.g09.slc.cpg/sg42_15_cif.got.tgz:29481.got - 2010.04.14 02:04:31.
