data_PCOD8186652
_publ_section_title
;
Structure prediction by ZEFSAII (Michael W. Deem and Ramdas Pophale) SiO2 
 PCOD8186652
Probable space group: F M M 2
;
_chemical_formula_sum "Si O2"
_cell_formula_units_Z 88
_cell_length_a 20.118299
_cell_length_b 14.528628
_cell_length_c 15.020080
_cell_angle_alpha 90.000000
_cell_angle_beta 90.000000
_cell_angle_gamma 90.000000
_cell_volume 4390.238441
_symmetry_space_group_name_H-M "F M M 2"
_symmetry_group_IT_number 42
_symmetry_cell_setting 'orthorhombic'
loop_
_space_group_symop_operation_xyz
x,y,z
-x,-y,z
-x,y,z
x,-y,z
x,1/2+y,1/2+z
-x,1/2-y,1/2+z
-x,1/2+y,1/2+z
x,1/2-y,1/2+z
1/2+x,y,1/2+z
1/2-x,-y,1/2+z
1/2-x,y,1/2+z
1/2+x,-y,1/2+z
1/2+x,1/2+y,z
1/2-x,1/2-y,z
1/2-x,1/2+y,z
1/2+x,1/2-y,z
loop_
_atom_site_type_symbol
_atom_site_label
_atom_site_fract_x
_atom_site_fract_y
_atom_site_fract_z
Si Si1 0.426373 0.896916 0.567070
Si Si2 0.815875 0.200010 0.354540
Si Si3 0.195250 0.683921 0.651220
Si Si4 0.074605 0.840572 0.871734
Si Si5 0.733494 0.000000 0.119598
Si Si6 0.721622 0.000000 0.906030
Si Si7 0.147492 0.000000 0.783299
O O1 0.500000 0.870826 0.602823
O O2 0.374920 0.819245 0.600117
O O3 0.426650 0.900045 0.461018
O O4 0.406875 0.000000 0.599841
O O5 0.750000 0.250000 0.394584
O O6 0.818148 0.219175 0.249780
O O7 0.882066 0.249060 0.390833
O O8 0.818419 0.092076 0.379224
O O9 0.250000 0.750000 0.603380
O O10 0.224840 0.583989 0.654922
O O11 0.105699 0.906774 0.796615
O O12 0.000000 0.811265 0.843342
O O13 0.666081 0.000000 0.178138
O O14 0.727089 0.000000 0.013151
O O15 0.791591 0.000000 0.854324
#
# Coordination Sequence:
#
# PCOD8186652 Si02
#       7
#    16  16  16  16   8   8   8
#     4  10  21  38  63  93 122 158 206 256 308 363
#     4  11  23  41  62  91 125 161 205 252 309 370
#     4  11  22  38  60  92 125 158 204 253 307 368
#     4  11  23  40  64  92 125 164 206 255 312 366
#     4  12  24  37  60  96 124 157 205 253 314 369
#     4  12  24  39  64  95 124 163 200 258 314 362
#     4  12  19  42  66  93 127 156 207 265 307 361
#
# _framework density 20.04447
#
# number of rings (size 3 to 8) (size 9 to 14) (size 15 to 20)
#    0.000    0.909    5.455    2.455    2.545    0.727 
#    0.000    0.455    0.000    1.091    0.000    0.000 
#    0.000    0.000    0.000    0.000    0.000    0.000 
#
# Total GULP energy -272721.557063 kJ/mol
# GULP energy per Si atom -12396.434412 kJ/mol
# Density = 1.999885 g / cm^3
# Si number density = 20.044470 Si / 1000 Ang^3
#
#
#
# Elastic Constant Matrix: (Units=GPa)
#
#
# Indices 1 2 3 4 5 6 
#
# 1 164.7516 69.3035 33.0971 0.0000 0.0000 0.0000
# 2 69.3035 125.7629 1.5894 0.0000 0.0000 0.0000
# 3 33.0971 1.5894 72.2739 0.0000 0.0000 0.0000
# 4 0.0000 0.0000 0.0000 22.1820 0.0000 0.0000
# 5 0.0000 0.0000 0.0000 0.0000 27.2301 0.0000
# 6 0.0000 0.0000 0.0000 0.0000 0.0000 37.3715
#
#
#
# Elastic Compliance Matrix: (Units=1/GPa)
#
#
# Indices 1 2 3 4 5 6 
#
# 1 0.008913 -0.004862 -0.003975 0.000000 0.000000 0.000000
# 2 -0.004862 0.010605 0.001993 0.000000 0.000000 0.000000
# 3 -0.003975 0.001993 0.015613 0.000000 0.000000 0.000000
# 4 0.000000 0.000000 0.000000 0.045082 0.000000 0.000000
# 5 0.000000 0.000000 0.000000 0.000000 0.036724 0.000000
# 6 0.000000 0.000000 0.000000 0.000000 0.000000 0.026758
#
#
# Mechanical properties :
#
#
# Convention : Reuss Voigt Hill
#
# Bulk Modulus (GPa) = 46.63175 63.41871 55.02523
# Shear Modulus (GPa) = 30.38958 34.60995 32.49977
#
# Velocity S-wave (km/s) = 3.89795 4.15982 4.03101
# Velocity P-wave (km/s) = 6.60101 7.40134 7.01260
#
# Compressibility (1/GPa) = 0.02144461
#
# Stress axis : x y z
#
# Youngs Moduli (GPa) = 112.19196 94.29233 64.05057
#
# Poissons Ratio (x) = 0.45841 0.25459
# Poissons Ratio (y) = 0.54543 -0.12766
# Poissons Ratio (z) = 0.44595 -0.18793
#
# Static dielectric constant tensor:
#      x y z
#    x 3.844130 0.000000 0.000000 
#    y 0.000000 3.666240 0.000000 
#    z 0.000000 0.000000 3.593150 
# 
# 
# High freq. dielectric constant tensor:
#      x y z
#    x 1.777700 0.000000 0.000000 
#    y 0.000000 1.786200 0.000000 
#    z 0.000000 0.000000 1.767580 
# 
# From -- ./inp_files/13934.got.cif
#   From: 2010.03.12/outbox.cif.g09.slc.cpg/sg42_7_cif.got.tgz:13934.got - 2010.04.14 02:04:31.
