data_PCOD8186039
_publ_section_title
;
Structure prediction by ZEFSAII (Michael W. Deem and Ramdas Pophale) SiO2 
 PCOD8186039
Probable space group: F M M 2
;
_chemical_formula_sum "Si O2"
_cell_formula_units_Z 80
_cell_length_a 26.038318
_cell_length_b 9.004902
_cell_length_c 18.292009
_cell_angle_alpha 90.000000
_cell_angle_beta 90.000000
_cell_angle_gamma 90.000000
_cell_volume 4288.973114
_symmetry_space_group_name_H-M "F M M 2"
_symmetry_group_IT_number 42
_symmetry_cell_setting 'orthorhombic'
loop_
_space_group_symop_operation_xyz
x,y,z
-x,-y,z
-x,y,z
x,-y,z
x,1/2+y,1/2+z
-x,1/2-y,1/2+z
-x,1/2+y,1/2+z
x,1/2-y,1/2+z
1/2+x,y,1/2+z
1/2-x,-y,1/2+z
1/2-x,y,1/2+z
1/2+x,-y,1/2+z
1/2+x,1/2+y,z
1/2-x,1/2-y,z
1/2-x,1/2+y,z
1/2+x,1/2-y,z
loop_
_atom_site_type_symbol
_atom_site_label
_atom_site_fract_x
_atom_site_fract_y
_atom_site_fract_z
Si Si1 0.699467 0.168360 0.367810
Si Si2 0.901573 0.827166 0.195111
Si Si3 0.904135 0.826085 0.365879
Si Si4 0.200285 0.333637 0.193735
Si Si5 0.000000 0.675577 0.610336
Si Si6 0.500000 0.823649 0.442342
O O1 0.750000 0.250000 0.399447
O O2 0.649415 0.257903 0.394474
O O3 0.701762 0.168300 0.280825
O O4 0.697352 0.000000 0.397877
O O5 0.911441 0.796350 0.280159
O O6 0.850999 0.745771 0.165467
O O7 0.949529 0.760606 0.150332
O O8 0.893264 0.000000 0.179952
O O9 0.949695 0.743520 0.406340
O O10 0.905208 0.000000 0.384161
O O11 0.200926 0.500000 0.163038
O O12 0.250000 0.250000 0.161838
O O13 0.000000 0.724600 0.526657
O O14 0.000000 0.500000 0.619958
O O15 0.500000 0.000000 0.432348
#
# Coordination Sequence:
#
# PCOD8186039 Si02
#       6
#    16  16  16  16   8   8
#     4   9  16  27  45  72 104 133 162 198 242 291
#     4   9  17  32  53  74  97 128 166 204 241 286
#     4  10  19  32  52  76 101 130 165 205 247 292
#     4   9  16  26  43  71 103 131 159 195 241 289
#     4   9  19  35  53  71  94 129 168 204 246 293
#     4  11  22  35  51  71  98 131 166 206 252 299
#
# _framework density 18.652484000000001
#
# number of rings (size 3 to 8) (size 9 to 14) (size 15 to 20)
#    0.000    2.600    0.000    2.700    0.000    7.200 
#    0.000    2.500    0.000    1.200    0.000    5.600 
#    0.000    0.000    0.000    0.000    0.000    0.000 
#
# Total GULP energy -248007.129887 kJ/mol
# GULP energy per Si atom -12400.356494 kJ/mol
# Density = 1.861003 g / cm^3
# Si number density = 18.652484 Si / 1000 Ang^3
#
#
#
# Elastic Constant Matrix: (Units=GPa)
#
#
# Indices 1 2 3 4 5 6 
#
# 1 220.1098 93.1327 57.9770 0.0000 0.0000 0.0000
# 2 93.1327 127.1009 42.1822 0.0000 0.0000 0.0000
# 3 57.9770 42.1822 44.5789 0.0000 0.0000 0.0000
# 4 0.0000 0.0000 0.0000 13.0932 0.0000 0.0000
# 5 0.0000 0.0000 0.0000 0.0000 -4.7956 0.0000
# 6 0.0000 0.0000 0.0000 0.0000 0.0000 42.3994
#
#
#
# Elastic Compliance Matrix: (Units=1/GPa)
#
#
# Indices 1 2 3 4 5 6 
#
# 1 0.007818 -0.003432 -0.006920 0.000000 0.000000 0.000000
# 2 -0.003432 0.012976 -0.007815 0.000000 0.000000 0.000000
# 3 -0.006920 -0.007815 0.038827 0.000000 0.000000 0.000000
# 4 0.000000 0.000000 0.000000 0.076376 0.000000 0.000000
# 5 0.000000 0.000000 0.000000 0.000000 -0.208523 0.000000
# 6 0.000000 0.000000 0.000000 0.000000 0.000000 0.023585
#
#
# Mechanical properties :
#
#
# Convention : Reuss Voigt Hill
#
# Bulk Modulus (GPa) = 42.94286 86.48594 64.71440
# Shear Modulus (GPa) = -1032.49497 23.37257 -504.56120
#
# Velocity S-wave (km/s) = -23.55302 3.54369 -16.46491
# Velocity P-wave (km/s) = 26.76914 7.95055 18.07451
#
# Compressibility (1/GPa) = 0.02328676
#
# Stress axis : x y z
#
# Youngs Moduli (GPa) = 127.90721 77.06404 25.75496
#
# Poissons Ratio (x) = 0.26448 0.17824
# Poissons Ratio (y) = 0.43897 0.20128
# Poissons Ratio (z) = 0.88517 0.60227
#
# Static dielectric constant tensor:
#      x y z
#    x 3.762740 0.000000 0.000000 
#    y 0.000000 3.496440 0.000000 
#    z 0.000000 0.000000 2.976520 
# 
# 
# High freq. dielectric constant tensor:
#      x y z
#    x 1.746550 0.000000 0.000000 
#    y 0.000000 1.726870 0.000000 
#    z 0.000000 0.000000 1.668960 
# 
# From -- ./inp_files/18224.got.cif
#   From: 2010.03.12/outbox.cif.g09.slc.cpg/sg42_10_cif.got.tgz:18224.got - 2010.04.14 02:04:31.
