data_PCOD8186328
_publ_section_title
;
Structure prediction by ZEFSAII (Michael W. Deem and Ramdas Pophale) SiO2 
 PCOD8186328
Probable space group: F M M 2
;
_chemical_formula_sum "Si O2"
_cell_formula_units_Z 112
_cell_length_a 22.903526
_cell_length_b 15.045475
_cell_length_c 16.554570
_cell_angle_alpha 90.000000
_cell_angle_beta 90.000000
_cell_angle_gamma 90.000000
_cell_volume 5704.612577
_symmetry_space_group_name_H-M "F M M 2"
_symmetry_group_IT_number 42
_symmetry_cell_setting 'orthorhombic'
loop_
_space_group_symop_operation_xyz
x,y,z
-x,-y,z
-x,y,z
x,-y,z
x,1/2+y,1/2+z
-x,1/2-y,1/2+z
-x,1/2+y,1/2+z
x,1/2-y,1/2+z
1/2+x,y,1/2+z
1/2-x,-y,1/2+z
1/2-x,y,1/2+z
1/2+x,-y,1/2+z
1/2+x,1/2+y,z
1/2-x,1/2-y,z
1/2-x,1/2+y,z
1/2+x,1/2-y,z
loop_
_atom_site_type_symbol
_atom_site_label
_atom_site_fract_x
_atom_site_fract_y
_atom_site_fract_z
Si Si1 0.266777 0.342297 0.703950
Si Si2 0.680056 0.601982 0.433097
Si Si3 0.149308 0.901615 0.157380
Si Si4 0.931973 0.743409 0.205611
Si Si5 0.873402 0.099210 0.602812
Si Si6 0.187316 0.601147 0.476779
Si Si7 0.346730 0.775677 0.342558
O O1 0.250000 0.250000 0.658819
O O2 0.206300 0.396021 0.715798
O O3 0.311959 0.396541 0.650005
O O4 0.293257 0.316983 0.791252
O O5 0.674309 0.500000 0.401294
O O6 0.636503 0.617507 0.508337
O O7 0.744943 0.622352 0.463849
O O8 0.663156 0.671524 0.362971
O O9 0.098722 0.834846 0.181485
O O10 0.122559 0.000000 0.162915
O O11 0.171935 0.878396 0.068536
O O12 0.919798 0.669046 0.137825
O O13 0.906292 0.713078 0.291845
O O14 0.000000 0.760420 0.214087
O O15 0.898514 0.000000 0.615370
O O16 0.172569 0.500000 0.452964
O O17 0.147385 0.666174 0.423199
#
# Coordination Sequence:
#
# PCOD8186328 Si02
#       7
#    16  16  16  16  16  16  16
#     4  11  19  34  55  95 125 154 186 231 304 368
#     4  10  20  34  57  94 130 156 183 230 303 382
#     4  11  22  39  63  89 121 158 200 249 304 363
#     4  11  26  44  59  82 116 163 220 261 294 340
#     4  10  20  37  64  92 121 155 194 246 305 363
#     4  10  21  35  58  93 126 153 183 233 309 382
#     4  11  23  36  57  87 124 160 196 243 298 362
#
# _framework density 19.633234999999999
#
# number of rings (size 3 to 8) (size 9 to 14) (size 15 to 20)
#    0.000    1.429    4.286    2.571    0.000    4.000 
#    0.000    2.857    0.000    1.714    0.000    0.000 
#    0.000    0.000    0.000    0.000    0.000    0.000 
#
# Total GULP energy -347178.128469 kJ/mol
# GULP energy per Si atom -12399.218874 kJ/mol
# Density = 1.958855 g / cm^3
# Si number density = 19.633235 Si / 1000 Ang^3
#
#
#
# Elastic Constant Matrix: (Units=GPa)
#
#
# Indices 1 2 3 4 5 6 
#
# 1 119.5037 36.6301 33.7341 0.0000 0.0000 0.0000
# 2 36.6301 99.2129 43.3107 0.0000 0.0000 0.0000
# 3 33.7341 43.3107 78.8274 0.0000 0.0000 0.0000
# 4 0.0000 0.0000 0.0000 30.5586 0.0000 0.0000
# 5 0.0000 0.0000 0.0000 0.0000 15.6413 0.0000
# 6 0.0000 0.0000 0.0000 0.0000 0.0000 14.4750
#
#
#
# Elastic Compliance Matrix: (Units=1/GPa)
#
#
# Indices 1 2 3 4 5 6 
#
# 1 0.009928 -0.002382 -0.002940 0.000000 0.000000 0.000000
# 2 -0.002382 0.013831 -0.006580 0.000000 0.000000 0.000000
# 3 -0.002940 -0.006580 0.017559 0.000000 0.000000 0.000000
# 4 0.000000 0.000000 0.000000 0.032724 0.000000 0.000000
# 5 0.000000 0.000000 0.000000 0.000000 0.063933 0.000000
# 6 0.000000 0.000000 0.000000 0.000000 0.000000 0.069085
#
#
# Mechanical properties :
#
#
# Convention : Reuss Voigt Hill
#
# Bulk Modulus (GPa) = 57.09493 58.32153 57.70823
# Shear Modulus (GPa) = 21.12353 24.39290 22.75822
#
# Velocity S-wave (km/s) = 3.28366 3.52863 3.40835
# Velocity P-wave (km/s) = 6.59700 6.80968 6.70418
#
# Compressibility (1/GPa) = 0.01751469
#
# Stress axis : x y z
#
# Youngs Moduli (GPa) = 100.72543 72.29989 56.94981
#
# Poissons Ratio (x) = 0.17223 0.16742
# Poissons Ratio (y) = 0.23994 0.37473
# Poissons Ratio (z) = 0.29612 0.47573
#
# Static dielectric constant tensor:
#      x y z
#    x 3.109220 0.000000 0.000000 
#    y 0.000000 3.786800 0.000000 
#    z 0.000000 0.000000 3.628760 
# 
# 
# High freq. dielectric constant tensor:
#      x y z
#    x 1.713290 0.000000 0.000000 
#    y 0.000000 1.782460 0.000000 
#    z 0.000000 0.000000 1.771810 
# 
# From -- ./inp_files/16548.got.cif
#   From: 2010.03.12/outbox.cif.g09.slc.cpg/sg42_9_cif.got.tgz:16548.got - 2010.04.14 02:04:31.
