data_PCOD8186483
_publ_section_title
;
Structure prediction by ZEFSAII (Michael W. Deem and Ramdas Pophale) SiO2 
 PCOD8186483
Probable space group: F M M 2
;
_chemical_formula_sum "Si O2"
_cell_formula_units_Z 96
_cell_length_a 8.578600
_cell_length_b 23.395925
_cell_length_c 25.204711
_cell_angle_alpha 90.000000
_cell_angle_beta 90.000000
_cell_angle_gamma 90.000000
_cell_volume 5058.693429
_symmetry_space_group_name_H-M "F M M 2"
_symmetry_group_IT_number 42
_symmetry_cell_setting 'orthorhombic'
loop_
_space_group_symop_operation_xyz
x,y,z
-x,-y,z
-x,y,z
x,-y,z
x,1/2+y,1/2+z
-x,1/2-y,1/2+z
-x,1/2+y,1/2+z
x,1/2-y,1/2+z
1/2+x,y,1/2+z
1/2-x,-y,1/2+z
1/2-x,y,1/2+z
1/2+x,-y,1/2+z
1/2+x,1/2+y,z
1/2-x,1/2-y,z
1/2-x,1/2+y,z
1/2+x,1/2-y,z
loop_
_atom_site_type_symbol
_atom_site_label
_atom_site_fract_x
_atom_site_fract_y
_atom_site_fract_z
Si Si1 0.319188 0.188473 0.165360
Si Si2 0.815901 0.310690 0.363074
Si Si3 0.683955 0.311408 0.476960
Si Si4 0.816683 0.500000 0.109652
Si Si5 0.816691 0.618005 0.570461
Si Si6 0.820737 0.610352 0.266734
Si Si7 0.178984 0.000000 0.224531
O O1 0.500000 0.192247 0.149246
O O2 0.250000 0.250000 0.177359
O O3 0.224593 0.160396 0.117857
O O4 0.293289 0.152108 0.217788
O O5 0.750000 0.250000 0.343780
O O6 0.743820 0.329034 0.419027
O O7 0.767886 0.358147 0.320283
O O8 0.000000 0.305027 0.368858
O O9 0.500000 0.306839 0.476395
O O10 0.750000 0.250000 0.495021
O O11 0.737825 0.360449 0.516743
O O12 0.744247 0.444986 0.082164
O O13 0.785520 0.500000 0.172388
O O14 0.000000 0.500000 0.100770
O O15 0.000000 0.616396 0.562466
O O16 0.713539 0.555034 0.260341
O O17 0.000000 0.590999 0.269950
O O18 0.000000 0.000000 0.206367
#
# Coordination Sequence:
#
# PCOD8186483 Si02
#       7
#    16  16  16   8  16  16   8
#     4  11  22  36  56  85 120 157 192 241 297 355
#     4  10  20  37  61  90 120 158 199 244 299 356
#     4  11  22  39  62  89 121 160 199 247 301 356
#     4  12  24  42  63  86 119 158 198 242 298 358
#     4  12  24  40  61  88 118 154 200 247 294 355
#     4  10  22  39  60  84 119 159 198 243 298 353
#     4  12  24  38  61  88 117 158 204 246 292 348
#
# _framework density 18.977232999999998
#
# number of rings (size 3 to 8) (size 9 to 14) (size 15 to 20)
#    0.000    1.000    1.667    7.500    0.000    2.000 
#    0.000    0.833    0.000    3.000    0.000    0.000 
#    0.000    0.000    0.000    0.000    0.000    0.000 
#
# Total GULP energy -297754.789597 kJ/mol
# GULP energy per Si atom -12406.449567 kJ/mol
# Density = 1.893404 g / cm^3
# Si number density = 18.977233 Si / 1000 Ang^3
#
#
#
# Elastic Constant Matrix: (Units=GPa)
#
#
# Indices 1 2 3 4 5 6 
#
# 1 74.0251 21.6531 37.0799 0.0000 0.0000 0.0000
# 2 21.6531 116.1483 55.1455 0.0000 0.0000 0.0000
# 3 37.0799 55.1455 111.2487 0.0000 0.0000 0.0000
# 4 0.0000 0.0000 0.0000 43.7624 0.0000 0.0000
# 5 0.0000 0.0000 0.0000 0.0000 26.4955 0.0000
# 6 0.0000 0.0000 0.0000 0.0000 0.0000 36.7597
#
#
#
# Elastic Compliance Matrix: (Units=1/GPa)
#
#
# Indices 1 2 3 4 5 6 
#
# 1 0.016248 -0.000599 -0.005119 0.000000 0.000000 0.000000
# 2 -0.000599 0.011282 -0.005393 0.000000 0.000000 0.000000
# 3 -0.005119 -0.005393 0.013368 0.000000 0.000000 0.000000
# 4 0.000000 0.000000 0.000000 0.022851 0.000000 0.000000
# 5 0.000000 0.000000 0.000000 0.000000 0.037742 0.000000
# 6 0.000000 0.000000 0.000000 0.000000 0.000000 0.027204
#
#
# Mechanical properties :
#
#
# Convention : Reuss Voigt Hill
#
# Bulk Modulus (GPa) = 53.54055 58.79767 56.16911
# Shear Modulus (GPa) = 31.81858 33.90644 32.86251
#
# Velocity S-wave (km/s) = 4.09916 4.23151 4.16586
# Velocity P-wave (km/s) = 7.11888 7.41113 7.26647
#
# Compressibility (1/GPa) = 0.01867743
#
# Stress axis : x y z
#
# Youngs Moduli (GPa) = 61.54554 88.63916 74.80465
#
# Poissons Ratio (x) = 0.05307 0.38291
# Poissons Ratio (y) = 0.03685 0.40340
# Poissons Ratio (z) = 0.31504 0.47801
#
# Static dielectric constant tensor:
#      x y z
#    x 3.632580 0.000000 0.000000 
#    y 0.000000 3.555410 0.000000 
#    z 0.000000 0.000000 3.578960 
# 
# 
# High freq. dielectric constant tensor:
#      x y z
#    x 1.755270 0.000000 0.000000 
#    y 0.000000 1.741550 0.000000 
#    z 0.000000 0.000000 1.740750 
# 
# From -- ./inp_files/28125.got.cif
#   From: 2010.03.12/outbox.cif.g09.slc.cpg/sg42_15_cif.got.tgz:28125.got - 2010.04.14 02:04:31.
