data_PCOD8186393
_publ_section_title
;
Structure prediction by ZEFSAII (Michael W. Deem and Ramdas Pophale) SiO2 
 PCOD8186393
Probable space group: F M M 2
;
_chemical_formula_sum "Si O2"
_cell_formula_units_Z 56
_cell_length_a 21.792459
_cell_length_b 12.885970
_cell_length_c 8.611179
_cell_angle_alpha 90.000000
_cell_angle_beta 90.000000
_cell_angle_gamma 90.000000
_cell_volume 2418.165220
_symmetry_space_group_name_H-M "F M M 2"
_symmetry_group_IT_number 42
_symmetry_cell_setting 'orthorhombic'
loop_
_space_group_symop_operation_xyz
x,y,z
-x,-y,z
-x,y,z
x,-y,z
x,1/2+y,1/2+z
-x,1/2-y,1/2+z
-x,1/2+y,1/2+z
x,1/2-y,1/2+z
1/2+x,y,1/2+z
1/2-x,-y,1/2+z
1/2-x,y,1/2+z
1/2+x,-y,1/2+z
1/2+x,1/2+y,z
1/2-x,1/2-y,z
1/2-x,1/2+y,z
1/2+x,1/2-y,z
loop_
_atom_site_type_symbol
_atom_site_label
_atom_site_fract_x
_atom_site_fract_y
_atom_site_fract_z
Si Si1 0.316836 0.618243 0.934670
Si Si2 0.927862 0.185212 0.768549
Si Si3 0.750000 0.250000 0.682300
Si Si4 0.071843 0.112882 0.432390
O O1 0.296339 0.500000 0.966042
O O2 0.389990 0.620717 0.897418
O O3 0.282928 0.662468 0.783265
O O4 0.300739 0.690715 0.079912
O O5 0.904502 0.155364 0.597698
O O6 0.000000 0.163112 0.796427
O O7 0.911638 0.307301 0.795378
O O8 0.000000 0.099505 0.447452
O O9 0.102083 0.000000 0.396774
#
# Coordination Sequence:
#
# PCOD8186393 Si02
#       4
#    16  16   8  16
#     4  11  22  40  63  85 116 153 191 240 289 336
#     4  10  20  35  59  90 119 149 188 233 288 352
#     4  10  24  42  60  86 112 150 204 242 276 334
#     4   9  18  34  53  77 116 157 187 223 275 336
#
# _framework density 23.158054
#
# number of rings (size 3 to 8) (size 9 to 14) (size 15 to 20)
#    0.000    2.000    0.000    3.429    0.000    1.714 
#    0.000   12.857    0.000   17.143    0.000    0.000 
#    0.000    0.000    0.000    0.000    0.000    0.000 
#
# Total GULP energy -173547.267457 kJ/mol
# GULP energy per Si atom -12396.233390 kJ/mol
# Density = 2.310535 g / cm^3
# Si number density = 23.158054 Si / 1000 Ang^3
#
#
#
# Elastic Constant Matrix: (Units=GPa)
#
#
# Indices 1 2 3 4 5 6 
#
# 1 61.4658 5.4700 0.7248 0.0000 0.0000 0.0000
# 2 5.4700 167.9862 29.9094 0.0000 0.0000 0.0000
# 3 0.7248 29.9094 49.3985 0.0000 0.0000 0.0000
# 4 0.0000 0.0000 0.0000 34.3897 0.0000 0.0000
# 5 0.0000 0.0000 0.0000 0.0000 22.2406 0.0000
# 6 0.0000 0.0000 0.0000 0.0000 0.0000 25.3779
#
#
#
# Elastic Compliance Matrix: (Units=1/GPa)
#
#
# Indices 1 2 3 4 5 6 
#
# 1 0.016317 -0.000548 0.000092 0.000000 0.000000 0.000000
# 2 -0.000548 0.006691 -0.004043 0.000000 0.000000 0.000000
# 3 0.000092 -0.004043 0.022690 0.000000 0.000000 0.000000
# 4 0.000000 0.000000 0.000000 0.029078 0.000000 0.000000
# 5 0.000000 0.000000 0.000000 0.000000 0.044963 0.000000
# 6 0.000000 0.000000 0.000000 0.000000 0.000000 0.039404
#
#
# Mechanical properties :
#
#
# Convention : Reuss Voigt Hill
#
# Bulk Modulus (GPa) = 27.24752 39.00657 33.12704
# Shear Modulus (GPa) = 27.72026 32.58471 30.15248
#
# Velocity S-wave (km/s) = 3.46353 3.75515 3.61228
# Velocity P-wave (km/s) = 5.27125 5.97342 5.63329
#
# Compressibility (1/GPa) = 0.03670059
#
# Stress axis : x y z
#
# Youngs Moduli (GPa) = 61.28628 149.46501 44.07224
#
# Poissons Ratio (x) = 0.08187 -0.00406
# Poissons Ratio (y) = 0.03357 0.17818
# Poissons Ratio (z) = -0.00565 0.60427
#
# Static dielectric constant tensor:
#      x y z
#    x 4.108460 0.000000 0.000000 
#    y 0.000000 4.638400 0.000000 
#    z 0.000000 0.000000 4.072550 
# 
# 
# High freq. dielectric constant tensor:
#      x y z
#    x 1.905430 0.000000 0.000000 
#    y 0.000000 1.920760 0.000000 
#    z 0.000000 0.000000 1.907980 
# 
# From -- ./inp_files/2128.got.cif
#   From: 2010.03.12/outbox.cif.g09.slc.cpg/sg42_2_cif.got.tgz:2128.got - 2010.04.14 02:04:31.
