data_PCOD8186278
_publ_section_title
;
Structure prediction by ZEFSAII (Michael W. Deem and Ramdas Pophale) SiO2 
 PCOD8186278
Probable space group: F M M 2
;
_chemical_formula_sum "Si O2"
_cell_formula_units_Z 96
_cell_length_a 17.799202
_cell_length_b 9.024827
_cell_length_c 31.143260
_cell_angle_alpha 90.000000
_cell_angle_beta 90.000000
_cell_angle_gamma 90.000000
_cell_volume 5002.688812
_symmetry_space_group_name_H-M "F M M 2"
_symmetry_group_IT_number 42
_symmetry_cell_setting 'orthorhombic'
loop_
_space_group_symop_operation_xyz
x,y,z
-x,-y,z
-x,y,z
x,-y,z
x,1/2+y,1/2+z
-x,1/2-y,1/2+z
-x,1/2+y,1/2+z
x,1/2-y,1/2+z
1/2+x,y,1/2+z
1/2-x,-y,1/2+z
1/2-x,y,1/2+z
1/2+x,-y,1/2+z
1/2+x,1/2+y,z
1/2-x,1/2-y,z
1/2-x,1/2+y,z
1/2+x,1/2-y,z
loop_
_atom_site_type_symbol
_atom_site_label
_atom_site_fract_x
_atom_site_fract_y
_atom_site_fract_z
Si Si1 0.829920 0.324634 0.750000
Si Si2 0.589486 0.167056 0.078829
Si Si3 0.410446 0.332554 0.410635
Si Si4 0.089144 0.167663 0.826211
Si Si5 0.910361 0.167315 0.994961
Si Si6 0.413831 0.327037 0.163865
O O1 0.822717 0.500000 0.754532
O O2 0.750000 0.250000 0.755484
O O3 0.884766 0.265333 0.786464
O O4 0.864499 0.278411 0.704356
O O5 0.500000 0.171379 0.078026
O O6 0.618756 0.241569 0.122603
O O7 0.619970 0.000000 0.076747
O O8 0.621508 0.255538 0.037904
O O9 0.500000 0.332592 0.410889
O O10 0.379506 0.500000 0.408395
O O11 0.379711 0.241016 0.369922
O O12 0.379433 0.255707 0.453755
O O13 0.000000 0.167456 0.826464
O O14 0.120358 0.000000 0.822906
O O15 0.000000 0.168998 0.995202
O O16 0.879884 0.000000 0.993106
O O17 0.500000 0.282616 0.173291
O O18 0.407188 0.500000 0.154095
#
# Coordination Sequence:
#
# PCOD8186278 Si02
#       6
#    16  16  16  16  16  16
#     4  11  23  38  55  75 101 133 170 212 259 309
#     4   9  16  25  40  65  96 128 162 201 245 292
#     4   9  16  26  42  66  97 131 166 204 247 294
#     4  10  20  34  53  77 104 134 170 211 255 304
#     4   9  15  23  37  60  94 132 165 199 242 291
#     4   9  18  33  52  73  98 130 167 206 250 300
#
# _framework density 19.189681
#
# number of rings (size 3 to 8) (size 9 to 14) (size 15 to 20)
#    0.000    2.500    0.000    3.000    0.000    9.000 
#    0.000    1.667    0.000    0.000    0.000    1.167 
#    0.000    2.667    0.000    0.000    0.000    0.000 
#
# Total GULP energy -297624.570096 kJ/mol
# GULP energy per Si atom -12401.023754 kJ/mol
# Density = 1.914600 g / cm^3
# Si number density = 19.189681 Si / 1000 Ang^3
#
#
#
# Elastic Constant Matrix: (Units=GPa)
#
#
# Indices 1 2 3 4 5 6 
#
# 1 11.8017 16.4320 12.2251 0.0000 0.0000 0.0000
# 2 16.4320 139.2266 88.1172 0.0000 0.0000 0.0000
# 3 12.2251 88.1172 175.6213 0.0000 0.0000 0.0000
# 4 0.0000 0.0000 0.0000 44.0207 0.0000 0.0000
# 5 0.0000 0.0000 0.0000 0.0000 -0.2236 0.0000
# 6 0.0000 0.0000 0.0000 0.0000 0.0000 16.5089
#
#
#
# Elastic Compliance Matrix: (Units=1/GPa)
#
#
# Indices 1 2 3 4 5 6 
#
# 1 0.101682 -0.011021 -0.001549 0.000000 0.000000 0.000000
# 2 -0.011021 0.011719 -0.005113 0.000000 0.000000 0.000000
# 3 -0.001549 -0.005113 0.008367 0.000000 0.000000 0.000000
# 4 0.000000 0.000000 0.000000 0.022717 0.000000 0.000000
# 5 0.000000 0.000000 0.000000 0.000000 -4.472851 0.000000
# 6 0.000000 0.000000 0.000000 0.000000 0.000000 0.060573
#
#
# Mechanical properties :
#
#
# Convention : Reuss Voigt Hill
#
# Bulk Modulus (GPa) = 11.57354 62.24427 36.90890
# Shear Modulus (GPa) = -1.18945 26.05288 12.43172
#
# Velocity S-wave (km/s) = -0.78815 3.68863 2.54802
# Velocity P-wave (km/s) = 2.28385 7.11674 5.28507
#
# Compressibility (1/GPa) = 0.08640401
#
# Stress axis : x y z
#
# Youngs Moduli (GPa) = 9.83458 85.32977 119.51368
#
# Poissons Ratio (x) = 0.94040 0.18507
# Poissons Ratio (y) = 0.10839 0.61106
# Poissons Ratio (z) = 0.01523 0.43628
#
# Static dielectric constant tensor:
#      x y z
#    x 2.873930 0.000000 0.000000 
#    y 0.000000 3.731720 0.000000 
#    z 0.000000 0.000000 3.736930 
# 
# 
# High freq. dielectric constant tensor:
#      x y z
#    x 1.678120 0.000000 0.000000 
#    y 0.000000 1.762320 0.000000 
#    z 0.000000 0.000000 1.766230 
# 
# From -- ./inp_files/31453.got.cif
#   From: 2010.03.12/outbox.cif.g09.slc.cpg/sg42_16_cif.got.tgz:31453.got - 2010.04.14 02:04:31.
