data_PCOD8186675
_publ_section_title
;
Structure prediction by ZEFSAII (Michael W. Deem and Ramdas Pophale) SiO2 
 PCOD8186675
Probable space group: F M M 2
;
_chemical_formula_sum "Si O2"
_cell_formula_units_Z 80
_cell_length_a 22.459284
_cell_length_b 17.876955
_cell_length_c 9.448765
_cell_angle_alpha 90.000000
_cell_angle_beta 90.000000
_cell_angle_gamma 90.000000
_cell_volume 3793.713252
_symmetry_space_group_name_H-M "F M M 2"
_symmetry_group_IT_number 42
_symmetry_cell_setting 'orthorhombic'
loop_
_space_group_symop_operation_xyz
x,y,z
-x,-y,z
-x,y,z
x,-y,z
x,1/2+y,1/2+z
-x,1/2-y,1/2+z
-x,1/2+y,1/2+z
x,1/2-y,1/2+z
1/2+x,y,1/2+z
1/2-x,-y,1/2+z
1/2-x,y,1/2+z
1/2+x,-y,1/2+z
1/2+x,1/2+y,z
1/2-x,1/2-y,z
1/2-x,1/2+y,z
1/2+x,1/2-y,z
loop_
_atom_site_type_symbol
_atom_site_label
_atom_site_fract_x
_atom_site_fract_y
_atom_site_fract_z
Si Si1 0.685135 0.642364 0.837640
Si Si2 0.567002 0.711017 0.152887
Si Si3 0.138502 0.792832 0.426162
Si Si4 0.220630 0.912918 0.540287
Si Si5 0.566135 0.585636 0.931662
O O1 0.685808 0.730808 0.871195
O O2 0.721394 0.623970 0.695669
O O3 0.616319 0.614682 0.822273
O O4 0.714832 0.598453 0.969603
O O5 0.500000 0.742382 0.149908
O O6 0.585329 0.699010 0.314747
O O7 0.610690 0.770239 0.077446
O O8 0.572017 0.631206 0.076714
O O9 0.172244 0.871256 0.442231
O O10 0.204215 0.000000 0.550351
O O11 0.500000 0.597830 0.864435
O O12 0.576963 0.500000 0.970432
#
# Coordination Sequence:
#
# PCOD8186675 Si02
#       5
#    16  16  16  16  16
#     4  11  25  44  66  94 131 175 221 263 325 394
#     4  10  21  39  65  94 126 172 222 269 325 387
#     4  11  23  42  65  95 130 172 218 275 317 393
#     4  12  26  43  65  97 135 173 215 271 331 387
#     4   9  19  38  65  95 129 169 217 271 327 388
#
# _framework density 21.087516999999998
#
# number of rings (size 3 to 8) (size 9 to 14) (size 15 to 20)
#    0.000    1.400    2.000    3.000    5.600    3.200 
#    0.000    0.000    0.000    3.000    0.000    0.000 
#    0.000    0.000    0.000    0.000    0.000    0.000 
#
# Total GULP energy -248055.819680 kJ/mol
# GULP energy per Si atom -12402.790984 kJ/mol
# Density = 2.103952 g / cm^3
# Si number density = 21.087517 Si / 1000 Ang^3
#
#
#
# Elastic Constant Matrix: (Units=GPa)
#
#
# Indices 1 2 3 4 5 6 
#
# 1 102.9906 22.8473 39.7399 0.0000 0.0000 0.0000
# 2 22.8473 106.5444 17.8414 0.0002 0.0000 0.0000
# 3 39.7399 17.8414 104.9087 0.0002 -0.0001 0.0000
# 4 0.0000 0.0002 0.0002 21.4012 0.0000 0.0000
# 5 0.0000 0.0000 -0.0001 0.0000 37.5151 0.0000
# 6 0.0000 0.0000 0.0000 0.0000 0.0000 31.7142
#
#
#
# Elastic Compliance Matrix: (Units=1/GPa)
#
#
# Indices 1 2 3 4 5 6 
#
# 1 0.011705 -0.001819 -0.004124 0.000000 0.000000 0.000000
# 2 -0.001819 0.009944 -0.001002 0.000000 0.000000 0.000000
# 3 -0.004124 -0.001002 0.011265 0.000000 0.000000 0.000000
# 4 0.000000 0.000000 0.000000 0.046726 0.000000 0.000000
# 5 0.000000 0.000000 0.000000 0.000000 0.026656 0.000000
# 6 0.000000 0.000000 0.000000 0.000000 0.000000 0.031532
#
#
# Mechanical properties :
#
#
# Convention : Reuss Voigt Hill
#
# Bulk Modulus (GPa) = 52.57084 52.81122 52.69103
# Shear Modulus (GPa) = 31.63378 33.72710 32.68044
#
# Velocity S-wave (km/s) = 3.87734 4.00357 3.94096
# Velocity P-wave (km/s) = 6.71036 6.81687 6.76382
#
# Compressibility (1/GPa) = 0.01902195
#
# Stress axis : x y z
#
# Youngs Moduli (GPa) = 85.43624 100.56663 88.77193
#
# Poissons Ratio (x) = 0.18296 0.36613
# Poissons Ratio (y) = 0.15543 0.08894
# Poissons Ratio (z) = 0.35237 0.10076
#
# Static dielectric constant tensor:
#      x y z
#    x 4.031290 0.000000 0.000000 
#    y 0.000000 3.837110 0.000000 
#    z 0.000000 0.000000 3.638780 
# 
# 
# High freq. dielectric constant tensor:
#      x y z
#    x 1.835910 0.000000 0.000000 
#    y 0.000000 1.825910 0.000000 
#    z 0.000000 0.000000 1.816750 
# 
# From -- ./inp_files/3498.got.cif
#   From: 2010.03.12/outbox.cif.g09.slc.cpg/sg42_2_cif.got.tgz:3498.got - 2010.04.14 02:04:31.
