data_PCOD8186197
_publ_section_title
;
Structure prediction by ZEFSAII (Michael W. Deem and Ramdas Pophale) SiO2 
 PCOD8186197
Probable space group: F M M 2
;
_chemical_formula_sum "Si O2"
_cell_formula_units_Z 112
_cell_length_a 21.408347
_cell_length_b 15.026302
_cell_length_c 16.743796
_cell_angle_alpha 90.000000
_cell_angle_beta 90.000000
_cell_angle_gamma 90.000000
_cell_volume 5386.283059
_symmetry_space_group_name_H-M "F M M 2"
_symmetry_group_IT_number 42
_symmetry_cell_setting 'orthorhombic'
loop_
_space_group_symop_operation_xyz
x,y,z
-x,-y,z
-x,y,z
x,-y,z
x,1/2+y,1/2+z
-x,1/2-y,1/2+z
-x,1/2+y,1/2+z
x,1/2-y,1/2+z
1/2+x,y,1/2+z
1/2-x,-y,1/2+z
1/2-x,y,1/2+z
1/2+x,-y,1/2+z
1/2+x,1/2+y,z
1/2-x,1/2-y,z
1/2-x,1/2+y,z
1/2+x,1/2-y,z
loop_
_atom_site_type_symbol
_atom_site_label
_atom_site_fract_x
_atom_site_fract_y
_atom_site_fract_z
Si Si1 0.929375 0.400044 0.100390
Si Si2 0.183956 0.656356 0.196063
Si Si3 0.320176 0.142687 0.659228
Si Si4 0.140418 0.597397 0.828419
Si Si5 0.728259 0.846248 0.370381
Si Si6 0.128630 0.901846 0.990143
Si Si7 0.571752 0.282698 0.451264
O O1 0.929694 0.500000 0.066266
O O2 0.879162 0.395932 0.172316
O O3 0.000000 0.374705 0.129915
O O4 0.906472 0.334692 0.030414
O O5 0.248142 0.607894 0.167140
O O6 0.180896 0.751444 0.154034
O O7 0.185312 0.666905 0.291766
O O8 0.363340 0.113770 0.733666
O O9 0.353452 0.102812 0.582552
O O10 0.110912 0.500000 0.848185
O O11 0.212793 0.592941 0.851864
O O12 0.107344 0.677923 0.874944
O O13 0.750000 0.750000 0.401936
O O14 0.691663 0.895539 0.439699
O O15 0.082869 0.822627 0.962698
O O16 0.098233 0.000000 0.975178
O O17 0.500000 0.300037 0.434523
#
# Coordination Sequence:
#
# PCOD8186197 Si02
#       7
#    16  16  16  16  16  16  16
#     4  10  22  39  63  96 130 169 216 262 313 377
#     4  10  19  38  64  90 131 172 210 259 314 375
#     4  10  21  38  61  97 129 166 207 259 323 386
#     4  11  22  40  66  95 129 164 210 268 323 376
#     4  11  21  40  63  94 130 167 207 258 322 384
#     4  12  25  40  64  95 129 167 212 261 321 390
#     4  11  24  44  67  89 125 171 217 268 316 375
#
# _framework density 20.793558999999998
#
# number of rings (size 3 to 8) (size 9 to 14) (size 15 to 20)
#    0.000    1.286    5.714    1.286    4.000    4.571 
#    0.000    3.571    0.000    1.714    0.000    0.000 
#    0.000    0.000    0.000    0.000    0.000    0.000 
#
# Total GULP energy -347138.854416 kJ/mol
# GULP energy per Si atom -12397.816229 kJ/mol
# Density = 2.074623 g / cm^3
# Si number density = 20.793559 Si / 1000 Ang^3
#
#
#
# Elastic Constant Matrix: (Units=GPa)
#
#
# Indices 1 2 3 4 5 6 
#
# 1 81.3970 22.6352 44.1365 0.0000 0.0000 0.0000
# 2 22.6352 135.7670 32.2261 0.0000 0.0000 0.0000
# 3 44.1365 32.2261 100.0714 0.0000 0.0000 0.0000
# 4 0.0000 0.0000 0.0000 15.5697 0.0000 0.0000
# 5 0.0000 0.0000 0.0000 0.0000 27.3027 0.0000
# 6 0.0000 0.0000 0.0000 0.0000 0.0000 23.9547
#
#
#
# Elastic Compliance Matrix: (Units=1/GPa)
#
#
# Indices 1 2 3 4 5 6 
#
# 1 0.016296 -0.001095 -0.006835 0.000000 0.000000 0.000000
# 2 -0.001095 0.008049 -0.002109 0.000000 0.000000 0.000000
# 3 -0.006835 -0.002109 0.013687 0.000000 0.000000 0.000000
# 4 0.000000 0.000000 0.000000 0.064227 0.000000 0.000000
# 5 0.000000 0.000000 0.000000 0.000000 0.036626 0.000000
# 6 0.000000 0.000000 0.000000 0.000000 0.000000 0.041745
#
#
# Mechanical properties :
#
#
# Convention : Reuss Voigt Hill
#
# Bulk Modulus (GPa) = 55.69757 57.24786 56.47272
# Shear Modulus (GPa) = 24.19053 27.91459 26.05256
#
# Velocity S-wave (km/s) = 3.41452 3.66794 3.54349
# Velocity P-wave (km/s) = 6.51071 6.74757 6.63020
#
# Compressibility (1/GPa) = 0.01795410
#
# Stress axis : x y z
#
# Youngs Moduli (GPa) = 61.36493 124.24391 73.06421
#
# Poissons Ratio (x) = 0.13599 0.49938
# Poissons Ratio (y) = 0.06717 0.15411
# Poissons Ratio (z) = 0.41942 0.26205
#
# Static dielectric constant tensor:
#      x y z
#    x 3.640360 0.000000 0.000000 
#    y 0.000000 3.868250 0.000000 
#    z 0.000000 0.000000 3.671450 
# 
# 
# High freq. dielectric constant tensor:
#      x y z
#    x 1.790900 0.000000 0.000000 
#    y 0.000000 1.823670 0.000000 
#    z 0.000000 0.000000 1.808840 
# 
# From -- ./inp_files/16571.got.cif
#   From: 2010.03.12/outbox.cif.g09.slc.cpg/sg42_9_cif.got.tgz:16571.got - 2010.04.14 02:04:31.
