data_PCOD8186372
_publ_section_title
;
Structure prediction by ZEFSAII (Michael W. Deem and Ramdas Pophale) SiO2 
 PCOD8186372
Probable space group: F M M 2
;
_chemical_formula_sum "Si O2"
_cell_formula_units_Z 80
_cell_length_a 9.176712
_cell_length_b 29.519343
_cell_length_c 14.575101
_cell_angle_alpha 90.000000
_cell_angle_beta 90.000000
_cell_angle_gamma 90.000000
_cell_volume 3948.256531
_symmetry_space_group_name_H-M "F M M 2"
_symmetry_group_IT_number 42
_symmetry_cell_setting 'orthorhombic'
loop_
_space_group_symop_operation_xyz
x,y,z
-x,-y,z
-x,y,z
x,-y,z
x,1/2+y,1/2+z
-x,1/2-y,1/2+z
-x,1/2+y,1/2+z
x,1/2-y,1/2+z
1/2+x,y,1/2+z
1/2-x,-y,1/2+z
1/2-x,y,1/2+z
1/2+x,-y,1/2+z
1/2+x,1/2+y,z
1/2-x,1/2-y,z
1/2-x,1/2+y,z
1/2+x,1/2-y,z
loop_
_atom_site_type_symbol
_atom_site_label
_atom_site_fract_x
_atom_site_fract_y
_atom_site_fract_z
Si Si1 0.666720 0.380210 0.514390
Si Si2 0.332148 0.052146 0.172624
Si Si3 0.671113 0.116567 0.803941
Si Si4 0.834825 0.206350 0.800957
Si Si5 0.336508 0.206980 0.519580
O O1 0.500000 0.364150 0.519510
O O2 0.697384 0.424466 0.574746
O O3 0.708978 0.392109 0.410276
O O4 0.761936 0.339058 0.554528
O O5 0.500000 0.058266 0.202517
O O6 0.229657 0.073136 0.250206
O O7 0.289424 0.000000 0.161034
O O8 0.500000 0.122661 0.787402
O O9 0.752278 0.161385 0.766648
O O10 0.750000 0.250000 0.761117
O O11 0.000000 0.205905 0.763275
O O12 0.833706 0.208238 0.910210
O O13 0.500000 0.208592 0.557894
O O14 0.250000 0.250000 0.559824
#
# Coordination Sequence:
#
# PCOD8186372 Si02
#       5
#    16  16  16  16  16
#     4   9  19  36  57  80 109 145 182 220 267 324
#     4  10  22  40  59  79 106 141 181 227 279 331
#     4  10  20  35  57  84 112 143 181 225 272 322
#     4   9  16  28  49  78 112 148 183 219 263 317
#     4   9  16  27  48  78 111 145 180 218 262 314
#
# _framework density 20.262107
#
# number of rings (size 3 to 8) (size 9 to 14) (size 15 to 20)
#    0.000    2.600    0.000    1.800    0.000    7.600 
#    0.000    3.000    0.000    4.800    0.000    0.000 
#    0.000    0.000    0.000    0.000    0.000    0.000 
#
# Total GULP energy -248061.699131 kJ/mol
# GULP energy per Si atom -12403.084957 kJ/mol
# Density = 2.021599 g / cm^3
# Si number density = 20.262107 Si / 1000 Ang^3
#
#
#
# Elastic Constant Matrix: (Units=GPa)
#
#
# Indices 1 2 3 4 5 6 
#
# 1 144.9565 92.9516 44.5725 0.0000 0.0000 0.0000
# 2 92.9516 185.6348 50.0010 0.0000 0.0000 0.0000
# 3 44.5725 50.0010 58.2421 0.0000 0.0000 0.0000
# 4 0.0000 0.0000 0.0000 -14.0322 0.0000 0.0000
# 5 0.0000 0.0000 0.0000 0.0000 18.2625 0.0000
# 6 0.0000 0.0000 0.0000 0.0000 0.0000 38.7881
#
#
#
# Elastic Compliance Matrix: (Units=1/GPa)
#
#
# Indices 1 2 3 4 5 6 
#
# 1 0.011125 -0.004263 -0.004854 0.000000 0.000000 0.000000
# 2 -0.004263 0.008641 -0.004156 0.000000 0.000000 0.000000
# 3 -0.004854 -0.004156 0.024452 0.000000 0.000000 0.000000
# 4 0.000000 0.000000 0.000000 -0.071265 0.000000 0.000000
# 5 0.000000 0.000000 0.000000 0.000000 0.054757 0.000000
# 6 0.000000 0.000000 0.000000 0.000000 0.000000 0.025781
#
#
# Mechanical properties :
#
#
# Convention : Reuss Voigt Hill
#
# Bulk Modulus (GPa) = 56.58547 84.87596 70.73072
# Shear Modulus (GPa) = 58.18857 22.02423 40.10640
#
# Velocity S-wave (km/s) = 5.36472 3.30049 4.45385
# Velocity P-wave (km/s) = 8.14623 7.51693 7.83790
#
# Compressibility (1/GPa) = 0.01767238
#
# Stress axis : x y z
#
# Youngs Moduli (GPa) = 89.88962 115.72930 40.89622
#
# Poissons Ratio (x) = 0.49335 0.19851
# Poissons Ratio (y) = 0.38320 0.16995
# Poissons Ratio (z) = 0.43632 0.48094
#
# Static dielectric constant tensor:
#      x y z
#    x 3.778200 0.000000 0.000000 
#    y 0.000000 3.659890 0.000000 
#    z 0.000000 0.000000 3.402740 
# 
# 
# High freq. dielectric constant tensor:
#      x y z
#    x 1.796540 0.000000 0.000000 
#    y 0.000000 1.787790 0.000000 
#    z 0.000000 0.000000 1.777640 
# 
# From -- ./inp_files/18198.got.cif
#   From: 2010.03.12/outbox.cif.g09.slc.cpg/sg42_10_cif.got.tgz:18198.got - 2010.04.14 02:04:31.
