data_PCOD8186579
_publ_section_title
;
Structure prediction by ZEFSAII (Michael W. Deem and Ramdas Pophale) SiO2 
 PCOD8186579
Probable space group: F M M 2
;
_chemical_formula_sum "Si O2"
_cell_formula_units_Z 68
_cell_length_a 15.494412
_cell_length_b 7.916086
_cell_length_c 27.282177
_cell_angle_alpha 90.000000
_cell_angle_beta 90.000000
_cell_angle_gamma 90.000000
_cell_volume 3346.298091
_symmetry_space_group_name_H-M "F M M 2"
_symmetry_group_IT_number 42
_symmetry_cell_setting 'orthorhombic'
loop_
_space_group_symop_operation_xyz
x,y,z
-x,-y,z
-x,y,z
x,-y,z
x,1/2+y,1/2+z
-x,1/2-y,1/2+z
-x,1/2+y,1/2+z
x,1/2-y,1/2+z
1/2+x,y,1/2+z
1/2-x,-y,1/2+z
1/2-x,y,1/2+z
1/2+x,-y,1/2+z
1/2+x,1/2+y,z
1/2-x,1/2-y,z
1/2-x,1/2+y,z
1/2+x,1/2-y,z
loop_
_atom_site_type_symbol
_atom_site_label
_atom_site_fract_x
_atom_site_fract_y
_atom_site_fract_z
Si Si1 0.102940 0.816989 0.400170
Si Si2 0.500000 0.000000 0.251258
Si Si3 0.000000 0.297432 0.675247
Si Si4 0.657107 0.802165 0.607489
Si Si5 0.101204 0.306009 0.504232
Si Si6 0.595983 0.500000 0.844967
O O1 0.133707 0.792318 0.456235
O O2 0.142551 0.670400 0.364974
O O3 0.000000 0.814922 0.397613
O O4 0.137573 0.000000 0.382197
O O5 0.500000 0.822689 0.222630
O O6 0.413783 0.000000 0.285813
O O7 0.083962 0.240299 0.644823
O O8 0.000000 0.500000 0.688543
O O9 0.750000 0.750000 0.628974
O O10 0.645299 0.725237 0.552849
O O11 0.646660 0.000000 0.602453
O O12 0.126977 0.500000 0.496680
O O13 0.000000 0.286089 0.512301
O O14 0.500000 0.500000 0.869337
#
# Coordination Sequence:
#
# PCOD8186579 Si02
#       6
#    16   4   8  16  16   8
#     4   9  15  24  43  73 112 141 177 221 276 334
#     4  10  22  34  60  78 110 150 194 246 308 352
#     4  10  22  42  57  81 121 151 192 256 298 343
#     4  10  21  36  56  83 119 161 198 238 290 347
#     4   9  15  28  49  73 112 155 182 221 276 331
#     4   8  16  30  44  75 107 134 178 238 285 331
#
# _framework density 20.320962999999999
#
# number of rings (size 3 to 8) (size 9 to 14) (size 15 to 20)
#    0.353    2.353    2.353    0.000    1.647    1.882 
#    0.000    0.000    0.000    0.000    0.000    1.647 
#    0.000    0.000    0.000    0.000    0.000    0.000 
#
# Total GULP energy -210637.477431 kJ/mol
# GULP energy per Si atom -12390.439849 kJ/mol
# Density = 2.027471 g / cm^3
# Si number density = 20.320963 Si / 1000 Ang^3
#
#
#
# Elastic Constant Matrix: (Units=GPa)
#
#
# Indices 1 2 3 4 5 6 
#
# 1 64.8704 20.8912 33.1737 0.0000 0.0000 0.0000
# 2 20.8912 130.4040 73.2190 0.0000 0.0000 0.0000
# 3 33.1737 73.2190 139.8143 0.0000 0.0000 0.0000
# 4 0.0000 0.0000 0.0000 27.3170 0.0000 0.0000
# 5 0.0000 0.0000 0.0000 0.0000 5.0606 0.0000
# 6 0.0000 0.0000 0.0000 0.0000 0.0000 14.9632
#
#
#
# Elastic Compliance Matrix: (Units=1/GPa)
#
#
# Indices 1 2 3 4 5 6 
#
# 1 0.017586 -0.000672 -0.003821 0.000000 0.000000 0.000000
# 2 -0.000672 0.010888 -0.005543 0.000000 0.000000 0.000000
# 3 -0.003821 -0.005543 0.010961 0.000000 0.000000 0.000000
# 4 0.000000 0.000000 0.000000 0.036607 0.000000 0.000000
# 5 0.000000 0.000000 0.000000 0.000000 0.197607 0.000000
# 6 0.000000 0.000000 0.000000 0.000000 0.000000 0.066830
#
#
# Mechanical properties :
#
#
# Convention : Reuss Voigt Hill
#
# Bulk Modulus (GPa) = 51.64020 65.51739 58.57879
# Shear Modulus (GPa) = 13.62380 23.32181 18.47281
#
# Velocity S-wave (km/s) = 2.59208 3.39141 3.01832
# Velocity P-wave (km/s) = 5.86736 6.90267 6.40596
#
# Compressibility (1/GPa) = 0.01936476
#
# Stress axis : x y z
#
# Youngs Moduli (GPa) = 56.86479 91.84288 91.22933
#
# Poissons Ratio (x) = 0.06173 0.34854
# Poissons Ratio (y) = 0.03822 0.50564
# Poissons Ratio (z) = 0.21725 0.50904
#
# Static dielectric constant tensor:
#      x y z
#    x 2.558790 0.000000 0.000000 
#    y 0.000000 3.808670 0.000000 
#    z 0.000000 0.000000 3.555180 
# 
# 
# High freq. dielectric constant tensor:
#      x y z
#    x 1.750700 0.000000 0.000000 
#    y 0.000000 1.798340 0.000000 
#    z 0.000000 0.000000 1.772690 
# 
# From -- ./inp_files/29798.got.cif
#   From: 2010.03.12/outbox.cif.g09.slc.cpg/sg42_15_cif.got.tgz:29798.got - 2010.04.14 02:04:31.
