data_PCOD8186621
_publ_section_title
;
Structure prediction by ZEFSAII (Michael W. Deem and Ramdas Pophale) SiO2 
 PCOD8186621
Probable space group: F M M 2
;
_chemical_formula_sum "Si O2"
_cell_formula_units_Z 88
_cell_length_a 22.342956
_cell_length_b 14.668225
_cell_length_c 12.347332
_cell_angle_alpha 90.000000
_cell_angle_beta 90.000000
_cell_angle_gamma 90.000000
_cell_volume 4046.609709
_symmetry_space_group_name_H-M "F M M 2"
_symmetry_group_IT_number 42
_symmetry_cell_setting 'orthorhombic'
loop_
_space_group_symop_operation_xyz
x,y,z
-x,-y,z
-x,y,z
x,-y,z
x,1/2+y,1/2+z
-x,1/2-y,1/2+z
-x,1/2+y,1/2+z
x,1/2-y,1/2+z
1/2+x,y,1/2+z
1/2-x,-y,1/2+z
1/2-x,y,1/2+z
1/2+x,-y,1/2+z
1/2+x,1/2+y,z
1/2-x,1/2-y,z
1/2-x,1/2+y,z
1/2+x,1/2-y,z
loop_
_atom_site_type_symbol
_atom_site_label
_atom_site_fract_x
_atom_site_fract_y
_atom_site_fract_z
Si Si1 0.932817 0.859860 0.333520
Si Si2 0.932735 0.151997 0.791749
Si Si3 0.250000 0.750000 0.305762
Si Si4 0.328416 0.897912 0.681535
Si Si5 0.327148 0.398798 0.930350
Si Si6 0.066953 0.396426 0.065036
O O1 0.935487 0.752598 0.335506
O O2 0.893526 0.899966 0.236971
O O3 0.900592 0.885041 0.448886
O O4 0.000000 0.901778 0.323386
O O5 0.891201 0.094002 0.871133
O O6 0.904742 0.155478 0.668810
O O7 0.000000 0.109363 0.788201
O O8 0.288992 0.682739 0.231929
O O9 0.289433 0.816152 0.380198
O O10 0.337262 0.875824 0.555704
O O11 0.299971 0.000000 0.696350
O O12 0.297029 0.500000 0.917649
O O13 0.067744 0.500000 0.102196
O O14 0.000000 0.358426 0.046043
#
# Coordination Sequence:
#
# PCOD8186621 Si02
#       6
#    16  16   8  16  16  16
#     4  10  21  37  62  95 131 167 205 253 314 379
#     4  10  21  37  62  95 131 167 205 253 314 379
#     4  12  24  48  70  88 120 174 222 262 314 374
#     4  11  25  44  67  97 129 163 211 268 323 380
#     4  11  25  44  67  97 129 163 211 268 323 380
#     4   9  18  34  56  85 123 165 209 247 287 364
#
# _framework density 21.746599
#
# number of rings (size 3 to 8) (size 9 to 14) (size 15 to 20)
#    0.000    1.636    1.818    2.182    2.545    2.909 
#    3.273    1.818    0.000    0.000    0.000    0.000 
#    0.000    0.000    0.000    0.000    0.000    0.000 
#
# Total GULP energy -272616.097199 kJ/mol
# GULP energy per Si atom -12391.640782 kJ/mol
# Density = 2.169710 g / cm^3
# Si number density = 21.746599 Si / 1000 Ang^3
#
#
#
# Elastic Constant Matrix: (Units=GPa)
#
#
# Indices 1 2 3 4 5 6 
#
# 1 88.8770 39.5528 71.5611 0.0000 0.0000 0.0000
# 2 39.5528 121.6321 66.1896 0.0000 0.0000 0.0000
# 3 71.5611 66.1896 200.2475 0.0000 0.0000 0.0000
# 4 0.0000 0.0000 0.0000 40.8130 0.0000 0.0000
# 5 0.0000 0.0000 0.0000 0.0000 25.0882 0.0000
# 6 0.0000 0.0000 0.0000 0.0000 0.0000 -19.7285
#
#
#
# Elastic Compliance Matrix: (Units=1/GPa)
#
#
# Indices 1 2 3 4 5 6 
#
# 1 0.016456 -0.002623 -0.005014 0.000000 0.000000 0.000000
# 2 -0.002623 0.010443 -0.002514 0.000000 0.000000 0.000000
# 3 -0.005014 -0.002514 0.007617 0.000000 0.000000 0.000000
# 4 0.000000 0.000000 0.000000 0.024502 0.000000 0.000000
# 5 0.000000 0.000000 0.000000 0.000000 0.039859 0.000000
# 6 0.000000 0.000000 0.000000 0.000000 0.000000 -0.050688
#
#
# Mechanical properties :
#
#
# Convention : Reuss Voigt Hill
#
# Bulk Modulus (GPa) = 70.35738 85.04041 77.69890
# Shear Modulus (GPa) = 68.28006 24.79807 46.53906
#
# Velocity S-wave (km/s) = 5.60947 3.38052 4.63110
# Velocity P-wave (km/s) = 8.62429 7.37749 8.02514
#
# Compressibility (1/GPa) = 0.01421315
#
# Stress axis : x y z
#
# Youngs Moduli (GPa) = 60.76965 95.76072 131.29130
#
# Poissons Ratio (x) = 0.25116 0.65825
# Poissons Ratio (y) = 0.15938 0.33012
# Poissons Ratio (z) = 0.30468 0.24078
#
# Static dielectric constant tensor:
#      x y z
#    x 3.888770 0.000000 0.000000 
#    y 0.000000 3.964770 0.000000 
#    z 0.000000 0.000000 4.101550 
# 
# 
# High freq. dielectric constant tensor:
#      x y z
#    x 1.818840 0.000000 0.000000 
#    y 0.000000 1.869980 0.000000 
#    z 0.000000 0.000000 1.872940 
# 
# From -- ./inp_files/10054.got.cif
#   From: 2010.03.12/outbox.cif.g09.slc.cpg/sg42_6_cif.got.tgz:10054.got - 2010.04.14 02:04:31.
