data_PCOD8186873
_publ_section_title
;
Structure prediction by ZEFSAII (Michael W. Deem and Ramdas Pophale) SiO2 
 PCOD8186873
Probable space group: F M M 2
;
_chemical_formula_sum "Si O2"
_cell_formula_units_Z 112
_cell_length_a 14.978250
_cell_length_b 14.978252
_cell_length_c 22.275497
_cell_angle_alpha 90.000000
_cell_angle_beta 90.000000
_cell_angle_gamma 90.000000
_cell_volume 4997.463268
_symmetry_space_group_name_H-M "F M M 2"
_symmetry_group_IT_number 42
_symmetry_cell_setting 'orthorhombic'
loop_
_space_group_symop_operation_xyz
x,y,z
-x,-y,z
-x,y,z
x,-y,z
x,1/2+y,1/2+z
-x,1/2-y,1/2+z
-x,1/2+y,1/2+z
x,1/2-y,1/2+z
1/2+x,y,1/2+z
1/2-x,-y,1/2+z
1/2-x,y,1/2+z
1/2+x,-y,1/2+z
1/2+x,1/2+y,z
1/2-x,1/2-y,z
1/2-x,1/2+y,z
1/2+x,1/2-y,z
loop_
_atom_site_type_symbol
_atom_site_label
_atom_site_fract_x
_atom_site_fract_y
_atom_site_fract_z
Si Si1 0.604084 0.397567 0.821670
Si Si2 0.272594 0.153268 0.627653
Si Si3 0.598165 0.098165 0.526322
Si Si4 0.102433 0.395916 0.730973
Si Si5 0.346733 0.727406 0.924990
Si Si6 0.397685 0.596702 0.363326
Si Si7 0.596702 0.102315 0.189317
O O1 0.500000 0.389105 0.839168
O O2 0.636982 0.500000 0.828046
O O3 0.660634 0.335518 0.866557
O O4 0.620224 0.356795 0.754873
O O5 0.250000 0.250000 0.602633
O O6 0.324354 0.101218 0.575783
O O7 0.335518 0.160634 0.686086
O O8 0.176326 0.110279 0.641724
O O9 0.500000 0.106893 0.557067
O O10 0.601218 0.175646 0.476860
O O11 0.606893 0.000000 0.495576
O O12 0.110895 0.500000 0.713475
O O13 0.143205 0.379777 0.797770
O O14 0.000000 0.363018 0.724597
O O15 0.250000 0.750000 0.950010
O O16 0.389721 0.823674 0.910920
O O17 0.500000 0.580849 0.348582
O O18 0.359151 0.500000 0.387052
O O19 0.500000 0.140849 0.165592
O O20 0.580849 0.000000 0.204061
#
# Coordination Sequence:
#
# PCOD8186873 Si02
#       7
#    16  16  16  16  16  16  16
#     4   9  19  37  61  90 126 172 221 268 322 382
#     4  12  25  38  61  96 134 168 211 273 328 393
#     4  11  25  48  74  94 119 169 232 288 338 387
#     4   9  19  37  61  90 126 172 221 268 322 382
#     4  12  25  38  61  96 134 168 211 273 328 393
#     4   9  20  38  60  90 130 172 211 257 323 395
#     4   9  20  38  60  90 130 172 211 257 323 395
#
# _framework density 22.411370000000002
#
# number of rings (size 3 to 8) (size 9 to 14) (size 15 to 20)
#    0.000    1.857    0.000    5.571    4.000    4.571 
#    0.000    0.000    0.000    0.000    0.000    4.000 
#    0.000    0.000    0.000    0.000    0.000    0.000 
#
# Total GULP energy -347002.920530 kJ/mol
# GULP energy per Si atom -12392.961447 kJ/mol
# Density = 2.236036 g / cm^3
# Si number density = 22.411370 Si / 1000 Ang^3
#
#
#
# Elastic Constant Matrix: (Units=GPa)
#
#
# Indices 1 2 3 4 5 6 
#
# 1 116.6847 29.0887 46.5321 0.0000 0.0000 0.0000
# 2 29.0887 116.6848 46.5321 0.0000 0.0000 0.0000
# 3 46.5321 46.5321 97.0979 0.0000 0.0000 0.0000
# 4 0.0000 0.0000 0.0000 32.8092 0.0000 0.0000
# 5 0.0000 0.0000 0.0000 0.0000 32.8090 0.0000
# 6 0.0000 0.0000 0.0000 0.0000 0.0000 29.8916
#
#
#
# Elastic Compliance Matrix: (Units=1/GPa)
#
#
# Indices 1 2 3 4 5 6 
#
# 1 0.010650 -0.000766 -0.004737 0.000000 0.000000 0.000000
# 2 -0.000766 0.010650 -0.004737 0.000000 0.000000 0.000000
# 3 -0.004737 -0.004737 0.014839 0.000000 0.000000 0.000000
# 4 0.000000 0.000000 0.000000 0.030479 0.000000 0.000000
# 5 0.000000 0.000000 0.000000 0.000000 0.030479 0.000000
# 6 0.000000 0.000000 0.000000 0.000000 0.000000 0.033454
#
#
# Mechanical properties :
#
#
# Convention : Reuss Voigt Hill
#
# Bulk Modulus (GPa) = 63.85706 63.86370 63.86038
# Shear Modulus (GPa) = 31.99991 32.98959 32.49475
#
# Velocity S-wave (km/s) = 3.78278 3.84083 3.81192
# Velocity P-wave (km/s) = 6.90176 6.94459 6.92320
#
# Compressibility (1/GPa) = 0.01565998
#
# Stress axis : x y z
#
# Youngs Moduli (GPa) = 93.89687 93.89691 67.39097
#
# Poissons Ratio (x) = 0.07193 0.31921
# Poissons Ratio (y) = 0.07193 0.31921
# Poissons Ratio (z) = 0.44476 0.44476
#
# Static dielectric constant tensor:
#      x y z
#    x 4.401420 0.000000 0.000000 
#    y 0.000000 4.401390 0.000000 
#    z 0.000000 0.000000 3.647660 
# 
# 
# High freq. dielectric constant tensor:
#      x y z
#    x 1.886380 0.000000 0.000000 
#    y 0.000000 1.886380 0.000000 
#    z 0.000000 0.000000 1.850890 
# 
# From -- ./inp_files/29463.got.cif
#   From: 2010.03.12/outbox.cif.g09.slc.cpg/sg42_15_cif.got.tgz:29463.got - 2010.04.14 02:04:31.
