data_PCOD8186818
_publ_section_title
;
Structure prediction by ZEFSAII (Michael W. Deem and Ramdas Pophale) SiO2 
 PCOD8186818
Probable space group: F M M 2
;
_chemical_formula_sum "Si O2"
_cell_formula_units_Z 80
_cell_length_a 10.013962
_cell_length_b 16.625464
_cell_length_c 22.954749
_cell_angle_alpha 90.000000
_cell_angle_beta 90.000000
_cell_angle_gamma 90.000000
_cell_volume 3821.661896
_symmetry_space_group_name_H-M "F M M 2"
_symmetry_group_IT_number 42
_symmetry_cell_setting 'orthorhombic'
loop_
_space_group_symop_operation_xyz
x,y,z
-x,-y,z
-x,y,z
x,-y,z
x,1/2+y,1/2+z
-x,1/2-y,1/2+z
-x,1/2+y,1/2+z
x,1/2-y,1/2+z
1/2+x,y,1/2+z
1/2-x,-y,1/2+z
1/2-x,y,1/2+z
1/2+x,-y,1/2+z
1/2+x,1/2+y,z
1/2-x,1/2-y,z
1/2-x,1/2+y,z
1/2+x,1/2-y,z
loop_
_atom_site_type_symbol
_atom_site_label
_atom_site_fract_x
_atom_site_fract_y
_atom_site_fract_z
Si Si1 0.000000 0.322183 0.690660
Si Si2 0.250305 0.590318 0.139416
Si Si3 0.156375 0.172987 0.525959
Si Si4 0.500000 0.646708 0.843496
Si Si5 0.500000 0.336777 0.323033
Si Si6 0.235685 0.654614 0.901006
Si Si7 0.000000 0.132705 0.711346
O O1 0.131240 0.348880 0.655889
O O2 0.000000 0.360208 0.755204
O O3 0.000000 0.226635 0.695383
O O4 0.308101 0.500000 0.137218
O O5 0.187235 0.611238 0.077186
O O6 0.133340 0.593491 0.186579
O O7 0.250000 0.250000 0.534222
O O8 0.190842 0.127355 0.465460
O O9 0.000000 0.198819 0.526716
O O10 0.500000 0.742079 0.834541
O O11 0.375011 0.615764 0.881320
O O12 0.500000 0.610063 0.779242
O O13 0.370388 0.375013 0.353123
O O14 0.250000 0.750000 0.901362
#
# Coordination Sequence:
#
# PCOD8186818 Si02
#       7
#     8  16  16   8   8  16   8
#     4  11  23  40  65  94 124 157 210 257 304 365
#     4  12  26  42  61  88 127 168 206 256 315 365
#     4  11  23  38  63  92 122 160 208 258 305 367
#     4   9  18  30  55  92 122 151 190 249 308 355
#     4   9  16  32  55  86 122 147 190 247 304 353
#     4   9  17  30  53  88 125 150 187 248 311 356
#     4  11  21  40  67  94 122 165 208 255 294 369
#
# _framework density 20.933302000000001
#
# number of rings (size 3 to 8) (size 9 to 14) (size 15 to 20)
#    0.000    1.600    2.000    3.600    5.600    3.200 
#    0.000    0.000    0.000    7.200    0.000    0.000 
#    0.000    0.000    0.000    0.000    0.000    0.000 
#
# Total GULP energy -248008.561919 kJ/mol
# GULP energy per Si atom -12400.428096 kJ/mol
# Density = 2.088566 g / cm^3
# Si number density = 20.933302 Si / 1000 Ang^3
#
#
#
# Elastic Constant Matrix: (Units=GPa)
#
#
# Indices 1 2 3 4 5 6 
#
# 1 163.2728 9.2491 65.3197 0.0000 0.0000 0.0000
# 2 9.2491 50.3532 16.7310 0.0000 0.0000 0.0000
# 3 65.3197 16.7310 156.1424 0.0000 0.0000 0.0000
# 4 0.0000 0.0000 0.0000 3.5345 0.0000 0.0000
# 5 0.0000 0.0000 0.0000 0.0000 44.3595 0.0000
# 6 0.0000 0.0000 0.0000 0.0000 0.0000 13.0912
#
#
#
# Elastic Compliance Matrix: (Units=1/GPa)
#
#
# Indices 1 2 3 4 5 6 
#
# 1 0.007361 -0.000341 -0.003043 0.000000 0.000000 0.000000
# 2 -0.000341 0.020609 -0.002066 0.000000 0.000000 0.000000
# 3 -0.003043 -0.002066 0.007899 0.000000 0.000000 0.000000
# 4 0.000000 0.000000 0.000000 0.282928 0.000000 0.000000
# 5 0.000000 0.000000 0.000000 0.000000 0.022543 0.000000
# 6 0.000000 0.000000 0.000000 0.000000 0.000000 0.076387
#
#
# Mechanical properties :
#
#
# Convention : Reuss Voigt Hill
#
# Bulk Modulus (GPa) = 40.04877 61.37423 50.71150
# Shear Modulus (GPa) = 11.44295 30.76159 21.10227
#
# Velocity S-wave (km/s) = 2.34057 3.83757 3.17846
# Velocity P-wave (km/s) = 5.14563 7.00132 6.14394
#
# Compressibility (1/GPa) = 0.02496955
#
# Stress axis : x y z
#
# Youngs Moduli (GPa) = 135.84310 48.52319 126.60260
#
# Poissons Ratio (x) = 0.01655 0.38525
# Poissons Ratio (y) = 0.04633 0.26151
# Poissons Ratio (z) = 0.41337 0.10023
#
# Static dielectric constant tensor:
#      x y z
#    x 4.082510 0.000000 0.000000 
#    y 0.000000 3.202990 0.000000 
#    z 0.000000 0.000000 4.139150 
# 
# 
# High freq. dielectric constant tensor:
#      x y z
#    x 1.837800 0.000000 0.000000 
#    y 0.000000 1.767300 0.000000 
#    z 0.000000 0.000000 1.839450 
# 
# From -- ./inp_files/27842.got.cif
#   From: 2010.03.12/outbox.cif.g09.slc.cpg/sg42_14_cif.got.tgz:27842.got - 2010.04.14 02:04:31.
