data_PCOD8186181
_publ_section_title
;
Structure prediction by ZEFSAII (Michael W. Deem and Ramdas Pophale) SiO2 
 PCOD8186181
Probable space group: F M M 2
;
_chemical_formula_sum "Si O2"
_cell_formula_units_Z 96
_cell_length_a 25.696321
_cell_length_b 8.418771
_cell_length_c 23.433566
_cell_angle_alpha 90.000000
_cell_angle_beta 90.000000
_cell_angle_gamma 90.000000
_cell_volume 5069.417125
_symmetry_space_group_name_H-M "F M M 2"
_symmetry_group_IT_number 42
_symmetry_cell_setting 'orthorhombic'
loop_
_space_group_symop_operation_xyz
x,y,z
-x,-y,z
-x,y,z
x,-y,z
x,1/2+y,1/2+z
-x,1/2-y,1/2+z
-x,1/2+y,1/2+z
x,1/2-y,1/2+z
1/2+x,y,1/2+z
1/2-x,-y,1/2+z
1/2-x,y,1/2+z
1/2+x,-y,1/2+z
1/2+x,1/2+y,z
1/2-x,1/2-y,z
1/2-x,1/2+y,z
1/2+x,1/2-y,z
loop_
_atom_site_type_symbol
_atom_site_label
_atom_site_fract_x
_atom_site_fract_y
_atom_site_fract_z
Si Si1 0.405801 0.813962 0.262980
Si Si2 0.097155 0.187886 0.520998
Si Si3 0.058501 0.312042 0.140418
Si Si4 0.000000 0.182722 0.333184
Si Si5 0.305878 0.688306 0.323202
Si Si6 0.804977 0.687632 0.953311
Si Si7 0.500000 0.183572 0.455124
O O1 0.409672 0.763010 0.196673
O O2 0.448417 0.714945 0.297131
O O3 0.348481 0.772127 0.283988
O O4 0.417573 0.000000 0.270671
O O5 0.087935 0.257477 0.584624
O O6 0.150233 0.259001 0.494229
O O7 0.050460 0.232850 0.479893
O O8 0.101438 0.000000 0.523171
O O9 0.054734 0.500000 0.134858
O O10 0.000000 0.241290 0.143196
O O11 0.000000 0.296869 0.387411
O O12 0.000000 0.000000 0.352961
O O13 0.309622 0.500000 0.316576
O O14 0.250000 0.750000 0.301828
O O15 0.315077 0.744447 0.388412
O O16 0.804554 0.500000 0.955265
O O17 0.750000 0.750000 0.976372
O O18 0.500000 0.000000 0.471676
#
# Coordination Sequence:
#
# PCOD8186181 Si02
#       7
#    16  16  16   8  16  16   8
#     4  11  21  36  57  83 113 146 188 236 284 335
#     4  10  19  36  59  81 109 149 189 222 267 335
#     4   9  17  33  57  81 109 151 191 222 268 334
#     4  12  24  37  54  79 111 148 186 230 283 344
#     4  10  20  36  56  82 112 147 189 233 287 343
#     4   9  19  34  56  81 107 140 180 224 272 328
#     4  12  24  35  52  83 115 142 176 230 289 334
#
# _framework density 18.937087999999999
#
# number of rings (size 3 to 8) (size 9 to 14) (size 15 to 20)
#    0.000    1.833    1.667    3.500    0.000    2.667 
#    0.000    3.333    0.000    2.000    0.000    0.000 
#    0.000    0.000    0.000    0.000    0.000    0.000 
#
# Total GULP energy -297640.710654 kJ/mol
# GULP energy per Si atom -12401.696277 kJ/mol
# Density = 1.889399 g / cm^3
# Si number density = 18.937088 Si / 1000 Ang^3
#
#
#
# Elastic Constant Matrix: (Units=GPa)
#
#
# Indices 1 2 3 4 5 6 
#
# 1 168.8445 10.1179 83.1045 0.0000 0.0000 0.0000
# 2 10.1179 24.2670 8.7723 0.0000 0.0000 -0.0001
# 3 83.1045 8.7723 136.9202 0.0000 0.0000 0.0000
# 4 0.0000 0.0000 0.0000 17.1853 0.0000 0.0000
# 5 0.0000 0.0000 0.0000 0.0000 17.0646 0.0000
# 6 0.0000 -0.0001 0.0000 0.0000 0.0000 22.5742
#
#
#
# Elastic Compliance Matrix: (Units=1/GPa)
#
#
# Indices 1 2 3 4 5 6 
#
# 1 0.008515 -0.001722 -0.005058 0.000000 0.000000 0.000000
# 2 -0.001722 0.042534 -0.001680 0.000000 0.000000 0.000000
# 3 -0.005058 -0.001680 0.010481 0.000000 0.000000 0.000000
# 4 0.000000 0.000000 0.000000 0.058189 0.000000 0.000000
# 5 0.000000 0.000000 0.000000 0.000000 0.058601 0.000000
# 6 0.000000 0.000000 0.000000 0.000000 0.000000 0.044298
#
#
# Mechanical properties :
#
#
# Convention : Reuss Voigt Hill
#
# Bulk Modulus (GPa) = 22.41645 59.33569 40.87607
# Shear Modulus (GPa) = 19.65342 26.56728 23.11035
#
# Velocity S-wave (km/s) = 3.22503 3.74963 3.49718
# Velocity P-wave (km/s) = 5.07255 7.08148 6.15947
#
# Compressibility (1/GPa) = 0.04461010
#
# Stress axis : x y z
#
# Youngs Moduli (GPa) = 117.43444 23.51087 95.40874
#
# Poissons Ratio (x) = 0.04048 0.48259
# Poissons Ratio (y) = 0.20222 0.16028
# Poissons Ratio (z) = 0.59400 0.03950
#
# Static dielectric constant tensor:
#      x y z
#    x 3.642170 0.000000 0.000000 
#    y 0.000000 3.262880 0.000000 
#    z 0.000000 0.000000 3.715750 
# 
# 
# High freq. dielectric constant tensor:
#      x y z
#    x 1.740770 0.000000 0.000000 
#    y 0.000000 1.720040 0.000000 
#    z 0.000000 0.000000 1.736410 
# 
# From -- ./inp_files/28087.got.cif
#   From: 2010.03.12/outbox.cif.g09.slc.cpg/sg42_15_cif.got.tgz:28087.got - 2010.04.14 02:04:31.
