data_PCOD8186576
_publ_section_title
;
Structure prediction by ZEFSAII (Michael W. Deem and Ramdas Pophale) SiO2 
 PCOD8186576
Probable space group: F M M 2
;
_chemical_formula_sum "Si O2"
_cell_formula_units_Z 96
_cell_length_a 18.669033
_cell_length_b 8.827442
_cell_length_c 30.375691
_cell_angle_alpha 90.000000
_cell_angle_beta 90.000000
_cell_angle_gamma 90.000000
_cell_volume 5005.907984
_symmetry_space_group_name_H-M "F M M 2"
_symmetry_group_IT_number 42
_symmetry_cell_setting 'orthorhombic'
loop_
_space_group_symop_operation_xyz
x,y,z
-x,-y,z
-x,y,z
x,-y,z
x,1/2+y,1/2+z
-x,1/2-y,1/2+z
-x,1/2+y,1/2+z
x,1/2-y,1/2+z
1/2+x,y,1/2+z
1/2-x,-y,1/2+z
1/2-x,y,1/2+z
1/2+x,-y,1/2+z
1/2+x,1/2+y,z
1/2-x,1/2-y,z
1/2-x,1/2+y,z
1/2+x,1/2-y,z
loop_
_atom_site_type_symbol
_atom_site_label
_atom_site_fract_x
_atom_site_fract_y
_atom_site_fract_z
Si Si1 0.825218 0.679945 0.466800
Si Si2 0.584583 0.669282 0.296981
Si Si3 0.584103 0.822977 0.040049
Si Si4 0.172014 0.680109 0.618504
Si Si5 0.079707 0.180075 0.199881
Si Si6 0.177422 0.176114 0.866509
O O1 0.823680 0.500000 0.473867
O O2 0.750000 0.750000 0.483173
O O3 0.889442 0.754784 0.493906
O O4 0.839687 0.727398 0.416308
O O5 0.500000 0.666900 0.300576
O O6 0.615334 0.500000 0.304198
O O7 0.606334 0.731503 0.248434
O O8 0.613178 0.778631 0.334681
O O9 0.500000 0.793064 0.044065
O O10 0.623278 0.734125 0.078663
O O11 0.602747 0.000000 0.042610
O O12 0.177892 0.500000 0.617255
O O13 0.250000 0.750000 0.614414
O O14 0.135516 0.739675 0.663593
O O15 0.000000 0.245626 0.189851
O O16 0.075148 0.000000 0.199094
O O17 0.250000 0.250000 0.848767
O O18 0.189190 0.000000 0.864775
#
# Coordination Sequence:
#
# PCOD8186576 Si02
#       6
#    16  16  16  16  16  16
#     4  10  21  38  59  81 108 143 182 224 270 321
#     4   9  18  34  56  81 111 146 182 222 270 322
#     4  11  24  40  58  82 111 141 177 222 270 322
#     4  11  22  37  58  82 111 145 181 222 268 320
#     4   8  16  33  56  80 106 141 184 225 267 318
#     4  10  21  36  55  80 110 144 183 226 270 319
#
# _framework density 19.177340000000001
#
# number of rings (size 3 to 8) (size 9 to 14) (size 15 to 20)
#    0.000    2.167    0.000    4.000    0.000    5.667 
#    0.000    6.667    0.000    2.000    0.000    0.000 
#    0.000    0.000    0.000    0.000    0.000    0.000 
#
# Total GULP energy -297627.528469 kJ/mol
# GULP energy per Si atom -12401.147020 kJ/mol
# Density = 1.913369 g / cm^3
# Si number density = 19.177340 Si / 1000 Ang^3
#
#
#
# Elastic Constant Matrix: (Units=GPa)
#
#
# Indices 1 2 3 4 5 6 
#
# 1 96.8064 39.1122 64.2137 0.0000 0.0000 0.0000
# 2 39.1122 67.0869 39.7262 0.0000 0.0000 0.0000
# 3 64.2137 39.7262 125.3785 0.0000 0.0000 0.0000
# 4 0.0000 0.0000 0.0000 27.6450 0.0000 0.0000
# 5 0.0000 0.0000 0.0000 0.0000 31.6396 0.0000
# 6 0.0000 0.0000 0.0000 0.0000 0.0000 27.6194
#
#
#
# Elastic Compliance Matrix: (Units=1/GPa)
#
#
# Indices 1 2 3 4 5 6 
#
# 1 0.017404 -0.005993 -0.007015 0.000000 0.000000 0.000000
# 2 -0.005993 0.020412 -0.003398 0.000000 0.000000 0.000000
# 3 -0.007015 -0.003398 0.012645 0.000000 0.000000 0.000000
# 4 0.000000 0.000000 0.000000 0.036173 0.000000 0.000000
# 5 0.000000 0.000000 0.000000 0.000000 0.031606 0.000000
# 6 0.000000 0.000000 0.000000 0.000000 0.000000 0.036206
#
#
# Mechanical properties :
#
#
# Convention : Reuss Voigt Hill
#
# Bulk Modulus (GPa) = 56.65823 63.93067 60.29445
# Shear Modulus (GPa) = 25.88759 27.12879 26.50819
#
# Velocity S-wave (km/s) = 3.67809 3.76523 3.72192
# Velocity P-wave (km/s) = 6.90263 7.23267 7.06958
#
# Compressibility (1/GPa) = 0.01764969
#
# Stress axis : x y z
#
# Youngs Moduli (GPa) = 57.45702 48.99010 79.08030
#
# Poissons Ratio (x) = 0.29359 0.55474
# Poissons Ratio (y) = 0.34433 0.26874
# Poissons Ratio (z) = 0.40306 0.16648
#
# Static dielectric constant tensor:
#      x y z
#    x 3.674010 0.000000 0.000000 
#    y 0.000000 3.499800 0.000000 
#    z 0.000000 0.000000 3.816620 
# 
# 
# High freq. dielectric constant tensor:
#      x y z
#    x 1.744250 0.000000 0.000000 
#    y 0.000000 1.737700 0.000000 
#    z 0.000000 0.000000 1.759440 
# 
# From -- ./inp_files/32995.got.cif
#   From: 2010.03.12/outbox.cif.g09.slc.cpg/sg42_17_cif.got.tgz:32995.got - 2010.04.14 02:04:31.
