data_PCOD8186797
_publ_section_title
;
Structure prediction by ZEFSAII (Michael W. Deem and Ramdas Pophale) SiO2 
 PCOD8186797
Probable space group: F M M 2
;
_chemical_formula_sum "Si O2"
_cell_formula_units_Z 112
_cell_length_a 12.731362
_cell_length_b 28.179195
_cell_length_c 17.782515
_cell_angle_alpha 90.000000
_cell_angle_beta 90.000000
_cell_angle_gamma 90.000000
_cell_volume 6379.646767
_symmetry_space_group_name_H-M "F M M 2"
_symmetry_group_IT_number 42
_symmetry_cell_setting 'orthorhombic'
loop_
_space_group_symop_operation_xyz
x,y,z
-x,-y,z
-x,y,z
x,-y,z
x,1/2+y,1/2+z
-x,1/2-y,1/2+z
-x,1/2+y,1/2+z
x,1/2-y,1/2+z
1/2+x,y,1/2+z
1/2-x,-y,1/2+z
1/2-x,y,1/2+z
1/2+x,-y,1/2+z
1/2+x,1/2+y,z
1/2-x,1/2-y,z
1/2-x,1/2+y,z
1/2+x,1/2-y,z
loop_
_atom_site_type_symbol
_atom_site_label
_atom_site_fract_x
_atom_site_fract_y
_atom_site_fract_z
Si Si1 0.376864 0.554851 0.384920
Si Si2 0.621399 0.822563 0.331847
Si Si3 0.624326 0.948042 0.716090
Si Si4 0.751606 0.862950 0.951064
Si Si5 0.123924 0.366860 0.604575
Si Si6 0.380271 0.282180 0.379524
Si Si7 0.289227 0.801206 0.725752
O O1 0.500000 0.563937 0.395644
O O2 0.349176 0.500000 0.402724
O O3 0.340968 0.567992 0.299786
O O4 0.316156 0.589257 0.441994
O O5 0.500000 0.823662 0.311991
O O6 0.653531 0.863667 0.390107
O O7 0.657970 0.772905 0.372933
O O8 0.684589 0.829375 0.253672
O O9 0.500000 0.950855 0.716101
O O10 0.662746 0.912239 0.652182
O O11 0.671449 0.000000 0.697574
O O12 0.682022 0.815268 0.938911
O O13 0.804228 0.863491 0.031975
O O14 0.149620 0.321470 0.654820
O O15 0.000000 0.368315 0.584379
O O16 0.500000 0.283093 0.406362
O O17 0.370548 0.303083 0.295410
O O18 0.250000 0.750000 0.700444
#
# Coordination Sequence:
#
# PCOD8186797 Si02
#       7
#    16  16  16  16  16  16  16
#     4   9  18  34  57  80  97 120 163 215 255 289
#     4   9  18  33  51  72  99 132 170 211 250 290
#     4   8  15  30  52  74  93 117 155 201 244 287
#     4  11  20  30  47  73 104 136 165 197 246 307
#     4  11  22  33  47  72 106 138 165 200 250 301
#     4   9  17  32  54  74  94 127 173 219 253 284
#     4   9  18  32  52  74  95 126 172 214 249 291
#
# _framework density 17.555831999999999
#
# number of rings (size 3 to 8) (size 9 to 14) (size 15 to 20)
#    0.000    2.571    0.000    5.143    0.000    3.429 
#    0.000    1.429    0.000    1.286    0.000    0.000 
#    0.000    0.000    0.000    0.000    0.000    0.000 
#
# Total GULP energy -346977.334803 kJ/mol
# GULP energy per Si atom -12392.047672 kJ/mol
# Density = 1.751587 g / cm^3
# Si number density = 17.555832 Si / 1000 Ang^3
#
#
#
# Elastic Constant Matrix: (Units=GPa)
#
#
# Indices 1 2 3 4 5 6 
#
# 1 63.3639 31.1599 35.4501 0.0000 0.0000 0.0000
# 2 31.1599 73.3281 41.9003 0.0000 0.0000 0.0000
# 3 35.4501 41.9003 101.4953 0.0000 0.0000 0.0000
# 4 0.0000 0.0000 0.0000 15.4590 0.0000 0.0000
# 5 0.0000 0.0000 0.0000 0.0000 25.3507 0.0000
# 6 0.0000 0.0000 0.0000 0.0000 0.0000 23.7267
#
#
#
# Elastic Compliance Matrix: (Units=1/GPa)
#
#
# Indices 1 2 3 4 5 6 
#
# 1 0.021688 -0.006396 -0.004935 0.000000 0.000000 0.000000
# 2 -0.006396 0.019734 -0.005913 0.000000 0.000000 0.000000
# 3 -0.004935 -0.005913 0.014017 0.000000 0.000000 0.000000
# 4 0.000000 0.000000 0.000000 0.064687 0.000000 0.000000
# 5 0.000000 0.000000 0.000000 0.000000 0.039447 0.000000
# 6 0.000000 0.000000 0.000000 0.000000 0.000000 0.042147
#
#
# Mechanical properties :
#
#
# Convention : Reuss Voigt Hill
#
# Bulk Modulus (GPa) = 47.72831 50.57865 49.15348
# Shear Modulus (GPa) = 20.55999 21.55241 21.05620
#
# Velocity S-wave (km/s) = 3.42588 3.50758 3.46697
# Velocity P-wave (km/s) = 6.54938 6.72881 6.63970
#
# Compressibility (1/GPa) = 0.02095192
#
# Stress axis : x y z
#
# Youngs Moduli (GPa) = 46.10825 50.67409 71.34148
#
# Poissons Ratio (x) = 0.32414 0.35204
# Poissons Ratio (y) = 0.29493 0.42181
# Poissons Ratio (z) = 0.22752 0.29962
#
# Static dielectric constant tensor:
#      x y z
#    x 3.189460 0.000000 0.000000 
#    y 0.000000 3.557830 0.000000 
#    z 0.000000 0.000000 3.001000 
# 
# 
# High freq. dielectric constant tensor:
#      x y z
#    x 1.671880 0.000000 0.000000 
#    y 0.000000 1.676020 0.000000 
#    z 0.000000 0.000000 1.653110 
# 
# From -- ./inp_files/14382.got.cif
#   From: 2010.03.12/outbox.cif.g09.slc.cpg/sg42_8_cif.got.tgz:14382.got - 2010.04.14 02:04:31.
