data_PCOD8186790
_publ_section_title
;
Structure prediction by ZEFSAII (Michael W. Deem and Ramdas Pophale) SiO2 
 PCOD8186790
Probable space group: F M M 2
;
_chemical_formula_sum "Si O2"
_cell_formula_units_Z 88
_cell_length_a 20.808566
_cell_length_b 22.751273
_cell_length_c 8.712518
_cell_angle_alpha 90.000000
_cell_angle_beta 90.000000
_cell_angle_gamma 90.000000
_cell_volume 4124.692171
_symmetry_space_group_name_H-M "F M M 2"
_symmetry_group_IT_number 42
_symmetry_cell_setting 'orthorhombic'
loop_
_space_group_symop_operation_xyz
x,y,z
-x,-y,z
-x,y,z
x,-y,z
x,1/2+y,1/2+z
-x,1/2-y,1/2+z
-x,1/2+y,1/2+z
x,1/2-y,1/2+z
1/2+x,y,1/2+z
1/2-x,-y,1/2+z
1/2-x,y,1/2+z
1/2+x,-y,1/2+z
1/2+x,1/2+y,z
1/2-x,1/2-y,z
1/2-x,1/2+y,z
1/2+x,1/2-y,z
loop_
_atom_site_type_symbol
_atom_site_label
_atom_site_fract_x
_atom_site_fract_y
_atom_site_fract_z
Si Si1 0.500000 0.000000 0.560241
Si Si2 0.000000 0.000000 0.573625
Si Si3 0.611322 0.500000 0.814888
Si Si4 0.226852 0.816397 0.516710
Si Si5 0.605878 0.689256 0.309233
Si Si6 0.669646 0.124891 0.319823
Si Si7 0.500000 0.094467 0.818784
Si Si8 0.928648 0.698572 0.477587
O O1 0.433948 0.000000 0.464237
O O2 0.500000 0.942358 0.663373
O O3 0.065325 0.000000 0.669093
O O4 0.000000 0.057565 0.472431
O O5 0.660050 0.555156 0.808447
O O6 0.250000 0.750000 0.551669
O O7 0.176823 0.816005 0.376455
O O8 0.284362 0.858438 0.461640
O O9 0.195367 0.845873 0.664829
O O10 0.566186 0.629831 0.324248
O O11 0.565907 0.739047 0.395703
O O12 0.614601 0.705358 0.129946
O O13 0.599926 0.152058 0.357480
O O14 0.000000 0.677218 0.525497
#
# Coordination Sequence:
#
# PCOD8186790 Si02
#       8
#     4   4   8  16  16  16   8  16
#     4  10  24  46  76  98 146 190 242 288 368 428
#     4  10  24  42  68  98 142 178 242 280 368 416
#     4  11  26  48  70 104 134 193 240 302 346 429
#     4  12  26  47  71 106 144 193 240 294 362 434
#     4  12  24  41  69 104 147 183 234 285 363 426
#     4  12  27  46  74 100 145 191 245 294 358 423
#     4  11  22  44  70 106 140 189 230 304 348 435
#     4  12  24  42  66 109 144 183 227 291 359 433
#
# _framework density 21.334924999999998
#
# number of rings (size 3 to 8) (size 9 to 14) (size 15 to 20)
#    0.000    0.364    3.636    4.909    2.545    0.727 
#    1.636    1.818    0.000    0.000    0.000    0.000 
#    0.000    0.000    0.000    0.000    0.000    0.000 
#
# Total GULP energy -272907.213771 kJ/mol
# GULP energy per Si atom -12404.873353 kJ/mol
# Density = 2.128637 g / cm^3
# Si number density = 21.334925 Si / 1000 Ang^3
#
#
#
# Elastic Constant Matrix: (Units=GPa)
#
#
# Indices 1 2 3 4 5 6 
#
# 1 110.9070 63.0106 45.8876 0.0003 -0.0003 -0.0001
# 2 63.0106 181.4198 73.8581 0.0004 -0.0004 -0.0001
# 3 45.8876 73.8581 147.6174 0.0008 -0.0008 -0.0002
# 4 0.0003 0.0004 0.0008 45.2902 -0.0005 -0.0005
# 5 -0.0003 -0.0004 -0.0008 -0.0005 36.1705 0.0001
# 6 -0.0001 -0.0001 -0.0002 -0.0005 0.0001 23.8065
#
#
#
# Elastic Compliance Matrix: (Units=1/GPa)
#
#
# Indices 1 2 3 4 5 6 
#
# 1 0.011691 -0.003241 -0.002012 0.000000 0.000000 0.000000
# 2 -0.003241 0.007821 -0.002905 0.000000 0.000000 0.000000
# 3 -0.002012 -0.002905 0.008854 0.000000 0.000000 0.000000
# 4 0.000000 0.000000 0.000000 0.022080 0.000000 0.000000
# 5 0.000000 0.000000 0.000000 0.000000 0.027647 0.000000
# 6 0.000000 0.000000 0.000000 0.000000 0.000000 0.042005
#
#
# Mechanical properties :
#
#
# Convention : Reuss Voigt Hill
#
# Bulk Modulus (GPa) = 83.00937 89.49521 86.25229
# Shear Modulus (GPa) = 35.60490 38.19931 36.90210
#
# Velocity S-wave (km/s) = 4.08959 4.23597 4.16343
# Velocity P-wave (km/s) = 7.82892 8.12179 7.97670
#
# Compressibility (1/GPa) = 0.01204683
#
# Stress axis : x y z
#
# Youngs Moduli (GPa) = 85.53883 127.86754 112.94930
#
# Poissons Ratio (x) = 0.41443 0.22731
# Poissons Ratio (y) = 0.27724 0.32816
# Poissons Ratio (z) = 0.17214 0.37151
#
# Static dielectric constant tensor:
#      x y z
#    x 3.883620 0.000000 0.000000 
#    y 0.000000 3.856110 0.000000 
#    z 0.000000 0.000000 4.009170 
# 
# 
# High freq. dielectric constant tensor:
#      x y z
#    x 1.848110 0.000000 0.000000 
#    y 0.000000 1.836150 0.000000 
#    z 0.000000 0.000000 1.856100 
# 
# From -- ./inp_files/4104.got.cif
#   From: 2010.03.12/outbox.cif.g09.slc.cpg/sg42_3_cif.got.tgz:4104.got - 2010.04.14 02:04:31.
