data_PCOD8186972
_publ_section_title
;
Structure prediction by ZEFSAII (Michael W. Deem and Ramdas Pophale) SiO2 
 PCOD8186972
Probable space group: F D D 2
;
_chemical_formula_sum "Si O2"
_cell_formula_units_Z 112
_cell_length_a 32.921841
_cell_length_b 11.831803
_cell_length_c 13.577465
_cell_angle_alpha 90.000000
_cell_angle_beta 90.000000
_cell_angle_gamma 90.000000
_cell_volume 5288.758485
_symmetry_space_group_name_H-M "F D D 2"
_symmetry_group_IT_number 43
_symmetry_cell_setting 'orthorhombic'
loop_
_space_group_symop_operation_xyz
x,y,z
-x,-y,z
1/4-x,1/4+y,1/4+z
1/4+x,1/4-y,1/4+z
x,1/2+y,1/2+z
-x,1/2-y,1/2+z
1/4-x,3/4+y,3/4+z
1/4+x,3/4-y,3/4+z
1/2+x,y,1/2+z
1/2-x,-y,1/2+z
3/4-x,1/4+y,3/4+z
3/4+x,1/4-y,3/4+z
1/2+x,1/2+y,z
1/2-x,1/2-y,z
3/4-x,3/4+y,1/4+z
3/4+x,3/4-y,1/4+z
loop_
_atom_site_type_symbol
_atom_site_label
_atom_site_fract_x
_atom_site_fract_y
_atom_site_fract_z
Si Si1 0.750000 0.250000 0.099160
Si Si2 0.326432 0.620933 0.157063
Si Si3 0.148972 0.465749 0.869260
Si Si4 0.320022 0.107629 0.184878
Si Si5 0.795376 0.913393 0.040163
Si Si6 0.750000 0.250000 0.686434
Si Si7 0.141147 0.261477 0.015140
Si Si8 0.467674 0.717002 0.257448
O O1 0.716704 0.313756 0.166610
O O2 0.772766 0.337136 0.027822
O O3 0.360434 0.702476 0.111226
O O4 0.339806 0.578772 0.262907
O O5 0.322193 0.513592 0.086119
O O6 0.138230 0.358497 0.934893
O O7 0.186998 0.531516 0.916181
O O8 0.284268 0.176341 0.243909
O O9 0.346657 0.046226 0.267861
O O10 0.348979 0.193269 0.123688
O O11 0.301178 0.020531 0.106457
O O12 0.775041 0.838886 0.123824
O O13 0.825031 0.830193 0.979011
O O14 0.758608 0.965207 0.975139
#
# Coordination Sequence:
#
# PCOD8186972 Si02
#       8
#     8  16  16  16  16   8  16  16
#     4  10  20  38  60  82 112 156 196 238 296 360
#     4  11  23  37  58  87 122 158 195 245 306 363
#     4  11  22  38  59  87 118 154 196 244 294 359
#     4   9  17  31  53  81 105 136 181 229 273 326
#     4   9  20  37  58  83 114 152 191 241 298 348
#     4   8  16  34  54  72 104 144 178 214 272 334
#     4  10  19  33  57  81 106 144 190 235 278 331
#     4   9  19  37  58  79 113 153 192 237 293 349
#
# _framework density 21.176994000000001
#
# number of rings (size 3 to 8) (size 9 to 14) (size 15 to 20)
#    0.000    2.286    0.000    4.286    0.000    3.429 
#    0.000    3.571    0.000    0.000    0.000    0.000 
#    0.000    0.000    0.000    0.000    0.000    0.000 
#
# Total GULP energy -347011.591744 kJ/mol
# GULP energy per Si atom -12393.271134 kJ/mol
# Density = 2.112879 g / cm^3
# Si number density = 21.176994 Si / 1000 Ang^3
#
#
#
# Elastic Constant Matrix: (Units=GPa)
#
#
# Indices 1 2 3 4 5 6 
#
# 1 94.7292 65.6824 4.3755 0.0000 0.0000 0.0000
# 2 65.6824 132.1731 17.1521 0.0000 0.0000 0.0000
# 3 4.3755 17.1521 18.7647 0.0000 0.0000 0.0000
# 4 0.0000 0.0000 0.0000 13.5106 0.0000 0.0000
# 5 0.0000 0.0000 0.0000 0.0000 30.9716 0.0000
# 6 0.0000 0.0000 0.0000 0.0000 0.0000 60.3412
#
#
#
# Elastic Compliance Matrix: (Units=1/GPa)
#
#
# Indices 1 2 3 4 5 6 
#
# 1 0.016380 -0.008673 0.004108 0.000000 0.000000 0.000000
# 2 -0.008673 0.013176 -0.010022 0.000000 0.000000 0.000000
# 3 0.004108 -0.010022 0.061494 0.000000 0.000000 0.000000
# 4 0.000000 0.000000 0.000000 0.074016 0.000000 0.000000
# 5 0.000000 0.000000 0.000000 0.000000 0.032288 0.000000
# 6 0.000000 0.000000 0.000000 0.000000 0.000000 0.016572
#
#
# Mechanical properties :
#
#
# Convention : Reuss Voigt Hill
#
# Bulk Modulus (GPa) = 16.16089 46.67633 31.41861
# Shear Modulus (GPa) = 18.95907 31.52850 25.24378
#
# Velocity S-wave (km/s) = 2.99535 3.86269 3.45634
# Velocity P-wave (km/s) = 4.42840 6.47941 5.54948
#
# Compressibility (1/GPa) = 0.06187780
#
# Stress axis : x y z
#
# Youngs Moduli (GPa) = 61.04851 75.89284 16.26172
#
# Poissons Ratio (x) = 0.65824 -0.06681
# Poissons Ratio (y) = 0.52949 0.16297
# Poissons Ratio (z) = -0.25081 0.76058
#
# Static dielectric constant tensor:
#      x y z
#    x 4.432860 0.000000 0.000000 
#    y 0.000000 4.306090 0.000000 
#    z 0.000000 0.000000 3.203730 
# 
# 
# High freq. dielectric constant tensor:
#      x y z
#    x 1.856490 0.000000 0.000000 
#    y 0.000000 1.855400 0.000000 
#    z 0.000000 0.000000 1.765780 
# 
# From -- ./inp_files/9810.got.cif
#   From: 2010.06.25/outbox.cif.g09.slc.cpg/sg43_5_cif.got.tgz:9810.got - 2010.06.26 16:48:59.
