data_PCOD8186344
_publ_section_title
;
Structure prediction by ZEFSAII (Michael W. Deem and Ramdas Pophale) SiO2 
 PCOD8186344
Probable space group: F M M 2
;
_chemical_formula_sum "Si O2"
_cell_formula_units_Z 104
_cell_length_a 27.718277
_cell_length_b 19.368748
_cell_length_c 9.676096
_cell_angle_alpha 90.000000
_cell_angle_beta 90.000000
_cell_angle_gamma 90.000000
_cell_volume 5194.789425
_symmetry_space_group_name_H-M "F M M 2"
_symmetry_group_IT_number 42
_symmetry_cell_setting 'orthorhombic'
loop_
_space_group_symop_operation_xyz
x,y,z
-x,-y,z
-x,y,z
x,-y,z
x,1/2+y,1/2+z
-x,1/2-y,1/2+z
-x,1/2+y,1/2+z
x,1/2-y,1/2+z
1/2+x,y,1/2+z
1/2-x,-y,1/2+z
1/2-x,y,1/2+z
1/2+x,-y,1/2+z
1/2+x,1/2+y,z
1/2-x,1/2-y,z
1/2-x,1/2+y,z
1/2+x,1/2-y,z
loop_
_atom_site_type_symbol
_atom_site_label
_atom_site_fract_x
_atom_site_fract_y
_atom_site_fract_z
Si Si1 0.393995 0.072773 0.804030
Si Si2 0.657526 0.422177 0.593405
Si Si3 0.000000 0.347820 0.456913
Si Si4 0.141833 0.283377 0.762485
Si Si5 0.500000 0.690867 0.511724
Si Si6 0.500000 0.395472 0.258818
Si Si7 0.577127 0.657396 0.728919
Si Si8 0.799385 0.784720 0.534380
O O1 0.374911 0.139189 0.720074
O O2 0.451799 0.065927 0.806301
O O3 0.374565 0.000000 0.739229
O O4 0.375074 0.077424 0.958896
O O5 0.677003 0.500000 0.627219
O O6 0.622264 0.395096 0.715733
O O7 0.702135 0.366885 0.576662
O O8 0.046751 0.364063 0.363518
O O9 0.000000 0.272404 0.522426
O O10 0.000000 0.394474 0.592557
O O11 0.095446 0.235289 0.750153
O O12 0.185203 0.261538 0.663662
O O13 0.160061 0.278255 0.918585
O O14 0.500000 0.675877 0.347179
O O15 0.546360 0.658160 0.587957
O O16 0.750000 0.750000 0.481340
#
# Coordination Sequence:
#
# PCOD8186344 Si02
#       8
#    16  16   8  16   8   8  16  16
#     4  10  20  35  54  80 111 151 197 235 273 328
#     4   9  19  38  62  83 109 150 199 232 270 346
#     4  11  23  30  50  81 124 152 191 248 288 327
#     4  10  21  36  61  84 112 147 187 234 288 342
#     4  11  19  34  51  81 115 157 205 240 274 324
#     4  12  21  32  53  78 117 153 197 240 283 329
#     4  10  21  36  54  82 114 158 195 237 282 329
#     4  10  21  38  63  90 114 140 181 238 299 349
#
# _framework density 20.020060999999998
#
# number of rings (size 3 to 8) (size 9 to 14) (size 15 to 20)
#    0.000    1.846    1.538    3.462    6.462    0.000 
#    0.000    3.846    0.000    9.231    0.000    0.000 
#    0.000    0.000    0.000    0.000    0.000    0.000 
#
# Total GULP energy -322168.913008 kJ/mol
# GULP energy per Si atom -12391.112039 kJ/mol
# Density = 1.997449 g / cm^3
# Si number density = 20.020061 Si / 1000 Ang^3
#
#
#
# Elastic Constant Matrix: (Units=GPa)
#
#
# Indices 1 2 3 4 5 6 
#
# 1 78.2410 48.6014 10.6554 0.0000 0.0000 0.0000
# 2 48.6014 168.7380 27.8779 0.0001 0.0000 0.0000
# 3 10.6554 27.8779 69.1784 0.0002 0.0000 0.0000
# 4 0.0000 0.0001 0.0002 21.1024 0.0000 0.0000
# 5 0.0000 0.0000 0.0000 0.0000 12.0459 0.0000
# 6 0.0000 0.0000 0.0000 0.0000 0.0000 13.7594
#
#
#
# Elastic Compliance Matrix: (Units=1/GPa)
#
#
# Indices 1 2 3 4 5 6 
#
# 1 0.015592 -0.004386 -0.000634 0.000000 0.000000 0.000000
# 2 -0.004386 0.007583 -0.002380 0.000000 0.000000 0.000000
# 3 -0.000634 -0.002380 0.015512 0.000000 0.000000 0.000000
# 4 0.000000 0.000000 0.000000 0.047388 0.000000 0.000000
# 5 0.000000 0.000000 0.000000 0.000000 0.083016 0.000000
# 6 0.000000 0.000000 0.000000 0.000000 0.000000 0.072678
#
#
# Mechanical properties :
#
#
# Convention : Reuss Voigt Hill
#
# Bulk Modulus (GPa) = 41.86504 54.49186 48.17845
# Shear Modulus (GPa) = 18.90133 24.64971 21.77552
#
# Velocity S-wave (km/s) = 3.07599 3.51272 3.30158
# Velocity P-wave (km/s) = 5.79418 6.61287 6.21702
#
# Compressibility (1/GPa) = 0.02388628
#
# Stress axis : x y z
#
# Youngs Moduli (GPa) = 64.13560 131.87495 64.46523
#
# Poissons Ratio (x) = 0.57843 0.04087
# Poissons Ratio (y) = 0.28131 0.15344
# Poissons Ratio (z) = 0.04066 0.31389
#
# Static dielectric constant tensor:
#      x y z
#    x 3.443260 0.000000 0.000000 
#    y 0.000000 3.959840 0.000000 
#    z 0.000000 0.000000 3.495070 
# 
# 
# High freq. dielectric constant tensor:
#      x y z
#    x 1.762120 0.000000 0.000000 
#    y 0.000000 1.780840 0.000000 
#    z 0.000000 0.000000 1.770330 
# 
# From -- ./inp_files/5616.got.cif
#   From: 2010.03.12/outbox.cif.g09.slc.cpg/sg42_3_cif.got.tgz:5616.got - 2010.04.14 02:04:31.
