data_PCOD8186538
_publ_section_title
;
Structure prediction by ZEFSAII (Michael W. Deem and Ramdas Pophale) SiO2 
 PCOD8186538
Probable space group: F M M 2
;
_chemical_formula_sum "Si O2"
_cell_formula_units_Z 88
_cell_length_a 31.210195
_cell_length_b 15.832876
_cell_length_c 9.092306
_cell_angle_alpha 90.000000
_cell_angle_beta 90.000000
_cell_angle_gamma 90.000000
_cell_volume 4492.937073
_symmetry_space_group_name_H-M "F M M 2"
_symmetry_group_IT_number 42
_symmetry_cell_setting 'orthorhombic'
loop_
_space_group_symop_operation_xyz
x,y,z
-x,-y,z
-x,y,z
x,-y,z
x,1/2+y,1/2+z
-x,1/2-y,1/2+z
-x,1/2+y,1/2+z
x,1/2-y,1/2+z
1/2+x,y,1/2+z
1/2-x,-y,1/2+z
1/2-x,y,1/2+z
1/2+x,-y,1/2+z
1/2+x,1/2+y,z
1/2-x,1/2-y,z
1/2-x,1/2+y,z
1/2+x,1/2-y,z
loop_
_atom_site_type_symbol
_atom_site_label
_atom_site_fract_x
_atom_site_fract_y
_atom_site_fract_z
Si Si1 0.090049 0.000000 0.026420
Si Si2 0.670650 0.500000 0.861564
Si Si3 0.199094 0.500000 0.022997
Si Si4 0.727845 0.634932 0.970619
Si Si5 0.951943 0.176571 0.056470
Si Si6 0.750000 0.250000 0.216998
Si Si7 0.450324 0.839943 0.897296
Si Si8 0.607134 0.500000 0.366548
O O1 0.111184 0.000000 0.189174
O O2 0.120296 0.000000 0.882636
O O3 0.063933 0.914454 0.003385
O O4 0.687580 0.500000 0.695537
O O5 0.686898 0.577380 0.959395
O O6 0.227237 0.416852 0.984297
O O7 0.155523 0.500000 0.929379
O O8 0.719481 0.695390 0.109848
O O9 0.724151 0.687145 0.820064
O O10 0.930187 0.259955 0.985303
O O11 0.000000 0.180446 0.998806
O O12 0.947874 0.186246 0.229015
O O13 0.500000 0.862268 0.940244
O O14 0.419325 0.919517 0.926299
#
# Coordination Sequence:
#
# PCOD8186538 Si02
#       8
#     8   8   8  16  16   8  16   8
#     4  10  22  37  56  84 114 157 189 232 285 342
#     4  11  23  40  57  82 118 155 184 233 284 345
#     4  11  23  40  57  82 118 155 184 233 284 345
#     4  10  22  40  62  84 112 148 192 232 282 340
#     4   9  18  36  59  83 111 147 192 237 283 338
#     4  10  20  40  64  90 104 140 198 238 280 336
#     4   9  18  36  59  83 111 147 192 237 283 338
#     4  10  22  37  56  84 114 157 189 232 285 342
#
# _framework density 19.586296999999998
#
# number of rings (size 3 to 8) (size 9 to 14) (size 15 to 20)
#    0.000    2.182    1.818    0.545    2.545    3.636 
#    6.545    0.000    0.000    5.455    0.000    0.000 
#    0.000    0.000    0.000    0.000    0.000    0.000 
#
# Total GULP energy -272566.220284 kJ/mol
# GULP energy per Si atom -12389.373649 kJ/mol
# Density = 1.954172 g / cm^3
# Si number density = 19.586297 Si / 1000 Ang^3
#
#
#
# Elastic Constant Matrix: (Units=GPa)
#
#
# Indices 1 2 3 4 5 6 
#
# 1 70.1185 43.7057 25.5894 0.0000 0.0000 0.0000
# 2 43.7057 159.8063 54.7810 0.0000 0.0000 0.0000
# 3 25.5894 54.7810 84.0028 0.0000 0.0000 0.0000
# 4 0.0000 0.0000 0.0000 41.7879 0.0000 0.0000
# 5 0.0000 0.0000 0.0000 0.0000 24.2674 0.0000
# 6 0.0000 0.0000 0.0000 0.0000 0.0000 -3.6338
#
#
#
# Elastic Compliance Matrix: (Units=1/GPa)
#
#
# Indices 1 2 3 4 5 6 
#
# 1 0.017718 -0.003858 -0.002881 0.000000 0.000000 0.000000
# 2 -0.003858 0.008899 -0.004628 0.000000 0.000000 0.000000
# 3 -0.002881 -0.004628 0.015800 0.000000 0.000000 0.000000
# 4 0.000000 0.000000 0.000000 0.023930 0.000000 0.000000
# 5 0.000000 0.000000 0.000000 0.000000 0.041208 0.000000
# 6 0.000000 0.000000 0.000000 0.000000 0.000000 -0.275194
#
#
# Mechanical properties :
#
#
# Convention : Reuss Voigt Hill
#
# Bulk Modulus (GPa) = 50.80729 62.45329 56.63029
# Shear Modulus (GPa) = -36.14223 25.14108 -5.50058
#
# Velocity S-wave (km/s) = -4.30033 3.58663 -1.67764
# Velocity P-wave (km/s) = 1.15731 7.00766 5.02229
#
# Compressibility (1/GPa) = 0.01968221
#
# Stress axis : x y z
#
# Youngs Moduli (GPa) = 56.44028 112.36914 63.28969
#
# Poissons Ratio (x) = 0.43351 0.18236
# Poissons Ratio (y) = 0.21774 0.29292
# Poissons Ratio (z) = 0.16263 0.52007
#
# Static dielectric constant tensor:
#      x y z
#    x 3.329660 0.000000 0.000000 
#    y 0.000000 3.873040 0.000000 
#    z 0.000000 0.000000 3.629850 
# 
# 
# High freq. dielectric constant tensor:
#      x y z
#    x 1.732880 0.000000 0.000000 
#    y 0.000000 1.788040 0.000000 
#    z 0.000000 0.000000 1.765630 
# 
# From -- ./inp_files/5567.got.cif
#   From: 2010.03.12/outbox.cif.g09.slc.cpg/sg42_3_cif.got.tgz:5567.got - 2010.04.14 02:04:31.
