data_PCOD8186897
_publ_section_title
;
Structure prediction by ZEFSAII (Michael W. Deem and Ramdas Pophale) SiO2 
 PCOD8186897
Probable space group: F D D 2
;
_chemical_formula_sum "Si O2"
_cell_formula_units_Z 88
_cell_length_a 18.375259
_cell_length_b 25.904082
_cell_length_c 9.417119
_cell_angle_alpha 90.000000
_cell_angle_beta 90.000000
_cell_angle_gamma 90.000000
_cell_volume 4482.494175
_symmetry_space_group_name_H-M "F D D 2"
_symmetry_group_IT_number 43
_symmetry_cell_setting 'orthorhombic'
loop_
_space_group_symop_operation_xyz
x,y,z
-x,-y,z
1/4-x,1/4+y,1/4+z
1/4+x,1/4-y,1/4+z
x,1/2+y,1/2+z
-x,1/2-y,1/2+z
1/4-x,3/4+y,3/4+z
1/4+x,3/4-y,3/4+z
1/2+x,y,1/2+z
1/2-x,-y,1/2+z
3/4-x,1/4+y,3/4+z
3/4+x,1/4-y,3/4+z
1/2+x,1/2+y,z
1/2-x,1/2-y,z
3/4-x,3/4+y,1/4+z
3/4+x,3/4-y,1/4+z
loop_
_atom_site_type_symbol
_atom_site_label
_atom_site_fract_x
_atom_site_fract_y
_atom_site_fract_z
Si Si1 0.500000 0.500000 0.640121
Si Si2 0.060877 0.400673 0.447991
Si Si3 0.175536 0.480119 0.522969
Si Si4 0.491706 0.706826 0.000762
Si Si5 0.087221 0.063610 0.862866
Si Si6 0.860676 0.329643 0.380851
O O1 0.560966 0.528377 0.733944
O O2 0.450418 0.542221 0.553399
O O3 0.116853 0.434343 0.540930
O O4 0.064252 0.341218 0.494995
O O5 0.078327 0.406535 0.283455
O O6 0.978570 0.421085 0.469072
O O7 0.204315 0.492555 0.681319
O O8 0.240364 0.464126 0.416211
O O9 0.142917 0.532108 0.457705
O O10 0.562411 0.698333 0.901604
O O11 0.126449 0.115677 0.800773
#
# Coordination Sequence:
#
# PCOD8186897 Si02
#       6
#     8  16  16  16  16  16
#     4  10  16  30  48  76 102 126 178 234 254 298
#     4   9  17  30  52  79 102 135 181 225 258 315
#     4  11  19  33  54  80 108 139 177 223 273 315
#     4  10  20  32  54  79 110 135 179 221 269 323
#     4  10  15  27  48  80  95 128 179 226 248 303
#     4   9  17  28  50  79  98 131 178 222 259 306
#
# _framework density 19.631927000000001
#
# number of rings (size 3 to 8) (size 9 to 14) (size 15 to 20)
#    0.000    2.182    7.273    0.000    0.000    0.000 
#    0.000    0.000   12.000    0.000    4.727    0.000 
#    0.000    0.000    0.000    0.000    0.000    0.000 
#
# Total GULP energy -272588.122126 kJ/mol
# GULP energy per Si atom -12390.369188 kJ/mol
# Density = 1.958724 g / cm^3
# Si number density = 19.631927 Si / 1000 Ang^3
#
#
#
# Elastic Constant Matrix: (Units=GPa)
#
#
# Indices 1 2 3 4 5 6 
#
# 1 79.4824 59.7134 11.8570 0.0000 0.0000 0.0000
# 2 59.7134 130.3756 24.2310 0.0000 0.0000 0.0000
# 3 11.8570 24.2310 13.1967 0.0000 0.0001 0.0000
# 4 0.0000 0.0000 0.0000 9.7428 0.0000 0.0000
# 5 0.0000 0.0000 0.0001 0.0000 15.2185 0.0000
# 6 0.0000 0.0000 0.0000 0.0000 0.0000 55.2154
#
#
#
# Elastic Compliance Matrix: (Units=1/GPa)
#
#
# Indices 1 2 3 4 5 6 
#
# 1 0.019206 -0.008485 -0.001677 0.000000 0.000000 0.000000
# 2 -0.008485 0.015392 -0.020639 0.000000 0.000000 0.000000
# 3 -0.001677 -0.020639 0.115179 0.000000 0.000000 0.000000
# 4 0.000000 0.000000 0.000000 0.102640 0.000000 0.000000
# 5 0.000000 0.000000 0.000000 0.000000 0.065709 0.000000
# 6 0.000000 0.000000 0.000000 0.000000 0.000000 0.018111
#
#
# Mechanical properties :
#
#
# Convention : Reuss Voigt Hill
#
# Bulk Modulus (GPa) = 11.34089 46.07302 28.70696
# Shear Modulus (GPa) = 11.70328 24.51889 18.11109
#
# Velocity S-wave (km/s) = 2.44424 3.53785 3.04062
# Velocity P-wave (km/s) = 3.70878 6.34097 5.19437
#
# Compressibility (1/GPa) = 0.08817648
#
# Stress axis : x y z
#
# Youngs Moduli (GPa) = 52.06676 64.96816 8.68215
#
# Poissons Ratio (x) = 0.55125 0.01456
# Poissons Ratio (y) = 0.44179 0.17919
# Poissons Ratio (z) = 0.08730 1.34085
#
# Static dielectric constant tensor:
#      x y z
#    x 3.969440 0.000000 0.000000 
#    y 0.000000 4.108210 0.000000 
#    z 0.000000 0.000000 2.860590 
# 
# 
# High freq. dielectric constant tensor:
#      x y z
#    x 1.772740 0.000000 0.000000 
#    y 0.000000 1.786640 0.000000 
#    z 0.000000 0.000000 1.676490 
# 
# From -- ./inp_files/2925.got.cif
#   From: 2010.06.25/outbox.cif.g09.slc.cpg/sg43_2_cif.got.tgz:2925.got - 2010.06.26 16:48:59.
