data_PCOD8186021
_publ_section_title
;
Structure prediction by ZEFSAII (Michael W. Deem and Ramdas Pophale) SiO2 
 PCOD8186021
Probable space group: F M M 2
;
_chemical_formula_sum "Si O2"
_cell_formula_units_Z 96
_cell_length_a 19.771267
_cell_length_b 8.964835
_cell_length_c 30.985993
_cell_angle_alpha 90.000000
_cell_angle_beta 90.000000
_cell_angle_gamma 90.000000
_cell_volume 5492.147852
_symmetry_space_group_name_H-M "F M M 2"
_symmetry_group_IT_number 42
_symmetry_cell_setting 'orthorhombic'
loop_
_space_group_symop_operation_xyz
x,y,z
-x,-y,z
-x,y,z
x,-y,z
x,1/2+y,1/2+z
-x,1/2-y,1/2+z
-x,1/2+y,1/2+z
x,1/2-y,1/2+z
1/2+x,y,1/2+z
1/2-x,-y,1/2+z
1/2-x,y,1/2+z
1/2+x,-y,1/2+z
1/2+x,1/2+y,z
1/2-x,1/2-y,z
1/2-x,1/2+y,z
1/2+x,1/2-y,z
loop_
_atom_site_type_symbol
_atom_site_label
_atom_site_fract_x
_atom_site_fract_y
_atom_site_fract_z
Si Si1 0.821114 0.178840 0.909280
Si Si2 0.820891 0.822088 0.319379
Si Si3 0.075155 0.322490 0.481818
Si Si4 0.080495 0.165595 0.076100
Si Si5 0.076541 0.325181 0.744655
Si Si6 0.419443 0.166488 0.158977
O O1 0.750000 0.250000 0.922837
O O2 0.845157 0.248046 0.864000
O O3 0.874386 0.233384 0.944988
O O4 0.815665 0.000000 0.905853
O O5 0.750000 0.750000 0.304833
O O6 0.876941 0.777350 0.284479
O O7 0.812952 0.000000 0.324719
O O8 0.072546 0.500000 0.483473
O O9 0.100296 0.266110 0.529122
O O10 0.000000 0.260101 0.471485
O O11 0.110799 0.263817 0.115001
O O12 0.000000 0.158879 0.078895
O O13 0.110775 0.000000 0.081462
O O14 0.077858 0.500000 0.737265
O O15 0.106398 0.253518 0.701106
O O16 0.000000 0.269687 0.754136
O O17 0.500000 0.172029 0.157274
O O18 0.391464 0.000000 0.162288
#
# Coordination Sequence:
#
# PCOD8186021 Si02
#       6
#    16  16  16  16  16  16
#     4  10  19  32  50  69  92 122 155 190 228 275
#     4  10  20  34  51  69  91 121 156 191 228 275
#     4   8  15  28  47  71  94 119 155 194 228 265
#     4   8  13  24  43  64  88 119 153 187 224 269
#     4   9  18  32  49  69  93 122 155 189 227 272
#     4   9  16  25  40  66  97 123 149 185 228 271
#
# _framework density 17.479499000000001
#
# number of rings (size 3 to 8) (size 9 to 14) (size 15 to 20)
#    0.000    3.000    0.000    3.500    0.000    4.000 
#    0.000    1.667    0.000    4.500    0.000    2.333 
#    0.000    0.000    0.000    0.000    0.000    0.000 
#
# Total GULP energy -297474.725281 kJ/mol
# GULP energy per Si atom -12394.780220 kJ/mol
# Density = 1.743972 g / cm^3
# Si number density = 17.479499 Si / 1000 Ang^3
#
#
#
# Elastic Constant Matrix: (Units=GPa)
#
#
# Indices 1 2 3 4 5 6 
#
# 1 66.5336 31.8408 83.7073 0.0000 0.0000 0.0000
# 2 31.8408 65.3531 58.9613 0.0000 0.0000 0.0000
# 3 83.7073 58.9613 182.3508 0.0000 0.0000 0.0000
# 4 0.0000 0.0000 0.0000 23.5618 0.0000 0.0000
# 5 0.0000 0.0000 0.0000 0.0000 4.3967 0.0000
# 6 0.0000 0.0000 0.0000 0.0000 0.0000 16.0685
#
#
#
# Elastic Compliance Matrix: (Units=1/GPa)
#
#
# Indices 1 2 3 4 5 6 
#
# 1 0.036211 -0.003735 -0.015415 0.000000 0.000000 0.000000
# 2 -0.003735 0.021989 -0.005395 0.000000 0.000000 0.000000
# 3 -0.015415 -0.005395 0.014305 0.000000 0.000000 0.000000
# 4 0.000000 0.000000 0.000000 0.042442 0.000000 0.000000
# 5 0.000000 0.000000 0.000000 0.000000 0.227443 0.000000
# 6 0.000000 0.000000 0.000000 0.000000 0.000000 0.062233
#
#
# Mechanical properties :
#
#
# Convention : Reuss Voigt Hill
#
# Bulk Modulus (GPa) = 42.70953 73.69515 58.20234
# Shear Modulus (GPa) = 10.83380 18.12061 14.47720
#
# Velocity S-wave (km/s) = 2.49228 3.22324 2.88104
# Velocity P-wave (km/s) = 5.72443 7.49031 6.66610
#
# Compressibility (1/GPa) = 0.02341398
#
# Stress axis : x y z
#
# Youngs Moduli (GPa) = 27.61564 45.47737 69.90785
#
# Poissons Ratio (x) = 0.16987 1.07762
# Poissons Ratio (y) = 0.10315 0.37717
# Poissons Ratio (z) = 0.42569 0.24536
#
# Static dielectric constant tensor:
#      x y z
#    x 3.004720 0.000000 0.000000 
#    y 0.000000 3.209800 0.000000 
#    z 0.000000 0.000000 3.546400 
# 
# 
# High freq. dielectric constant tensor:
#      x y z
#    x 1.632240 0.000000 0.000000 
#    y 0.000000 1.666530 0.000000 
#    z 0.000000 0.000000 1.691790 
# 
# From -- ./inp_files/28042.got.cif
#   From: 2010.03.12/outbox.cif.g09.slc.cpg/sg42_15_cif.got.tgz:28042.got - 2010.04.14 02:04:31.
