data_PCOD8186435
_publ_section_title
;
Structure prediction by ZEFSAII (Michael W. Deem and Ramdas Pophale) SiO2 
 PCOD8186435
Probable space group: F M M 2
;
_chemical_formula_sum "Si O2"
_cell_formula_units_Z 96
_cell_length_a 23.728041
_cell_length_b 8.712529
_cell_length_c 24.901391
_cell_angle_alpha 90.000000
_cell_angle_beta 90.000000
_cell_angle_gamma 90.000000
_cell_volume 5147.895572
_symmetry_space_group_name_H-M "F M M 2"
_symmetry_group_IT_number 42
_symmetry_cell_setting 'orthorhombic'
loop_
_space_group_symop_operation_xyz
x,y,z
-x,-y,z
-x,y,z
x,-y,z
x,1/2+y,1/2+z
-x,1/2-y,1/2+z
-x,1/2+y,1/2+z
x,1/2-y,1/2+z
1/2+x,y,1/2+z
1/2-x,-y,1/2+z
1/2-x,y,1/2+z
1/2+x,-y,1/2+z
1/2+x,1/2+y,z
1/2-x,1/2-y,z
1/2-x,1/2+y,z
1/2+x,1/2-y,z
loop_
_atom_site_type_symbol
_atom_site_label
_atom_site_fract_x
_atom_site_fract_y
_atom_site_fract_z
Si Si1 0.311587 0.681010 0.432600
Si Si2 0.191552 0.821360 0.740179
Si Si3 0.617864 0.820053 0.827999
Si Si4 0.884277 0.681961 0.527922
Si Si5 0.309306 0.180957 0.116327
Si Si6 0.500000 0.817482 0.871843
Si Si7 0.500000 0.317139 0.493909
O O1 0.309563 0.500000 0.442913
O O2 0.250000 0.750000 0.430940
O O3 0.341341 0.722507 0.376896
O O4 0.345811 0.758180 0.480049
O O5 0.250000 0.750000 0.761068
O O6 0.139082 0.759801 0.774054
O O7 0.180491 0.778326 0.678476
O O8 0.197149 0.000000 0.749137
O O9 0.555340 0.756889 0.841070
O O10 0.616394 0.000000 0.817752
O O11 0.887733 0.500000 0.526075
O O12 0.859038 0.737154 0.584328
O O13 0.945982 0.753318 0.524453
O O14 0.250000 0.250000 0.096503
O O15 0.309303 0.000000 0.105316
O O16 0.500000 0.755450 0.932728
O O17 0.500000 0.000000 0.874421
O O18 0.500000 0.500000 0.495901
#
# Coordination Sequence:
#
# PCOD8186435 Si02
#       7
#    16  16  16  16  16   8   8
#     4  11  22  36  55  82 116 153 189 235 291 348
#     4  10  21  37  59  86 116 151 192 237 290 344
#     4  10  20  36  59  84 113 150 193 235 284 343
#     4  12  24  38  58  87 117 149 194 240 286 343
#     4  10  21  39  61  85 115 154 194 239 294 349
#     4   9  18  37  60  83 110 151 194 230 279 339
#     4  11  21  41  64  83 114 155 196 236 287 345
#
# _framework density 18.648396999999999
#
# number of rings (size 3 to 8) (size 9 to 14) (size 15 to 20)
#    0.000    1.500    1.667    4.250    0.000    4.667 
#    0.000    1.250    0.000    4.000    0.000    0.000 
#    0.000    0.000    0.000    0.000    0.000    0.000 
#
# Total GULP energy -297718.608241 kJ/mol
# GULP energy per Si atom -12404.942010 kJ/mol
# Density = 1.860595 g / cm^3
# Si number density = 18.648397 Si / 1000 Ang^3
#
#
#
# Elastic Constant Matrix: (Units=GPa)
#
#
# Indices 1 2 3 4 5 6 
#
# 1 183.2917 62.2735 77.2008 0.0000 0.0000 0.0001
# 2 62.2735 90.3116 51.0871 -0.0001 -0.0001 0.0002
# 3 77.2008 51.0871 101.7042 0.0000 0.0000 0.0000
# 4 0.0000 -0.0001 0.0000 30.4245 0.0000 0.0000
# 5 0.0000 -0.0001 0.0000 0.0000 28.9408 0.0000
# 6 0.0001 0.0002 0.0000 0.0000 0.0000 41.7580
#
#
#
# Elastic Compliance Matrix: (Units=1/GPa)
#
#
# Indices 1 2 3 4 5 6 
#
# 1 0.008609 -0.003129 -0.004964 0.000000 0.000000 0.000000
# 2 -0.003129 0.016605 -0.005966 0.000000 0.000000 0.000000
# 3 -0.004964 -0.005966 0.016597 0.000000 0.000000 0.000000
# 4 0.000000 0.000000 0.000000 0.032868 0.000000 0.000000
# 5 0.000000 0.000000 0.000000 0.000000 0.034553 0.000000
# 6 0.000000 0.000000 0.000000 0.000000 0.000000 0.023947
#
#
# Mechanical properties :
#
#
# Convention : Reuss Voigt Hill
#
# Bulk Modulus (GPa) = 73.02037 84.04782 78.53410
# Shear Modulus (GPa) = 30.14565 32.54108 31.34337
#
# Velocity S-wave (km/s) = 4.02497 4.18183 4.10415
# Velocity P-wave (km/s) = 7.80012 8.27554 8.04134
#
# Compressibility (1/GPa) = 0.01369481
#
# Stress axis : x y z
#
# Youngs Moduli (GPa) = 116.15234 60.22308 60.25244
#
# Poissons Ratio (x) = 0.18842 0.29906
# Poissons Ratio (y) = 0.36341 0.35946
# Poissons Ratio (z) = 0.57653 0.35928
#
# Static dielectric constant tensor:
#      x y z
#    x 3.601820 0.000000 0.000000 
#    y 0.000000 3.442280 0.000000 
#    z 0.000000 0.000000 3.528880 
# 
# 
# High freq. dielectric constant tensor:
#      x y z
#    x 1.731130 0.000000 0.000000 
#    y 0.000000 1.728410 0.000000 
#    z 0.000000 0.000000 1.725360 
# 
# From -- ./inp_files/28064.got.cif
#   From: 2010.03.12/outbox.cif.g09.slc.cpg/sg42_15_cif.got.tgz:28064.got - 2010.04.14 02:04:31.
