data_PCOD8186922
_publ_section_title
;
Structure prediction by ZEFSAII (Michael W. Deem and Ramdas Pophale) SiO2 
 PCOD8186922
Probable space group: F D D 2
;
_chemical_formula_sum "Si O2"
_cell_formula_units_Z 128
_cell_length_a 11.765728
_cell_length_b 24.652680
_cell_length_c 24.337080
_cell_angle_alpha 90.000000
_cell_angle_beta 90.000000
_cell_angle_gamma 90.000000
_cell_volume 7059.133778
_symmetry_space_group_name_H-M "F D D 2"
_symmetry_group_IT_number 43
_symmetry_cell_setting 'orthorhombic'
loop_
_space_group_symop_operation_xyz
x,y,z
-x,-y,z
1/4-x,1/4+y,1/4+z
1/4+x,1/4-y,1/4+z
x,1/2+y,1/2+z
-x,1/2-y,1/2+z
1/4-x,3/4+y,3/4+z
1/4+x,3/4-y,3/4+z
1/2+x,y,1/2+z
1/2-x,-y,1/2+z
3/4-x,1/4+y,3/4+z
3/4+x,1/4-y,3/4+z
1/2+x,1/2+y,z
1/2-x,1/2-y,z
3/4-x,3/4+y,1/4+z
3/4+x,3/4-y,1/4+z
loop_
_atom_site_type_symbol
_atom_site_label
_atom_site_fract_x
_atom_site_fract_y
_atom_site_fract_z
Si Si1 0.105889 0.534566 0.408090
Si Si2 0.984333 0.938976 0.467215
Si Si3 0.084902 0.454389 0.208305
Si Si4 0.665153 0.389794 0.307131
Si Si5 0.728258 0.407641 0.487896
Si Si6 0.605410 0.644632 0.857219
Si Si7 0.240065 0.993380 0.806008
Si Si8 0.447925 0.941846 0.846087
O O1 0.181250 0.550706 0.461516
O O2 0.054273 0.587337 0.377142
O O3 0.178022 0.499691 0.364612
O O4 0.000000 0.500000 0.430387
O O5 0.909226 0.902071 0.507033
O O6 0.917071 0.937971 0.410185
O O7 0.109285 0.914456 0.456555
O O8 0.000000 0.000000 0.490873
O O9 0.161761 0.438375 0.155721
O O10 0.156790 0.477710 0.257888
O O11 0.000000 0.500000 0.187035
O O12 0.016240 0.403590 0.231207
O O13 0.757992 0.365911 0.350007
O O14 0.704104 0.449515 0.288195
O O15 0.536044 0.393959 0.330006
O O16 0.706897 0.417613 0.553087
O O17 0.330096 0.943361 0.811957
O O18 0.500000 0.000000 0.834170
#
# Coordination Sequence:
#
# PCOD8186922 Si02
#       8
#    16  16  16  16  16  16  16  16
#     4  10  18  32  55  76 101 142 183 214 255 310
#     4  10  18  32  53  76 101 129 162 206 257 306
#     4  11  20  33  55  78 104 140 176 214 261 312
#     4   9  18  33  53  77 102 129 164 210 260 312
#     4  10  20  35  53  79 108 133 170 222 265 308
#     4   9  19  32  51  80 108 131 169 223 269 309
#     4  10  19  33  54  78 101 135 177 216 254 307
#     4   9  17  32  52  74 101 129 166 209 252 300
#
# _framework density 18.132536000000002
#
# number of rings (size 3 to 8) (size 9 to 14) (size 15 to 20)
#    0.000    2.250    0.000    7.125    0.000    2.000 
#    0.000    6.250    0.000    2.250    0.000    0.000 
#    0.000    0.000    0.000    0.000    0.000    0.000 
#
# Total GULP energy -396612.902726 kJ/mol
# GULP energy per Si atom -12394.153210 kJ/mol
# Density = 1.809127 g / cm^3
# Si number density = 18.132536 Si / 1000 Ang^3
#
#
#
# Elastic Constant Matrix: (Units=GPa)
#
#
# Indices 1 2 3 4 5 6 
#
# 1 53.9198 42.8790 43.3525 0.0000 0.0000 0.0000
# 2 42.8790 76.2618 50.0957 0.0000 0.0000 0.0000
# 3 43.3525 50.0957 98.1715 0.0000 0.0000 0.0000
# 4 0.0000 0.0000 0.0000 -9.2805 0.0000 0.0000
# 5 0.0000 0.0000 0.0000 0.0000 -1.0663 0.0000
# 6 0.0000 0.0000 0.0000 0.0000 0.0000 27.3823
#
#
#
# Elastic Compliance Matrix: (Units=1/GPa)
#
#
# Indices 1 2 3 4 5 6 
#
# 1 0.038056 -0.015581 -0.008855 0.000000 0.000000 0.000000
# 2 -0.015581 0.026103 -0.006440 0.000000 0.000000 0.000000
# 3 -0.008855 -0.006440 0.017383 0.000000 0.000000 0.000000
# 4 0.000000 0.000000 0.000000 -0.107753 0.000000 0.000000
# 5 0.000000 0.000000 0.000000 0.000000 -0.937856 0.000000
# 6 0.000000 0.000000 0.000000 0.000000 0.000000 0.036520
#
#
# Mechanical properties :
#
#
# Convention : Reuss Voigt Hill
#
# Bulk Modulus (GPa) = 50.52724 55.66750 53.09737
# Shear Modulus (GPa) = -5.81937 9.54216 1.86140
#
# Velocity S-wave (km/s) = -1.79341 2.29649 1.01429
# Velocity P-wave (km/s) = 4.86185 6.14807 5.54240
#
# Compressibility (1/GPa) = 0.01979131
#
# Stress axis : x y z
#
# Youngs Moduli (GPa) = 26.27725 38.30934 57.52843
#
# Poissons Ratio (x) = 0.59688 0.50941
# Poissons Ratio (y) = 0.40941 0.37047
# Poissons Ratio (z) = 0.23268 0.24670
#
# Static dielectric constant tensor:
#      x y z
#    x 3.344610 0.000000 0.000000 
#    y 0.000000 3.484510 0.000000 
#    z 0.000000 0.000000 3.349540 
# 
# 
# High freq. dielectric constant tensor:
#      x y z
#    x 1.682520 0.000000 0.000000 
#    y 0.000000 1.693980 0.000000 
#    z 0.000000 0.000000 1.700340 
# 
# From -- ./inp_files/21322.got.cif
#   From: 2010.06.25/outbox.cif.g09.slc.cpg/sg43_11_cif.got.tgz:21322.got - 2010.06.26 16:48:59.
