data_PCOD8186467
_publ_section_title
;
Structure prediction by ZEFSAII (Michael W. Deem and Ramdas Pophale) SiO2 
 PCOD8186467
Probable space group: F M M 2
;
_chemical_formula_sum "Si O2"
_cell_formula_units_Z 112
_cell_length_a 13.986904
_cell_length_b 31.842846
_cell_length_c 12.592574
_cell_angle_alpha 90.000000
_cell_angle_beta 90.000000
_cell_angle_gamma 90.000000
_cell_volume 5608.516246
_symmetry_space_group_name_H-M "F M M 2"
_symmetry_group_IT_number 42
_symmetry_cell_setting 'orthorhombic'
loop_
_space_group_symop_operation_xyz
x,y,z
-x,-y,z
-x,y,z
x,-y,z
x,1/2+y,1/2+z
-x,1/2-y,1/2+z
-x,1/2+y,1/2+z
x,1/2-y,1/2+z
1/2+x,y,1/2+z
1/2-x,-y,1/2+z
1/2-x,y,1/2+z
1/2+x,-y,1/2+z
1/2+x,1/2+y,z
1/2-x,1/2-y,z
1/2-x,1/2+y,z
1/2+x,1/2-y,z
loop_
_atom_site_type_symbol
_atom_site_label
_atom_site_fract_x
_atom_site_fract_y
_atom_site_fract_z
Si Si1 0.735092 0.112092 0.004330
Si Si2 0.389104 0.738707 0.979099
Si Si3 0.786766 0.687481 0.649399
Si Si4 0.390129 0.048143 0.135354
Si Si5 0.392892 0.092328 0.345950
Si Si6 0.886868 0.174782 0.371691
Si Si7 0.893052 0.185944 0.773910
O O1 0.785090 0.144075 0.085252
O O2 0.677013 0.076641 0.064324
O O3 0.819141 0.088348 0.941803
O O4 0.664532 0.134776 0.921881
O O5 0.500000 0.736431 0.007986
O O6 0.357703 0.785093 0.943192
O O7 0.364293 0.706353 0.885207
O O8 0.329173 0.725424 0.081216
O O9 0.852874 0.681258 0.751928
O O10 0.679232 0.701161 0.682732
O O11 0.500000 0.058957 0.108069
O O12 0.371162 0.056331 0.260013
O O13 0.366014 0.000000 0.110675
O O14 0.500000 0.087975 0.392817
O O15 0.382636 0.136270 0.284173
O O16 0.000000 0.167850 0.372057
O O17 0.000000 0.199458 0.738799
#
# Coordination Sequence:
#
# PCOD8186467 Si02
#       7
#    16  16  16  16  16  16  16
#     4  12  22  38  62  96 120 158 200 257 313 367
#     4  10  23  41  58  82 120 165 208 254 306 360
#     4  12  22  39  61  85 115 158 206 251 307 367
#     4  10  22  41  65  91 122 161 203 250 308 376
#     4  10  20  39  62  89 123 157 200 248 305 371
#     4  11  25  40  56  86 123 161 208 260 308 363
#     4  10  20  37  59  85 117 154 202 254 302 359
#
# _framework density 19.969632000000001
#
# number of rings (size 3 to 8) (size 9 to 14) (size 15 to 20)
#    0.000    1.286    4.286    0.857    0.000    6.286 
#    0.000    2.857    0.000    1.714    0.000    0.000 
#    0.000    0.000    0.000    0.000    0.000    0.000 
#
# Total GULP energy -347350.450490 kJ/mol
# GULP energy per Si atom -12405.373232 kJ/mol
# Density = 1.992418 g / cm^3
# Si number density = 19.969632 Si / 1000 Ang^3
#
#
#
# Elastic Constant Matrix: (Units=GPa)
#
#
# Indices 1 2 3 4 5 6 
#
# 1 127.4748 51.8356 81.7994 0.0000 0.0000 0.0000
# 2 51.8356 77.9722 46.1056 0.0000 0.0000 0.0000
# 3 81.7994 46.1056 119.9118 0.0000 0.0000 0.0000
# 4 0.0000 0.0000 0.0000 24.2368 0.0000 0.0000
# 5 0.0000 0.0000 0.0000 0.0000 44.0834 0.0000
# 6 0.0000 0.0000 0.0000 0.0000 0.0000 21.4078
#
#
#
# Elastic Compliance Matrix: (Units=1/GPa)
#
#
# Indices 1 2 3 4 5 6 
#
# 1 0.015438 -0.005223 -0.008523 0.000000 0.000000 0.000000
# 2 -0.005223 0.018366 -0.003499 0.000000 0.000000 0.000000
# 3 -0.008523 -0.003499 0.015498 0.000000 0.000000 0.000000
# 4 0.000000 0.000000 0.000000 0.041260 0.000000 0.000000
# 5 0.000000 0.000000 0.000000 0.000000 0.022684 0.000000
# 6 0.000000 0.000000 0.000000 0.000000 0.000000 0.046712
#
#
# Mechanical properties :
#
#
# Convention : Reuss Voigt Hill
#
# Bulk Modulus (GPa) = 67.50709 76.09334 71.80022
# Shear Modulus (GPa) = 25.07715 27.65348 26.36532
#
# Velocity S-wave (km/s) = 3.54752 3.72530 3.63749
# Velocity P-wave (km/s) = 7.11745 7.52934 7.32629
#
# Compressibility (1/GPa) = 0.01481326
#
# Stress axis : x y z
#
# Youngs Moduli (GPa) = 64.77731 54.44758 64.52276
#
# Poissons Ratio (x) = 0.28440 0.54990
# Poissons Ratio (y) = 0.33835 0.22574
# Poissons Ratio (z) = 0.55207 0.19049
#
# Static dielectric constant tensor:
#      x y z
#    x 3.904340 0.000000 0.000000 
#    y 0.000000 3.507780 0.000000 
#    z 0.000000 0.000000 3.634080 
# 
# 
# High freq. dielectric constant tensor:
#      x y z
#    x 1.796590 0.000000 0.000000 
#    y 0.000000 1.760730 0.000000 
#    z 0.000000 0.000000 1.783660 
# 
# From -- ./inp_files/8094.got.cif
#   From: 2010.03.12/outbox.cif.g09.slc.cpg/sg42_5_cif.got.tgz:8094.got - 2010.04.14 02:04:31.
