data_PCOD8186191
_publ_section_title
;
Structure prediction by ZEFSAII (Michael W. Deem and Ramdas Pophale) SiO2 
 PCOD8186191
Probable space group: F M M 2
;
_chemical_formula_sum "Si O2"
_cell_formula_units_Z 72
_cell_length_a 13.725967
_cell_length_b 19.016848
_cell_length_c 13.980847
_cell_angle_alpha 90.000000
_cell_angle_beta 90.000000
_cell_angle_gamma 90.000000
_cell_volume 3649.345389
_symmetry_space_group_name_H-M "F M M 2"
_symmetry_group_IT_number 42
_symmetry_cell_setting 'orthorhombic'
loop_
_space_group_symop_operation_xyz
x,y,z
-x,-y,z
-x,y,z
x,-y,z
x,1/2+y,1/2+z
-x,1/2-y,1/2+z
-x,1/2+y,1/2+z
x,1/2-y,1/2+z
1/2+x,y,1/2+z
1/2-x,-y,1/2+z
1/2-x,y,1/2+z
1/2+x,-y,1/2+z
1/2+x,1/2+y,z
1/2-x,1/2-y,z
1/2-x,1/2+y,z
1/2+x,1/2-y,z
loop_
_atom_site_type_symbol
_atom_site_label
_atom_site_fract_x
_atom_site_fract_y
_atom_site_fract_z
Si Si1 0.297785 0.855416 0.949320
Si Si2 0.109705 0.716817 0.764684
Si Si3 0.890884 0.631440 0.347472
Si Si4 0.615175 0.500000 0.727089
Si Si5 0.750000 0.250000 0.604976
Si Si6 0.615786 0.000000 0.014073
O O1 0.343759 0.821972 0.854758
O O2 0.180934 0.861909 0.937548
O O3 0.313157 0.804095 0.039928
O O4 0.346737 0.930654 0.961705
O O5 0.108778 0.799773 0.782677
O O6 0.174865 0.705044 0.670203
O O7 0.000000 0.688698 0.747549
O O8 0.848725 0.568957 0.282059
O O9 0.000000 0.615360 0.386006
O O10 0.500000 0.500000 0.718745
O O11 0.659497 0.500000 0.620965
O O12 0.500000 0.000000 0.011841
#
# Coordination Sequence:
#
# PCOD8186191 Si02
#       6
#    16  16  16   8   8   8
#     4  12  23  42  64  92 133 168 218 269 319 390
#     4  11  23  40  62  92 130 168 210 268 329 384
#     4  10  19  37  62  90 125 164 209 266 323 378
#     4   9  19  36  60  88 117 157 214 259 315 383
#     4  12  22  40  64  96 128 164 218 266 322 388
#     4  11  25  40  63  96 125 173 221 267 324 385
#
# _framework density 19.729565000000001
#
# number of rings (size 3 to 8) (size 9 to 14) (size 15 to 20)
#    0.000    1.111    4.444    2.667    0.000    4.444 
#    0.000    0.000    0.000    0.000    0.000    0.000 
#    0.000    0.000    0.000    0.000    0.000    0.000 
#
# Total GULP energy -223226.315197 kJ/mol
# GULP energy per Si atom -12401.461955 kJ/mol
# Density = 1.968466 g / cm^3
# Si number density = 19.729565 Si / 1000 Ang^3
#
#
#
# Elastic Constant Matrix: (Units=GPa)
#
#
# Indices 1 2 3 4 5 6 
#
# 1 119.9582 21.0643 52.1627 0.0000 0.0000 0.0000
# 2 21.0643 123.3300 46.5578 0.0000 0.0000 0.0000
# 3 52.1627 46.5578 127.8241 0.0000 0.0000 0.0000
# 4 0.0000 0.0000 0.0000 19.2387 0.0000 0.0000
# 5 0.0000 0.0000 0.0000 0.0000 22.3846 0.0000
# 6 0.0000 0.0000 0.0000 0.0000 0.0000 22.0632
#
#
#
# Elastic Compliance Matrix: (Units=1/GPa)
#
#
# Indices 1 2 3 4 5 6 
#
# 1 0.010139 -0.000197 -0.004066 0.000000 0.000000 0.000000
# 2 -0.000197 0.009405 -0.003345 0.000000 0.000000 0.000000
# 3 -0.004066 -0.003345 0.010701 0.000000 0.000000 0.000000
# 4 0.000000 0.000000 0.000000 0.051979 0.000000 0.000000
# 5 0.000000 0.000000 0.000000 0.000000 0.044674 0.000000
# 6 0.000000 0.000000 0.000000 0.000000 0.000000 0.045324
#
#
# Mechanical properties :
#
#
# Convention : Reuss Voigt Hill
#
# Bulk Modulus (GPa) = 66.53887 67.85354 67.19621
# Shear Modulus (GPa) = 25.98131 29.49248 27.73690
#
# Velocity S-wave (km/s) = 3.63281 3.87051 3.75354
# Velocity P-wave (km/s) = 7.16904 7.37841 7.27448
#
# Compressibility (1/GPa) = 0.01502881
#
# Stress axis : x y z
#
# Youngs Moduli (GPa) = 98.63151 106.32891 93.45058
#
# Poissons Ratio (x) = 0.02093 0.37995
# Poissons Ratio (y) = 0.01941 0.31261
# Poissons Ratio (z) = 0.40101 0.35569
#
# Static dielectric constant tensor:
#      x y z
#    x 3.827850 0.000000 0.000000 
#    y 0.000000 3.696590 0.000000 
#    z 0.000000 0.000000 3.575510 
# 
# 
# High freq. dielectric constant tensor:
#      x y z
#    x 1.769310 0.000000 0.000000 
#    y 0.000000 1.769710 0.000000 
#    z 0.000000 0.000000 1.763170 
# 
# From -- ./inp_files/13708.got.cif
#   From: 2010.03.12/outbox.cif.g09.slc.cpg/sg42_7_cif.got.tgz:13708.got - 2010.04.14 02:04:31.
