data_PCOD8186185
_publ_section_title
;
Structure prediction by ZEFSAII (Michael W. Deem and Ramdas Pophale) SiO2 
 PCOD8186185
Probable space group: F M M 2
;
_chemical_formula_sum "Si O2"
_cell_formula_units_Z 88
_cell_length_a 9.427456
_cell_length_b 23.352391
_cell_length_c 20.541053
_cell_angle_alpha 90.000000
_cell_angle_beta 90.000000
_cell_angle_gamma 90.000000
_cell_volume 4522.187560
_symmetry_space_group_name_H-M "F M M 2"
_symmetry_group_IT_number 42
_symmetry_cell_setting 'orthorhombic'
loop_
_space_group_symop_operation_xyz
x,y,z
-x,-y,z
-x,y,z
x,-y,z
x,1/2+y,1/2+z
-x,1/2-y,1/2+z
-x,1/2+y,1/2+z
x,1/2-y,1/2+z
1/2+x,y,1/2+z
1/2-x,-y,1/2+z
1/2-x,y,1/2+z
1/2+x,-y,1/2+z
1/2+x,1/2+y,z
1/2-x,1/2-y,z
1/2-x,1/2+y,z
1/2+x,1/2-y,z
loop_
_atom_site_type_symbol
_atom_site_label
_atom_site_fract_x
_atom_site_fract_y
_atom_site_fract_z
Si Si1 0.716732 0.000000 0.812820
Si Si2 0.162467 0.391434 0.119073
Si Si3 0.155816 0.500000 0.442373
Si Si4 0.833833 0.191287 0.734831
Si Si5 0.653138 0.627422 0.336595
Si Si6 0.172751 0.500000 0.665363
Si Si7 0.340837 0.396038 0.475704
O O1 0.634586 0.058569 0.830178
O O2 0.749089 0.000000 0.736158
O O3 0.850004 0.000000 0.862877
O O4 0.201068 0.339993 0.167336
O O5 0.271638 0.443767 0.128529
O O6 0.000000 0.412255 0.131270
O O7 0.180037 0.365549 0.045930
O O8 0.229454 0.446109 0.473618
O O9 0.000000 0.500000 0.470707
O O10 0.750000 0.250000 0.736127
O O11 0.780466 0.151173 0.793437
O O12 0.000000 0.202582 0.744522
O O13 0.500000 0.653615 0.315345
O O14 0.684068 0.644545 0.412401
O O15 0.000000 0.500000 0.670811
O O16 0.500000 0.421255 0.471527
#
# Coordination Sequence:
#
# PCOD8186185 Si02
#       7
#     8  16   8  16  16   8  16
#     4  10  20  32  52  84 122 154 182 226 282 336
#     4  10  22  39  58  84 119 156 190 230 283 340
#     4  10  20  31  49  80 118 154 192 235 275 326
#     4  11  24  41  61  83 110 146 190 240 290 339
#     4  10  19  36  61  86 114 150 190 231 277 337
#     4  12  22  33  55  88 122 154 192 233 279 336
#     4   9  19  36  56  79 114 156 189 223 280 345
#
# _framework density 19.459610000000001
#
# number of rings (size 3 to 8) (size 9 to 14) (size 15 to 20)
#    0.000    1.818    1.818    2.455    0.000   10.182 
#    0.000    0.909    0.000    2.182    0.000    0.000 
#    0.000    0.000    0.000    0.000    0.000    0.000 
#
# Total GULP energy -272559.069839 kJ/mol
# GULP energy per Si atom -12389.048629 kJ/mol
# Density = 1.941532 g / cm^3
# Si number density = 19.459610 Si / 1000 Ang^3
#
#
#
# Elastic Constant Matrix: (Units=GPa)
#
#
# Indices 1 2 3 4 5 6 
#
# 1 114.4723 45.6809 47.7470 0.0000 0.0000 0.0000
# 2 45.6809 81.9261 42.7167 0.0000 0.0000 0.0000
# 3 47.7470 42.7167 169.9440 0.0000 0.0000 0.0000
# 4 0.0000 0.0000 0.0000 0.9413 0.0000 0.0000
# 5 0.0000 0.0000 0.0000 0.0000 23.3653 0.0000
# 6 0.0000 0.0000 0.0000 0.0000 0.0000 25.5020
#
#
#
# Elastic Compliance Matrix: (Units=1/GPa)
#
#
# Indices 1 2 3 4 5 6 
#
# 1 0.011748 -0.005558 -0.001904 0.000000 0.000000 0.000000
# 2 -0.005558 0.016676 -0.002630 0.000000 0.000000 0.000000
# 3 -0.001904 -0.002630 0.007080 0.000000 0.000000 0.000000
# 4 0.000000 0.000000 0.000000 1.062374 0.000000 0.000000
# 5 0.000000 0.000000 0.000000 0.000000 0.042799 0.000000
# 6 0.000000 0.000000 0.000000 0.000000 0.000000 0.039213
#
#
# Mechanical properties :
#
#
# Convention : Reuss Voigt Hill
#
# Bulk Modulus (GPa) = 65.26943 70.95907 68.11425
# Shear Modulus (GPa) = 4.14876 25.30823 14.72849
#
# Velocity S-wave (km/s) = 1.46172 3.61023 2.75412
# Velocity P-wave (km/s) = 6.03843 7.34318 6.72253
#
# Compressibility (1/GPa) = 0.01532111
#
# Stress axis : x y z
#
# Youngs Moduli (GPa) = 85.12381 59.96464 141.23777
#
# Poissons Ratio (x) = 0.33327 0.26886
# Poissons Ratio (y) = 0.47310 0.37149
# Poissons Ratio (z) = 0.16204 0.15772
#
# Static dielectric constant tensor:
#      x y z
#    x 3.494200 0.000000 0.000000 
#    y 0.000000 3.582830 0.000000 
#    z 0.000000 0.000000 3.995530 
# 
# 
# High freq. dielectric constant tensor:
#      x y z
#    x 1.757660 0.000000 0.000000 
#    y 0.000000 1.712090 0.000000 
#    z 0.000000 0.000000 1.781200 
# 
# From -- ./inp_files/23592.got.cif
#   From: 2010.03.12/outbox.cif.g09.slc.cpg/sg42_12_cif.got.tgz:23592.got - 2010.04.14 02:04:31.
