data_PCOD8186244
_publ_section_title
;
Structure prediction by ZEFSAII (Michael W. Deem and Ramdas Pophale) SiO2 
 PCOD8186244
Probable space group: F M M 2
;
_chemical_formula_sum "Si O2"
_cell_formula_units_Z 128
_cell_length_a 19.363261
_cell_length_b 21.317130
_cell_length_c 16.061751
_cell_angle_alpha 90.000000
_cell_angle_beta 90.000000
_cell_angle_gamma 90.000000
_cell_volume 6629.795339
_symmetry_space_group_name_H-M "F M M 2"
_symmetry_group_IT_number 42
_symmetry_cell_setting 'orthorhombic'
loop_
_space_group_symop_operation_xyz
x,y,z
-x,-y,z
-x,y,z
x,-y,z
x,1/2+y,1/2+z
-x,1/2-y,1/2+z
-x,1/2+y,1/2+z
x,1/2-y,1/2+z
1/2+x,y,1/2+z
1/2-x,-y,1/2+z
1/2-x,y,1/2+z
1/2+x,-y,1/2+z
1/2+x,1/2+y,z
1/2-x,1/2-y,z
1/2-x,1/2+y,z
1/2+x,1/2-y,z
loop_
_atom_site_type_symbol
_atom_site_label
_atom_site_fract_x
_atom_site_fract_y
_atom_site_fract_z
Si Si1 0.217322 0.312692 0.497650
Si Si2 0.578003 0.772198 0.754224
Si Si3 0.074392 0.871742 0.755363
Si Si4 0.289481 0.568365 0.753958
Si Si5 0.574392 0.371742 0.557778
Si Si6 0.710519 0.931635 0.059183
Si Si7 0.421997 0.772198 0.558917
Si Si8 0.282678 0.812692 0.815491
O O1 0.250000 0.250000 0.541895
O O2 0.233997 0.377782 0.542820
O O3 0.133886 0.308933 0.502136
O O4 0.250000 0.316020 0.406571
O O5 0.500000 0.796185 0.773723
O O6 0.585161 0.700141 0.780908
O O7 0.594744 0.781832 0.656571
O O8 0.633886 0.808933 0.811006
O O9 0.136423 0.912593 0.794319
O O10 0.074684 0.876355 0.656571
O O11 0.000000 0.895961 0.789224
O O12 0.267146 0.500000 0.790632
O O13 0.299183 0.562019 0.656571
O O14 0.233997 0.622218 0.770321
O O15 0.500000 0.395961 0.523917
O O16 0.636423 0.412593 0.518822
O O17 0.585161 0.299859 0.532233
O O18 0.732854 0.000000 0.022509
O O19 0.500000 0.796185 0.539419
O O20 0.250000 0.750000 0.771246
#
# Coordination Sequence:
#
# PCOD8186244 Si02
#       8
#    16  16  16  16  16  16  16  16
#     4  11  22  35  52  79 112 144 181 220 274 331
#     4   9  17  32  57  83 106 139 183 231 277 315
#     4   8  14  26  46  74 104 132 166 213 271 323
#     4  10  20  33  52  77 104 140 182 226 277 325
#     4   8  14  26  46  74 104 132 166 213 271 323
#     4  10  20  33  52  77 104 140 182 226 277 325
#     4   9  17  32  57  83 106 139 183 231 277 315
#     4  11  22  35  52  79 112 144 181 220 274 331
#
# _framework density 19.306781000000001
#
# number of rings (size 3 to 8) (size 9 to 14) (size 15 to 20)
#    0.000    2.500    2.500    2.250    0.000    2.000 
#    0.000    6.250    0.000    0.750    0.000    3.500 
#    0.000    0.000    0.000    0.000    0.000    0.000 
#
# Total GULP energy -396423.770371 kJ/mol
# GULP energy per Si atom -12388.242824 kJ/mol
# Density = 1.926284 g / cm^3
# Si number density = 19.306781 Si / 1000 Ang^3
#
#
#
# Elastic Constant Matrix: (Units=GPa)
#
#
# Indices 1 2 3 4 5 6 
#
# 1 151.0297 74.3283 30.2658 0.0000 0.0000 0.0000
# 2 74.3283 135.6057 14.1395 0.0000 0.0000 0.0000
# 3 30.2658 14.1395 32.8900 0.0000 0.0000 0.0000
# 4 0.0000 0.0000 0.0000 12.9255 0.0000 0.0000
# 5 0.0000 0.0000 0.0000 0.0000 21.9969 0.0000
# 6 0.0000 0.0000 0.0000 0.0000 0.0000 17.5376
#
#
#
# Elastic Compliance Matrix: (Units=1/GPa)
#
#
# Indices 1 2 3 4 5 6 
#
# 1 0.010621 -0.005028 -0.007612 0.000000 0.000000 0.000000
# 2 -0.005028 0.010101 0.000285 0.000000 0.000000 0.000000
# 3 -0.007612 0.000285 0.037287 0.000000 0.000000 0.000000
# 4 0.000000 0.000000 0.000000 0.077367 0.000000 0.000000
# 5 0.000000 0.000000 0.000000 0.000000 0.045461 0.000000
# 6 0.000000 0.000000 0.000000 0.000000 0.000000 0.057020
#
#
# Mechanical properties :
#
#
# Convention : Reuss Voigt Hill
#
# Bulk Modulus (GPa) = 30.03237 61.88806 45.96021
# Shear Modulus (GPa) = 18.27040 23.87812 21.07426
#
# Velocity S-wave (km/s) = 3.07957 3.52059 3.30744
# Velocity P-wave (km/s) = 5.31358 6.97501 6.20020
#
# Compressibility (1/GPa) = 0.03329741
#
# Stress axis : x y z
#
# Youngs Moduli (GPa) = 94.15181 99.00423 26.81906
#
# Poissons Ratio (x) = 0.49779 0.20415
# Poissons Ratio (y) = 0.47339 -0.00763
# Poissons Ratio (z) = 0.71670 -0.02817
#
# Static dielectric constant tensor:
#      x y z
#    x 3.857050 0.000000 0.000000 
#    y 0.000000 3.813990 0.000000 
#    z 0.000000 0.000000 3.049230 
# 
# 
# High freq. dielectric constant tensor:
#      x y z
#    x 1.761390 0.000000 0.000000 
#    y 0.000000 1.729440 0.000000 
#    z 0.000000 0.000000 1.703670 
# 
# From -- ./inp_files/26226.got.cif
#   From: 2010.03.12/outbox.cif.g09.slc.cpg/sg42_14_cif.got.tgz:26226.got - 2010.04.14 02:04:31.
