data_PCOD8186963
_publ_section_title
;
Structure prediction by ZEFSAII (Michael W. Deem and Ramdas Pophale) SiO2 
 PCOD8186963
Probable space group: F D D 2
;
_chemical_formula_sum "Si O2"
_cell_formula_units_Z 88
_cell_length_a 25.136830
_cell_length_b 17.267457
_cell_length_c 9.987143
_cell_angle_alpha 90.000000
_cell_angle_beta 90.000000
_cell_angle_gamma 90.000000
_cell_volume 4334.910742
_symmetry_space_group_name_H-M "F D D 2"
_symmetry_group_IT_number 43
_symmetry_cell_setting 'orthorhombic'
loop_
_space_group_symop_operation_xyz
x,y,z
-x,-y,z
1/4-x,1/4+y,1/4+z
1/4+x,1/4-y,1/4+z
x,1/2+y,1/2+z
-x,1/2-y,1/2+z
1/4-x,3/4+y,3/4+z
1/4+x,3/4-y,3/4+z
1/2+x,y,1/2+z
1/2-x,-y,1/2+z
3/4-x,1/4+y,3/4+z
3/4+x,1/4-y,3/4+z
1/2+x,1/2+y,z
1/2-x,1/2-y,z
3/4-x,3/4+y,1/4+z
3/4+x,3/4-y,1/4+z
loop_
_atom_site_type_symbol
_atom_site_label
_atom_site_fract_x
_atom_site_fract_y
_atom_site_fract_z
Si Si1 0.400192 0.913548 0.092290
Si Si2 0.250000 0.250000 0.940528
Si Si3 0.407933 0.932270 0.552909
Si Si4 0.370824 0.353178 0.303673
Si Si5 0.010805 0.895840 0.925105
Si Si6 0.163139 0.936597 0.596726
O O1 0.398592 0.843377 0.197839
O O2 0.456698 0.958186 0.096949
O O3 0.353714 0.975433 0.120823
O O4 0.389332 0.878170 0.948734
O O5 0.220201 0.189205 0.039484
O O6 0.409950 0.895112 0.700272
O O7 0.468815 0.950471 0.508003
O O8 0.381850 0.870424 0.449912
O O9 0.373755 0.010522 0.546014
O O10 0.310351 0.379169 0.267033
O O11 0.976676 0.819845 0.878369
#
# Coordination Sequence:
#
# PCOD8186963 Si02
#       6
#    16   8  16  16  16  16
#     4  11  22  38  63  93 127 150 212 264 309 351
#     4  10  18  42  64  84 116 188 198 228 312 418
#     4  10  21  38  68  84 119 167 209 233 308 377
#     4  12  21  40  59  96 124 152 203 273 301 355
#     4   9  19  38  68  79 119 170 215 217 311 396
#     4   9  20  40  61  88 114 171 205 242 301 384
#
# _framework density 20.300303
#
# number of rings (size 3 to 8) (size 9 to 14) (size 15 to 20)
#    1.091    0.727    1.818    3.273    0.000    0.000 
#    9.818    3.636    0.000    0.000    0.000    0.000 
#    0.000    0.000    0.000    0.000    0.000    0.000 
#
# Total GULP energy -272582.543590 kJ/mol
# GULP energy per Si atom -12390.115618 kJ/mol
# Density = 2.025410 g / cm^3
# Si number density = 20.300303 Si / 1000 Ang^3
#
#
#
# Elastic Constant Matrix: (Units=GPa)
#
#
# Indices 1 2 3 4 5 6 
#
# 1 65.6439 5.4725 38.8674 0.0000 0.0000 0.0000
# 2 5.4725 43.5189 25.6020 0.0000 0.0000 0.0000
# 3 38.8674 25.6020 139.4899 0.0000 0.0000 0.0000
# 4 0.0000 0.0000 0.0000 20.9311 0.0000 0.0000
# 5 0.0000 0.0000 0.0000 0.0000 28.3372 0.0000
# 6 0.0000 0.0000 0.0000 0.0000 0.0000 24.1814
#
#
#
# Elastic Compliance Matrix: (Units=1/GPa)
#
#
# Indices 1 2 3 4 5 6 
#
# 1 0.018267 0.000782 -0.005233 0.000000 0.000000 0.000000
# 2 0.000782 0.025793 -0.004952 0.000000 0.000000 0.000000
# 3 -0.005233 -0.004952 0.009536 0.000000 0.000000 0.000000
# 4 0.000000 0.000000 0.000000 0.047776 0.000000 0.000000
# 5 0.000000 0.000000 0.000000 0.000000 0.035289 0.000000
# 6 0.000000 0.000000 0.000000 0.000000 0.000000 0.041354
#
#
# Mechanical properties :
#
#
# Convention : Reuss Voigt Hill
#
# Bulk Modulus (GPa) = 28.74437 43.17071 35.95754
# Shear Modulus (GPa) = 23.99003 26.60399 25.29701
#
# Velocity S-wave (km/s) = 3.44140 3.62404 3.53390
# Velocity P-wave (km/s) = 5.47552 6.23087 5.86537
#
# Compressibility (1/GPa) = 0.03478943
#
# Stress axis : x y z
#
# Youngs Moduli (GPa) = 54.74280 38.76953 104.86462
#
# Poissons Ratio (x) = -0.03031 0.54880
# Poissons Ratio (y) = -0.04279 0.51928
# Poissons Ratio (z) = 0.28649 0.19198
#
# Static dielectric constant tensor:
#      x y z
#    x 3.808550 0.000000 0.000000 
#    y 0.000000 3.519220 0.000000 
#    z 0.000000 0.000000 3.638700 
# 
# 
# High freq. dielectric constant tensor:
#      x y z
#    x 1.773380 0.000000 0.000000 
#    y 0.000000 1.786490 0.000000 
#    z 0.000000 0.000000 1.792990 
# 
# From -- ./inp_files/4688.got.cif
#   From: 2010.06.25/outbox.cif.g09.slc.cpg/sg43_3_cif.got.tgz:4688.got - 2010.06.26 16:48:59.
