data_PCOD8186799
_publ_section_title
;
Structure prediction by ZEFSAII (Michael W. Deem and Ramdas Pophale) SiO2 
 PCOD8186799
Probable space group: F M M 2
;
_chemical_formula_sum "Si O2"
_cell_formula_units_Z 80
_cell_length_a 18.300904
_cell_length_b 7.621574
_cell_length_c 29.767032
_cell_angle_alpha 90.000000
_cell_angle_beta 90.000000
_cell_angle_gamma 90.000000
_cell_volume 4151.956052
_symmetry_space_group_name_H-M "F M M 2"
_symmetry_group_IT_number 42
_symmetry_cell_setting 'orthorhombic'
loop_
_space_group_symop_operation_xyz
x,y,z
-x,-y,z
-x,y,z
x,-y,z
x,1/2+y,1/2+z
-x,1/2-y,1/2+z
-x,1/2+y,1/2+z
x,1/2-y,1/2+z
1/2+x,y,1/2+z
1/2-x,-y,1/2+z
1/2-x,y,1/2+z
1/2+x,-y,1/2+z
1/2+x,1/2+y,z
1/2-x,1/2-y,z
1/2-x,1/2+y,z
1/2+x,1/2-y,z
loop_
_atom_site_type_symbol
_atom_site_label
_atom_site_fract_x
_atom_site_fract_y
_atom_site_fract_z
Si Si1 0.334095 0.205425 0.557390
Si Si2 0.165107 0.303263 0.152916
Si Si3 0.833914 0.205590 0.960536
Si Si4 0.913436 0.000000 0.307600
Si Si5 0.086291 0.200077 0.873057
Si Si6 0.087160 0.500000 0.705883
O O1 0.250000 0.250000 0.555192
O O2 0.366742 0.298150 0.601741
O O3 0.364618 0.275799 0.509079
O O4 0.347628 0.000000 0.563760
O O5 0.155992 0.500000 0.171740
O O6 0.250000 0.250000 0.153569
O O7 0.117710 0.175197 0.183358
O O8 0.750000 0.250000 0.952134
O O9 0.880973 0.279575 0.919247
O O10 0.843737 0.000000 0.962250
O O11 0.885428 0.175940 0.332730
O O12 0.883843 0.000000 0.257004
O O13 0.000000 0.000000 0.307239
O O14 0.000000 0.208330 0.877884
O O15 0.112519 0.000000 0.863603
O O16 0.000000 0.500000 0.702555
#
# Coordination Sequence:
#
# PCOD8186799 Si02
#       6
#    16  16  16   8  16   8
#     4   9  15  28  49  80 111 149 189 225 269 336
#     4  11  20  37  64  87 117 156 198 239 293 350
#     4   9  18  29  49  78 112 145 180 223 277 319
#     4   9  20  38  60  79 102 143 187 226 280 339
#     4   9  18  35  56  77 104 141 186 226 267 331
#     4  11  24  42  62  89 119 149 195 252 299 347
#
# _framework density 19.268025999999999
#
# number of rings (size 3 to 8) (size 9 to 14) (size 15 to 20)
#    0.000    2.400    2.000    1.800    1.400    2.000 
#    0.000    4.000    0.000    0.000    0.000    0.000 
#    0.000    0.000    0.000    0.000    0.000    0.000 
#
# Total GULP energy -247795.288740 kJ/mol
# GULP energy per Si atom -12389.764437 kJ/mol
# Density = 1.922417 g / cm^3
# Si number density = 19.268026 Si / 1000 Ang^3
#
#
#
# Elastic Constant Matrix: (Units=GPa)
#
#
# Indices 1 2 3 4 5 6 
#
# 1 41.4664 28.0273 43.2684 0.0000 0.0000 0.0000
# 2 28.0273 120.5276 70.3381 0.0000 0.0000 0.0000
# 3 43.2684 70.3381 190.5942 0.0000 0.0000 0.0000
# 4 0.0000 0.0000 0.0000 13.1294 0.0000 0.0000
# 5 0.0000 0.0000 0.0000 0.0000 30.3678 0.0000
# 6 0.0000 0.0000 0.0000 0.0000 0.0000 22.1316
#
#
#
# Elastic Compliance Matrix: (Units=1/GPa)
#
#
# Indices 1 2 3 4 5 6 
#
# 1 0.033216 -0.004236 -0.005978 0.000000 0.000000 0.000000
# 2 -0.004236 0.011114 -0.003140 0.000000 0.000000 0.000000
# 3 -0.005978 -0.003140 0.007763 0.000000 0.000000 0.000000
# 4 0.000000 0.000000 0.000000 0.076165 0.000000 0.000000
# 5 0.000000 0.000000 0.000000 0.000000 0.032930 0.000000
# 6 0.000000 0.000000 0.000000 0.000000 0.000000 0.045184
#
#
# Mechanical properties :
#
#
# Convention : Reuss Voigt Hill
#
# Bulk Modulus (GPa) = 39.39111 70.65065 55.02088
# Shear Modulus (GPa) = 20.70048 27.18939 23.94493
#
# Velocity S-wave (km/s) = 3.28127 3.76056 3.52906
# Velocity P-wave (km/s) = 5.90287 7.45672 6.72482
#
# Compressibility (1/GPa) = 0.02538644
#
# Stress axis : x y z
#
# Youngs Moduli (GPa) = 30.10594 89.97382 128.82262
#
# Poissons Ratio (x) = 0.38110 0.77004
# Poissons Ratio (y) = 0.12752 0.40452
# Poissons Ratio (z) = 0.17996 0.28253
#
# Static dielectric constant tensor:
#      x y z
#    x 3.148530 0.000000 0.000000 
#    y 0.000000 3.692050 0.000000 
#    z 0.000000 0.000000 4.295860 
# 
# 
# High freq. dielectric constant tensor:
#      x y z
#    x 1.699710 0.000000 0.000000 
#    y 0.000000 1.757490 0.000000 
#    z 0.000000 0.000000 1.763380 
# 
# From -- ./inp_files/31310.got.cif
#   From: 2010.03.12/outbox.cif.g09.slc.cpg/sg42_16_cif.got.tgz:31310.got - 2010.04.14 02:04:31.
