data_PCOD8186742
_publ_section_title
;
Structure prediction by ZEFSAII (Michael W. Deem and Ramdas Pophale) SiO2 
 PCOD8186742
Probable space group: F M M 2
;
_chemical_formula_sum "Si O2"
_cell_formula_units_Z 112
_cell_length_a 25.321491
_cell_length_b 20.854354
_cell_length_c 10.441479
_cell_angle_alpha 90.000000
_cell_angle_beta 90.000000
_cell_angle_gamma 90.000000
_cell_volume 5513.762245
_symmetry_space_group_name_H-M "F M M 2"
_symmetry_group_IT_number 42
_symmetry_cell_setting 'orthorhombic'
loop_
_space_group_symop_operation_xyz
x,y,z
-x,-y,z
-x,y,z
x,-y,z
x,1/2+y,1/2+z
-x,1/2-y,1/2+z
-x,1/2+y,1/2+z
x,1/2-y,1/2+z
1/2+x,y,1/2+z
1/2-x,-y,1/2+z
1/2-x,y,1/2+z
1/2+x,-y,1/2+z
1/2+x,1/2+y,z
1/2-x,1/2-y,z
1/2-x,1/2+y,z
1/2+x,1/2-y,z
loop_
_atom_site_type_symbol
_atom_site_label
_atom_site_fract_x
_atom_site_fract_y
_atom_site_fract_z
Si Si1 0.561841 0.300766 0.609640
Si Si2 0.558858 0.926902 0.494696
Si Si3 0.102122 0.071028 0.709770
Si Si4 0.384757 0.752987 0.857215
Si Si5 0.285363 0.428272 0.817160
Si Si6 0.343193 0.356902 0.014018
Si Si7 0.712455 0.811195 0.752835
O O1 0.500000 0.298237 0.628899
O O2 0.581319 0.374350 0.614619
O O3 0.587001 0.255986 0.720088
O O4 0.575702 0.273358 0.469769
O O5 0.500000 0.898381 0.517297
O O6 0.573501 0.920533 0.346026
O O7 0.602680 0.886736 0.575013
O O8 0.560663 0.000000 0.540960
O O9 0.165425 0.076479 0.720294
O O10 0.087791 0.000000 0.655613
O O11 0.358630 0.684786 0.889846
O O12 0.337293 0.804510 0.848076
O O13 0.261237 0.500000 0.815798
O O14 0.305725 0.413772 0.961522
O O15 0.240315 0.378270 0.779422
O O16 0.311094 0.312258 0.110185
O O17 0.750000 0.750000 0.765992
#
# Coordination Sequence:
#
# PCOD8186742 Si02
#       7
#    16  16  16  16  16  16  16
#     4  12  24  42  66  96 131 168 214 266 328 390
#     4   9  17  32  58  91 124 162 206 260 322 375
#     4   9  18  36  61  92 124 156 211 269 311 373
#     4  12  25  43  61  97 128 171 215 267 324 389
#     4  10  22  40  64  95 128 170 219 270 321 381
#     4  11  22  38  63  91 128 162 218 271 317 386
#     4  12  25  42  66  92 128 175 217 268 333 387
#
# _framework density 20.312809000000001
#
# number of rings (size 3 to 8) (size 9 to 14) (size 15 to 20)
#    0.000    1.286    5.714    2.143    2.000    2.571 
#    0.000    2.143    0.000    0.000    0.000    0.000 
#    0.000    0.000    0.000    0.000    0.000    0.000 
#
# Total GULP energy -347108.863196 kJ/mol
# GULP energy per Si atom -12396.745114 kJ/mol
# Density = 2.026658 g / cm^3
# Si number density = 20.312809 Si / 1000 Ang^3
#
#
#
# Elastic Constant Matrix: (Units=GPa)
#
#
# Indices 1 2 3 4 5 6 
#
# 1 123.4580 57.2670 31.0600 0.0000 0.0000 0.0000
# 2 57.2670 124.5785 28.0376 0.0002 -0.0002 -0.0002
# 3 31.0600 28.0376 58.7599 0.0002 -0.0003 -0.0002
# 4 0.0000 0.0002 0.0002 14.0054 -0.0002 -0.0001
# 5 0.0000 -0.0002 -0.0003 -0.0002 21.9919 0.0001
# 6 0.0000 -0.0002 -0.0002 -0.0001 0.0001 33.3386
#
#
#
# Elastic Compliance Matrix: (Units=1/GPa)
#
#
# Indices 1 2 3 4 5 6 
#
# 1 0.011009 -0.004202 -0.003814 0.000000 0.000000 0.000000
# 2 -0.004202 0.010597 -0.002835 0.000000 0.000000 0.000000
# 3 -0.003814 -0.002835 0.020387 0.000000 0.000000 0.000000
# 4 0.000000 0.000000 0.000000 0.071401 0.000000 0.000000
# 5 0.000000 0.000000 0.000000 0.000000 0.045471 0.000000
# 6 0.000000 0.000000 0.000000 0.000000 0.000000 0.029995
#
#
# Mechanical properties :
#
#
# Convention : Reuss Voigt Hill
#
# Bulk Modulus (GPa) = 49.28488 59.94727 54.61608
# Shear Modulus (GPa) = 23.00688 26.56263 24.78475
#
# Velocity S-wave (km/s) = 3.36911 3.62011 3.49686
# Velocity P-wave (km/s) = 6.28093 6.85928 6.57647
#
# Compressibility (1/GPa) = 0.02029020
#
# Stress axis : x y z
#
# Youngs Moduli (GPa) = 90.83761 94.36804 49.05026
#
# Poissons Ratio (x) = 0.39655 0.18708
# Poissons Ratio (y) = 0.38171 0.13906
# Poissons Ratio (z) = 0.34645 0.26754
#
# Static dielectric constant tensor:
#      x y z
#    x 3.929260 0.000000 0.000000 
#    y 0.000000 3.902850 0.000000 
#    z 0.000000 0.000000 3.244870 
# 
# 
# High freq. dielectric constant tensor:
#      x y z
#    x 1.804160 0.000000 0.000000 
#    y 0.000000 1.805750 0.000000 
#    z 0.000000 0.000000 1.747320 
# 
# From -- ./inp_files/10244.got.cif
#   From: 2010.03.12/outbox.cif.g09.slc.cpg/sg42_6_cif.got.tgz:10244.got - 2010.04.14 02:04:31.
