data_PCOD8186965
_publ_section_title
;
Structure prediction by ZEFSAII (Michael W. Deem and Ramdas Pophale) SiO2 
 PCOD8186965
Probable space group: F D D 2
;
_chemical_formula_sum "Si O2"
_cell_formula_units_Z 120
_cell_length_a 21.783566
_cell_length_b 28.949847
_cell_length_c 8.845444
_cell_angle_alpha 90.000000
_cell_angle_beta 90.000000
_cell_angle_gamma 90.000000
_cell_volume 5578.210336
_symmetry_space_group_name_H-M "F D D 2"
_symmetry_group_IT_number 43
_symmetry_cell_setting 'orthorhombic'
loop_
_space_group_symop_operation_xyz
x,y,z
-x,-y,z
1/4-x,1/4+y,1/4+z
1/4+x,1/4-y,1/4+z
x,1/2+y,1/2+z
-x,1/2-y,1/2+z
1/4-x,3/4+y,3/4+z
1/4+x,3/4-y,3/4+z
1/2+x,y,1/2+z
1/2-x,-y,1/2+z
3/4-x,1/4+y,3/4+z
3/4+x,1/4-y,3/4+z
1/2+x,1/2+y,z
1/2-x,1/2-y,z
3/4-x,3/4+y,1/4+z
3/4+x,3/4-y,1/4+z
loop_
_atom_site_type_symbol
_atom_site_label
_atom_site_fract_x
_atom_site_fract_y
_atom_site_fract_z
Si Si1 0.568462 0.867725 0.867820
Si Si2 0.733926 0.656930 0.180357
Si Si3 0.245678 0.964355 0.038662
Si Si4 0.291612 0.673509 0.966883
Si Si5 0.000000 0.500000 0.922519
Si Si6 0.386047 0.348690 0.354567
Si Si7 0.781712 0.054827 0.694793
Si Si8 0.424471 0.567103 0.630639
O O1 0.555242 0.812894 0.856300
O O2 0.512005 0.891360 0.782708
O O3 0.629708 0.882254 0.776390
O O4 0.576028 0.884202 0.040568
O O5 0.787284 0.680732 0.284043
O O6 0.676318 0.669884 0.284992
O O7 0.750713 0.603502 0.155265
O O8 0.723044 0.679989 0.018109
O O9 0.184664 0.942775 0.113551
O O10 0.254084 0.017967 0.077554
O O11 0.240140 0.960117 0.859605
O O12 0.293488 0.720419 0.061573
O O13 0.351041 0.642345 0.995111
O O14 0.049056 0.472145 0.021048
O O15 0.855914 0.056190 0.687062
#
# Coordination Sequence:
#
# PCOD8186965 Si02
#       8
#    16  16  16  16   8  16  16  16
#     4   9  21  40  66  91 128 178 217 269 345 408
#     4  11  21  44  65  93 138 181 225 278 346 413
#     4  11  24  43  66 101 136 174 230 285 338 413
#     4   9  19  39  65  88 120 176 225 267 326 411
#     4  10  24  42  62  98 132 170 234 278 340 422
#     4  10  18  42  68  88 130 179 223 269 339 423
#     4  12  26  43  66 106 138 171 238 286 341 412
#     4  11  25  43  67 102 140 175 225 293 352 414
#
# _framework density 21.512276
#
# number of rings (size 3 to 8) (size 9 to 14) (size 15 to 20)
#    0.000    1.600    5.333    0.000    5.600    2.667 
#    4.800    1.333    0.000    0.000    0.000    0.000 
#    0.000    0.000    0.000    0.000    0.000    0.000 
#
# Total GULP energy -371785.796263 kJ/mol
# GULP energy per Si atom -12392.859875 kJ/mol
# Density = 2.146331 g / cm^3
# Si number density = 21.512276 Si / 1000 Ang^3
#
#
#
# Elastic Constant Matrix: (Units=GPa)
#
#
# Indices 1 2 3 4 5 6 
#
# 1 43.3022 17.3881 16.7544 -0.0003 0.0001 -0.0004
# 2 17.3881 99.2299 42.2114 0.0001 -0.0008 -0.0004
# 3 16.7544 42.2114 134.5916 -0.0013 0.0006 -0.0019
# 4 -0.0003 0.0001 -0.0013 37.4533 0.0004 -0.0005
# 5 0.0001 -0.0008 0.0006 0.0004 31.8594 0.0013
# 6 -0.0004 -0.0004 -0.0019 -0.0005 0.0013 22.7073
#
#
#
# Elastic Compliance Matrix: (Units=1/GPa)
#
#
# Indices 1 2 3 4 5 6 
#
# 1 0.025314 -0.003572 -0.002031 0.000000 0.000000 0.000000
# 2 -0.003572 0.012133 -0.003361 0.000000 0.000000 0.000000
# 3 -0.002031 -0.003361 0.008737 0.000000 0.000000 0.000001
# 4 0.000000 0.000000 0.000000 0.026700 0.000000 0.000001
# 5 0.000000 0.000000 0.000000 0.000000 0.031388 -0.000002
# 6 0.000000 0.000000 0.000001 0.000001 -0.000002 0.044039
#
#
# Mechanical properties :
#
#
# Convention : Reuss Voigt Hill
#
# Bulk Modulus (GPa) = 35.38982 47.75904 41.57443
# Shear Modulus (GPa) = 28.46482 31.78865 30.12674
#
# Velocity S-wave (km/s) = 3.64151 3.84825 3.74631
# Velocity P-wave (km/s) = 5.84530 6.48031 6.17098
#
# Compressibility (1/GPa) = 0.02825671
#
# Stress axis : x y z
#
# Youngs Moduli (GPa) = 39.50446 82.41947 114.46004
#
# Poissons Ratio (x) = 0.29438 0.23246
# Poissons Ratio (y) = 0.14110 0.38466
# Poissons Ratio (z) = 0.08023 0.27698
#
# Static dielectric constant tensor:
#      x y z
#    x 4.055360 0.000000 0.000000 
#    y 0.000000 3.934240 0.000000 
#    z 0.000000 0.000000 4.168590 
# 
# 
# High freq. dielectric constant tensor:
#      x y z
#    x 1.835280 0.000000 0.000000 
#    y 0.000000 1.831480 0.000000 
#    z 0.000000 0.000000 1.853390 
# 
# From -- ./inp_files/4005.got.cif
#   From: 2010.06.25/outbox.cif.g09.slc.cpg/sg43_3_cif.got.tgz:4005.got - 2010.06.26 16:48:59.
