data_PCOD8186025
_publ_section_title
;
Structure prediction by ZEFSAII (Michael W. Deem and Ramdas Pophale) SiO2 
 PCOD8186025
Probable space group: F M M 2
;
_chemical_formula_sum "Si O2"
_cell_formula_units_Z 96
_cell_length_a 25.301123
_cell_length_b 8.764027
_cell_length_c 25.475327
_cell_angle_alpha 90.000000
_cell_angle_beta 90.000000
_cell_angle_gamma 90.000000
_cell_volume 5648.892006
_symmetry_space_group_name_H-M "F M M 2"
_symmetry_group_IT_number 42
_symmetry_cell_setting 'orthorhombic'
loop_
_space_group_symop_operation_xyz
x,y,z
-x,-y,z
-x,y,z
x,-y,z
x,1/2+y,1/2+z
-x,1/2-y,1/2+z
-x,1/2+y,1/2+z
x,1/2-y,1/2+z
1/2+x,y,1/2+z
1/2-x,-y,1/2+z
1/2-x,y,1/2+z
1/2+x,-y,1/2+z
1/2+x,1/2+y,z
1/2-x,1/2-y,z
1/2-x,1/2+y,z
1/2+x,1/2-y,z
loop_
_atom_site_type_symbol
_atom_site_label
_atom_site_fract_x
_atom_site_fract_y
_atom_site_fract_z
Si Si1 0.807598 0.677951 0.178450
Si Si2 0.807890 0.679408 0.897255
Si Si3 0.500000 0.331136 0.979059
Si Si4 0.000000 0.666439 0.603312
Si Si5 0.693163 0.823313 0.294009
Si Si6 0.612813 0.817506 0.597166
Si Si7 0.391687 0.820007 0.984658
O O1 0.803938 0.500000 0.164086
O O2 0.750000 0.750000 0.175173
O O3 0.833525 0.700280 0.236676
O O4 0.843140 0.765194 0.137113
O O5 0.801774 0.500000 0.893397
O O6 0.750000 0.750000 0.906337
O O7 0.835344 0.740378 0.843052
O O8 0.845748 0.727959 0.944601
O O9 0.500000 0.500000 0.953175
O O10 0.552747 0.241436 0.961785
O O11 0.500000 0.348541 0.040992
O O12 0.055548 0.748120 0.618127
O O13 0.000000 0.500000 0.629957
O O14 0.750000 0.750000 0.289353
O O15 0.698444 0.000000 0.307886
O O16 0.625213 0.752788 0.539860
O O17 0.610624 0.000000 0.593367
O O18 0.396458 0.000000 0.991617
#
# Coordination Sequence:
#
# PCOD8186025 Si02
#       7
#    16  16   8   8  16  16  16
#     4  10  20  33  49  72  99 128 161 198 242 290
#     4  10  20  32  49  72  98 128 161 197 240 287
#     4   9  17  31  51  72  93 124 165 204 240 282
#     4   7  14  29  47  68  91 118 157 194 230 276
#     4   9  17  30  49  69  92 123 161 201 239 283
#     4  10  19  32  51  73  98 129 162 199 240 287
#     4  10  20  33  49  72 101 131 162 199 241 287
#
# _framework density 16.994482999999999
#
# number of rings (size 3 to 8) (size 9 to 14) (size 15 to 20)
#    0.000    2.500    0.000    4.750    0.000    5.333 
#    0.000    2.917    0.000    1.000    0.000    3.500 
#    0.000    0.000    0.000    0.000    0.000    0.000 
#
# Total GULP energy -297361.888770 kJ/mol
# GULP energy per Si atom -12390.078699 kJ/mol
# Density = 1.695580 g / cm^3
# Si number density = 16.994483 Si / 1000 Ang^3
#
#
#
# Elastic Constant Matrix: (Units=GPa)
#
#
# Indices 1 2 3 4 5 6 
#
# 1 102.7189 41.9640 66.3117 0.0000 0.0000 -0.0002
# 2 41.9640 86.3791 47.8806 0.0000 0.0000 -0.0002
# 3 66.3117 47.8806 112.8040 0.0000 0.0000 0.0000
# 4 0.0000 0.0000 0.0000 26.2476 0.0000 0.0000
# 5 0.0000 0.0000 0.0000 0.0000 -2.0436 0.0000
# 6 -0.0002 -0.0002 0.0000 0.0000 0.0000 25.6644
#
#
#
# Elastic Compliance Matrix: (Units=1/GPa)
#
#
# Indices 1 2 3 4 5 6 
#
# 1 0.016435 -0.003438 -0.008202 0.000000 0.000000 0.000000
# 2 -0.003438 0.015858 -0.004710 0.000000 0.000000 0.000000
# 3 -0.008202 -0.004710 0.015686 0.000000 0.000000 0.000000
# 4 0.000000 0.000000 0.000000 0.038099 0.000000 0.000000
# 5 0.000000 0.000000 0.000000 0.000000 -0.489343 0.000001
# 6 0.000000 0.000000 0.000000 0.000000 0.000001 0.038964
#
#
# Mechanical properties :
#
#
# Convention : Reuss Voigt Hill
#
# Bulk Modulus (GPa) = 65.45107 68.24605 66.84856
# Shear Modulus (GPa) = -15.31350 19.69008 2.18829
#
# Velocity S-wave (km/s) = -3.00507 3.40754 1.13598
# Velocity P-wave (km/s) = 5.15327 7.46503 6.41416
#
# Compressibility (1/GPa) = 0.01527859
#
# Stress axis : x y z
#
# Youngs Moduli (GPa) = 60.84731 63.06043 63.75265
#
# Poissons Ratio (x) = 0.21679 0.52289
# Poissons Ratio (y) = 0.20918 0.30028
# Poissons Ratio (z) = 0.49906 0.29702
#
# Static dielectric constant tensor:
#      x y z
#    x 3.265550 0.000000 0.000000 
#    y 0.000000 3.321060 0.000000 
#    z 0.000000 0.000000 3.446300 
# 
# 
# High freq. dielectric constant tensor:
#      x y z
#    x 1.638820 0.000000 0.000000 
#    y 0.000000 1.668660 0.000000 
#    z 0.000000 0.000000 1.644810 
# 
# From -- ./inp_files/30457.got.cif
#   From: 2010.03.12/outbox.cif.g09.slc.cpg/sg42_16_cif.got.tgz:30457.got - 2010.04.14 02:04:31.
