data_PCOD8186734
_publ_section_title
;
Structure prediction by ZEFSAII (Michael W. Deem and Ramdas Pophale) SiO2 
 PCOD8186734
Probable space group: F M M 2
;
_chemical_formula_sum "Si O2"
_cell_formula_units_Z 88
_cell_length_a 9.430033
_cell_length_b 13.548960
_cell_length_c 28.806016
_cell_angle_alpha 90.000000
_cell_angle_beta 90.000000
_cell_angle_gamma 90.000000
_cell_volume 3680.462277
_symmetry_space_group_name_H-M "F M M 2"
_symmetry_group_IT_number 42
_symmetry_cell_setting 'orthorhombic'
loop_
_space_group_symop_operation_xyz
x,y,z
-x,-y,z
-x,y,z
x,-y,z
x,1/2+y,1/2+z
-x,1/2-y,1/2+z
-x,1/2+y,1/2+z
x,1/2-y,1/2+z
1/2+x,y,1/2+z
1/2-x,-y,1/2+z
1/2-x,y,1/2+z
1/2+x,-y,1/2+z
1/2+x,1/2+y,z
1/2-x,1/2-y,z
1/2-x,1/2+y,z
1/2+x,1/2-y,z
loop_
_atom_site_type_symbol
_atom_site_label
_atom_site_fract_x
_atom_site_fract_y
_atom_site_fract_z
Si Si1 0.660511 0.117664 0.448570
Si Si2 0.159758 0.882675 0.535426
Si Si3 0.656955 0.387969 0.121089
Si Si4 0.159758 0.382675 0.861714
Si Si5 0.843045 0.387969 0.276051
Si Si6 0.250000 0.250000 0.698570
O O1 0.500000 0.159361 0.448570
O O2 0.745281 0.158368 0.493266
O O3 0.745281 0.158368 0.403874
O O4 0.657077 0.000000 0.448570
O O5 0.230425 0.847314 0.583565
O O6 0.000000 0.840186 0.532442
O O7 0.156949 0.000000 0.533210
O O8 0.500000 0.385387 0.098639
O O9 0.696433 0.500000 0.135473
O O10 0.654213 0.320204 0.166643
O O11 0.156949 0.500000 0.863930
O O12 0.230425 0.347314 0.813575
O O13 0.000000 0.340186 0.864698
O O14 0.803567 0.500000 0.261667
O O15 0.845787 0.320204 0.230497
O O16 0.000000 0.385387 0.298501
#
# Coordination Sequence:
#
# PCOD8186734 Si02
#       6
#    16  16  16  16  16   8
#     4   9  15  25  47  80 117 156 196 237 286 347
#     4   9  17  30  51  81 117 155 196 242 291 347
#     4  10  22  40  61  87 120 157 199 248 301 357
#     4   9  17  30  51  81 117 155 196 242 291 347
#     4  10  22  40  61  87 120 157 199 248 301 357
#     4  12  24  40  64  90 114 152 202 254 306 360
#
# _framework density 23.910039999999999
#
# number of rings (size 3 to 8) (size 9 to 14) (size 15 to 20)
#    0.000    2.364    0.000    2.727    0.000    9.455 
#    0.000    3.636    0.000    1.091    0.000    0.000 
#    0.000    0.000    0.000    0.000    0.000    2.545 
#
# Total GULP energy -272802.128938 kJ/mol
# GULP energy per Si atom -12400.096770 kJ/mol
# Density = 2.385562 g / cm^3
# Si number density = 23.910040 Si / 1000 Ang^3
#
#
#
# Elastic Constant Matrix: (Units=GPa)
#
#
# Indices 1 2 3 4 5 6 
#
# 1 214.5819 35.9175 96.5427 0.0000 0.0000 0.0000
# 2 35.9175 70.2757 40.9031 0.0000 0.0000 0.0000
# 3 96.5427 40.9031 184.0407 0.0000 0.0000 0.0000
# 4 0.0000 0.0000 0.0000 -36.8119 0.0000 0.0000
# 5 0.0000 0.0000 0.0000 0.0000 60.3839 0.0000
# 6 0.0000 0.0000 0.0000 0.0000 0.0000 10.1565
#
#
#
# Elastic Compliance Matrix: (Units=1/GPa)
#
#
# Indices 1 2 3 4 5 6 
#
# 1 0.006230 -0.001472 -0.002941 0.000000 0.000000 0.000000
# 2 -0.001472 0.016692 -0.002937 0.000000 0.000000 0.000000
# 3 -0.002941 -0.002937 0.007629 0.000000 0.000000 0.000000
# 4 0.000000 0.000000 0.000000 -0.027165 0.000000 0.000000
# 5 0.000000 0.000000 0.000000 0.000000 0.016561 0.000000
# 6 0.000000 0.000000 0.000000 0.000000 0.000000 0.098459
#
#
# Mechanical properties :
#
#
# Convention : Reuss Voigt Hill
#
# Bulk Modulus (GPa) = 63.09283 90.62498 76.85890
# Shear Modulus (GPa) = 36.12987 26.44805 31.28896
#
# Velocity S-wave (km/s) = 3.89147 3.32949 3.62140
# Velocity P-wave (km/s) = 6.82908 7.26398 7.04988
#
# Compressibility (1/GPa) = 0.01584966
#
# Stress axis : x y z
#
# Youngs Moduli (GPa) = 160.52051 59.90941 131.07821
#
# Poissons Ratio (x) = 0.08821 0.38546
# Poissons Ratio (y) = 0.23635 0.38503
# Poissons Ratio (z) = 0.47204 0.17598
#
# Static dielectric constant tensor:
#      x y z
#    x 4.347630 0.000000 0.000000 
#    y 0.000000 4.062200 0.000000 
#    z 0.000000 0.000000 4.158750 
# 
# 
# High freq. dielectric constant tensor:
#      x y z
#    x 1.947740 0.000000 0.000000 
#    y 0.000000 1.954630 0.000000 
#    z 0.000000 0.000000 1.937660 
# 
# From -- ./inp_files/33709.got.cif
#   From: 2010.03.12/outbox.cif.g09.slc.cpg/sg42_17_cif.got.tgz:33709.got - 2010.04.14 02:04:31.
