data_PCOD8186889
_publ_section_title
;
Structure prediction by ZEFSAII (Michael W. Deem and Ramdas Pophale) SiO2 
 PCOD8186889
Probable space group: F M M 2
;
_chemical_formula_sum "Si O2"
_cell_formula_units_Z 128
_cell_length_a 21.523001
_cell_length_b 18.410686
_cell_length_c 21.683138
_cell_angle_alpha 90.000000
_cell_angle_beta 90.000000
_cell_angle_gamma 90.000000
_cell_volume 8592.013105
_symmetry_space_group_name_H-M "F M M 2"
_symmetry_group_IT_number 42
_symmetry_cell_setting 'orthorhombic'
loop_
_space_group_symop_operation_xyz
x,y,z
-x,-y,z
-x,y,z
x,-y,z
x,1/2+y,1/2+z
-x,1/2-y,1/2+z
-x,1/2+y,1/2+z
x,1/2-y,1/2+z
1/2+x,y,1/2+z
1/2-x,-y,1/2+z
1/2-x,y,1/2+z
1/2+x,-y,1/2+z
1/2+x,1/2+y,z
1/2-x,1/2-y,z
1/2-x,1/2+y,z
1/2+x,1/2-y,z
loop_
_atom_site_type_symbol
_atom_site_label
_atom_site_fract_x
_atom_site_fract_y
_atom_site_fract_z
Si Si1 0.256140 0.330505 0.514110
Si Si2 0.665617 0.415836 0.232022
Si Si3 0.757617 0.915345 0.832632
Si Si4 0.844208 0.169891 0.908120
Si Si5 0.345826 0.337943 0.413565
Si Si6 0.828638 0.585187 0.595749
Si Si7 0.071953 0.415402 0.493847
Si Si8 0.570524 0.084910 0.832562
O O1 0.250000 0.250000 0.542030
O O2 0.210459 0.340405 0.456821
O O3 0.325812 0.343576 0.486165
O O4 0.236358 0.385954 0.567342
O O5 0.649727 0.500000 0.224607
O O6 0.734482 0.405263 0.261846
O O7 0.663056 0.380051 0.163937
O O8 0.611999 0.382823 0.276303
O O9 0.822193 0.872705 0.845973
O O10 0.703638 0.881830 0.873827
O O11 0.766513 0.000000 0.849145
O O12 0.852511 0.254187 0.892717
O O13 0.906602 0.133046 0.935436
O O14 0.411454 0.375891 0.397510
O O15 0.820391 0.500000 0.600191
O O16 0.888220 0.606789 0.554316
O O17 0.082625 0.500000 0.477816
O O18 0.000000 0.398905 0.507990
O O19 0.500000 0.102878 0.816343
O O20 0.582576 0.000000 0.841835
#
# Coordination Sequence:
#
# PCOD8186889 Si02
#       8
#    16  16  16  16  16  16  16  16
#     4   8  15  26  38  55  78 101 123 154 192 230
#     4   8  15  26  39  57  79 101 127 158 189 224
#     4   9  15  25  41  58  78 103 128 158 196 233
#     4   9  16  26  40  57  79 103 128 159 195 233
#     4   9  16  26  40  58  80 101 128 161 194 232
#     4   9  16  26  40  57  77 102 130 157 186 224
#     4   9  17  27  39  57  79 103 132 161 189 226
#     4   9  17  28  41  57  78 104 132 160 191 228
#
# _framework density 14.897557000000001
#
# number of rings (size 3 to 8) (size 9 to 14) (size 15 to 20)
#    0.000    3.250    0.000    2.625    0.000    4.500 
#    0.000    5.000    0.000    0.000    0.000    0.000 
#    0.000    1.000    0.000    6.250    0.000    0.500 
#
# Total GULP energy -396431.271112 kJ/mol
# GULP energy per Si atom -12388.477222 kJ/mol
# Density = 1.486365 g / cm^3
# Si number density = 14.897557 Si / 1000 Ang^3
#
#
#
# Elastic Constant Matrix: (Units=GPa)
#
#
# Indices 1 2 3 4 5 6 
#
# 1 65.8002 39.4784 55.3514 0.0000 0.0000 0.0000
# 2 39.4784 57.7074 30.1659 0.0000 0.0000 0.0000
# 3 55.3514 30.1659 67.7048 0.0000 0.0000 0.0000
# 4 0.0000 0.0000 0.0000 9.9541 0.0000 0.0000
# 5 0.0000 0.0000 0.0000 0.0000 16.6381 0.0000
# 6 0.0000 0.0000 0.0000 0.0000 0.0000 14.3449
#
#
#
# Elastic Compliance Matrix: (Units=1/GPa)
#
#
# Indices 1 2 3 4 5 6 
#
# 1 0.064148 -0.021471 -0.042877 0.000000 0.000000 0.000000
# 2 -0.021471 0.029777 0.004286 0.000000 0.000000 0.000000
# 3 -0.042877 0.004286 0.047914 0.000000 0.000000 0.000000
# 4 0.000000 0.000000 0.000000 0.100461 0.000000 0.000000
# 5 0.000000 0.000000 0.000000 0.000000 0.060103 0.000000
# 6 0.000000 0.000000 0.000000 0.000000 0.000000 0.069711
#
#
# Mechanical properties :
#
#
# Convention : Reuss Voigt Hill
#
# Bulk Modulus (GPa) = 46.05074 49.02266 47.53670
# Shear Modulus (GPa) = 10.01045 12.60185 11.30615
#
# Velocity S-wave (km/s) = 2.59502 2.91159 2.75785
# Velocity P-wave (km/s) = 6.32120 6.65440 6.48994
#
# Compressibility (1/GPa) = 0.02171518
#
# Stress axis : x y z
#
# Youngs Moduli (GPa) = 15.58886 33.58321 20.87062
#
# Poissons Ratio (x) = 0.72107 0.89488
# Poissons Ratio (y) = 0.33471 -0.08946
# Poissons Ratio (z) = 0.66841 -0.14395
#
# Static dielectric constant tensor:
#      x y z
#    x 2.992860 0.000000 0.000000 
#    y 0.000000 2.911710 0.000000 
#    z 0.000000 0.000000 3.087470 
# 
# 
# High freq. dielectric constant tensor:
#      x y z
#    x 1.548240 0.000000 0.000000 
#    y 0.000000 1.562440 0.000000 
#    z 0.000000 0.000000 1.548100 
# 
# From -- ./inp_files/26252.got.cif
#   From: 2010.03.12/outbox.cif.g09.slc.cpg/sg42_14_cif.got.tgz:26252.got - 2010.04.14 02:04:31.
