data_PCOD8186299
_publ_section_title
;
Structure prediction by ZEFSAII (Michael W. Deem and Ramdas Pophale) SiO2 
 PCOD8186299
Probable space group: F M M 2
;
_chemical_formula_sum "Si O2"
_cell_formula_units_Z 96
_cell_length_a 8.726394
_cell_length_b 18.672791
_cell_length_c 30.592148
_cell_angle_alpha 90.000000
_cell_angle_beta 90.000000
_cell_angle_gamma 90.000000
_cell_volume 4984.872166
_symmetry_space_group_name_H-M "F M M 2"
_symmetry_group_IT_number 42
_symmetry_cell_setting 'orthorhombic'
loop_
_space_group_symop_operation_xyz
x,y,z
-x,-y,z
-x,y,z
x,-y,z
x,1/2+y,1/2+z
-x,1/2-y,1/2+z
-x,1/2+y,1/2+z
x,1/2-y,1/2+z
1/2+x,y,1/2+z
1/2-x,-y,1/2+z
1/2-x,y,1/2+z
1/2+x,-y,1/2+z
1/2+x,1/2+y,z
1/2-x,1/2-y,z
1/2-x,1/2+y,z
1/2+x,1/2-y,z
loop_
_atom_site_type_symbol
_atom_site_label
_atom_site_fract_x
_atom_site_fract_y
_atom_site_fract_z
Si Si1 0.672878 0.084650 0.892900
Si Si2 0.820650 0.824919 0.964971
Si Si3 0.819343 0.673796 0.057022
Si Si4 0.180930 0.327808 0.715958
Si Si5 0.821633 0.083217 0.131446
Si Si6 0.182014 0.420330 0.795649
O O1 0.500000 0.112542 0.901701
O O2 0.789537 0.117462 0.927526
O O3 0.727677 0.106772 0.844121
O O4 0.677962 0.000000 0.897568
O O5 0.750000 0.750000 0.949446
O O6 0.000000 0.816243 0.972733
O O7 0.744513 0.850527 0.010097
O O8 0.750000 0.750000 0.071750
O O9 0.776109 0.612784 0.091280
O O10 0.000000 0.682093 0.054068
O O11 0.250000 0.250000 0.710119
O O12 0.230529 0.376285 0.675150
O O13 0.247665 0.365179 0.759774
O O14 0.000000 0.320616 0.718918
O O15 0.000000 0.096092 0.121552
O O16 0.784195 0.000000 0.137787
O O17 0.249333 0.500000 0.786924
O O18 0.000000 0.424980 0.792112
#
# Coordination Sequence:
#
# PCOD8186299 Si02
#       6
#    16  16  16  16  16  16
#     4   9  18  34  56  81 110 144 182 224 270 320
#     4  11  22  37  57  80 109 143 181 224 270 321
#     4  11  22  38  59  81 108 141 179 222 270 323
#     4  10  20  34  54  80 109 142 180 221 266 317
#     4  10  21  37  57  81 109 142 181 224 269 318
#     4   8  15  31  55  79 104 139 182 223 263 312
#
# _framework density 19.258268000000001
#
# number of rings (size 3 to 8) (size 9 to 14) (size 15 to 20)
#    0.000    2.167    0.000    6.000    0.000    6.000 
#    0.000    2.500    0.000    2.500    0.000    0.000 
#    0.000    0.000    0.000    0.000    0.000    0.000 
#
# Total GULP energy -297638.847682 kJ/mol
# GULP energy per Si atom -12401.618653 kJ/mol
# Density = 1.921443 g / cm^3
# Si number density = 19.258268 Si / 1000 Ang^3
#
#
#
# Elastic Constant Matrix: (Units=GPa)
#
#
# Indices 1 2 3 4 5 6 
#
# 1 90.1804 43.1584 51.1418 0.0000 0.0000 0.0000
# 2 43.1584 110.4290 81.3791 0.0000 0.0000 0.0000
# 3 51.1418 81.3791 146.3883 0.0000 0.0000 0.0000
# 4 0.0000 0.0000 0.0000 41.6957 0.0000 0.0000
# 5 0.0000 0.0000 0.0000 0.0000 24.2723 0.0000
# 6 0.0000 0.0000 0.0000 0.0000 0.0000 27.9962
#
#
#
# Elastic Compliance Matrix: (Units=1/GPa)
#
#
# Indices 1 2 3 4 5 6 
#
# 1 0.014496 -0.003275 -0.003244 0.000000 0.000000 0.000000
# 2 -0.003275 0.016080 -0.007795 0.000000 0.000000 0.000000
# 3 -0.003244 -0.007795 0.012298 0.000000 0.000000 0.000000
# 4 0.000000 0.000000 0.000000 0.023983 0.000000 0.000000
# 5 0.000000 0.000000 0.000000 0.000000 0.041199 0.000000
# 6 0.000000 0.000000 0.000000 0.000000 0.000000 0.035719
#
#
# Mechanical properties :
#
#
# Convention : Reuss Voigt Hill
#
# Bulk Modulus (GPa) = 70.19370 77.59516 73.89443
# Shear Modulus (GPa) = 28.22463 30.21406 29.21935
#
# Velocity S-wave (km/s) = 3.83245 3.96522 3.89940
# Velocity P-wave (km/s) = 7.49075 7.83219 7.66337
#
# Compressibility (1/GPa) = 0.01424629
#
# Stress axis : x y z
#
# Youngs Moduli (GPa) = 68.98621 62.18973 81.31692
#
# Poissons Ratio (x) = 0.20367 0.26376
# Poissons Ratio (y) = 0.22593 0.63385
# Poissons Ratio (z) = 0.22376 0.48476
#
# Static dielectric constant tensor:
#      x y z
#    x 3.344530 0.000000 0.000000 
#    y 0.000000 3.493920 0.000000 
#    z 0.000000 0.000000 3.732150 
# 
# 
# High freq. dielectric constant tensor:
#      x y z
#    x 1.728790 0.000000 0.000000 
#    y 0.000000 1.747530 0.000000 
#    z 0.000000 0.000000 1.763600 
# 
# From -- ./inp_files/31445.got.cif
#   From: 2010.03.12/outbox.cif.g09.slc.cpg/sg42_16_cif.got.tgz:31445.got - 2010.04.14 02:04:31.
