data_PCOD8186006
_publ_section_title
;
Structure prediction by ZEFSAII (Michael W. Deem and Ramdas Pophale) SiO2 
 PCOD8186006
Probable space group: F M M 2
;
_chemical_formula_sum "Si O2"
_cell_formula_units_Z 80
_cell_length_a 8.666808
_cell_length_b 28.065679
_cell_length_c 20.651329
_cell_angle_alpha 90.000000
_cell_angle_beta 90.000000
_cell_angle_gamma 90.000000
_cell_volume 5023.226195
_symmetry_space_group_name_H-M "F M M 2"
_symmetry_group_IT_number 42
_symmetry_cell_setting 'orthorhombic'
loop_
_space_group_symop_operation_xyz
x,y,z
-x,-y,z
-x,y,z
x,-y,z
x,1/2+y,1/2+z
-x,1/2-y,1/2+z
-x,1/2+y,1/2+z
x,1/2-y,1/2+z
1/2+x,y,1/2+z
1/2-x,-y,1/2+z
1/2-x,y,1/2+z
1/2+x,-y,1/2+z
1/2+x,1/2+y,z
1/2-x,1/2-y,z
1/2-x,1/2+y,z
1/2+x,1/2-y,z
loop_
_atom_site_type_symbol
_atom_site_label
_atom_site_fract_x
_atom_site_fract_y
_atom_site_fract_z
Si Si1 0.675845 0.142564 0.008340
Si Si2 0.323439 0.553099 0.578622
Si Si3 0.316829 0.801232 0.884826
Si Si4 0.320877 0.137841 0.637524
Si Si5 0.818489 0.301086 0.248634
O O1 0.500000 0.159794 0.017934
O O2 0.686415 0.084340 0.011804
O O3 0.774822 0.163253 0.069100
O O4 0.738800 0.161608 0.940000
O O5 0.500000 0.550346 0.602375
O O6 0.256022 0.500000 0.567467
O O7 0.224631 0.581503 0.633198
O O8 0.500000 0.798338 0.879177
O O9 0.250000 0.750000 0.903853
O O10 0.249171 0.819150 0.816908
O O11 0.500000 0.144491 0.651960
O O12 0.223337 0.160513 0.694927
O O13 0.750000 0.250000 0.229134
O O14 0.000000 0.295775 0.255187
#
# Coordination Sequence:
#
# PCOD8186006 Si02
#       5
#    16  16  16  16  16
#     4   8  17  32  48  71  97 127 161 199 241 286
#     4   8  15  31  52  72  96 127 160 197 246 292
#     4  10  19  32  49  69  98 130 163 197 237 287
#     4  10  19  31  49  74 100 126 162 202 241 284
#     4  11  21  34  50  69  97 131 167 199 241 288
#
# _framework density 15.926019999999999
#
# number of rings (size 3 to 8) (size 9 to 14) (size 15 to 20)
#    1.200    1.400    0.000    4.800    0.000    2.800 
#    0.000    2.000    0.000    1.200    0.000    2.800 
#    0.000    0.000    0.000    0.000    0.000    0.000 
#
# Total GULP energy -247769.368620 kJ/mol
# GULP energy per Si atom -12388.468431 kJ/mol
# Density = 1.588977 g / cm^3
# Si number density = 15.926020 Si / 1000 Ang^3
#
#
#
# Elastic Constant Matrix: (Units=GPa)
#
#
# Indices 1 2 3 4 5 6 
#
# 1 83.1225 27.5292 35.6054 0.0000 0.0000 0.0000
# 2 27.5292 91.4220 65.9491 0.0000 0.0000 0.0000
# 3 35.6054 65.9491 108.0410 0.0000 0.0000 0.0000
# 4 0.0000 0.0000 0.0000 7.9590 0.0000 0.0000
# 5 0.0000 0.0000 0.0000 0.0000 23.0466 0.0000
# 6 0.0000 0.0000 0.0000 0.0000 0.0000 21.2498
#
#
#
# Elastic Compliance Matrix: (Units=1/GPa)
#
#
# Indices 1 2 3 4 5 6 
#
# 1 0.014138 -0.001601 -0.003682 0.000000 0.000000 0.000000
# 2 -0.001601 0.019726 -0.011513 0.000000 0.000000 0.000000
# 3 -0.003682 -0.011513 0.017497 0.000000 0.000000 0.000000
# 4 0.000000 0.000000 0.000000 0.125643 0.000000 0.000000
# 5 0.000000 0.000000 0.000000 0.000000 0.043390 0.000000
# 6 0.000000 0.000000 0.000000 0.000000 0.000000 0.047059
#
#
# Mechanical properties :
#
#
# Convention : Reuss Voigt Hill
#
# Bulk Modulus (GPa) = 56.28063 60.08368 58.18215
# Shear Modulus (GPa) = 16.28837 20.68455 18.48646
#
# Velocity S-wave (km/s) = 3.20152 3.60778 3.41070
# Velocity P-wave (km/s) = 7.00584 7.42721 7.21960
#
# Compressibility (1/GPa) = 0.01776810
#
# Stress axis : x y z
#
# Youngs Moduli (GPa) = 70.73215 50.69565 57.15379
#
# Poissons Ratio (x) = 0.08118 0.21042
# Poissons Ratio (y) = 0.11327 0.65801
# Poissons Ratio (z) = 0.26042 0.58365
#
# Static dielectric constant tensor:
#      x y z
#    x 3.005780 0.000000 0.000000 
#    y 0.000000 2.963250 0.000000 
#    z 0.000000 0.000000 2.965400 
# 
# 
# High freq. dielectric constant tensor:
#      x y z
#    x 1.621030 0.000000 0.000000 
#    y 0.000000 1.591680 0.000000 
#    z 0.000000 0.000000 1.597150 
# 
# From -- ./inp_files/28353.got.cif
#   From: 2010.03.12/outbox.cif.g09.slc.cpg/sg42_15_cif.got.tgz:28353.got - 2010.04.14 02:04:31.
