data_PCOD8186045
_publ_section_title
;
Structure prediction by ZEFSAII (Michael W. Deem and Ramdas Pophale) SiO2 
 PCOD8186045
Probable space group: F M M 2
;
_chemical_formula_sum "Si O2"
_cell_formula_units_Z 80
_cell_length_a 23.014741
_cell_length_b 9.108616
_cell_length_c 20.026327
_cell_angle_alpha 90.000000
_cell_angle_beta 90.000000
_cell_angle_gamma 90.000000
_cell_volume 4198.167755
_symmetry_space_group_name_H-M "F M M 2"
_symmetry_group_IT_number 42
_symmetry_cell_setting 'orthorhombic'
loop_
_space_group_symop_operation_xyz
x,y,z
-x,-y,z
-x,y,z
x,-y,z
x,1/2+y,1/2+z
-x,1/2-y,1/2+z
-x,1/2+y,1/2+z
x,1/2-y,1/2+z
1/2+x,y,1/2+z
1/2-x,-y,1/2+z
1/2-x,y,1/2+z
1/2+x,-y,1/2+z
1/2+x,1/2+y,z
1/2-x,1/2-y,z
1/2-x,1/2+y,z
1/2+x,1/2-y,z
loop_
_atom_site_type_symbol
_atom_site_label
_atom_site_fract_x
_atom_site_fract_y
_atom_site_fract_z
Si Si1 0.000000 0.174064 0.935591
Si Si2 0.621943 0.333424 0.984927
Si Si3 0.306656 0.834805 0.352926
Si Si4 0.121412 0.825882 0.730584
Si Si5 0.000000 0.675368 0.284270
Si Si6 0.311861 0.674084 0.599265
O O1 0.944089 0.225015 0.978405
O O2 0.000000 0.238698 0.860098
O O3 0.000000 0.000000 0.928395
O O4 0.624918 0.500000 0.013275
O O5 0.646042 0.328666 0.910514
O O6 0.658843 0.225484 0.030916
O O7 0.250000 0.750000 0.376394
O O8 0.334824 0.762818 0.286732
O O9 0.287159 0.000000 0.337821
O O10 0.144807 0.776680 0.658495
O O11 0.056471 0.764977 0.744161
O O12 0.120047 0.000000 0.737333
O O13 0.000000 0.500000 0.286170
O O14 0.302359 0.500000 0.597050
O O15 0.250000 0.750000 0.609738
#
# Coordination Sequence:
#
# PCOD8186045 Si02
#       6
#     8  16  16  16   8  16
#     4   9  16  31  57  85 111 142 181 226 272 326
#     4  10  20  35  57  83 110 143 184 227 273 325
#     4  10  19  32  52  78 104 135 180 228 269 314
#     4   9  18  32  53  80 107 138 179 225 271 320
#     4   9  14  29  56  83 109 136 177 228 272 324
#     4  11  23  38  55  79 113 150 185 226 277 329
#
# _framework density 19.055931999999999
#
# number of rings (size 3 to 8) (size 9 to 14) (size 15 to 20)
#    0.000    2.200    2.000    1.800    0.000    3.200 
#    0.000    2.500    0.000    0.000    0.000    3.500 
#    0.000    0.000    0.000    0.000    0.000    0.000 
#
# Total GULP energy -247978.109200 kJ/mol
# GULP energy per Si atom -12398.905460 kJ/mol
# Density = 1.901256 g / cm^3
# Si number density = 19.055932 Si / 1000 Ang^3
#
#
#
# Elastic Constant Matrix: (Units=GPa)
#
#
# Indices 1 2 3 4 5 6 
#
# 1 139.7532 35.5523 29.1745 0.0000 0.0000 0.0000
# 2 35.5523 48.4593 26.6961 0.0000 0.0000 0.0000
# 3 29.1745 26.6961 84.9920 0.0000 0.0000 0.0000
# 4 0.0000 0.0000 0.0000 17.6495 0.0000 0.0000
# 5 0.0000 0.0000 0.0000 0.0000 35.3254 0.0000
# 6 0.0000 0.0000 0.0000 0.0000 0.0000 12.4605
#
#
#
# Elastic Compliance Matrix: (Units=1/GPa)
#
#
# Indices 1 2 3 4 5 6 
#
# 1 0.008900 -0.005860 -0.001214 0.000000 0.000000 0.000000
# 2 -0.005860 0.028813 -0.007039 0.000000 0.000000 0.000000
# 3 -0.001214 -0.007039 0.014393 0.000000 0.000000 0.000000
# 4 0.000000 0.000000 0.000000 0.056659 0.000000 0.000000
# 5 0.000000 0.000000 0.000000 0.000000 0.028308 0.000000
# 6 0.000000 0.000000 0.000000 0.000000 0.000000 0.080253
#
#
# Mechanical properties :
#
#
# Convention : Reuss Voigt Hill
#
# Bulk Modulus (GPa) = 41.87636 50.67224 46.27430
# Shear Modulus (GPa) = 19.72287 25.20587 22.46437
#
# Velocity S-wave (km/s) = 3.22063 3.64088 3.43719
# Velocity P-wave (km/s) = 5.98775 6.65761 6.33154
#
# Compressibility (1/GPa) = 0.02387982
#
# Stress axis : x y z
#
# Youngs Moduli (GPa) = 112.36200 34.70659 69.47626
#
# Poissons Ratio (x) = 0.20340 0.08436
# Poissons Ratio (y) = 0.65850 0.48901
# Poissons Ratio (z) = 0.13643 0.24428
#
# Static dielectric constant tensor:
#      x y z
#    x 3.775250 0.000000 0.000000 
#    y 0.000000 3.065580 0.000000 
#    z 0.000000 0.000000 3.470600 
# 
# 
# High freq. dielectric constant tensor:
#      x y z
#    x 1.759990 0.000000 0.000000 
#    y 0.000000 1.692310 0.000000 
#    z 0.000000 0.000000 1.743440 
# 
# From -- ./inp_files/18947.got.cif
#   From: 2010.03.12/outbox.cif.g09.slc.cpg/sg42_10_cif.got.tgz:18947.got - 2010.04.14 02:04:31.
