data_PCOD8186135
_publ_section_title
;
Structure prediction by ZEFSAII (Michael W. Deem and Ramdas Pophale) SiO2 
 PCOD8186135
Probable space group: F M M 2
;
_chemical_formula_sum "Si O2"
_cell_formula_units_Z 96
_cell_length_a 10.627727
_cell_length_b 17.847971
_cell_length_c 24.796168
_cell_angle_alpha 90.000000
_cell_angle_beta 90.000000
_cell_angle_gamma 90.000000
_cell_volume 4703.420543
_symmetry_space_group_name_H-M "F M M 2"
_symmetry_group_IT_number 42
_symmetry_cell_setting 'orthorhombic'
loop_
_space_group_symop_operation_xyz
x,y,z
-x,-y,z
-x,y,z
x,-y,z
x,1/2+y,1/2+z
-x,1/2-y,1/2+z
-x,1/2+y,1/2+z
x,1/2-y,1/2+z
1/2+x,y,1/2+z
1/2-x,-y,1/2+z
1/2-x,y,1/2+z
1/2+x,-y,1/2+z
1/2+x,1/2+y,z
1/2-x,1/2-y,z
1/2-x,1/2+y,z
1/2+x,1/2-y,z
loop_
_atom_site_type_symbol
_atom_site_label
_atom_site_fract_x
_atom_site_fract_y
_atom_site_fract_z
Si Si1 0.643388 0.910622 0.917100
Si Si2 0.249438 0.162328 0.234856
Si Si3 0.000000 0.589172 0.581326
Si Si4 0.746321 0.912841 0.029057
Si Si5 0.358572 0.582169 0.639528
Si Si6 0.141618 0.912100 0.835182
Si Si7 0.500000 0.910894 0.706954
O O1 0.500000 0.882034 0.904740
O O2 0.746683 0.881373 0.873947
O O3 0.641897 0.000000 0.918811
O O4 0.691032 0.876767 0.974433
O O5 0.250000 0.250000 0.245047
O O6 0.292307 0.145958 0.173885
O O7 0.345134 0.125999 0.277165
O O8 0.114076 0.124446 0.240670
O O9 0.120802 0.621651 0.549361
O O10 0.000000 0.500000 0.580955
O O11 0.000000 0.615005 0.644091
O O12 0.646229 0.897594 0.076449
O O13 0.766711 0.000000 0.017544
O O14 0.500000 0.576239 0.658838
O O15 0.292020 0.500000 0.648602
O O16 0.000000 0.894172 0.857609
O O17 0.157828 0.000000 0.827411
O O18 0.500000 0.000000 0.713392
#
# Coordination Sequence:
#
# PCOD8186135 Si02
#       7
#    16  16   8  16  16  16   8
#     4   9  18  32  53  85 119 149 192 250 304 355
#     4  12  26  39  59  85 121 156 202 254 311 364
#     4   9  16  28  50  83 118 151 195 239 292 353
#     4   9  16  28  50  83 119 151 188 243 297 351
#     4  10  19  34  58  84 115 155 194 237 296 363
#     4  10  22  40  61  84 114 154 200 248 302 365
#     4  11  22  40  64  91 121 165 213 255 305 371
#
# _framework density 20.410677
#
# number of rings (size 3 to 8) (size 9 to 14) (size 15 to 20)
#    0.000    2.000    1.667    2.500    4.667    3.333 
#    0.000    0.000    0.000    1.000    0.000    2.333 
#    0.000    0.000    0.000    0.000    0.000    0.000 
#
# Total GULP energy -297450.184751 kJ/mol
# GULP energy per Si atom -12393.757698 kJ/mol
# Density = 2.036422 g / cm^3
# Si number density = 20.410677 Si / 1000 Ang^3
#
#
#
# Elastic Constant Matrix: (Units=GPa)
#
#
# Indices 1 2 3 4 5 6 
#
# 1 147.4771 38.3135 45.8081 0.0000 0.0000 0.0000
# 2 38.3135 45.3201 26.9475 0.0000 0.0000 0.0000
# 3 45.8081 26.9475 99.5624 0.0000 0.0000 0.0000
# 4 0.0000 0.0000 0.0000 4.3985 0.0000 0.0000
# 5 0.0000 0.0000 0.0000 0.0000 44.5477 0.0000
# 6 0.0000 0.0000 0.0000 0.0000 0.0000 12.6753
#
#
#
# Elastic Compliance Matrix: (Units=1/GPa)
#
#
# Indices 1 2 3 4 5 6 
#
# 1 0.009196 -0.006267 -0.002535 0.000000 0.000000 0.000000
# 2 -0.006267 0.030569 -0.005390 0.000000 0.000000 0.000000
# 3 -0.002535 -0.005390 0.012669 0.000000 0.000000 0.000000
# 4 0.000000 0.000000 0.000000 0.227349 0.000000 0.000000
# 5 0.000000 0.000000 0.000000 0.000000 0.022448 0.000000
# 6 0.000000 0.000000 0.000000 0.000000 0.000000 0.078894
#
#
# Mechanical properties :
#
#
# Convention : Reuss Voigt Hill
#
# Bulk Modulus (GPa) = 41.58100 57.16645 49.37372
# Shear Modulus (GPa) = 11.97531 24.41031 18.19281
#
# Velocity S-wave (km/s) = 2.42485 3.46201 2.98877
# Velocity P-wave (km/s) = 5.31566 6.63699 6.01273
#
# Compressibility (1/GPa) = 0.02404945
#
# Stress axis : x y z
#
# Youngs Moduli (GPa) = 108.73984 32.71327 78.93207
#
# Poissons Ratio (x) = 0.20502 0.20008
# Poissons Ratio (y) = 0.68150 0.42546
# Poissons Ratio (z) = 0.27564 0.17633
#
# Static dielectric constant tensor:
#      x y z
#    x 4.064150 0.000000 0.000000 
#    y 0.000000 3.039150 0.000000 
#    z 0.000000 0.000000 3.754310 
# 
# 
# High freq. dielectric constant tensor:
#      x y z
#    x 1.818810 0.000000 0.000000 
#    y 0.000000 1.726470 0.000000 
#    z 0.000000 0.000000 1.799000 
# 
# From -- ./inp_files/28844.got.cif
#   From: 2010.03.12/outbox.cif.g09.slc.cpg/sg42_15_cif.got.tgz:28844.got - 2010.04.14 02:04:31.
