data_PCOD8186395
_publ_section_title
;
Structure prediction by ZEFSAII (Michael W. Deem and Ramdas Pophale) SiO2 
 PCOD8186395
Probable space group: F M M 2
;
_chemical_formula_sum "Si O2"
_cell_formula_units_Z 80
_cell_length_a 28.467465
_cell_length_b 8.529721
_cell_length_c 15.474748
_cell_angle_alpha 90.000000
_cell_angle_beta 90.000000
_cell_angle_gamma 90.000000
_cell_volume 3757.571099
_symmetry_space_group_name_H-M "F M M 2"
_symmetry_group_IT_number 42
_symmetry_cell_setting 'orthorhombic'
loop_
_space_group_symop_operation_xyz
x,y,z
-x,-y,z
-x,y,z
x,-y,z
x,1/2+y,1/2+z
-x,1/2-y,1/2+z
-x,1/2+y,1/2+z
x,1/2-y,1/2+z
1/2+x,y,1/2+z
1/2-x,-y,1/2+z
1/2-x,y,1/2+z
1/2+x,-y,1/2+z
1/2+x,1/2+y,z
1/2-x,1/2-y,z
1/2-x,1/2+y,z
1/2+x,1/2-y,z
loop_
_atom_site_type_symbol
_atom_site_label
_atom_site_fract_x
_atom_site_fract_y
_atom_site_fract_z
Si Si1 0.552188 0.320878 0.596340
Si Si2 0.198882 0.816768 0.017826
Si Si3 0.144637 0.679950 0.860191
Si Si4 0.353011 0.818302 0.182111
Si Si5 0.052755 0.181076 0.913732
O O1 0.500000 0.295958 0.636660
O O2 0.558265 0.500000 0.563625
O O3 0.591656 0.282058 0.667191
O O4 0.560036 0.206853 0.515722
O O5 0.250000 0.750000 0.999125
O O6 0.177069 0.730153 0.099753
O O7 0.200960 0.000000 0.037290
O O8 0.168037 0.787335 0.932918
O O9 0.155570 0.500000 0.881048
O O10 0.164529 0.722343 0.765578
O O11 0.088844 0.713423 0.859758
O O12 0.344450 0.000000 0.200813
O O13 0.000000 0.230001 0.886730
O O14 0.062323 0.000000 0.892357
#
# Coordination Sequence:
#
# PCOD8186395 Si02
#       5
#    16  16  16  16  16
#     4   9  18  34  59  90 127 170 213 258 311 373
#     4  12  26  47  72  97 127 164 209 265 326 388
#     4  12  25  42  65  96 132 173 217 264 318 380
#     4  11  23  41  66  98 133 171 214 262 317 380
#     4  10  20  35  59  91 128 171 218 265 315 374
#
# _framework density 21.290348000000002
#
# number of rings (size 3 to 8) (size 9 to 14) (size 15 to 20)
#    0.000    1.200    2.000    4.800    0.000    3.600 
#    0.000    6.000    0.000    0.000    0.000    0.000 
#    0.000    0.000    0.000    0.000    0.000    0.000 
#
# Total GULP energy -248081.101578 kJ/mol
# GULP energy per Si atom -12404.055079 kJ/mol
# Density = 2.124189 g / cm^3
# Si number density = 21.290348 Si / 1000 Ang^3
#
#
#
# Elastic Constant Matrix: (Units=GPa)
#
#
# Indices 1 2 3 4 5 6 
#
# 1 91.9922 21.6570 28.6177 0.0000 0.0000 0.0000
# 2 21.6570 71.5959 6.1967 0.0000 -0.0001 0.0000
# 3 28.6177 6.1967 102.1077 0.0000 0.0000 0.0000
# 4 0.0000 0.0000 0.0000 35.9244 0.0000 0.0000
# 5 0.0000 -0.0001 0.0000 0.0000 255.9261 0.0000
# 6 0.0000 0.0000 0.0000 0.0000 0.0000 33.0039
#
#
#
# Elastic Compliance Matrix: (Units=1/GPa)
#
#
# Indices 1 2 3 4 5 6 
#
# 1 0.012755 -0.003568 -0.003358 0.000000 0.000000 0.000000
# 2 -0.003568 0.015039 0.000087 0.000000 0.000000 0.000000
# 3 -0.003358 0.000087 0.010730 0.000000 0.000000 0.000000
# 4 0.000000 0.000000 0.000000 0.027836 0.000000 0.000000
# 5 0.000000 0.000000 0.000000 0.000000 0.003907 0.000000
# 6 0.000000 0.000000 0.000000 0.000000 0.000000 0.030299
#
#
# Mechanical properties :
#
#
# Convention : Reuss Voigt Hill
#
# Bulk Modulus (GPa) = 40.24789 42.07096 41.15943
# Shear Modulus (GPa) = 40.80759 78.91917 59.86338
#
# Velocity S-wave (km/s) = 4.38278 6.09496 5.30836
# Velocity P-wave (km/s) = 6.67511 8.32675 7.54625
#
# Compressibility (1/GPa) = 0.02484603
#
# Stress axis : x y z
#
# Youngs Moduli (GPa) = 78.39982 66.49420 93.20066
#
# Poissons Ratio (x) = 0.23723 0.31300
# Poissons Ratio (y) = 0.27970 -0.00813
# Poissons Ratio (z) = 0.26330 -0.00580
#
# Static dielectric constant tensor:
#      x y z
#    x 3.972980 0.000000 0.000000 
#    y 0.000000 3.830730 0.000000 
#    z 0.000000 0.000000 3.620570 
# 
# 
# High freq. dielectric constant tensor:
#      x y z
#    x 1.838860 0.000000 0.000000 
#    y 0.000000 1.837730 0.000000 
#    z 0.000000 0.000000 1.825890 
# 
# From -- ./inp_files/22429.got.cif
#   From: 2010.03.12/outbox.cif.g09.slc.cpg/sg42_12_cif.got.tgz:22429.got - 2010.04.14 02:04:31.
