data_PCOD8186706
_publ_section_title
;
Structure prediction by ZEFSAII (Michael W. Deem and Ramdas Pophale) SiO2 
 PCOD8186706
Probable space group: F M M 2
;
_chemical_formula_sum "Si O2"
_cell_formula_units_Z 96
_cell_length_a 25.493653
_cell_length_b 17.664713
_cell_length_c 11.678242
_cell_angle_alpha 90.000000
_cell_angle_beta 90.000000
_cell_angle_gamma 90.000000
_cell_volume 5259.156888
_symmetry_space_group_name_H-M "F M M 2"
_symmetry_group_IT_number 42
_symmetry_cell_setting 'orthorhombic'
loop_
_space_group_symop_operation_xyz
x,y,z
-x,-y,z
-x,y,z
x,-y,z
x,1/2+y,1/2+z
-x,1/2-y,1/2+z
-x,1/2+y,1/2+z
x,1/2-y,1/2+z
1/2+x,y,1/2+z
1/2-x,-y,1/2+z
1/2-x,y,1/2+z
1/2+x,-y,1/2+z
1/2+x,1/2+y,z
1/2-x,1/2-y,z
1/2-x,1/2+y,z
1/2+x,1/2-y,z
loop_
_atom_site_type_symbol
_atom_site_label
_atom_site_fract_x
_atom_site_fract_y
_atom_site_fract_z
Si Si1 0.846626 0.164822 0.573430
Si Si2 0.059545 0.086785 0.459268
Si Si3 0.559335 0.412331 0.195231
Si Si4 0.646872 0.341723 0.042371
Si Si5 0.334612 0.413009 0.815126
Si Si6 0.248090 0.584499 0.491427
O O1 0.904006 0.138523 0.536634
O O2 0.843621 0.253512 0.556508
O O3 0.836605 0.137222 0.702127
O O4 0.801665 0.131109 0.491993
O O5 0.066107 0.109308 0.327403
O O6 0.000000 0.100488 0.499453
O O7 0.075711 0.000000 0.477828
O O8 0.500000 0.393719 0.155561
O O9 0.571789 0.500000 0.174589
O O10 0.599972 0.362906 0.125521
O O11 0.631034 0.369603 0.913323
O O12 0.702641 0.381160 0.074856
O O13 0.354680 0.500000 0.796078
O O14 0.274340 0.415262 0.861065
O O15 0.260550 0.500000 0.534826
#
# Coordination Sequence:
#
# PCOD8186706 Si02
#       6
#    16  16  16  16  16  16
#     4  12  22  36  62  87 118 155 192 246 304 345
#     4   9  20  37  58  86 117 152 198 243 287 352
#     4   9  18  36  62  86 114 155 199 240 288 355
#     4  10  22  37  57  87 119 149 189 252 294 342
#     4   9  21  40  58  81 120 156 193 238 285 352
#     4   9  20  39  57  81 115 155 193 233 287 357
#
# _framework density 18.253876000000002
#
# number of rings (size 3 to 8) (size 9 to 14) (size 15 to 20)
#    1.000    1.333    0.000    4.000    2.333    2.000 
#    3.000    2.500    0.000    3.000    0.000    0.000 
#    0.000    0.000    0.000    0.000    0.000    0.000 
#
# Total GULP energy -297423.534482 kJ/mol
# GULP energy per Si atom -12392.647270 kJ/mol
# Density = 1.821233 g / cm^3
# Si number density = 18.253876 Si / 1000 Ang^3
#
#
#
# Elastic Constant Matrix: (Units=GPa)
#
#
# Indices 1 2 3 4 5 6 
#
# 1 96.7461 49.7007 29.8560 0.0000 0.0000 0.0000
# 2 49.7007 141.6135 49.2247 0.0000 0.0000 0.0000
# 3 29.8560 49.2247 68.4336 0.0000 0.0000 0.0000
# 4 0.0000 0.0000 0.0000 -71.5999 0.0000 0.0000
# 5 0.0000 0.0000 0.0000 0.0000 31.7575 0.0000
# 6 0.0000 0.0000 0.0000 0.0000 0.0000 22.7765
#
#
#
# Elastic Compliance Matrix: (Units=1/GPa)
#
#
# Indices 1 2 3 4 5 6 
#
# 1 0.013120 -0.003487 -0.003216 0.000000 0.000000 0.000000
# 2 -0.003487 0.010342 -0.005918 0.000000 0.000000 0.000000
# 3 -0.003216 -0.005918 0.020273 0.000000 0.000000 0.000000
# 4 0.000000 0.000000 0.000000 -0.013966 0.000000 0.000000
# 5 0.000000 0.000000 0.000000 0.000000 0.031489 0.000000
# 6 0.000000 0.000000 0.000000 0.000000 0.000000 0.043905
#
#
# Mechanical properties :
#
#
# Convention : Reuss Voigt Hill
#
# Bulk Modulus (GPa) = 54.07322 62.70624 58.38973
# Shear Modulus (GPa) = 36.61181 8.45427 22.53304
#
# Velocity S-wave (km/s) = 4.48336 2.15442 3.51725
# Velocity P-wave (km/s) = 7.51584 6.37304 6.96791
#
# Compressibility (1/GPa) = 0.01849344
#
# Stress axis : x y z
#
# Youngs Moduli (GPa) = 76.21953 96.69018 49.32754
#
# Poissons Ratio (x) = 0.33713 0.15863
# Poissons Ratio (y) = 0.26576 0.29193
# Poissons Ratio (z) = 0.24512 0.57222
#
# Static dielectric constant tensor:
#      x y z
#    x 3.274860 0.000000 0.000000 
#    y 0.000000 3.502250 0.000000 
#    z 0.000000 0.000000 3.158240 
# 
# 
# High freq. dielectric constant tensor:
#      x y z
#    x 1.701750 0.000000 0.000000 
#    y 0.000000 1.712140 0.000000 
#    z 0.000000 0.000000 1.692100 
# 
# From -- ./inp_files/10648.got.cif
#   From: 2010.03.12/outbox.cif.g09.slc.cpg/sg42_6_cif.got.tgz:10648.got - 2010.04.14 02:04:31.
