data_PCOD8186945
_publ_section_title
;
Structure prediction by ZEFSAII (Michael W. Deem and Ramdas Pophale) SiO2 
 PCOD8186945
Probable space group: F D D 2
;
_chemical_formula_sum "Si O2"
_cell_formula_units_Z 88
_cell_length_a 17.363898
_cell_length_b 27.776213
_cell_length_c 9.529613
_cell_angle_alpha 90.000000
_cell_angle_beta 90.000000
_cell_angle_gamma 90.000000
_cell_volume 4596.164077
_symmetry_space_group_name_H-M "F D D 2"
_symmetry_group_IT_number 43
_symmetry_cell_setting 'orthorhombic'
loop_
_space_group_symop_operation_xyz
x,y,z
-x,-y,z
1/4-x,1/4+y,1/4+z
1/4+x,1/4-y,1/4+z
x,1/2+y,1/2+z
-x,1/2-y,1/2+z
1/4-x,3/4+y,3/4+z
1/4+x,3/4-y,3/4+z
1/2+x,y,1/2+z
1/2-x,-y,1/2+z
3/4-x,1/4+y,3/4+z
3/4+x,1/4-y,3/4+z
1/2+x,1/2+y,z
1/2-x,1/2-y,z
3/4-x,3/4+y,1/4+z
3/4+x,3/4-y,1/4+z
loop_
_atom_site_type_symbol
_atom_site_label
_atom_site_fract_x
_atom_site_fract_y
_atom_site_fract_z
Si Si1 0.938962 0.844117 0.614710
Si Si2 0.500000 0.000000 0.797017
Si Si3 0.741808 0.087169 0.661712
Si Si4 0.093727 0.737623 0.909600
Si Si5 0.843674 0.095768 0.937807
Si Si6 0.268935 0.351538 0.640831
O O1 0.942637 0.791954 0.540061
O O2 0.854008 0.866666 0.589586
O O3 0.954069 0.844415 0.778466
O O4 0.002453 0.878163 0.544504
O O5 0.428187 0.993177 0.694330
O O6 0.487255 0.044228 0.901771
O O7 0.800127 0.088040 0.791764
O O8 0.677385 0.129219 0.670714
O O9 0.707305 0.034479 0.637675
O O10 0.099569 0.705246 0.768703
O O11 0.792470 0.131306 0.028713
#
# Coordination Sequence:
#
# PCOD8186945 Si02
#       6
#    16   8  16  16  16  16
#     4  10  22  38  59  87 120 156 199 248 307 361
#     4  10  18  36  64  88 114 156 206 260 292 372
#     4  12  22  40  62  89 128 154 201 265 301 363
#     4  10  22  38  63  90 119 160 212 243 311 368
#     4  11  23  38  66  90 118 168 204 249 314 362
#     4  10  20  39  59  85 114 157 200 241 304 368
#
# _framework density 19.146401000000001
#
# number of rings (size 3 to 8) (size 9 to 14) (size 15 to 20)
#    0.000    1.455    1.818    5.455    0.000    0.000 
#    3.273    0.000    4.000    1.091    0.000    0.000 
#    0.000    0.000    0.000    0.000    0.000    0.000 
#
# Total GULP energy -272752.203971 kJ/mol
# GULP energy per Si atom -12397.827453 kJ/mol
# Density = 1.910282 g / cm^3
# Si number density = 19.146401 Si / 1000 Ang^3
#
#
#
# Elastic Constant Matrix: (Units=GPa)
#
#
# Indices 1 2 3 4 5 6 
#
# 1 73.1120 27.4502 18.0935 0.0000 0.0000 0.0000
# 2 27.4502 78.8749 26.9639 0.0000 0.0000 0.0000
# 3 18.0935 26.9639 108.8919 0.0000 0.0001 0.0000
# 4 0.0000 0.0000 0.0000 19.2553 0.0000 0.0000
# 5 0.0000 0.0000 0.0001 0.0000 17.5732 0.0000
# 6 0.0000 0.0000 0.0000 0.0000 0.0000 25.5624
#
#
#
# Elastic Compliance Matrix: (Units=1/GPa)
#
#
# Indices 1 2 3 4 5 6 
#
# 1 0.015924 -0.005066 -0.001391 0.000000 0.000000 0.000000
# 2 -0.005066 0.015463 -0.002987 0.000000 0.000000 0.000000
# 3 -0.001391 -0.002987 0.010154 0.000000 0.000000 0.000000
# 4 0.000000 0.000000 0.000000 0.051934 0.000000 0.000000
# 5 0.000000 0.000000 0.000000 0.000000 0.056905 0.000000
# 6 0.000000 0.000000 0.000000 0.000000 0.000000 0.039120
#
#
# Mechanical properties :
#
#
# Convention : Reuss Voigt Hill
#
# Bulk Modulus (GPa) = 44.14719 45.09933 44.62326
# Shear Modulus (GPa) = 23.15465 25.03628 24.09547
#
# Velocity S-wave (km/s) = 3.48134 3.62003 3.55136
# Velocity P-wave (km/s) = 6.26637 6.40929 6.33823
#
# Compressibility (1/GPa) = 0.02265150
#
# Stress axis : x y z
#
# Youngs Moduli (GPa) = 62.79776 64.67209 98.48063
#
# Poissons Ratio (x) = 0.32765 0.13703
# Poissons Ratio (y) = 0.31815 0.29417
# Poissons Ratio (z) = 0.08738 0.19318
#
# Static dielectric constant tensor:
#      x y z
#    x 3.646890 0.000000 0.000000 
#    y 0.000000 3.586830 0.000000 
#    z 0.000000 0.000000 3.546580 
# 
# 
# High freq. dielectric constant tensor:
#      x y z
#    x 1.757930 0.000000 0.000000 
#    y 0.000000 1.745710 0.000000 
#    z 0.000000 0.000000 1.742940 
# 
# From -- ./inp_files/2896.got.cif
#   From: 2010.06.25/outbox.cif.g09.slc.cpg/sg43_2_cif.got.tgz:2896.got - 2010.06.26 16:48:59.
