data_PCOD8186004
_publ_section_title
;
Structure prediction by ZEFSAII (Michael W. Deem and Ramdas Pophale) SiO2 
 PCOD8186004
Probable space group: F M M 2
;
_chemical_formula_sum "Si O2"
_cell_formula_units_Z 80
_cell_length_a 27.385308
_cell_length_b 8.941817
_cell_length_c 20.688906
_cell_angle_alpha 90.000000
_cell_angle_beta 90.000000
_cell_angle_gamma 90.000000
_cell_volume 5066.183705
_symmetry_space_group_name_H-M "F M M 2"
_symmetry_group_IT_number 42
_symmetry_cell_setting 'orthorhombic'
loop_
_space_group_symop_operation_xyz
x,y,z
-x,-y,z
-x,y,z
x,-y,z
x,1/2+y,1/2+z
-x,1/2-y,1/2+z
-x,1/2+y,1/2+z
x,1/2-y,1/2+z
1/2+x,y,1/2+z
1/2-x,-y,1/2+z
1/2-x,y,1/2+z
1/2+x,-y,1/2+z
1/2+x,1/2+y,z
1/2-x,1/2-y,z
1/2-x,1/2+y,z
1/2+x,1/2-y,z
loop_
_atom_site_type_symbol
_atom_site_label
_atom_site_fract_x
_atom_site_fract_y
_atom_site_fract_z
Si Si1 0.443368 0.672757 0.936580
Si Si2 0.885236 0.323413 0.682012
Si Si3 0.199933 0.830987 0.739889
Si Si4 0.056967 0.673434 0.068307
Si Si5 0.894175 0.330844 0.307220
O O1 0.500000 0.694413 0.919966
O O2 0.431199 0.500000 0.951734
O O3 0.412631 0.733648 0.875342
O O4 0.427488 0.772402 0.997234
O O5 0.881727 0.500000 0.681670
O O6 0.830203 0.253713 0.682803
O O7 0.913146 0.269275 0.619149
O O8 0.914173 0.267513 0.746687
O O9 0.250000 0.750000 0.756732
O O10 0.165361 0.828695 0.804132
O O11 0.210771 0.000000 0.717423
O O12 0.070033 0.500000 0.075942
O O13 0.000000 0.704685 0.079739
O O14 0.914124 0.500000 0.298589
#
# Coordination Sequence:
#
# PCOD8186004 Si02
#       5
#    16  16  16  16  16
#     4   9  17  31  50  70  95 129 164 196 237 288
#     4  10  19  31  49  73  97 126 163 203 241 283
#     4   9  17  31  50  73  98 125 158 197 246 292
#     4  10  20  33  48  68  98 133 165 200 242 286
#     4   8  17  31  47  71  99 126 157 199 242 286
#
# _framework density 15.790979
#
# number of rings (size 3 to 8) (size 9 to 14) (size 15 to 20)
#    1.200    1.600    0.000    2.400    0.000    2.800 
#    0.000    2.000    0.000    1.200    0.000    5.600 
#    0.000    0.000    0.000    0.000    0.000    0.000 
#
# Total GULP energy -247824.416087 kJ/mol
# GULP energy per Si atom -12391.220804 kJ/mol
# Density = 1.575504 g / cm^3
# Si number density = 15.790979 Si / 1000 Ang^3
#
#
#
# Elastic Constant Matrix: (Units=GPa)
#
#
# Indices 1 2 3 4 5 6 
#
# 1 63.3718 41.5508 51.7983 0.0000 0.0000 0.0000
# 2 41.5508 114.0214 53.9235 0.0000 0.0000 0.0000
# 3 51.7983 53.9235 104.5795 0.0000 0.0000 0.0000
# 4 0.0000 0.0000 0.0000 28.1334 0.0000 0.0000
# 5 0.0000 0.0000 0.0000 0.0000 1.7154 0.0000
# 6 0.0000 0.0000 0.0000 0.0000 0.0000 26.2625
#
#
#
# Elastic Compliance Matrix: (Units=1/GPa)
#
#
# Indices 1 2 3 4 5 6 
#
# 1 0.028441 -0.004896 -0.011562 0.000000 0.000000 0.000000
# 2 -0.004896 0.012441 -0.003990 0.000000 0.000000 0.000000
# 3 -0.011562 -0.003990 0.017346 0.000000 0.000000 0.000000
# 4 0.000000 0.000000 0.000000 0.035545 0.000000 0.000000
# 5 0.000000 0.000000 0.000000 0.000000 0.582963 0.000000
# 6 0.000000 0.000000 0.000000 0.000000 0.000000 0.038077
#
#
# Mechanical properties :
#
#
# Convention : Reuss Voigt Hill
#
# Bulk Modulus (GPa) = 57.69764 64.05756 60.87760
# Shear Modulus (GPa) = 6.56610 20.20227 13.38418
#
# Velocity S-wave (km/s) = 2.04136 3.58069 2.91449
# Velocity P-wave (km/s) = 6.49414 7.59928 7.06834
#
# Compressibility (1/GPa) = 0.01733173
#
# Stress axis : x y z
#
# Youngs Moduli (GPa) = 35.16093 80.37624 57.64942
#
# Poissons Ratio (x) = 0.39353 0.66655
# Poissons Ratio (y) = 0.17215 0.23003
# Poissons Ratio (z) = 0.40654 0.32071
#
# Static dielectric constant tensor:
#      x y z
#    x 2.816810 0.000000 0.000000 
#    y 0.000000 3.040660 0.000000 
#    z 0.000000 0.000000 2.900620 
# 
# 
# High freq. dielectric constant tensor:
#      x y z
#    x 1.583960 0.000000 0.000000 
#    y 0.000000 1.616900 0.000000 
#    z 0.000000 0.000000 1.591390 
# 
# From -- ./inp_files/18308.got.cif
#   From: 2010.03.12/outbox.cif.g09.slc.cpg/sg42_10_cif.got.tgz:18308.got - 2010.04.14 02:04:31.
