data_PCOD8186217
_publ_section_title
;
Structure prediction by ZEFSAII (Michael W. Deem and Ramdas Pophale) SiO2 
 PCOD8186217
Probable space group: F M M 2
;
_chemical_formula_sum "Si O2"
_cell_formula_units_Z 112
_cell_length_a 21.600581
_cell_length_b 23.071292
_cell_length_c 11.913847
_cell_angle_alpha 90.000000
_cell_angle_beta 90.000000
_cell_angle_gamma 90.000000
_cell_volume 5937.305107
_symmetry_space_group_name_H-M "F M M 2"
_symmetry_group_IT_number 42
_symmetry_cell_setting 'orthorhombic'
loop_
_space_group_symop_operation_xyz
x,y,z
-x,-y,z
-x,y,z
x,-y,z
x,1/2+y,1/2+z
-x,1/2-y,1/2+z
-x,1/2+y,1/2+z
x,1/2-y,1/2+z
1/2+x,y,1/2+z
1/2-x,-y,1/2+z
1/2-x,y,1/2+z
1/2+x,-y,1/2+z
1/2+x,1/2+y,z
1/2-x,1/2-y,z
1/2-x,1/2+y,z
1/2+x,1/2-y,z
loop_
_atom_site_type_symbol
_atom_site_label
_atom_site_fract_x
_atom_site_fract_y
_atom_site_fract_z
Si Si1 0.070439 0.563889 0.760380
Si Si2 0.623871 0.324721 0.346184
Si Si3 0.833682 0.159452 0.915081
Si Si4 0.258315 0.662199 0.215200
Si Si5 0.836478 0.228020 0.566025
Si Si6 0.177691 0.934282 0.088750
Si Si7 0.570181 0.215567 0.260826
O O1 0.075858 0.500000 0.816384
O O2 0.095060 0.611184 0.848355
O O3 0.111714 0.566896 0.649803
O O4 0.000000 0.577406 0.725141
O O5 0.673265 0.312684 0.244609
O O6 0.656705 0.317188 0.464884
O O7 0.570728 0.277199 0.325500
O O8 0.774875 0.158209 0.834361
O O9 0.894726 0.169311 0.839963
O O10 0.826130 0.207446 0.014306
O O11 0.835716 0.096345 0.970395
O O12 0.223455 0.707340 0.135296
O O13 0.268179 0.599128 0.158115
O O14 0.898654 0.222526 0.639295
O O15 0.200772 0.000000 0.069336
O O16 0.500000 0.194647 0.244072
#
# Coordination Sequence:
#
# PCOD8186217 Si02
#       7
#    16  16  16  16  16  16  16
#     4   9  18  33  52  75 103 135 176 223 265 312
#     4  10  20  32  52  77 104 138 174 215 263 316
#     4  10  22  36  56  79 107 145 181 219 269 330
#     4  10  21  36  52  78 111 139 175 222 267 319
#     4  10  21  35  54  80 108 143 177 212 265 324
#     4  10  21  36  55  79 105 138 180 225 273 322
#     4  10  22  36  51  78 111 138 173 223 270 315
#
# _framework density 18.863778
#
# number of rings (size 3 to 8) (size 9 to 14) (size 15 to 20)
#    0.000    2.143    0.000    3.000    0.000   16.571 
#    0.000    3.571    0.000    0.857    0.000    0.000 
#    0.000    0.000    0.000    0.000    0.000    0.000 
#
# Total GULP energy -347120.220199 kJ/mol
# GULP energy per Si atom -12397.150721 kJ/mol
# Density = 1.882084 g / cm^3
# Si number density = 18.863778 Si / 1000 Ang^3
#
#
#
# Elastic Constant Matrix: (Units=GPa)
#
#
# Indices 1 2 3 4 5 6 
#
# 1 109.5592 43.4324 33.9725 0.0000 0.0000 0.0000
# 2 43.4324 108.7270 50.3936 0.0000 0.0000 0.0000
# 3 33.9725 50.3936 101.3365 0.0000 0.0000 0.0000
# 4 0.0000 0.0000 0.0000 31.7840 0.0000 0.0000
# 5 0.0000 0.0000 0.0000 0.0000 18.1092 0.0000
# 6 0.0000 0.0000 0.0000 0.0000 0.0000 23.1515
#
#
#
# Elastic Compliance Matrix: (Units=1/GPa)
#
#
# Indices 1 2 3 4 5 6 
#
# 1 0.011142 -0.003534 -0.001978 0.000000 0.000000 0.000000
# 2 -0.003534 0.013073 -0.005316 0.000000 0.000000 0.000000
# 3 -0.001978 -0.005316 0.013175 0.000000 0.000000 0.000000
# 4 0.000000 0.000000 0.000000 0.031462 0.000000 0.000000
# 5 0.000000 0.000000 0.000000 0.000000 0.055221 0.000000
# 6 0.000000 0.000000 0.000000 0.000000 0.000000 0.043194
#
#
# Mechanical properties :
#
#
# Convention : Reuss Voigt Hill
#
# Bulk Modulus (GPa) = 63.55885 63.91331 63.73608
# Shear Modulus (GPa) = 25.75099 27.39723 26.57411
#
# Velocity S-wave (km/s) = 3.69874 3.81513 3.75739
# Velocity P-wave (km/s) = 7.21163 7.30493 7.25843
#
# Compressibility (1/GPa) = 0.01573345
#
# Stress axis : x y z
#
# Youngs Moduli (GPa) = 89.75246 76.49279 75.90183
#
# Poissons Ratio (x) = 0.27033 0.15012
# Poissons Ratio (y) = 0.31719 0.40352
# Poissons Ratio (z) = 0.17751 0.40666
#
# Static dielectric constant tensor:
#      x y z
#    x 3.421010 0.000000 0.000000 
#    y 0.000000 3.534260 0.000000 
#    z 0.000000 0.000000 3.520440 
# 
# 
# High freq. dielectric constant tensor:
#      x y z
#    x 1.731620 0.000000 0.000000 
#    y 0.000000 1.723060 0.000000 
#    z 0.000000 0.000000 1.734340 
# 
# From -- ./inp_files/9655.got.cif
#   From: 2010.03.12/outbox.cif.g09.slc.cpg/sg42_5_cif.got.tgz:9655.got - 2010.04.14 02:04:31.
