data_PCOD8186251
_publ_section_title
;
Structure prediction by ZEFSAII (Michael W. Deem and Ramdas Pophale) SiO2 
 PCOD8186251
Probable space group: F M M 2
;
_chemical_formula_sum "Si O2"
_cell_formula_units_Z 112
_cell_length_a 23.462087
_cell_length_b 17.426023
_cell_length_c 13.503395
_cell_angle_alpha 90.000000
_cell_angle_beta 90.000000
_cell_angle_gamma 90.000000
_cell_volume 5520.874763
_symmetry_space_group_name_H-M "F M M 2"
_symmetry_group_IT_number 42
_symmetry_cell_setting 'orthorhombic'
loop_
_space_group_symop_operation_xyz
x,y,z
-x,-y,z
-x,y,z
x,-y,z
x,1/2+y,1/2+z
-x,1/2-y,1/2+z
-x,1/2+y,1/2+z
x,1/2-y,1/2+z
1/2+x,y,1/2+z
1/2-x,-y,1/2+z
1/2-x,y,1/2+z
1/2+x,-y,1/2+z
1/2+x,1/2+y,z
1/2-x,1/2-y,z
1/2-x,1/2+y,z
1/2+x,1/2-y,z
loop_
_atom_site_type_symbol
_atom_site_label
_atom_site_fract_x
_atom_site_fract_y
_atom_site_fract_z
Si Si1 0.867766 0.314028 0.467290
Si Si2 0.156542 0.639081 0.963478
Si Si3 0.563951 0.585094 0.103672
Si Si4 0.065667 0.690543 0.278890
Si Si5 0.935964 0.637250 0.811699
Si Si6 0.340097 0.411867 0.680711
Si Si7 0.262914 0.162007 0.336016
O O1 0.853110 0.227039 0.495624
O O2 0.886109 0.359822 0.564633
O O3 0.921283 0.325932 0.393837
O O4 0.812049 0.349554 0.417241
O O5 0.100789 0.609972 0.905536
O O6 0.207111 0.625435 0.884737
O O7 0.168931 0.591475 0.062469
O O8 0.500000 0.616567 0.079829
O O9 0.571675 0.500000 0.058766
O O10 0.571047 0.577961 0.222132
O O11 0.081786 0.780003 0.264902
O O12 0.104651 0.638577 0.208162
O O13 0.000000 0.672331 0.254118
O O14 0.000000 0.641745 0.852671
O O15 0.350495 0.500000 0.711625
O O16 0.283077 0.380786 0.735731
O O17 0.250000 0.250000 0.308252
#
# Coordination Sequence:
#
# PCOD8186251 Si02
#       7
#    16  16  16  16  16  16  16
#     4   9  18  34  57  84 108 142 191 235 275 332
#     4  10  21  38  59  80 108 148 188 232 284 333
#     4  10  20  33  53  85 122 155 187 231 286 334
#     4   9  18  35  58  82 113 153 192 232 277 327
#     4   9  19  36  58  84 113 151 201 241 268 320
#     4  11  24  38  56  87 119 145 183 234 287 346
#     4   9  21  40  60  79 105 145 191 234 277 333
#
# _framework density 20.286639999999998
#
# number of rings (size 3 to 8) (size 9 to 14) (size 15 to 20)
#    0.000    2.429    0.000    2.143    0.000    7.714 
#    0.000    1.429    0.000    0.000    0.000    0.000 
#    0.000    0.000    0.000    0.000    0.000    0.000 
#
# Total GULP energy -347113.705131 kJ/mol
# GULP energy per Si atom -12396.918040 kJ/mol
# Density = 2.024047 g / cm^3
# Si number density = 20.286640 Si / 1000 Ang^3
#
#
#
# Elastic Constant Matrix: (Units=GPa)
#
#
# Indices 1 2 3 4 5 6 
#
# 1 111.3141 38.4162 52.6156 0.0000 0.0000 0.0000
# 2 38.4162 62.1990 29.5325 0.0000 0.0000 0.0000
# 3 52.6156 29.5325 96.7062 0.0000 0.0000 0.0000
# 4 0.0000 0.0000 0.0000 16.2009 0.0000 0.0000
# 5 0.0000 0.0000 0.0000 0.0000 32.8801 0.0000
# 6 0.0000 0.0000 0.0000 0.0000 0.0000 19.0863
#
#
#
# Elastic Compliance Matrix: (Units=1/GPa)
#
#
# Indices 1 2 3 4 5 6 
#
# 1 0.013643 -0.005733 -0.005672 0.000000 0.000000 0.000000
# 2 -0.005733 0.021213 -0.003359 0.000000 0.000000 0.000000
# 3 -0.005672 -0.003359 0.014452 0.000000 0.000000 0.000000
# 4 0.000000 0.000000 0.000000 0.061725 0.000000 0.000000
# 5 0.000000 0.000000 0.000000 0.000000 0.030414 0.000000
# 6 0.000000 0.000000 0.000000 0.000000 0.000000 0.052394
#
#
# Mechanical properties :
#
#
# Convention : Reuss Voigt Hill
#
# Bulk Modulus (GPa) = 50.55512 56.81646 53.68579
# Shear Modulus (GPa) = 21.74259 23.61046 22.67653
#
# Velocity S-wave (km/s) = 3.27734 3.41522 3.34699
# Velocity P-wave (km/s) = 6.26863 6.60449 6.43875
#
# Compressibility (1/GPa) = 0.01978039
#
# Stress axis : x y z
#
# Youngs Moduli (GPa) = 73.29559 47.14011 69.19265
#
# Poissons Ratio (x) = 0.27028 0.39247
# Poissons Ratio (y) = 0.42024 0.23240
# Poissons Ratio (z) = 0.41574 0.15833
#
# Static dielectric constant tensor:
#      x y z
#    x 3.737820 0.000000 0.000000 
#    y 0.000000 3.502850 0.000000 
#    z 0.000000 0.000000 3.494080 
# 
# 
# High freq. dielectric constant tensor:
#      x y z
#    x 1.794540 0.000000 0.000000 
#    y 0.000000 1.775970 0.000000 
#    z 0.000000 0.000000 1.783430 
# 
# From -- ./inp_files/10259.got.cif
#   From: 2010.03.12/outbox.cif.g09.slc.cpg/sg42_6_cif.got.tgz:10259.got - 2010.04.14 02:04:31.
