data_PCOD8186786
_publ_section_title
;
Structure prediction by ZEFSAII (Michael W. Deem and Ramdas Pophale) SiO2 
 PCOD8186786
Probable space group: F M M 2
;
_chemical_formula_sum "Si O2"
_cell_formula_units_Z 104
_cell_length_a 28.522550
_cell_length_b 20.076177
_cell_length_c 9.280737
_cell_angle_alpha 90.000000
_cell_angle_beta 90.000000
_cell_angle_gamma 90.000000
_cell_volume 5314.370538
_symmetry_space_group_name_H-M "F M M 2"
_symmetry_group_IT_number 42
_symmetry_cell_setting 'orthorhombic'
loop_
_space_group_symop_operation_xyz
x,y,z
-x,-y,z
-x,y,z
x,-y,z
x,1/2+y,1/2+z
-x,1/2-y,1/2+z
-x,1/2+y,1/2+z
x,1/2-y,1/2+z
1/2+x,y,1/2+z
1/2-x,-y,1/2+z
1/2-x,y,1/2+z
1/2+x,-y,1/2+z
1/2+x,1/2+y,z
1/2-x,1/2-y,z
1/2-x,1/2+y,z
1/2+x,1/2-y,z
loop_
_atom_site_type_symbol
_atom_site_label
_atom_site_fract_x
_atom_site_fract_y
_atom_site_fract_z
Si Si1 0.865067 0.383632 0.265420
Si Si2 0.750000 0.750000 0.894959
Si Si3 0.639762 0.369908 0.101649
Si Si4 0.801273 0.500000 0.613119
Si Si5 0.445190 0.078080 0.768766
Si Si6 0.685735 0.271664 0.646085
Si Si7 0.050307 0.077215 0.588406
Si Si8 0.704850 0.500000 0.778601
O O1 0.866754 0.364466 0.431487
O O2 0.858382 0.319964 0.160749
O O3 0.915285 0.411227 0.220947
O O4 0.824374 0.435878 0.229646
O O5 0.717569 0.707446 0.786131
O O6 0.715316 0.790444 0.002302
O O7 0.669020 0.434344 0.150619
O O8 0.587873 0.375905 0.168739
O O9 0.668566 0.304699 0.152807
O O10 0.754987 0.500000 0.706715
O O11 0.786552 0.500000 0.447951
O O12 0.500000 0.092617 0.734768
O O13 0.434268 0.000000 0.741294
O O14 0.432368 0.101765 0.931278
O O15 0.000000 0.110568 0.626928
O O16 0.042059 0.000000 0.567527
#
# Coordination Sequence:
#
# PCOD8186786 Si02
#       8
#    16   8  16   8  16  16  16   8
#     4  11  23  40  59  90 122 158 199 251 300 362
#     4  10  24  42  60  80 118 170 208 248 284 362
#     4  11  23  40  59  90 122 158 199 251 300 362
#     4  10  24  38  55  84 121 151 192 245 301 350
#     4   9  19  37  62  91 122 157 198 244 299 363
#     4  11  24  40  61  86 118 162 211 246 295 358
#     4   9  19  37  62  91 122 157 198 244 299 363
#     4  10  24  38  55  84 121 151 192 245 301 350
#
# _framework density 19.569579000000001
#
# number of rings (size 3 to 8) (size 9 to 14) (size 15 to 20)
#    0.000    1.846    3.077    0.923    6.462    1.846 
#    0.000    2.308    0.000    0.000    0.000    0.000 
#    0.000    0.000    0.000    0.000    0.000    0.000 
#
# Total GULP energy -322219.532734 kJ/mol
# GULP energy per Si atom -12393.058951 kJ/mol
# Density = 1.952504 g / cm^3
# Si number density = 19.569579 Si / 1000 Ang^3
#
#
#
# Elastic Constant Matrix: (Units=GPa)
#
#
# Indices 1 2 3 4 5 6 
#
# 1 117.5752 34.1402 54.6840 0.0000 0.0000 0.0000
# 2 34.1402 85.7712 30.6690 0.0001 -0.0001 0.0000
# 3 54.6840 30.6690 94.5696 0.0002 -0.0004 0.0001
# 4 0.0000 0.0001 0.0002 20.8315 -0.0002 0.0000
# 5 0.0000 -0.0001 -0.0004 -0.0002 18.0338 0.0000
# 6 0.0000 0.0000 0.0001 0.0000 0.0000 10.7409
#
#
#
# Elastic Compliance Matrix: (Units=1/GPa)
#
#
# Indices 1 2 3 4 5 6 
#
# 1 0.012135 -0.002626 -0.006166 0.000000 0.000000 0.000000
# 2 -0.002626 0.013756 -0.002943 0.000000 0.000000 0.000000
# 3 -0.006166 -0.002943 0.015094 0.000000 0.000000 0.000000
# 4 0.000000 0.000000 0.000000 0.048004 0.000001 0.000000
# 5 0.000000 0.000000 0.000000 0.000001 0.055451 0.000000
# 6 0.000000 0.000000 0.000000 0.000000 0.000000 0.093102
#
#
# Mechanical properties :
#
#
# Convention : Reuss Voigt Hill
#
# Bulk Modulus (GPa) = 57.08731 59.65581 58.37156
# Shear Modulus (GPa) = 18.73709 21.81609 20.27659
#
# Velocity S-wave (km/s) = 3.09764 3.34248 3.22239
# Velocity P-wave (km/s) = 6.48295 6.74139 6.61343
#
# Compressibility (1/GPa) = 0.01751703
#
# Stress axis : x y z
#
# Youngs Moduli (GPa) = 82.40498 72.69377 66.25234
#
# Poissons Ratio (x) = 0.19087 0.40848
# Poissons Ratio (y) = 0.21637 0.19498
# Poissons Ratio (z) = 0.50807 0.21393
#
# Static dielectric constant tensor:
#      x y z
#    x 3.615850 0.000000 0.000000 
#    y 0.000000 3.368690 0.000000 
#    z 0.000000 0.000000 3.594850 
# 
# 
# High freq. dielectric constant tensor:
#      x y z
#    x 1.771750 0.000000 0.000000 
#    y 0.000000 1.735280 0.000000 
#    z 0.000000 0.000000 1.768490 
# 
# From -- ./inp_files/5237.got.cif
#   From: 2010.03.12/outbox.cif.g09.slc.cpg/sg42_3_cif.got.tgz:5237.got - 2010.04.14 02:04:31.
