data_PCOD8186495
_publ_section_title
;
Structure prediction by ZEFSAII (Michael W. Deem and Ramdas Pophale) SiO2 
 PCOD8186495
Probable space group: F M M 2
;
_chemical_formula_sum "Si O2"
_cell_formula_units_Z 92
_cell_length_a 21.473070
_cell_length_b 7.579218
_cell_length_c 28.296859
_cell_angle_alpha 90.000000
_cell_angle_beta 90.000000
_cell_angle_gamma 90.000000
_cell_volume 4605.287731
_symmetry_space_group_name_H-M "F M M 2"
_symmetry_group_IT_number 42
_symmetry_cell_setting 'orthorhombic'
loop_
_space_group_symop_operation_xyz
x,y,z
-x,-y,z
-x,y,z
x,-y,z
x,1/2+y,1/2+z
-x,1/2-y,1/2+z
-x,1/2+y,1/2+z
x,1/2-y,1/2+z
1/2+x,y,1/2+z
1/2-x,-y,1/2+z
1/2-x,y,1/2+z
1/2+x,-y,1/2+z
1/2+x,1/2+y,z
1/2-x,1/2-y,z
1/2-x,1/2+y,z
1/2+x,1/2-y,z
loop_
_atom_site_type_symbol
_atom_site_label
_atom_site_fract_x
_atom_site_fract_y
_atom_site_fract_z
Si Si1 0.179908 0.793003 0.477300
Si Si2 0.000000 0.200598 0.598165
Si Si3 0.570485 0.198047 0.407723
Si Si4 0.428403 0.500000 0.334819
Si Si5 0.179377 0.792756 0.674165
Si Si6 0.000000 0.500000 0.674211
Si Si7 0.866748 0.203162 0.574718
Si Si8 0.622076 0.500000 0.233552
O O1 0.250000 0.750000 0.459146
O O2 0.124949 0.708643 0.446585
O O3 0.171533 0.714693 0.530697
O O4 0.168286 0.000000 0.476632
O O5 0.000000 0.323813 0.643528
O O6 0.059859 0.234450 0.565074
O O7 0.000000 0.000000 0.617911
O O8 0.500000 0.243409 0.427272
O O9 0.587601 0.327249 0.365115
O O10 0.570612 0.000000 0.387559
O O11 0.500000 0.500000 0.318508
O O12 0.383336 0.500000 0.289931
O O13 0.250000 0.750000 0.665712
O O14 0.147705 0.716066 0.626178
O O15 0.157124 0.679668 0.718898
O O16 0.165788 0.000000 0.683392
O O17 0.056532 0.500000 0.709214
O O18 0.848222 0.000000 0.578089
#
# Coordination Sequence:
#
# PCOD8186495 Si02
#       8
#    16   8  16   8  16   4  16   8
#     4  11  22  39  62  92 130 170 214 257 313 374
#     4  10  20  38  54  85 131 169 211 260 302 354
#     4  10  22  43  68  96 124 159 206 265 321 379
#     4  10  22  44  70  92 123 160 207 264 319 374
#     4  11  22  40  62  88 131 171 210 256 305 367
#     4  12  22  38  62  94 120 168 206 252 316 368
#     4   9  20  35  57  88 127 172 208 254 305 364
#     4  12  24  40  66  97 123 161 213 256 315 378
#
# _framework density 19.977034
#
# number of rings (size 3 to 8) (size 9 to 14) (size 15 to 20)
#    0.000    1.565    3.913    1.043    1.217    0.696 
#    6.261    0.870    0.000    0.000    0.000    0.000 
#    0.000    0.000    0.000    0.000    0.000    0.000 
#
# Total GULP energy -285076.456887 kJ/mol
# GULP energy per Si atom -12394.628560 kJ/mol
# Density = 1.993157 g / cm^3
# Si number density = 19.977034 Si / 1000 Ang^3
#
#
#
# Elastic Constant Matrix: (Units=GPa)
#
#
# Indices 1 2 3 4 5 6 
#
# 1 128.1525 29.1686 50.6097 0.0002 -0.0001 -0.0007
# 2 29.1686 111.3154 45.0847 0.0001 -0.0001 -0.0019
# 3 50.6097 45.0847 120.4371 0.0000 0.0000 0.0000
# 4 0.0002 0.0001 0.0000 13.4880 0.0000 -0.0001
# 5 -0.0001 -0.0001 0.0000 0.0000 29.9231 0.0000
# 6 -0.0007 -0.0019 0.0000 -0.0001 0.0000 27.4320
#
#
#
# Elastic Compliance Matrix: (Units=1/GPa)
#
#
# Indices 1 2 3 4 5 6 
#
# 1 0.009454 -0.001023 -0.003589 0.000000 0.000000 0.000000
# 2 -0.001023 0.010700 -0.003575 0.000000 0.000000 0.000001
# 3 -0.003589 -0.003575 0.011150 0.000000 0.000000 0.000000
# 4 0.000000 0.000000 0.000000 0.074140 0.000000 0.000000
# 5 0.000000 0.000000 0.000000 0.000000 0.033419 0.000000
# 6 0.000000 0.000001 0.000000 0.000000 0.000000 0.036454
#
#
# Mechanical properties :
#
#
# Convention : Reuss Voigt Hill
#
# Bulk Modulus (GPa) = 66.99338 67.73677 67.36508
# Shear Modulus (GPa) = 25.42353 29.83808 27.63080
#
# Velocity S-wave (km/s) = 3.57127 3.86893 3.72308
# Velocity P-wave (km/s) = 7.11431 7.34432 7.23023
#
# Compressibility (1/GPa) = 0.01492685
#
# Stress axis : x y z
#
# Youngs Moduli (GPa) = 105.77878 93.46042 89.68734
#
# Poissons Ratio (x) = 0.09565 0.32193
# Poissons Ratio (y) = 0.10825 0.32066
# Poissons Ratio (z) = 0.37969 0.33415
#
# Static dielectric constant tensor:
#      x y z
#    x 3.691670 0.000000 0.000000 
#    y 0.000000 3.788350 0.000000 
#    z 0.000000 0.000000 3.457770 
# 
# 
# High freq. dielectric constant tensor:
#      x y z
#    x 1.793370 0.000000 0.000000 
#    y 0.000000 1.784810 0.000000 
#    z 0.000000 0.000000 1.749950 
# 
# From -- ./inp_files/31502.got.cif
#   From: 2010.03.12/outbox.cif.g09.slc.cpg/sg42_16_cif.got.tgz:31502.got - 2010.04.14 02:04:31.
