data_PCOD8186909
_publ_section_title
;
Structure prediction by ZEFSAII (Michael W. Deem and Ramdas Pophale) SiO2 
 PCOD8186909
Probable space group: F D D 2
;
_chemical_formula_sum "Si O2"
_cell_formula_units_Z 96
_cell_length_a 30.974292
_cell_length_b 13.002044
_cell_length_c 13.589445
_cell_angle_alpha 90.000000
_cell_angle_beta 90.000000
_cell_angle_gamma 90.000000
_cell_volume 5472.865056
_symmetry_space_group_name_H-M "F D D 2"
_symmetry_group_IT_number 43
_symmetry_cell_setting 'orthorhombic'
loop_
_space_group_symop_operation_xyz
x,y,z
-x,-y,z
1/4-x,1/4+y,1/4+z
1/4+x,1/4-y,1/4+z
x,1/2+y,1/2+z
-x,1/2-y,1/2+z
1/4-x,3/4+y,3/4+z
1/4+x,3/4-y,3/4+z
1/2+x,y,1/2+z
1/2-x,-y,1/2+z
3/4-x,1/4+y,3/4+z
3/4+x,1/4-y,3/4+z
1/2+x,1/2+y,z
1/2-x,1/2-y,z
3/4-x,3/4+y,1/4+z
3/4+x,3/4-y,1/4+z
loop_
_atom_site_type_symbol
_atom_site_label
_atom_site_fract_x
_atom_site_fract_y
_atom_site_fract_z
Si Si1 0.438318 0.322740 0.964390
Si Si2 0.530927 0.594793 0.539719
Si Si3 0.201653 0.728377 0.617717
Si Si4 0.656446 0.226972 0.421925
Si Si5 0.537700 0.280389 0.654606
Si Si6 0.224270 0.003902 0.126521
O O1 0.439428 0.446840 0.957467
O O2 0.395139 0.272871 0.920051
O O3 0.475493 0.268752 0.900811
O O4 0.445746 0.306108 0.079997
O O5 0.500000 0.500000 0.509267
O O6 0.424835 0.446192 0.588551
O O7 0.506718 0.667490 0.618314
O O8 0.543872 0.659946 0.442347
O O9 0.250000 0.750000 0.578743
O O10 0.170719 0.763114 0.529730
O O11 0.197578 0.609130 0.650350
O O12 0.674285 0.113048 0.406596
O O13 0.530516 0.228335 0.760917
#
# Coordination Sequence:
#
# PCOD8186909 Si02
#       6
#    16  16  16  16  16  16
#     4  10  18  29  52  78  94 120 170 214 242 284
#     4   9  17  31  51  74 100 134 170 202 246 296
#     4   9  17  31  51  72  97 130 168 206 243 289
#     4  10  17  29  52  76  95 123 168 214 241 280
#     4   9  18  31  50  72  99 135 167 200 246 296
#     4   9  18  33  50  70 100 134 162 198 251 303
#
# _framework density 17.541087000000001
#
# number of rings (size 3 to 8) (size 9 to 14) (size 15 to 20)
#    0.000    2.667    0.000    4.500    0.000    0.000 
#    0.000    4.167    0.000   58.000    0.000    0.000 
#    0.000    0.000    0.000    0.000    0.000    0.000 
#
# Total GULP energy -297500.983409 kJ/mol
# GULP energy per Si atom -12395.874309 kJ/mol
# Density = 1.750116 g / cm^3
# Si number density = 17.541087 Si / 1000 Ang^3
#
#
#
# Elastic Constant Matrix: (Units=GPa)
#
#
# Indices 1 2 3 4 5 6 
#
# 1 91.8534 28.8922 47.8436 0.0000 0.0000 0.0000
# 2 28.8922 93.0064 78.3279 0.0000 0.0000 0.0000
# 3 47.8436 78.3279 149.3457 0.0000 0.0000 0.0000
# 4 0.0000 0.0000 0.0000 41.0906 0.0000 0.0000
# 5 0.0000 0.0000 0.0000 0.0000 19.3865 0.0000
# 6 0.0000 0.0000 0.0000 0.0000 0.0000 11.7320
#
#
#
# Elastic Compliance Matrix: (Units=1/GPa)
#
#
# Indices 1 2 3 4 5 6 
#
# 1 0.013115 -0.000960 -0.003698 0.000000 0.000000 0.000000
# 2 -0.000960 0.019329 -0.009830 0.000000 0.000000 0.000000
# 3 -0.003698 -0.009830 0.013036 0.000000 0.000000 0.000000
# 4 0.000000 0.000000 0.000000 0.024336 0.000000 0.000000
# 5 0.000000 0.000000 0.000000 0.000000 0.051582 0.000000
# 6 0.000000 0.000000 0.000000 0.000000 0.000000 0.085237
#
#
# Mechanical properties :
#
#
# Convention : Reuss Voigt Hill
#
# Bulk Modulus (GPa) = 60.59022 71.59255 66.09139
# Shear Modulus (GPa) = 20.73722 26.38461 23.56092
#
# Velocity S-wave (km/s) = 3.44206 3.88256 3.66892
# Velocity P-wave (km/s) = 7.10027 7.81037 7.46377
#
# Compressibility (1/GPa) = 0.01650431
#
# Stress axis : x y z
#
# Youngs Moduli (GPa) = 76.24850 51.73685 76.70997
#
# Poissons Ratio (x) = 0.04965 0.28368
# Poissons Ratio (y) = 0.07317 0.75405
# Poissons Ratio (z) = 0.28198 0.50857
#
# Static dielectric constant tensor:
#      x y z
#    x 3.115190 0.000000 0.000000 
#    y 0.000000 3.338680 0.000000 
#    z 0.000000 0.000000 3.317590 
# 
# 
# High freq. dielectric constant tensor:
#      x y z
#    x 1.664350 0.000000 0.000000 
#    y 0.000000 1.666370 0.000000 
#    z 0.000000 0.000000 1.670900 
# 
# From -- ./inp_files/11700.got.cif
#   From: 2010.06.25/outbox.cif.g09.slc.cpg/sg43_6_cif.got.tgz:11700.got - 2010.06.26 16:48:59.
