data_PCOD8186201
_publ_section_title
;
Structure prediction by ZEFSAII (Michael W. Deem and Ramdas Pophale) SiO2 
 PCOD8186201
Probable space group: F M M 2
;
_chemical_formula_sum "Si O2"
_cell_formula_units_Z 96
_cell_length_a 28.481393
_cell_length_b 28.479268
_cell_length_c 7.641300
_cell_angle_alpha 90.000000
_cell_angle_beta 90.000000
_cell_angle_gamma 90.000000
_cell_volume 6198.081741
_symmetry_space_group_name_H-M "F M M 2"
_symmetry_group_IT_number 42
_symmetry_cell_setting 'orthorhombic'
loop_
_space_group_symop_operation_xyz
x,y,z
-x,-y,z
-x,y,z
x,-y,z
x,1/2+y,1/2+z
-x,1/2-y,1/2+z
-x,1/2+y,1/2+z
x,1/2-y,1/2+z
1/2+x,y,1/2+z
1/2-x,-y,1/2+z
1/2-x,y,1/2+z
1/2+x,-y,1/2+z
1/2+x,1/2+y,z
1/2-x,1/2-y,z
1/2-x,1/2+y,z
1/2+x,1/2-y,z
loop_
_atom_site_type_symbol
_atom_site_label
_atom_site_fract_x
_atom_site_fract_y
_atom_site_fract_z
Si Si1 0.055718 0.300737 0.480430
Si Si2 0.944272 0.199502 0.370140
Si Si3 0.800739 0.944275 0.367656
Si Si4 0.555513 0.630939 0.674923
Si Si5 0.300488 0.555730 0.977929
Si Si6 0.869039 0.444484 0.173104
O O1 0.076643 0.250159 0.424771
O O2 0.073450 0.313697 0.675376
O O3 0.072354 0.340596 0.346099
O O4 0.000000 0.297375 0.475364
O O5 0.927505 0.159851 0.505041
O O6 0.000000 0.202744 0.375454
O O7 0.750165 0.923350 0.423310
O O8 0.840594 0.927610 0.501942
O O9 0.797401 0.000000 0.372836
O O10 0.813691 0.926551 0.172693
O O11 0.500000 0.621714 0.674459
O O12 0.580685 0.580671 0.674071
O O13 0.297233 0.500000 0.972636
O O14 0.340130 0.572490 0.843000
O O15 0.878248 0.500000 0.173483
#
# Coordination Sequence:
#
# PCOD8186201 Si02
#       6
#    16  16  16  16  16  16
#     4   9  15  26  46  68  88 113 148 196 248 279
#     4   9  15  26  46  68  88 113 148 196 248 279
#     4   9  15  26  46  68  88 113 148 196 248 279
#     4  10  20  31  44  66  97 131 162 188 220 270
#     4   9  15  26  46  68  88 113 148 196 248 279
#     4  10  20  31  44  66  97 131 162 188 220 270
#
# _framework density 15.488663000000001
#
# number of rings (size 3 to 8) (size 9 to 14) (size 15 to 20)
#    0.000    2.667    3.333    0.000    0.000    1.667 
#    0.000    0.000    0.000    0.000    0.000    9.333 
#    0.000    4.000    0.000    0.000    0.000    0.000 
#
# Total GULP energy -297490.039602 kJ/mol
# GULP energy per Si atom -12395.418317 kJ/mol
# Density = 1.545341 g / cm^3
# Si number density = 15.488663 Si / 1000 Ang^3
#
#
#
# Elastic Constant Matrix: (Units=GPa)
#
#
# Indices 1 2 3 4 5 6 
#
# 1 59.1532 38.1389 38.7131 0.0163 0.0225 0.0013
# 2 38.1389 59.1130 38.6794 -0.0103 -0.0219 0.0410
# 3 38.7131 38.6794 156.9042 -0.0660 0.0346 -0.0261
# 4 0.0163 -0.0103 -0.0660 12.8523 -0.0060 0.0307
# 5 0.0225 -0.0219 0.0346 -0.0060 12.8759 0.0367
# 6 0.0013 0.0410 -0.0261 0.0307 0.0367 3.9873
#
#
#
# Elastic Compliance Matrix: (Units=1/GPa)
#
#
# Indices 1 2 3 4 5 6 
#
# 1 0.030204 -0.017421 -0.003158 -0.000069 -0.000074 0.000150
# 2 -0.017421 0.030219 -0.003151 0.000031 0.000091 -0.000327
# 3 -0.003158 -0.003151 0.007929 0.000042 -0.000021 0.000085
# 4 -0.000069 0.000031 0.000042 0.077809 0.000038 -0.000600
# 5 -0.000074 0.000091 -0.000021 0.000038 0.077667 -0.000717
# 6 0.000150 -0.000327 0.000085 -0.000600 -0.000717 0.250812
#
#
# Mechanical properties :
#
#
# Convention : Reuss Voigt Hill
#
# Bulk Modulus (GPa) = 47.86493 56.24812 52.05653
# Shear Modulus (GPa) = 9.45065 16.58571 13.01818
#
# Velocity S-wave (km/s) = 2.47283 3.27590 2.90228
# Velocity P-wave (km/s) = 6.25488 7.12062 6.70174
#
# Compressibility (1/GPa) = 0.02089212
#
# Stress axis : x y z
#
# Youngs Moduli (GPa) = 33.10802 33.09190 126.11540
#
# Poissons Ratio (x) = 0.57650 0.39823
# Poissons Ratio (y) = 0.57678 0.39741
# Poissons Ratio (z) = 0.10454 0.10428
#
# Static dielectric constant tensor:
#      x y z
#    x 2.582640 0.000000 0.000050 
#    y 0.000000 2.582510 0.000020 
#    z 0.000050 0.000020 3.432950 
# 
# 
# High freq. dielectric constant tensor:
#      x y z
#    x 1.551820 0.000000 0.000010 
#    y 0.000000 1.551810 -0.000010 
#    z 0.000010 -0.000010 1.620610 
# 
# From -- ./inp_files/5256.got.cif
#   From: 2010.03.12/outbox.cif.g09.slc.cpg/sg42_3_cif.got.tgz:5256.got - 2010.04.14 02:04:31.
