data_PCOD8186377
_publ_section_title
;
Structure prediction by ZEFSAII (Michael W. Deem and Ramdas Pophale) SiO2 
 PCOD8186377
Probable space group: F M M 2
;
_chemical_formula_sum "Si O2"
_cell_formula_units_Z 80
_cell_length_a 15.690485
_cell_length_b 8.596566
_cell_length_c 28.918455
_cell_angle_alpha 90.000000
_cell_angle_beta 90.000000
_cell_angle_gamma 90.000000
_cell_volume 3900.645267
_symmetry_space_group_name_H-M "F M M 2"
_symmetry_group_IT_number 42
_symmetry_cell_setting 'orthorhombic'
loop_
_space_group_symop_operation_xyz
x,y,z
-x,-y,z
-x,y,z
x,-y,z
x,1/2+y,1/2+z
-x,1/2-y,1/2+z
-x,1/2+y,1/2+z
x,1/2-y,1/2+z
1/2+x,y,1/2+z
1/2-x,-y,1/2+z
1/2-x,y,1/2+z
1/2+x,-y,1/2+z
1/2+x,1/2+y,z
1/2-x,1/2-y,z
1/2-x,1/2+y,z
1/2+x,1/2-y,z
loop_
_atom_site_type_symbol
_atom_site_label
_atom_site_fract_x
_atom_site_fract_y
_atom_site_fract_z
Si Si1 0.659777 0.318517 0.785050
Si Si2 0.596128 0.673752 0.372875
Si Si3 0.344035 0.184082 0.687770
Si Si4 0.000000 0.315437 0.025180
Si Si5 0.838659 0.684496 0.969283
Si Si6 0.000000 0.815776 0.631038
O O1 0.665380 0.500000 0.773972
O O2 0.750000 0.250000 0.800124
O O3 0.599148 0.286512 0.828565
O O4 0.626237 0.233198 0.739140
O O5 0.500000 0.667559 0.391236
O O6 0.626686 0.500000 0.358549
O O7 0.650896 0.738801 0.415866
O O8 0.250000 0.250000 0.676287
O O9 0.413807 0.248742 0.652766
O O10 0.340467 0.000000 0.684097
O O11 0.000000 0.500000 0.021260
O O12 0.000000 0.261614 0.078091
O O13 0.915354 0.247725 0.000506
O O14 0.838288 0.500000 0.971968
O O15 0.750000 0.750000 0.988930
O O16 0.000000 0.000000 0.637120
#
# Coordination Sequence:
#
# PCOD8186377 Si02
#       6
#    16  16  16   8  16   8
#     4  11  22  37  57  84 120 158 201 248 295 354
#     4  10  20  35  57  84 120 162 203 243 292 355
#     4  11  23  42  65  91 124 162 205 253 305 365
#     4   9  20  41  64  87 118 155 198 245 302 363
#     4  10  20  38  62  88 118 159 200 244 296 355
#     4  11  23  41  66  93 122 159 202 255 312 369
#
# _framework density 20.509426000000001
#
# number of rings (size 3 to 8) (size 9 to 14) (size 15 to 20)
#    0.000    1.600    1.000    5.700    1.400    3.600 
#    0.000    4.500    0.000    0.000    0.000    0.000 
#    0.000    0.000    0.000    0.000    0.000    0.000 
#
# Total GULP energy -248022.390960 kJ/mol
# GULP energy per Si atom -12401.119548 kJ/mol
# Density = 2.046275 g / cm^3
# Si number density = 20.509426 Si / 1000 Ang^3
#
#
#
# Elastic Constant Matrix: (Units=GPa)
#
#
# Indices 1 2 3 4 5 6 
#
# 1 144.0123 38.5844 84.1557 0.0000 0.0000 0.0000
# 2 38.5844 104.9443 48.8879 0.0000 0.0000 0.0000
# 3 84.1557 48.8879 148.2486 0.0000 0.0000 0.0000
# 4 0.0000 0.0000 0.0000 23.4967 0.0000 0.0000
# 5 0.0000 0.0000 0.0000 0.0000 32.3474 0.0000
# 6 0.0000 0.0000 0.0000 0.0000 0.0000 33.1084
#
#
#
# Elastic Compliance Matrix: (Units=1/GPa)
#
#
# Indices 1 2 3 4 5 6 
#
# 1 0.010535 -0.001285 -0.005557 0.000000 0.000000 0.000000
# 2 -0.001285 0.011415 -0.003035 0.000000 0.000000 0.000000
# 3 -0.005557 -0.003035 0.010901 0.000000 0.000000 0.000000
# 4 0.000000 0.000000 0.000000 0.042559 0.000000 0.000000
# 5 0.000000 0.000000 0.000000 0.000000 0.030914 0.000000
# 6 0.000000 0.000000 0.000000 0.000000 0.000000 0.030204
#
#
# Mechanical properties :
#
#
# Convention : Reuss Voigt Hill
#
# Bulk Modulus (GPa) = 76.34889 82.27347 79.31118
# Shear Modulus (GPa) = 31.12400 32.82899 31.97650
#
# Velocity S-wave (km/s) = 3.89980 4.00519 3.95284
# Velocity P-wave (km/s) = 7.58847 7.84798 7.71932
#
# Compressibility (1/GPa) = 0.01309777
#
# Stress axis : x y z
#
# Youngs Moduli (GPa) = 94.91892 87.60333 91.73724
#
# Poissons Ratio (x) = 0.11256 0.50977
# Poissons Ratio (y) = 0.12196 0.27842
# Poissons Ratio (z) = 0.52745 0.26588
#
# Static dielectric constant tensor:
#      x y z
#    x 3.633130 0.000000 0.000000 
#    y 0.000000 3.572800 0.000000 
#    z 0.000000 0.000000 3.722300 
# 
# 
# High freq. dielectric constant tensor:
#      x y z
#    x 1.809940 0.000000 0.000000 
#    y 0.000000 1.790290 0.000000 
#    z 0.000000 0.000000 1.801380 
# 
# From -- ./inp_files/32771.got.cif
#   From: 2010.03.12/outbox.cif.g09.slc.cpg/sg42_17_cif.got.tgz:32771.got - 2010.04.14 02:04:31.
