data_PCOD8186875
_publ_section_title
;
Structure prediction by ZEFSAII (Michael W. Deem and Ramdas Pophale) SiO2 
 PCOD8186875
Probable space group: F M M 2
;
_chemical_formula_sum "Si O2"
_cell_formula_units_Z 64
_cell_length_a 17.920599
_cell_length_b 20.679006
_cell_length_c 7.471442
_cell_angle_alpha 90.000000
_cell_angle_beta 90.000000
_cell_angle_gamma 90.000000
_cell_volume 2768.768278
_symmetry_space_group_name_H-M "F M M 2"
_symmetry_group_IT_number 42
_symmetry_cell_setting 'orthorhombic'
loop_
_space_group_symop_operation_xyz
x,y,z
-x,-y,z
-x,y,z
x,-y,z
x,1/2+y,1/2+z
-x,1/2-y,1/2+z
-x,1/2+y,1/2+z
x,1/2-y,1/2+z
1/2+x,y,1/2+z
1/2-x,-y,1/2+z
1/2-x,y,1/2+z
1/2+x,-y,1/2+z
1/2+x,1/2+y,z
1/2-x,1/2-y,z
1/2-x,1/2+y,z
1/2+x,1/2-y,z
loop_
_atom_site_type_symbol
_atom_site_label
_atom_site_fract_x
_atom_site_fract_y
_atom_site_fract_z
Si Si1 0.334657 0.867322 0.508730
Si Si2 0.913745 0.361233 0.858535
Si Si3 0.680650 0.500000 0.848125
Si Si4 0.350598 0.500000 0.437916
Si Si5 0.803675 0.811840 0.640295
O O1 0.392139 0.839705 0.656189
O O2 0.355804 0.938915 0.447525
O O3 0.251524 0.872189 0.596956
O O4 0.335676 0.818170 0.340195
O O5 0.895061 0.436688 0.876226
O O6 0.000000 0.348418 0.892659
O O7 0.870123 0.314615 0.996790
O O8 0.650852 0.500000 0.649518
O O9 0.770009 0.500000 0.845113
O O10 0.750000 0.750000 0.617553
#
# Coordination Sequence:
#
# PCOD8186875 Si02
#       5
#    16  16   8   8  16
#     4  12  23  43  75 109 142 192 253 305 365 436
#     4  12  27  46  71 113 158 196 243 313 388 445
#     4  12  20  39  74 113 142 195 258 308 349 442
#     4  12  21  41  70 111 157 197 242 308 376 450
#     4  12  25  45  78 105 140 196 258 303 355 443
#
# _framework density 23.114972000000002
#
# number of rings (size 3 to 8) (size 9 to 14) (size 15 to 20)
#    0.000    0.000    7.500    3.375    0.000    2.000 
#    0.000    1.250    0.000    0.000    0.000    0.000 
#    0.000    0.000    0.000    0.000    0.000    0.000 
#
# Total GULP energy -198451.208601 kJ/mol
# GULP energy per Si atom -12403.200538 kJ/mol
# Density = 2.306236 g / cm^3
# Si number density = 23.114972 Si / 1000 Ang^3
#
#
#
# Elastic Constant Matrix: (Units=GPa)
#
#
# Indices 1 2 3 4 5 6 
#
# 1 138.4925 46.2356 70.8766 0.0002 -0.0009 -0.0002
# 2 46.2356 93.9500 62.8920 0.0010 -0.0008 -0.0003
# 3 70.8766 62.8920 200.4906 0.0028 -0.0048 -0.0014
# 4 0.0002 0.0010 0.0028 31.6858 -0.0015 -0.0005
# 5 -0.0009 -0.0008 -0.0048 -0.0015 33.1565 0.0009
# 6 -0.0002 -0.0003 -0.0014 -0.0005 0.0009 11.6335
#
#
#
# Elastic Compliance Matrix: (Units=1/GPa)
#
#
# Indices 1 2 3 4 5 6 
#
# 1 0.009463 -0.003060 -0.002385 0.000000 0.000000 0.000000
# 2 -0.003060 0.014463 -0.003455 0.000000 0.000000 0.000000
# 3 -0.002385 -0.003455 0.006915 0.000000 0.000001 0.000001
# 4 0.000000 0.000000 0.000000 0.031560 0.000001 0.000001
# 5 0.000000 0.000000 0.000001 0.000001 0.030160 -0.000002
# 6 0.000000 0.000000 0.000001 0.000001 -0.000002 0.085959
#
#
# Mechanical properties :
#
#
# Convention : Reuss Voigt Hill
#
# Bulk Modulus (GPa) = 76.69014 88.10462 82.39738
# Shear Modulus (GPa) = 24.91689 32.15707 28.53698
#
# Velocity S-wave (km/s) = 3.28678 3.73390 3.51745
# Velocity P-wave (km/s) = 6.90316 7.53577 7.22639
#
# Compressibility (1/GPa) = 0.01303949
#
# Stress axis : x y z
#
# Youngs Moduli (GPa) = 105.67438 69.14263 144.61653
#
# Poissons Ratio (x) = 0.21159 0.34496
# Poissons Ratio (y) = 0.32339 0.49965
# Poissons Ratio (z) = 0.25207 0.23889
#
# Static dielectric constant tensor:
#      x y z
#    x 3.776250 0.000000 0.000000 
#    y 0.000000 4.386560 0.000000 
#    z 0.000000 0.000000 4.451580 
# 
# 
# High freq. dielectric constant tensor:
#      x y z
#    x 1.865360 0.000000 0.000000 
#    y 0.000000 1.925410 0.000000 
#    z 0.000000 0.000000 1.941940 
# 
# From -- ./inp_files/3336.got.cif
#   From: 2010.03.12/outbox.cif.g09.slc.cpg/sg42_2_cif.got.tgz:3336.got - 2010.04.14 02:04:31.
