data_PCOD8186097
_publ_section_title
;
Structure prediction by ZEFSAII (Michael W. Deem and Ramdas Pophale) SiO2 
 PCOD8186097
Probable space group: F M M 2
;
_chemical_formula_sum "Si O2"
_cell_formula_units_Z 112
_cell_length_a 28.471589
_cell_length_b 14.770295
_cell_length_c 14.319710
_cell_angle_alpha 90.000000
_cell_angle_beta 90.000000
_cell_angle_gamma 90.000000
_cell_volume 6021.921612
_symmetry_space_group_name_H-M "F M M 2"
_symmetry_group_IT_number 42
_symmetry_cell_setting 'orthorhombic'
loop_
_space_group_symop_operation_xyz
x,y,z
-x,-y,z
-x,y,z
x,-y,z
x,1/2+y,1/2+z
-x,1/2-y,1/2+z
-x,1/2+y,1/2+z
x,1/2-y,1/2+z
1/2+x,y,1/2+z
1/2-x,-y,1/2+z
1/2-x,y,1/2+z
1/2+x,-y,1/2+z
1/2+x,1/2+y,z
1/2-x,1/2-y,z
1/2-x,1/2+y,z
1/2+x,1/2-y,z
loop_
_atom_site_type_symbol
_atom_site_label
_atom_site_fract_x
_atom_site_fract_y
_atom_site_fract_z
Si Si1 0.554172 0.802336 0.761490
Si Si2 0.555106 0.500000 0.213659
Si Si3 0.815753 0.605738 0.364035
Si Si4 0.870076 0.754812 0.113500
Si Si5 0.555282 0.000000 0.503066
Si Si6 0.200756 0.098202 0.069983
Si Si7 0.781664 0.837518 0.673614
Si Si8 0.592936 0.687622 0.920940
O O1 0.500000 0.795197 0.728465
O O2 0.570054 0.908333 0.768989
O O3 0.586638 0.753486 0.684965
O O4 0.558512 0.751382 0.860791
O O5 0.500000 0.500000 0.202900
O O6 0.576048 0.500000 0.108315
O O7 0.827209 0.500000 0.354331
O O8 0.792283 0.631295 0.463145
O O9 0.781077 0.636702 0.282294
O O10 0.863233 0.663914 0.354764
O O11 0.836632 0.842099 0.127169
O O12 0.834898 0.670134 0.133408
O O13 0.891458 0.752430 0.009775
O O14 0.571094 0.091868 0.451912
O O15 0.500000 0.000000 0.502939
O O16 0.252267 0.088244 0.116185
O O17 0.176846 0.000000 0.067833
O O18 0.750000 0.750000 0.655838
#
# Coordination Sequence:
#
# PCOD8186097 Si02
#       8
#    16   8  16  16   8  16  16  16
#     4  11  22  37  59  89 120 155 197 248 300 349
#     4   9  20  36  60  85 112 150 200 250 292 345
#     4  10  19  33  56  80 108 146 187 235 291 346
#     4  10  21  35  57  84 115 149 192 242 295 347
#     4  11  20  34  58  89 114 150 204 254 290 343
#     4   9  20  35  56  82 110 144 189 241 287 342
#     4  10  20  36  54  79 112 150 185 230 290 353
#     4  11  21  35  58  86 120 153 193 245 300 347
#
# _framework density 18.598714999999999
#
# number of rings (size 3 to 8) (size 9 to 14) (size 15 to 20)
#    0.000    1.857    3.571    0.857    2.000    3.429 
#    0.000    0.000    3.143    0.000    0.000    1.000 
#    0.000    0.000    0.000    0.000    0.000    0.000 
#
# Total GULP energy -346986.426922 kJ/mol
# GULP energy per Si atom -12392.372390 kJ/mol
# Density = 1.855638 g / cm^3
# Si number density = 18.598715 Si / 1000 Ang^3
#
#
#
# Elastic Constant Matrix: (Units=GPa)
#
#
# Indices 1 2 3 4 5 6 
#
# 1 94.2541 15.3020 43.7977 0.0000 0.0000 0.0000
# 2 15.3020 62.4945 34.9285 0.0000 0.0000 0.0000
# 3 43.7977 34.9285 98.1276 0.0000 0.0000 0.0000
# 4 0.0000 0.0000 0.0000 23.7019 0.0000 0.0000
# 5 0.0000 0.0000 0.0000 0.0000 33.0647 0.0000
# 6 0.0000 0.0000 0.0000 0.0000 0.0000 17.3848
#
#
#
# Elastic Compliance Matrix: (Units=1/GPa)
#
#
# Indices 1 2 3 4 5 6 
#
# 1 0.013386 0.000077 -0.006002 0.000000 0.000000 0.000000
# 2 0.000077 0.019976 -0.007145 0.000000 0.000000 0.000000
# 3 -0.006002 -0.007145 0.015413 0.000000 0.000000 0.000000
# 4 0.000000 0.000000 0.000000 0.042191 0.000000 0.000000
# 5 0.000000 0.000000 0.000000 0.000000 0.030244 0.000000
# 6 0.000000 0.000000 0.000000 0.000000 0.000000 0.057522
#
#
# Mechanical properties :
#
#
# Convention : Reuss Voigt Hill
#
# Bulk Modulus (GPa) = 44.17908 49.21473 46.69690
# Shear Modulus (GPa) = 23.53876 25.55348 24.54612
#
# Velocity S-wave (km/s) = 3.56140 3.71069 3.63681
# Velocity P-wave (km/s) = 6.38098 6.69909 6.54196
#
# Compressibility (1/GPa) = 0.02263515
#
# Stress axis : x y z
#
# Youngs Moduli (GPa) = 74.70405 50.06055 64.88066
#
# Poissons Ratio (x) = -0.00385 0.38942
# Poissons Ratio (y) = -0.00575 0.46356
# Poissons Ratio (z) = 0.44838 0.35767
#
# Static dielectric constant tensor:
#      x y z
#    x 3.535660 0.000000 0.000000 
#    y 0.000000 3.446100 0.000000 
#    z 0.000000 0.000000 3.396840 
# 
# 
# High freq. dielectric constant tensor:
#      x y z
#    x 1.722890 0.000000 0.000000 
#    y 0.000000 1.711050 0.000000 
#    z 0.000000 0.000000 1.715340 
# 
# From -- ./inp_files/14447.got.cif
#   From: 2010.03.12/outbox.cif.g09.slc.cpg/sg42_8_cif.got.tgz:14447.got - 2010.04.14 02:04:31.
