data_PCOD8186671
_publ_section_title
;
Structure prediction by ZEFSAII (Michael W. Deem and Ramdas Pophale) SiO2 
 PCOD8186671
Probable space group: F M M 2
;
_chemical_formula_sum "Si O2"
_cell_formula_units_Z 112
_cell_length_a 27.307514
_cell_length_b 16.232069
_cell_length_c 11.590416
_cell_angle_alpha 90.000000
_cell_angle_beta 90.000000
_cell_angle_gamma 90.000000
_cell_volume 5137.538258
_symmetry_space_group_name_H-M "F M M 2"
_symmetry_group_IT_number 42
_symmetry_cell_setting 'orthorhombic'
loop_
_space_group_symop_operation_xyz
x,y,z
-x,-y,z
-x,y,z
x,-y,z
x,1/2+y,1/2+z
-x,1/2-y,1/2+z
-x,1/2+y,1/2+z
x,1/2-y,1/2+z
1/2+x,y,1/2+z
1/2-x,-y,1/2+z
1/2-x,y,1/2+z
1/2+x,-y,1/2+z
1/2+x,1/2+y,z
1/2-x,1/2-y,z
1/2-x,1/2+y,z
1/2+x,1/2-y,z
loop_
_atom_site_type_symbol
_atom_site_label
_atom_site_fract_x
_atom_site_fract_y
_atom_site_fract_z
Si Si1 0.205948 0.401832 0.063200
Si Si2 0.651296 0.328569 0.770607
Si Si3 0.813802 0.407464 0.503352
Si Si4 0.371165 0.829368 0.888734
Si Si5 0.099407 0.091521 0.174053
Si Si6 0.946072 0.903743 0.792474
Si Si7 0.554029 0.289314 0.007696
O O1 0.201705 0.500000 0.079294
O O2 0.192886 0.356939 0.183003
O O3 0.260461 0.371614 0.033633
O O4 0.171547 0.370813 0.961248
O O5 0.649985 0.230506 0.787469
O O6 0.598608 0.362422 0.721176
O O7 0.660784 0.359506 0.900018
O O8 0.807075 0.500000 0.459692
O O9 0.846999 0.400824 0.616602
O O10 0.397528 0.899871 0.813250
O O11 0.408296 0.782973 0.974986
O O12 0.077693 0.000000 0.148678
O O13 0.065704 0.166346 0.128779
O O14 0.944533 0.864163 0.918083
O O15 0.000000 0.888115 0.735046
O O16 0.935523 0.000000 0.805539
O O17 0.500000 0.249492 0.014770
#
# Coordination Sequence:
#
# PCOD8186671 Si02
#       7
#    16  16  16  16  16  16  16
#     4  11  25  43  64  89 126 175 217 258 322 388
#     4  11  22  40  63  89 131 166 215 267 323 385
#     4  10  22  40  63  93 125 167 218 267 316 377
#     4  11  24  42  61  96 130 167 205 270 324 384
#     4  11  22  41  66  94 130 169 214 264 318 386
#     4   9  16  30  58  92 120 153 204 261 312 368
#     4  10  21  39  62  91 126 165 208 259 322 382
#
# _framework density 21.800325999999998
#
# number of rings (size 3 to 8) (size 9 to 14) (size 15 to 20)
#    0.000    1.571    2.857    3.000    2.000    2.000 
#    0.000    3.571    0.000    2.143    0.000    0.000 
#    0.000    0.000    0.000    0.000    0.000    0.000 
#
# Total GULP energy -347118.866528 kJ/mol
# GULP energy per Si atom -12397.102376 kJ/mol
# Density = 2.175071 g / cm^3
# Si number density = 21.800326 Si / 1000 Ang^3
#
#
#
# Elastic Constant Matrix: (Units=GPa)
#
#
# Indices 1 2 3 4 5 6 
#
# 1 106.1766 16.6735 13.2497 0.0000 0.0000 0.0000
# 2 16.6735 55.5517 17.1825 0.0000 0.0000 0.0000
# 3 13.2497 17.1825 60.0672 0.0000 0.0000 0.0000
# 4 0.0000 0.0000 0.0000 32.0077 0.0000 0.0000
# 5 0.0000 0.0000 0.0000 0.0000 18.8183 0.0000
# 6 0.0000 0.0000 0.0000 0.0000 0.0000 18.2258
#
#
#
# Elastic Compliance Matrix: (Units=1/GPa)
#
#
# Indices 1 2 3 4 5 6 
#
# 1 0.010002 -0.002545 -0.001478 0.000000 0.000000 0.000000
# 2 -0.002545 0.020396 -0.005273 0.000000 0.000000 0.000000
# 3 -0.001478 -0.005273 0.018483 0.000000 0.000000 0.000000
# 4 0.000000 0.000000 0.000000 0.031243 0.000000 0.000000
# 5 0.000000 0.000000 0.000000 0.000000 0.053140 0.000000
# 6 0.000000 0.000000 0.000000 0.000000 0.000000 0.054867
#
#
# Mechanical properties :
#
#
# Convention : Reuss Voigt Hill
#
# Bulk Modulus (GPa) = 33.01596 35.11188 34.06392
# Shear Modulus (GPa) = 23.06071 25.45635 24.25853
#
# Velocity S-wave (km/s) = 3.25594 3.42088 3.33942
# Velocity P-wave (km/s) = 5.41409 5.63421 5.52525
#
# Compressibility (1/GPa) = 0.03028838
#
# Stress axis : x y z
#
# Youngs Moduli (GPa) = 99.97605 49.02909 54.10520
#
# Poissons Ratio (x) = 0.12477 0.07999
# Poissons Ratio (y) = 0.25443 0.28530
# Poissons Ratio (z) = 0.14780 0.25853
#
# Static dielectric constant tensor:
#      x y z
#    x 4.366310 0.000000 0.000000 
#    y 0.000000 3.989800 0.000000 
#    z 0.000000 0.000000 3.674760 
# 
# 
# High freq. dielectric constant tensor:
#      x y z
#    x 1.859380 0.000000 0.000000 
#    y 0.000000 1.860760 0.000000 
#    z 0.000000 0.000000 1.840790 
# 
# From -- ./inp_files/8116.got.cif
#   From: 2010.03.12/outbox.cif.g09.slc.cpg/sg42_5_cif.got.tgz:8116.got - 2010.04.14 02:04:31.
