data_PCOD8186479
_publ_section_title
;
Structure prediction by ZEFSAII (Michael W. Deem and Ramdas Pophale) SiO2 
 PCOD8186479
Probable space group: F M M 2
;
_chemical_formula_sum "Si O2"
_cell_formula_units_Z 112
_cell_length_a 29.144958
_cell_length_b 13.676430
_cell_length_c 13.865091
_cell_angle_alpha 90.000000
_cell_angle_beta 90.000000
_cell_angle_gamma 90.000000
_cell_volume 5526.611102
_symmetry_space_group_name_H-M "F M M 2"
_symmetry_group_IT_number 42
_symmetry_cell_setting 'orthorhombic'
loop_
_space_group_symop_operation_xyz
x,y,z
-x,-y,z
-x,y,z
x,-y,z
x,1/2+y,1/2+z
-x,1/2-y,1/2+z
-x,1/2+y,1/2+z
x,1/2-y,1/2+z
1/2+x,y,1/2+z
1/2-x,-y,1/2+z
1/2-x,y,1/2+z
1/2+x,-y,1/2+z
1/2+x,1/2+y,z
1/2-x,1/2-y,z
1/2-x,1/2+y,z
1/2+x,1/2-y,z
loop_
_atom_site_type_symbol
_atom_site_label
_atom_site_fract_x
_atom_site_fract_y
_atom_site_fract_z
Si Si1 0.590515 0.776043 0.385230
Si Si2 0.447830 0.725979 0.086952
Si Si3 0.801491 0.888966 0.736877
Si Si4 0.789506 0.114620 0.150483
Si Si5 0.613903 0.615922 0.234206
Si Si6 0.176205 0.388705 0.446736
Si Si7 0.903343 0.385737 0.202500
O O1 0.553247 0.773967 0.470425
O O2 0.597302 0.671649 0.331071
O O3 0.636157 0.809920 0.440154
O O4 0.574821 0.856206 0.305938
O O5 0.500000 0.709327 0.119810
O O6 0.417345 0.644087 0.141518
O O7 0.430490 0.833646 0.117156
O O8 0.758112 0.835384 0.686994
O O9 0.792799 0.882138 0.851382
O O10 0.850803 0.844133 0.705964
O O11 0.804202 0.000000 0.701842
O O12 0.833857 0.149978 0.210865
O O13 0.785481 0.000000 0.167977
O O14 0.793227 0.140363 0.038001
O O15 0.609927 0.500000 0.251578
O O16 0.156528 0.500000 0.458138
O O17 0.907118 0.500000 0.186223
#
# Coordination Sequence:
#
# PCOD8186479 Si02
#       7
#    16  16  16  16  16  16  16
#     4  10  20  37  61  85 119 154 198 244 299 351
#     4  11  24  41  61  86 117 152 197 254 307 359
#     4   8  15  30  55  88 119 153 193 236 284 343
#     4   9  16  31  58  87 118 158 199 234 283 346
#     4  10  22  40  62  88 122 160 198 245 297 355
#     4   9  16  31  58  85 115 157 200 243 290 341
#     4   9  20  40  64  88 119 155 195 242 295 357
#
# _framework density 20.265582999999999
#
# number of rings (size 3 to 8) (size 9 to 14) (size 15 to 20)
#    0.000    2.571    1.429    1.286    0.000    4.000 
#    2.571    6.429    0.000    0.000    0.000    0.000 
#    0.000    0.000    0.000    0.000    0.000    0.000 
#
# Total GULP energy -346993.309453 kJ/mol
# GULP energy per Si atom -12392.618195 kJ/mol
# Density = 2.021946 g / cm^3
# Si number density = 20.265583 Si / 1000 Ang^3
#
#
#
# Elastic Constant Matrix: (Units=GPa)
#
#
# Indices 1 2 3 4 5 6 
#
# 1 99.2616 6.4949 42.6249 0.0000 0.0000 0.0000
# 2 6.4949 62.1762 28.9270 0.0000 0.0000 0.0000
# 3 42.6249 28.9270 81.7599 0.0000 0.0000 0.0000
# 4 0.0000 0.0000 0.0000 23.5572 0.0000 0.0000
# 5 0.0000 0.0000 0.0000 0.0000 27.2905 0.0000
# 6 0.0000 0.0000 0.0000 0.0000 0.0000 17.0363
#
#
#
# Elastic Compliance Matrix: (Units=1/GPa)
#
#
# Indices 1 2 3 4 5 6 
#
# 1 0.013224 0.002186 -0.007668 0.000000 0.000000 0.000000
# 2 0.002186 0.019614 -0.008079 0.000000 0.000000 0.000000
# 3 -0.007668 -0.008079 0.019087 0.000000 0.000000 0.000000
# 4 0.000000 0.000000 0.000000 0.042450 0.000000 0.000000
# 5 0.000000 0.000000 0.000000 0.000000 0.036643 0.000000
# 6 0.000000 0.000000 0.000000 0.000000 0.000000 0.058698
#
#
# Mechanical properties :
#
#
# Convention : Reuss Voigt Hill
#
# Bulk Modulus (GPa) = 40.31767 44.36571 42.34169
# Shear Modulus (GPa) = 22.21190 24.58685 23.39938
#
# Velocity S-wave (km/s) = 3.31424 3.48693 3.40168
# Velocity P-wave (km/s) = 5.88077 6.17667 6.03053
#
# Compressibility (1/GPa) = 0.02480302
#
# Stress axis : x y z
#
# Youngs Moduli (GPa) = 75.62013 50.98486 52.39227
#
# Poissons Ratio (x) = -0.11145 0.40172
# Poissons Ratio (y) = -0.16530 0.42328
# Poissons Ratio (z) = 0.57983 0.41191
#
# Static dielectric constant tensor:
#      x y z
#    x 3.715360 0.000000 0.000000 
#    y 0.000000 3.541730 0.000000 
#    z 0.000000 0.000000 3.703670 
# 
# 
# High freq. dielectric constant tensor:
#      x y z
#    x 1.773310 0.000000 0.000000 
#    y 0.000000 1.790380 0.000000 
#    z 0.000000 0.000000 1.789840 
# 
# From -- ./inp_files/11105.got.cif
#   From: 2010.03.12/outbox.cif.g09.slc.cpg/sg42_6_cif.got.tgz:11105.got - 2010.04.14 02:04:31.
