data_PCOD8186280
_publ_section_title
;
Structure prediction by ZEFSAII (Michael W. Deem and Ramdas Pophale) SiO2 
 PCOD8186280
Probable space group: F M M 2
;
_chemical_formula_sum "Si O2"
_cell_formula_units_Z 128
_cell_length_a 15.594875
_cell_length_b 17.834679
_cell_length_c 24.188608
_cell_angle_alpha 90.000000
_cell_angle_beta 90.000000
_cell_angle_gamma 90.000000
_cell_volume 6727.567618
_symmetry_space_group_name_H-M "F M M 2"
_symmetry_group_IT_number 42
_symmetry_cell_setting 'orthorhombic'
loop_
_space_group_symop_operation_xyz
x,y,z
-x,-y,z
-x,y,z
x,-y,z
x,1/2+y,1/2+z
-x,1/2-y,1/2+z
-x,1/2+y,1/2+z
x,1/2-y,1/2+z
1/2+x,y,1/2+z
1/2-x,-y,1/2+z
1/2-x,y,1/2+z
1/2+x,-y,1/2+z
1/2+x,1/2+y,z
1/2-x,1/2-y,z
1/2-x,1/2+y,z
1/2+x,1/2-y,z
loop_
_atom_site_type_symbol
_atom_site_label
_atom_site_fract_x
_atom_site_fract_y
_atom_site_fract_z
Si Si1 0.401217 0.670671 0.057420
Si Si2 0.904631 0.842034 0.276316
Si Si3 0.245413 0.337984 0.853332
Si Si4 0.403422 0.654663 0.546479
Si Si5 0.244410 0.838894 0.974504
Si Si6 0.668716 0.804635 0.250854
Si Si7 0.601819 0.083944 0.665333
Si Si8 0.901478 0.915060 0.663436
O O1 0.500000 0.648230 0.044350
O O2 0.391058 0.759366 0.064630
O O3 0.340519 0.638427 0.008791
O O4 0.367009 0.634669 0.114317
O O5 0.848435 0.860908 0.330433
O O6 0.909300 0.752760 0.262394
O O7 0.862899 0.884102 0.223264
O O8 0.000000 0.871012 0.288971
O O9 0.250000 0.250000 0.863671
O O10 0.315454 0.356860 0.805547
O O11 0.263183 0.375918 0.913030
O O12 0.500000 0.642924 0.522502
O O13 0.332452 0.630404 0.501632
O O14 0.388704 0.602716 0.599302
O O15 0.250000 0.750000 0.971318
O O16 0.750000 0.750000 0.241055
O O17 0.654930 0.858051 0.198992
O O18 0.500000 0.086101 0.667808
O O19 0.636909 0.000000 0.656592
O O20 0.000000 0.904918 0.681022
O O21 0.870698 0.000000 0.674189
#
# Coordination Sequence:
#
# PCOD8186280 Si02
#       8
#    16  16  16  16  16  16  16  16
#     4   9  17  30  50  74  98 127 162 201 251 307
#     4   9  16  28  49  72  94 124 160 199 247 303
#     4   8  17  31  45  68  98 123 157 204 246 289
#     4   9  18  31  49  73  99 129 165 204 248 299
#     4   9  17  31  49  70  98 127 160 206 249 290
#     4   9  18  32  49  71 101 132 163 206 256 302
#     4   9  17  29  46  70  99 125 152 195 250 305
#     4  10  20  34  53  77 105 136 172 213 255 305
#
# _framework density 19.026192999999999
#
# number of rings (size 3 to 8) (size 9 to 14) (size 15 to 20)
#    0.000    3.250    0.000    1.125    0.000    6.000 
#    0.000   13.125    0.000    3.000    0.000    5.250 
#    0.000    0.000    0.000    0.000    0.000    0.000 
#
# Total GULP energy -396535.249766 kJ/mol
# GULP energy per Si atom -12391.726555 kJ/mol
# Density = 1.898289 g / cm^3
# Si number density = 19.026193 Si / 1000 Ang^3
#
#
#
# Elastic Constant Matrix: (Units=GPa)
#
#
# Indices 1 2 3 4 5 6 
#
# 1 79.8207 17.1913 54.3131 0.0000 0.0000 0.0000
# 2 17.1913 49.5882 30.7211 0.0000 0.0000 0.0000
# 3 54.3131 30.7211 132.6164 0.0000 0.0000 0.0000
# 4 0.0000 0.0000 0.0000 3.4342 0.0000 0.0000
# 5 0.0000 0.0000 0.0000 0.0000 25.6535 0.0000
# 6 0.0000 0.0000 0.0000 0.0000 0.0000 12.6311
#
#
#
# Elastic Compliance Matrix: (Units=1/GPa)
#
#
# Indices 1 2 3 4 5 6 
#
# 1 0.017520 -0.001901 -0.006735 0.000000 0.000000 0.000000
# 2 -0.001901 0.023752 -0.004723 0.000000 0.000000 0.000000
# 3 -0.006735 -0.004723 0.011393 0.000000 0.000000 0.000000
# 4 0.000000 0.000000 0.000000 0.291189 0.000000 0.000000
# 5 0.000000 0.000000 0.000000 0.000000 0.038981 0.000000
# 6 0.000000 0.000000 0.000000 0.000000 0.000000 0.079169
#
#
# Mechanical properties :
#
#
# Convention : Reuss Voigt Hill
#
# Bulk Modulus (GPa) = 38.54269 51.83068 45.18669
# Shear Modulus (GPa) = 10.05283 18.99708 14.52496
#
# Velocity S-wave (km/s) = 2.30112 3.16329 2.76600
# Velocity P-wave (km/s) = 5.23086 6.37516 5.83115
#
# Compressibility (1/GPa) = 0.02594526
#
# Stress axis : x y z
#
# Youngs Moduli (GPa) = 57.07643 42.10254 87.77278
#
# Poissons Ratio (x) = 0.08006 0.59115
# Poissons Ratio (y) = 0.10853 0.41458
# Poissons Ratio (z) = 0.38441 0.19887
#
# Static dielectric constant tensor:
#      x y z
#    x 3.523880 0.000000 0.000000 
#    y 0.000000 3.216900 0.000000 
#    z 0.000000 0.000000 3.818770 
# 
# 
# High freq. dielectric constant tensor:
#      x y z
#    x 1.736220 0.000000 0.000000 
#    y 0.000000 1.700910 0.000000 
#    z 0.000000 0.000000 1.736120 
# 
# From -- ./inp_files/30027.got.cif
#   From: 2010.03.12/outbox.cif.g09.slc.cpg/sg42_16_cif.got.tgz:30027.got - 2010.04.14 02:04:31.
