data_PCOD8186050
_publ_section_title
;
Structure prediction by ZEFSAII (Michael W. Deem and Ramdas Pophale) SiO2 
 PCOD8186050
Probable space group: F M M 2
;
_chemical_formula_sum "Si O2"
_cell_formula_units_Z 64
_cell_length_a 9.229122
_cell_length_b 17.548580
_cell_length_c 24.176246
_cell_angle_alpha 90.000000
_cell_angle_beta 90.000000
_cell_angle_gamma 90.000000
_cell_volume 3915.536105
_symmetry_space_group_name_H-M "F M M 2"
_symmetry_group_IT_number 42
_symmetry_cell_setting 'orthorhombic'
loop_
_space_group_symop_operation_xyz
x,y,z
-x,-y,z
-x,y,z
x,-y,z
x,1/2+y,1/2+z
-x,1/2-y,1/2+z
-x,1/2+y,1/2+z
x,1/2-y,1/2+z
1/2+x,y,1/2+z
1/2-x,-y,1/2+z
1/2-x,y,1/2+z
1/2+x,-y,1/2+z
1/2+x,1/2+y,z
1/2-x,1/2-y,z
1/2-x,1/2+y,z
1/2+x,1/2-y,z
loop_
_atom_site_type_symbol
_atom_site_label
_atom_site_fract_x
_atom_site_fract_y
_atom_site_fract_z
Si Si1 0.500000 0.589874 0.720970
Si Si2 0.828175 0.087526 0.529118
Si Si3 0.338352 0.674451 0.933990
Si Si4 0.658878 0.323240 0.635565
Si Si5 0.500000 0.409746 0.847619
O O1 0.500000 0.500000 0.715106
O O2 0.356699 0.622680 0.689886
O O3 0.500000 0.616690 0.784194
O O4 0.748271 0.125049 0.477860
O O5 0.773092 0.129473 0.584758
O O6 0.000000 0.094613 0.521326
O O7 0.780416 0.000000 0.533427
O O8 0.500000 0.695254 0.957025
O O9 0.250000 0.750000 0.919420
O O10 0.356752 0.624543 0.877782
O O11 0.500000 0.294208 0.616910
O O12 0.750000 0.250000 0.651863
O O13 0.500000 0.500000 0.853321
#
# Coordination Sequence:
#
# PCOD8186050 Si02
#       5
#     8  16  16  16   8
#     4   9  18  36  57  74 101 141 181 216 256 316
#     4  10  19  32  53  78 111 143 173 214 265 323
#     4  10  21  34  52  78 108 138 176 217 263 315
#     4   9  19  32  52  80 104 135 173 216 259 310
#     4   9  20  36  55  76 103 139 181 220 258 312
#
# _framework density 16.345143
#
# number of rings (size 3 to 8) (size 9 to 14) (size 15 to 20)
#    1.500    1.000    0.000    3.000    0.000    4.000 
#    0.000    0.000    0.000    2.250    0.000    3.500 
#    0.000    0.000    0.000    0.000    0.000    0.000 
#
# Total GULP energy -198252.802529 kJ/mol
# GULP energy per Si atom -12390.800158 kJ/mol
# Density = 1.630794 g / cm^3
# Si number density = 16.345143 Si / 1000 Ang^3
#
#
#
# Elastic Constant Matrix: (Units=GPa)
#
#
# Indices 1 2 3 4 5 6 
#
# 1 41.2046 44.9487 33.0099 0.0000 0.0000 0.0000
# 2 44.9487 127.0343 75.2299 0.0000 0.0000 0.0000
# 3 33.0099 75.2299 157.6231 0.0000 0.0000 0.0000
# 4 0.0000 0.0000 0.0000 24.1070 0.0000 0.0000
# 5 0.0000 0.0000 0.0000 0.0000 24.4452 0.0000
# 6 0.0000 0.0000 0.0000 0.0000 0.0000 31.7283
#
#
#
# Elastic Compliance Matrix: (Units=1/GPa)
#
#
# Indices 1 2 3 4 5 6 
#
# 1 0.040098 -0.012846 -0.002266 0.000000 0.000000 0.000000
# 2 -0.012846 0.015089 -0.004511 0.000000 0.000000 0.000000
# 3 -0.002266 -0.004511 0.008972 0.000000 0.000000 0.000000
# 4 0.000000 0.000000 0.000000 0.041482 0.000000 0.000000
# 5 0.000000 0.000000 0.000000 0.000000 0.040908 0.000000
# 6 0.000000 0.000000 0.000000 0.000000 0.000000 0.031518
#
#
# Mechanical properties :
#
#
# Convention : Reuss Voigt Hill
#
# Bulk Modulus (GPa) = 40.14188 70.24878 55.19533
# Shear Modulus (GPa) = 22.16153 27.56768 24.86460
#
# Velocity S-wave (km/s) = 3.68618 4.11128 3.90452
# Velocity P-wave (km/s) = 6.53678 8.09991 7.35996
#
# Compressibility (1/GPa) = 0.02491164
#
# Stress axis : x y z
#
# Youngs Moduli (GPa) = 24.93907 66.27487 111.45733
#
# Poissons Ratio (x) = 0.85134 0.25262
# Poissons Ratio (y) = 0.32036 0.50282
# Poissons Ratio (z) = 0.05652 0.29899
#
# Static dielectric constant tensor:
#      x y z
#    x 2.878750 0.000000 0.000000 
#    y 0.000000 3.110880 0.000000 
#    z 0.000000 0.000000 3.046590 
# 
# 
# High freq. dielectric constant tensor:
#      x y z
#    x 1.604780 0.000000 0.000000 
#    y 0.000000 1.641410 0.000000 
#    z 0.000000 0.000000 1.626750 
# 
# From -- ./inp_files/27565.got.cif
#   From: 2010.03.12/outbox.cif.g09.slc.cpg/sg42_14_cif.got.tgz:27565.got - 2010.04.14 02:04:31.
