data_PCOD8186033
_publ_section_title
;
Structure prediction by ZEFSAII (Michael W. Deem and Ramdas Pophale) SiO2 
 PCOD8186033
Probable space group: F M M 2
;
_chemical_formula_sum "Si O2"
_cell_formula_units_Z 128
_cell_length_a 19.401864
_cell_length_b 18.253045
_cell_length_c 20.922179
_cell_angle_alpha 90.000000
_cell_angle_beta 90.000000
_cell_angle_gamma 90.000000
_cell_volume 7409.445260
_symmetry_space_group_name_H-M "F M M 2"
_symmetry_group_IT_number 42
_symmetry_cell_setting 'orthorhombic'
loop_
_space_group_symop_operation_xyz
x,y,z
-x,-y,z
-x,y,z
x,-y,z
x,1/2+y,1/2+z
-x,1/2-y,1/2+z
-x,1/2+y,1/2+z
x,1/2-y,1/2+z
1/2+x,y,1/2+z
1/2-x,-y,1/2+z
1/2-x,y,1/2+z
1/2+x,-y,1/2+z
1/2+x,1/2+y,z
1/2-x,1/2-y,z
1/2-x,1/2+y,z
1/2+x,1/2-y,z
loop_
_atom_site_type_symbol
_atom_site_label
_atom_site_fract_x
_atom_site_fract_y
_atom_site_fract_z
Si Si1 0.577386 0.185143 0.569720
Si Si2 0.076039 0.585214 0.449343
Si Si3 0.076774 0.349724 0.047725
Si Si4 0.287768 0.086024 0.008590
Si Si5 0.719290 0.330622 0.126898
Si Si6 0.217571 0.414555 0.243128
Si Si7 0.710259 0.913328 0.383575
Si Si8 0.076266 0.083254 0.682098
O O1 0.500000 0.179954 0.600034
O O2 0.588115 0.124363 0.516281
O O3 0.587352 0.263684 0.535789
O O4 0.636009 0.172499 0.623071
O O5 0.086374 0.500000 0.464569
O O6 0.131856 0.612277 0.397722
O O7 0.000000 0.601909 0.421501
O O8 0.089234 0.363378 0.122783
O O9 0.000000 0.375103 0.027413
O O10 0.131120 0.395898 0.006622
O O11 0.258558 0.115116 0.940954
O O12 0.275092 0.000000 0.017422
O O13 0.250711 0.126694 0.066740
O O14 0.750000 0.250000 0.127357
O O15 0.736818 0.370716 0.192780
O O16 0.235943 0.500000 0.235833
O O17 0.234190 0.383485 0.314265
O O18 0.135547 0.401402 0.233652
O O19 0.713318 0.000000 0.379425
O O20 0.000000 0.097076 0.712248
O O21 0.081792 0.000000 0.656450
#
# Coordination Sequence:
#
# PCOD8186033 Si02
#       8
#    16  16  16  16  16  16  16  16
#     4  10  20  33  51  76 107 139 173 217 265 310
#     4   9  17  30  49  73 102 137 177 217 263 319
#     4  10  19  32  51  77 107 135 168 214 269 321
#     4  11  20  33  55  80 105 138 175 217 263 313
#     4  12  21  34  54  79 106 138 178 217 261 313
#     4  10  20  34  51  74 104 139 176 219 263 311
#     4   9  19  33  50  74 105 137 173 217 266 309
#     4   9  16  27  46  73 103 133 166 205 260 323
#
# _framework density 17.275248000000001
#
# number of rings (size 3 to 8) (size 9 to 14) (size 15 to 20)
#    0.000    2.000    3.750    0.750    0.000    1.750 
#    0.000    4.375    0.000    0.750    0.000    1.750 
#    0.000    0.000    0.000    0.000    0.000    0.000 
#
# Total GULP energy -396674.870015 kJ/mol
# GULP energy per Si atom -12396.089688 kJ/mol
# Density = 1.723593 g / cm^3
# Si number density = 17.275248 Si / 1000 Ang^3
#
#
#
# Elastic Constant Matrix: (Units=GPa)
#
#
# Indices 1 2 3 4 5 6 
#
# 1 124.5693 30.5521 70.9892 0.0000 0.0000 0.0000
# 2 30.5521 62.0038 39.4365 0.0000 0.0000 0.0000
# 3 70.9892 39.4365 123.6856 0.0000 0.0000 0.0000
# 4 0.0000 0.0000 0.0000 3.4180 0.0000 0.0000
# 5 0.0000 0.0000 0.0000 0.0000 22.8304 0.0000
# 6 0.0000 0.0000 0.0000 0.0000 0.0000 23.7677
#
#
#
# Elastic Compliance Matrix: (Units=1/GPa)
#
#
# Indices 1 2 3 4 5 6 
#
# 1 0.012113 -0.001940 -0.006334 0.000000 0.000000 0.000000
# 2 -0.001940 0.020542 -0.005436 0.000000 0.000000 0.000000
# 3 -0.006334 -0.005436 0.013453 0.000000 0.000000 0.000000
# 4 0.000000 0.000000 0.000000 0.292571 0.000000 0.000000
# 5 0.000000 0.000000 0.000000 0.000000 0.043801 0.000000
# 6 0.000000 0.000000 0.000000 0.000000 0.000000 0.042074
#
#
# Mechanical properties :
#
#
# Convention : Reuss Voigt Hill
#
# Bulk Modulus (GPa) = 53.50938 65.80159 59.65548
# Shear Modulus (GPa) = 10.91220 21.28860 16.10040
#
# Velocity S-wave (km/s) = 2.51602 3.51425 3.05617
# Velocity P-wave (km/s) = 6.28350 7.39184 6.86009
#
# Compressibility (1/GPa) = 0.01868831
#
# Stress axis : x y z
#
# Youngs Moduli (GPa) = 82.55689 48.68184 74.33077
#
# Poissons Ratio (x) = 0.09445 0.47078
# Poissons Ratio (y) = 0.16018 0.40406
# Poissons Ratio (z) = 0.52288 0.26463
#
# Static dielectric constant tensor:
#      x y z
#    x 3.586910 0.000000 0.000000 
#    y 0.000000 3.187620 0.000000 
#    z 0.000000 0.000000 3.139970 
# 
# 
# High freq. dielectric constant tensor:
#      x y z
#    x 1.679940 0.000000 0.000000 
#    y 0.000000 1.658640 0.000000 
#    z 0.000000 0.000000 1.636520 
# 
# From -- ./inp_files/26620.got.cif
#   From: 2010.03.12/outbox.cif.g09.slc.cpg/sg42_14_cif.got.tgz:26620.got - 2010.04.14 02:04:31.
