data_PCOD8186342
_publ_section_title
;
Structure prediction by ZEFSAII (Michael W. Deem and Ramdas Pophale) SiO2 
 PCOD8186342
Probable space group: F M M 2
;
_chemical_formula_sum "Si O2"
_cell_formula_units_Z 80
_cell_length_a 8.546953
_cell_length_b 25.695505
_cell_length_c 19.854908
_cell_angle_alpha 90.000000
_cell_angle_beta 90.000000
_cell_angle_gamma 90.000000
_cell_volume 4360.500616
_symmetry_space_group_name_H-M "F M M 2"
_symmetry_group_IT_number 42
_symmetry_cell_setting 'orthorhombic'
loop_
_space_group_symop_operation_xyz
x,y,z
-x,-y,z
-x,y,z
x,-y,z
x,1/2+y,1/2+z
-x,1/2-y,1/2+z
-x,1/2+y,1/2+z
x,1/2-y,1/2+z
1/2+x,y,1/2+z
1/2-x,-y,1/2+z
1/2-x,y,1/2+z
1/2+x,-y,1/2+z
1/2+x,1/2+y,z
1/2-x,1/2-y,z
1/2-x,1/2+y,z
1/2+x,1/2-y,z
loop_
_atom_site_type_symbol
_atom_site_label
_atom_site_fract_x
_atom_site_fract_y
_atom_site_fract_z
Si Si1 0.684876 0.694346 0.047920
Si Si2 0.315916 0.693995 0.692060
Si Si3 0.315967 0.390612 0.291701
Si Si4 0.170132 0.500000 0.448836
Si Si5 0.312294 0.110731 0.438840
Si Si6 0.326617 0.000000 0.289458
O O1 0.500000 0.696920 0.052591
O O2 0.750000 0.750000 0.025778
O O3 0.750230 0.676548 0.119732
O O4 0.741333 0.653962 0.991481
O O5 0.500000 0.698989 0.686690
O O6 0.250000 0.750000 0.714184
O O7 0.270174 0.651223 0.746010
O O8 0.500000 0.384672 0.283280
O O9 0.267321 0.377498 0.367837
O O10 0.266282 0.448252 0.267261
O O11 0.252661 0.445228 0.467905
O O12 0.154441 0.500000 0.368792
O O13 0.000000 0.500000 0.483508
O O14 0.500000 0.108145 0.429003
O O15 0.500000 0.000000 0.256222
#
# Coordination Sequence:
#
# PCOD8186342 Si02
#       6
#    16  16  16   8  16   8
#     4  10  20  35  54  76 104 138 176 216 263 318
#     4  11  22  38  57  76 104 141 180 222 271 322
#     4  11  21  34  55  83 111 140 179 221 263 315
#     4   7  12  27  50  73  98 131 167 205 253 303
#     4   9  18  33  54  78 105 138 175 216 263 312
#     4   9  17  33  54  77 108 143 177 215 265 315
#
# _framework density 18.346518
#
# number of rings (size 3 to 8) (size 9 to 14) (size 15 to 20)
#    0.000    2.200    0.000    6.900    0.000    2.400 
#    0.000    3.000    0.000    2.400    0.000    0.000 
#    0.000    0.000    0.000    0.000    0.000    0.000 
#
# Total GULP energy -247907.435588 kJ/mol
# GULP energy per Si atom -12395.371779 kJ/mol
# Density = 1.830476 g / cm^3
# Si number density = 18.346518 Si / 1000 Ang^3
#
#
#
# Elastic Constant Matrix: (Units=GPa)
#
#
# Indices 1 2 3 4 5 6 
#
# 1 71.1840 24.4137 19.4635 0.0000 0.0000 0.0000
# 2 24.4137 145.7289 78.8714 0.0000 0.0000 0.0000
# 3 19.4635 78.8714 82.9270 0.0000 0.0000 0.0000
# 4 0.0000 0.0000 0.0000 -21.0794 0.0000 0.0000
# 5 0.0000 0.0000 0.0000 0.0000 26.7587 0.0000
# 6 0.0000 0.0000 0.0000 0.0000 0.0000 27.3486
#
#
#
# Elastic Compliance Matrix: (Units=1/GPa)
#
#
# Indices 1 2 3 4 5 6 
#
# 1 0.015123 -0.001262 -0.002349 0.000000 0.000000 0.000000
# 2 -0.001262 0.014247 -0.013254 0.000000 0.000000 0.000000
# 3 -0.002349 -0.013254 0.025216 0.000000 0.000000 0.000000
# 4 0.000000 0.000000 0.000000 -0.047440 0.000000 0.000000
# 5 0.000000 0.000000 0.000000 0.000000 0.037371 0.000000
# 6 0.000000 0.000000 0.000000 0.000000 0.000000 0.036565
#
#
# Mechanical properties :
#
#
# Convention : Reuss Voigt Hill
#
# Bulk Modulus (GPa) = 47.94850 60.59304 54.27077
# Shear Modulus (GPa) = 41.06315 18.41167 29.73741
#
# Velocity S-wave (km/s) = 4.73609 3.17132 4.03038
# Velocity P-wave (km/s) = 7.48993 6.81971 7.16266
#
# Compressibility (1/GPa) = 0.02085571
#
# Stress axis : x y z
#
# Youngs Moduli (GPa) = 66.12319 70.19181 39.65794
#
# Poissons Ratio (x) = 0.08860 0.09316
# Poissons Ratio (y) = 0.08346 0.52561
# Poissons Ratio (z) = 0.15532 0.93030
#
# Static dielectric constant tensor:
#      x y z
#    x 3.394010 0.000000 0.000000 
#    y 0.000000 3.879770 0.000000 
#    z 0.000000 0.000000 3.184310 
# 
# 
# High freq. dielectric constant tensor:
#      x y z
#    x 1.713770 0.000000 0.000000 
#    y 0.000000 1.729850 0.000000 
#    z 0.000000 0.000000 1.685870 
# 
# From -- ./inp_files/18260.got.cif
#   From: 2010.03.12/outbox.cif.g09.slc.cpg/sg42_10_cif.got.tgz:18260.got - 2010.04.14 02:04:31.
