data_PCOD8186492
_publ_section_title
;
Structure prediction by ZEFSAII (Michael W. Deem and Ramdas Pophale) SiO2 
 PCOD8186492
Probable space group: F M M 2
;
_chemical_formula_sum "Si O2"
_cell_formula_units_Z 64
_cell_length_a 18.172820
_cell_length_b 7.608467
_cell_length_c 24.095350
_cell_angle_alpha 90.000000
_cell_angle_beta 90.000000
_cell_angle_gamma 90.000000
_cell_volume 3331.599018
_symmetry_space_group_name_H-M "F M M 2"
_symmetry_group_IT_number 42
_symmetry_cell_setting 'orthorhombic'
loop_
_space_group_symop_operation_xyz
x,y,z
-x,-y,z
-x,y,z
x,-y,z
x,1/2+y,1/2+z
-x,1/2-y,1/2+z
-x,1/2+y,1/2+z
x,1/2-y,1/2+z
1/2+x,y,1/2+z
1/2-x,-y,1/2+z
1/2-x,y,1/2+z
1/2+x,-y,1/2+z
1/2+x,1/2+y,z
1/2-x,1/2-y,z
1/2-x,1/2+y,z
1/2+x,1/2-y,z
loop_
_atom_site_type_symbol
_atom_site_label
_atom_site_fract_x
_atom_site_fract_y
_atom_site_fract_z
Si Si1 0.835712 0.295297 0.278110
Si Si2 0.833721 0.797948 0.656045
Si Si3 0.914011 0.000000 0.474910
Si Si4 0.413948 0.000000 0.845830
Si Si5 0.664917 0.695640 0.039292
O O1 0.847385 0.500000 0.292947
O O2 0.750000 0.250000 0.282177
O O3 0.869068 0.254839 0.216225
O O4 0.880129 0.177136 0.320881
O O5 0.750000 0.750000 0.664375
O O6 0.866660 0.695610 0.602841
O O7 0.842986 0.000000 0.640492
O O8 0.880402 0.175471 0.500646
O O9 0.895064 0.000000 0.410427
O O10 0.000000 0.000000 0.486977
O O11 0.500000 0.000000 0.834151
O O12 0.656221 0.500000 0.014884
O O13 0.750000 0.750000 0.040627
#
# Coordination Sequence:
#
# PCOD8186492 Si02
#       5
#    16  16   8   8  16
#     4  10  20  37  64  96 120 154 201 248 293 352
#     4   9  16  29  57  92 126 150 187 244 300 352
#     4  11  26  46  59  82 125 163 199 248 303 358
#     4  11  26  44  61  82 123 167 197 244 307 358
#     4  11  20  37  65  95 119 156 200 248 296 352
#
# _framework density 19.209994999999999
#
# number of rings (size 3 to 8) (size 9 to 14) (size 15 to 20)
#    0.000    1.750    3.750    2.250    3.500    3.000 
#    0.000    3.750    0.000    0.000    0.000    0.000 
#    0.000    0.000    0.000    0.000    0.000    0.000 
#
# Total GULP energy -198295.384076 kJ/mol
# GULP energy per Si atom -12393.461505 kJ/mol
# Density = 1.916627 g / cm^3
# Si number density = 19.209995 Si / 1000 Ang^3
#
#
#
# Elastic Constant Matrix: (Units=GPa)
#
#
# Indices 1 2 3 4 5 6 
#
# 1 67.6891 54.0473 73.1138 0.0001 0.0000 -0.0003
# 2 54.0473 172.3674 82.9847 0.0001 0.0001 -0.0004
# 3 73.1138 82.9847 142.7780 0.0000 0.0000 0.0000
# 4 0.0001 0.0001 0.0000 40.2319 0.0001 -0.0001
# 5 0.0000 0.0001 0.0000 0.0001 -100.9546 -0.0001
# 6 -0.0003 -0.0004 0.0000 -0.0001 -0.0001 19.6320
#
#
#
# Elastic Compliance Matrix: (Units=1/GPa)
#
#
# Indices 1 2 3 4 5 6 
#
# 1 0.034277 -0.003190 -0.015699 0.000000 0.000000 0.000000
# 2 -0.003190 0.008353 -0.003221 0.000000 0.000000 0.000000
# 3 -0.015699 -0.003221 0.016915 0.000000 0.000000 0.000000
# 4 0.000000 0.000000 0.000000 0.024856 0.000000 0.000000
# 5 0.000000 0.000000 0.000000 0.000000 -0.009905 0.000000
# 6 0.000000 0.000000 0.000000 0.000000 0.000000 0.050937
#
#
# Mechanical properties :
#
#
# Convention : Reuss Voigt Hill
#
# Bulk Modulus (GPa) = 65.25128 89.23623 77.24376
# Shear Modulus (GPa) = 28.61060 3.29445 15.95252
#
# Velocity S-wave (km/s) = 3.86341 1.31099 2.88484
# Velocity P-wave (km/s) = 7.34454 6.98895 7.16895
#
# Compressibility (1/GPa) = 0.01532537
#
# Stress axis : x y z
#
# Youngs Moduli (GPa) = 29.17387 119.72341 59.11900
#
# Poissons Ratio (x) = 0.38191 0.92809
# Poissons Ratio (y) = 0.09306 0.19043
# Poissons Ratio (z) = 0.45799 0.38565
#
# Static dielectric constant tensor:
#      x y z
#    x 3.154050 0.000000 0.000000 
#    y 0.000000 3.594310 0.000000 
#    z 0.000000 0.000000 3.839680 
# 
# 
# High freq. dielectric constant tensor:
#      x y z
#    x 1.703320 0.000000 0.000000 
#    y 0.000000 1.765310 0.000000 
#    z 0.000000 0.000000 1.758260 
# 
# From -- ./inp_files/23174.got.cif
#   From: 2010.03.12/outbox.cif.g09.slc.cpg/sg42_12_cif.got.tgz:23174.got - 2010.04.14 02:04:31.
