data_PCOD8186090
_publ_section_title
;
Structure prediction by ZEFSAII (Michael W. Deem and Ramdas Pophale) SiO2 
 PCOD8186090
Probable space group: F M M 2
;
_chemical_formula_sum "Si O2"
_cell_formula_units_Z 96
_cell_length_a 8.635296
_cell_length_b 18.925992
_cell_length_c 30.560837
_cell_angle_alpha 90.000000
_cell_angle_beta 90.000000
_cell_angle_gamma 90.000000
_cell_volume 4994.604747
_symmetry_space_group_name_H-M "F M M 2"
_symmetry_group_IT_number 42
_symmetry_cell_setting 'orthorhombic'
loop_
_space_group_symop_operation_xyz
x,y,z
-x,-y,z
-x,y,z
x,-y,z
x,1/2+y,1/2+z
-x,1/2-y,1/2+z
-x,1/2+y,1/2+z
x,1/2-y,1/2+z
1/2+x,y,1/2+z
1/2-x,-y,1/2+z
1/2-x,y,1/2+z
1/2+x,-y,1/2+z
1/2+x,1/2+y,z
1/2-x,1/2-y,z
1/2-x,1/2+y,z
1/2+x,1/2-y,z
loop_
_atom_site_type_symbol
_atom_site_label
_atom_site_fract_x
_atom_site_fract_y
_atom_site_fract_z
Si Si1 0.816379 0.826341 0.050190
Si Si2 0.683735 0.325904 0.209172
Si Si3 0.181672 0.674704 0.958112
Si Si4 0.318404 0.674753 0.801880
Si Si5 0.320395 0.418029 0.375507
Si Si6 0.315880 0.078982 0.629719
O O1 0.750000 0.750000 0.062099
O O2 0.755335 0.880912 0.086592
O O3 0.000000 0.821783 0.049456
O O4 0.756614 0.852475 0.003139
O O5 0.500000 0.321335 0.210750
O O6 0.750000 0.250000 0.196032
O O7 0.745374 0.350676 0.256221
O O8 0.743179 0.381548 0.173225
O O9 0.250000 0.750000 0.943517
O O10 0.222866 0.617398 0.921530
O O11 0.000000 0.683782 0.965192
O O12 0.500000 0.683812 0.795769
O O13 0.250000 0.750000 0.817018
O O14 0.282651 0.615816 0.837688
O O15 0.500000 0.405848 0.364093
O O16 0.278309 0.500000 0.379056
O O17 0.500000 0.077004 0.629486
O O18 0.246744 0.000000 0.629659
#
# Coordination Sequence:
#
# PCOD8186090 Si02
#       6
#    16  16  16  16  16  16
#     4  10  19  33  55  79 105 137 175 220 264 310
#     4  10  19  34  57  80 105 139 178 221 266 314
#     4  10  20  35  56  80 106 138 178 221 264 314
#     4  11  22  37  58  83 110 140 180 226 270 319
#     4  10  22  39  57  79 110 146 180 218 269 325
#     4   9  19  34  52  77 107 140 177 215 260 315
#
# _framework density 19.220741
#
# number of rings (size 3 to 8) (size 9 to 14) (size 15 to 20)
#    0.000    2.000    0.000    6.000    0.000    4.333 
#    0.000    4.167    0.000    7.000    0.000    0.000 
#    0.000    0.000    0.000    0.000    0.000    0.000 
#
# Total GULP energy -297674.933928 kJ/mol
# GULP energy per Si atom -12403.122247 kJ/mol
# Density = 1.917699 g / cm^3
# Si number density = 19.220741 Si / 1000 Ang^3
#
#
#
# Elastic Constant Matrix: (Units=GPa)
#
#
# Indices 1 2 3 4 5 6 
#
# 1 89.4920 40.7620 48.7642 0.0000 0.0000 0.0000
# 2 40.7620 142.0752 103.2029 0.0000 0.0000 0.0000
# 3 48.7642 103.2029 152.3349 0.0000 0.0000 0.0000
# 4 0.0000 0.0000 0.0000 16.0574 0.0000 0.0000
# 5 0.0000 0.0000 0.0000 0.0000 27.3254 0.0000
# 6 0.0000 0.0000 0.0000 0.0000 0.0000 22.7040
#
#
#
# Elastic Compliance Matrix: (Units=1/GPa)
#
#
# Indices 1 2 3 4 5 6 
#
# 1 0.013688 -0.001466 -0.003389 0.000000 0.000000 0.000000
# 2 -0.001466 0.014015 -0.009026 0.000000 0.000000 0.000000
# 3 -0.003389 -0.009026 0.013764 0.000000 0.000000 0.000000
# 4 0.000000 0.000000 0.000000 0.062277 0.000000 0.000000
# 5 0.000000 0.000000 0.000000 0.000000 0.036596 0.000000
# 6 0.000000 0.000000 0.000000 0.000000 0.000000 0.044045
#
#
# Mechanical properties :
#
#
# Convention : Reuss Voigt Hill
#
# Bulk Modulus (GPa) = 72.95496 85.48447 79.21972
# Shear Modulus (GPa) = 23.07173 25.96223 24.51698
#
# Velocity S-wave (km/s) = 3.46837 3.67923 3.57536
# Velocity P-wave (km/s) = 7.35379 7.91332 7.63868
#
# Compressibility (1/GPa) = 0.01370709
#
# Stress axis : x y z
#
# Youngs Moduli (GPa) = 73.05490 71.35018 72.65256
#
# Poissons Ratio (x) = 0.10457 0.24621
# Poissons Ratio (y) = 0.10706 0.65576
# Poissons Ratio (z) = 0.24758 0.64400
#
# Static dielectric constant tensor:
#      x y z
#    x 3.421300 0.000000 0.000000 
#    y 0.000000 3.567400 0.000000 
#    z 0.000000 0.000000 3.712870 
# 
# 
# High freq. dielectric constant tensor:
#      x y z
#    x 1.742420 0.000000 0.000000 
#    y 0.000000 1.743300 0.000000 
#    z 0.000000 0.000000 1.762150 
# 
# From -- ./inp_files/31460.got.cif
#   From: 2010.03.12/outbox.cif.g09.slc.cpg/sg42_16_cif.got.tgz:31460.got - 2010.04.14 02:04:31.
