data_PCOD8186012
_publ_section_title
;
Structure prediction by ZEFSAII (Michael W. Deem and Ramdas Pophale) SiO2 
 PCOD8186012
Probable space group: F M M 2
;
_chemical_formula_sum "Si O2"
_cell_formula_units_Z 96
_cell_length_a 9.175483
_cell_length_b 18.835691
_cell_length_c 30.509329
_cell_angle_alpha 90.000000
_cell_angle_beta 90.000000
_cell_angle_gamma 90.000000
_cell_volume 5272.822457
_symmetry_space_group_name_H-M "F M M 2"
_symmetry_group_IT_number 42
_symmetry_cell_setting 'orthorhombic'
loop_
_space_group_symop_operation_xyz
x,y,z
-x,-y,z
-x,y,z
x,-y,z
x,1/2+y,1/2+z
-x,1/2-y,1/2+z
-x,1/2+y,1/2+z
x,1/2-y,1/2+z
1/2+x,y,1/2+z
1/2-x,-y,1/2+z
1/2-x,y,1/2+z
1/2+x,-y,1/2+z
1/2+x,1/2+y,z
1/2-x,1/2-y,z
1/2-x,1/2+y,z
1/2+x,1/2-y,z
loop_
_atom_site_type_symbol
_atom_site_label
_atom_site_fract_x
_atom_site_fract_y
_atom_site_fract_z
Si Si1 0.327281 0.078825 0.085360
Si Si2 0.327352 0.579196 0.425205
Si Si3 0.326507 0.174676 0.006115
Si Si4 0.835996 0.416190 0.182970
Si Si5 0.829393 0.321738 0.748507
Si Si6 0.170319 0.678607 0.848356
O O1 0.500000 0.073072 0.082482
O O2 0.282567 0.104821 0.134029
O O3 0.262546 0.000000 0.075625
O O4 0.269994 0.135425 0.050046
O O5 0.500000 0.573485 0.426971
O O6 0.259415 0.500000 0.428104
O O7 0.272654 0.626793 0.465561
O O8 0.276540 0.614797 0.379561
O O9 0.500000 0.185287 0.005958
O O10 0.250000 0.250000 0.002757
O O11 0.833259 0.500000 0.188117
O O12 0.724897 0.384795 0.217951
O O13 0.000000 0.387613 0.191419
O O14 0.750000 0.250000 0.734003
O O15 0.789965 0.341867 0.798533
O O16 0.000000 0.310837 0.742062
O O17 0.250000 0.750000 0.863272
O O18 0.000000 0.693016 0.854081
#
# Coordination Sequence:
#
# PCOD8186012 Si02
#       6
#    16  16  16  16  16  16
#     4   8  15  30  51  72  94 124 162 199 235 279
#     4   9  17  30  50  74  96 122 159 197 232 277
#     4  10  19  31  50  74  98 125 157 194 235 281
#     4   9  18  33  52  73  99 130 163 202 247 293
#     4  10  20  33  50  72  99 131 166 204 245 290
#     4   9  18  32  50  71  96 126 158 197 241 283
#
# _framework density 18.206568000000001
#
# number of rings (size 3 to 8) (size 9 to 14) (size 15 to 20)
#    0.000    2.833    0.000    2.500    0.000    4.333 
#    0.000    4.167    0.000    4.500    0.000    0.000 
#    0.000    0.000    0.000    0.000    0.000    0.000 
#
# Total GULP energy -297559.608523 kJ/mol
# GULP energy per Si atom -12398.317022 kJ/mol
# Density = 1.816513 g / cm^3
# Si number density = 18.206568 Si / 1000 Ang^3
#
#
#
# Elastic Constant Matrix: (Units=GPa)
#
#
# Indices 1 2 3 4 5 6 
#
# 1 38.7327 34.6162 34.2110 0.0000 0.0000 0.0000
# 2 34.6162 132.3276 85.2140 0.0000 0.0000 0.0000
# 3 34.2110 85.2140 133.0173 0.0000 0.0000 0.0000
# 4 0.0000 0.0000 0.0000 33.5879 0.0000 0.0000
# 5 0.0000 0.0000 0.0000 0.0000 18.8264 0.0000
# 6 0.0000 0.0000 0.0000 0.0000 0.0000 29.0168
#
#
#
# Elastic Compliance Matrix: (Units=1/GPa)
#
#
# Indices 1 2 3 4 5 6 
#
# 1 0.035895 -0.005864 -0.005475 0.000000 0.000000 0.000000
# 2 -0.005864 0.013822 -0.007346 0.000000 0.000000 0.000000
# 3 -0.005475 -0.007346 0.013632 0.000000 0.000000 0.000000
# 4 0.000000 0.000000 0.000000 0.029773 0.000000 0.000000
# 5 0.000000 0.000000 0.000000 0.000000 0.053117 0.000000
# 6 0.000000 0.000000 0.000000 0.000000 0.000000 0.034463
#
#
# Mechanical properties :
#
#
# Convention : Reuss Voigt Hill
#
# Bulk Modulus (GPa) = 38.49468 68.01778 53.25623
# Shear Modulus (GPa) = 22.05248 26.28864 24.17056
#
# Velocity S-wave (km/s) = 3.48406 3.80400 3.64754
# Velocity P-wave (km/s) = 6.11343 7.53219 6.85959
#
# Compressibility (1/GPa) = 0.02597762
#
# Stress axis : x y z
#
# Youngs Moduli (GPa) = 27.85908 72.34943 73.35547
#
# Poissons Ratio (x) = 0.42427 0.40164
# Poissons Ratio (y) = 0.16337 0.53890
# Poissons Ratio (z) = 0.15253 0.53151
#
# Static dielectric constant tensor:
#      x y z
#    x 3.039830 0.000000 0.000000 
#    y 0.000000 3.461540 0.000000 
#    z 0.000000 0.000000 3.653320 
# 
# 
# High freq. dielectric constant tensor:
#      x y z
#    x 1.665850 0.000000 0.000000 
#    y 0.000000 1.706070 0.000000 
#    z 0.000000 0.000000 1.719710 
# 
# From -- ./inp_files/31419.got.cif
#   From: 2010.03.12/outbox.cif.g09.slc.cpg/sg42_16_cif.got.tgz:31419.got - 2010.04.14 02:04:31.
