data_PCOD8186415
_publ_section_title
;
Structure prediction by ZEFSAII (Michael W. Deem and Ramdas Pophale) SiO2 
 PCOD8186415
Probable space group: F M M 2
;
_chemical_formula_sum "Si O2"
_cell_formula_units_Z 64
_cell_length_a 8.652019
_cell_length_b 26.885003
_cell_length_c 15.552463
_cell_angle_alpha 90.000000
_cell_angle_beta 90.000000
_cell_angle_gamma 90.000000
_cell_volume 3617.651525
_symmetry_space_group_name_H-M "F M M 2"
_symmetry_group_IT_number 42
_symmetry_cell_setting 'orthorhombic'
loop_
_space_group_symop_operation_xyz
x,y,z
-x,-y,z
-x,y,z
x,-y,z
x,1/2+y,1/2+z
-x,1/2-y,1/2+z
-x,1/2+y,1/2+z
x,1/2-y,1/2+z
1/2+x,y,1/2+z
1/2-x,-y,1/2+z
1/2-x,y,1/2+z
1/2+x,-y,1/2+z
1/2+x,1/2+y,z
1/2-x,1/2-y,z
1/2-x,1/2+y,z
1/2+x,1/2-y,z
loop_
_atom_site_type_symbol
_atom_site_label
_atom_site_fract_x
_atom_site_fract_y
_atom_site_fract_z
Si Si1 0.319127 0.357394 0.301750
Si Si2 0.319047 0.195471 0.139098
Si Si3 0.323490 0.444500 0.881449
Si Si4 0.675705 0.649915 0.974464
O O1 0.500000 0.348661 0.308563
O O2 0.259247 0.336962 0.212371
O O3 0.277767 0.416559 0.307917
O O4 0.235592 0.329000 0.381963
O O5 0.500000 0.198290 0.155541
O O6 0.250000 0.250000 0.139452
O O7 0.286570 0.169382 0.048471
O O8 0.500000 0.446723 0.848944
O O9 0.258830 0.500000 0.898944
O O10 0.314541 0.410809 0.968766
O O11 0.500000 0.667976 0.990876
#
# Coordination Sequence:
#
# PCOD8186415 Si02
#       4
#    16  16  16  16
#     4  10  20  36  57  84 115 148 185 229 275 331
#     4  12  24  39  58  82 111 148 188 233 279 332
#     4   8  16  34  59  83 112 148 184 227 277 327
#     4   9  19  37  58  83 114 147 184 229 275 330
#
# _framework density 17.691033999999998
#
# number of rings (size 3 to 8) (size 9 to 14) (size 15 to 20)
#    1.500    0.750    0.000    4.500    0.000    1.500 
#    0.000    6.250    0.000    4.500    0.000    0.000 
#    0.000    0.000    0.000    0.000    0.000    0.000 
#
# Total GULP energy -198223.490600 kJ/mol
# GULP energy per Si atom -12388.968163 kJ/mol
# Density = 1.765077 g / cm^3
# Si number density = 17.691034 Si / 1000 Ang^3
#
#
#
# Elastic Constant Matrix: (Units=GPa)
#
#
# Indices 1 2 3 4 5 6 
#
# 1 96.3800 28.8216 12.2094 0.0000 0.0000 0.0000
# 2 28.8216 114.9360 50.9004 0.0000 0.0000 0.0000
# 3 12.2094 50.9004 108.8096 0.0000 0.0000 0.0000
# 4 0.0000 0.0000 0.0000 26.8167 0.0000 0.0000
# 5 0.0000 0.0000 0.0000 0.0000 30.5168 0.0000
# 6 0.0000 0.0000 0.0000 0.0000 0.0000 7.8718
#
#
#
# Elastic Compliance Matrix: (Units=1/GPa)
#
#
# Indices 1 2 3 4 5 6 
#
# 1 0.011217 -0.002845 0.000072 0.000000 0.000000 0.000000
# 2 -0.002845 0.011695 -0.005152 0.000000 0.000000 0.000000
# 3 0.000072 -0.005152 0.011592 0.000000 0.000000 0.000000
# 4 0.000000 0.000000 0.000000 0.037290 0.000000 0.000000
# 5 0.000000 0.000000 0.000000 0.000000 0.032769 0.000000
# 6 0.000000 0.000000 0.000000 0.000000 0.000000 0.127035
#
#
# Mechanical properties :
#
#
# Convention : Reuss Voigt Hill
#
# Bulk Modulus (GPa) = 53.60253 55.99870 54.80061
# Shear Modulus (GPa) = 19.71093 28.25402 23.98247
#
# Velocity S-wave (km/s) = 3.34155 4.00069 3.68588
# Velocity P-wave (km/s) = 6.72703 7.28444 7.01128
#
# Compressibility (1/GPa) = 0.01865584
#
# Stress axis : x y z
#
# Youngs Moduli (GPa) = 89.14910 85.50388 86.26448
#
# Poissons Ratio (x) = 0.24324 -0.00622
# Poissons Ratio (y) = 0.25361 0.44442
# Poissons Ratio (z) = -0.00643 0.44050
#
# Static dielectric constant tensor:
#      x y z
#    x 3.321160 0.000000 0.000000 
#    y 0.000000 3.285020 0.000000 
#    z 0.000000 0.000000 3.076070 
# 
# 
# High freq. dielectric constant tensor:
#      x y z
#    x 1.697430 0.000000 0.000000 
#    y 0.000000 1.672950 0.000000 
#    z 0.000000 0.000000 1.666250 
# 
# From -- ./inp_files/12128.got.cif
#   From: 2010.03.12/outbox.cif.g09.slc.cpg/sg42_7_cif.got.tgz:12128.got - 2010.04.14 02:04:31.
