data_PCOD8186880
_publ_section_title
;
Structure prediction by ZEFSAII (Michael W. Deem and Ramdas Pophale) SiO2 
 PCOD8186880
Probable space group: F M M 2
;
_chemical_formula_sum "Si O2"
_cell_formula_units_Z 96
_cell_length_a 24.203589
_cell_length_b 21.812762
_cell_length_c 8.225876
_cell_angle_alpha 90.000000
_cell_angle_beta 90.000000
_cell_angle_gamma 90.000000
_cell_volume 4342.827596
_symmetry_space_group_name_H-M "F M M 2"
_symmetry_group_IT_number 42
_symmetry_cell_setting 'orthorhombic'
loop_
_space_group_symop_operation_xyz
x,y,z
-x,-y,z
-x,y,z
x,-y,z
x,1/2+y,1/2+z
-x,1/2-y,1/2+z
-x,1/2+y,1/2+z
x,1/2-y,1/2+z
1/2+x,y,1/2+z
1/2-x,-y,1/2+z
1/2-x,y,1/2+z
1/2+x,-y,1/2+z
1/2+x,1/2+y,z
1/2-x,1/2-y,z
1/2-x,1/2+y,z
1/2+x,1/2-y,z
loop_
_atom_site_type_symbol
_atom_site_label
_atom_site_fract_x
_atom_site_fract_y
_atom_site_fract_z
Si Si1 0.269176 0.428670 0.129530
Si Si2 0.153643 0.342425 0.466551
Si Si3 0.323832 0.121356 0.951324
Si Si4 0.061241 0.070086 0.511878
Si Si5 0.562300 0.568026 0.895601
Si Si6 0.312078 0.232979 0.158804
O O1 0.283866 0.500000 0.129358
O O2 0.291778 0.396971 0.289858
O O3 0.297879 0.393363 0.977805
O O4 0.203309 0.418201 0.101183
O O5 0.096434 0.378642 0.482482
O O6 0.155295 0.295671 0.619462
O O7 0.157921 0.305728 0.298092
O O8 0.389211 0.108760 0.931398
O O9 0.312952 0.192952 0.991395
O O10 0.066217 0.076181 0.703781
O O11 0.000000 0.093864 0.457005
O O12 0.068071 0.000000 0.456054
O O13 0.500000 0.575643 0.957050
O O14 0.584002 0.500000 0.944262
O O15 0.250000 0.250000 0.208718
#
# Coordination Sequence:
#
# PCOD8186880 Si02
#       6
#    16  16  16  16  16  16
#     4  12  26  41  64  99 138 171 217 282 345 408
#     4  12  24  43  65  94 131 176 226 271 335 398
#     4  12  24  43  63  98 134 176 223 270 338 408
#     4   9  18  36  65  97 130 170 216 269 331 399
#     4   9  19  39  68  99 129 168 220 280 345 405
#     4  12  25  41  64  92 129 179 221 269 325 401
#
# _framework density 22.105415000000001
#
# number of rings (size 3 to 8) (size 9 to 14) (size 15 to 20)
#    0.000    1.000    3.333    5.500    0.000    0.000 
#    0.000    2.500    0.000    3.000    0.000    0.000 
#    0.000    0.000    0.000    0.000    0.000    0.000 
#
# Total GULP energy -297550.692135 kJ/mol
# GULP energy per Si atom -12397.945506 kJ/mol
# Density = 2.205510 g / cm^3
# Si number density = 22.105415 Si / 1000 Ang^3
#
#
#
# Elastic Constant Matrix: (Units=GPa)
#
#
# Indices 1 2 3 4 5 6 
#
# 1 144.1363 52.2514 38.7489 0.0013 -0.0008 -0.0008
# 2 52.2514 133.8470 29.3695 0.0047 -0.0014 -0.0024
# 3 38.7489 29.3695 47.6743 0.0084 -0.0033 -0.0044
# 4 0.0013 0.0047 0.0084 27.2710 -0.0018 -0.0023
# 5 -0.0008 -0.0014 -0.0033 -0.0018 20.4102 0.0008
# 6 -0.0008 -0.0024 -0.0044 -0.0023 0.0008 45.2639
#
#
#
# Elastic Compliance Matrix: (Units=1/GPa)
#
#
# Indices 1 2 3 4 5 6 
#
# 1 0.009462 -0.002320 -0.006262 0.000002 -0.000001 -0.000001
# 2 -0.002320 0.009208 -0.003787 0.000000 0.000000 0.000000
# 3 -0.006262 -0.003787 0.028398 -0.000008 0.000004 0.000002
# 4 0.000002 0.000000 -0.000008 0.036669 0.000003 0.000002
# 5 -0.000001 0.000000 0.000004 0.000003 0.048995 -0.000001
# 6 -0.000001 0.000000 0.000002 0.000002 -0.000001 0.022093
#
#
# Mechanical properties :
#
#
# Convention : Reuss Voigt Hill
#
# Bulk Modulus (GPa) = 44.78038 62.93303 53.85670
# Shear Modulus (GPa) = 26.73726 32.27485 29.50605
#
# Velocity S-wave (km/s) = 3.48161 3.82520 3.65744
# Velocity P-wave (km/s) = 6.03852 6.93115 6.50018
#
# Compressibility (1/GPa) = 0.02233121
#
# Stress axis : x y z
#
# Youngs Moduli (GPa) = 105.68356 108.60358 35.21404
#
# Poissons Ratio (x) = 0.25195 0.22049
# Poissons Ratio (y) = 0.24518 0.13335
# Poissons Ratio (z) = 0.66174 0.41126
#
# Static dielectric constant tensor:
#      x y z
#    x 4.255690 0.000010 0.000010 
#    y 0.000010 4.220640 0.000000 
#    z 0.000010 0.000000 3.820800 
# 
# 
# High freq. dielectric constant tensor:
#      x y z
#    x 1.858260 0.000000 0.000000 
#    y 0.000000 1.875530 0.000000 
#    z 0.000000 0.000000 1.862600 
# 
# From -- ./inp_files/5166.got.cif
#   From: 2010.03.12/outbox.cif.g09.slc.cpg/sg42_3_cif.got.tgz:5166.got - 2010.04.14 02:04:31.
