data_PCOD8186525
_publ_section_title
;
Structure prediction by ZEFSAII (Michael W. Deem and Ramdas Pophale) SiO2 
 PCOD8186525
Probable space group: F M M 2
;
_chemical_formula_sum "Si O2"
_cell_formula_units_Z 80
_cell_length_a 8.669980
_cell_length_b 15.693891
_cell_length_c 28.846865
_cell_angle_alpha 90.000000
_cell_angle_beta 90.000000
_cell_angle_gamma 90.000000
_cell_volume 3925.069487
_symmetry_space_group_name_H-M "F M M 2"
_symmetry_group_IT_number 42
_symmetry_cell_setting 'orthorhombic'
loop_
_space_group_symop_operation_xyz
x,y,z
-x,-y,z
-x,y,z
x,-y,z
x,1/2+y,1/2+z
-x,1/2-y,1/2+z
-x,1/2+y,1/2+z
x,1/2-y,1/2+z
1/2+x,y,1/2+z
1/2-x,-y,1/2+z
1/2-x,y,1/2+z
1/2+x,-y,1/2+z
1/2+x,1/2+y,z
1/2-x,1/2-y,z
1/2-x,1/2+y,z
1/2+x,1/2-y,z
loop_
_atom_site_type_symbol
_atom_site_label
_atom_site_fract_x
_atom_site_fract_y
_atom_site_fract_z
Si Si1 0.180126 0.339689 0.301620
Si Si2 0.682835 0.000000 0.959497
Si Si3 0.327759 0.095836 0.714477
Si Si4 0.682910 0.842569 0.898911
Si Si5 0.182445 0.161012 0.117128
Si Si6 0.817085 0.000000 0.564800
O O1 0.250000 0.250000 0.286372
O O2 0.213039 0.400666 0.258176
O O3 0.262182 0.372644 0.348116
O O4 0.000000 0.332955 0.311677
O O5 0.744392 0.914084 0.934542
O O6 0.500000 0.000000 0.956703
O O7 0.742478 0.000000 0.011911
O O8 0.500000 0.123268 0.730346
O O9 0.271400 0.152924 0.671369
O O10 0.328589 0.000000 0.695402
O O11 0.500000 0.835507 0.899190
O O12 0.750000 0.750000 0.912313
O O13 0.250000 0.250000 0.098318
O O14 0.000000 0.158472 0.110525
O O15 0.255263 0.084936 0.088245
O O16 0.000000 0.000000 0.567723
#
# Coordination Sequence:
#
# PCOD8186525 Si02
#       6
#    16   8  16  16  16   8
#     4  11  22  36  55  85 120 157 201 245 291 351
#     4   9  22  41  64  89 118 155 198 245 308 367
#     4  10  21  38  59  85 121 161 201 246 296 353
#     4  10  20  39  62  87 119 159 200 246 298 356
#     4  11  23  42  65  93 124 163 206 251 305 365
#     4  11  23  43  66  93 124 157 202 257 310 369
#
# _framework density 20.381805
#
# number of rings (size 3 to 8) (size 9 to 14) (size 15 to 20)
#    0.000    1.600    1.000    5.100    1.400    4.400 
#    0.000    7.500    0.000    0.000    0.000    0.000 
#    0.000    0.000    0.000    0.000    0.000    0.000 
#
# Total GULP energy -248023.595181 kJ/mol
# GULP energy per Si atom -12401.179759 kJ/mol
# Density = 2.033541 g / cm^3
# Si number density = 20.381805 Si / 1000 Ang^3
#
#
#
# Elastic Constant Matrix: (Units=GPa)
#
#
# Indices 1 2 3 4 5 6 
#
# 1 99.5831 47.0630 51.0318 0.0000 0.0000 0.0000
# 2 47.0630 145.7152 80.7293 0.0000 0.0000 0.0000
# 3 51.0318 80.7293 140.1278 0.0000 0.0000 0.0000
# 4 0.0000 0.0000 0.0000 14.8560 0.0000 0.0000
# 5 0.0000 0.0000 0.0000 0.0000 25.8246 0.0000
# 6 0.0000 0.0000 0.0000 0.0000 0.0000 32.8260
#
#
#
# Elastic Compliance Matrix: (Units=1/GPa)
#
#
# Indices 1 2 3 4 5 6 
#
# 1 0.012845 -0.002287 -0.003360 0.000000 0.000000 0.000000
# 2 -0.002287 0.010487 -0.005209 0.000000 0.000000 0.000000
# 3 -0.003360 -0.005209 0.011361 0.000000 0.000000 0.000000
# 4 0.000000 0.000000 0.000000 0.067313 0.000000 0.000000
# 5 0.000000 0.000000 0.000000 0.000000 0.038723 0.000000
# 6 0.000000 0.000000 0.000000 0.000000 0.000000 0.030464
#
#
# Mechanical properties :
#
#
# Convention : Reuss Voigt Hill
#
# Bulk Modulus (GPa) = 77.03784 82.56382 79.80083
# Shear Modulus (GPa) = 25.35093 28.47477 26.91285
#
# Velocity S-wave (km/s) = 3.53058 3.74179 3.63772
# Velocity P-wave (km/s) = 7.38237 7.69835 7.54202
#
# Compressibility (1/GPa) = 0.01298063
#
# Stress axis : x y z
#
# Youngs Moduli (GPa) = 77.85360 95.35437 88.02022
#
# Poissons Ratio (x) = 0.21807 0.29577
# Poissons Ratio (y) = 0.17804 0.45849
# Poissons Ratio (z) = 0.26161 0.49670
#
# Static dielectric constant tensor:
#      x y z
#    x 3.628940 0.000000 0.000000 
#    y 0.000000 3.791590 0.000000 
#    z 0.000000 0.000000 3.714870 
# 
# 
# High freq. dielectric constant tensor:
#      x y z
#    x 1.793530 0.000000 0.000000 
#    y 0.000000 1.805060 0.000000 
#    z 0.000000 0.000000 1.794230 
# 
# From -- ./inp_files/31342.got.cif
#   From: 2010.03.12/outbox.cif.g09.slc.cpg/sg42_16_cif.got.tgz:31342.got - 2010.04.14 02:04:31.
