data_PCOD8186978
_publ_section_title
;
Structure prediction by ZEFSAII (Michael W. Deem and Ramdas Pophale) SiO2 
 PCOD8186978
Probable space group: F D D 2
;
_chemical_formula_sum "Si O2"
_cell_formula_units_Z 104
_cell_length_a 12.224504
_cell_length_b 20.283739
_cell_length_c 22.391833
_cell_angle_alpha 90.000000
_cell_angle_beta 90.000000
_cell_angle_gamma 90.000000
_cell_volume 5552.248649
_symmetry_space_group_name_H-M "F D D 2"
_symmetry_group_IT_number 43
_symmetry_cell_setting 'orthorhombic'
loop_
_space_group_symop_operation_xyz
x,y,z
-x,-y,z
1/4-x,1/4+y,1/4+z
1/4+x,1/4-y,1/4+z
x,1/2+y,1/2+z
-x,1/2-y,1/2+z
1/4-x,3/4+y,3/4+z
1/4+x,3/4-y,3/4+z
1/2+x,y,1/2+z
1/2-x,-y,1/2+z
3/4-x,1/4+y,3/4+z
3/4+x,1/4-y,3/4+z
1/2+x,1/2+y,z
1/2-x,1/2-y,z
3/4-x,3/4+y,1/4+z
3/4+x,3/4-y,1/4+z
loop_
_atom_site_type_symbol
_atom_site_label
_atom_site_fract_x
_atom_site_fract_y
_atom_site_fract_z
Si Si1 0.481187 0.733078 0.473140
Si Si2 0.805810 0.550166 0.901397
Si Si3 0.500000 0.500000 0.761530
Si Si4 0.127438 0.738659 0.275625
Si Si5 0.612445 0.850039 0.070487
Si Si6 0.605602 0.542932 0.306102
Si Si7 0.023301 0.343564 0.858012
O O1 0.357009 0.763334 0.470037
O O2 0.478827 0.671782 0.520433
O O3 0.564593 0.788947 0.498145
O O4 0.521618 0.706871 0.408645
O O5 0.685753 0.577832 0.884458
O O6 0.832917 0.485330 0.863741
O O7 0.896158 0.606592 0.891762
O O8 0.800532 0.529631 0.970168
O O9 0.523574 0.562878 0.804810
O O10 0.250000 0.750000 0.251839
O O11 0.121370 0.678225 0.322187
O O12 0.087676 0.804387 0.307383
O O13 0.500000 0.500000 0.289700
O O14 0.573931 0.617815 0.323758
#
# Coordination Sequence:
#
# PCOD8186978 Si02
#       7
#    16  16   8  16  16  16  16
#     4   9  19  37  61  87 119 162 204 248 301 369
#     4  10  19  34  54  87 125 149 194 251 309 365
#     4   8  18  34  64  84 116 168 200 238 304 372
#     4  12  22  32  59  94 121 148 201 268 314 350
#     4   9  19  36  55  86 119 158 193 246 312 359
#     4   9  20  34  57  87 122 163 198 246 314 370
#     4  11  21  34  59  91 121 154 201 263 307 360
#
# _framework density 18.731148999999998
#
# number of rings (size 3 to 8) (size 9 to 14) (size 15 to 20)
#    0.923    1.231    3.077    1.385    1.077    1.231 
#    0.000    1.538    3.385    0.000    0.000    0.000 
#    0.000    0.000    0.000    0.000    0.000    0.000 
#
# Total GULP energy -322232.221066 kJ/mol
# GULP energy per Si atom -12393.546964 kJ/mol
# Density = 1.868852 g / cm^3
# Si number density = 18.731149 Si / 1000 Ang^3
#
#
#
# Elastic Constant Matrix: (Units=GPa)
#
#
# Indices 1 2 3 4 5 6 
#
# 1 81.2059 34.6365 36.7520 0.0000 0.0000 0.0000
# 2 34.6365 80.9398 34.0236 0.0000 0.0000 0.0000
# 3 36.7520 34.0236 102.5287 0.0000 0.0000 0.0000
# 4 0.0000 0.0000 0.0000 28.6635 0.0000 0.0000
# 5 0.0000 0.0000 0.0000 0.0000 20.3991 0.0000
# 6 0.0000 0.0000 0.0000 0.0000 0.0000 26.0837
#
#
#
# Elastic Compliance Matrix: (Units=1/GPa)
#
#
# Indices 1 2 3 4 5 6 
#
# 1 0.016447 -0.005299 -0.004137 0.000000 0.000000 0.000000
# 2 -0.005299 0.016065 -0.003432 0.000000 0.000000 0.000000
# 3 -0.004137 -0.003432 0.012375 0.000000 0.000000 0.000000
# 4 0.000000 0.000000 0.000000 0.034888 0.000000 0.000000
# 5 0.000000 0.000000 0.000000 0.000000 0.049022 0.000000
# 6 0.000000 0.000000 0.000000 0.000000 0.000000 0.038338
#
#
# Mechanical properties :
#
#
# Convention : Reuss Voigt Hill
#
# Bulk Modulus (GPa) = 52.21504 52.83317 52.52411
# Shear Modulus (GPa) = 25.09367 25.64677 25.37022
#
# Velocity S-wave (km/s) = 3.66413 3.70429 3.68426
# Velocity P-wave (km/s) = 6.77035 6.82371 6.79708
#
# Compressibility (1/GPa) = 0.01915157
#
# Stress axis : x y z
#
# Youngs Moduli (GPa) = 60.80177 62.24723 80.80778
#
# Poissons Ratio (x) = 0.32985 0.33430
# Poissons Ratio (y) = 0.32219 0.27730
# Poissons Ratio (z) = 0.25154 0.21361
#
# Static dielectric constant tensor:
#      x y z
#    x 3.282350 0.000000 0.000000 
#    y 0.000000 3.344990 0.000000 
#    z 0.000000 0.000000 3.231170 
# 
# 
# High freq. dielectric constant tensor:
#      x y z
#    x 1.694550 0.000000 0.000000 
#    y 0.000000 1.717310 0.000000 
#    z 0.000000 0.000000 1.714380 
# 
# From -- ./inp_files/17687.got.cif
#   From: 2010.06.25/outbox.cif.g09.slc.cpg/sg43_9_cif.got.tgz:17687.got - 2010.06.26 16:48:59.
