data_PCOD8186067
_publ_section_title
;
Structure prediction by ZEFSAII (Michael W. Deem and Ramdas Pophale) SiO2 
 PCOD8186067
Probable space group: F M M 2
;
_chemical_formula_sum "Si O2"
_cell_formula_units_Z 128
_cell_length_a 23.368625
_cell_length_b 17.315107
_cell_length_c 18.953880
_cell_angle_alpha 90.000000
_cell_angle_beta 90.000000
_cell_angle_gamma 90.000000
_cell_volume 7669.313057
_symmetry_space_group_name_H-M "F M M 2"
_symmetry_group_IT_number 42
_symmetry_cell_setting 'orthorhombic'
loop_
_space_group_symop_operation_xyz
x,y,z
-x,-y,z
-x,y,z
x,-y,z
x,1/2+y,1/2+z
-x,1/2-y,1/2+z
-x,1/2+y,1/2+z
x,1/2-y,1/2+z
1/2+x,y,1/2+z
1/2-x,-y,1/2+z
1/2-x,y,1/2+z
1/2+x,-y,1/2+z
1/2+x,1/2+y,z
1/2-x,1/2-y,z
1/2-x,1/2+y,z
1/2+x,1/2-y,z
loop_
_atom_site_type_symbol
_atom_site_label
_atom_site_fract_x
_atom_site_fract_y
_atom_site_fract_z
Si Si1 0.120359 0.089926 0.150370
Si Si2 0.434716 0.089606 0.798339
Si Si3 0.165130 0.330348 0.877159
Si Si4 0.659099 0.849150 0.406021
Si Si5 0.765690 0.088183 0.795634
Si Si6 0.257105 0.159346 0.655867
Si Si7 0.238740 0.659847 0.002241
Si Si8 0.065320 0.409263 0.502648
O O1 0.079543 0.107203 0.216840
O O2 0.175862 0.141743 0.159879
O O3 0.088441 0.116192 0.079175
O O4 0.137475 0.000000 0.147462
O O5 0.500000 0.114495 0.811949
O O6 0.395660 0.137021 0.852926
O O7 0.425033 0.000000 0.814889
O O8 0.163154 0.238265 0.879433
O O9 0.215168 0.356750 0.824281
O O10 0.182218 0.360012 0.955992
O O11 0.674829 0.900945 0.337850
O O12 0.704990 0.875133 0.465429
O O13 0.597163 0.866779 0.438111
O O14 0.777348 0.112465 0.715133
O O15 0.744656 0.000000 0.799621
O O16 0.250000 0.250000 0.667060
O O17 0.231540 0.128347 0.581448
O O18 0.250000 0.750000 0.006953
O O19 0.072428 0.500000 0.492412
O O20 0.000000 0.382816 0.497744
#
# Coordination Sequence:
#
# PCOD8186067 Si02
#       8
#    16  16  16  16  16  16  16  16
#     4  10  19  33  52  77 107 135 167 208 254 314
#     4  10  20  34  52  75 103 136 170 208 256 306
#     4  10  19  33  52  73 101 132 172 211 250 304
#     4  10  19  34  51  73 102 134 171 210 253 303
#     4  11  21  33  49  75 105 136 169 208 260 311
#     4  11  19  31  52  77 102 137 167 204 255 306
#     4   8  17  31  48  72  99 129 161 203 252 299
#     4  10  20  34  53  77 104 137 173 212 261 309
#
# _framework density 16.689890999999999
#
# number of rings (size 3 to 8) (size 9 to 14) (size 15 to 20)
#    0.000    2.000    2.500    3.375    0.000    2.000 
#    0.000    1.875    0.000    0.000    0.000    0.875 
#    0.000    2.000    0.000    0.000    0.000    0.000 
#
# Total GULP energy -396727.316417 kJ/mol
# GULP energy per Si atom -12397.728638 kJ/mol
# Density = 1.665190 g / cm^3
# Si number density = 16.689891 Si / 1000 Ang^3
#
#
#
# Elastic Constant Matrix: (Units=GPa)
#
#
# Indices 1 2 3 4 5 6 
#
# 1 101.3863 36.0038 60.3472 0.0000 0.0000 0.0000
# 2 36.0038 65.9671 41.0863 0.0000 0.0000 0.0000
# 3 60.3472 41.0863 138.1986 0.0000 0.0000 0.0000
# 4 0.0000 0.0000 0.0000 18.7344 0.0000 0.0000
# 5 0.0000 0.0000 0.0000 0.0000 28.8794 0.0000
# 6 0.0000 0.0000 0.0000 0.0000 0.0000 21.4398
#
#
#
# Elastic Compliance Matrix: (Units=1/GPa)
#
#
# Indices 1 2 3 4 5 6 
#
# 1 0.014500 -0.004873 -0.004883 0.000000 0.000000 0.000000
# 2 -0.004873 0.020241 -0.003890 0.000000 0.000000 0.000000
# 3 -0.004883 -0.003890 0.010525 0.000000 0.000000 0.000000
# 4 0.000000 0.000000 0.000000 0.053378 0.000000 0.000000
# 5 0.000000 0.000000 0.000000 0.000000 0.034627 0.000000
# 6 0.000000 0.000000 0.000000 0.000000 0.000000 0.046642
#
#
# Mechanical properties :
#
#
# Convention : Reuss Voigt Hill
#
# Bulk Modulus (GPa) = 55.63371 64.49185 60.06278
# Shear Modulus (GPa) = 23.45259 25.01836 24.23548
#
# Velocity S-wave (km/s) = 3.75266 3.87591 3.81478
# Velocity P-wave (km/s) = 7.22377 7.66521 7.44776
#
# Compressibility (1/GPa) = 0.01797471
#
# Stress axis : x y z
#
# Youngs Moduli (GPa) = 68.96478 49.40404 95.01381
#
# Poissons Ratio (x) = 0.24072 0.46397
# Poissons Ratio (y) = 0.33604 0.36960
# Poissons Ratio (z) = 0.33677 0.19218
#
# Static dielectric constant tensor:
#      x y z
#    x 3.027840 0.000000 0.000000 
#    y 0.000000 2.980780 0.000000 
#    z 0.000000 0.000000 3.529030 
# 
# 
# High freq. dielectric constant tensor:
#      x y z
#    x 1.621260 0.000000 0.000000 
#    y 0.000000 1.629390 0.000000 
#    z 0.000000 0.000000 1.654260 
# 
# From -- ./inp_files/22332.got.cif
#   From: 2010.03.12/outbox.cif.g09.slc.cpg/sg42_12_cif.got.tgz:22332.got - 2010.04.14 02:04:31.
