data_PCOD8186684
_publ_section_title
;
Structure prediction by ZEFSAII (Michael W. Deem and Ramdas Pophale) SiO2 
 PCOD8186684
Probable space group: F M M 2
;
_chemical_formula_sum "Si O2"
_cell_formula_units_Z 96
_cell_length_a 14.412848
_cell_length_b 18.352781
_cell_length_c 17.656966
_cell_angle_alpha 90.000000
_cell_angle_beta 90.000000
_cell_angle_gamma 90.000000
_cell_volume 4670.547245
_symmetry_space_group_name_H-M "F M M 2"
_symmetry_group_IT_number 42
_symmetry_cell_setting 'orthorhombic'
loop_
_space_group_symop_operation_xyz
x,y,z
-x,-y,z
-x,y,z
x,-y,z
x,1/2+y,1/2+z
-x,1/2-y,1/2+z
-x,1/2+y,1/2+z
x,1/2-y,1/2+z
1/2+x,y,1/2+z
1/2-x,-y,1/2+z
1/2-x,y,1/2+z
1/2+x,-y,1/2+z
1/2+x,1/2+y,z
1/2-x,1/2-y,z
1/2-x,1/2+y,z
1/2+x,1/2-y,z
loop_
_atom_site_type_symbol
_atom_site_label
_atom_site_fract_x
_atom_site_fract_y
_atom_site_fract_z
Si Si1 0.394604 0.846410 0.206240
Si Si2 0.769275 0.170324 0.987519
Si Si3 0.396512 0.082483 0.763464
Si Si4 0.712694 0.915758 0.343314
Si Si5 0.105207 0.917970 0.553165
Si Si6 0.608681 0.695389 0.134223
O O1 0.500000 0.833953 0.233145
O O2 0.336310 0.869628 0.278350
O O3 0.386865 0.909607 0.143761
O O4 0.355530 0.771753 0.169017
O O5 0.750000 0.250000 0.952991
O O6 0.815060 0.119262 0.923539
O O7 0.670402 0.138078 0.010691
O O8 0.838295 0.175596 0.057872
O O9 0.500000 0.102566 0.793312
O O10 0.323999 0.091883 0.832080
O O11 0.367348 0.132305 0.693365
O O12 0.393554 0.000000 0.732772
O O13 0.680591 0.000000 0.341394
O O14 0.000000 0.901406 0.527227
O O15 0.134532 0.000000 0.531851
O O16 0.500000 0.700112 0.115203
#
# Coordination Sequence:
#
# PCOD8186684 Si02
#       6
#    16  16  16  16  16  16
#     4  10  21  40  65  91 120 158 211 267 318 372
#     4  12  25  39  60  92 131 171 208 256 319 389
#     4   9  20  39  63  90 121 163 213 261 311 372
#     4  11  25  40  60  93 130 165 205 254 316 384
#     4  10  21  40  67  94 123 165 218 270 313 364
#     4  10  22  41  64  91 123 163 213 266 317 375
#
# _framework density 20.554337
#
# number of rings (size 3 to 8) (size 9 to 14) (size 15 to 20)
#    0.000    1.667    1.667    2.000    2.333    5.000 
#    0.000    1.667    0.000    0.000    0.000    0.000 
#    0.000    0.000    0.000    0.000    0.000    0.000 
#
# Total GULP energy -297656.758782 kJ/mol
# GULP energy per Si atom -12402.364949 kJ/mol
# Density = 2.050755 g / cm^3
# Si number density = 20.554337 Si / 1000 Ang^3
#
#
#
# Elastic Constant Matrix: (Units=GPa)
#
#
# Indices 1 2 3 4 5 6 
#
# 1 76.3633 54.1242 48.5164 0.0000 0.0000 0.0000
# 2 54.1242 135.2986 65.7185 0.0000 0.0000 0.0000
# 3 48.5164 65.7185 108.9179 0.0000 0.0000 0.0000
# 4 0.0000 0.0000 0.0000 34.7196 0.0000 0.0000
# 5 0.0000 0.0000 0.0000 0.0000 15.1001 0.0000
# 6 0.0000 0.0000 0.0000 0.0000 0.0000 31.9317
#
#
#
# Elastic Compliance Matrix: (Units=1/GPa)
#
#
# Indices 1 2 3 4 5 6 
#
# 1 0.020706 -0.005380 -0.005977 0.000000 0.000000 0.000000
# 2 -0.005380 0.011853 -0.004755 0.000000 0.000000 0.000000
# 3 -0.005977 -0.004755 0.014713 0.000000 0.000000 0.000000
# 4 0.000000 0.000000 0.000000 0.028802 0.000000 0.000000
# 5 0.000000 0.000000 0.000000 0.000000 0.066225 0.000000
# 6 0.000000 0.000000 0.000000 0.000000 0.000000 0.031317
#
#
# Mechanical properties :
#
#
# Convention : Reuss Voigt Hill
#
# Bulk Modulus (GPa) = 66.45817 73.03311 69.74564
# Shear Modulus (GPa) = 23.71285 26.49833 25.10559
#
# Velocity S-wave (km/s) = 3.40025 3.59442 3.49868
# Velocity P-wave (km/s) = 6.91511 7.26879 7.09415
#
# Compressibility (1/GPa) = 0.01504706
#
# Stress axis : x y z
#
# Youngs Moduli (GPa) = 48.29553 84.36660 67.96694
#
# Poissons Ratio (x) = 0.45387 0.40625
# Poissons Ratio (y) = 0.25982 0.32321
# Poissons Ratio (z) = 0.28867 0.40120
#
# Static dielectric constant tensor:
#      x y z
#    x 3.804750 0.000000 0.000000 
#    y 0.000000 4.022010 0.000000 
#    z 0.000000 0.000000 3.513150 
# 
# 
# High freq. dielectric constant tensor:
#      x y z
#    x 1.808090 0.000000 0.000000 
#    y 0.000000 1.818620 0.000000 
#    z 0.000000 0.000000 1.787650 
# 
# From -- ./inp_files/13974.got.cif
#   From: 2010.03.12/outbox.cif.g09.slc.cpg/sg42_7_cif.got.tgz:13974.got - 2010.04.14 02:04:31.
