data_PCOD8186194
_publ_section_title
;
Structure prediction by ZEFSAII (Michael W. Deem and Ramdas Pophale) SiO2 
 PCOD8186194
Probable space group: F M M 2
;
_chemical_formula_sum "Si O2"
_cell_formula_units_Z 112
_cell_length_a 31.313266
_cell_length_b 14.043137
_cell_length_c 11.838078
_cell_angle_alpha 90.000000
_cell_angle_beta 90.000000
_cell_angle_gamma 90.000000
_cell_volume 5205.634801
_symmetry_space_group_name_H-M "F M M 2"
_symmetry_group_IT_number 42
_symmetry_cell_setting 'orthorhombic'
loop_
_space_group_symop_operation_xyz
x,y,z
-x,-y,z
-x,y,z
x,-y,z
x,1/2+y,1/2+z
-x,1/2-y,1/2+z
-x,1/2+y,1/2+z
x,1/2-y,1/2+z
1/2+x,y,1/2+z
1/2-x,-y,1/2+z
1/2-x,y,1/2+z
1/2+x,-y,1/2+z
1/2+x,1/2+y,z
1/2-x,1/2-y,z
1/2-x,1/2+y,z
1/2+x,1/2-y,z
loop_
_atom_site_type_symbol
_atom_site_label
_atom_site_fract_x
_atom_site_fract_y
_atom_site_fract_z
Si Si1 0.088135 0.395993 0.664410
Si Si2 0.164961 0.391091 0.243658
Si Si3 0.684030 0.896607 0.693494
Si Si4 0.736353 0.891187 0.054751
Si Si5 0.603920 0.705735 0.572985
Si Si6 0.546802 0.609831 0.399731
Si Si7 0.181855 0.733656 0.905725
O O1 0.066631 0.500000 0.632807
O O2 0.138039 0.408669 0.638715
O O3 0.076446 0.303561 0.590390
O O4 0.076771 0.367641 0.792784
O O5 0.152316 0.500000 0.271010
O O6 0.203886 0.386864 0.157683
O O7 0.123172 0.338287 0.189504
O O8 0.181979 0.343034 0.361056
O O9 0.716858 0.856981 0.598686
O O10 0.675939 0.823615 0.791351
O O11 0.701124 0.000000 0.736311
O O12 0.737536 0.000000 0.006545
O O13 0.724454 0.813394 0.959808
O O14 0.569991 0.636822 0.515802
O O15 0.642982 0.720198 0.489109
O O16 0.500000 0.659944 0.387620
O O17 0.538553 0.500000 0.408457
#
# Coordination Sequence:
#
# PCOD8186194 Si02
#       7
#    16  16  16  16  16  16  16
#     4  10  21  39  61  89 126 162 204 253 305 367
#     4  10  21  38  56  83 120 158 203 253 302 358
#     4  10  19  38  61  85 116 155 206 258 306 361
#     4   9  21  39  58  82 112 151 202 255 308 358
#     4  11  20  38  61  92 120 163 200 248 309 367
#     4  10  21  38  64  96 125 158 203 251 303 370
#     4  11  21  38  61  84 116 161 206 251 308 365
#
# _framework density 21.515148
#
# number of rings (size 3 to 8) (size 9 to 14) (size 15 to 20)
#    0.000    1.857    2.857    0.857    0.000    2.857 
#    5.143    0.000    0.000    0.857    0.000    0.000 
#    0.000    0.000    0.000    0.000    0.000    0.000 
#
# Total GULP energy -346865.506964 kJ/mol
# GULP energy per Si atom -12388.053820 kJ/mol
# Density = 2.146618 g / cm^3
# Si number density = 21.515148 Si / 1000 Ang^3
#
#
#
# Elastic Constant Matrix: (Units=GPa)
#
#
# Indices 1 2 3 4 5 6 
#
# 1 80.2567 31.3667 21.2412 0.0000 0.0000 0.0000
# 2 31.3667 114.0681 52.6148 0.0000 0.0000 0.0000
# 3 21.2412 52.6148 71.4167 0.0000 0.0000 0.0000
# 4 0.0000 0.0000 0.0000 42.7067 0.0000 0.0000
# 5 0.0000 0.0000 0.0000 0.0000 11.3155 0.0000
# 6 0.0000 0.0000 0.0000 0.0000 0.0000 15.3948
#
#
#
# Elastic Compliance Matrix: (Units=1/GPa)
#
#
# Indices 1 2 3 4 5 6 
#
# 1 0.014153 -0.002954 -0.002033 0.000000 0.000000 0.000000
# 2 -0.002954 0.013896 -0.009359 0.000000 0.000000 0.000000
# 3 -0.002033 -0.009359 0.021502 0.000000 0.000000 0.000000
# 4 0.000000 0.000000 0.000000 0.023416 0.000000 0.000000
# 5 0.000000 0.000000 0.000000 0.000000 0.088375 0.000000
# 6 0.000000 0.000000 0.000000 0.000000 0.000000 0.064957
#
#
# Mechanical properties :
#
#
# Convention : Reuss Voigt Hill
#
# Bulk Modulus (GPa) = 47.94191 52.90964 50.42578
# Shear Modulus (GPa) = 19.08819 24.58466 21.83642
#
# Velocity S-wave (km/s) = 2.98182 3.38400 3.18926
# Velocity P-wave (km/s) = 5.84690 6.31774 6.08687
#
# Compressibility (1/GPa) = 0.02085858
#
# Stress axis : x y z
#
# Youngs Moduli (GPa) = 70.65846 71.96405 46.50731
#
# Poissons Ratio (x) = 0.21258 0.09455
# Poissons Ratio (y) = 0.20872 0.43526
# Poissons Ratio (z) = 0.14366 0.67350
#
# Static dielectric constant tensor:
#      x y z
#    x 3.850750 0.000000 0.000000 
#    y 0.000000 4.491760 0.000000 
#    z 0.000000 0.000000 3.924820 
# 
# 
# High freq. dielectric constant tensor:
#      x y z
#    x 1.820750 0.000000 0.000000 
#    y 0.000000 1.864280 0.000000 
#    z 0.000000 0.000000 1.827710 
# 
# From -- ./inp_files/11122.got.cif
#   From: 2010.03.12/outbox.cif.g09.slc.cpg/sg42_6_cif.got.tgz:11122.got - 2010.04.14 02:04:31.
