data_PCOD8186699
_publ_section_title
;
Structure prediction by ZEFSAII (Michael W. Deem and Ramdas Pophale) SiO2 
 PCOD8186699
Probable space group: F M M 2
;
_chemical_formula_sum "Si O2"
_cell_formula_units_Z 112
_cell_length_a 20.470965
_cell_length_b 22.496133
_cell_length_c 11.189997
_cell_angle_alpha 90.000000
_cell_angle_beta 90.000000
_cell_angle_gamma 90.000000
_cell_volume 5153.190017
_symmetry_space_group_name_H-M "F M M 2"
_symmetry_group_IT_number 42
_symmetry_cell_setting 'orthorhombic'
loop_
_space_group_symop_operation_xyz
x,y,z
-x,-y,z
-x,y,z
x,-y,z
x,1/2+y,1/2+z
-x,1/2-y,1/2+z
-x,1/2+y,1/2+z
x,1/2-y,1/2+z
1/2+x,y,1/2+z
1/2-x,-y,1/2+z
1/2-x,y,1/2+z
1/2+x,-y,1/2+z
1/2+x,1/2+y,z
1/2-x,1/2-y,z
1/2-x,1/2+y,z
1/2+x,1/2-y,z
loop_
_atom_site_type_symbol
_atom_site_label
_atom_site_fract_x
_atom_site_fract_y
_atom_site_fract_z
Si Si1 0.573570 0.253772 0.342010
Si Si2 0.336717 0.431030 0.685818
Si Si3 0.802697 0.386786 0.744428
Si Si4 0.659101 0.834960 0.983224
Si Si5 0.074752 0.379150 0.394880
Si Si6 0.815515 0.734440 0.659254
Si Si7 0.428483 0.431708 0.146577
O O1 0.500000 0.262467 0.297585
O O2 0.591859 0.309785 0.425657
O O3 0.583674 0.191607 0.409555
O O4 0.617449 0.250115 0.224066
O O5 0.352669 0.500000 0.656171
O O6 0.259647 0.427259 0.716224
O O7 0.354925 0.389128 0.573668
O O8 0.378717 0.408617 0.796880
O O9 0.794491 0.357776 0.875890
O O10 0.810351 0.336677 0.640082
O O11 0.871437 0.422456 0.744420
O O12 0.691633 0.776743 0.043334
O O13 0.094882 0.403934 0.522493
O O14 0.000000 0.395017 0.360718
O O15 0.750000 0.750000 0.737046
O O16 0.500000 0.405597 0.187267
O O17 0.437477 0.500000 0.122094
#
# Coordination Sequence:
#
# PCOD8186699 Si02
#       7
#    16  16  16  16  16  16  16
#     4  10  22  40  68 101 137 175 220 281 343 411
#     4  12  26  44  66 101 144 188 232 280 342 418
#     4  11  25  42  67  97 137 178 229 285 342 417
#     4  11  25  42  67 100 136 179 227 285 353 412
#     4  10  21  42  70  99 131 175 230 283 337 400
#     4  11  21  42  67  96 131 172 218 282 342 403
#     4  10  22  42  67  95 129 175 230 279 330 398
#
# _framework density 21.734110999999999
#
# number of rings (size 3 to 8) (size 9 to 14) (size 15 to 20)
#    0.000    1.286    2.857    1.714    2.000    8.857 
#    0.000    0.000    0.000    0.000    0.000    0.000 
#    0.000    0.000    0.000    0.000    0.000    0.000 
#
# Total GULP energy -346964.490268 kJ/mol
# GULP energy per Si atom -12391.588938 kJ/mol
# Density = 2.168464 g / cm^3
# Si number density = 21.734111 Si / 1000 Ang^3
#
#
#
# Elastic Constant Matrix: (Units=GPa)
#
#
# Indices 1 2 3 4 5 6 
#
# 1 142.6502 31.3589 41.6467 0.0000 0.0000 0.0000
# 2 31.3589 110.2408 29.5075 0.0000 0.0000 0.0000
# 3 41.6467 29.5075 80.5071 0.0000 0.0000 0.0000
# 4 0.0000 0.0000 0.0000 26.4221 0.0000 0.0000
# 5 0.0000 0.0000 0.0000 0.0000 21.9679 0.0000
# 6 0.0000 0.0000 0.0000 0.0000 0.0000 33.6051
#
#
#
# Elastic Compliance Matrix: (Units=1/GPa)
#
#
# Indices 1 2 3 4 5 6 
#
# 1 0.008439 -0.001366 -0.003865 0.000000 0.000000 0.000000
# 2 -0.001366 0.010279 -0.003061 0.000000 0.000000 0.000000
# 3 -0.003865 -0.003061 0.015542 0.000000 0.000000 0.000000
# 4 0.000000 0.000000 0.000000 0.037847 0.000000 0.000000
# 5 0.000000 0.000000 0.000000 0.000000 0.045521 0.000000
# 6 0.000000 0.000000 0.000000 0.000000 0.000000 0.029757
#
#
# Mechanical properties :
#
#
# Convention : Reuss Voigt Hill
#
# Bulk Modulus (GPa) = 56.57090 59.82493 58.19792
# Shear Modulus (GPa) = 29.43585 31.79133 30.61359
#
# Velocity S-wave (km/s) = 3.68416 3.82873 3.75714
# Velocity P-wave (km/s) = 6.64699 6.86521 6.75698
#
# Compressibility (1/GPa) = 0.01767693
#
# Stress axis : x y z
#
# Youngs Moduli (GPa) = 118.50081 97.28676 64.34030
#
# Poissons Ratio (x) = 0.13290 0.24866
# Poissons Ratio (y) = 0.16187 0.19693
# Poissons Ratio (z) = 0.45797 0.29777
#
# Static dielectric constant tensor:
#      x y z
#    x 4.431100 0.000000 0.000000 
#    y 0.000000 4.091140 0.000000 
#    z 0.000000 0.000000 3.685240 
# 
# 
# High freq. dielectric constant tensor:
#      x y z
#    x 1.865790 0.000000 0.000000 
#    y 0.000000 1.863060 0.000000 
#    z 0.000000 0.000000 1.832550 
# 
# From -- ./inp_files/9678.got.cif
#   From: 2010.03.12/outbox.cif.g09.slc.cpg/sg42_5_cif.got.tgz:9678.got - 2010.04.14 02:04:31.
