data_PCOD8186242
_publ_section_title
;
Structure prediction by ZEFSAII (Michael W. Deem and Ramdas Pophale) SiO2 
 PCOD8186242
Probable space group: F M M 2
;
_chemical_formula_sum "Si O2"
_cell_formula_units_Z 96
_cell_length_a 8.749827
_cell_length_b 23.651368
_cell_length_c 25.184548
_cell_angle_alpha 90.000000
_cell_angle_beta 90.000000
_cell_angle_gamma 90.000000
_cell_volume 5211.825814
_symmetry_space_group_name_H-M "F M M 2"
_symmetry_group_IT_number 42
_symmetry_cell_setting 'orthorhombic'
loop_
_space_group_symop_operation_xyz
x,y,z
-x,-y,z
-x,y,z
x,-y,z
x,1/2+y,1/2+z
-x,1/2-y,1/2+z
-x,1/2+y,1/2+z
x,1/2-y,1/2+z
1/2+x,y,1/2+z
1/2-x,-y,1/2+z
1/2-x,y,1/2+z
1/2+x,-y,1/2+z
1/2+x,1/2+y,z
1/2-x,1/2-y,z
1/2-x,1/2+y,z
1/2+x,1/2-y,z
loop_
_atom_site_type_symbol
_atom_site_label
_atom_site_fract_x
_atom_site_fract_y
_atom_site_fract_z
Si Si1 0.822451 0.434354 0.895430
Si Si2 0.820169 0.385954 0.492633
Si Si3 0.671738 0.500000 0.134154
Si Si4 0.674336 0.102898 0.175807
Si Si5 0.821117 0.810857 0.583678
Si Si6 0.175974 0.000000 0.530595
Si Si7 0.670994 0.064417 0.287128
O O1 0.775735 0.500000 0.909397
O O2 0.786518 0.420503 0.834338
O O3 0.000000 0.425972 0.905659
O O4 0.735824 0.387136 0.931362
O O5 0.745714 0.338796 0.530271
O O6 0.767833 0.446131 0.512754
O O7 0.000000 0.377512 0.495459
O O8 0.500000 0.500000 0.110044
O O9 0.695743 0.443696 0.167364
O O10 0.813141 0.500000 0.093469
O O11 0.500000 0.083481 0.162796
O O12 0.716657 0.155962 0.138508
O O13 0.688657 0.110959 0.239718
O O14 0.750000 0.750000 0.591568
O O15 0.000000 0.805714 0.574621
O O16 0.000000 0.000000 0.511128
O O17 0.500000 0.067961 0.310643
O O18 0.700976 0.000000 0.266139
#
# Coordination Sequence:
#
# PCOD8186242 Si02
#       7
#    16  16   8  16  16   8  16
#     4  10  20  33  51  79 118 156 186 225 279 334
#     4  12  23  36  57  84 113 147 189 234 280 339
#     4  12  22  30  49  82 115 146 184 226 274 336
#     4  10  20  36  57  79 112 153 186 227 284 337
#     4  11  24  41  61  82 111 149 190 237 287 339
#     4  12  22  34  51  78 115 150 182 222 282 344
#     4   9  17  31  52  79 112 150 190 227 271 332
#
# _framework density 18.419649
#
# number of rings (size 3 to 8) (size 9 to 14) (size 15 to 20)
#    0.000    1.333    3.333    4.000    0.000    2.000 
#    0.000    0.000    0.000    1.000    0.000    4.667 
#    0.000    0.000    0.000    0.000    0.000    0.000 
#
# Total GULP energy -297353.225396 kJ/mol
# GULP energy per Si atom -12389.717725 kJ/mol
# Density = 1.837772 g / cm^3
# Si number density = 18.419649 Si / 1000 Ang^3
#
#
#
# Elastic Constant Matrix: (Units=GPa)
#
#
# Indices 1 2 3 4 5 6 
#
# 1 109.6450 47.7904 50.7794 0.0000 0.0000 0.0000
# 2 47.7904 97.5231 53.0690 0.0000 0.0000 0.0000
# 3 50.7794 53.0690 122.2696 0.0000 0.0000 0.0000
# 4 0.0000 0.0000 0.0000 12.9426 0.0000 0.0000
# 5 0.0000 0.0000 0.0000 0.0000 29.3332 0.0000
# 6 0.0000 0.0000 0.0000 0.0000 0.0000 25.3031
#
#
#
# Elastic Compliance Matrix: (Units=1/GPa)
#
#
# Indices 1 2 3 4 5 6 
#
# 1 0.012554 -0.004340 -0.003330 0.000000 0.000000 0.000000
# 2 -0.004340 0.014925 -0.004676 0.000000 0.000000 0.000000
# 3 -0.003330 -0.004676 0.011591 0.000000 0.000000 0.000000
# 4 0.000000 0.000000 0.000000 0.077264 0.000000 0.000000
# 5 0.000000 0.000000 0.000000 0.000000 0.034091 0.000000
# 6 0.000000 0.000000 0.000000 0.000000 0.000000 0.039521
#
#
# Mechanical properties :
#
#
# Convention : Reuss Voigt Hill
#
# Bulk Modulus (GPa) = 69.54599 70.30172 69.92385
# Shear Modulus (GPa) = 22.78622 25.36903 24.07763
#
# Velocity S-wave (km/s) = 3.52100 3.71520 3.61940
# Velocity P-wave (km/s) = 7.37349 7.52683 7.45055
#
# Compressibility (1/GPa) = 0.01437897
#
# Stress axis : x y z
#
# Youngs Moduli (GPa) = 79.65416 67.00163 86.27354
#
# Poissons Ratio (x) = 0.29078 0.28731
# Poissons Ratio (y) = 0.34569 0.40338
# Poissons Ratio (z) = 0.26526 0.31327
#
# Static dielectric constant tensor:
#      x y z
#    x 3.460360 0.000000 0.000000 
#    y 0.000000 3.053380 0.000000 
#    z 0.000000 0.000000 3.734940 
# 
# 
# High freq. dielectric constant tensor:
#      x y z
#    x 1.724790 0.000000 0.000000 
#    y 0.000000 1.662630 0.000000 
#    z 0.000000 0.000000 1.728620 
# 
# From -- ./inp_files/28068.got.cif
#   From: 2010.03.12/outbox.cif.g09.slc.cpg/sg42_15_cif.got.tgz:28068.got - 2010.04.14 02:04:31.
