data_PCOD8186643
_publ_section_title
;
Structure prediction by ZEFSAII (Michael W. Deem and Ramdas Pophale) SiO2 
 PCOD8186643
Probable space group: F M M 2
;
_chemical_formula_sum "Si O2"
_cell_formula_units_Z 80
_cell_length_a 8.461733
_cell_length_b 25.569677
_cell_length_c 18.077820
_cell_angle_alpha 90.000000
_cell_angle_beta 90.000000
_cell_angle_gamma 90.000000
_cell_volume 3911.385463
_symmetry_space_group_name_H-M "F M M 2"
_symmetry_group_IT_number 42
_symmetry_cell_setting 'orthorhombic'
loop_
_space_group_symop_operation_xyz
x,y,z
-x,-y,z
-x,y,z
x,-y,z
x,1/2+y,1/2+z
-x,1/2-y,1/2+z
-x,1/2+y,1/2+z
x,1/2-y,1/2+z
1/2+x,y,1/2+z
1/2-x,-y,1/2+z
1/2-x,y,1/2+z
1/2+x,-y,1/2+z
1/2+x,1/2+y,z
1/2-x,1/2-y,z
1/2-x,1/2+y,z
1/2+x,1/2-y,z
loop_
_atom_site_type_symbol
_atom_site_label
_atom_site_fract_x
_atom_site_fract_y
_atom_site_fract_z
Si Si1 0.685297 0.901793 0.213380
Si Si2 0.316267 0.193694 0.799978
Si Si3 0.316507 0.306317 0.472247
Si Si4 0.819184 0.000000 0.465220
Si Si5 0.682316 0.595273 0.052035
Si Si6 0.184574 0.000000 0.804720
O O1 0.500000 0.907437 0.196216
O O2 0.716028 0.847401 0.253772
O O3 0.782529 0.904552 0.138382
O O4 0.752413 0.948113 0.265512
O O5 0.500000 0.190013 0.779213
O O6 0.250000 0.250000 0.777780
O O7 0.287629 0.182343 0.886140
O O8 0.500000 0.309246 0.493095
O O9 0.250000 0.250000 0.494809
O O10 0.220880 0.348345 0.518935
O O11 0.786229 0.051342 0.512774
O O12 0.718488 0.000000 0.391097
O O13 0.000000 0.000000 0.441009
O O14 0.500000 0.581977 0.038493
O O15 0.000000 0.000000 0.793335
#
# Coordination Sequence:
#
# PCOD8186643 Si02
#       6
#    16  16  16   8  16   8
#     4  11  23  40  62  89 123 159 198 245 298 356
#     4  10  21  38  61  89 120 157 201 248 298 353
#     4  10  21  39  63  91 123 159 202 249 298 354
#     4  12  25  42  65  91 121 157 199 246 297 356
#     4  12  25  41  62  89 123 160 201 248 300 357
#     4  10  23  42  65  91 119 155 197 242 295 356
#
# _framework density 20.453111
#
# number of rings (size 3 to 8) (size 9 to 14) (size 15 to 20)
#    0.000    1.200    0.000    6.300    0.000    8.800 
#    0.000    4.000    0.000    0.000    0.000    0.000 
#    0.000    0.000    0.000    0.000    0.000    0.000 
#
# Total GULP energy -248146.616598 kJ/mol
# GULP energy per Si atom -12407.330830 kJ/mol
# Density = 2.040656 g / cm^3
# Si number density = 20.453111 Si / 1000 Ang^3
#
#
#
# Elastic Constant Matrix: (Units=GPa)
#
#
# Indices 1 2 3 4 5 6 
#
# 1 67.2715 16.5375 10.7464 0.0000 0.0000 0.0000
# 2 16.5375 132.2350 61.5166 0.0000 0.0000 0.0000
# 3 10.7464 61.5166 94.7192 0.0000 0.0000 0.0000
# 4 0.0000 0.0000 0.0000 67.2527 0.0000 0.0000
# 5 0.0000 0.0000 0.0000 0.0000 23.8029 0.0000
# 6 0.0000 0.0000 0.0000 0.0000 0.0000 34.2241
#
#
#
# Elastic Compliance Matrix: (Units=1/GPa)
#
#
# Indices 1 2 3 4 5 6 
#
# 1 0.015370 -0.001592 -0.000710 0.000000 0.000000 0.000000
# 2 -0.001592 0.011001 -0.006964 0.000000 0.000000 0.000000
# 3 -0.000710 -0.006964 0.015161 0.000000 0.000000 0.000000
# 4 0.000000 0.000000 0.000000 0.014869 0.000000 0.000000
# 5 0.000000 0.000000 0.000000 0.000000 0.042012 0.000000
# 6 0.000000 0.000000 0.000000 0.000000 0.000000 0.029219
#
#
# Mechanical properties :
#
#
# Convention : Reuss Voigt Hill
#
# Bulk Modulus (GPa) = 43.47824 52.42519 47.95172
# Shear Modulus (GPa) = 32.50316 38.75095 35.62706
#
# Velocity S-wave (km/s) = 3.99075 4.35745 4.17812
# Velocity P-wave (km/s) = 6.52215 7.14171 6.83895
#
# Compressibility (1/GPa) = 0.02300001
#
# Stress axis : x y z
#
# Youngs Moduli (GPa) = 65.06228 90.89916 65.95832
#
# Poissons Ratio (x) = 0.14471 0.04682
# Poissons Ratio (y) = 0.10357 0.45935
# Poissons Ratio (z) = 0.04619 0.63305
#
# Static dielectric constant tensor:
#      x y z
#    x 3.719300 0.000000 0.000000 
#    y 0.000000 3.914670 0.000000 
#    z 0.000000 0.000000 3.655590 
# 
# 
# High freq. dielectric constant tensor:
#      x y z
#    x 1.808340 0.000000 0.000000 
#    y 0.000000 1.817730 0.000000 
#    z 0.000000 0.000000 1.802960 
# 
# From -- ./inp_files/18225.got.cif
#   From: 2010.03.12/outbox.cif.g09.slc.cpg/sg42_10_cif.got.tgz:18225.got - 2010.04.14 02:04:31.
