data_PCOD8186530
_publ_section_title
;
Structure prediction by ZEFSAII (Michael W. Deem and Ramdas Pophale) SiO2 
 PCOD8186530
Probable space group: F M M 2
;
_chemical_formula_sum "Si O2"
_cell_formula_units_Z 72
_cell_length_a 14.034435
_cell_length_b 13.558008
_cell_length_c 18.842808
_cell_angle_alpha 90.000000
_cell_angle_beta 90.000000
_cell_angle_gamma 90.000000
_cell_volume 3585.390324
_symmetry_space_group_name_H-M "F M M 2"
_symmetry_group_IT_number 42
_symmetry_cell_setting 'orthorhombic'
loop_
_space_group_symop_operation_xyz
x,y,z
-x,-y,z
-x,y,z
x,-y,z
x,1/2+y,1/2+z
-x,1/2-y,1/2+z
-x,1/2+y,1/2+z
x,1/2-y,1/2+z
1/2+x,y,1/2+z
1/2-x,-y,1/2+z
1/2-x,y,1/2+z
1/2+x,-y,1/2+z
1/2+x,1/2+y,z
1/2-x,1/2-y,z
1/2-x,1/2+y,z
1/2+x,1/2-y,z
loop_
_atom_site_type_symbol
_atom_site_label
_atom_site_fract_x
_atom_site_fract_y
_atom_site_fract_z
Si Si1 0.750000 0.250000 0.959301
Si Si2 0.711948 0.609411 0.343013
Si Si3 0.609522 0.687243 0.204797
Si Si4 0.888184 0.614810 0.551786
Si Si5 0.392605 0.391897 0.759986
O O1 0.686143 0.179065 0.908993
O O2 0.823486 0.184770 0.003744
O O3 0.679045 0.500000 0.363501
O O4 0.664424 0.640203 0.269847
O O5 0.825774 0.616440 0.329200
O O6 0.500000 0.663047 0.217575
O O7 0.643804 0.637665 0.132222
O O8 0.629307 0.805653 0.202707
O O9 0.867914 0.500000 0.534564
O O10 0.000000 0.639953 0.540805
O O11 0.500000 0.380312 0.789002
O O12 0.378046 0.500000 0.723478
#
# Coordination Sequence:
#
# PCOD8186530 Si02
#       5
#     8  16  16  16  16
#     4  12  24  38  62  90 130 162 204 250 310 370
#     4  11  22  37  59  90 121 155 199 252 310 360
#     4  10  20  39  64  88 117 156 204 256 301 355
#     4  10  24  45  66  89 122 169 215 251 300 371
#     4   9  18  33  57  90 122 152 192 245 306 365
#
# _framework density 20.081496000000001
#
# number of rings (size 3 to 8) (size 9 to 14) (size 15 to 20)
#    0.000    1.778    2.222    1.333    3.111    3.111 
#    0.000    3.333    0.000    3.333    0.000    0.000 
#    0.000    0.000    0.000    0.000    0.000    0.000 
#
# Total GULP energy -223109.981491 kJ/mol
# GULP energy per Si atom -12394.998972 kJ/mol
# Density = 2.003579 g / cm^3
# Si number density = 20.081496 Si / 1000 Ang^3
#
#
#
# Elastic Constant Matrix: (Units=GPa)
#
#
# Indices 1 2 3 4 5 6 
#
# 1 63.5373 54.6059 56.8797 0.0000 0.0000 0.0000
# 2 54.6059 176.7433 81.8870 0.0000 0.0000 0.0000
# 3 56.8797 81.8870 136.5545 0.0000 0.0000 0.0000
# 4 0.0000 0.0000 0.0000 26.4849 0.0000 0.0000
# 5 0.0000 0.0000 0.0000 0.0000 10.8441 0.0000
# 6 0.0000 0.0000 0.0000 0.0000 0.0000 32.7304
#
#
#
# Elastic Compliance Matrix: (Units=1/GPa)
#
#
# Indices 1 2 3 4 5 6 
#
# 1 0.027357 -0.004393 -0.008761 0.000000 0.000000 0.000000
# 2 -0.004393 0.008540 -0.003291 0.000000 0.000000 0.000000
# 3 -0.008761 -0.003291 0.012946 0.000000 0.000000 0.000000
# 4 0.000000 0.000000 0.000000 0.037757 0.000000 0.000000
# 5 0.000000 0.000000 0.000000 0.000000 0.092216 0.000000
# 6 0.000000 0.000000 0.000000 0.000000 0.000000 0.030553
#
#
# Mechanical properties :
#
#
# Convention : Reuss Voigt Hill
#
# Bulk Modulus (GPa) = 62.68521 84.84225 73.76373
# Shear Modulus (GPa) = 20.19569 26.24270 23.21919
#
# Velocity S-wave (km/s) = 3.17470 3.61890 3.40405
# Velocity P-wave (km/s) = 6.68741 7.73322 7.22925
#
# Compressibility (1/GPa) = 0.01595273
#
# Stress axis : x y z
#
# Youngs Moduli (GPa) = 36.55330 117.09422 77.24433
#
# Poissons Ratio (x) = 0.51442 0.67672
# Poissons Ratio (y) = 0.16059 0.25423
# Poissons Ratio (z) = 0.32024 0.38539
#
# Static dielectric constant tensor:
#      x y z
#    x 3.751160 0.000000 0.000000 
#    y 0.000000 4.155180 0.000000 
#    z 0.000000 0.000000 3.443210 
# 
# 
# High freq. dielectric constant tensor:
#      x y z
#    x 1.781420 0.000000 0.000000 
#    y 0.000000 1.810470 0.000000 
#    z 0.000000 0.000000 1.756650 
# 
# From -- ./inp_files/19721.got.cif
#   From: 2010.03.12/outbox.cif.g09.slc.cpg/sg42_10_cif.got.tgz:19721.got - 2010.04.14 02:04:31.
