data_PCOD8186705
_publ_section_title
;
Structure prediction by ZEFSAII (Michael W. Deem and Ramdas Pophale) SiO2 
 PCOD8186705
Probable space group: F M M 2
;
_chemical_formula_sum "Si O2"
_cell_formula_units_Z 80
_cell_length_a 14.199762
_cell_length_b 25.263728
_cell_length_c 11.112396
_cell_angle_alpha 90.000000
_cell_angle_beta 90.000000
_cell_angle_gamma 90.000000
_cell_volume 3986.448993
_symmetry_space_group_name_H-M "F M M 2"
_symmetry_group_IT_number 42
_symmetry_cell_setting 'orthorhombic'
loop_
_space_group_symop_operation_xyz
x,y,z
-x,-y,z
-x,y,z
x,-y,z
x,1/2+y,1/2+z
-x,1/2-y,1/2+z
-x,1/2+y,1/2+z
x,1/2-y,1/2+z
1/2+x,y,1/2+z
1/2-x,-y,1/2+z
1/2-x,y,1/2+z
1/2+x,-y,1/2+z
1/2+x,1/2+y,z
1/2-x,1/2-y,z
1/2-x,1/2+y,z
1/2+x,1/2-y,z
loop_
_atom_site_type_symbol
_atom_site_label
_atom_site_fract_x
_atom_site_fract_y
_atom_site_fract_z
Si Si1 0.500000 0.061048 0.442900
Si Si2 0.649488 0.371888 0.360324
Si Si3 0.609339 0.559780 0.568758
Si Si4 0.000000 0.560186 0.725700
Si Si5 0.500000 0.797587 0.206113
Si Si6 0.644943 0.619350 0.788874
Si Si7 0.500000 0.286709 0.423248
O O1 0.500000 0.058065 0.584163
O O2 0.590942 0.095819 0.404533
O O3 0.500000 0.000000 0.391136
O O4 0.670038 0.404921 0.479796
O O5 0.592595 0.408776 0.267938
O O6 0.752239 0.356939 0.312456
O O7 0.594242 0.318849 0.393399
O O8 0.500000 0.577295 0.559463
O O9 0.623232 0.500000 0.530562
O O10 0.649450 0.568601 0.701515
O O11 0.000000 0.500000 0.778179
O O12 0.408074 0.833823 0.218485
O O13 0.500000 0.760075 0.324585
O O14 0.500000 0.771241 0.068947
#
# Coordination Sequence:
#
# PCOD8186705 Si02
#       7
#     8  16  16   8   8  16   8
#     4  10  22  37  55  89 134 170 208 256 307 366
#     4  11  23  41  64  92 127 167 214 260 315 384
#     4  11  20  38  66  90 128 176 216 253 304 373
#     4  10  22  37  55  89 134 170 208 256 307 366
#     4  11  24  48  71  95 124 166 217 277 336 394
#     4  11  23  41  64  92 127 167 214 260 315 384
#     4  11  24  48  71  95 124 166 217 277 336 394
#
# _framework density 20.067985
#
# number of rings (size 3 to 8) (size 9 to 14) (size 15 to 20)
#    0.000    1.200    6.000    1.200    2.800    7.200 
#    0.000    2.000    0.000    0.000    0.000    0.000 
#    0.000    0.000    0.000    0.000    0.000    0.000 
#
# Total GULP energy -247859.362276 kJ/mol
# GULP energy per Si atom -12392.968114 kJ/mol
# Density = 2.002231 g / cm^3
# Si number density = 20.067985 Si / 1000 Ang^3
#
#
#
# Elastic Constant Matrix: (Units=GPa)
#
#
# Indices 1 2 3 4 5 6 
#
# 1 131.1411 34.4595 26.0480 0.0000 0.0000 0.0000
# 2 34.4595 71.7321 45.6500 0.0000 0.0000 0.0000
# 3 26.0480 45.6500 101.0657 0.0000 0.0000 0.0000
# 4 0.0000 0.0000 0.0000 39.8481 0.0000 0.0000
# 5 0.0000 0.0000 0.0000 0.0000 21.3346 0.0000
# 6 0.0000 0.0000 0.0000 0.0000 0.0000 7.9929
#
#
#
# Elastic Compliance Matrix: (Units=1/GPa)
#
#
# Indices 1 2 3 4 5 6 
#
# 1 0.008745 -0.003883 -0.000500 0.000000 0.000000 0.000000
# 2 -0.003883 0.021289 -0.008615 0.000000 0.000000 0.000000
# 3 -0.000500 -0.008615 0.013915 0.000000 0.000000 0.000000
# 4 0.000000 0.000000 0.000000 0.025095 0.000000 0.000000
# 5 0.000000 0.000000 0.000000 0.000000 0.046872 0.000000
# 6 0.000000 0.000000 0.000000 0.000000 0.000000 0.125111
#
#
# Mechanical properties :
#
#
# Convention : Reuss Voigt Hill
#
# Bulk Modulus (GPa) = 55.70250 57.36154 56.53202
# Shear Modulus (GPa) = 18.31459 27.02055 22.66757
#
# Velocity S-wave (km/s) = 3.02425 3.67338 3.36451
# Velocity P-wave (km/s) = 6.32550 6.82915 6.58214
#
# Compressibility (1/GPa) = 0.01795252
#
# Stress axis : x y z
#
# Youngs Moduli (GPa) = 114.35155 46.97358 71.86626
#
# Poissons Ratio (x) = 0.18239 0.03594
# Poissons Ratio (y) = 0.44400 0.61913
# Poissons Ratio (z) = 0.05718 0.40468
#
# Static dielectric constant tensor:
#      x y z
#    x 3.830490 0.000000 0.000000 
#    y 0.000000 3.696350 0.000000 
#    z 0.000000 0.000000 3.829550 
# 
# 
# High freq. dielectric constant tensor:
#      x y z
#    x 1.770500 0.000000 0.000000 
#    y 0.000000 1.774220 0.000000 
#    z 0.000000 0.000000 1.798750 
# 
# From -- ./inp_files/7818.got.cif
#   From: 2010.03.12/outbox.cif.g09.slc.cpg/sg42_4_cif.got.tgz:7818.got - 2010.04.14 02:04:31.
