data_PCOD8186738
_publ_section_title
;
Structure prediction by ZEFSAII (Michael W. Deem and Ramdas Pophale) SiO2 
 PCOD8186738
Probable space group: F M M 2
;
_chemical_formula_sum "Si O2"
_cell_formula_units_Z 96
_cell_length_a 23.639425
_cell_length_b 8.271714
_cell_length_c 24.887342
_cell_angle_alpha 90.000000
_cell_angle_beta 90.000000
_cell_angle_gamma 90.000000
_cell_volume 4866.435085
_symmetry_space_group_name_H-M "F M M 2"
_symmetry_group_IT_number 42
_symmetry_cell_setting 'orthorhombic'
loop_
_space_group_symop_operation_xyz
x,y,z
-x,-y,z
-x,y,z
x,-y,z
x,1/2+y,1/2+z
-x,1/2-y,1/2+z
-x,1/2+y,1/2+z
x,1/2-y,1/2+z
1/2+x,y,1/2+z
1/2-x,-y,1/2+z
1/2-x,y,1/2+z
1/2+x,-y,1/2+z
1/2+x,1/2+y,z
1/2-x,1/2-y,z
1/2-x,1/2+y,z
1/2+x,1/2-y,z
loop_
_atom_site_type_symbol
_atom_site_label
_atom_site_fract_x
_atom_site_fract_y
_atom_site_fract_z
Si Si1 0.187553 0.187673 0.991140
Si Si2 0.000000 0.811268 0.240673
Si Si3 0.115380 0.311963 0.281250
Si Si4 0.379310 0.310997 0.586801
Si Si5 0.313194 0.187733 0.684982
Si Si6 0.310110 0.187607 0.875180
Si Si7 0.500000 0.187715 0.121586
O O1 0.250000 0.250000 0.005511
O O2 0.172887 0.217527 0.929002
O O3 0.183927 0.000000 0.004671
O O4 0.140815 0.281485 0.026107
O O5 0.053516 0.762289 0.275871
O O6 0.000000 0.715743 0.185010
O O7 0.000000 0.000000 0.227434
O O8 0.112176 0.500000 0.295392
O O9 0.149233 0.288839 0.226251
O O10 0.143732 0.216360 0.329910
O O11 0.377012 0.500000 0.601240
O O12 0.336875 0.214680 0.625468
O O13 0.442957 0.240070 0.594747
O O14 0.250000 0.250000 0.688337
O O15 0.315780 0.000000 0.700498
O O16 0.250000 0.250000 0.852838
O O17 0.305211 0.000000 0.889646
O O18 0.500000 0.000000 0.109560
#
# Coordination Sequence:
#
# PCOD8186738 Si02
#       7
#    16   8  16  16  16  16   8
#     4  11  22  39  62  90 122 160 202 249 305 363
#     4  12  24  40  63  90 121 160 206 250 300 360
#     4  12  24  41  62  88 122 160 202 249 302 360
#     4  11  22  39  61  88 120 158 202 250 303 361
#     4  12  24  38  57  87 121 157 197 248 305 363
#     4  11  22  40  64  92 123 159 202 250 306 365
#     4  10  22  40  63  86 119 162 204 246 302 360
#
# _framework density 19.726966000000001
#
# number of rings (size 3 to 8) (size 9 to 14) (size 15 to 20)
#    0.000    0.667    1.667    9.250    0.000    0.667 
#    0.000    0.833    0.000    1.000    0.000    0.000 
#    0.000    0.000    0.000    0.000    0.000    0.000 
#
# Total GULP energy -297776.457083 kJ/mol
# GULP energy per Si atom -12407.352378 kJ/mol
# Density = 1.968207 g / cm^3
# Si number density = 19.726966 Si / 1000 Ang^3
#
#
#
# Elastic Constant Matrix: (Units=GPa)
#
#
# Indices 1 2 3 4 5 6 
#
# 1 147.2300 19.6343 58.1108 0.0000 0.0000 0.0000
# 2 19.6343 73.2086 -0.2565 0.0000 0.0001 -0.0001
# 3 58.1108 -0.2565 93.5009 0.0000 0.0000 0.0000
# 4 0.0000 0.0000 0.0000 34.4209 0.0000 0.0000
# 5 0.0000 0.0001 0.0000 0.0000 22.9112 0.0000
# 6 0.0000 -0.0001 0.0000 0.0000 0.0000 18.9588
#
#
#
# Elastic Compliance Matrix: (Units=1/GPa)
#
#
# Indices 1 2 3 4 5 6 
#
# 1 0.009455 -0.002556 -0.005883 0.000000 0.000000 0.000000
# 2 -0.002556 0.014351 0.001628 0.000000 0.000000 0.000000
# 3 -0.005883 0.001628 0.014356 0.000000 0.000000 0.000000
# 4 0.000000 0.000000 0.000000 0.029052 0.000000 0.000000
# 5 0.000000 0.000000 0.000000 0.000000 0.043647 0.000000
# 6 0.000000 0.000000 0.000000 0.000000 0.000000 0.052746
#
#
# Mechanical properties :
#
#
# Convention : Reuss Voigt Hill
#
# Bulk Modulus (GPa) = 40.75165 52.10187 46.42676
# Shear Modulus (GPa) = 26.96725 31.02156 28.99441
#
# Velocity S-wave (km/s) = 3.70134 3.96984 3.83794
# Velocity P-wave (km/s) = 6.24254 6.89069 6.57461
#
# Compressibility (1/GPa) = 0.02453888
#
# Stress axis : x y z
#
# Youngs Moduli (GPa) = 105.76240 69.68184 69.65691
#
# Poissons Ratio (x) = 0.17814 0.40982
# Poissons Ratio (y) = 0.27038 -0.11342
# Poissons Ratio (z) = 0.62224 -0.11346
#
# Static dielectric constant tensor:
#      x y z
#    x 3.859700 0.000000 0.000000 
#    y 0.000000 3.653030 0.000000 
#    z 0.000000 0.000000 3.479010 
# 
# 
# High freq. dielectric constant tensor:
#      x y z
#    x 1.773770 0.000000 0.000000 
#    y 0.000000 1.784170 0.000000 
#    z 0.000000 0.000000 1.765390 
# 
# From -- ./inp_files/30460.got.cif
#   From: 2010.03.12/outbox.cif.g09.slc.cpg/sg42_16_cif.got.tgz:30460.got - 2010.04.14 02:04:31.
