data_PCOD8186853
_publ_section_title
;
Structure prediction by ZEFSAII (Michael W. Deem and Ramdas Pophale) SiO2 
 PCOD8186853
Probable space group: F M M 2
;
_chemical_formula_sum "Si O2"
_cell_formula_units_Z 80
_cell_length_a 17.457543
_cell_length_b 28.567661
_cell_length_c 7.486480
_cell_angle_alpha 90.000000
_cell_angle_beta 90.000000
_cell_angle_gamma 90.000000
_cell_volume 3733.666067
_symmetry_space_group_name_H-M "F M M 2"
_symmetry_group_IT_number 42
_symmetry_cell_setting 'orthorhombic'
loop_
_space_group_symop_operation_xyz
x,y,z
-x,-y,z
-x,y,z
x,-y,z
x,1/2+y,1/2+z
-x,1/2-y,1/2+z
-x,1/2+y,1/2+z
x,1/2-y,1/2+z
1/2+x,y,1/2+z
1/2-x,-y,1/2+z
1/2-x,y,1/2+z
1/2+x,-y,1/2+z
1/2+x,1/2+y,z
1/2-x,1/2-y,z
1/2-x,1/2+y,z
1/2+x,1/2-y,z
loop_
_atom_site_type_symbol
_atom_site_label
_atom_site_fract_x
_atom_site_fract_y
_atom_site_fract_z
Si Si1 0.089238 0.447439 0.375000
Si Si2 0.671937 0.778980 0.036072
Si Si3 0.913209 0.701354 0.697514
Si Si4 0.323777 0.882940 0.096013
Si Si5 0.650336 0.893713 0.681605
O O1 0.118177 0.500000 0.334489
O O2 0.129625 0.411455 0.241665
O O3 0.107445 0.436508 0.583620
O O4 0.000000 0.443283 0.339429
O O5 0.750000 0.750000 0.056677
O O6 0.597942 0.746211 0.071538
O O7 0.670370 0.827444 0.147468
O O8 0.657648 0.794243 0.834535
O O9 0.894282 0.652019 0.604378
O O10 0.000000 0.701048 0.772831
O O11 0.235711 0.896359 0.106863
O O12 0.355139 0.895887 0.897538
#
# Coordination Sequence:
#
# PCOD8186853 Si02
#       5
#    16  16  16  16  16
#     4  11  27  49  74 104 137 178 228 290 360 415
#     4  11  23  39  63  93 134 179 226 276 333 401
#     4  11  24  38  60  95 133 177 227 277 335 400
#     4  11  24  43  71 102 137 182 230 284 339 409
#     4  11  23  44  69 100 137 179 230 282 341 409
#
# _framework density 21.426659999999998
#
# number of rings (size 3 to 8) (size 9 to 14) (size 15 to 20)
#    0.000    1.000    4.000    1.800    5.600    6.400 
#    0.000    2.000    0.000    0.000    0.000    0.000 
#    0.000    0.000    0.000    0.000    0.000    0.000 
#
# Total GULP energy -247855.337272 kJ/mol
# GULP energy per Si atom -12392.766864 kJ/mol
# Density = 2.137789 g / cm^3
# Si number density = 21.426660 Si / 1000 Ang^3
#
#
#
# Elastic Constant Matrix: (Units=GPa)
#
#
# Indices 1 2 3 4 5 6 
#
# 1 108.6823 71.9605 30.6654 0.0001 -0.0007 -0.0001
# 2 71.9605 147.5788 53.0599 0.0001 -0.0002 -0.0001
# 3 30.6654 53.0599 88.4224 0.0004 -0.0013 -0.0003
# 4 0.0001 0.0001 0.0004 31.4392 -0.0003 -0.0001
# 5 -0.0007 -0.0002 -0.0013 -0.0003 18.0142 0.0003
# 6 -0.0001 -0.0001 -0.0003 -0.0001 0.0003 34.2077
#
#
#
# Elastic Compliance Matrix: (Units=1/GPa)
#
#
# Indices 1 2 3 4 5 6 
#
# 1 0.013650 -0.006316 -0.000943 0.000000 0.000000 0.000000
# 2 -0.006316 0.011563 -0.004748 0.000000 0.000000 0.000000
# 3 -0.000943 -0.004748 0.014486 0.000000 0.000001 0.000000
# 4 0.000000 0.000000 0.000000 0.031807 0.000000 0.000000
# 5 0.000000 0.000000 0.000001 0.000000 0.055512 0.000000
# 6 0.000000 0.000000 0.000000 0.000000 0.000000 0.029233
#
#
# Mechanical properties :
#
#
# Convention : Reuss Voigt Hill
#
# Bulk Modulus (GPa) = 63.76560 72.89503 68.33031
# Shear Modulus (GPa) = 26.95500 29.33205 28.14353
#
# Velocity S-wave (km/s) = 3.55069 3.70395 3.62813
# Velocity P-wave (km/s) = 6.82894 7.23788 7.03638
#
# Compressibility (1/GPa) = 0.01568244
#
# Stress axis : x y z
#
# Youngs Moduli (GPa) = 73.26262 86.48207 69.03326
#
# Poissons Ratio (x) = 0.54626 0.06513
# Poissons Ratio (y) = 0.46276 0.32778
# Poissons Ratio (z) = 0.06912 0.41063
#
# Static dielectric constant tensor:
#      x y z
#    x 3.757330 0.000000 0.000000 
#    y 0.000000 4.467040 0.000000 
#    z 0.000000 0.000000 3.795610 
# 
# 
# High freq. dielectric constant tensor:
#      x y z
#    x 1.845430 0.000000 0.000000 
#    y 0.000000 1.846650 0.000000 
#    z 0.000000 0.000000 1.832810 
# 
# From -- ./inp_files/3484.got.cif
#   From: 2010.03.12/outbox.cif.g09.slc.cpg/sg42_2_cif.got.tgz:3484.got - 2010.04.14 02:04:31.
