data_PCOD8186608
_publ_section_title
;
Structure prediction by ZEFSAII (Michael W. Deem and Ramdas Pophale) SiO2 
 PCOD8186608
Probable space group: F M M 2
;
_chemical_formula_sum "Si O2"
_cell_formula_units_Z 120
_cell_length_a 21.798812
_cell_length_b 21.975838
_cell_length_c 13.430859
_cell_angle_alpha 90.000000
_cell_angle_beta 90.000000
_cell_angle_gamma 90.000000
_cell_volume 6434.014875
_symmetry_space_group_name_H-M "F M M 2"
_symmetry_group_IT_number 42
_symmetry_cell_setting 'orthorhombic'
loop_
_space_group_symop_operation_xyz
x,y,z
-x,-y,z
-x,y,z
x,-y,z
x,1/2+y,1/2+z
-x,1/2-y,1/2+z
-x,1/2+y,1/2+z
x,1/2-y,1/2+z
1/2+x,y,1/2+z
1/2-x,-y,1/2+z
1/2-x,y,1/2+z
1/2+x,-y,1/2+z
1/2+x,1/2+y,z
1/2-x,1/2-y,z
1/2-x,1/2+y,z
1/2+x,1/2-y,z
loop_
_atom_site_type_symbol
_atom_site_label
_atom_site_fract_x
_atom_site_fract_y
_atom_site_fract_z
Si Si1 0.250000 0.250000 0.213230
Si Si2 0.929950 0.569008 0.467592
Si Si3 0.853857 0.675393 0.816651
Si Si4 0.571220 0.792628 0.005464
Si Si5 0.668697 0.432110 0.810575
Si Si6 0.069734 0.167085 0.118753
Si Si7 0.208871 0.929221 0.429509
Si Si8 0.824287 0.354311 0.116577
O O1 0.205997 0.214497 0.289858
O O2 0.214487 0.293288 0.135374
O O3 0.921461 0.500000 0.503938
O O4 0.894767 0.581311 0.365603
O O5 0.904051 0.610857 0.555485
O O6 0.000000 0.585908 0.444373
O O7 0.895565 0.709663 0.898287
O O8 0.891916 0.669445 0.717572
O O9 0.836053 0.608273 0.856311
O O10 0.500000 0.813280 0.995461
O O11 0.576469 0.726393 0.051780
O O12 0.607286 0.839376 0.077359
O O13 0.670200 0.500000 0.766064
O O14 0.722461 0.423356 0.890081
O O15 0.672546 0.385531 0.722217
O O16 0.000000 0.155915 0.150615
O O17 0.209123 0.898911 0.538700
O O18 0.187534 0.000000 0.434360
#
# Coordination Sequence:
#
# PCOD8186608 Si02
#       8
#     8  16  16  16  16  16  16  16
#     4  12  24  38  56  96 118 164 188 242 312 360
#     4   9  20  36  54  81 112 146 196 253 304 356
#     4  11  23  40  60  87 125 157 199 250 297 366
#     4  10  23  40  60  87 119 160 201 246 296 360
#     4  10  21  37  59  85 115 155 200 245 300 356
#     4  10  21  37  59  85 115 155 200 245 300 356
#     4  10  23  40  60  87 119 160 201 246 296 360
#     4  11  23  40  60  87 125 157 199 250 297 366
#
# _framework density 18.650874000000002
#
# number of rings (size 3 to 8) (size 9 to 14) (size 15 to 20)
#    0.000    1.733    2.667    0.800    3.733    3.200 
#    0.000    0.000    0.000   12.800    0.000    0.000 
#    0.000    0.000    0.000    0.000    0.000    0.000 
#
# Total GULP energy -372015.683018 kJ/mol
# GULP energy per Si atom -12400.522767 kJ/mol
# Density = 1.860842 g / cm^3
# Si number density = 18.650874 Si / 1000 Ang^3
#
#
#
# Elastic Constant Matrix: (Units=GPa)
#
#
# Indices 1 2 3 4 5 6 
#
# 1 82.2627 45.2200 45.0693 0.0000 0.0000 0.0000
# 2 45.2200 112.0836 63.7820 0.0000 0.0000 0.0000
# 3 45.0693 63.7820 103.5450 0.0000 0.0000 0.0000
# 4 0.0000 0.0000 0.0000 33.1665 0.0000 0.0000
# 5 0.0000 0.0000 0.0000 0.0000 26.0595 0.0000
# 6 0.0000 0.0000 0.0000 0.0000 0.0000 26.5898
#
#
#
# Elastic Compliance Matrix: (Units=1/GPa)
#
#
# Indices 1 2 3 4 5 6 
#
# 1 0.017106 -0.004102 -0.004919 0.000000 0.000000 0.000000
# 2 -0.004102 0.014721 -0.007282 0.000000 0.000000 0.000000
# 3 -0.004919 -0.007282 0.016284 0.000000 0.000000 0.000000
# 4 0.000000 0.000000 0.000000 0.030151 0.000000 0.000000
# 5 0.000000 0.000000 0.000000 0.000000 0.038374 0.000000
# 6 0.000000 0.000000 0.000000 0.000000 0.000000 0.037608
#
#
# Mechanical properties :
#
#
# Convention : Reuss Voigt Hill
#
# Bulk Modulus (GPa) = 64.49636 67.33709 65.91673
# Shear Modulus (GPa) = 26.03906 26.75119 26.39512
#
# Velocity S-wave (km/s) = 3.74054 3.79134 3.76602
# Velocity P-wave (km/s) = 7.30147 7.43963 7.37087
#
# Compressibility (1/GPa) = 0.01550475
#
# Stress axis : x y z
#
# Youngs Moduli (GPa) = 58.45884 67.92980 61.40892
#
# Poissons Ratio (x) = 0.27868 0.30205
# Poissons Ratio (y) = 0.23982 0.44720
# Poissons Ratio (z) = 0.28753 0.49468
#
# Static dielectric constant tensor:
#      x y z
#    x 3.734310 0.000000 0.000000 
#    y 0.000000 3.646770 0.000000 
#    z 0.000000 0.000000 3.421930 
# 
# 
# High freq. dielectric constant tensor:
#      x y z
#    x 1.729640 0.000000 0.000000 
#    y 0.000000 1.731420 0.000000 
#    z 0.000000 0.000000 1.729160 
# 
# From -- ./inp_files/10280.got.cif
#   From: 2010.03.12/outbox.cif.g09.slc.cpg/sg42_6_cif.got.tgz:10280.got - 2010.04.14 02:04:31.
