data_PCOD8186249
_publ_section_title
;
Structure prediction by ZEFSAII (Michael W. Deem and Ramdas Pophale) SiO2 
 PCOD8186249
Probable space group: F M M 2
;
_chemical_formula_sum "Si O2"
_cell_formula_units_Z 96
_cell_length_a 20.708837
_cell_length_b 14.961484
_cell_length_c 15.778433
_cell_angle_alpha 90.000000
_cell_angle_beta 90.000000
_cell_angle_gamma 90.000000
_cell_volume 4888.709738
_symmetry_space_group_name_H-M "F M M 2"
_symmetry_group_IT_number 42
_symmetry_cell_setting 'orthorhombic'
loop_
_space_group_symop_operation_xyz
x,y,z
-x,-y,z
-x,y,z
x,-y,z
x,1/2+y,1/2+z
-x,1/2-y,1/2+z
-x,1/2+y,1/2+z
x,1/2-y,1/2+z
1/2+x,y,1/2+z
1/2-x,-y,1/2+z
1/2-x,y,1/2+z
1/2+x,-y,1/2+z
1/2+x,1/2+y,z
1/2-x,1/2-y,z
1/2-x,1/2+y,z
1/2+x,1/2-y,z
loop_
_atom_site_type_symbol
_atom_site_label
_atom_site_fract_x
_atom_site_fract_y
_atom_site_fract_z
Si Si1 0.629452 0.258118 0.218940
Si Si2 0.753819 0.101713 0.967452
Si Si3 0.500000 0.600354 0.605863
Si Si4 0.882235 0.102045 0.072333
Si Si5 0.360818 0.603960 0.588014
Si Si6 0.250000 0.250000 0.332511
Si Si7 0.000000 0.297529 0.281311
Si Si8 0.500000 0.894931 0.457410
O O1 0.615923 0.337833 0.154735
O O2 0.646044 0.164395 0.171939
O O3 0.690328 0.281338 0.276181
O O4 0.566885 0.257356 0.280521
O O5 0.768744 0.164430 0.888428
O O6 0.746364 0.000000 0.934957
O O7 0.811983 0.110328 0.032549
O O8 0.688847 0.134561 0.015423
O O9 0.500000 0.500000 0.637835
O O10 0.434325 0.619052 0.552352
O O11 0.500000 0.653296 0.692131
O O12 0.897461 0.000000 0.098442
O O13 0.936367 0.138081 0.007185
O O14 0.347947 0.500000 0.612612
O O15 0.000000 0.359383 0.362729
O O16 0.500000 0.000000 0.448540
#
# Coordination Sequence:
#
# PCOD8186249 Si02
#       8
#    16  16   8  16  16   8   8   8
#     4  11  22  36  56  82 111 144 182 225 273 323
#     4  10  21  37  56  80 110 144 183 225 270 322
#     4   8  15  29  52  81 110 139 174 217 261 310
#     4  10  21  38  59  80 106 145 189 226 264 320
#     4   9  18  34  56  80 108 143 181 221 267 324
#     4  12  24  36  54  80 112 144 178 228 282 324
#     4  10  20  33  52  84 115 140 173 218 273 321
#     4  10  20  36  59  83 109 143 181 225 274 323
#
# _framework density 19.637084000000002
#
# number of rings (size 3 to 8) (size 9 to 14) (size 15 to 20)
#    0.000    2.000    0.000    3.750    0.000    2.000 
#    0.000    0.833    0.000    0.000    0.000    1.167 
#    0.000    0.000    0.000    0.000    0.000    0.000 
#
# Total GULP energy -297531.234592 kJ/mol
# GULP energy per Si atom -12397.134775 kJ/mol
# Density = 1.959239 g / cm^3
# Si number density = 19.637084 Si / 1000 Ang^3
#
#
#
# Elastic Constant Matrix: (Units=GPa)
#
#
# Indices 1 2 3 4 5 6 
#
# 1 138.9816 16.3031 38.7038 0.0000 0.0000 0.0000
# 2 16.3031 68.4673 29.5344 0.0000 0.0000 0.0000
# 3 38.7038 29.5344 74.2236 0.0000 0.0000 0.0000
# 4 0.0000 0.0000 0.0000 12.3357 0.0000 0.0000
# 5 0.0000 0.0000 0.0000 0.0000 26.0816 0.0000
# 6 0.0000 0.0000 0.0000 0.0000 0.0000 17.5381
#
#
#
# Elastic Compliance Matrix: (Units=1/GPa)
#
#
# Indices 1 2 3 4 5 6 
#
# 1 0.008419 -0.000134 -0.004337 0.000000 0.000000 0.000000
# 2 -0.000134 0.017634 -0.006947 0.000000 0.000000 0.000000
# 3 -0.004337 -0.006947 0.018498 0.000000 0.000000 0.000000
# 4 0.000000 0.000000 0.000000 0.081065 0.000000 0.000000
# 5 0.000000 0.000000 0.000000 0.000000 0.038341 0.000000
# 6 0.000000 0.000000 0.000000 0.000000 0.000000 0.057019
#
#
# Mechanical properties :
#
#
# Convention : Reuss Voigt Hill
#
# Bulk Modulus (GPa) = 46.04875 50.08387 48.06631
# Shear Modulus (GPa) = 19.91636 24.33317 22.12476
#
# Velocity S-wave (km/s) = 3.18814 3.52397 3.36025
# Velocity P-wave (km/s) = 6.08713 6.48983 6.29170
#
# Compressibility (1/GPa) = 0.02171612
#
# Stress axis : x y z
#
# Youngs Moduli (GPa) = 118.78520 56.70836 54.05885
#
# Poissons Ratio (x) = 0.00760 0.23443
# Poissons Ratio (y) = 0.01591 0.37554
# Poissons Ratio (z) = 0.51512 0.39395
#
# Static dielectric constant tensor:
#      x y z
#    x 4.173360 0.000000 0.000000 
#    y 0.000000 3.614620 0.000000 
#    z 0.000000 0.000000 3.272410 
# 
# 
# High freq. dielectric constant tensor:
#      x y z
#    x 1.793390 0.000000 0.000000 
#    y 0.000000 1.765450 0.000000 
#    z 0.000000 0.000000 1.738320 
# 
# From -- ./inp_files/15872.got.cif
#   From: 2010.03.12/outbox.cif.g09.slc.cpg/sg42_8_cif.got.tgz:15872.got - 2010.04.14 02:04:31.
