data_PCOD8186874
_publ_section_title
;
Structure prediction by ZEFSAII (Michael W. Deem and Ramdas Pophale) SiO2 
 PCOD8186874
Probable space group: F M M 2
;
_chemical_formula_sum "Si O2"
_cell_formula_units_Z 104
_cell_length_a 14.134057
_cell_length_b 20.341666
_cell_length_c 18.929152
_cell_angle_alpha 90.000000
_cell_angle_beta 90.000000
_cell_angle_gamma 90.000000
_cell_volume 5442.325540
_symmetry_space_group_name_H-M "F M M 2"
_symmetry_group_IT_number 42
_symmetry_cell_setting 'orthorhombic'
loop_
_space_group_symop_operation_xyz
x,y,z
-x,-y,z
-x,y,z
x,-y,z
x,1/2+y,1/2+z
-x,1/2-y,1/2+z
-x,1/2+y,1/2+z
x,1/2-y,1/2+z
1/2+x,y,1/2+z
1/2-x,-y,1/2+z
1/2-x,y,1/2+z
1/2+x,-y,1/2+z
1/2+x,1/2+y,z
1/2-x,1/2-y,z
1/2-x,1/2+y,z
1/2+x,1/2-y,z
loop_
_atom_site_type_symbol
_atom_site_label
_atom_site_fract_x
_atom_site_fract_y
_atom_site_fract_z
Si Si1 0.713420 0.634768 0.263220
Si Si2 0.250000 0.750000 0.368353
Si Si3 0.392656 0.799716 0.641005
Si Si4 0.388765 0.735593 0.986704
Si Si5 0.888975 0.124882 0.535166
Si Si6 0.394311 0.500000 0.464089
Si Si7 0.607447 0.500000 0.299493
Si Si8 0.393766 0.150477 0.188659
O O1 0.699136 0.692755 0.321286
O O2 0.674847 0.654325 0.186231
O O3 0.664298 0.566008 0.281026
O O4 0.826125 0.626381 0.252014
O O5 0.330345 0.785487 0.416912
O O6 0.500000 0.821884 0.654620
O O7 0.368901 0.807747 0.557304
O O8 0.378011 0.726016 0.667995
O O9 0.500000 0.734133 0.968550
O O10 0.346380 0.807508 0.005672
O O11 0.841443 0.065220 0.491676
O O12 0.870790 0.110228 0.617533
O O13 0.000000 0.132130 0.520798
O O14 0.500000 0.500000 0.497533
O O15 0.401481 0.500000 0.381896
O O16 0.500000 0.500000 0.267046
O O17 0.500000 0.137844 0.215536
#
# Coordination Sequence:
#
# PCOD8186874 Si02
#       8
#    16   8  16  16  16   8   8  16
#     4  12  23  39  58  92 119 165 209 251 310 369
#     4  12  24  32  60  90 122 162 200 254 308 376
#     4   9  18  36  61  84 116 157 200 253 308 358
#     4   9  20  35  53  84 118 152 197 258 310 357
#     4   8  15  29  52  78 108 148 194 239 300 353
#     4   9  16  31  52  75 107 147 186 239 298 361
#     4  11  26  43  59  83 127 165 203 257 311 373
#     4   9  18  33  56  87 118 150 194 251 303 360
#
# _framework density 19.109476999999998
#
# number of rings (size 3 to 8) (size 9 to 14) (size 15 to 20)
#    0.000    2.308    1.538    3.231    4.308    3.692 
#    0.000    1.154    0.000    0.000    0.000    0.000 
#    0.000    0.000    0.000    0.000    0.000    0.000 
#
# Total GULP energy -322159.090909 kJ/mol
# GULP energy per Si atom -12390.734266 kJ/mol
# Density = 1.906598 g / cm^3
# Si number density = 19.109477 Si / 1000 Ang^3
#
#
#
# Elastic Constant Matrix: (Units=GPa)
#
#
# Indices 1 2 3 4 5 6 
#
# 1 85.5650 28.4452 42.1183 0.0000 0.0000 0.0000
# 2 28.4452 78.4381 39.8772 0.0000 0.0000 0.0000
# 3 42.1183 39.8772 88.2506 0.0000 0.0000 0.0000
# 4 0.0000 0.0000 0.0000 30.2113 0.0000 0.0000
# 5 0.0000 0.0000 0.0000 0.0000 34.8010 0.0000
# 6 0.0000 0.0000 0.0000 0.0000 0.0000 14.4780
#
#
#
# Elastic Compliance Matrix: (Units=1/GPa)
#
#
# Indices 1 2 3 4 5 6 
#
# 1 0.015626 -0.002435 -0.006357 0.000000 0.000000 0.000000
# 2 -0.002435 0.016930 -0.006488 0.000000 0.000000 0.000000
# 3 -0.006357 -0.006488 0.017297 0.000000 0.000000 0.000000
# 4 0.000000 0.000000 0.000000 0.033100 0.000000 0.000000
# 5 0.000000 0.000000 0.000000 0.000000 0.028735 0.000000
# 6 0.000000 0.000000 0.000000 0.000000 0.000000 0.069070
#
#
# Mechanical properties :
#
#
# Convention : Reuss Voigt Hill
#
# Bulk Modulus (GPa) = 51.83257 52.57055 52.20156
# Shear Modulus (GPa) = 22.96210 25.35225 24.15718
#
# Velocity S-wave (km/s) = 3.47018 3.64632 3.55934
# Velocity P-wave (km/s) = 6.57565 6.73034 6.65344
#
# Compressibility (1/GPa) = 0.01929289
#
# Stress axis : x y z
#
# Youngs Moduli (GPa) = 63.99707 59.06544 57.81235
#
# Poissons Ratio (x) = 0.14380 0.36754
# Poissons Ratio (y) = 0.15580 0.37511
# Poissons Ratio (z) = 0.40686 0.38324
#
# Static dielectric constant tensor:
#      x y z
#    x 3.576630 0.000000 0.000000 
#    y 0.000000 3.434210 0.000000 
#    z 0.000000 0.000000 3.595120 
# 
# 
# High freq. dielectric constant tensor:
#      x y z
#    x 1.736660 0.000000 0.000000 
#    y 0.000000 1.707040 0.000000 
#    z 0.000000 0.000000 1.744240 
# 
# From -- ./inp_files/20150.got.cif
#   From: 2010.03.12/outbox.cif.g09.slc.cpg/sg42_11_cif.got.tgz:20150.got - 2010.04.14 02:04:31.
