data_PCOD8186836
_publ_section_title
;
Structure prediction by ZEFSAII (Michael W. Deem and Ramdas Pophale) SiO2 
 PCOD8186836
Probable space group: F M M 2
;
_chemical_formula_sum "Si O2"
_cell_formula_units_Z 80
_cell_length_a 8.715737
_cell_length_b 15.959535
_cell_length_c 29.046420
_cell_angle_alpha 90.000000
_cell_angle_beta 90.000000
_cell_angle_gamma 90.000000
_cell_volume 4040.331162
_symmetry_space_group_name_H-M "F M M 2"
_symmetry_group_IT_number 42
_symmetry_cell_setting 'orthorhombic'
loop_
_space_group_symop_operation_xyz
x,y,z
-x,-y,z
-x,y,z
x,-y,z
x,1/2+y,1/2+z
-x,1/2-y,1/2+z
-x,1/2+y,1/2+z
x,1/2-y,1/2+z
1/2+x,y,1/2+z
1/2-x,-y,1/2+z
1/2-x,y,1/2+z
1/2+x,-y,1/2+z
1/2+x,1/2+y,z
1/2-x,1/2-y,z
1/2-x,1/2+y,z
1/2+x,1/2-y,z
loop_
_atom_site_type_symbol
_atom_site_label
_atom_site_fract_x
_atom_site_fract_y
_atom_site_fract_z
Si Si1 0.319044 0.000000 0.571331
Si Si2 0.818347 0.000000 0.177480
Si Si3 0.317982 0.162772 0.225792
Si Si4 0.818211 0.159225 0.015359
Si Si5 0.681675 0.090697 0.319258
Si Si6 0.318747 0.338396 0.912643
O O1 0.271291 0.000000 0.624129
O O2 0.253264 0.085316 0.548038
O O3 0.500000 0.000000 0.563818
O O4 0.748686 0.084261 0.198370
O O5 0.000000 0.000000 0.184612
O O6 0.500000 0.162752 0.219723
O O7 0.250000 0.250000 0.206410
O O8 0.266606 0.155447 0.279575
O O9 0.750000 0.250000 0.029054
O O10 0.000000 0.167961 0.019525
O O11 0.767820 0.131737 0.963510
O O12 0.500000 0.091690 0.322388
O O13 0.747656 0.106012 0.370656
O O14 0.741639 0.000000 0.303144
O O15 0.500000 0.333790 0.910653
O O16 0.250000 0.250000 0.901505
#
# Coordination Sequence:
#
# PCOD8186836 Si02
#       6
#     8   8  16  16  16  16
#     4   9  20  37  58  81 107 139 181 229 276 327
#     4  11  23  41  60  83 113 145 189 241 288 339
#     4  11  22  39  61  85 115 150 188 232 282 337
#     4   9  18  34  55  81 110 142 179 221 267 322
#     4   9  17  30  51  80 111 143 181 223 266 322
#     4   9  17  29  50  76 106 141 178 216 260 317
#
# _framework density 19.800357999999999
#
# number of rings (size 3 to 8) (size 9 to 14) (size 15 to 20)
#    0.000    2.400    1.000    1.500    1.400    0.800 
#    0.000    5.500    0.000    0.000    0.000    0.000 
#    0.000    0.000    0.000    0.000    0.000    0.000 
#
# Total GULP energy -247810.402382 kJ/mol
# GULP energy per Si atom -12390.520119 kJ/mol
# Density = 1.975529 g / cm^3
# Si number density = 19.800358 Si / 1000 Ang^3
#
#
#
# Elastic Constant Matrix: (Units=GPa)
#
#
# Indices 1 2 3 4 5 6 
#
# 1 35.5312 37.3810 34.7598 0.0000 0.0000 0.0000
# 2 37.3810 169.7319 89.1533 0.0000 0.0000 0.0000
# 3 34.7598 89.1533 139.5053 0.0000 0.0000 0.0000
# 4 0.0000 0.0000 0.0000 -17.7696 0.0000 0.0000
# 5 0.0000 0.0000 0.0000 0.0000 20.3858 0.0000
# 6 0.0000 0.0000 0.0000 0.0000 0.0000 30.9842
#
#
#
# Elastic Compliance Matrix: (Units=1/GPa)
#
#
# Indices 1 2 3 4 5 6 
#
# 1 0.040274 -0.005417 -0.006573 0.000000 0.000000 0.000000
# 2 -0.005417 0.009597 -0.004784 0.000000 0.000000 0.000000
# 3 -0.006573 -0.004784 0.011863 0.000000 0.000000 0.000000
# 4 0.000000 0.000000 0.000000 -0.056276 0.000000 0.000000
# 5 0.000000 0.000000 0.000000 0.000000 0.049054 0.000000
# 6 0.000000 0.000000 0.000000 0.000000 0.000000 0.032274
#
#
# Mechanical properties :
#
#
# Convention : Reuss Voigt Hill
#
# Bulk Modulus (GPa) = 35.47774 74.15074 54.81424
# Shear Modulus (GPa) = 38.54187 18.95170 28.74679
#
# Velocity S-wave (km/s) = 4.41673 3.09712 3.81442
# Velocity P-wave (km/s) = 6.63073 7.09366 6.86610
#
# Compressibility (1/GPa) = 0.02818669
#
# Stress axis : x y z
#
# Youngs Moduli (GPa) = 24.83012 104.19574 84.29641
#
# Poissons Ratio (x) = 0.56446 0.55406
# Poissons Ratio (y) = 0.13451 0.40324
# Poissons Ratio (z) = 0.16320 0.49842
#
# Static dielectric constant tensor:
#      x y z
#    x 3.273780 0.000000 0.000000 
#    y 0.000000 3.722320 0.000000 
#    z 0.000000 0.000000 3.951890 
# 
# 
# High freq. dielectric constant tensor:
#      x y z
#    x 1.737370 0.000000 0.000000 
#    y 0.000000 1.779810 0.000000 
#    z 0.000000 0.000000 1.780530 
# 
# From -- ./inp_files/31297.got.cif
#   From: 2010.03.12/outbox.cif.g09.slc.cpg/sg42_16_cif.got.tgz:31297.got - 2010.04.14 02:04:31.
