data_PCOD8186383
_publ_section_title
;
Structure prediction by ZEFSAII (Michael W. Deem and Ramdas Pophale) SiO2 
 PCOD8186383
Probable space group: F M M 2
;
_chemical_formula_sum "Si O2"
_cell_formula_units_Z 112
_cell_length_a 14.179732
_cell_length_b 16.999416
_cell_length_c 22.799439
_cell_angle_alpha 90.000000
_cell_angle_beta 90.000000
_cell_angle_gamma 90.000000
_cell_volume 5495.740090
_symmetry_space_group_name_H-M "F M M 2"
_symmetry_group_IT_number 42
_symmetry_cell_setting 'orthorhombic'
loop_
_space_group_symop_operation_xyz
x,y,z
-x,-y,z
-x,y,z
x,-y,z
x,1/2+y,1/2+z
-x,1/2-y,1/2+z
-x,1/2+y,1/2+z
x,1/2-y,1/2+z
1/2+x,y,1/2+z
1/2-x,-y,1/2+z
1/2-x,y,1/2+z
1/2+x,-y,1/2+z
1/2+x,1/2+y,z
1/2-x,1/2-y,z
1/2-x,1/2+y,z
1/2+x,1/2-y,z
loop_
_atom_site_type_symbol
_atom_site_label
_atom_site_fract_x
_atom_site_fract_y
_atom_site_fract_z
Si Si1 0.606511 0.412946 0.819490
Si Si2 0.272490 0.160146 0.623253
Si Si3 0.608771 0.092902 0.516889
Si Si4 0.108174 0.315799 0.732773
Si Si5 0.228176 0.839692 0.910985
Si Si6 0.391650 0.590820 0.348566
Si Si7 0.605786 0.139613 0.196962
O O1 0.500000 0.384480 0.831564
O O2 0.624216 0.500000 0.846315
O O3 0.674677 0.349410 0.849064
O O4 0.623238 0.421144 0.749602
O O5 0.250000 0.250000 0.606372
O O6 0.325818 0.118769 0.570568
O O7 0.334977 0.144721 0.680396
O O8 0.171567 0.121664 0.640678
O O9 0.500000 0.124269 0.522256
O O10 0.658293 0.125791 0.459258
O O11 0.607095 0.000000 0.513664
O O12 0.139917 0.353135 0.794678
O O13 0.127683 0.222893 0.729072
O O14 0.000000 0.336955 0.722107
O O15 0.250000 0.750000 0.925780
O O16 0.327440 0.886580 0.904938
O O17 0.500000 0.605776 0.366339
O O18 0.375028 0.500000 0.330793
O O19 0.500000 0.136390 0.172004
#
# Coordination Sequence:
#
# PCOD8186383 Si02
#       7
#    16  16  16  16  16  16  16
#     4  10  20  35  58  88 121 155 192 236 283 330
#     4  10  20  36  57  84 115 152 193 235 283 336
#     4  11  25  44  64  85 110 143 189 244 295 343
#     4   9  17  31  53  82 118 156 193 233 277 331
#     4  12  24  39  60  84 111 149 192 238 288 341
#     4  10  21  36  56  86 122 155 188 230 283 342
#     4   9  18  32  53  85 122 157 192 230 276 334
#
# _framework density 20.379418999999999
#
# number of rings (size 3 to 8) (size 9 to 14) (size 15 to 20)
#    0.000    1.857    0.000    4.286    0.000    6.286 
#    0.000    2.143    0.000    0.857    0.000    0.000 
#    0.000    0.000    0.000    0.000    0.000    0.000 
#
# Total GULP energy -347069.516009 kJ/mol
# GULP energy per Si atom -12395.339857 kJ/mol
# Density = 2.033303 g / cm^3
# Si number density = 20.379419 Si / 1000 Ang^3
#
#
#
# Elastic Constant Matrix: (Units=GPa)
#
#
# Indices 1 2 3 4 5 6 
#
# 1 142.6578 45.9727 74.8583 0.0000 0.0000 0.0000
# 2 45.9727 72.8757 29.7633 0.0000 0.0000 0.0000
# 3 74.8583 29.7633 89.2438 0.0000 0.0000 0.0000
# 4 0.0000 0.0000 0.0000 21.9786 0.0000 0.0000
# 5 0.0000 0.0000 0.0000 0.0000 -165.6570 0.0000
# 6 0.0000 0.0000 0.0000 0.0000 0.0000 27.3969
#
#
#
# Elastic Compliance Matrix: (Units=1/GPa)
#
#
# Indices 1 2 3 4 5 6 
#
# 1 0.013726 -0.004580 -0.009986 0.000000 0.000000 0.000000
# 2 -0.004580 0.017414 -0.001966 0.000000 0.000000 0.000000
# 3 -0.009986 -0.001966 0.020237 0.000000 0.000000 0.000000
# 4 0.000000 0.000000 0.000000 0.045499 0.000000 0.000000
# 5 0.000000 0.000000 0.000000 0.000000 -0.006037 0.000000
# 6 0.000000 0.000000 0.000000 0.000000 0.000000 0.036500
#
#
# Mechanical properties :
#
#
# Convention : Reuss Voigt Hill
#
# Bulk Modulus (GPa) = 54.60485 67.32955 60.96720
# Shear Modulus (GPa) = 30.02867 -12.97742 8.52563
#
# Velocity S-wave (km/s) = 3.84276 -2.52621 2.04757
# Velocity P-wave (km/s) = 6.82212 4.95992 5.96415
#
# Compressibility (1/GPa) = 0.01831339
#
# Stress axis : x y z
#
# Youngs Moduli (GPa) = 72.85578 57.42402 49.41481
#
# Poissons Ratio (x) = 0.26303 0.49344
# Poissons Ratio (y) = 0.33371 0.09713
# Poissons Ratio (z) = 0.72751 0.11288
#
# Static dielectric constant tensor:
#      x y z
#    x 4.097270 0.000000 0.000000 
#    y 0.000000 3.648060 0.000000 
#    z 0.000000 0.000000 3.572990 
# 
# 
# High freq. dielectric constant tensor:
#      x y z
#    x 1.821130 0.000000 0.000000 
#    y 0.000000 1.788040 0.000000 
#    z 0.000000 0.000000 1.771220 
# 
# From -- ./inp_files/29482.got.cif
#   From: 2010.03.12/outbox.cif.g09.slc.cpg/sg42_15_cif.got.tgz:29482.got - 2010.04.14 02:04:31.
