data_PCOD8186832
_publ_section_title
;
Structure prediction by ZEFSAII (Michael W. Deem and Ramdas Pophale) SiO2 
 PCOD8186832
Probable space group: F M M 2
;
_chemical_formula_sum "Si O2"
_cell_formula_units_Z 112
_cell_length_a 17.280937
_cell_length_b 29.716407
_cell_length_c 11.399717
_cell_angle_alpha 90.000000
_cell_angle_beta 90.000000
_cell_angle_gamma 90.000000
_cell_volume 5854.066544
_symmetry_space_group_name_H-M "F M M 2"
_symmetry_group_IT_number 42
_symmetry_cell_setting 'orthorhombic'
loop_
_space_group_symop_operation_xyz
x,y,z
-x,-y,z
-x,y,z
x,-y,z
x,1/2+y,1/2+z
-x,1/2-y,1/2+z
-x,1/2+y,1/2+z
x,1/2-y,1/2+z
1/2+x,y,1/2+z
1/2-x,-y,1/2+z
1/2-x,y,1/2+z
1/2+x,-y,1/2+z
1/2+x,1/2+y,z
1/2-x,1/2-y,z
1/2-x,1/2+y,z
1/2+x,1/2-y,z
loop_
_atom_site_type_symbol
_atom_site_label
_atom_site_fract_x
_atom_site_fract_y
_atom_site_fract_z
Si Si1 0.667272 0.660036 0.682450
Si Si2 0.838478 0.239961 0.509808
Si Si3 0.915689 0.398721 0.010688
Si Si4 0.591352 0.551487 0.291326
Si Si5 0.091917 0.330656 0.436975
Si Si6 0.416811 0.184433 0.836907
Si Si7 0.342160 0.369282 0.150968
O O1 0.638484 0.704567 0.611950
O O2 0.635887 0.613995 0.622683
O O3 0.634181 0.666838 0.812059
O O4 0.758597 0.651703 0.679811
O O5 0.750000 0.250000 0.527419
O O6 0.890335 0.284760 0.509069
O O7 0.850682 0.218226 0.381279
O O8 0.884408 0.439462 0.928039
O O9 0.919856 0.357246 0.923364
O O10 0.000000 0.411189 0.060897
O O11 0.500000 0.563169 0.274765
O O12 0.608806 0.500000 0.260479
O O13 0.644744 0.581094 0.204371
O O14 0.133472 0.369997 0.513911
O O15 0.000000 0.338016 0.422845
O O16 0.500000 0.209543 0.837098
O O17 0.400544 0.166711 0.707795
#
# Coordination Sequence:
#
# PCOD8186832 Si02
#       7
#    16  16  16  16  16  16  16
#     4  11  24  39  59  83 124 164 202 253 309 359
#     4  11  22  39  55  80 113 158 208 259 297 350
#     4   8  16  34  59  85 113 149 190 236 296 358
#     4   9  18  36  67  98 120 150 200 256 306 370
#     4  12  26  39  59  88 120 164 214 256 307 371
#     4   9  18  34  57  77 105 145 193 244 296 345
#     4  11  22  38  61  86 121 161 199 250 312 372
#
# _framework density 19.132000000000001
#
# number of rings (size 3 to 8) (size 9 to 14) (size 15 to 20)
#    0.000    1.857    1.429    3.857    6.000    2.286 
#    0.000    0.714    0.000    0.857    0.000    2.000 
#    0.000    0.000    0.000    0.000    0.000    0.000 
#
# Total GULP energy -346906.689778 kJ/mol
# GULP energy per Si atom -12389.524635 kJ/mol
# Density = 1.908845 g / cm^3
# Si number density = 19.132000 Si / 1000 Ang^3
#
#
#
# Elastic Constant Matrix: (Units=GPa)
#
#
# Indices 1 2 3 4 5 6 
#
# 1 94.4540 25.2417 46.4882 0.0000 0.0000 0.0000
# 2 25.2417 84.2362 44.8202 0.0000 0.0000 0.0000
# 3 46.4882 44.8202 117.6449 0.0000 0.0000 0.0000
# 4 0.0000 0.0000 0.0000 21.8215 0.0000 0.0000
# 5 0.0000 0.0000 0.0000 0.0000 29.4831 0.0000
# 6 0.0000 0.0000 0.0000 0.0000 0.0000 23.9101
#
#
#
# Elastic Compliance Matrix: (Units=1/GPa)
#
#
# Indices 1 2 3 4 5 6 
#
# 1 0.013291 -0.001490 -0.004684 0.000000 0.000000 0.000000
# 2 -0.001490 0.015057 -0.005147 0.000000 0.000000 0.000000
# 3 -0.004684 -0.005147 0.012312 0.000000 0.000000 0.000000
# 4 0.000000 0.000000 0.000000 0.045826 0.000000 0.000000
# 5 0.000000 0.000000 0.000000 0.000000 0.033918 0.000000
# 6 0.000000 0.000000 0.000000 0.000000 0.000000 0.041823
#
#
# Mechanical properties :
#
#
# Convention : Reuss Voigt Hill
#
# Bulk Modulus (GPa) = 55.50615 58.82616 57.16615
# Shear Modulus (GPa) = 26.19496 27.02862 26.61179
#
# Velocity S-wave (km/s) = 3.70424 3.76273 3.73360
# Velocity P-wave (km/s) = 6.88262 7.04924 6.96643
#
# Compressibility (1/GPa) = 0.01801602
#
# Stress axis : x y z
#
# Youngs Moduli (GPa) = 75.23950 66.41525 81.22022
#
# Poissons Ratio (x) = 0.09898 0.38045
# Poissons Ratio (y) = 0.11213 0.41807
# Poissons Ratio (z) = 0.35244 0.34187
#
# Static dielectric constant tensor:
#      x y z
#    x 3.301800 0.000000 0.000000 
#    y 0.000000 3.469680 0.000000 
#    z 0.000000 0.000000 3.670360 
# 
# 
# High freq. dielectric constant tensor:
#      x y z
#    x 1.744510 0.000000 0.000000 
#    y 0.000000 1.714270 0.000000 
#    z 0.000000 0.000000 1.744370 
# 
# From -- ./inp_files/8149.got.cif
#   From: 2010.03.12/outbox.cif.g09.slc.cpg/sg42_5_cif.got.tgz:8149.got - 2010.04.14 02:04:31.
