data_PCOD8186750
_publ_section_title
;
Structure prediction by ZEFSAII (Michael W. Deem and Ramdas Pophale) SiO2 
 PCOD8186750
Probable space group: F M M 2
;
_chemical_formula_sum "Si O2"
_cell_formula_units_Z 56
_cell_length_a 28.929464
_cell_length_b 9.690299
_cell_length_c 9.207569
_cell_angle_alpha 90.000000
_cell_angle_beta 90.000000
_cell_angle_gamma 90.000000
_cell_volume 2581.205293
_symmetry_space_group_name_H-M "F M M 2"
_symmetry_group_IT_number 42
_symmetry_cell_setting 'orthorhombic'
loop_
_space_group_symop_operation_xyz
x,y,z
-x,-y,z
-x,y,z
x,-y,z
x,1/2+y,1/2+z
-x,1/2-y,1/2+z
-x,1/2+y,1/2+z
x,1/2-y,1/2+z
1/2+x,y,1/2+z
1/2-x,-y,1/2+z
1/2-x,y,1/2+z
1/2+x,-y,1/2+z
1/2+x,1/2+y,z
1/2-x,1/2-y,z
1/2-x,1/2+y,z
1/2+x,1/2-y,z
loop_
_atom_site_type_symbol
_atom_site_label
_atom_site_fract_x
_atom_site_fract_y
_atom_site_fract_z
Si Si1 0.447469 0.844254 0.273360
Si Si2 0.812185 0.849635 0.499412
Si Si3 0.394952 0.343183 0.059463
Si Si4 0.750000 0.250000 0.749115
O O1 0.500000 0.794279 0.251858
O O2 0.412176 0.740485 0.198208
O O3 0.436058 0.840934 0.443255
O O4 0.440903 0.000000 0.212627
O O5 0.848998 0.726259 0.495695
O O6 0.781179 0.844388 0.644485
O O7 0.781858 0.842983 0.353183
O O8 0.836650 0.000000 0.500113
O O9 0.382912 0.500000 0.105122
#
# Coordination Sequence:
#
# PCOD8186750 Si02
#       4
#    16  16  16   8
#     4  10  22  41  63  88 120 158 200 246 296 351
#     4  11  23  41  63  88 120 158 200 246 298 354
#     4  11  24  40  61  91 124 157 197 246 297 353
#     4  10  24  40  62  90 118 154 202 252 296 348
#
# _framework density 21.695291999999998
#
# number of rings (size 3 to 8) (size 9 to 14) (size 15 to 20)
#    0.000    1.429    0.000    4.286    0.000   15.429 
#    0.000    0.000    0.000    0.000    0.000    0.000 
#    0.000    0.000    0.000    0.000    0.000    0.000 
#
# Total GULP energy -173623.914343 kJ/mol
# GULP energy per Si atom -12401.708167 kJ/mol
# Density = 2.164591 g / cm^3
# Si number density = 21.695292 Si / 1000 Ang^3
#
#
#
# Elastic Constant Matrix: (Units=GPa)
#
#
# Indices 1 2 3 4 5 6 
#
# 1 93.5740 42.6527 20.5382 0.0000 0.0000 0.0000
# 2 42.6527 152.3429 29.7849 0.0000 0.0000 0.0000
# 3 20.5382 29.7849 101.8932 0.0000 0.0000 0.0000
# 4 0.0000 0.0000 0.0000 21.2467 0.0000 0.0000
# 5 0.0000 0.0000 0.0000 0.0000 26.1883 0.0000
# 6 0.0000 0.0000 0.0000 0.0000 0.0000 34.7542
#
#
#
# Elastic Compliance Matrix: (Units=1/GPa)
#
#
# Indices 1 2 3 4 5 6 
#
# 1 0.012487 -0.003186 -0.001586 0.000000 0.000000 0.000000
# 2 -0.003186 0.007775 -0.001631 0.000000 0.000000 0.000000
# 3 -0.001586 -0.001631 0.010610 0.000000 0.000000 0.000000
# 4 0.000000 0.000000 0.000000 0.047066 0.000000 0.000000
# 5 0.000000 0.000000 0.000000 0.000000 0.038185 0.000000
# 6 0.000000 0.000000 0.000000 0.000000 0.000000 0.028773
#
#
# Mechanical properties :
#
#
# Convention : Reuss Voigt Hill
#
# Bulk Modulus (GPa) = 55.34663 59.30686 57.32675
# Shear Modulus (GPa) = 30.53918 33.42680 31.98299
#
# Velocity S-wave (km/s) = 3.75592 3.92948 3.84368
# Velocity P-wave (km/s) = 6.66150 6.92701 6.79555
#
# Compressibility (1/GPa) = 0.01806795
#
# Stress axis : x y z
#
# Youngs Moduli (GPa) = 80.08314 128.61803 94.24690
#
# Poissons Ratio (x) = 0.40979 0.14944
# Poissons Ratio (y) = 0.25515 0.15367
# Poissons Ratio (z) = 0.12698 0.20972
#
# Static dielectric constant tensor:
#      x y z
#    x 3.846760 0.000000 0.000000 
#    y 0.000000 3.867860 0.000000 
#    z 0.000000 0.000000 3.890230 
# 
# 
# High freq. dielectric constant tensor:
#      x y z
#    x 1.853050 0.000000 0.000000 
#    y 0.000000 1.854880 0.000000 
#    z 0.000000 0.000000 1.857180 
# 
# From -- ./inp_files/2184.got.cif
#   From: 2010.03.12/outbox.cif.g09.slc.cpg/sg42_2_cif.got.tgz:2184.got - 2010.04.14 02:04:31.
