data_PCOD8186119
_publ_section_title
;
Structure prediction by ZEFSAII (Michael W. Deem and Ramdas Pophale) SiO2 
 PCOD8186119
Probable space group: F M M 2
;
_chemical_formula_sum "Si O2"
_cell_formula_units_Z 80
_cell_length_a 25.927842
_cell_length_b 8.684587
_cell_length_c 19.089205
_cell_angle_alpha 90.000000
_cell_angle_beta 90.000000
_cell_angle_gamma 90.000000
_cell_volume 4298.365914
_symmetry_space_group_name_H-M "F M M 2"
_symmetry_group_IT_number 42
_symmetry_cell_setting 'orthorhombic'
loop_
_space_group_symop_operation_xyz
x,y,z
-x,-y,z
-x,y,z
x,-y,z
x,1/2+y,1/2+z
-x,1/2-y,1/2+z
-x,1/2+y,1/2+z
x,1/2-y,1/2+z
1/2+x,y,1/2+z
1/2-x,-y,1/2+z
1/2-x,y,1/2+z
1/2+x,-y,1/2+z
1/2+x,1/2+y,z
1/2-x,1/2-y,z
1/2-x,1/2+y,z
1/2+x,1/2-y,z
loop_
_atom_site_type_symbol
_atom_site_label
_atom_site_fract_x
_atom_site_fract_y
_atom_site_fract_z
Si Si1 0.696456 0.822877 0.182740
Si Si2 0.890110 0.183556 0.088636
Si Si3 0.695888 0.822038 0.347551
Si Si4 0.000000 0.669924 0.431601
Si Si5 0.893321 0.318530 0.937690
Si Si6 0.500000 0.332235 0.097239
O O1 0.750000 0.750000 0.157586
O O2 0.651698 0.730418 0.144836
O O3 0.688824 0.802112 0.264944
O O4 0.695086 0.000000 0.159734
O O5 0.945855 0.251001 0.116510
O O6 0.893557 0.000000 0.081598
O O7 0.877057 0.250330 0.012667
O O8 0.750000 0.750000 0.372320
O O9 0.649934 0.729177 0.382665
O O10 0.694307 0.000000 0.370208
O O11 0.948320 0.759206 0.408533
O O12 0.000000 0.651561 0.514085
O O13 0.000000 0.500000 0.396518
O O14 0.896103 0.500000 0.944448
O O15 0.500000 0.500000 0.133216
#
# Coordination Sequence:
#
# PCOD8186119 Si02
#       6
#    16  16  16   8  16   8
#     4  10  21  37  56  78 105 139 178 220 268 320
#     4  10  19  34  56  80 108 141 177 217 263 313
#     4  10  21  38  57  77 105 141 179 221 271 322
#     4   9  17  33  54  77 108 143 177 215 265 315
#     4  11  21  34  55  83 111 140 179 221 263 315
#     4   7  14  29  50  75 102 135 169 205 253 305
#
# _framework density 18.611725
#
# number of rings (size 3 to 8) (size 9 to 14) (size 15 to 20)
#    0.000    2.200    0.000    5.100    0.000    3.200 
#    0.000    6.500    0.000    4.800    0.000    0.000 
#    0.000    0.000    0.000    0.000    0.000    0.000 
#
# Total GULP energy -247935.190590 kJ/mol
# GULP energy per Si atom -12396.759529 kJ/mol
# Density = 1.856936 g / cm^3
# Si number density = 18.611725 Si / 1000 Ang^3
#
#
#
# Elastic Constant Matrix: (Units=GPa)
#
#
# Indices 1 2 3 4 5 6 
#
# 1 172.0438 58.2893 45.8250 0.0000 0.0001 0.0000
# 2 58.2893 126.7022 28.7802 0.0000 0.0002 0.0000
# 3 45.8250 28.7802 32.2878 0.0000 -0.0001 0.0000
# 4 0.0000 0.0000 0.0000 26.7909 0.0000 0.0000
# 5 0.0001 0.0002 -0.0001 0.0000 1012.5487 -0.0002
# 6 0.0000 0.0000 0.0000 0.0000 -0.0002 35.4770
#
#
#
# Elastic Compliance Matrix: (Units=1/GPa)
#
#
# Indices 1 2 3 4 5 6 
#
# 1 0.009616 -0.001660 -0.012168 0.000000 0.000000 0.000000
# 2 -0.001660 0.010183 -0.006721 0.000000 0.000000 0.000000
# 3 -0.012168 -0.006721 0.054231 0.000000 0.000000 0.000000
# 4 0.000000 0.000000 0.000000 0.037326 0.000000 0.000000
# 5 0.000000 0.000000 0.000000 0.000000 0.000988 0.000000
# 6 0.000000 0.000000 0.000000 0.000000 0.000000 0.028187
#
#
# Mechanical properties :
#
#
# Convention : Reuss Voigt Hill
#
# Bulk Modulus (GPa) = 30.36461 66.31364 48.33913
# Shear Modulus (GPa) = 25.95978 228.17262 127.06620
#
# Velocity S-wave (km/s) = 3.73876 11.08433 8.27166
# Velocity P-wave (km/s) = 5.91507 14.12529 10.82848
#
# Compressibility (1/GPa) = 0.03293307
#
# Stress axis : x y z
#
# Youngs Moduli (GPa) = 103.99527 98.20541 18.43949
#
# Poissons Ratio (x) = 0.16301 0.22437
# Poissons Ratio (y) = 0.17262 0.12393
# Poissons Ratio (z) = 1.26540 0.66001
#
# Static dielectric constant tensor:
#      x y z
#    x 3.839400 0.000000 0.000000 
#    y 0.000000 3.526380 0.000000 
#    z 0.000000 0.000000 3.073480 
# 
# 
# High freq. dielectric constant tensor:
#      x y z
#    x 1.744850 0.000000 0.000000 
#    y 0.000000 1.730290 0.000000 
#    z 0.000000 0.000000 1.689660 
# 
# From -- ./inp_files/18239.got.cif
#   From: 2010.03.12/outbox.cif.g09.slc.cpg/sg42_10_cif.got.tgz:18239.got - 2010.04.14 02:04:31.
