data_PCOD8186367
_publ_section_title
;
Structure prediction by ZEFSAII (Michael W. Deem and Ramdas Pophale) SiO2 
 PCOD8186367
Probable space group: F M M 2
;
_chemical_formula_sum "Si O2"
_cell_formula_units_Z 96
_cell_length_a 15.262384
_cell_length_b 17.524548
_cell_length_c 18.683768
_cell_angle_alpha 90.000000
_cell_angle_beta 90.000000
_cell_angle_gamma 90.000000
_cell_volume 4997.279810
_symmetry_space_group_name_H-M "F M M 2"
_symmetry_group_IT_number 42
_symmetry_cell_setting 'orthorhombic'
loop_
_space_group_symop_operation_xyz
x,y,z
-x,-y,z
-x,y,z
x,-y,z
x,1/2+y,1/2+z
-x,1/2-y,1/2+z
-x,1/2+y,1/2+z
x,1/2-y,1/2+z
1/2+x,y,1/2+z
1/2-x,-y,1/2+z
1/2-x,y,1/2+z
1/2+x,-y,1/2+z
1/2+x,1/2+y,z
1/2-x,1/2-y,z
1/2-x,1/2+y,z
1/2+x,1/2-y,z
loop_
_atom_site_type_symbol
_atom_site_label
_atom_site_fract_x
_atom_site_fract_y
_atom_site_fract_z
Si Si1 0.740431 0.413343 0.742680
Si Si2 0.099367 0.361235 0.492310
Si Si3 0.903427 0.864378 0.157826
Si Si4 0.099628 0.683063 0.990646
Si Si5 0.239791 0.086974 0.405002
Si Si6 0.339512 0.793265 0.142875
O O1 0.705340 0.500000 0.738255
O O2 0.835919 0.409665 0.706799
O O3 0.747290 0.384965 0.823947
O O4 0.672689 0.357596 0.703022
O O5 0.119891 0.379376 0.574952
O O6 0.112394 0.272274 0.476072
O O7 0.167260 0.408122 0.444895
O O8 0.000000 0.386303 0.473368
O O9 0.903488 0.772852 0.172384
O O10 0.000000 0.895300 0.176254
O O11 0.164782 0.637918 0.939761
O O12 0.000000 0.657535 0.974717
O O13 0.121812 0.664939 0.073264
O O14 0.207224 0.000000 0.406844
O O15 0.250000 0.750000 0.121974
#
# Coordination Sequence:
#
# PCOD8186367 Si02
#       6
#    16  16  16  16  16  16
#     4  10  22  36  50  74 108 145 177 210 259 311
#     4   9  19  37  61  84 103 130 176 230 273 309
#     4   9  18  34  57  82 103 128 170 223 270 310
#     4  10  20  35  57  83 109 138 174 217 265 319
#     4  11  23  37  52  75 113 149 177 215 260 313
#     4   9  17  33  56  79 103 133 174 222 266 311
#
# _framework density 19.210450999999999
#
# number of rings (size 3 to 8) (size 9 to 14) (size 15 to 20)
#    0.000    2.333    0.000    5.000    0.000    8.333 
#    0.000    6.667    0.000    3.500    0.000    0.000 
#    0.000    0.000    0.000    0.000    0.000    0.000 
#
# Total GULP energy -297605.710697 kJ/mol
# GULP energy per Si atom -12400.237946 kJ/mol
# Density = 1.916673 g / cm^3
# Si number density = 19.210451 Si / 1000 Ang^3
#
#
#
# Elastic Constant Matrix: (Units=GPa)
#
#
# Indices 1 2 3 4 5 6 
#
# 1 79.4673 9.7370 37.5888 0.0000 0.0000 0.0000
# 2 9.7370 51.7361 37.4960 0.0000 0.0000 0.0000
# 3 37.5888 37.4960 102.2773 0.0000 0.0000 0.0000
# 4 0.0000 0.0000 0.0000 43.9230 0.0000 0.0000
# 5 0.0000 0.0000 0.0000 0.0000 10.2828 0.0000
# 6 0.0000 0.0000 0.0000 0.0000 0.0000 17.7478
#
#
#
# Elastic Compliance Matrix: (Units=1/GPa)
#
#
# Indices 1 2 3 4 5 6 
#
# 1 0.015332 0.001632 -0.006233 0.000000 0.000000 0.000000
# 2 0.001632 0.026497 -0.010314 0.000000 0.000000 0.000000
# 3 -0.006233 -0.010314 0.015849 0.000000 0.000000 0.000000
# 4 0.000000 0.000000 0.000000 0.022767 0.000000 0.000000
# 5 0.000000 0.000000 0.000000 0.000000 0.097250 0.000000
# 6 0.000000 0.000000 0.000000 0.000000 0.000000 0.056345
#
#
# Mechanical properties :
#
#
# Convention : Reuss Voigt Hill
#
# Bulk Modulus (GPa) = 35.90904 44.79160 40.35032
# Shear Modulus (GPa) = 18.30480 24.30131 21.30306
#
# Velocity S-wave (km/s) = 3.09019 3.56055 3.33367
# Velocity P-wave (km/s) = 5.60940 6.34588 5.98897
#
# Compressibility (1/GPa) = 0.02784814
#
# Stress axis : x y z
#
# Youngs Moduli (GPa) = 65.22235 37.74068 63.09448
#
# Poissons Ratio (x) = -0.06159 0.39328
# Poissons Ratio (y) = -0.10644 0.65074
# Poissons Ratio (z) = 0.40654 0.38925
#
# Static dielectric constant tensor:
#      x y z
#    x 3.618790 0.000000 0.000000 
#    y 0.000000 3.378170 0.000000 
#    z 0.000000 0.000000 3.433940 
# 
# 
# High freq. dielectric constant tensor:
#      x y z
#    x 1.748080 0.000000 0.000000 
#    y 0.000000 1.739340 0.000000 
#    z 0.000000 0.000000 1.739520 
# 
# From -- ./inp_files/13980.got.cif
#   From: 2010.03.12/outbox.cif.g09.slc.cpg/sg42_7_cif.got.tgz:13980.got - 2010.04.14 02:04:31.
