data_PCOD8186250
_publ_section_title
;
Structure prediction by ZEFSAII (Michael W. Deem and Ramdas Pophale) SiO2 
 PCOD8186250
Probable space group: F M M 2
;
_chemical_formula_sum "Si O2"
_cell_formula_units_Z 80
_cell_length_a 19.487191
_cell_length_b 8.912232
_cell_length_c 25.448460
_cell_angle_alpha 90.000000
_cell_angle_beta 90.000000
_cell_angle_gamma 90.000000
_cell_volume 4419.745187
_symmetry_space_group_name_H-M "F M M 2"
_symmetry_group_IT_number 42
_symmetry_cell_setting 'orthorhombic'
loop_
_space_group_symop_operation_xyz
x,y,z
-x,-y,z
-x,y,z
x,-y,z
x,1/2+y,1/2+z
-x,1/2-y,1/2+z
-x,1/2+y,1/2+z
x,1/2-y,1/2+z
1/2+x,y,1/2+z
1/2-x,-y,1/2+z
1/2-x,y,1/2+z
1/2+x,-y,1/2+z
1/2+x,1/2+y,z
1/2-x,1/2-y,z
1/2-x,1/2+y,z
1/2+x,1/2-y,z
loop_
_atom_site_type_symbol
_atom_site_label
_atom_site_fract_x
_atom_site_fract_y
_atom_site_fract_z
Si Si1 0.579345 0.327734 0.640480
Si Si2 0.176264 0.175828 0.824102
Si Si3 0.824747 0.177260 0.221952
Si Si4 0.078599 0.671845 0.019425
Si Si5 0.177060 0.673782 0.439582
O O1 0.500000 0.288054 0.650734
O O2 0.593843 0.500000 0.656216
O O3 0.626677 0.216860 0.673472
O O4 0.598364 0.301339 0.579832
O O5 0.250000 0.250000 0.826057
O O6 0.138477 0.257570 0.775190
O O7 0.143568 0.206252 0.881695
O O8 0.181290 0.000000 0.811781
O O9 0.750000 0.250000 0.213418
O O10 0.816602 0.000000 0.226250
O O11 0.091530 0.500000 0.003707
O O12 0.000000 0.716253 0.009853
O O13 0.124277 0.776485 0.983463
O O14 0.191666 0.500000 0.446184
O O15 0.250000 0.750000 0.447854
#
# Coordination Sequence:
#
# PCOD8186250 Si02
#       5
#    16  16  16  16  16
#     4   9  19  37  57  75 100 135 171 209 257 307
#     4   9  17  31  50  73 102 135 169 206 253 302
#     4  11  21  33  53  79 105 134 170 211 254 300
#     4   9  19  36  56  76 101 135 171 209 256 305
#     4  10  20  33  53  79 105 135 170 210 253 299
#
# _framework density 18.10059
#
# number of rings (size 3 to 8) (size 9 to 14) (size 15 to 20)
#    0.000    2.400    0.000    5.400    0.000    4.800 
#    0.000    3.000    0.000    1.200    0.000    0.000 
#    0.000    0.000    0.000    0.000    0.000    0.000 
#
# Total GULP energy -247896.573484 kJ/mol
# GULP energy per Si atom -12394.828674 kJ/mol
# Density = 1.805939 g / cm^3
# Si number density = 18.100590 Si / 1000 Ang^3
#
#
#
# Elastic Constant Matrix: (Units=GPa)
#
#
# Indices 1 2 3 4 5 6 
#
# 1 62.6608 43.8532 57.5704 0.0000 0.0000 -0.0001
# 2 43.8532 117.3418 63.5881 0.0000 0.0000 -0.0001
# 3 57.5704 63.5881 118.9520 0.0000 0.0000 0.0000
# 4 0.0000 0.0000 0.0000 31.1502 0.0000 0.0000
# 5 0.0000 0.0000 0.0000 0.0000 -37.1970 0.0000
# 6 -0.0001 -0.0001 0.0000 0.0000 0.0000 29.3969
#
#
#
# Elastic Compliance Matrix: (Units=1/GPa)
#
#
# Indices 1 2 3 4 5 6 
#
# 1 0.030538 -0.004792 -0.012218 0.000000 0.000000 0.000000
# 2 -0.004792 0.012749 -0.004496 0.000000 0.000000 0.000000
# 3 -0.012218 -0.004496 0.016724 0.000000 0.000000 0.000000
# 4 0.000000 0.000000 0.000000 0.032103 0.000000 0.000000
# 5 0.000000 0.000000 0.000000 0.000000 -0.026884 0.000000
# 6 0.000000 0.000000 0.000000 0.000000 0.000000 0.034017
#
#
# Mechanical properties :
#
#
# Convention : Reuss Voigt Hill
#
# Bulk Modulus (GPa) = 58.82825 69.88643 64.35734
# Shear Modulus (GPa) = 33.80057 13.59955 23.70006
#
# Velocity S-wave (km/s) = 4.32600 2.74402 3.62242
# Velocity P-wave (km/s) = 7.58444 6.98093 7.28893
#
# Compressibility (1/GPa) = 0.01699863
#
# Stress axis : x y z
#
# Youngs Moduli (GPa) = 32.74588 78.43465 59.79468
#
# Poissons Ratio (x) = 0.37582 0.73060
# Poissons Ratio (y) = 0.15690 0.26886
# Poissons Ratio (z) = 0.40010 0.35268
#
# Static dielectric constant tensor:
#      x y z
#    x 3.036410 0.000000 0.000000 
#    y 0.000000 3.354670 0.000000 
#    z 0.000000 0.000000 3.966130 
# 
# 
# High freq. dielectric constant tensor:
#      x y z
#    x 1.668660 0.000000 0.000000 
#    y 0.000000 1.709650 0.000000 
#    z 0.000000 0.000000 1.718960 
# 
# From -- ./inp_files/31247.got.cif
#   From: 2010.03.12/outbox.cif.g09.slc.cpg/sg42_16_cif.got.tgz:31247.got - 2010.04.14 02:04:31.
