data_PCOD8186051
_publ_section_title
;
Structure prediction by ZEFSAII (Michael W. Deem and Ramdas Pophale) SiO2 
 PCOD8186051
Probable space group: F M M 2
;
_chemical_formula_sum "Si O2"
_cell_formula_units_Z 104
_cell_length_a 29.121367
_cell_length_b 9.634869
_cell_length_c 18.761301
_cell_angle_alpha 90.000000
_cell_angle_beta 90.000000
_cell_angle_gamma 90.000000
_cell_volume 5264.056269
_symmetry_space_group_name_H-M "F M M 2"
_symmetry_group_IT_number 42
_symmetry_cell_setting 'orthorhombic'
loop_
_space_group_symop_operation_xyz
x,y,z
-x,-y,z
-x,y,z
x,-y,z
x,1/2+y,1/2+z
-x,1/2-y,1/2+z
-x,1/2+y,1/2+z
x,1/2-y,1/2+z
1/2+x,y,1/2+z
1/2-x,-y,1/2+z
1/2-x,y,1/2+z
1/2+x,-y,1/2+z
1/2+x,1/2+y,z
1/2-x,1/2-y,z
1/2-x,1/2+y,z
1/2+x,1/2-y,z
loop_
_atom_site_type_symbol
_atom_site_label
_atom_site_fract_x
_atom_site_fract_y
_atom_site_fract_z
Si Si1 0.289573 0.156290 0.762280
Si Si2 0.500000 0.342149 0.420260
Si Si3 0.180551 0.342363 0.611808
Si Si4 0.418117 0.845114 0.426028
Si Si5 0.666026 0.847421 0.906410
Si Si6 0.500000 0.843912 0.090792
Si Si7 0.580191 0.153780 0.587858
Si Si8 0.750000 0.750000 0.495619
O O1 0.250000 0.250000 0.795829
O O2 0.303530 0.226198 0.686448
O O3 0.329761 0.159308 0.820687
O O4 0.271394 0.000000 0.750557
O O5 0.500000 0.500000 0.389551
O O6 0.544632 0.258390 0.390154
O O7 0.500000 0.350547 0.505448
O O8 0.169918 0.500000 0.629660
O O9 0.131171 0.277440 0.591324
O O10 0.217647 0.338383 0.548501
O O11 0.367730 0.776361 0.427197
O O12 0.433992 0.866446 0.506383
O O13 0.416430 0.000000 0.389989
O O14 0.646097 0.000000 0.927161
O O15 0.715662 0.837470 0.945677
O O16 0.544471 0.762695 0.121849
O O17 0.500000 0.000000 0.121902
O O18 0.576777 0.000000 0.624319
#
# Coordination Sequence:
#
# PCOD8186051 Si02
#       8
#    16   8  16  16  16   8  16   8
#     4  10  21  38  55  74 106 147 187 225 269 326
#     4   9  17  31  51  78 113 142 173 221 277 330
#     4  10  20  35  54  78 108 144 184 225 269 323
#     4  10  19  32  53  79 109 143 181 224 273 327
#     4  11  23  35  53  81 112 146 183 228 278 324
#     4   9  17  29  47  76 109 138 167 213 271 322
#     4   9  17  31  51  76 104 138 176 217 265 319
#     4  12  20  34  56  80 112 142 182 232 278 320
#
# _framework density 19.756627999999999
#
# number of rings (size 3 to 8) (size 9 to 14) (size 15 to 20)
#    0.000    2.000    3.077    1.385    0.000    3.692 
#    0.000    0.769    0.000    0.923    0.000    3.231 
#    0.000    0.000    0.000    0.000    0.000    0.000 
#
# Total GULP energy -322107.391221 kJ/mol
# GULP energy per Si atom -12388.745816 kJ/mol
# Density = 1.971166 g / cm^3
# Si number density = 19.756628 Si / 1000 Ang^3
#
#
#
# Elastic Constant Matrix: (Units=GPa)
#
#
# Indices 1 2 3 4 5 6 
#
# 1 138.7329 67.6306 13.1090 0.0000 0.0000 0.0000
# 2 67.6306 140.8097 14.5614 0.0000 0.0000 0.0000
# 3 13.1090 14.5614 61.2608 0.0000 0.0000 0.0000
# 4 0.0000 0.0000 0.0000 14.6966 0.0000 0.0000
# 5 0.0000 0.0000 0.0000 0.0000 11.2222 0.0000
# 6 0.0000 0.0000 0.0000 0.0000 0.0000 35.0335
#
#
#
# Elastic Compliance Matrix: (Units=1/GPa)
#
#
# Indices 1 2 3 4 5 6 
#
# 1 0.009468 -0.004447 -0.000969 0.000000 0.000000 0.000000
# 2 -0.004447 0.009370 -0.001276 0.000000 0.000000 0.000000
# 3 -0.000969 -0.001276 0.016834 0.000000 0.000000 0.000000
# 4 0.000000 0.000000 0.000000 0.068043 0.000000 0.000000
# 5 0.000000 0.000000 0.000000 0.000000 0.089109 0.000000
# 6 0.000000 0.000000 0.000000 0.000000 0.000000 0.028544
#
#
# Mechanical properties :
#
#
# Convention : Reuss Voigt Hill
#
# Bulk Modulus (GPa) = 44.86632 59.04504 51.95568
# Shear Modulus (GPa) = 20.64585 28.55729 24.60157
#
# Velocity S-wave (km/s) = 3.23617 3.80604 3.53261
# Velocity P-wave (km/s) = 6.05991 7.01895 6.55699
#
# Compressibility (1/GPa) = 0.02228843
#
# Stress axis : x y z
#
# Youngs Moduli (GPa) = 105.62425 106.72822 59.40303
#
# Poissons Ratio (x) = 0.47462 0.05755
# Poissons Ratio (y) = 0.46972 0.07577
# Poissons Ratio (z) = 0.10234 0.13613
#
# Static dielectric constant tensor:
#      x y z
#    x 3.610980 0.000000 0.000000 
#    y 0.000000 3.705400 0.000000 
#    z 0.000000 0.000000 3.255980 
# 
# 
# High freq. dielectric constant tensor:
#      x y z
#    x 1.771480 0.000000 0.000000 
#    y 0.000000 1.767180 0.000000 
#    z 0.000000 0.000000 1.724790 
# 
# From -- ./inp_files/27367.got.cif
#   From: 2010.03.12/outbox.cif.g09.slc.cpg/sg42_14_cif.got.tgz:27367.got - 2010.04.14 02:04:31.
