data_PCOD8186177
_publ_section_title
;
Structure prediction by ZEFSAII (Michael W. Deem and Ramdas Pophale) SiO2 
 PCOD8186177
Probable space group: F M M 2
;
_chemical_formula_sum "Si O2"
_cell_formula_units_Z 112
_cell_length_a 29.111017
_cell_length_b 14.362124
_cell_length_c 13.682442
_cell_angle_alpha 90.000000
_cell_angle_beta 90.000000
_cell_angle_gamma 90.000000
_cell_volume 5720.574762
_symmetry_space_group_name_H-M "F M M 2"
_symmetry_group_IT_number 42
_symmetry_cell_setting 'orthorhombic'
loop_
_space_group_symop_operation_xyz
x,y,z
-x,-y,z
-x,y,z
x,-y,z
x,1/2+y,1/2+z
-x,1/2-y,1/2+z
-x,1/2+y,1/2+z
x,1/2-y,1/2+z
1/2+x,y,1/2+z
1/2-x,-y,1/2+z
1/2-x,y,1/2+z
1/2+x,-y,1/2+z
1/2+x,1/2+y,z
1/2-x,1/2-y,z
1/2-x,1/2+y,z
1/2+x,1/2-y,z
loop_
_atom_site_type_symbol
_atom_site_label
_atom_site_fract_x
_atom_site_fract_y
_atom_site_fract_z
Si Si1 0.825210 0.600029 0.258280
Si Si2 0.393104 0.750000 0.793877
Si Si3 0.262955 0.355773 0.153999
Si Si4 0.237045 0.644227 0.433754
Si Si5 0.674790 0.100029 0.829474
Si Si6 0.553953 0.105971 0.656395
Si Si7 0.446047 0.894029 0.431359
O O1 0.850713 0.500000 0.257446
O O2 0.861022 0.681015 0.229175
O O3 0.783033 0.589978 0.183481
O O4 0.806338 0.618294 0.367690
O O5 0.361022 0.818984 0.858578
O O6 0.422482 0.815307 0.722640
O O7 0.422482 0.684693 0.865113
O O8 0.250000 0.250000 0.170845
O O9 0.306338 0.381707 0.220064
O O10 0.276871 0.380520 0.043877
O O11 0.250000 0.750000 0.416910
O O12 0.283033 0.589979 0.404272
O O13 0.649287 0.000000 0.830309
O O14 0.500000 0.116466 0.672334
O O15 0.567038 0.125238 0.543877
O O16 0.568958 0.000000 0.684947
O O17 0.500000 0.883534 0.415419
O O18 0.431041 0.000000 0.402807
#
# Coordination Sequence:
#
# PCOD8186177 Si02
#       7
#    16  16  16  16  16  16  16
#     4  11  22  35  52  78 111 145 186 233 276 326
#     4  12  21  35  56  88 118 146 178 233 289 336
#     4  10  19  36  56  72 101 151 196 231 276 323
#     4  10  19  36  56  72 101 151 196 231 276 323
#     4  11  22  35  52  78 111 145 186 233 276 326
#     4   9  20  40  64  88 113 145 186 227 274 341
#     4   9  20  40  64  88 113 145 186 227 274 341
#
# _framework density 19.578453
#
# number of rings (size 3 to 8) (size 9 to 14) (size 15 to 20)
#    0.000    1.714    2.857    4.714    0.000    4.571 
#    0.000    0.000    0.000    2.571    0.000   10.000 
#    0.000    0.000    0.000    0.000    0.000    0.000 
#
# Total GULP energy -347005.618358 kJ/mol
# GULP energy per Si atom -12393.057798 kJ/mol
# Density = 1.953389 g / cm^3
# Si number density = 19.578453 Si / 1000 Ang^3
#
#
#
# Elastic Constant Matrix: (Units=GPa)
#
#
# Indices 1 2 3 4 5 6 
#
# 1 66.1070 50.6777 22.2256 0.0000 0.0000 0.0000
# 2 50.6777 177.5272 49.3357 0.0000 0.0000 0.0000
# 3 22.2256 49.3357 67.7610 0.0000 0.0000 0.0000
# 4 0.0000 0.0000 0.0000 38.9893 0.0000 0.0000
# 5 0.0000 0.0000 0.0000 0.0000 9.5179 0.0000
# 6 0.0000 0.0000 0.0000 0.0000 0.0000 20.5419
#
#
#
# Elastic Compliance Matrix: (Units=1/GPa)
#
#
# Indices 1 2 3 4 5 6 
#
# 1 0.019836 -0.004832 -0.002988 0.000000 0.000000 0.000000
# 2 -0.004832 0.008239 -0.004414 0.000000 0.000000 0.000000
# 3 -0.002988 -0.004414 0.018951 0.000000 0.000000 0.000000
# 4 0.000000 0.000000 0.000000 0.025648 0.000000 0.000000
# 5 0.000000 0.000000 0.000000 0.000000 0.105065 0.000000
# 6 0.000000 0.000000 0.000000 0.000000 0.000000 0.048681
#
#
# Mechanical properties :
#
#
# Convention : Reuss Voigt Hill
#
# Bulk Modulus (GPa) = 44.32908 61.76370 53.04639
# Shear Modulus (GPa) = 19.34928 26.42025 22.88477
#
# Velocity S-wave (km/s) = 3.14713 3.67748 3.42259
# Velocity P-wave (km/s) = 5.99139 7.04607 6.54002
#
# Compressibility (1/GPa) = 0.02255855
#
# Stress axis : x y z
#
# Youngs Moduli (GPa) = 50.41389 121.37549 52.76667
#
# Poissons Ratio (x) = 0.58649 0.15767
# Poissons Ratio (y) = 0.24360 0.23290
# Poissons Ratio (z) = 0.15064 0.53571
#
# Static dielectric constant tensor:
#      x y z
#    x 3.444020 0.000000 0.000000 
#    y 0.000000 3.930690 0.000000 
#    z 0.000000 0.000000 3.401060 
# 
# 
# High freq. dielectric constant tensor:
#      x y z
#    x 1.746650 0.000000 0.000000 
#    y 0.000000 1.790290 0.000000 
#    z 0.000000 0.000000 1.741570 
# 
# From -- ./inp_files/14513.got.cif
#   From: 2010.03.12/outbox.cif.g09.slc.cpg/sg42_8_cif.got.tgz:14513.got - 2010.04.14 02:04:31.
