data_PCOD8186640
_publ_section_title
;
Structure prediction by ZEFSAII (Michael W. Deem and Ramdas Pophale) SiO2 
 PCOD8186640
Probable space group: F M M 2
;
_chemical_formula_sum "Si O2"
_cell_formula_units_Z 80
_cell_length_a 25.319184
_cell_length_b 8.634565
_cell_length_c 18.148250
_cell_angle_alpha 90.000000
_cell_angle_beta 90.000000
_cell_angle_gamma 90.000000
_cell_volume 3967.572956
_symmetry_space_group_name_H-M "F M M 2"
_symmetry_group_IT_number 42
_symmetry_cell_setting 'orthorhombic'
loop_
_space_group_symop_operation_xyz
x,y,z
-x,-y,z
-x,y,z
x,-y,z
x,1/2+y,1/2+z
-x,1/2-y,1/2+z
-x,1/2+y,1/2+z
x,1/2-y,1/2+z
1/2+x,y,1/2+z
1/2-x,-y,1/2+z
1/2-x,y,1/2+z
1/2+x,-y,1/2+z
1/2+x,1/2+y,z
1/2-x,1/2-y,z
1/2-x,1/2+y,z
1/2+x,1/2-y,z
loop_
_atom_site_type_symbol
_atom_site_label
_atom_site_fract_x
_atom_site_fract_y
_atom_site_fract_z
Si Si1 0.806202 0.318447 0.865330
Si Si2 0.000000 0.679333 0.372213
Si Si3 0.194343 0.819184 0.021126
Si Si4 0.000000 0.318417 0.028731
Si Si5 0.405013 0.181245 0.618177
Si Si6 0.601706 0.820359 0.275856
O O1 0.800197 0.500000 0.872058
O O2 0.750000 0.250000 0.841293
O O3 0.848578 0.277683 0.803255
O O4 0.824900 0.253239 0.944125
O O5 0.051101 0.719751 0.324520
O O6 0.000000 0.500000 0.397264
O O7 0.000000 0.791726 0.441679
O O8 0.250000 0.750000 0.047493
O O9 0.152171 0.782001 0.084117
O O10 0.201075 0.000000 0.007548
O O11 0.948412 0.238231 0.061113
O O12 0.000000 0.500000 0.046587
O O13 0.411820 0.275592 0.692789
O O14 0.412436 0.000000 0.633557
O O15 0.616258 0.000000 0.280524
#
# Coordination Sequence:
#
# PCOD8186640 Si02
#       6
#    16   8  16   8  16  16
#     4  11  22  38  61  88 119 157 201 247 296 350
#     4  10  23  42  63  87 117 155 195 240 295 354
#     4  10  21  38  61  88 118 155 198 245 296 350
#     4  12  25  40  63  91 117 153 199 246 295 348
#     4  11  24  41  61  87 122 160 197 241 296 356
#     4  11  23  40  62  89 122 157 197 244 296 355
#
# _framework density 20.163461000000002
#
# number of rings (size 3 to 8) (size 9 to 14) (size 15 to 20)
#    0.000    1.200    0.000    7.500    0.000   11.200 
#    0.000    2.000    0.000    0.000    0.000    0.000 
#    0.000    0.000    0.000    0.000    0.000    0.000 
#
# Total GULP energy -248145.929310 kJ/mol
# GULP energy per Si atom -12407.296466 kJ/mol
# Density = 2.011757 g / cm^3
# Si number density = 20.163461 Si / 1000 Ang^3
#
#
#
# Elastic Constant Matrix: (Units=GPa)
#
#
# Indices 1 2 3 4 5 6 
#
# 1 115.2926 55.3127 52.9478 0.0000 0.0000 0.0000
# 2 55.3127 99.4164 34.2372 0.0000 0.0000 0.0000
# 3 52.9478 34.2372 109.1544 0.0000 0.0000 0.0000
# 4 0.0000 0.0000 0.0000 38.0668 0.0000 0.0000
# 5 0.0000 0.0000 0.0000 0.0000 7.4747 0.0000
# 6 0.0000 0.0000 0.0000 0.0000 0.0000 30.0964
#
#
#
# Elastic Compliance Matrix: (Units=1/GPa)
#
#
# Indices 1 2 3 4 5 6 
#
# 1 0.013752 -0.006002 -0.004788 0.000000 0.000000 0.000000
# 2 -0.006002 0.013897 -0.001447 0.000000 0.000000 0.000000
# 3 -0.004788 -0.001447 0.011938 0.000000 0.000000 0.000000
# 4 0.000000 0.000000 0.000000 0.026270 0.000000 0.000000
# 5 0.000000 0.000000 0.000000 0.000000 0.133784 0.000000
# 6 0.000000 0.000000 0.000000 0.000000 0.000000 0.033227
#
#
# Mechanical properties :
#
#
# Convention : Reuss Voigt Hill
#
# Bulk Modulus (GPa) = 66.17581 67.65099 66.91340
# Shear Modulus (GPa) = 19.05633 27.21863 23.13748
#
# Velocity S-wave (km/s) = 3.07757 3.67808 3.39115
# Velocity P-wave (km/s) = 6.74681 7.18762 6.97070
#
# Compressibility (1/GPa) = 0.01511126
#
# Stress axis : x y z
#
# Youngs Moduli (GPa) = 72.71535 71.95947 83.76724
#
# Poissons Ratio (x) = 0.43193 0.40109
# Poissons Ratio (y) = 0.43647 0.12123
# Poissons Ratio (z) = 0.34817 0.10414
#
# Static dielectric constant tensor:
#      x y z
#    x 3.757970 0.000000 0.000000 
#    y 0.000000 3.751390 0.000000 
#    z 0.000000 0.000000 3.589180 
# 
# 
# High freq. dielectric constant tensor:
#      x y z
#    x 1.802540 0.000000 0.000000 
#    y 0.000000 1.801700 0.000000 
#    z 0.000000 0.000000 1.789830 
# 
# From -- ./inp_files/22452.got.cif
#   From: 2010.03.12/outbox.cif.g09.slc.cpg/sg42_12_cif.got.tgz:22452.got - 2010.04.14 02:04:31.
