data_PCOD8186636
_publ_section_title
;
Structure prediction by ZEFSAII (Michael W. Deem and Ramdas Pophale) SiO2 
 PCOD8186636
Probable space group: F M M 2
;
_chemical_formula_sum "Si O2"
_cell_formula_units_Z 96
_cell_length_a 16.524454
_cell_length_b 22.243222
_cell_length_c 12.813778
_cell_angle_alpha 90.000000
_cell_angle_beta 90.000000
_cell_angle_gamma 90.000000
_cell_volume 4709.795066
_symmetry_space_group_name_H-M "F M M 2"
_symmetry_group_IT_number 42
_symmetry_cell_setting 'orthorhombic'
loop_
_space_group_symop_operation_xyz
x,y,z
-x,-y,z
-x,y,z
x,-y,z
x,1/2+y,1/2+z
-x,1/2-y,1/2+z
-x,1/2+y,1/2+z
x,1/2-y,1/2+z
1/2+x,y,1/2+z
1/2-x,-y,1/2+z
1/2-x,y,1/2+z
1/2+x,-y,1/2+z
1/2+x,1/2+y,z
1/2-x,1/2-y,z
1/2-x,1/2+y,z
1/2+x,1/2-y,z
loop_
_atom_site_type_symbol
_atom_site_label
_atom_site_fract_x
_atom_site_fract_y
_atom_site_fract_z
Si Si1 0.409093 0.812045 0.441560
Si Si2 0.801500 0.195000 0.756602
Si Si3 0.094472 0.302131 0.060100
Si Si4 0.186255 0.880186 0.396873
Si Si5 0.668986 0.569630 0.012891
Si Si6 0.088189 0.931053 0.221711
O O1 0.500000 0.809094 0.402146
O O2 0.356818 0.781229 0.350857
O O3 0.397483 0.770731 0.545622
O O4 0.386610 0.882321 0.452337
O O5 0.750000 0.250000 0.711381
O O6 0.859055 0.173171 0.662137
O O7 0.743293 0.144152 0.803754
O O8 0.000000 0.321133 0.066661
O O9 0.137296 0.329800 0.958742
O O10 0.238012 0.919573 0.479601
O O11 0.120632 0.920503 0.337998
O O12 0.645004 0.500000 0.987832
O O13 0.654583 0.586917 0.134098
O O14 0.000000 0.898326 0.205012
O O15 0.070540 0.000000 0.208393
#
# Coordination Sequence:
#
# PCOD8186636 Si02
#       6
#    16  16  16  16  16  16
#     4  10  22  39  59  87 122 158 195 242 299 356
#     4  11  23  37  59  84 122 153 192 242 287 353
#     4  11  24  39  59  89 123 156 193 237 298 365
#     4  11  22  39  62  88 119 159 193 243 296 354
#     4  10  22  38  60  89 119 157 204 251 294 344
#     4  10  21  38  60  88 118 152 199 248 291 341
#
# _framework density 20.383054000000001
#
# number of rings (size 3 to 8) (size 9 to 14) (size 15 to 20)
#    0.000    1.500    1.667    3.000    7.000    1.000 
#    0.000    0.000    0.000    1.000    0.000    0.000 
#    0.000    0.000    0.000    0.000    0.000    0.000 
#
# Total GULP energy -297365.609667 kJ/mol
# GULP energy per Si atom -12390.233736 kJ/mol
# Density = 2.033666 g / cm^3
# Si number density = 20.383054 Si / 1000 Ang^3
#
#
#
# Elastic Constant Matrix: (Units=GPa)
#
#
# Indices 1 2 3 4 5 6 
#
# 1 128.5521 37.1276 63.4444 0.0000 0.0000 0.0000
# 2 37.1276 62.3635 29.2817 0.0000 0.0000 0.0000
# 3 63.4444 29.2817 112.1796 0.0000 0.0000 0.0000
# 4 0.0000 0.0000 0.0000 25.4688 0.0000 0.0000
# 5 0.0000 0.0000 0.0000 0.0000 -38.6924 0.0000
# 6 0.0000 0.0000 0.0000 0.0000 0.0000 17.8687
#
#
#
# Elastic Compliance Matrix: (Units=1/GPa)
#
#
# Indices 1 2 3 4 5 6 
#
# 1 0.011773 -0.004425 -0.005503 0.000000 0.000000 0.000000
# 2 -0.004425 0.019938 -0.002702 0.000000 0.000000 0.000000
# 3 -0.005503 -0.002702 0.012732 0.000000 0.000000 0.000000
# 4 0.000000 0.000000 0.000000 0.039264 0.000000 0.000000
# 5 0.000000 0.000000 0.000000 0.000000 -0.025845 0.000000
# 6 0.000000 0.000000 0.000000 0.000000 0.000000 0.055964
#
#
# Mechanical properties :
#
#
# Convention : Reuss Voigt Hill
#
# Bulk Modulus (GPa) = 52.12983 62.53363 57.33173
# Shear Modulus (GPa) = 34.36904 12.47845 23.42375
#
# Velocity S-wave (km/s) = 4.11074 2.47695 3.39363
# Velocity P-wave (km/s) = 6.93985 6.23908 6.59878
#
# Compressibility (1/GPa) = 0.01918288
#
# Stress axis : x y z
#
# Youngs Moduli (GPa) = 84.94011 50.15569 78.54248
#
# Poissons Ratio (x) = 0.22194 0.43225
# Poissons Ratio (y) = 0.37586 0.21220
# Poissons Ratio (z) = 0.46745 0.13551
#
# Static dielectric constant tensor:
#      x y z
#    x 4.230420 0.000000 0.000000 
#    y 0.000000 3.466320 0.000000 
#    z 0.000000 0.000000 3.673700 
# 
# 
# High freq. dielectric constant tensor:
#      x y z
#    x 1.810960 0.000000 0.000000 
#    y 0.000000 1.777720 0.000000 
#    z 0.000000 0.000000 1.792170 
# 
# From -- ./inp_files/8796.got.cif
#   From: 2010.03.12/outbox.cif.g09.slc.cpg/sg42_5_cif.got.tgz:8796.got - 2010.04.14 02:04:31.
