data_PCOD8186871
_publ_section_title
;
Structure prediction by ZEFSAII (Michael W. Deem and Ramdas Pophale) SiO2 
 PCOD8186871
Probable space group: F M M 2
;
_chemical_formula_sum "Si O2"
_cell_formula_units_Z 40
_cell_length_a 9.723396
_cell_length_b 15.108765
_cell_length_c 10.362425
_cell_angle_alpha 90.000000
_cell_angle_beta 90.000000
_cell_angle_gamma 90.000000
_cell_volume 1522.328367
_symmetry_space_group_name_H-M "F M M 2"
_symmetry_group_IT_number 42
_symmetry_cell_setting 'orthorhombic'
loop_
_space_group_symop_operation_xyz
x,y,z
-x,-y,z
-x,y,z
x,-y,z
x,1/2+y,1/2+z
-x,1/2-y,1/2+z
-x,1/2+y,1/2+z
x,1/2-y,1/2+z
1/2+x,y,1/2+z
1/2-x,-y,1/2+z
1/2-x,y,1/2+z
1/2+x,-y,1/2+z
1/2+x,1/2+y,z
1/2-x,1/2-y,z
1/2-x,1/2+y,z
1/2+x,1/2-y,z
loop_
_atom_site_type_symbol
_atom_site_label
_atom_site_fract_x
_atom_site_fract_y
_atom_site_fract_z
Si Si1 0.500000 0.402260 0.036371
Si Si2 0.000000 0.403725 0.888859
Si Si3 0.500000 0.710652 0.636533
Si Si4 0.216983 0.344286 0.340004
O O1 0.500000 0.500000 0.106981
O O2 0.500000 0.318324 0.134341
O O3 0.632990 0.400613 0.943731
O O4 0.860558 0.393517 0.803987
O O5 0.000000 0.500000 0.955526
O O6 0.000000 0.325863 0.992893
O O7 0.365291 0.673579 0.708086
O O8 0.250000 0.250000 0.406632
#
# Coordination Sequence:
#
# PCOD8186871 Si02
#       4
#     8   8   8  16
#     4  11  24  49  81 114 152 199 259 311 368 454
#     4  12  26  48  78 115 153 196 258 314 373 453
#     4  11  26  47  83 105 157 211 243 309 389 441
#     4  11  24  49  76 106 156 203 244 310 380 445
#
# _framework density 26.275541
#
# number of rings (size 3 to 8) (size 9 to 14) (size 15 to 20)
#    0.000    0.800    4.000    2.400    5.600    4.800 
#    0.000    6.000    0.000    0.000    0.000    0.000 
#    0.000    0.000    0.000    0.000    0.000    0.000 
#
# Total GULP energy -123967.925033 kJ/mol
# GULP energy per Si atom -12396.792503 kJ/mol
# Density = 2.621574 g / cm^3
# Si number density = 26.275541 Si / 1000 Ang^3
#
#
#
# Elastic Constant Matrix: (Units=GPa)
#
#
# Indices 1 2 3 4 5 6 
#
# 1 234.8571 51.2194 46.8813 0.0000 0.0000 0.0000
# 2 51.2194 171.1798 20.8085 0.0000 0.0000 0.0000
# 3 46.8813 20.8085 82.6837 0.0000 0.0000 0.0000
# 4 0.0000 0.0000 0.0000 29.5254 0.0000 0.0000
# 5 0.0000 0.0000 0.0000 0.0000 18.3517 0.0000
# 6 0.0000 0.0000 0.0000 0.0000 0.0000 27.8642
#
#
#
# Elastic Compliance Matrix: (Units=1/GPa)
#
#
# Indices 1 2 3 4 5 6 
#
# 1 0.005027 -0.001194 -0.002550 0.000000 0.000000 0.000000
# 2 -0.001194 0.006310 -0.000911 0.000000 0.000000 0.000000
# 3 -0.002550 -0.000911 0.013769 0.000000 0.000000 0.000000
# 4 0.000000 0.000000 0.000000 0.033869 0.000000 0.000000
# 5 0.000000 0.000000 0.000000 0.000000 0.054491 0.000000
# 6 0.000000 0.000000 0.000000 0.000000 0.000000 0.035888
#
#
# Mechanical properties :
#
#
# Convention : Reuss Voigt Hill
#
# Bulk Modulus (GPa) = 63.30526 80.72654 72.01590
# Shear Modulus (GPa) = 30.50074 39.80237 35.15155
#
# Velocity S-wave (km/s) = 3.41075 3.89627 3.66157
# Velocity P-wave (km/s) = 6.29731 7.14360 6.73376
#
# Compressibility (1/GPa) = 0.01579647
#
# Stress axis : x y z
#
# Youngs Moduli (GPa) = 198.91082 158.48172 72.62532
#
# Poissons Ratio (x) = 0.18927 0.18519
# Poissons Ratio (y) = 0.23756 0.06615
# Poissons Ratio (z) = 0.50721 0.14435
#
# Static dielectric constant tensor:
#      x y z
#    x 5.746370 0.000000 0.000000 
#    y 0.000000 4.647090 0.000000 
#    z 0.000000 0.000000 4.116180 
# 
# 
# High freq. dielectric constant tensor:
#      x y z
#    x 2.084830 0.000000 0.000000 
#    y 0.000000 2.052170 0.000000 
#    z 0.000000 0.000000 2.031470 
# 
# From -- ./inp_files/6407.got.cif
#   From: 2010.03.12/outbox.cif.g09.slc.cpg/sg42_4_cif.got.tgz:6407.got - 2010.04.14 02:04:31.
