data_PCOD8186080
_publ_section_title
;
Structure prediction by ZEFSAII (Michael W. Deem and Ramdas Pophale) SiO2 
 PCOD8186080
Probable space group: F M M 2
;
_chemical_formula_sum "Si O2"
_cell_formula_units_Z 112
_cell_length_a 20.315742
_cell_length_b 16.954350
_cell_length_c 17.315344
_cell_angle_alpha 90.000000
_cell_angle_beta 90.000000
_cell_angle_gamma 90.000000
_cell_volume 5964.100557
_symmetry_space_group_name_H-M "F M M 2"
_symmetry_group_IT_number 42
_symmetry_cell_setting 'orthorhombic'
loop_
_space_group_symop_operation_xyz
x,y,z
-x,-y,z
-x,y,z
x,-y,z
x,1/2+y,1/2+z
-x,1/2-y,1/2+z
-x,1/2+y,1/2+z
x,1/2-y,1/2+z
1/2+x,y,1/2+z
1/2-x,-y,1/2+z
1/2-x,y,1/2+z
1/2+x,-y,1/2+z
1/2+x,1/2+y,z
1/2-x,1/2-y,z
1/2-x,1/2+y,z
1/2+x,1/2-y,z
loop_
_atom_site_type_symbol
_atom_site_label
_atom_site_fract_x
_atom_site_fract_y
_atom_site_fract_z
Si Si1 0.869780 0.090469 0.838070
Si Si2 0.574025 0.311238 0.705650
Si Si3 0.733559 0.342255 0.297514
Si Si4 0.073114 0.591664 0.056111
Si Si5 0.686381 0.698393 0.144264
Si Si6 0.673226 0.409912 0.004131
Si Si7 0.318640 0.408964 0.442328
O O1 0.915671 0.150031 0.790173
O O2 0.794878 0.100621 0.811191
O O3 0.872621 0.109903 0.929944
O O4 0.891270 0.000000 0.823665
O O5 0.500000 0.275423 0.703524
O O6 0.582967 0.378928 0.642511
O O7 0.628164 0.246589 0.685607
O O8 0.750000 0.250000 0.303333
O O9 0.709019 0.362167 0.211193
O O10 0.678512 0.361935 0.361591
O O11 0.087388 0.500000 0.060203
O O12 0.000000 0.611087 0.025150
O O13 0.125705 0.629928 0.997324
O O14 0.750000 0.750000 0.118188
O O15 0.655802 0.650352 0.072793
O O16 0.660879 0.500000 0.030669
O O17 0.749309 0.397314 0.984006
O O18 0.333676 0.500000 0.424858
#
# Coordination Sequence:
#
# PCOD8186080 Si02
#       7
#    16  16  16  16  16  16  16
#     4  10  20  37  58  85 115 148 191 237 283 339
#     4  11  22  38  57  84 116 149 188 234 288 342
#     4  10  19  33  53  79 112 146 185 232 283 329
#     4   9  18  32  51  77 110 145 182 225 279 342
#     4  11  21  38  56  85 116 153 191 235 286 338
#     4   9  20  35  57  85 112 145 192 240 284 335
#     4   9  18  32  51  80 111 145 186 233 281 331
#
# _framework density 18.779026999999999
#
# number of rings (size 3 to 8) (size 9 to 14) (size 15 to 20)
#    0.000    2.143    2.857    2.571    0.000    6.571 
#    0.000    1.429    0.000    1.286    0.000    0.000 
#    0.000    0.000    0.000    0.000    0.000    0.000 
#
# Total GULP energy -347076.566257 kJ/mol
# GULP energy per Si atom -12395.591652 kJ/mol
# Density = 1.873629 g / cm^3
# Si number density = 18.779027 Si / 1000 Ang^3
#
#
#
# Elastic Constant Matrix: (Units=GPa)
#
#
# Indices 1 2 3 4 5 6 
#
# 1 62.6458 17.0299 26.4708 0.0000 0.0000 0.0000
# 2 17.0299 57.0993 46.8952 0.0000 0.0000 0.0000
# 3 26.4708 46.8952 126.1778 0.0000 0.0000 0.0000
# 4 0.0000 0.0000 0.0000 37.3033 0.0000 0.0000
# 5 0.0000 0.0000 0.0000 0.0000 27.4222 0.0000
# 6 0.0000 0.0000 0.0000 0.0000 0.0000 18.1295
#
#
#
# Elastic Compliance Matrix: (Units=1/GPa)
#
#
# Indices 1 2 3 4 5 6 
#
# 1 0.017925 -0.003250 -0.002553 0.000000 0.000000 0.000000
# 2 -0.003250 0.025797 -0.008906 0.000000 0.000000 0.000000
# 3 -0.002553 -0.008906 0.011771 0.000000 0.000000 0.000000
# 4 0.000000 0.000000 0.000000 0.026807 0.000000 0.000000
# 5 0.000000 0.000000 0.000000 0.000000 0.036467 0.000000
# 6 0.000000 0.000000 0.000000 0.000000 0.000000 0.055159
#
#
# Mechanical properties :
#
#
# Convention : Reuss Voigt Hill
#
# Bulk Modulus (GPa) = 38.34927 47.41273 42.88100
# Shear Modulus (GPa) = 23.58116 26.93948 25.26032
#
# Velocity S-wave (km/s) = 3.54746 3.79166 3.67159
# Velocity P-wave (km/s) = 6.10286 6.66869 6.39204
#
# Compressibility (1/GPa) = 0.02607612
#
# Stress axis : x y z
#
# Youngs Moduli (GPa) = 55.78871 38.76429 84.95575
#
# Poissons Ratio (x) = 0.12597 0.21687
# Poissons Ratio (y) = 0.18129 0.75661
# Poissons Ratio (z) = 0.14241 0.34523
#
# Static dielectric constant tensor:
#      x y z
#    x 3.383090 0.000000 0.000000 
#    y 0.000000 3.260290 0.000000 
#    z 0.000000 0.000000 3.777320 
# 
# 
# High freq. dielectric constant tensor:
#      x y z
#    x 1.705950 0.000000 0.000000 
#    y 0.000000 1.712620 0.000000 
#    z 0.000000 0.000000 1.739040 
# 
# From -- ./inp_files/21085.got.cif
#   From: 2010.03.12/outbox.cif.g09.slc.cpg/sg42_11_cif.got.tgz:21085.got - 2010.04.14 02:04:31.
