data_PCOD8186982
_publ_section_title
;
Structure prediction by ZEFSAII (Michael W. Deem and Ramdas Pophale) SiO2 
 PCOD8186982
Probable space group: F D D 2
;
_chemical_formula_sum "Si O2"
_cell_formula_units_Z 80
_cell_length_a 4.837538
_cell_length_b 34.103694
_cell_length_c 24.466335
_cell_angle_alpha 90.000000
_cell_angle_beta 90.000000
_cell_angle_gamma 90.000000
_cell_volume 4036.404952
_symmetry_space_group_name_H-M "F D D 2"
_symmetry_group_IT_number 43
_symmetry_cell_setting 'orthorhombic'
loop_
_space_group_symop_operation_xyz
x,y,z
-x,-y,z
1/4-x,1/4+y,1/4+z
1/4+x,1/4-y,1/4+z
x,1/2+y,1/2+z
-x,1/2-y,1/2+z
1/4-x,3/4+y,3/4+z
1/4+x,3/4-y,3/4+z
1/2+x,y,1/2+z
1/2-x,-y,1/2+z
3/4-x,1/4+y,3/4+z
3/4+x,1/4-y,3/4+z
1/2+x,1/2+y,z
1/2-x,1/2-y,z
3/4-x,3/4+y,1/4+z
3/4+x,3/4-y,1/4+z
loop_
_atom_site_type_symbol
_atom_site_label
_atom_site_fract_x
_atom_site_fract_y
_atom_site_fract_z
Si Si1 0.393057 0.627024 0.410810
Si Si2 0.250000 0.250000 0.753498
Si Si3 0.606939 0.627024 0.022139
Si Si4 0.112864 0.579808 0.055858
Si Si5 0.500000 0.000000 0.429451
Si Si6 0.137132 0.170192 0.127091
O O1 0.249998 0.642411 0.466474
O O2 0.442327 0.663699 0.369728
O O3 0.685825 0.604621 0.417619
O O4 0.198690 0.594351 0.383863
O O5 0.124083 0.284103 0.791332
O O6 0.500000 0.266820 0.716474
O O7 0.314170 0.604621 0.015330
O O8 0.557670 0.663699 0.063221
O O9 0.801306 0.594351 0.049086
O O10 0.374082 0.034103 0.391617
#
# Coordination Sequence:
#
# PCOD8186982 Si02
#       6
#    16   8  16  16   8  16
#     4  10  19  35  54  74 103 138 175 216 258 312
#     4  12  22  34  53  78 109 136 168 222 276 318
#     4  10  19  35  54  74 103 138 175 216 258 312
#     4  10  21  33  52  79 103 134 177 214 261 322
#     4  12  22  34  53  78 109 136 168 222 276 318
#     4  10  21  33  52  79 103 134 177 214 261 322
#
# _framework density 19.819616
#
# number of rings (size 3 to 8) (size 9 to 14) (size 15 to 20)
#    0.000    1.600    0.000    7.200    0.000    0.000 
#    0.000    1.000    0.000    0.000    0.000   19.600 
#    0.000    0.000    0.000    0.000    0.000    0.000 
#
# Total GULP energy -247923.361378 kJ/mol
# GULP energy per Si atom -12396.168069 kJ/mol
# Density = 1.977451 g / cm^3
# Si number density = 19.819616 Si / 1000 Ang^3
#
#
#
# Elastic Constant Matrix: (Units=GPa)
#
#
# Indices 1 2 3 4 5 6 
#
# 1 79.3390 25.7062 23.0905 0.0000 0.0000 0.0000
# 2 25.7062 118.4622 64.2958 0.0000 0.0000 0.0000
# 3 23.0905 64.2958 133.5219 0.0000 0.0000 0.0000
# 4 0.0000 0.0000 0.0000 22.4418 0.0000 0.0000
# 5 0.0000 0.0000 0.0000 0.0000 30.3164 0.0000
# 6 0.0000 0.0000 0.0000 0.0000 0.0000 25.5448
#
#
#
# Elastic Compliance Matrix: (Units=1/GPa)
#
#
# Indices 1 2 3 4 5 6 
#
# 1 0.013715 -0.002286 -0.001271 0.000000 0.000000 0.000000
# 2 -0.002286 0.011810 -0.005291 0.000000 0.000000 0.000000
# 3 -0.001271 -0.005291 0.010257 0.000000 0.000000 0.000000
# 4 0.000000 0.000000 0.000000 0.044560 0.000000 0.000000
# 5 0.000000 0.000000 0.000000 0.000000 0.032985 0.000000
# 6 0.000000 0.000000 0.000000 0.000000 0.000000 0.039147
#
#
# Mechanical properties :
#
#
# Convention : Reuss Voigt Hill
#
# Bulk Modulus (GPa) = 55.29608 61.94538 58.62073
# Shear Modulus (GPa) = 28.37703 30.20929 29.29316
#
# Velocity S-wave (km/s) = 3.78797 3.90835 3.84863
# Velocity P-wave (km/s) = 6.86235 7.18953 7.02785
#
# Compressibility (1/GPa) = 0.01808447
#
# Stress axis : x y z
#
# Youngs Moduli (GPa) = 72.91408 84.67720 97.49296
#
# Poissons Ratio (x) = 0.19360 0.12389
# Poissons Ratio (y) = 0.16671 0.51587
# Poissons Ratio (z) = 0.09266 0.44806
#
# Static dielectric constant tensor:
#      x y z
#    x 3.847740 0.000000 0.000000 
#    y 0.000000 3.197760 0.000000 
#    z 0.000000 0.000000 3.765330 
# 
# 
# High freq. dielectric constant tensor:
#      x y z
#    x 1.799490 0.000000 0.000000 
#    y 0.000000 1.727500 0.000000 
#    z 0.000000 0.000000 1.770400 
# 
# From -- ./inp_files/973.got.cif
#   From: 2010.06.25/outbox.cif.g09.slc.cpg/sg43_1_cif.got.tgz:973.got - 2010.06.26 16:48:59.
