data_PCOD8186343
_publ_section_title
;
Structure prediction by ZEFSAII (Michael W. Deem and Ramdas Pophale) SiO2 
 PCOD8186343
Probable space group: F M M 2
;
_chemical_formula_sum "Si O2"
_cell_formula_units_Z 96
_cell_length_a 8.616232
_cell_length_b 25.419303
_cell_length_c 23.427801
_cell_angle_alpha 90.000000
_cell_angle_beta 90.000000
_cell_angle_gamma 90.000000
_cell_volume 5131.124456
_symmetry_space_group_name_H-M "F M M 2"
_symmetry_group_IT_number 42
_symmetry_cell_setting 'orthorhombic'
loop_
_space_group_symop_operation_xyz
x,y,z
-x,-y,z
-x,y,z
x,-y,z
x,1/2+y,1/2+z
-x,1/2-y,1/2+z
-x,1/2+y,1/2+z
x,1/2-y,1/2+z
1/2+x,y,1/2+z
1/2-x,-y,1/2+z
1/2-x,y,1/2+z
1/2+x,-y,1/2+z
1/2+x,1/2+y,z
1/2-x,1/2-y,z
1/2-x,1/2+y,z
1/2+x,1/2-y,z
loop_
_atom_site_type_symbol
_atom_site_label
_atom_site_fract_x
_atom_site_fract_y
_atom_site_fract_z
Si Si1 0.818929 0.900788 0.858360
Si Si2 0.317037 0.058857 0.970385
Si Si3 0.818245 0.000000 0.782553
Si Si4 0.315860 0.597098 0.593027
Si Si5 0.816295 0.805984 0.779081
Si Si6 0.183700 0.306585 0.656968
Si Si7 0.317909 0.000000 0.660319
O O1 0.733589 0.903827 0.918790
O O2 0.766535 0.847457 0.827220
O O3 0.000000 0.901357 0.870929
O O4 0.771080 0.949339 0.818899
O O5 0.500000 0.054840 0.971952
O O6 0.245909 0.000000 0.963545
O O7 0.257577 0.084031 0.029324
O O8 0.711129 0.000000 0.727453
O O9 0.000000 0.000000 0.765803
O O10 0.500000 0.602177 0.597225
O O11 0.238276 0.651950 0.610006
O O12 0.260810 0.551571 0.634982
O O13 0.750000 0.750000 0.798644
O O14 0.745578 0.824125 0.718885
O O15 0.000000 0.802803 0.771643
O O16 0.250000 0.250000 0.639329
O O17 0.000000 0.303588 0.659090
O O18 0.500000 0.000000 0.647227
#
# Coordination Sequence:
#
# PCOD8186343 Si02
#       7
#    16  16   8  16  16  16   8
#     4  10  21  36  57  83 111 148 190 232 285 341
#     4  10  21  38  59  83 111 151 192 232 288 344
#     4  10  20  35  54  79 113 150 182 228 291 348
#     4  11  22  40  60  82 116 155 193 237 290 347
#     4  10  20  36  58  85 116 154 193 232 286 343
#     4  11  22  38  61  90 118 152 194 238 291 344
#     4  12  24  35  54  87 117 148 190 240 291 346
#
# _framework density 18.709349
#
# number of rings (size 3 to 8) (size 9 to 14) (size 15 to 20)
#    0.000    1.500    1.667    5.250    0.000    4.667 
#    0.000    0.833    0.000    2.000    0.000    0.000 
#    0.000    0.000    0.000    0.000    0.000    0.000 
#
# Total GULP energy -297710.639629 kJ/mol
# GULP energy per Si atom -12404.609985 kJ/mol
# Density = 1.866677 g / cm^3
# Si number density = 18.709349 Si / 1000 Ang^3
#
#
#
# Elastic Constant Matrix: (Units=GPa)
#
#
# Indices 1 2 3 4 5 6 
#
# 1 77.8370 41.1287 34.4516 0.0000 0.0000 0.0000
# 2 41.1287 131.8793 76.5023 0.0000 0.0000 0.0000
# 3 34.4516 76.5023 134.9825 0.0000 0.0000 0.0000
# 4 0.0000 0.0000 0.0000 30.0810 0.0000 0.0000
# 5 0.0000 0.0000 0.0000 0.0000 31.2732 0.0000
# 6 0.0000 0.0000 0.0000 0.0000 0.0000 50.6735
#
#
#
# Elastic Compliance Matrix: (Units=1/GPa)
#
#
# Indices 1 2 3 4 5 6 
#
# 1 0.015681 -0.003827 -0.001833 0.000000 0.000000 0.000000
# 2 -0.003827 0.012231 -0.005955 0.000000 0.000000 0.000000
# 3 -0.001833 -0.005955 0.011251 0.000000 0.000000 0.000000
# 4 0.000000 0.000000 0.000000 0.033244 0.000000 0.000000
# 5 0.000000 0.000000 0.000000 0.000000 0.031976 0.000000
# 6 0.000000 0.000000 0.000000 0.000000 0.000000 0.019734
#
#
# Mechanical properties :
#
#
# Convention : Reuss Voigt Hill
#
# Bulk Modulus (GPa) = 62.76517 72.09598 67.43058
# Shear Modulus (GPa) = 32.75288 35.24662 33.99975
#
# Velocity S-wave (km/s) = 4.18858 4.34511 4.26756
# Velocity P-wave (km/s) = 7.55066 7.98697 7.77188
#
# Compressibility (1/GPa) = 0.01593240
#
# Stress axis : x y z
#
# Youngs Moduli (GPa) = 63.77181 81.76176 88.87794
#
# Poissons Ratio (x) = 0.31289 0.16294
# Poissons Ratio (y) = 0.24404 0.52928
# Poissons Ratio (z) = 0.11692 0.48690
#
# Static dielectric constant tensor:
#      x y z
#    x 3.406040 0.000000 0.000000 
#    y 0.000000 3.587050 0.000000 
#    z 0.000000 0.000000 3.465220 
# 
# 
# High freq. dielectric constant tensor:
#      x y z
#    x 1.730760 0.000000 0.000000 
#    y 0.000000 1.732250 0.000000 
#    z 0.000000 0.000000 1.726710 
# 
# From -- ./inp_files/28107.got.cif
#   From: 2010.03.12/outbox.cif.g09.slc.cpg/sg42_15_cif.got.tgz:28107.got - 2010.04.14 02:04:31.
