data_PCOD8186520
_publ_section_title
;
Structure prediction by ZEFSAII (Michael W. Deem and Ramdas Pophale) SiO2 
 PCOD8186520
Probable space group: F M M 2
;
_chemical_formula_sum "Si O2"
_cell_formula_units_Z 112
_cell_length_a 29.276998
_cell_length_b 16.058606
_cell_length_c 10.465562
_cell_angle_alpha 90.000000
_cell_angle_beta 90.000000
_cell_angle_gamma 90.000000
_cell_volume 4920.360696
_symmetry_space_group_name_H-M "F M M 2"
_symmetry_group_IT_number 42
_symmetry_cell_setting 'orthorhombic'
loop_
_space_group_symop_operation_xyz
x,y,z
-x,-y,z
-x,y,z
x,-y,z
x,1/2+y,1/2+z
-x,1/2-y,1/2+z
-x,1/2+y,1/2+z
x,1/2-y,1/2+z
1/2+x,y,1/2+z
1/2-x,-y,1/2+z
1/2-x,y,1/2+z
1/2+x,-y,1/2+z
1/2+x,1/2+y,z
1/2-x,1/2-y,z
1/2-x,1/2+y,z
1/2+x,1/2-y,z
loop_
_atom_site_type_symbol
_atom_site_label
_atom_site_fract_x
_atom_site_fract_y
_atom_site_fract_z
Si Si1 0.140619 0.373776 0.640360
Si Si2 0.447754 0.755583 0.323268
Si Si3 0.607037 0.402026 0.403697
Si Si4 0.268390 0.588446 0.025533
Si Si5 0.868570 0.807245 0.646945
Si Si6 0.723591 0.167763 0.262083
Si Si7 0.949397 0.408575 0.510184
O O1 0.145476 0.385137 0.794517
O O2 0.178708 0.424349 0.565839
O O3 0.149289 0.279942 0.589180
O O4 0.089138 0.407351 0.618616
O O5 0.500000 0.750250 0.278943
O O6 0.433739 0.665576 0.381449
O O7 0.418130 0.782811 0.201797
O O8 0.439540 0.831740 0.418827
O O9 0.591337 0.500000 0.405450
O O10 0.628983 0.379627 0.541093
O O11 0.251943 0.500000 0.971656
O O12 0.238817 0.605363 0.151119
O O13 0.261067 0.649702 0.906615
O O14 0.831819 0.831159 0.756516
O O15 0.750000 0.250000 0.220107
O O16 0.946780 0.500000 0.440862
O O17 0.000000 0.398364 0.572166
#
# Coordination Sequence:
#
# PCOD8186520 Si02
#       7
#    16  16  16  16  16  16  16
#     4  11  23  42  68  98 137 178 226 291 357 427
#     4  10  23  43  68 100 141 183 231 291 356 426
#     4  11  25  43  69 102 140 186 233 291 357 432
#     4  12  27  45  70 105 140 180 235 299 363 435
#     4  11  25  44  69  99 137 184 235 289 360 423
#     4  12  27  46  73 100 139 189 240 294 363 433
#     4  10  20  38  67  98 130 175 229 281 342 419
#
# _framework density 22.762559
#
# number of rings (size 3 to 8) (size 9 to 14) (size 15 to 20)
#    0.000    1.000    2.857    3.000    4.000    4.857 
#    0.000    0.000    0.000    0.000    0.000    0.000 
#    0.000    0.000    0.000    0.000    0.000    0.000 
#
# Total GULP energy -346899.599984 kJ/mol
# GULP energy per Si atom -12389.271428 kJ/mol
# Density = 2.271075 g / cm^3
# Si number density = 22.762559 Si / 1000 Ang^3
#
#
#
# Elastic Constant Matrix: (Units=GPa)
#
#
# Indices 1 2 3 4 5 6 
#
# 1 106.3990 21.5005 36.1800 0.0000 0.0000 0.0000
# 2 21.5005 161.8868 39.0315 0.0000 0.0000 0.0000
# 3 36.1800 39.0315 106.0985 0.0000 0.0000 0.0000
# 4 0.0000 0.0000 0.0000 23.4946 0.0000 0.0000
# 5 0.0000 0.0000 0.0000 0.0000 26.5114 0.0000
# 6 0.0000 0.0000 0.0000 0.0000 0.0000 16.5279
#
#
#
# Elastic Compliance Matrix: (Units=1/GPa)
#
#
# Indices 1 2 3 4 5 6 
#
# 1 0.010683 -0.000593 -0.003425 0.000000 0.000000 0.000000
# 2 -0.000593 0.006811 -0.002303 0.000000 0.000000 0.000000
# 3 -0.003425 -0.002303 0.011440 0.000000 0.000000 0.000000
# 4 0.000000 0.000000 0.000000 0.042563 0.000000 0.000000
# 5 0.000000 0.000000 0.000000 0.000000 0.037720 0.000000
# 6 0.000000 0.000000 0.000000 0.000000 0.000000 0.060504
#
#
# Mechanical properties :
#
#
# Convention : Reuss Voigt Hill
#
# Bulk Modulus (GPa) = 61.37958 63.08983 62.23470
# Shear Modulus (GPa) = 26.62486 31.81826 29.22156
#
# Velocity S-wave (km/s) = 3.42377 3.74282 3.58684
# Velocity P-wave (km/s) = 6.53095 6.81578 6.67488
#
# Compressibility (1/GPa) = 0.01629206
#
# Stress axis : x y z
#
# Youngs Moduli (GPa) = 93.60675 146.81461 87.40904
#
# Poissons Ratio (x) = 0.08708 0.29935
# Poissons Ratio (y) = 0.05552 0.20135
# Poissons Ratio (z) = 0.32058 0.33819
#
# Static dielectric constant tensor:
#      x y z
#    x 4.142170 0.000000 0.000000 
#    y 0.000000 4.434040 0.000000 
#    z 0.000000 0.000000 3.809640 
# 
# 
# High freq. dielectric constant tensor:
#      x y z
#    x 1.897350 0.000000 0.000000 
#    y 0.000000 1.914490 0.000000 
#    z 0.000000 0.000000 1.883480 
# 
# From -- ./inp_files/11120.got.cif
#   From: 2010.03.12/outbox.cif.g09.slc.cpg/sg42_6_cif.got.tgz:11120.got - 2010.04.14 02:04:31.
