data_PCOD8186654
_publ_section_title
;
Structure prediction by ZEFSAII (Michael W. Deem and Ramdas Pophale) SiO2 
 PCOD8186654
Probable space group: F M M 2
;
_chemical_formula_sum "Si O2"
_cell_formula_units_Z 80
_cell_length_a 23.683087
_cell_length_b 16.893721
_cell_length_c 9.318779
_cell_angle_alpha 90.000000
_cell_angle_beta 90.000000
_cell_angle_gamma 90.000000
_cell_volume 3728.401210
_symmetry_space_group_name_H-M "F M M 2"
_symmetry_group_IT_number 42
_symmetry_cell_setting 'orthorhombic'
loop_
_space_group_symop_operation_xyz
x,y,z
-x,-y,z
-x,y,z
x,-y,z
x,1/2+y,1/2+z
-x,1/2-y,1/2+z
-x,1/2+y,1/2+z
x,1/2-y,1/2+z
1/2+x,y,1/2+z
1/2-x,-y,1/2+z
1/2-x,y,1/2+z
1/2+x,-y,1/2+z
1/2+x,1/2+y,z
1/2-x,1/2-y,z
1/2-x,1/2+y,z
1/2+x,1/2-y,z
loop_
_atom_site_type_symbol
_atom_site_label
_atom_site_fract_x
_atom_site_fract_y
_atom_site_fract_z
Si Si1 0.500000 0.354445 0.800890
Si Si2 0.692435 0.148321 0.133689
Si Si3 0.125980 0.313301 0.625812
Si Si4 0.500000 0.731267 0.083167
Si Si5 0.618206 0.585276 0.861477
Si Si6 0.796281 0.594273 0.811042
O O1 0.500000 0.322191 0.637283
O O2 0.447693 0.409864 0.831098
O O3 0.500000 0.278380 0.910833
O O4 0.662224 0.233535 0.136794
O O5 0.649203 0.088840 0.209146
O O6 0.749880 0.145673 0.225220
O O7 0.706925 0.117498 0.976561
O O8 0.140200 0.346995 0.467937
O O9 0.143886 0.376488 0.747417
O O10 0.058345 0.305043 0.646873
O O11 0.630820 0.500000 0.932142
O O12 0.787938 0.500000 0.791486
#
# Coordination Sequence:
#
# PCOD8186654 Si02
#       6
#     8  16  16   8  16  16
#     4  10  21  38  64  96 135 174 216 266 321 384
#     4  12  25  44  67  95 128 175 217 273 327 397
#     4  11  24  43  69  97 130 173 221 264 322 391
#     4  10  22  40  66  98 132 170 214 270 316 382
#     4  11  22  40  66  99 134 173 217 269 329 389
#     4  12  26  44  65  95 133 170 216 275 332 386
#
# _framework density 21.456918000000002
#
# number of rings (size 3 to 8) (size 9 to 14) (size 15 to 20)
#    0.000    0.800    2.000    5.700    2.800    1.600 
#    0.000    1.500    0.000    0.000    0.000    0.000 
#    0.000    0.000    0.000    0.000    0.000    0.000 
#
# Total GULP energy -247898.965742 kJ/mol
# GULP energy per Si atom -12394.948287 kJ/mol
# Density = 2.140808 g / cm^3
# Si number density = 21.456918 Si / 1000 Ang^3
#
#
#
# Elastic Constant Matrix: (Units=GPa)
#
#
# Indices 1 2 3 4 5 6 
#
# 1 132.3377 55.0312 57.2442 -0.0001 0.0000 -0.0001
# 2 55.0312 122.7937 37.0785 0.0001 0.0000 0.0001
# 3 57.2442 37.0785 119.3606 0.0004 -0.0002 0.0008
# 4 -0.0001 0.0001 0.0004 30.7555 -0.0001 0.0005
# 5 0.0000 0.0000 -0.0002 -0.0001 34.8900 -0.0002
# 6 -0.0001 0.0001 0.0008 0.0005 -0.0002 -67.7333
#
#
#
# Elastic Compliance Matrix: (Units=1/GPa)
#
#
# Indices 1 2 3 4 5 6 
#
# 1 0.010821 -0.003622 -0.004064 0.000000 0.000000 0.000000
# 2 -0.003622 0.010199 -0.001431 0.000000 0.000000 0.000000
# 3 -0.004064 -0.001431 0.010772 0.000000 0.000000 0.000000
# 4 0.000000 0.000000 0.000000 0.032514 0.000000 0.000000
# 5 0.000000 0.000000 0.000000 0.000000 0.028662 0.000000
# 6 0.000000 0.000000 0.000000 0.000000 0.000000 -0.014764
#
#
# Mechanical properties :
#
#
# Convention : Reuss Voigt Hill
#
# Bulk Modulus (GPa) = 73.76580 74.79997 74.28288
# Shear Modulus (GPa) = 49.52555 14.59165 32.05860
#
# Velocity S-wave (km/s) = 4.80952 2.61059 3.86954
# Velocity P-wave (km/s) = 8.08054 6.63499 7.39318
#
# Compressibility (1/GPa) = 0.01355642
#
# Stress axis : x y z
#
# Youngs Moduli (GPa) = 92.41520 98.04697 92.83535
#
# Poissons Ratio (x) = 0.35514 0.37731
# Poissons Ratio (y) = 0.33474 0.13286
# Poissons Ratio (z) = 0.37561 0.14032
#
# Static dielectric constant tensor:
#      x y z
#    x 4.163080 0.000000 0.000000 
#    y 0.000000 3.806050 0.000000 
#    z 0.000000 0.000000 3.977090 
# 
# 
# High freq. dielectric constant tensor:
#      x y z
#    x 1.862050 0.000000 0.000000 
#    y 0.000000 1.838670 0.000000 
#    z 0.000000 0.000000 1.843560 
# 
# From -- ./inp_files/5117.got.cif
#   From: 2010.03.12/outbox.cif.g09.slc.cpg/sg42_3_cif.got.tgz:5117.got - 2010.04.14 02:04:31.
