data_PCOD8186099
_publ_section_title
;
Structure prediction by ZEFSAII (Michael W. Deem and Ramdas Pophale) SiO2 
 PCOD8186099
Probable space group: F M M 2
;
_chemical_formula_sum "Si O2"
_cell_formula_units_Z 80
_cell_length_a 15.656586
_cell_length_b 8.964349
_cell_length_c 29.065471
_cell_angle_alpha 90.000000
_cell_angle_beta 90.000000
_cell_angle_gamma 90.000000
_cell_volume 4079.370857
_symmetry_space_group_name_H-M "F M M 2"
_symmetry_group_IT_number 42
_symmetry_cell_setting 'orthorhombic'
loop_
_space_group_symop_operation_xyz
x,y,z
-x,-y,z
-x,y,z
x,-y,z
x,1/2+y,1/2+z
-x,1/2-y,1/2+z
-x,1/2+y,1/2+z
x,1/2-y,1/2+z
1/2+x,y,1/2+z
1/2-x,-y,1/2+z
1/2-x,y,1/2+z
1/2+x,-y,1/2+z
1/2+x,1/2+y,z
1/2-x,1/2-y,z
1/2-x,1/2+y,z
1/2+x,1/2-y,z
loop_
_atom_site_type_symbol
_atom_site_label
_atom_site_fract_x
_atom_site_fract_y
_atom_site_fract_z
Si Si1 0.594387 0.676670 0.337280
Si Si2 0.398849 0.328573 0.438634
Si Si3 0.663555 0.323745 0.026827
Si Si4 0.164251 0.823264 0.242283
Si Si5 0.500000 0.177420 0.582966
Si Si6 0.000000 0.177404 0.186664
O O1 0.500000 0.746275 0.330643
O O2 0.585241 0.500000 0.335328
O O3 0.631352 0.721824 0.387377
O O4 0.653335 0.731627 0.295256
O O5 0.500000 0.306621 0.443095
O O6 0.373825 0.500000 0.448612
O O7 0.350028 0.222698 0.473975
O O8 0.672223 0.500000 0.030123
O O9 0.750000 0.250000 0.046297
O O10 0.584415 0.263117 0.057099
O O11 0.250000 0.750000 0.222231
O O12 0.084398 0.763974 0.212536
O O13 0.172077 0.000000 0.238571
O O14 0.500000 0.240190 0.634778
O O15 0.500000 0.000000 0.582469
O O16 0.000000 0.000000 0.186935
#
# Coordination Sequence:
#
# PCOD8186099 Si02
#       6
#    16  16  16  16   8   8
#     4   8  14  28  51  78 106 141 180 214 252 308
#     4   9  17  31  54  81 110 143 181 221 263 314
#     4  11  22  37  56  80 110 142 181 224 269 320
#     4  10  19  33  56  82 108 139 178 217 260 315
#     4   9  20  38  58  79 105 137 177 225 272 321
#     4   9  18  36  60  79 101 141 181 213 264 331
#
# _framework density 19.610866999999999
#
# number of rings (size 3 to 8) (size 9 to 14) (size 15 to 20)
#    0.000    2.600    2.000    1.800    0.000    1.600 
#    0.000    3.500    0.000    4.800    0.000    0.000 
#    0.000    0.000    0.000    0.000    0.000    0.000 
#
# Total GULP energy -247937.564216 kJ/mol
# GULP energy per Si atom -12396.878211 kJ/mol
# Density = 1.956623 g / cm^3
# Si number density = 19.610867 Si / 1000 Ang^3
#
#
#
# Elastic Constant Matrix: (Units=GPa)
#
#
# Indices 1 2 3 4 5 6 
#
# 1 155.6528 34.3357 76.0363 0.0000 0.0000 0.0000
# 2 34.3357 38.0271 25.2286 0.0000 0.0000 0.0000
# 3 76.0363 25.2286 141.8011 0.0000 0.0000 0.0000
# 4 0.0000 0.0000 0.0000 17.1296 0.0000 0.0000
# 5 0.0000 0.0000 0.0000 0.0000 13.6165 0.0000
# 6 0.0000 0.0000 0.0000 0.0000 0.0000 27.3333
#
#
#
# Elastic Compliance Matrix: (Units=1/GPa)
#
#
# Indices 1 2 3 4 5 6 
#
# 1 0.009807 -0.006084 -0.004176 0.000000 0.000000 0.000000
# 2 -0.006084 0.033591 -0.002714 0.000000 0.000000 0.000000
# 3 -0.004176 -0.002714 0.009774 0.000000 0.000000 0.000000
# 4 0.000000 0.000000 0.000000 0.058379 0.000000 0.000000
# 5 0.000000 0.000000 0.000000 0.000000 0.073440 0.000000
# 6 0.000000 0.000000 0.000000 0.000000 0.000000 0.036585
#
#
# Mechanical properties :
#
#
# Convention : Reuss Voigt Hill
#
# Bulk Modulus (GPa) = 36.73261 67.40914 52.07087
# Shear Modulus (GPa) = 19.48565 24.94124 22.21345
#
# Velocity S-wave (km/s) = 3.15559 3.57011 3.36923
# Velocity P-wave (km/s) = 5.66113 7.17232 6.46106
#
# Compressibility (1/GPa) = 0.02722377
#
# Stress axis : x y z
#
# Youngs Moduli (GPa) = 101.97151 29.76974 102.30953
#
# Poissons Ratio (x) = 0.18112 0.42725
# Poissons Ratio (y) = 0.62041 0.27766
# Poissons Ratio (z) = 0.42584 0.08079
#
# Static dielectric constant tensor:
#      x y z
#    x 3.633040 0.000000 0.000000 
#    y 0.000000 3.036530 0.000000 
#    z 0.000000 0.000000 3.845280 
# 
# 
# High freq. dielectric constant tensor:
#      x y z
#    x 1.767530 0.000000 0.000000 
#    y 0.000000 1.714080 0.000000 
#    z 0.000000 0.000000 1.767360 
# 
# From -- ./inp_files/31308.got.cif
#   From: 2010.03.12/outbox.cif.g09.slc.cpg/sg42_16_cif.got.tgz:31308.got - 2010.04.14 02:04:31.
