data_PCOD8186908
_publ_section_title
;
Structure prediction by ZEFSAII (Michael W. Deem and Ramdas Pophale) SiO2 
 PCOD8186908
Probable space group: F D D 2
;
_chemical_formula_sum "Si O2"
_cell_formula_units_Z 112
_cell_length_a 15.846591
_cell_length_b 14.534412
_cell_length_c 23.805401
_cell_angle_alpha 90.000000
_cell_angle_beta 90.000000
_cell_angle_gamma 90.000000
_cell_volume 5482.880964
_symmetry_space_group_name_H-M "F D D 2"
_symmetry_group_IT_number 43
_symmetry_cell_setting 'orthorhombic'
loop_
_space_group_symop_operation_xyz
x,y,z
-x,-y,z
1/4-x,1/4+y,1/4+z
1/4+x,1/4-y,1/4+z
x,1/2+y,1/2+z
-x,1/2-y,1/2+z
1/4-x,3/4+y,3/4+z
1/4+x,3/4-y,3/4+z
1/2+x,y,1/2+z
1/2-x,-y,1/2+z
3/4-x,1/4+y,3/4+z
3/4+x,1/4-y,3/4+z
1/2+x,1/2+y,z
1/2-x,1/2-y,z
3/4-x,3/4+y,1/4+z
3/4+x,3/4-y,1/4+z
loop_
_atom_site_type_symbol
_atom_site_label
_atom_site_fract_x
_atom_site_fract_y
_atom_site_fract_z
Si Si1 0.500000 0.000000 0.744390
Si Si2 0.636773 0.599402 0.315749
Si Si3 0.370623 0.933377 0.370497
Si Si4 0.000000 0.500000 0.519924
Si Si5 0.850835 0.064458 0.174798
Si Si6 0.773722 0.963044 0.768514
Si Si7 0.307427 0.381624 0.106725
Si Si8 0.618160 0.879405 0.235514
O O1 0.445865 0.926416 0.780120
O O2 0.560450 0.937949 0.706528
O O3 0.675518 0.701749 0.305931
O O4 0.605800 0.602111 0.380399
O O5 0.710931 0.528540 0.303529
O O6 0.314015 0.899643 0.317397
O O7 0.459907 0.884269 0.366857
O O8 0.322244 0.896371 0.426830
O O9 0.382585 0.044442 0.371519
O O10 0.042650 0.575084 0.480205
O O11 0.776788 0.089566 0.219560
O O12 0.834506 0.965642 0.146094
O O13 0.854464 0.014327 0.740462
O O14 0.315982 0.402688 0.039992
#
# Coordination Sequence:
#
# PCOD8186908 Si02
#       8
#     8  16  16   8  16  16  16  16
#     4  10  25  36  58  92 126 158 199 252 326 356
#     4  10  21  37  56  87 122 153 201 246 307 363
#     4  10  20  34  51  81 125 145 191 251 296 348
#     4  10  17  28  56  86 114 148 193 246 294 356
#     4  11  20  37  59  83 119 154 201 250 295 372
#     4   9  21  35  54  85 114 154 193 239 305 353
#     4  10  20  31  54  87 112 155 191 245 306 347
#     4  10  18  29  52  81 116 144 186 240 300 348
#
# _framework density 20.427218
#
# number of rings (size 3 to 8) (size 9 to 14) (size 15 to 20)
#    0.000    2.000    2.857    1.286    8.000    0.000 
#    0.000    2.857    0.000    0.000    0.000    0.000 
#    0.000    0.000    0.000    0.000    0.000    0.000 
#
# Total GULP energy -346939.049613 kJ/mol
# GULP energy per Si atom -12390.680343 kJ/mol
# Density = 2.038072 g / cm^3
# Si number density = 20.427218 Si / 1000 Ang^3
#
#
#
# Elastic Constant Matrix: (Units=GPa)
#
#
# Indices 1 2 3 4 5 6 
#
# 1 69.1837 14.8710 47.8479 0.0000 0.0000 0.0000
# 2 14.8710 30.1623 30.0916 0.0000 0.0000 0.0000
# 3 47.8479 30.0916 174.5241 0.0000 0.0000 0.0000
# 4 0.0000 0.0000 0.0000 28.1077 0.0000 0.0000
# 5 0.0000 0.0000 0.0000 0.0000 28.7271 0.0000
# 6 0.0000 0.0000 0.0000 0.0000 0.0000 22.3065
#
#
#
# Elastic Compliance Matrix: (Units=1/GPa)
#
#
# Indices 1 2 3 4 5 6 
#
# 1 0.018413 -0.004882 -0.004206 0.000000 0.000000 0.000000
# 2 -0.004882 0.041336 -0.005789 0.000000 0.000000 0.000000
# 3 -0.004206 -0.005789 0.007881 0.000000 0.000000 0.000000
# 4 0.000000 0.000000 0.000000 0.035578 0.000000 0.000000
# 5 0.000000 0.000000 0.000000 0.000000 0.034810 0.000000
# 6 0.000000 0.000000 0.000000 0.000000 0.000000 0.044830
#
#
# Mechanical properties :
#
#
# Convention : Reuss Voigt Hill
#
# Bulk Modulus (GPa) = 26.40167 51.05458 38.72813
# Shear Modulus (GPa) = 22.19982 27.89887 25.04935
#
# Velocity S-wave (km/s) = 3.30021 3.69964 3.50562
# Velocity P-wave (km/s) = 5.24162 6.58008 5.94862
#
# Compressibility (1/GPa) = 0.03787639
#
# Stress axis : x y z
#
# Youngs Moduli (GPa) = 54.31028 24.19195 126.88385
#
# Poissons Ratio (x) = 0.11809 0.53372
# Poissons Ratio (y) = 0.26512 0.73451
# Poissons Ratio (z) = 0.22845 0.14004
#
# Static dielectric constant tensor:
#      x y z
#    x 3.685840 0.000000 0.000000 
#    y 0.000000 3.291640 0.000000 
#    z 0.000000 0.000000 4.095540 
# 
# 
# High freq. dielectric constant tensor:
#      x y z
#    x 1.786780 0.000000 0.000000 
#    y 0.000000 1.745440 0.000000 
#    z 0.000000 0.000000 1.817390 
# 
# From -- ./inp_files/18060.got.cif
#   From: 2010.06.25/outbox.cif.g09.slc.cpg/sg43_10_cif.got.tgz:18060.got - 2010.06.26 16:48:59.
