data_PCOD8186751
_publ_section_title
;
Structure prediction by ZEFSAII (Michael W. Deem and Ramdas Pophale) SiO2 
 PCOD8186751
Probable space group: F M M 2
;
_chemical_formula_sum "Si O2"
_cell_formula_units_Z 80
_cell_length_a 8.760111
_cell_length_b 22.763136
_cell_length_c 20.022737
_cell_angle_alpha 90.000000
_cell_angle_beta 90.000000
_cell_angle_gamma 90.000000
_cell_volume 3992.685892
_symmetry_space_group_name_H-M "F M M 2"
_symmetry_group_IT_number 42
_symmetry_cell_setting 'orthorhombic'
loop_
_space_group_symop_operation_xyz
x,y,z
-x,-y,z
-x,y,z
x,-y,z
x,1/2+y,1/2+z
-x,1/2-y,1/2+z
-x,1/2+y,1/2+z
x,1/2-y,1/2+z
1/2+x,y,1/2+z
1/2-x,-y,1/2+z
1/2-x,y,1/2+z
1/2+x,-y,1/2+z
1/2+x,1/2+y,z
1/2-x,1/2-y,z
1/2-x,1/2+y,z
1/2+x,1/2-y,z
loop_
_atom_site_type_symbol
_atom_site_label
_atom_site_fract_x
_atom_site_fract_y
_atom_site_fract_z
Si Si1 0.826244 0.611595 0.635990
Si Si2 0.319916 0.813692 0.760602
Si Si3 0.819685 0.000000 0.926414
Si Si4 0.825808 0.187283 0.007541
Si Si5 0.320192 0.617855 0.391178
Si Si6 0.178511 0.000000 0.573437
O O1 0.764227 0.640356 0.704333
O O2 0.817644 0.662996 0.581841
O O3 0.721219 0.556990 0.616504
O O4 0.000000 0.588889 0.643744
O O5 0.500000 0.806369 0.756677
O O6 0.250000 0.750000 0.748895
O O7 0.266461 0.839320 0.831770
O O8 0.761860 0.944564 0.884233
O O9 0.000000 0.000000 0.930065
O O10 0.762214 0.000000 0.002508
O O11 0.750000 0.250000 0.005724
O O12 0.000000 0.190962 0.981697
O O13 0.728549 0.144675 0.961307
O O14 0.500000 0.607578 0.389591
O O15 0.000000 0.000000 0.558831
#
# Coordination Sequence:
#
# PCOD8186751 Si02
#       6
#    16  16   8  16  16   8
#     4  10  22  41  63  88 123 166 207 250 309 367
#     4  10  23  42  64  91 126 168 207 253 307 365
#     4  12  24  41  64  91 125 163 205 257 316 372
#     4  11  22  36  59  88 120 160 208 257 310 366
#     4  11  23  40  63  91 124 162 209 257 309 367
#     4  12  24  39  64  95 125 159 205 259 312 366
#
# _framework density 20.036638
#
# number of rings (size 3 to 8) (size 9 to 14) (size 15 to 20)
#    0.000    1.200    2.000    4.200    0.000    5.600 
#    0.000    4.000    0.000    0.000    0.000    0.000 
#    0.000    0.000    0.000    0.000    0.000    0.000 
#
# Total GULP energy -248105.158088 kJ/mol
# GULP energy per Si atom -12405.257904 kJ/mol
# Density = 1.999103 g / cm^3
# Si number density = 20.036638 Si / 1000 Ang^3
#
#
#
# Elastic Constant Matrix: (Units=GPa)
#
#
# Indices 1 2 3 4 5 6 
#
# 1 104.5326 47.5120 28.7444 0.0000 0.0000 0.0000
# 2 47.5120 120.4236 11.2869 0.0000 0.0000 0.0000
# 3 28.7444 11.2869 76.4914 0.0000 0.0000 0.0000
# 4 0.0000 0.0000 0.0000 33.6046 0.0000 0.0000
# 5 0.0000 0.0000 0.0000 0.0000 24.3694 0.0000
# 6 0.0000 0.0000 0.0000 0.0000 0.0000 39.4654
#
#
#
# Elastic Compliance Matrix: (Units=1/GPa)
#
#
# Indices 1 2 3 4 5 6 
#
# 1 0.012826 -0.004673 -0.004130 0.000000 0.000000 0.000000
# 2 -0.004673 0.010123 0.000262 0.000000 0.000000 0.000000
# 3 -0.004130 0.000262 0.014587 0.000000 0.000000 0.000000
# 4 0.000000 0.000000 0.000000 0.029758 0.000000 0.000000
# 5 0.000000 0.000000 0.000000 0.000000 0.041035 0.000000
# 6 0.000000 0.000000 0.000000 0.000000 0.000000 0.025339
#
#
# Mechanical properties :
#
#
# Convention : Reuss Voigt Hill
#
# Bulk Modulus (GPa) = 48.89085 52.94826 50.91955
# Shear Modulus (GPa) = 31.73225 33.74816 32.74021
#
# Velocity S-wave (km/s) = 3.98390 4.10850 4.04668
# Velocity P-wave (km/s) = 6.75394 6.99925 6.87769
#
# Compressibility (1/GPa) = 0.02045372
#
# Stress axis : x y z
#
# Youngs Moduli (GPa) = 77.96484 98.78240 68.55525
#
# Poissons Ratio (x) = 0.46165 0.28316
# Poissons Ratio (y) = 0.36436 -0.01799
# Poissons Ratio (z) = 0.32202 -0.02592
#
# Static dielectric constant tensor:
#      x y z
#    x 3.681260 0.000000 0.000000 
#    y 0.000000 3.695610 0.000000 
#    z 0.000000 0.000000 3.785580 
# 
# 
# High freq. dielectric constant tensor:
#      x y z
#    x 1.783870 0.000000 0.000000 
#    y 0.000000 1.797810 0.000000 
#    z 0.000000 0.000000 1.784530 
# 
# From -- ./inp_files/23462.got.cif
#   From: 2010.03.12/outbox.cif.g09.slc.cpg/sg42_12_cif.got.tgz:23462.got - 2010.04.14 02:04:31.
