data_PCOD8186686
_publ_section_title
;
Structure prediction by ZEFSAII (Michael W. Deem and Ramdas Pophale) SiO2 
 PCOD8186686
Probable space group: F M M 2
;
_chemical_formula_sum "Si O2"
_cell_formula_units_Z 96
_cell_length_a 11.067059
_cell_length_b 27.485693
_cell_length_c 14.674471
_cell_angle_alpha 90.000000
_cell_angle_beta 90.000000
_cell_angle_gamma 90.000000
_cell_volume 4463.765497
_symmetry_space_group_name_H-M "F M M 2"
_symmetry_group_IT_number 42
_symmetry_cell_setting 'orthorhombic'
loop_
_space_group_symop_operation_xyz
x,y,z
-x,-y,z
-x,y,z
x,-y,z
x,1/2+y,1/2+z
-x,1/2-y,1/2+z
-x,1/2+y,1/2+z
x,1/2-y,1/2+z
1/2+x,y,1/2+z
1/2-x,-y,1/2+z
1/2-x,y,1/2+z
1/2+x,-y,1/2+z
1/2+x,1/2+y,z
1/2-x,1/2-y,z
1/2-x,1/2+y,z
1/2+x,1/2-y,z
loop_
_atom_site_type_symbol
_atom_site_label
_atom_site_fract_x
_atom_site_fract_y
_atom_site_fract_z
Si Si1 0.637191 0.716941 0.208440
Si Si2 0.809859 0.389375 0.437722
Si Si3 0.636448 0.217205 0.494398
Si Si4 0.740272 0.558359 0.114572
Si Si5 0.636630 0.110506 0.785800
Si Si6 0.000000 0.552990 0.120781
Si Si7 0.000000 0.946726 0.833968
O O1 0.500000 0.737635 0.230482
O O2 0.750000 0.750000 0.243458
O O3 0.650329 0.709006 0.101335
O O4 0.655598 0.665774 0.256089
O O5 0.852799 0.334208 0.445259
O O6 0.834505 0.416658 0.533519
O O7 0.677776 0.393599 0.391595
O O8 0.884673 0.416039 0.360670
O O9 0.500000 0.238692 0.472765
O O10 0.750000 0.250000 0.459470
O O11 0.732505 0.500000 0.109890
O O12 0.701676 0.574743 0.214573
O O13 0.875664 0.579364 0.093519
O O14 0.500000 0.093597 0.783924
O O15 0.000000 0.500000 0.073825
O O16 0.000000 0.545745 0.227848
O O17 0.000000 0.000000 0.881482
#
# Coordination Sequence:
#
# PCOD8186686 Si02
#       7
#    16  16  16  16  16   8   8
#     4   9  19  41  65  93 127 168 215 267 324 391
#     4  12  24  41  67  99 129 171 218 267 329 391
#     4  10  21  40  66  96 131 169 219 274 328 393
#     4  11  24  43  66  93 129 174 218 266 327 391
#     4  11  25  43  64  96 135 168 212 272 327 388
#     4   9  20  42  64  88 127 169 215 269 317 376
#     4  11  22  40  66  94 125 169 227 273 310 380
#
# _framework density 21.506506999999999
#
# number of rings (size 3 to 8) (size 9 to 14) (size 15 to 20)
#    0.000    1.500    4.167    0.500    2.333    2.333 
#    3.000    1.667    0.000    0.000    0.000    0.000 
#    0.000    0.000    0.000    0.000    0.000    0.000 
#
# Total GULP energy -297328.878347 kJ/mol
# GULP energy per Si atom -12388.703264 kJ/mol
# Density = 2.145756 g / cm^3
# Si number density = 21.506507 Si / 1000 Ang^3
#
#
#
# Elastic Constant Matrix: (Units=GPa)
#
#
# Indices 1 2 3 4 5 6 
#
# 1 126.9564 40.8340 9.1372 0.0000 0.0000 0.0000
# 2 40.8340 97.0958 21.3887 0.0000 0.0000 0.0000
# 3 9.1372 21.3887 60.0269 0.0000 0.0000 0.0000
# 4 0.0000 0.0000 0.0000 17.9202 0.0000 0.0000
# 5 0.0000 0.0000 0.0000 0.0000 -5.8488 0.0000
# 6 0.0000 0.0000 0.0000 0.0000 0.0000 27.4001
#
#
#
# Elastic Compliance Matrix: (Units=1/GPa)
#
#
# Indices 1 2 3 4 5 6 
#
# 1 0.009109 -0.003826 -0.000023 0.000000 0.000000 0.000000
# 2 -0.003826 0.012783 -0.003973 0.000000 0.000000 0.000000
# 3 -0.000023 -0.003973 0.018078 0.000000 0.000000 0.000000
# 4 0.000000 0.000000 0.000000 0.055803 0.000000 0.000000
# 5 0.000000 0.000000 0.000000 0.000000 -0.170976 0.000000
# 6 0.000000 0.000000 0.000000 0.000000 0.000000 0.036496
#
#
# Mechanical properties :
#
#
# Convention : Reuss Voigt Hill
#
# Bulk Modulus (GPa) = 41.10640 47.42211 44.26425
# Shear Modulus (GPa) = -334.35351 22.07559 -156.13896
#
# Velocity S-wave (km/s) = -12.48214 3.20732 -8.52985
# Velocity P-wave (km/s) = 13.73256 5.98447 8.73984
#
# Compressibility (1/GPa) = 0.02432711
#
# Stress axis : x y z
#
# Youngs Moduli (GPa) = 109.78322 78.22854 55.31510
#
# Poissons Ratio (x) = 0.29927 0.00129
# Poissons Ratio (y) = 0.41999 0.21974
# Poissons Ratio (z) = 0.00257 0.31076
#
# Static dielectric constant tensor:
#      x y z
#    x 4.367160 0.000000 0.000000 
#    y 0.000000 3.784860 0.000000 
#    z 0.000000 0.000000 3.689890 
# 
# 
# High freq. dielectric constant tensor:
#      x y z
#    x 1.860360 0.000000 0.000000 
#    y 0.000000 1.831040 0.000000 
#    z 0.000000 0.000000 1.842890 
# 
# From -- ./inp_files/13181.got.cif
#   From: 2010.03.12/outbox.cif.g09.slc.cpg/sg42_7_cif.got.tgz:13181.got - 2010.04.14 02:04:31.
