data_PCOD8186523
_publ_section_title
;
Structure prediction by ZEFSAII (Michael W. Deem and Ramdas Pophale) SiO2 
 PCOD8186523
Probable space group: F M M 2
;
_chemical_formula_sum "Si O2"
_cell_formula_units_Z 96
_cell_length_a 16.741620
_cell_length_b 26.066598
_cell_length_c 11.522078
_cell_angle_alpha 90.000000
_cell_angle_beta 90.000000
_cell_angle_gamma 90.000000
_cell_volume 5028.201176
_symmetry_space_group_name_H-M "F M M 2"
_symmetry_group_IT_number 42
_symmetry_cell_setting 'orthorhombic'
loop_
_space_group_symop_operation_xyz
x,y,z
-x,-y,z
-x,y,z
x,-y,z
x,1/2+y,1/2+z
-x,1/2-y,1/2+z
-x,1/2+y,1/2+z
x,1/2-y,1/2+z
1/2+x,y,1/2+z
1/2-x,-y,1/2+z
1/2-x,y,1/2+z
1/2+x,-y,1/2+z
1/2+x,1/2+y,z
1/2-x,1/2-y,z
1/2-x,1/2+y,z
1/2+x,1/2-y,z
loop_
_atom_site_type_symbol
_atom_site_label
_atom_site_fract_x
_atom_site_fract_y
_atom_site_fract_z
Si Si1 0.091744 0.705159 0.603060
Si Si2 0.674825 0.347535 0.901659
Si Si3 0.163732 0.380498 0.970704
Si Si4 0.407501 0.817196 0.172044
Si Si5 0.806409 0.558425 0.540010
Si Si6 0.091486 0.898349 0.234350
O O1 0.138916 0.696317 0.483805
O O2 0.120586 0.758506 0.658429
O O3 0.106990 0.660428 0.696260
O O4 0.000000 0.709453 0.566736
O O5 0.771142 0.343360 0.907957
O O6 0.646312 0.342258 0.770948
O O7 0.647468 0.404109 0.949068
O O8 0.108724 0.405118 0.870841
O O9 0.106770 0.348156 0.054034
O O10 0.212613 0.424340 0.042985
O O11 0.500000 0.820927 0.207026
O O12 0.813157 0.500000 0.498183
O O13 0.847860 0.564509 0.665634
O O14 0.000000 0.914535 0.209277
#
# Coordination Sequence:
#
# PCOD8186523 Si02
#       6
#    16  16  16  16  16  16
#     4   9  20  36  57  83 118 163 196 233 282 344
#     4   9  21  38  58  87 118 151 200 238 284 345
#     4  10  22  38  55  92 113 154 185 246 294 341
#     4  11  22  38  59  84 122 162 191 231 297 348
#     4   9  21  41  64  84 112 153 196 243 300 347
#     4  10  20  39  60  86 119 149 199 242 281 350
#
# _framework density 19.092313999999998
#
# number of rings (size 3 to 8) (size 9 to 14) (size 15 to 20)
#    1.000    1.333    0.000    2.000    2.333    2.333 
#    0.000    0.000    0.000    2.500    0.000    0.000 
#    0.000    0.000    0.000    0.000    0.000    0.000 
#
# Total GULP energy -297510.864513 kJ/mol
# GULP energy per Si atom -12396.286021 kJ/mol
# Density = 1.904886 g / cm^3
# Si number density = 19.092314 Si / 1000 Ang^3
#
#
#
# Elastic Constant Matrix: (Units=GPa)
#
#
# Indices 1 2 3 4 5 6 
#
# 1 52.6329 18.3389 23.8764 0.0000 0.0000 0.0000
# 2 18.3389 96.7456 20.4143 0.0000 0.0000 0.0000
# 3 23.8764 20.4143 76.6101 0.0000 0.0000 0.0000
# 4 0.0000 0.0000 0.0000 17.4488 0.0000 0.0000
# 5 0.0000 0.0000 0.0000 0.0000 38.8677 0.0000
# 6 0.0000 0.0000 0.0000 0.0000 0.0000 15.6939
#
#
#
# Elastic Compliance Matrix: (Units=1/GPa)
#
#
# Indices 1 2 3 4 5 6 
#
# 1 0.022925 -0.003007 -0.006344 0.000000 0.000000 0.000000
# 2 -0.003007 0.011347 -0.002086 0.000000 0.000000 0.000000
# 3 -0.006344 -0.002086 0.015586 0.000000 0.000000 0.000000
# 4 0.000000 0.000000 0.000000 0.057310 0.000000 0.000000
# 5 0.000000 0.000000 0.000000 0.000000 0.025728 0.000000
# 6 0.000000 0.000000 0.000000 0.000000 0.000000 0.063719
#
#
# Mechanical properties :
#
#
# Convention : Reuss Voigt Hill
#
# Bulk Modulus (GPa) = 37.05925 39.02752 38.04338
# Shear Modulus (GPa) = 21.88337 25.29268 23.58803
#
# Velocity S-wave (km/s) = 3.38921 3.64367 3.51874
# Velocity P-wave (km/s) = 5.89647 6.17961 6.03970
#
# Compressibility (1/GPa) = 0.02698382
#
# Stress axis : x y z
#
# Youngs Moduli (GPa) = 43.62058 88.13181 64.15979
#
# Poissons Ratio (x) = 0.26502 0.40700
# Poissons Ratio (y) = 0.13117 0.13386
# Poissons Ratio (z) = 0.27671 0.18387
#
# Static dielectric constant tensor:
#      x y z
#    x 3.419650 0.000000 0.000000 
#    y 0.000000 3.280970 0.000000 
#    z 0.000000 0.000000 3.282380 
# 
# 
# High freq. dielectric constant tensor:
#      x y z
#    x 1.740540 0.000000 0.000000 
#    y 0.000000 1.720500 0.000000 
#    z 0.000000 0.000000 1.736840 
# 
# From -- ./inp_files/8821.got.cif
#   From: 2010.03.12/outbox.cif.g09.slc.cpg/sg42_5_cif.got.tgz:8821.got - 2010.04.14 02:04:31.
