data_PCOD8186903
_publ_section_title
;
Structure prediction by ZEFSAII (Michael W. Deem and Ramdas Pophale) SiO2 
 PCOD8186903
Probable space group: F D D 2
;
_chemical_formula_sum "Si O2"
_cell_formula_units_Z 120
_cell_length_a 10.389568
_cell_length_b 30.997351
_cell_length_c 21.675162
_cell_angle_alpha 90.000000
_cell_angle_beta 90.000000
_cell_angle_gamma 90.000000
_cell_volume 6980.466112
_symmetry_space_group_name_H-M "F D D 2"
_symmetry_group_IT_number 43
_symmetry_cell_setting 'orthorhombic'
loop_
_space_group_symop_operation_xyz
x,y,z
-x,-y,z
1/4-x,1/4+y,1/4+z
1/4+x,1/4-y,1/4+z
x,1/2+y,1/2+z
-x,1/2-y,1/2+z
1/4-x,3/4+y,3/4+z
1/4+x,3/4-y,3/4+z
1/2+x,y,1/2+z
1/2-x,-y,1/2+z
3/4-x,1/4+y,3/4+z
3/4+x,1/4-y,3/4+z
1/2+x,1/2+y,z
1/2-x,1/2-y,z
3/4-x,3/4+y,1/4+z
3/4+x,3/4-y,1/4+z
loop_
_atom_site_type_symbol
_atom_site_label
_atom_site_fract_x
_atom_site_fract_y
_atom_site_fract_z
Si Si1 0.060694 0.591936 0.726490
Si Si2 0.147826 0.782218 0.194554
Si Si3 0.854210 0.063637 0.997020
Si Si4 0.500000 0.000000 0.409526
Si Si5 0.653487 0.504079 0.222762
Si Si6 0.086550 0.180675 0.384703
Si Si7 0.252541 0.527871 0.350096
Si Si8 0.547222 0.904021 0.862240
O O1 0.125726 0.638365 0.721084
O O2 0.170933 0.555633 0.712462
O O3 0.944536 0.590402 0.677857
O O4 0.009263 0.584503 0.795541
O O5 0.250000 0.750000 0.227685
O O6 0.082945 0.756236 0.139097
O O7 0.215970 0.823689 0.166016
O O8 0.045114 0.798761 0.244372
O O9 0.898809 0.060116 0.067804
O O10 0.939782 0.035010 0.953676
O O11 0.397380 0.974979 0.367145
O O12 0.500000 0.500000 0.233545
O O13 0.704197 0.476725 0.163859
O O14 0.734225 0.485603 0.279320
O O15 0.965203 0.147480 0.376107
O O16 0.306967 0.576624 0.362596
#
# Coordination Sequence:
#
# PCOD8186903 Si02
#       8
#    16  16  16   8  16  16  16  16
#     4  10  18  31  55  82 106 133 182 237 275 314
#     4   9  16  29  51  74  96 133 180 224 267 312
#     4  10  21  34  49  79 114 142 180 220 280 343
#     4  10  24  34  52  78 114 154 172 216 282 342
#     4  10  17  31  57  87 100 135 183 240 275 305
#     4  10  20  29  55  83 112 132 174 231 283 317
#     4  10  17  33  55  73 107 132 190 218 263 322
#     4  10  16  30  54  82 100 132 176 239 269 308
#
# _framework density 17.190829999999998
#
# number of rings (size 3 to 8) (size 9 to 14) (size 15 to 20)
#    0.000    2.133    5.333    0.400    2.800    0.000 
#    0.000    0.000    7.333    1.600    0.000    0.000 
#    0.000    0.000    0.000    0.000    0.000    0.000 
#
# Total GULP energy -371761.359463 kJ/mol
# GULP energy per Si atom -12392.045315 kJ/mol
# Density = 1.715170 g / cm^3
# Si number density = 17.190830 Si / 1000 Ang^3
#
#
#
# Elastic Constant Matrix: (Units=GPa)
#
#
# Indices 1 2 3 4 5 6 
#
# 1 77.7502 48.5003 27.9152 0.0000 0.0000 0.0000
# 2 48.5003 136.8813 54.2369 0.0000 0.0000 0.0000
# 3 27.9152 54.2369 80.3627 0.0000 0.0000 0.0000
# 4 0.0000 0.0000 0.0000 30.2382 0.0000 0.0000
# 5 0.0000 0.0000 0.0000 0.0000 13.7681 0.0000
# 6 0.0000 0.0000 0.0000 0.0000 0.0000 17.7902
#
#
#
# Elastic Compliance Matrix: (Units=1/GPa)
#
#
# Indices 1 2 3 4 5 6 
#
# 1 0.016869 -0.004990 -0.002492 0.000000 0.000000 0.000000
# 2 -0.004990 0.011448 -0.005993 0.000000 0.000000 0.000000
# 3 -0.002492 -0.005993 0.017354 0.000000 0.000000 0.000000
# 4 0.000000 0.000000 0.000000 0.033071 0.000000 0.000000
# 5 0.000000 0.000000 0.000000 0.000000 0.072632 0.000000
# 6 0.000000 0.000000 0.000000 0.000000 0.000000 0.056211
#
#
# Mechanical properties :
#
#
# Convention : Reuss Voigt Hill
#
# Bulk Modulus (GPa) = 53.41510 61.81100 57.61305
# Shear Modulus (GPa) = 20.76626 23.31542 22.04084
#
# Velocity S-wave (km/s) = 3.47938 3.68675 3.58457
# Velocity P-wave (km/s) = 6.87610 7.35912 7.12171
#
# Compressibility (1/GPa) = 0.01872130
#
# Stress axis : x y z
#
# Youngs Moduli (GPa) = 59.28044 87.34969 57.62311
#
# Poissons Ratio (x) = 0.43584 0.14361
# Poissons Ratio (y) = 0.29578 0.34535
# Poissons Ratio (z) = 0.14774 0.52351
#
# Static dielectric constant tensor:
#      x y z
#    x 3.022480 0.000000 0.000000 
#    y 0.000000 3.038670 0.000000 
#    z 0.000000 0.000000 3.174120 
# 
# 
# High freq. dielectric constant tensor:
#      x y z
#    x 1.617550 0.000000 0.000000 
#    y 0.000000 1.678700 0.000000 
#    z 0.000000 0.000000 1.660610 
# 
# From -- ./inp_files/17385.got.cif
#   From: 2010.06.25/outbox.cif.g09.slc.cpg/sg43_9_cif.got.tgz:17385.got - 2010.06.26 16:48:59.
