data_PCOD8186649
_publ_section_title
;
Structure prediction by ZEFSAII (Michael W. Deem and Ramdas Pophale) SiO2 
 PCOD8186649
Probable space group: F M M 2
;
_chemical_formula_sum "Si O2"
_cell_formula_units_Z 84
_cell_length_a 8.002517
_cell_length_b 26.932383
_cell_length_c 19.466751
_cell_angle_alpha 90.000000
_cell_angle_beta 90.000000
_cell_angle_gamma 90.000000
_cell_volume 4195.607577
_symmetry_space_group_name_H-M "F M M 2"
_symmetry_group_IT_number 42
_symmetry_cell_setting 'orthorhombic'
loop_
_space_group_symop_operation_xyz
x,y,z
-x,-y,z
-x,y,z
x,-y,z
x,1/2+y,1/2+z
-x,1/2-y,1/2+z
-x,1/2+y,1/2+z
x,1/2-y,1/2+z
1/2+x,y,1/2+z
1/2-x,-y,1/2+z
1/2-x,y,1/2+z
1/2+x,-y,1/2+z
1/2+x,1/2+y,z
1/2-x,1/2-y,z
1/2-x,1/2+y,z
1/2+x,1/2-y,z
loop_
_atom_site_type_symbol
_atom_site_label
_atom_site_fract_x
_atom_site_fract_y
_atom_site_fract_z
Si Si1 0.811353 0.500000 0.045681
Si Si2 0.693073 0.388180 0.260615
Si Si3 0.000000 0.552912 0.313039
Si Si4 0.302746 0.695122 0.513397
Si Si5 0.500000 0.000000 0.445210
Si Si6 0.193961 0.197708 0.360593
Si Si7 0.190405 0.601729 0.602743
O O1 0.794490 0.551169 0.089244
O O2 0.000000 0.500000 0.014701
O O3 0.671567 0.500000 0.987176
O O4 0.500000 0.403673 0.276487
O O5 0.823888 0.427041 0.288159
O O6 0.749436 0.339492 0.301557
O O7 0.720287 0.379979 0.180145
O O8 0.000000 0.549132 0.396610
O O9 0.000000 0.500000 0.277037
O O10 0.500000 0.691517 0.515674
O O11 0.250000 0.750000 0.541423
O O12 0.226939 0.687968 0.436227
O O13 0.233464 0.649344 0.557055
O O14 0.250000 0.250000 0.330732
O O15 0.000000 0.195905 0.372685
O O16 0.000000 0.586428 0.589191
#
# Coordination Sequence:
#
# PCOD8186649 Si02
#       7
#     8  16   8  16   4  16  16
#     4  12  26  43  67  95 133 171 213 268 327 383
#     4  10  24  42  63  96 129 169 210 263 323 379
#     4  10  26  42  68  92 127 163 215 263 315 389
#     4  10  21  38  62  93 125 169 214 268 328 383
#     4  10  26  48  60 108 118 162 228 260 328 380
#     4   9  20  38  60  90 123 162 211 261 323 378
#     4  11  24  42  65  93 133 170 216 271 319 388
#
# _framework density 20.020938999999998
#
# number of rings (size 3 to 8) (size 9 to 14) (size 15 to 20)
#    0.286    1.524    0.952    1.143    8.000    2.667 
#    0.000    1.905    0.000    0.000    0.000    0.000 
#    0.000    0.000    0.000    0.000    0.000    0.000 
#
# Total GULP energy -260181.919691 kJ/mol
# GULP energy per Si atom -12389.615223 kJ/mol
# Density = 1.997537 g / cm^3
# Si number density = 20.020939 Si / 1000 Ang^3
#
#
#
# Elastic Constant Matrix: (Units=GPa)
#
#
# Indices 1 2 3 4 5 6 
#
# 1 96.5163 50.4250 51.6142 0.0000 0.0000 0.0000
# 2 50.4250 170.3986 79.1315 0.0000 0.0000 0.0000
# 3 51.6142 79.1315 118.6170 0.0000 0.0000 0.0000
# 4 0.0000 0.0000 0.0000 50.8781 0.0000 0.0000
# 5 0.0000 0.0000 0.0000 0.0000 18.4330 0.0000
# 6 0.0000 0.0000 0.0000 0.0000 0.0000 35.7334
#
#
#
# Elastic Compliance Matrix: (Units=1/GPa)
#
#
# Indices 1 2 3 4 5 6 
#
# 1 0.013912 -0.001892 -0.004791 0.000000 0.000000 0.000000
# 2 -0.001892 0.008760 -0.005021 0.000000 0.000000 0.000000
# 3 -0.004791 -0.005021 0.013865 0.000000 0.000000 0.000000
# 4 0.000000 0.000000 0.000000 0.019655 0.000000 0.000000
# 5 0.000000 0.000000 0.000000 0.000000 0.054250 0.000000
# 6 0.000000 0.000000 0.000000 0.000000 0.000000 0.027985
#
#
# Mechanical properties :
#
#
# Convention : Reuss Voigt Hill
#
# Bulk Modulus (GPa) = 76.16943 83.09702 79.63322
# Shear Modulus (GPa) = 30.08228 34.63298 32.35763
#
# Velocity S-wave (km/s) = 3.88047 4.16364 4.02455
# Velocity P-wave (km/s) = 7.62921 8.04424 7.83947
#
# Compressibility (1/GPa) = 0.01312863
#
# Stress axis : x y z
#
# Youngs Moduli (GPa) = 71.88262 114.15506 72.12463
#
# Poissons Ratio (x) = 0.21594 0.34558
# Poissons Ratio (y) = 0.13598 0.36213
# Poissons Ratio (z) = 0.34442 0.57315
#
# Static dielectric constant tensor:
#      x y z
#    x 3.683900 0.000000 0.000000 
#    y 0.000000 3.794100 0.000000 
#    z 0.000000 0.000000 3.884250 
# 
# 
# High freq. dielectric constant tensor:
#      x y z
#    x 1.792830 0.000000 0.000000 
#    y 0.000000 1.786660 0.000000 
#    z 0.000000 0.000000 1.779840 
# 
# From -- ./inp_files/23491.got.cif
#   From: 2010.03.12/outbox.cif.g09.slc.cpg/sg42_12_cif.got.tgz:23491.got - 2010.04.14 02:04:31.
