data_PCOD8186895
_publ_section_title
;
Structure prediction by ZEFSAII (Michael W. Deem and Ramdas Pophale) SiO2 
 PCOD8186895
Probable space group: F M M 2
;
_chemical_formula_sum "Si O2"
_cell_formula_units_Z 24
_cell_length_a 24.000000
_cell_length_b 24.000000
_cell_length_c 9.000000
_cell_angle_alpha 90.000000
_cell_angle_beta 90.000000
_cell_angle_gamma 90.000000
_cell_volume 5184.000000
_symmetry_space_group_name_H-M "F M M 2"
_symmetry_group_IT_number 42
_symmetry_cell_setting 'orthorhombic'
loop_
_space_group_symop_operation_xyz
x,y,z
-x,-y,z
-x,y,z
x,-y,z
x,1/2+y,1/2+z
-x,1/2-y,1/2+z
-x,1/2+y,1/2+z
x,1/2-y,1/2+z
1/2+x,y,1/2+z
1/2-x,-y,1/2+z
1/2-x,y,1/2+z
1/2+x,-y,1/2+z
1/2+x,1/2+y,z
1/2-x,1/2-y,z
1/2-x,1/2+y,z
1/2+x,1/2-y,z
loop_
_atom_site_type_symbol
_atom_site_label
_atom_site_fract_x
_atom_site_fract_y
_atom_site_fract_z
Si Si1 0.500000 0.209768 0.226660
Si Si2 0.203321 0.371790 0.489414
Si Si3 0.307105 0.278186 0.230294
Si Si4 0.878894 0.136085 0.421050
Si Si5 0.500000 0.178254 0.889793
Si Si6 0.120631 0.829543 0.748006
Si Si7 0.705603 0.565396 0.289959
O O1 0.500000 0.274715 0.264832
O O2 0.444261 0.180347 0.291198
O O3 0.500000 0.207938 0.048955
O O4 0.209790 0.313009 0.580175
O O5 0.148645 0.362658 0.385947
O O6 0.251725 0.391617 0.374568
O O7 0.200346 0.420191 0.614238
O O8 0.250000 0.250000 0.293604
O O9 0.337715 0.316991 0.351501
O O10 0.350627 0.228620 0.201282
O O11 0.875029 0.133624 0.599278
O O12 0.855246 0.076740 0.362279
O O13 0.943389 0.142233 0.370004
O O14 0.722007 0.500000 0.307707
#
# Coordination Sequence:
#
# PCOD8186895 Si02
#       7
#     8  16  16  16   8  16  16
#     4  10  22  34  58  83 122 166 196 221 290 341
#     4  11  24  37  58  87 118 154 194 243 302 352
#     4  11  21  33  53  84 121 157 188 228 280 359
#     4  10  21  36  57  83 114 152 195 237 291 345
#     4  10  20  36  55  85 118 158 195 237 278 353
#     4  11  21  36  55  87 122 157 193 231 284 361
#     4  11  23  42  62  85 112 151 203 259 307 350
#
# _framework density 4.6296299999999997
#
# number of rings (size 3 to 8) (size 9 to 14) (size 15 to 20)
#    0.000    1.333    1.667    5.500    2.333    2.667 
#    0.000    1.250    0.000    0.000    0.000    4.083 
#    0.000    0.000    0.000    0.000    0.000    0.000 
#
# Total GULP energy -297375.715307 kJ/mol
# GULP energy per Si atom -12390.654804 kJ/mol
# Density = 0.461909 g / cm^3
# Si number density = 4.629630 Si / 1000 Ang^3
#
#
#
# Elastic Constant Matrix: (Units=GPa)
#
#
# Indices 1 2 3 4 5 6 
#
# 1 163.3244 44.2771 50.3798 0.0022 -0.0014 -0.0015
# 2 44.2771 84.4870 29.1585 0.0064 -0.0031 -0.0032
# 3 50.3798 29.1585 105.8404 0.0132 -0.0172 -0.0062
# 4 0.0022 0.0064 0.0132 29.2437 -0.0054 -0.0037
# 5 -0.0014 -0.0031 -0.0172 -0.0054 35.6727 0.0026
# 6 -0.0015 -0.0032 -0.0062 -0.0037 0.0026 26.1244
#
#
#
# Elastic Compliance Matrix: (Units=1/GPa)
#
#
# Indices 1 2 3 4 5 6 
#
# 1 0.007858 -0.003124 -0.002880 0.000001 -0.000001 -0.000001
# 2 -0.003124 0.014322 -0.002458 -0.000002 0.000000 0.000001
# 3 -0.002880 -0.002458 0.011496 -0.000004 0.000005 0.000002
# 4 0.000001 -0.000002 -0.000004 0.034195 0.000005 0.000005
# 5 -0.000001 0.000000 0.000005 0.000005 0.028033 -0.000003
# 6 -0.000001 0.000001 0.000002 0.000005 -0.000003 0.038278
#
#
# Mechanical properties :
#
#
# Convention : Reuss Voigt Hill
#
# Bulk Modulus (GPa) = 59.69687 66.80919 63.25303
# Shear Modulus (GPa) = 31.90986 33.53059 32.72022
#
# Velocity S-wave (km/s) = 4.15557 4.25979 4.20800
# Velocity P-wave (km/s) = 7.43850 7.76851 7.60529
#
# Compressibility (1/GPa) = 0.01675130
#
# Stress axis : x y z
#
# Youngs Moduli (GPa) = 127.25774 69.82276 86.98523
#
# Poissons Ratio (x) = 0.21815 0.25049
# Poissons Ratio (y) = 0.39759 0.21385
# Poissons Ratio (z) = 0.36646 0.17166
#
# Static dielectric constant tensor:
#      x y z
#    x 3.826740 0.000000 0.000000 
#    y 0.000000 3.343950 0.000000 
#    z 0.000000 0.000000 3.652990 
# 
# 
# High freq. dielectric constant tensor:
#      x y z
#    x 1.738100 0.000000 0.000000 
#    y 0.000000 1.695680 0.000000 
#    z 0.000000 0.000000 1.744550 
# 
# From -- ./inp_files/4743.got.cif
#   From: 2010.03.12/outbox.ucp.g09.slc.cvg/sg42_3_cif.got.tgz:4743.got - 2010.05.04 21:18:47.
