data_PCOD8186680
_publ_section_title
;
Structure prediction by ZEFSAII (Michael W. Deem and Ramdas Pophale) SiO2 
 PCOD8186680
Probable space group: F M M 2
;
_chemical_formula_sum "Si O2"
_cell_formula_units_Z 96
_cell_length_a 20.674839
_cell_length_b 16.366012
_cell_length_c 14.108601
_cell_angle_alpha 90.000000
_cell_angle_beta 90.000000
_cell_angle_gamma 90.000000
_cell_volume 4773.852025
_symmetry_space_group_name_H-M "F M M 2"
_symmetry_group_IT_number 42
_symmetry_cell_setting 'orthorhombic'
loop_
_space_group_symop_operation_xyz
x,y,z
-x,-y,z
-x,y,z
x,-y,z
x,1/2+y,1/2+z
-x,1/2-y,1/2+z
-x,1/2+y,1/2+z
x,1/2-y,1/2+z
1/2+x,y,1/2+z
1/2-x,-y,1/2+z
1/2-x,y,1/2+z
1/2+x,-y,1/2+z
1/2+x,1/2+y,z
1/2-x,1/2-y,z
1/2-x,1/2+y,z
1/2+x,1/2-y,z
loop_
_atom_site_type_symbol
_atom_site_label
_atom_site_fract_x
_atom_site_fract_y
_atom_site_fract_z
Si Si1 0.620701 0.589973 0.860850
Si Si2 0.750000 0.750000 0.604004
Si Si3 0.619363 0.813811 0.546469
Si Si4 0.741929 0.594051 0.736272
Si Si5 0.500000 0.298597 0.552840
Si Si6 0.114259 0.908387 0.235276
Si Si7 0.500000 0.635279 0.749407
Si Si8 0.000000 0.815034 0.333078
O O1 0.625288 0.500000 0.905451
O O2 0.689913 0.613316 0.817183
O O3 0.564907 0.589610 0.781697
O O4 0.602239 0.651599 0.943869
O O5 0.687591 0.766934 0.539573
O O6 0.733519 0.667208 0.661408
O O7 0.563425 0.752758 0.575845
O O8 0.620801 0.884345 0.625162
O O9 0.731694 0.500000 0.695759
O O10 0.814079 0.599488 0.780873
O O11 0.500000 0.367462 0.634641
O O12 0.500000 0.331536 0.445856
O O13 0.065473 0.852891 0.293004
O O14 0.087589 0.000000 0.240154
O O15 0.500000 0.722474 0.800759
#
# Coordination Sequence:
#
# PCOD8186680 Si02
#       8
#    16   8  16  16   8  16   8   8
#     4  11  23  40  62  89 124 168 210 259 316 375
#     4  10  22  36  64  92 124 170 206 260 334 372
#     4  11  21  37  61  94 121 159 212 259 308 381
#     4   9  21  39  61  90 126 167 213 258 312 384
#     4  12  24  38  58  92 122 152 208 254 304 372
#     4  10  21  40  63  89 123 161 204 263 317 364
#     4  12  23  42  61  88 125 161 203 261 308 380
#     4  12  23  38  63  90 121 159 203 255 314 384
#
# _framework density 20.109548
#
# number of rings (size 3 to 8) (size 9 to 14) (size 15 to 20)
#    0.000    1.333    3.333    2.000    2.333    2.667 
#    0.000    4.167    0.000   10.000    0.000    0.000 
#    0.000    0.000    0.000    0.000    0.000    0.000 
#
# Total GULP energy -297522.709774 kJ/mol
# GULP energy per Si atom -12396.779574 kJ/mol
# Density = 2.006378 g / cm^3
# Si number density = 20.109548 Si / 1000 Ang^3
#
#
#
# Elastic Constant Matrix: (Units=GPa)
#
#
# Indices 1 2 3 4 5 6 
#
# 1 133.1491 19.8739 31.7149 0.0000 0.0000 0.0000
# 2 19.8739 74.0070 18.8105 0.0000 0.0000 0.0000
# 3 31.7149 18.8105 97.0689 0.0000 0.0000 0.0000
# 4 0.0000 0.0000 0.0000 22.0489 0.0000 0.0000
# 5 0.0000 0.0000 0.0000 0.0000 33.9097 0.0000
# 6 0.0000 0.0000 0.0000 0.0000 0.0000 25.5230
#
#
#
# Elastic Compliance Matrix: (Units=1/GPa)
#
#
# Indices 1 2 3 4 5 6 
#
# 1 0.008326 -0.001624 -0.002405 0.000000 0.000000 0.000000
# 2 -0.001624 0.014529 -0.002285 0.000000 0.000000 0.000000
# 3 -0.002405 -0.002285 0.011531 0.000000 0.000000 0.000000
# 4 0.000000 0.000000 0.000000 0.045354 0.000000 0.000000
# 5 0.000000 0.000000 0.000000 0.000000 0.029490 0.000000
# 6 0.000000 0.000000 0.000000 0.000000 0.000000 0.039180
#
#
# Mechanical properties :
#
#
# Convention : Reuss Voigt Hill
#
# Bulk Modulus (GPa) = 45.96374 49.44705 47.70539
# Shear Modulus (GPa) = 29.71040 31.88471 30.79755
#
# Velocity S-wave (km/s) = 3.84790 3.98622 3.91767
# Velocity P-wave (km/s) = 6.53055 6.76970 6.65120
#
# Compressibility (1/GPa) = 0.02175628
#
# Stress axis : x y z
#
# Youngs Moduli (GPa) = 120.10866 68.82692 86.72537
#
# Poissons Ratio (x) = 0.11180 0.20861
# Poissons Ratio (y) = 0.19511 0.19815
# Poissons Ratio (z) = 0.28892 0.15726
#
# Static dielectric constant tensor:
#      x y z
#    x 3.913190 0.000000 0.000000 
#    y 0.000000 3.767560 0.000000 
#    z 0.000000 0.000000 3.404910 
# 
# 
# High freq. dielectric constant tensor:
#      x y z
#    x 1.810930 0.000000 0.000000 
#    y 0.000000 1.789750 0.000000 
#    z 0.000000 0.000000 1.761520 
# 
# From -- ./inp_files/15874.got.cif
#   From: 2010.03.12/outbox.cif.g09.slc.cpg/sg42_8_cif.got.tgz:15874.got - 2010.04.14 02:04:31.
