data_PCOD8186212
_publ_section_title
;
Structure prediction by ZEFSAII (Michael W. Deem and Ramdas Pophale) SiO2 
 PCOD8186212
Probable space group: F M M 2
;
_chemical_formula_sum "Si O2"
_cell_formula_units_Z 96
_cell_length_a 19.481202
_cell_length_b 9.242330
_cell_length_c 30.521082
_cell_angle_alpha 90.000000
_cell_angle_beta 90.000000
_cell_angle_gamma 90.000000
_cell_volume 5495.372629
_symmetry_space_group_name_H-M "F M M 2"
_symmetry_group_IT_number 42
_symmetry_cell_setting 'orthorhombic'
loop_
_space_group_symop_operation_xyz
x,y,z
-x,-y,z
-x,y,z
x,-y,z
x,1/2+y,1/2+z
-x,1/2-y,1/2+z
-x,1/2+y,1/2+z
x,1/2-y,1/2+z
1/2+x,y,1/2+z
1/2-x,-y,1/2+z
1/2-x,y,1/2+z
1/2+x,-y,1/2+z
1/2+x,1/2+y,z
1/2-x,1/2-y,z
1/2-x,1/2+y,z
1/2+x,1/2-y,z
loop_
_atom_site_type_symbol
_atom_site_label
_atom_site_fract_x
_atom_site_fract_y
_atom_site_fract_z
Si Si1 0.418678 0.336410 0.363130
Si Si2 0.682439 0.832189 0.518947
Si Si3 0.581554 0.162389 0.766908
Si Si4 0.422217 0.829989 0.446150
Si Si5 0.319935 0.829301 0.619761
Si Si6 0.581250 0.832833 0.183071
O O1 0.500000 0.321956 0.363052
O O2 0.395542 0.500000 0.372303
O O3 0.391165 0.287628 0.314990
O O4 0.388775 0.237842 0.402141
O O5 0.750000 0.750000 0.503435
O O6 0.619812 0.779198 0.488708
O O7 0.663934 0.796993 0.569050
O O8 0.697412 0.000000 0.512337
O O9 0.500000 0.160105 0.767828
O O10 0.607573 0.274118 0.730148
O O11 0.608289 0.000000 0.756185
O O12 0.500000 0.775572 0.453412
O O13 0.419398 0.000000 0.439859
O O14 0.250000 0.750000 0.634360
O O15 0.383431 0.761807 0.645653
O O16 0.313479 0.000000 0.629334
O O17 0.500000 0.812363 0.177813
O O18 0.602756 0.000000 0.178990
#
# Coordination Sequence:
#
# PCOD8186212 Si02
#       6
#    16  16  16  16  16  16
#     4   8  14  25  42  66  95 125 157 192 231 277
#     4   9  19  34  51  70  92 123 160 195 233 282
#     4   8  14  26  44  66  94 127 160 193 233 283
#     4   9  17  29  46  70  98 124 153 192 236 279
#     4  10  20  35  54  72  94 127 165 202 243 293
#     4  10  20  32  48  74 104 129 159 201 244 286
#
# _framework density 17.469242000000001
#
# number of rings (size 3 to 8) (size 9 to 14) (size 15 to 20)
#    0.000    3.000    0.000    2.000    0.000    3.667 
#    0.000    5.000    0.000    3.000    0.000    2.333 
#    0.000    0.000    0.000    0.000    0.000    0.000 
#
# Total GULP energy -297498.966737 kJ/mol
# GULP energy per Si atom -12395.790281 kJ/mol
# Density = 1.742948 g / cm^3
# Si number density = 17.469242 Si / 1000 Ang^3
#
#
#
# Elastic Constant Matrix: (Units=GPa)
#
#
# Indices 1 2 3 4 5 6 
#
# 1 54.1618 39.1053 54.1555 0.0000 0.0000 0.0000
# 2 39.1053 81.6375 61.1437 0.0000 0.0000 0.0000
# 3 54.1555 61.1437 127.0740 0.0000 0.0000 0.0000
# 4 0.0000 0.0000 0.0000 34.0690 0.0000 0.0000
# 5 0.0000 0.0000 0.0000 0.0000 5.2896 0.0000
# 6 0.0000 0.0000 0.0000 0.0000 0.0000 23.9567
#
#
#
# Elastic Compliance Matrix: (Units=1/GPa)
#
#
# Indices 1 2 3 4 5 6 
#
# 1 0.035943 -0.008981 -0.010996 0.000000 0.000000 0.000000
# 2 -0.008981 0.021395 -0.006467 0.000000 0.000000 0.000000
# 3 -0.010996 -0.006467 0.015668 0.000000 0.000000 0.000000
# 4 0.000000 0.000000 0.000000 0.029352 0.000000 0.000000
# 5 0.000000 0.000000 0.000000 0.000000 0.189049 0.000000
# 6 0.000000 0.000000 0.000000 0.000000 0.000000 0.041742
#
#
# Mechanical properties :
#
#
# Convention : Reuss Voigt Hill
#
# Bulk Modulus (GPa) = 49.71130 63.52026 56.61578
# Shear Modulus (GPa) = 12.73098 19.89434 16.31266
#
# Velocity S-wave (km/s) = 2.70249 3.37830 3.05912
# Velocity P-wave (km/s) = 6.18516 7.18731 6.70498
#
# Compressibility (1/GPa) = 0.02011615
#
# Stress axis : x y z
#
# Youngs Moduli (GPa) = 27.82196 46.74023 63.82632
#
# Poissons Ratio (x) = 0.41978 0.70186
# Poissons Ratio (y) = 0.24987 0.41276
# Poissons Ratio (z) = 0.30594 0.30227
#
# Static dielectric constant tensor:
#      x y z
#    x 2.946360 0.000000 0.000000 
#    y 0.000000 3.308520 0.000000 
#    z 0.000000 0.000000 3.696870 
# 
# 
# High freq. dielectric constant tensor:
#      x y z
#    x 1.631640 0.000000 0.000000 
#    y 0.000000 1.676660 0.000000 
#    z 0.000000 0.000000 1.687730 
# 
# From -- ./inp_files/28036.got.cif
#   From: 2010.03.12/outbox.cif.g09.slc.cpg/sg42_15_cif.got.tgz:28036.got - 2010.04.14 02:04:31.
