data_PCOD8186247
_publ_section_title
;
Structure prediction by ZEFSAII (Michael W. Deem and Ramdas Pophale) SiO2 
 PCOD8186247
Probable space group: F M M 2
;
_chemical_formula_sum "Si O2"
_cell_formula_units_Z 104
_cell_length_a 13.544551
_cell_length_b 23.952032
_cell_length_c 16.847709
_cell_angle_alpha 90.000000
_cell_angle_beta 90.000000
_cell_angle_gamma 90.000000
_cell_volume 5465.725650
_symmetry_space_group_name_H-M "F M M 2"
_symmetry_group_IT_number 42
_symmetry_cell_setting 'orthorhombic'
loop_
_space_group_symop_operation_xyz
x,y,z
-x,-y,z
-x,y,z
x,-y,z
x,1/2+y,1/2+z
-x,1/2-y,1/2+z
-x,1/2+y,1/2+z
x,1/2-y,1/2+z
1/2+x,y,1/2+z
1/2-x,-y,1/2+z
1/2-x,y,1/2+z
1/2+x,-y,1/2+z
1/2+x,1/2+y,z
1/2-x,1/2-y,z
1/2-x,1/2+y,z
1/2+x,1/2-y,z
loop_
_atom_site_type_symbol
_atom_site_label
_atom_site_fract_x
_atom_site_fract_y
_atom_site_fract_z
Si Si1 0.221494 0.562136 0.260330
Si Si2 0.887842 0.062910 0.922235
Si Si3 0.793858 0.668961 0.815582
Si Si4 0.885334 0.063715 0.596636
Si Si5 0.113754 0.769300 0.740591
Si Si6 0.264306 0.355587 0.492070
Si Si7 0.250000 0.250000 0.597977
O O1 0.267957 0.500000 0.257594
O O2 0.141877 0.567153 0.330376
O O3 0.308009 0.606898 0.278549
O O4 0.169596 0.577480 0.178288
O O5 0.828427 0.104329 0.978661
O O6 0.000000 0.081523 0.929239
O O7 0.871239 0.000000 0.953551
O O8 0.878648 0.708238 0.780594
O O9 0.682896 0.689032 0.791208
O O10 0.806000 0.668755 0.909961
O O11 0.850378 0.107456 0.530866
O O12 0.000000 0.073347 0.611868
O O13 0.864482 0.000000 0.568956
O O14 0.153929 0.764111 0.650927
O O15 0.000000 0.789431 0.740634
O O16 0.227900 0.304175 0.545252
#
# Coordination Sequence:
#
# PCOD8186247 Si02
#       7
#    16  16  16  16  16  16   8
#     4   9  17  32  55  79 106 138 173 215 253 292
#     4   9  18  33  54  79 105 138 178 214 251 297
#     4   9  20  36  55  79 102 134 177 213 253 309
#     4  10  20  33  52  79 108 139 173 210 257 307
#     4  10  21  39  59  75  98 133 175 221 258 299
#     4  11  21  35  52  76 111 139 166 212 262 309
#     4  10  22  36  52  80 106 134 174 208 258 320
#
# _framework density 19.027664999999999
#
# number of rings (size 3 to 8) (size 9 to 14) (size 15 to 20)
#    0.000    2.462    0.000    3.692    0.000    8.615 
#    0.000    1.538    0.000    0.462    0.000    0.000 
#    0.000    0.000    0.000    0.000    0.000    0.000 
#
# Total GULP energy -322347.849401 kJ/mol
# GULP energy per Si atom -12397.994208 kJ/mol
# Density = 1.898436 g / cm^3
# Si number density = 19.027665 Si / 1000 Ang^3
#
#
#
# Elastic Constant Matrix: (Units=GPa)
#
#
# Indices 1 2 3 4 5 6 
#
# 1 33.8855 3.7356 10.7499 0.0000 0.0000 0.0000
# 2 3.7356 91.2458 46.2391 0.0000 0.0000 0.0000
# 3 10.7499 46.2391 113.0600 0.0000 0.0000 0.0000
# 4 0.0000 0.0000 0.0000 43.4215 0.0000 0.0000
# 5 0.0000 0.0000 0.0000 0.0000 12.8370 0.0000
# 6 0.0000 0.0000 0.0000 0.0000 0.0000 21.6113
#
#
#
# Elastic Compliance Matrix: (Units=1/GPa)
#
#
# Indices 1 2 3 4 5 6 
#
# 1 0.030435 0.000278 -0.003007 0.000000 0.000000 0.000000
# 2 0.000278 0.013827 -0.005681 0.000000 0.000000 0.000000
# 3 -0.003007 -0.005681 0.011454 0.000000 0.000000 0.000000
# 4 0.000000 0.000000 0.000000 0.023030 0.000000 0.000000
# 5 0.000000 0.000000 0.000000 0.000000 0.077900 0.000000
# 6 0.000000 0.000000 0.000000 0.000000 0.000000 0.046272
#
#
# Mechanical properties :
#
#
# Convention : Reuss Voigt Hill
#
# Bulk Modulus (GPa) = 25.71065 39.96007 32.83536
# Shear Modulus (GPa) = 21.48645 27.40507 24.44576
#
# Velocity S-wave (km/s) = 3.36403 3.79921 3.58823
# Velocity P-wave (km/s) = 5.35075 6.34760 5.87037
#
# Compressibility (1/GPa) = 0.03889439
#
# Stress axis : x y z
#
# Youngs Moduli (GPa) = 32.85735 72.32169 87.30273
#
# Poissons Ratio (x) = -0.02011 0.26256
# Poissons Ratio (y) = -0.00914 0.49600
# Poissons Ratio (z) = 0.09882 0.41089
#
# Static dielectric constant tensor:
#      x y z
#    x 3.083270 0.000000 0.000000 
#    y 0.000000 3.976110 0.000000 
#    z 0.000000 0.000000 3.513730 
# 
# 
# High freq. dielectric constant tensor:
#      x y z
#    x 1.699030 0.000000 0.000000 
#    y 0.000000 1.764880 0.000000 
#    z 0.000000 0.000000 1.743610 
# 
# From -- ./inp_files/19275.got.cif
#   From: 2010.03.12/outbox.cif.g09.slc.cpg/sg42_10_cif.got.tgz:19275.got - 2010.04.14 02:04:31.
