data_PCOD8186420
_publ_section_title
;
Structure prediction by ZEFSAII (Michael W. Deem and Ramdas Pophale) SiO2 
 PCOD8186420
Probable space group: F M M 2
;
_chemical_formula_sum "Si O2"
_cell_formula_units_Z 96
_cell_length_a 30.761732
_cell_length_b 8.843308
_cell_length_c 18.820475
_cell_angle_alpha 90.000000
_cell_angle_beta 90.000000
_cell_angle_gamma 90.000000
_cell_volume 5119.836775
_symmetry_space_group_name_H-M "F M M 2"
_symmetry_group_IT_number 42
_symmetry_cell_setting 'orthorhombic'
loop_
_space_group_symop_operation_xyz
x,y,z
-x,-y,z
-x,y,z
x,-y,z
x,1/2+y,1/2+z
-x,1/2-y,1/2+z
-x,1/2+y,1/2+z
x,1/2-y,1/2+z
1/2+x,y,1/2+z
1/2-x,-y,1/2+z
1/2-x,y,1/2+z
1/2+x,-y,1/2+z
1/2+x,1/2+y,z
1/2-x,1/2-y,z
1/2-x,1/2+y,z
1/2+x,1/2-y,z
loop_
_atom_site_type_symbol
_atom_site_label
_atom_site_fract_x
_atom_site_fract_y
_atom_site_fract_z
Si Si1 0.547735 0.179820 0.774410
Si Si2 0.295114 0.178364 0.933886
Si Si3 0.126022 0.821492 0.018509
Si Si4 0.050368 0.675277 0.935166
Si Si5 0.625318 0.820131 0.680247
Si Si6 0.205618 0.322018 0.771110
O O1 0.500000 0.243359 0.753960
O O2 0.559848 0.227982 0.854569
O O3 0.582623 0.247073 0.719257
O O4 0.546771 0.000000 0.771451
O O5 0.250000 0.250000 0.961349
O O6 0.334791 0.240272 0.979086
O O7 0.303602 0.225429 0.852330
O O8 0.292112 0.000000 0.943381
O O9 0.079630 0.777065 0.986157
O O10 0.132580 0.000000 0.013307
O O11 0.126450 0.763964 0.099609
O O12 0.063012 0.500000 0.945078
O O13 0.000000 0.702170 0.954740
O O14 0.667252 0.757502 0.721895
O O15 0.624153 0.000000 0.684569
O O16 0.209829 0.500000 0.763913
O O17 0.250000 0.250000 0.742820
#
# Coordination Sequence:
#
# PCOD8186420 Si02
#       6
#    16  16  16  16  16  16
#     4   8  14  28  52  76  95 123 168 215 254 296
#     4  10  20  36  58  79 101 132 171 214 256 300
#     4  11  22  33  49  77 111 141 168 204 253 308
#     4   9  18  34  56  78 100 132 175 218 257 300
#     4   9  18  31  47  72 104 133 163 203 251 301
#     4   9  18  34  55  75  96 126 167 212 252 293
#
# _framework density 18.750599000000001
#
# number of rings (size 3 to 8) (size 9 to 14) (size 15 to 20)
#    0.000    2.667    0.000    3.000    0.000    5.000 
#    0.000    5.000    0.000    2.000    0.000    0.000 
#    0.000    0.000    0.000    0.000    0.000    0.000 
#
# Total GULP energy -297593.734076 kJ/mol
# GULP energy per Si atom -12399.738920 kJ/mol
# Density = 1.870792 g / cm^3
# Si number density = 18.750599 Si / 1000 Ang^3
#
#
#
# Elastic Constant Matrix: (Units=GPa)
#
#
# Indices 1 2 3 4 5 6 
#
# 1 160.3240 30.8329 94.6001 0.0000 0.0000 0.0000
# 2 30.8329 36.2388 28.5001 0.0000 0.0000 0.0000
# 3 94.6001 28.5001 128.9171 0.0000 0.0000 0.0000
# 4 0.0000 0.0000 0.0000 20.9296 0.0000 0.0000
# 5 0.0000 0.0000 0.0000 0.0000 12.1298 0.0000
# 6 0.0000 0.0000 0.0000 0.0000 0.0000 31.9017
#
#
#
# Elastic Compliance Matrix: (Units=1/GPa)
#
#
# Indices 1 2 3 4 5 6 
#
# 1 0.011413 -0.003781 -0.007539 0.000000 0.000000 0.000000
# 2 -0.003781 0.034655 -0.004886 0.000000 0.000000 0.000000
# 3 -0.007539 -0.004886 0.014369 0.000000 0.000000 0.000000
# 4 0.000000 0.000000 0.000000 0.047779 0.000000 0.000000
# 5 0.000000 0.000000 0.000000 0.000000 0.082442 0.000000
# 6 0.000000 0.000000 0.000000 0.000000 0.000000 0.031346
#
#
# Mechanical properties :
#
#
# Convention : Reuss Voigt Hill
#
# Bulk Modulus (GPa) = 35.68411 70.37178 53.02794
# Shear Modulus (GPa) = 18.95665 24.42865 21.69265
#
# Velocity S-wave (km/s) = 3.18305 3.61338 3.40502
# Velocity P-wave (km/s) = 5.70801 7.41758 6.61823
#
# Compressibility (1/GPa) = 0.02802368
#
# Stress axis : x y z
#
# Youngs Moduli (GPa) = 87.61933 28.85580 69.59274
#
# Poissons Ratio (x) = 0.10912 0.52466
# Poissons Ratio (y) = 0.33133 0.34006
# Poissons Ratio (z) = 0.66056 0.14100
#
# Static dielectric constant tensor:
#      x y z
#    x 3.738360 0.000000 0.000000 
#    y 0.000000 3.098380 0.000000 
#    z 0.000000 0.000000 3.541280 
# 
# 
# High freq. dielectric constant tensor:
#      x y z
#    x 1.745370 0.000000 0.000000 
#    y 0.000000 1.693690 0.000000 
#    z 0.000000 0.000000 1.725300 
# 
# From -- ./inp_files/23725.got.cif
#   From: 2010.03.12/outbox.cif.g09.slc.cpg/sg42_12_cif.got.tgz:23725.got - 2010.04.14 02:04:31.
