data_PCOD8186252
_publ_section_title
;
Structure prediction by ZEFSAII (Michael W. Deem and Ramdas Pophale) SiO2 
 PCOD8186252
Probable space group: F M M 2
;
_chemical_formula_sum "Si O2"
_cell_formula_units_Z 104
_cell_length_a 20.841191
_cell_length_b 9.746009
_cell_length_c 26.072057
_cell_angle_alpha 90.000000
_cell_angle_beta 90.000000
_cell_angle_gamma 90.000000
_cell_volume 5295.715417
_symmetry_space_group_name_H-M "F M M 2"
_symmetry_group_IT_number 42
_symmetry_cell_setting 'orthorhombic'
loop_
_space_group_symop_operation_xyz
x,y,z
-x,-y,z
-x,y,z
x,-y,z
x,1/2+y,1/2+z
-x,1/2-y,1/2+z
-x,1/2+y,1/2+z
x,1/2-y,1/2+z
1/2+x,y,1/2+z
1/2-x,-y,1/2+z
1/2-x,y,1/2+z
1/2+x,-y,1/2+z
1/2+x,1/2+y,z
1/2-x,1/2-y,z
1/2-x,1/2+y,z
1/2+x,1/2-y,z
loop_
_atom_site_type_symbol
_atom_site_label
_atom_site_fract_x
_atom_site_fract_y
_atom_site_fract_z
Si Si1 0.165077 0.646947 0.648940
Si Si2 0.250000 0.750000 0.735798
Si Si3 0.427346 0.843375 0.876294
Si Si4 0.927274 0.153728 0.693672
Si Si5 0.632356 0.844708 0.296124
Si Si6 0.309064 0.839732 0.534833
Si Si7 0.425448 0.841703 0.996280
O O1 0.129804 0.500000 0.650204
O O2 0.212384 0.648485 0.697734
O O3 0.111282 0.762506 0.651629
O O4 0.202799 0.662424 0.595801
O O5 0.296361 0.664829 0.773046
O O6 0.500000 0.797234 0.863651
O O7 0.376963 0.750839 0.845382
O O8 0.413601 0.825196 0.936004
O O9 0.416611 0.000000 0.859541
O O10 0.917132 0.205778 0.751917
O O11 0.000000 0.163757 0.677098
O O12 0.900289 0.000000 0.690904
O O13 0.618573 0.000000 0.313509
O O14 0.250000 0.750000 0.510540
O O15 0.377237 0.765913 0.523102
O O16 0.308660 0.000000 0.515116
O O17 0.500000 0.806589 0.009816
O O18 0.410869 0.000000 0.012731
#
# Coordination Sequence:
#
# PCOD8186252 Si02
#       7
#    16   8  16  16  16  16  16
#     4  10  21  36  56  79 106 144 189 233 278 333
#     4  10  20  38  54  74 110 152 192 226 280 330
#     4   9  19  37  60  84 112 147 184 225 280 342
#     4   9  19  34  51  76 111 147 183 227 279 335
#     4  10  20  33  54  81 109 145 189 233 276 328
#     4  11  23  39  61  89 117 152 196 244 297 350
#     4   9  20  41  65  88 117 155 196 240 295 356
#
# _framework density 19.638517
#
# number of rings (size 3 to 8) (size 9 to 14) (size 15 to 20)
#    0.000    2.308    0.769    2.308    0.000    7.692 
#    1.385    4.615    0.000    0.000    0.000    0.000 
#    0.000    0.000    0.000    0.000    0.000    0.000 
#
# Total GULP energy -322247.784385 kJ/mol
# GULP energy per Si atom -12394.145553 kJ/mol
# Density = 1.959382 g / cm^3
# Si number density = 19.638517 Si / 1000 Ang^3
#
#
#
# Elastic Constant Matrix: (Units=GPa)
#
#
# Indices 1 2 3 4 5 6 
#
# 1 100.2550 57.0827 26.0657 0.0000 0.0000 0.0000
# 2 57.0827 117.9905 35.1553 0.0000 0.0000 0.0000
# 3 26.0657 35.1553 52.6007 0.0000 0.0000 0.0000
# 4 0.0000 0.0000 0.0000 29.3013 0.0000 0.0000
# 5 0.0000 0.0000 0.0000 0.0000 23.1273 0.0000
# 6 0.0000 0.0000 0.0000 0.0000 0.0000 30.0070
#
#
#
# Elastic Compliance Matrix: (Units=1/GPa)
#
#
# Indices 1 2 3 4 5 6 
#
# 1 0.014146 -0.005937 -0.003042 0.000000 0.000000 0.000000
# 2 -0.005937 0.013075 -0.005796 0.000000 0.000000 0.000000
# 3 -0.003042 -0.005796 0.024392 0.000000 0.000000 0.000000
# 4 0.000000 0.000000 0.000000 0.034128 0.000000 0.000000
# 5 0.000000 0.000000 0.000000 0.000000 0.043239 0.000000
# 6 0.000000 0.000000 0.000000 0.000000 0.000000 0.033326
#
#
# Mechanical properties :
#
#
# Convention : Reuss Voigt Hill
#
# Bulk Modulus (GPa) = 45.32586 56.38374 50.85480
# Shear Modulus (GPa) = 25.09911 26.65662 25.87786
#
# Velocity S-wave (km/s) = 3.57887 3.68824 3.63397
# Velocity P-wave (km/s) = 6.34097 6.84913 6.59994
#
# Compressibility (1/GPa) = 0.02206246
#
# Stress axis : x y z
#
# Youngs Moduli (GPa) = 70.69127 76.48353 40.99662
#
# Poissons Ratio (x) = 0.45412 0.12470
# Poissons Ratio (y) = 0.41973 0.23762
# Poissons Ratio (z) = 0.21502 0.44331
#
# Static dielectric constant tensor:
#      x y z
#    x 3.490620 0.000000 0.000000 
#    y 0.000000 3.660520 0.000000 
#    z 0.000000 0.000000 3.353770 
# 
# 
# High freq. dielectric constant tensor:
#      x y z
#    x 1.758660 0.000000 0.000000 
#    y 0.000000 1.769380 0.000000 
#    z 0.000000 0.000000 1.750300 
# 
# From -- ./inp_files/33030.got.cif
#   From: 2010.03.12/outbox.cif.g09.slc.cpg/sg42_17_cif.got.tgz:33030.got - 2010.04.14 02:04:31.
