data_PCOD8186662
_publ_section_title
;
Structure prediction by ZEFSAII (Michael W. Deem and Ramdas Pophale) SiO2 
 PCOD8186662
Probable space group: F M M 2
;
_chemical_formula_sum "Si O2"
_cell_formula_units_Z 80
_cell_length_a 17.469061
_cell_length_b 28.188479
_cell_length_c 8.698215
_cell_angle_alpha 90.000000
_cell_angle_beta 90.000000
_cell_angle_gamma 90.000000
_cell_volume 4283.229474
_symmetry_space_group_name_H-M "F M M 2"
_symmetry_group_IT_number 42
_symmetry_cell_setting 'orthorhombic'
loop_
_space_group_symop_operation_xyz
x,y,z
-x,-y,z
-x,y,z
x,-y,z
x,1/2+y,1/2+z
-x,1/2-y,1/2+z
-x,1/2+y,1/2+z
x,1/2-y,1/2+z
1/2+x,y,1/2+z
1/2-x,-y,1/2+z
1/2-x,y,1/2+z
1/2+x,-y,1/2+z
1/2+x,1/2+y,z
1/2-x,1/2-y,z
1/2-x,1/2+y,z
1/2+x,1/2-y,z
loop_
_atom_site_type_symbol
_atom_site_label
_atom_site_fract_x
_atom_site_fract_y
_atom_site_fract_z
Si Si1 0.089072 0.554263 0.870370
Si Si2 0.344938 0.120101 0.641770
Si Si3 0.328229 0.779419 0.171598
Si Si4 0.801935 0.371696 0.971098
Si Si5 0.586723 0.706073 0.980936
O O1 0.115284 0.500000 0.884516
O O2 0.109546 0.573087 0.697890
O O3 0.000000 0.560213 0.904382
O O4 0.135014 0.586361 0.994756
O O5 0.280675 0.106890 0.516264
O O6 0.405293 0.156736 0.571734
O O7 0.302174 0.143791 0.791018
O O8 0.250000 0.750000 0.172787
O O9 0.320945 0.826637 0.072777
O O10 0.395874 0.748623 0.097548
O O11 0.352160 0.792928 0.343608
O O12 0.500000 0.710806 0.920660
#
# Coordination Sequence:
#
# PCOD8186662 Si02
#       5
#    16  16  16  16  16
#     4   9  21  41  66  94 126 161 202 258 319 373
#     4  10  21  39  61  90 120 161 206 251 306 366
#     4  12  24  40  61  86 125 172 208 253 309 369
#     4  10  22  38  64  89 121 162 208 253 304 370
#     4  12  25  39  59  89 124 165 213 258 304 366
#
# _framework density 18.677496000000001
#
# number of rings (size 3 to 8) (size 9 to 14) (size 15 to 20)
#    1.200    0.200    2.000    4.200    0.000    2.400 
#    0.000    0.000    0.000    0.000    0.000    5.600 
#    0.000    0.000    0.000    0.000    0.000    0.000 
#
# Total GULP energy -247933.184132 kJ/mol
# GULP energy per Si atom -12396.659207 kJ/mol
# Density = 1.863498 g / cm^3
# Si number density = 18.677496 Si / 1000 Ang^3
#
#
#
# Elastic Constant Matrix: (Units=GPa)
#
#
# Indices 1 2 3 4 5 6 
#
# 1 100.0331 56.7666 20.8923 0.0000 0.0001 0.0000
# 2 56.7666 132.7810 28.3105 0.0000 0.0000 0.0000
# 3 20.8923 28.3105 79.0028 0.0000 0.0002 0.0000
# 4 0.0000 0.0000 0.0000 21.0834 0.0000 0.0000
# 5 0.0001 0.0000 0.0002 0.0000 25.1570 0.0000
# 6 0.0000 0.0000 0.0000 0.0000 0.0000 32.0498
#
#
#
# Elastic Compliance Matrix: (Units=1/GPa)
#
#
# Indices 1 2 3 4 5 6 
#
# 1 0.013386 -0.005379 -0.001612 0.000000 0.000000 0.000000
# 2 -0.005379 0.010316 -0.002274 0.000000 0.000000 0.000000
# 3 -0.001612 -0.002274 0.013899 0.000000 0.000000 0.000000
# 4 0.000000 0.000000 0.000000 0.047431 0.000000 0.000000
# 5 0.000000 0.000000 0.000000 0.000000 0.039750 0.000000
# 6 0.000000 0.000000 0.000000 0.000000 0.000000 0.031201
#
#
# Mechanical properties :
#
#
# Convention : Reuss Voigt Hill
#
# Bulk Modulus (GPa) = 52.43907 58.19508 55.31708
# Shear Modulus (GPa) = 27.64408 29.38122 28.51265
#
# Velocity S-wave (km/s) = 3.85135 3.97051 3.91138
# Velocity P-wave (km/s) = 6.92201 7.22810 7.07671
#
# Compressibility (1/GPa) = 0.01906975
#
# Stress axis : x y z
#
# Youngs Moduli (GPa) = 74.70553 96.93964 71.94706
#
# Poissons Ratio (x) = 0.52144 0.11600
# Poissons Ratio (y) = 0.40184 0.16362
# Poissons Ratio (z) = 0.12045 0.22045
#
# Static dielectric constant tensor:
#      x y z
#    x 3.374170 0.000000 0.000000 
#    y 0.000000 3.351030 0.000000 
#    z 0.000000 0.000000 3.394580 
# 
# 
# High freq. dielectric constant tensor:
#      x y z
#    x 1.731750 0.000000 0.000000 
#    y 0.000000 1.716780 0.000000 
#    z 0.000000 0.000000 1.717090 
# 
# From -- ./inp_files/3576.got.cif
#   From: 2010.03.12/outbox.cif.g09.slc.cpg/sg42_2_cif.got.tgz:3576.got - 2010.04.14 02:04:31.
