data_PCOD8186228
_publ_section_title
;
Structure prediction by ZEFSAII (Michael W. Deem and Ramdas Pophale) SiO2 
 PCOD8186228
Probable space group: F M M 2
;
_chemical_formula_sum "Si O2"
_cell_formula_units_Z 96
_cell_length_a 9.056631
_cell_length_b 19.918441
_cell_length_c 30.451591
_cell_angle_alpha 90.000000
_cell_angle_beta 90.000000
_cell_angle_gamma 90.000000
_cell_volume 5493.283400
_symmetry_space_group_name_H-M "F M M 2"
_symmetry_group_IT_number 42
_symmetry_cell_setting 'orthorhombic'
loop_
_space_group_symop_operation_xyz
x,y,z
-x,-y,z
-x,y,z
x,-y,z
x,1/2+y,1/2+z
-x,1/2-y,1/2+z
-x,1/2+y,1/2+z
x,1/2-y,1/2+z
1/2+x,y,1/2+z
1/2-x,-y,1/2+z
1/2-x,y,1/2+z
1/2+x,-y,1/2+z
1/2+x,1/2+y,z
1/2-x,1/2-y,z
1/2-x,1/2+y,z
1/2+x,1/2-y,z
loop_
_atom_site_type_symbol
_atom_site_label
_atom_site_fract_x
_atom_site_fract_y
_atom_site_fract_z
Si Si1 0.323988 0.074399 0.042120
Si Si2 0.835600 0.420039 0.138506
Si Si3 0.327646 0.078697 0.309526
Si Si4 0.672656 0.317596 0.473835
Si Si5 0.326131 0.680766 0.372705
Si Si6 0.335065 0.420254 0.222089
O O1 0.500000 0.071290 0.041596
O O2 0.273486 0.100734 0.090383
O O3 0.259685 0.000000 0.032990
O O4 0.263146 0.122892 0.004126
O O5 0.842263 0.500000 0.140899
O O6 0.730947 0.390700 0.176739
O O7 0.000000 0.390847 0.145917
O O8 0.500000 0.095737 0.311729
O O9 0.240991 0.118283 0.346925
O O10 0.266787 0.102896 0.262455
O O11 0.297441 0.000000 0.317015
O O12 0.500000 0.308230 0.481135
O O13 0.750000 0.250000 0.489532
O O14 0.709922 0.334002 0.423481
O O15 0.500000 0.686259 0.363744
O O16 0.250000 0.750000 0.357418
O O17 0.500000 0.391450 0.228554
O O18 0.338544 0.500000 0.219548
#
# Coordination Sequence:
#
# PCOD8186228 Si02
#       6
#    16  16  16  16  16  16
#     4   8  14  26  46  71  95 121 157 197 233 272
#     4   8  13  23  41  64  90 120 154 192 233 277
#     4  10  20  33  50  73 100 128 160 200 245 290
#     4   9  18  32  50  70  93 124 159 194 233 281
#     4  10  20  34  52  72  96 128 165 202 242 291
#     4   9  16  26  42  66  96 126 156 192 235 284
#
# _framework density 17.475887
#
# number of rings (size 3 to 8) (size 9 to 14) (size 15 to 20)
#    0.000    3.000    0.000    2.500    0.000    4.333 
#    0.000    2.500    0.000    2.500    0.000    4.667 
#    0.000    0.000    0.000    0.000    0.000    0.000 
#
# Total GULP energy -297522.204856 kJ/mol
# GULP energy per Si atom -12396.758536 kJ/mol
# Density = 1.743611 g / cm^3
# Si number density = 17.475887 Si / 1000 Ang^3
#
#
#
# Elastic Constant Matrix: (Units=GPa)
#
#
# Indices 1 2 3 4 5 6 
#
# 1 82.0400 37.4861 51.2747 0.0000 0.0000 0.0000
# 2 37.4861 69.6030 64.2381 0.0000 0.0000 0.0000
# 3 51.2747 64.2381 126.2222 0.0000 0.0000 0.0000
# 4 0.0000 0.0000 0.0000 5.6787 0.0000 0.0000
# 5 0.0000 0.0000 0.0000 0.0000 23.5821 0.0000
# 6 0.0000 0.0000 0.0000 0.0000 0.0000 22.4644
#
#
#
# Elastic Compliance Matrix: (Units=1/GPa)
#
#
# Indices 1 2 3 4 5 6 
#
# 1 0.017332 -0.005349 -0.004319 0.000000 0.000000 0.000000
# 2 -0.005349 0.028743 -0.012455 0.000000 0.000000 0.000000
# 3 -0.004319 -0.012455 0.016016 0.000000 0.000000 0.000000
# 4 0.000000 0.000000 0.000000 0.176097 0.000000 0.000000
# 5 0.000000 0.000000 0.000000 0.000000 0.042405 0.000000
# 6 0.000000 0.000000 0.000000 0.000000 0.000000 0.044515
#
#
# Mechanical properties :
#
#
# Convention : Reuss Voigt Hill
#
# Bulk Modulus (GPa) = 56.03653 64.87368 60.45510
# Shear Modulus (GPa) = 13.32255 18.66946 15.99600
#
# Velocity S-wave (km/s) = 2.76404 3.27203 3.02871
# Velocity P-wave (km/s) = 6.50548 7.17477 6.84830
#
# Compressibility (1/GPa) = 0.01784550
#
# Stress axis : x y z
#
# Youngs Moduli (GPa) = 57.69559 34.79061 62.43833
#
# Poissons Ratio (x) = 0.18609 0.26965
# Poissons Ratio (y) = 0.30861 0.77770
# Poissons Ratio (z) = 0.24916 0.43333
#
# Static dielectric constant tensor:
#      x y z
#    x 3.248460 0.000000 0.000000 
#    y 0.000000 3.014180 0.000000 
#    z 0.000000 0.000000 3.509180 
# 
# 
# High freq. dielectric constant tensor:
#      x y z
#    x 1.666590 0.000000 0.000000 
#    y 0.000000 1.633880 0.000000 
#    z 0.000000 0.000000 1.687050 
# 
# From -- ./inp_files/28043.got.cif
#   From: 2010.03.12/outbox.cif.g09.slc.cpg/sg42_15_cif.got.tgz:28043.got - 2010.04.14 02:04:31.
