data_PCOD8186489
_publ_section_title
;
Structure prediction by ZEFSAII (Michael W. Deem and Ramdas Pophale) SiO2 
 PCOD8186489
Probable space group: F M M 2
;
_chemical_formula_sum "Si O2"
_cell_formula_units_Z 96
_cell_length_a 18.363000
_cell_length_b 27.383787
_cell_length_c 9.306983
_cell_angle_alpha 90.000000
_cell_angle_beta 90.000000
_cell_angle_gamma 90.000000
_cell_volume 4680.002261
_symmetry_space_group_name_H-M "F M M 2"
_symmetry_group_IT_number 42
_symmetry_cell_setting 'orthorhombic'
loop_
_space_group_symop_operation_xyz
x,y,z
-x,-y,z
-x,y,z
x,-y,z
x,1/2+y,1/2+z
-x,1/2-y,1/2+z
-x,1/2+y,1/2+z
x,1/2-y,1/2+z
1/2+x,y,1/2+z
1/2-x,-y,1/2+z
1/2-x,y,1/2+z
1/2+x,-y,1/2+z
1/2+x,1/2+y,z
1/2-x,1/2-y,z
1/2-x,1/2+y,z
1/2+x,1/2-y,z
loop_
_atom_site_type_symbol
_atom_site_label
_atom_site_fract_x
_atom_site_fract_y
_atom_site_fract_z
Si Si1 0.213860 0.946074 0.896780
Si Si2 0.156672 0.946877 0.200440
Si Si3 0.084743 0.218802 0.002444
Si Si4 0.818455 0.314775 0.990755
Si Si5 0.918072 0.353057 0.760847
Si Si6 0.677527 0.658048 0.816681
O O1 0.297097 0.940404 0.845973
O O2 0.168362 0.900324 0.835558
O O3 0.183271 0.000000 0.848037
O O4 0.213682 0.942607 0.069097
O O5 0.096127 0.905091 0.184807
O O6 0.117724 0.000000 0.198682
O O7 0.141597 0.262805 0.994230
O O8 0.099515 0.190941 0.151921
O O9 0.000000 0.235452 0.989830
O O10 0.102016 0.182895 0.868194
O O11 0.805537 0.332896 0.151197
O O12 0.869744 0.351167 0.902893
O O13 0.740433 0.315957 0.912237
O O14 0.000000 0.350260 0.812941
#
# Coordination Sequence:
#
# PCOD8186489 Si02
#       6
#    16  16  16  16  16  16
#     4  10  20  37  63  94 124 156 200 254 313 365
#     4  10  20  37  62  91 122 160 204 256 315 371
#     4  11  25  44  63  88 126 167 210 256 310 370
#     4  12  25  40  63  93 124 165 208 259 307 365
#     4  11  23  41  62  88 125 167 210 258 310 368
#     4  12  23  41  66  94 125 162 209 258 311 365
#
# _framework density 20.512810999999999
#
# number of rings (size 3 to 8) (size 9 to 14) (size 15 to 20)
#    0.000    1.000    3.333    4.000    0.000    4.333 
#    0.000    0.000    0.000    0.500    0.000    0.000 
#    0.000    0.000    0.000    0.000    0.000    0.000 
#
# Total GULP energy -297470.338245 kJ/mol
# GULP energy per Si atom -12394.597427 kJ/mol
# Density = 2.046612 g / cm^3
# Si number density = 20.512811 Si / 1000 Ang^3
#
#
#
# Elastic Constant Matrix: (Units=GPa)
#
#
# Indices 1 2 3 4 5 6 
#
# 1 61.7417 40.1163 42.3755 0.0000 0.0000 0.0000
# 2 40.1163 162.7719 32.1873 0.0000 0.0000 0.0000
# 3 42.3755 32.1873 121.9668 0.0000 -0.0002 -0.0001
# 4 0.0000 0.0000 0.0000 26.7068 0.0000 0.0000
# 5 0.0000 0.0000 -0.0002 0.0000 27.0072 0.0000
# 6 0.0000 0.0000 -0.0001 0.0000 0.0000 14.4875
#
#
#
# Elastic Compliance Matrix: (Units=1/GPa)
#
#
# Indices 1 2 3 4 5 6 
#
# 1 0.024043 -0.004509 -0.007163 0.000000 0.000000 0.000000
# 2 -0.004509 0.007327 -0.000367 0.000000 0.000000 0.000000
# 3 -0.007163 -0.000367 0.010785 0.000000 0.000000 0.000000
# 4 0.000000 0.000000 0.000000 0.037444 0.000000 0.000000
# 5 0.000000 0.000000 0.000000 0.000000 0.037027 0.000000
# 6 0.000000 0.000000 0.000000 0.000000 0.000000 0.069025
#
#
# Mechanical properties :
#
#
# Convention : Reuss Voigt Hill
#
# Bulk Modulus (GPa) = 55.32256 63.98206 59.65231
# Shear Modulus (GPa) = 23.17446 29.09372 26.13409
#
# Velocity S-wave (km/s) = 3.36483 3.77014 3.57324
# Velocity P-wave (km/s) = 6.49033 7.08597 6.79468
#
# Compressibility (1/GPa) = 0.01807581
#
# Stress axis : x y z
#
# Youngs Moduli (GPa) = 41.59287 136.47344 92.72460
#
# Poissons Ratio (x) = 0.61535 0.66421
# Poissons Ratio (y) = 0.18754 0.03404
# Poissons Ratio (z) = 0.29794 0.05011
#
# Static dielectric constant tensor:
#      x y z
#    x 3.515440 0.000000 0.000000 
#    y 0.000000 4.172890 0.000000 
#    z 0.000000 0.000000 3.799880 
# 
# 
# High freq. dielectric constant tensor:
#      x y z
#    x 1.771560 0.000000 0.000000 
#    y 0.000000 1.825720 0.000000 
#    z 0.000000 0.000000 1.807110 
# 
# From -- ./inp_files/4148.got.cif
#   From: 2010.03.12/outbox.cif.g09.slc.cpg/sg42_3_cif.got.tgz:4148.got - 2010.04.14 02:04:31.
