data_PCOD8186778
_publ_section_title
;
Structure prediction by ZEFSAII (Michael W. Deem and Ramdas Pophale) SiO2 
 PCOD8186778
Probable space group: F M M 2
;
_chemical_formula_sum "Si O2"
_cell_formula_units_Z 96
_cell_length_a 21.908310
_cell_length_b 14.922910
_cell_length_c 13.611043
_cell_angle_alpha 90.000000
_cell_angle_beta 90.000000
_cell_angle_gamma 90.000000
_cell_volume 4449.936393
_symmetry_space_group_name_H-M "F M M 2"
_symmetry_group_IT_number 42
_symmetry_cell_setting 'orthorhombic'
loop_
_space_group_symop_operation_xyz
x,y,z
-x,-y,z
-x,y,z
x,-y,z
x,1/2+y,1/2+z
-x,1/2-y,1/2+z
-x,1/2+y,1/2+z
x,1/2-y,1/2+z
1/2+x,y,1/2+z
1/2-x,-y,1/2+z
1/2-x,y,1/2+z
1/2+x,-y,1/2+z
1/2+x,1/2+y,z
1/2-x,1/2-y,z
1/2-x,1/2+y,z
1/2+x,1/2-y,z
loop_
_atom_site_type_symbol
_atom_site_label
_atom_site_fract_x
_atom_site_fract_y
_atom_site_fract_z
Si Si1 0.713088 0.601063 0.805350
Si Si2 0.190869 0.689071 0.507279
Si Si3 0.404703 0.601444 0.694518
Si Si4 0.066612 0.215574 0.283797
Si Si5 0.168728 0.898330 0.195617
Si Si6 0.430294 0.294520 0.508188
O O1 0.717759 0.500000 0.844079
O O2 0.688449 0.660233 0.894486
O O3 0.668099 0.607379 0.711767
O O4 0.779265 0.634701 0.771428
O O5 0.250000 0.750000 0.525549
O O6 0.195310 0.607690 0.584872
O O7 0.125092 0.729737 0.536277
O O8 0.427744 0.500000 0.720269
O O9 0.433180 0.676099 0.768071
O O10 0.422366 0.620294 0.580816
O O11 0.112698 0.168366 0.210144
O O12 0.079926 0.182019 0.394220
O O13 0.000000 0.181360 0.253245
O O14 0.149134 0.000000 0.216888
O O15 0.500000 0.255397 0.521765
#
# Coordination Sequence:
#
# PCOD8186778 Si02
#       6
#    16  16  16  16  16  16
#     4  10  23  42  65  98 133 171 226 281 339 405
#     4  12  23  39  69  96 129 179 225 278 338 403
#     4  11  23  42  70 100 135 177 224 279 339 403
#     4  11  24  43  67  96 134 180 228 278 341 407
#     4  11  25  42  65  97 134 177 224 281 342 406
#     4  11  24  41  64  98 135 174 222 277 336 402
#
# _framework density 21.573342
#
# number of rings (size 3 to 8) (size 9 to 14) (size 15 to 20)
#    0.000    1.000    3.333    3.000    0.000    2.333 
#    0.000    5.833    0.000    1.500    0.000    0.000 
#    0.000    0.000    0.000    0.000    0.000    0.000 
#
# Total GULP energy -297364.583866 kJ/mol
# GULP energy per Si atom -12390.190994 kJ/mol
# Density = 2.152424 g / cm^3
# Si number density = 21.573342 Si / 1000 Ang^3
#
#
#
# Elastic Constant Matrix: (Units=GPa)
#
#
# Indices 1 2 3 4 5 6 
#
# 1 151.2635 53.3244 39.1823 0.0000 0.0000 0.0000
# 2 53.3244 84.2208 48.2691 0.0000 0.0000 0.0000
# 3 39.1823 48.2691 137.7178 0.0000 0.0000 0.0000
# 4 0.0000 0.0000 0.0000 32.3769 0.0000 0.0000
# 5 0.0000 0.0000 0.0000 0.0000 19.4704 0.0000
# 6 0.0000 0.0000 0.0000 0.0000 0.0000 14.3635
#
#
#
# Elastic Compliance Matrix: (Units=1/GPa)
#
#
# Indices 1 2 3 4 5 6 
#
# 1 0.008560 -0.005035 -0.000671 0.000000 0.000000 0.000000
# 2 -0.005035 0.017820 -0.004813 0.000000 0.000000 0.000000
# 3 -0.000671 -0.004813 0.009139 0.000000 0.000000 0.000000
# 4 0.000000 0.000000 0.000000 0.030886 0.000000 0.000000
# 5 0.000000 0.000000 0.000000 0.000000 0.051360 0.000000
# 6 0.000000 0.000000 0.000000 0.000000 0.000000 0.069621
#
#
# Mechanical properties :
#
#
# Convention : Reuss Voigt Hill
#
# Bulk Modulus (GPa) = 69.05677 72.75042 70.90359
# Shear Modulus (GPa) = 23.44653 28.73726 26.09190
#
# Velocity S-wave (km/s) = 3.30029 3.65372 3.48149
# Velocity P-wave (km/s) = 6.82658 7.18297 7.00704
#
# Compressibility (1/GPa) = 0.01448084
#
# Stress axis : x y z
#
# Youngs Moduli (GPa) = 116.82587 56.11590 109.42116
#
# Poissons Ratio (x) = 0.28256 0.07337
# Poissons Ratio (y) = 0.58826 0.52667
# Poissons Ratio (z) = 0.07833 0.27010
#
# Static dielectric constant tensor:
#      x y z
#    x 4.084590 0.000000 0.000000 
#    y 0.000000 3.700530 0.000000 
#    z 0.000000 0.000000 3.890990 
# 
# 
# High freq. dielectric constant tensor:
#      x y z
#    x 1.863730 0.000000 0.000000 
#    y 0.000000 1.823780 0.000000 
#    z 0.000000 0.000000 1.856510 
# 
# From -- ./inp_files/14019.got.cif
#   From: 2010.03.12/outbox.cif.g09.slc.cpg/sg42_8_cif.got.tgz:14019.got - 2010.04.14 02:04:31.
