data_PCOD8186037
_publ_section_title
;
Structure prediction by ZEFSAII (Michael W. Deem and Ramdas Pophale) SiO2 
 PCOD8186037
Probable space group: F M M 2
;
_chemical_formula_sum "Si O2"
_cell_formula_units_Z 64
_cell_length_a 23.452827
_cell_length_b 8.795660
_cell_length_c 19.202905
_cell_angle_alpha 90.000000
_cell_angle_beta 90.000000
_cell_angle_gamma 90.000000
_cell_volume 3961.234625
_symmetry_space_group_name_H-M "F M M 2"
_symmetry_group_IT_number 42
_symmetry_cell_setting 'orthorhombic'
loop_
_space_group_symop_operation_xyz
x,y,z
-x,-y,z
-x,y,z
x,-y,z
x,1/2+y,1/2+z
-x,1/2-y,1/2+z
-x,1/2+y,1/2+z
x,1/2-y,1/2+z
1/2+x,y,1/2+z
1/2-x,-y,1/2+z
1/2-x,y,1/2+z
1/2+x,-y,1/2+z
1/2+x,1/2+y,z
1/2-x,1/2-y,z
1/2-x,1/2+y,z
1/2+x,1/2-y,z
loop_
_atom_site_type_symbol
_atom_site_label
_atom_site_fract_x
_atom_site_fract_y
_atom_site_fract_z
Si Si1 0.500000 0.322008 0.802541
Si Si2 0.500000 0.821019 0.141235
Si Si3 0.690274 0.673094 0.479841
Si Si4 0.910484 0.180272 0.043519
Si Si5 0.418109 0.826469 0.905023
O O1 0.500000 0.500000 0.815045
O O2 0.500000 0.279006 0.722120
O O3 0.557380 0.252799 0.836351
O O4 0.442820 0.748232 0.109787
O O5 0.500000 0.000000 0.127726
O O6 0.700273 0.500000 0.503247
O O7 0.750000 0.750000 0.463636
O O8 0.655383 0.759451 0.541689
O O9 0.651374 0.681512 0.409141
O O10 0.911853 0.000000 0.047259
O O11 0.942438 0.239446 0.973492
O O12 0.439329 0.000000 0.907135
#
# Coordination Sequence:
#
# PCOD8186037 Si02
#       5
#     8   8  16  16  16
#     4  11  22  33  50  73 101 135 168 205 248 299
#     4  11  22  35  48  71 105 135 166 207 252 297
#     4   9  18  31  51  77 101 129 162 208 251 288
#     4  10  19  32  52  75 100 131 168 206 246 297
#     4   9  19  33  51  73 102 131 162 206 250 293
#
# _framework density 16.156579000000001
#
# number of rings (size 3 to 8) (size 9 to 14) (size 15 to 20)
#    1.500    0.750    0.000    4.500    0.000    2.000 
#    0.000    0.000    0.000    1.500    0.000    3.500 
#    0.000    0.000    0.000    0.000    0.000    0.000 
#
# Total GULP energy -198210.603326 kJ/mol
# GULP energy per Si atom -12388.162708 kJ/mol
# Density = 1.611981 g / cm^3
# Si number density = 16.156579 Si / 1000 Ang^3
#
#
#
# Elastic Constant Matrix: (Units=GPa)
#
#
# Indices 1 2 3 4 5 6 
#
# 1 124.4059 55.6640 48.4354 0.0000 0.0000 0.0000
# 2 55.6640 150.2550 69.0031 0.0000 0.0000 0.0000
# 3 48.4354 69.0031 97.1991 0.0000 0.0000 0.0000
# 4 0.0000 0.0000 0.0000 24.3707 0.0000 0.0000
# 5 0.0000 0.0000 0.0000 0.0000 -8.2914 0.0000
# 6 0.0000 0.0000 0.0000 0.0000 0.0000 27.7098
#
#
#
# Elastic Compliance Matrix: (Units=1/GPa)
#
#
# Indices 1 2 3 4 5 6 
#
# 1 0.010439 -0.002193 -0.003645 0.000000 0.000000 0.000000
# 2 -0.002193 0.010336 -0.006244 0.000000 0.000000 0.000000
# 3 -0.003645 -0.006244 0.016537 0.000000 0.000000 0.000000
# 4 0.000000 0.000000 0.000000 0.041033 0.000000 0.000000
# 5 0.000000 0.000000 0.000000 0.000000 -0.120607 0.000000
# 6 0.000000 0.000000 0.000000 0.000000 0.000000 0.036088
#
#
# Mechanical properties :
#
#
# Convention : Reuss Voigt Hill
#
# Bulk Modulus (GPa) = 76.06429 79.78498 77.92463
# Shear Modulus (GPa) = 223.48661 22.00831 122.74746
#
# Velocity S-wave (km/s) = 11.77394 3.69479 8.72574
# Velocity P-wave (km/s) = 15.23207 8.22748 12.24148
#
# Compressibility (1/GPa) = 0.01314677
#
# Stress axis : x y z
#
# Youngs Moduli (GPa) = 95.79881 96.75291 60.46948
#
# Poissons Ratio (x) = 0.21222 0.22038
# Poissons Ratio (y) = 0.21012 0.37760
# Poissons Ratio (z) = 0.34914 0.60416
#
# Static dielectric constant tensor:
#      x y z
#    x 3.060710 0.000000 0.000000 
#    y 0.000000 3.158350 0.000000 
#    z 0.000000 0.000000 2.755320 
# 
# 
# High freq. dielectric constant tensor:
#      x y z
#    x 1.616480 0.000000 0.000000 
#    y 0.000000 1.645460 0.000000 
#    z 0.000000 0.000000 1.580110 
# 
# From -- ./inp_files/26299.got.cif
#   From: 2010.03.12/outbox.cif.g09.slc.cpg/sg42_14_cif.got.tgz:26299.got - 2010.04.14 02:04:31.
