data_PCOD8186079
_publ_section_title
;
Structure prediction by ZEFSAII (Michael W. Deem and Ramdas Pophale) SiO2 
 PCOD8186079
Probable space group: F M M 2
;
_chemical_formula_sum "Si O2"
_cell_formula_units_Z 80
_cell_length_a 18.444196
_cell_length_b 7.824337
_cell_length_c 29.024043
_cell_angle_alpha 90.000000
_cell_angle_beta 90.000000
_cell_angle_gamma 90.000000
_cell_volume 4188.564283
_symmetry_space_group_name_H-M "F M M 2"
_symmetry_group_IT_number 42
_symmetry_cell_setting 'orthorhombic'
loop_
_space_group_symop_operation_xyz
x,y,z
-x,-y,z
-x,y,z
x,-y,z
x,1/2+y,1/2+z
-x,1/2-y,1/2+z
-x,1/2+y,1/2+z
x,1/2-y,1/2+z
1/2+x,y,1/2+z
1/2-x,-y,1/2+z
1/2-x,y,1/2+z
1/2+x,-y,1/2+z
1/2+x,1/2+y,z
1/2-x,1/2-y,z
1/2-x,1/2+y,z
1/2+x,1/2-y,z
loop_
_atom_site_type_symbol
_atom_site_label
_atom_site_fract_x
_atom_site_fract_y
_atom_site_fract_z
Si Si1 0.086057 0.000000 0.233550
Si Si2 0.916295 0.299074 0.468444
Si Si3 0.668186 0.806971 0.880691
Si Si4 0.086136 0.809321 0.568566
Si Si5 0.416613 0.690214 0.795778
Si Si6 0.586717 0.500000 0.130210
O O1 0.113661 0.829200 0.259518
O O2 0.118182 0.000000 0.182005
O O3 0.000000 0.000000 0.230829
O O4 0.905217 0.500000 0.464313
O O5 0.870749 0.205370 0.429573
O O6 0.885829 0.235527 0.517515
O O7 0.000000 0.247383 0.462428
O O8 0.750000 0.750000 0.886982
O O9 0.628358 0.691586 0.842905
O O10 0.664513 0.000000 0.862811
O O11 0.116667 0.669908 0.604655
O O12 0.000000 0.798652 0.568505
O O13 0.112465 0.000000 0.582658
O O14 0.500000 0.731453 0.808072
O O15 0.409141 0.500000 0.774137
O O16 0.500000 0.500000 0.130045
#
# Coordination Sequence:
#
# PCOD8186079 Si02
#       6
#     8  16  16  16  16   8
#     4   9  18  32  52  77 106 142 179 218 274 320
#     4  10  19  33  53  78 110 146 181 218 263 319
#     4  12  24  37  53  77 110 141 185 225 268 321
#     4   9  16  27  45  72 107 143 177 213 261 316
#     4  10  20  36  56  79 110 144 180 222 267 322
#     4   9  16  28  46  73 108 138 170 222 270 312
#
# _framework density 19.099623999999999
#
# number of rings (size 3 to 8) (size 9 to 14) (size 15 to 20)
#    0.000    2.000    2.000    3.000    0.000    4.400 
#    0.000    4.000    0.000    0.000    0.000    1.400 
#    0.000    0.000    0.000    0.000    0.000    0.000 
#
# Total GULP energy -248006.017933 kJ/mol
# GULP energy per Si atom -12400.300897 kJ/mol
# Density = 1.905615 g / cm^3
# Si number density = 19.099624 Si / 1000 Ang^3
#
#
#
# Elastic Constant Matrix: (Units=GPa)
#
#
# Indices 1 2 3 4 5 6 
#
# 1 44.0850 23.9200 29.5321 0.0000 0.0000 0.0000
# 2 23.9200 141.1592 62.0486 0.0000 0.0000 0.0000
# 3 29.5321 62.0486 147.6960 0.0000 0.0000 0.0000
# 4 0.0000 0.0000 0.0000 29.6094 0.0000 0.0000
# 5 0.0000 0.0000 0.0000 0.0000 -1.0389 0.0000
# 6 0.0000 0.0000 0.0000 0.0000 0.0000 12.1817
#
#
#
# Elastic Compliance Matrix: (Units=1/GPa)
#
#
# Indices 1 2 3 4 5 6 
#
# 1 0.027006 -0.002702 -0.004265 0.000000 0.000000 0.000000
# 2 -0.002702 0.008959 -0.003224 0.000000 0.000000 0.000000
# 3 -0.004265 -0.003224 0.008978 0.000000 0.000000 0.000000
# 4 0.000000 0.000000 0.000000 0.033773 0.000000 0.000000
# 5 0.000000 0.000000 0.000000 0.000000 -0.962599 0.000000
# 6 0.000000 0.000000 0.000000 0.000000 0.000000 0.082090
#
#
# Mechanical properties :
#
#
# Convention : Reuss Voigt Hill
#
# Bulk Modulus (GPa) = 40.71211 62.66019 51.68615
# Shear Modulus (GPa) = -6.46643 22.64641 8.08999
#
# Velocity S-wave (km/s) = -1.84200 3.44713 2.06031
# Velocity P-wave (km/s) = 4.10341 6.98011 5.72538
#
# Compressibility (1/GPa) = 0.02456272
#
# Stress axis : x y z
#
# Youngs Moduli (GPa) = 37.02830 111.62013 111.38692
#
# Poissons Ratio (x) = 0.30155 0.47507
# Poissons Ratio (y) = 0.10004 0.35906
# Poissons Ratio (z) = 0.15793 0.35981
#
# Static dielectric constant tensor:
#      x y z
#    x 2.989590 0.000000 0.000000 
#    y 0.000000 3.754270 0.000000 
#    z 0.000000 0.000000 3.561750 
# 
# 
# High freq. dielectric constant tensor:
#      x y z
#    x 1.684460 0.000000 0.000000 
#    y 0.000000 1.765220 0.000000 
#    z 0.000000 0.000000 1.739970 
# 
# From -- ./inp_files/31279.got.cif
#   From: 2010.03.12/outbox.cif.g09.slc.cpg/sg42_16_cif.got.tgz:31279.got - 2010.04.14 02:04:31.
