data_PCOD8186730
_publ_section_title
;
Structure prediction by ZEFSAII (Michael W. Deem and Ramdas Pophale) SiO2 
 PCOD8186730
Probable space group: F M M 2
;
_chemical_formula_sum "Si O2"
_cell_formula_units_Z 64
_cell_length_a 34.881611
_cell_length_b 8.932019
_cell_length_c 10.027681
_cell_angle_alpha 90.000000
_cell_angle_beta 90.000000
_cell_angle_gamma 90.000000
_cell_volume 3124.256503
_symmetry_space_group_name_H-M "F M M 2"
_symmetry_group_IT_number 42
_symmetry_cell_setting 'orthorhombic'
loop_
_space_group_symop_operation_xyz
x,y,z
-x,-y,z
-x,y,z
x,-y,z
x,1/2+y,1/2+z
-x,1/2-y,1/2+z
-x,1/2+y,1/2+z
x,1/2-y,1/2+z
1/2+x,y,1/2+z
1/2-x,-y,1/2+z
1/2-x,y,1/2+z
1/2+x,-y,1/2+z
1/2+x,1/2+y,z
1/2-x,1/2-y,z
1/2-x,1/2+y,z
1/2+x,1/2-y,z
loop_
_atom_site_type_symbol
_atom_site_label
_atom_site_fract_x
_atom_site_fract_y
_atom_site_fract_z
Si Si1 0.334087 0.174463 0.920270
Si Si2 0.456008 0.171923 0.667313
Si Si3 0.413434 0.325484 0.897124
Si Si4 0.209529 0.825551 0.153232
O O1 0.375085 0.232090 0.871645
O O2 0.303547 0.206644 0.803734
O O3 0.336796 0.000000 0.952900
O O4 0.321935 0.260635 0.052996
O O5 0.500000 0.201935 0.629246
O O6 0.444634 0.279190 0.788008
O O7 0.430146 0.213955 0.541232
O O8 0.449535 0.000000 0.709778
O O9 0.404202 0.500000 0.882955
O O10 0.250000 0.750000 0.125938
O O11 0.213660 0.000000 0.124079
#
# Coordination Sequence:
#
# PCOD8186730 Si02
#       4
#    16  16  16  16
#     4  11  24  41  62  89 121 158 199 243 294 351
#     4  10  22  40  60  85 119 156 196 244 296 352
#     4  11  23  39  61  89 120 155 198 246 295 350
#     4  11  24  41  62  89 120 155 197 244 294 350
#
# _framework density 20.484874999999999
#
# number of rings (size 3 to 8) (size 9 to 14) (size 15 to 20)
#    0.000    1.250    0.000    5.250    0.000   15.500 
#    0.000    0.000    0.000    0.000    0.000    0.000 
#    0.000    0.000    0.000    0.000    0.000    0.000 
#
# Total GULP energy -198540.444757 kJ/mol
# GULP energy per Si atom -12408.777797 kJ/mol
# Density = 2.043825 g / cm^3
# Si number density = 20.484875 Si / 1000 Ang^3
#
#
#
# Elastic Constant Matrix: (Units=GPa)
#
#
# Indices 1 2 3 4 5 6 
#
# 1 96.4254 38.6691 15.9287 0.0000 0.0000 0.0000
# 2 38.6691 99.5296 61.7857 0.0000 0.0000 0.0000
# 3 15.9287 61.7857 88.6008 0.0000 0.0000 0.0000
# 4 0.0000 0.0000 0.0000 37.7894 0.0000 0.0000
# 5 0.0000 0.0000 0.0000 0.0000 36.8472 0.0000
# 6 0.0000 0.0000 0.0000 0.0000 0.0000 38.2850
#
#
#
# Elastic Compliance Matrix: (Units=1/GPa)
#
#
# Indices 1 2 3 4 5 6 
#
# 1 0.012484 -0.006096 0.002007 0.000000 0.000000 0.000000
# 2 -0.006096 0.020693 -0.013335 0.000000 0.000000 0.000000
# 3 0.002007 -0.013335 0.020225 0.000000 0.000000 0.000000
# 4 0.000000 0.000000 0.000000 0.026462 0.000000 0.000000
# 5 0.000000 0.000000 0.000000 0.000000 0.027139 0.000000
# 6 0.000000 0.000000 0.000000 0.000000 0.000000 0.026120
#
#
# Mechanical properties :
#
#
# Convention : Reuss Voigt Hill
#
# Bulk Modulus (GPa) = 53.89612 57.48031 55.68822
# Shear Modulus (GPa) = 28.70987 33.79579 31.25283
#
# Velocity S-wave (km/s) = 3.74774 4.06617 3.91020
# Velocity P-wave (km/s) = 6.71526 7.08278 6.90147
#
# Compressibility (1/GPa) = 0.01855421
#
# Stress axis : x y z
#
# Youngs Moduli (GPa) = 80.10361 48.32443 49.44436
#
# Poissons Ratio (x) = 0.29458 -0.09921
# Poissons Ratio (y) = 0.48830 0.65932
# Poissons Ratio (z) = -0.16073 0.64439
#
# Static dielectric constant tensor:
#      x y z
#    x 3.683280 0.000000 0.000000 
#    y 0.000000 3.757850 0.000000 
#    z 0.000000 0.000000 3.672230 
# 
# 
# High freq. dielectric constant tensor:
#      x y z
#    x 1.814720 0.000000 0.000000 
#    y 0.000000 1.809390 0.000000 
#    z 0.000000 0.000000 1.810450 
# 
# From -- ./inp_files/2213.got.cif
#   From: 2010.03.12/outbox.cif.g09.slc.cpg/sg42_2_cif.got.tgz:2213.got - 2010.04.14 02:04:31.
