data_PCOD8186916
_publ_section_title
;
Structure prediction by ZEFSAII (Michael W. Deem and Ramdas Pophale) SiO2 
 PCOD8186916
Probable space group: F D D 2
;
_chemical_formula_sum "Si O2"
_cell_formula_units_Z 128
_cell_length_a 21.138432
_cell_length_b 17.517857
_cell_length_c 19.530065
_cell_angle_alpha 90.000000
_cell_angle_beta 90.000000
_cell_angle_gamma 90.000000
_cell_volume 7231.983635
_symmetry_space_group_name_H-M "F D D 2"
_symmetry_group_IT_number 43
_symmetry_cell_setting 'orthorhombic'
loop_
_space_group_symop_operation_xyz
x,y,z
-x,-y,z
1/4-x,1/4+y,1/4+z
1/4+x,1/4-y,1/4+z
x,1/2+y,1/2+z
-x,1/2-y,1/2+z
1/4-x,3/4+y,3/4+z
1/4+x,3/4-y,3/4+z
1/2+x,y,1/2+z
1/2-x,-y,1/2+z
3/4-x,1/4+y,3/4+z
3/4+x,1/4-y,3/4+z
1/2+x,1/2+y,z
1/2-x,1/2-y,z
3/4-x,3/4+y,1/4+z
3/4+x,3/4-y,1/4+z
loop_
_atom_site_type_symbol
_atom_site_label
_atom_site_fract_x
_atom_site_fract_y
_atom_site_fract_z
Si Si1 0.420191 0.664036 0.402740
Si Si2 0.555211 0.554900 0.570222
Si Si3 0.251157 0.041626 0.531022
Si Si4 0.886634 0.268717 0.872216
Si Si5 0.697837 0.315083 0.967900
Si Si6 0.723143 0.456817 0.247633
Si Si7 0.907494 0.670970 0.574103
Si Si8 0.136636 0.990179 0.456853
O O1 0.358433 0.709588 0.377882
O O2 0.467748 0.654591 0.338481
O O3 0.456320 0.704641 0.465713
O O4 0.392198 0.585224 0.426944
O O5 0.500000 0.500000 0.595749
O O6 0.534599 0.643406 0.558109
O O7 0.579340 0.528034 0.496986
O O8 0.309610 0.995517 0.566205
O O9 0.273226 0.099283 0.470018
O O10 0.200401 0.979637 0.503237
O O11 0.845783 0.196245 0.899278
O O12 0.920711 0.307030 0.938385
O O13 0.839503 0.329245 0.834387
O O14 0.750000 0.250000 0.967586
O O15 0.657316 0.305061 0.036781
O O16 0.715106 0.541633 0.280593
O O17 0.908803 0.703614 0.648946
#
# Coordination Sequence:
#
# PCOD8186916 Si02
#       8
#    16  16  16  16  16  16  16  16
#     4  10  20  32  46  72 105 126 156 200 242 294
#     4  11  20  29  47  73  98 127 158 192 245 293
#     4   9  20  31  45  73 100 128 159 194 242 295
#     4   9  18  31  44  67 102 129 156 194 236 295
#     4  10  18  27  44  68 100 125 155 193 240 291
#     4  10  18  30  45  70 101 131 155 192 242 294
#     4  10  18  27  45  68  96 131 158 184 241 301
#     4  11  18  28  47  70  99 127 156 192 242 293
#
# _framework density 17.699155000000001
#
# number of rings (size 3 to 8) (size 9 to 14) (size 15 to 20)
#    0.000    2.000    3.750    1.500    3.500    0.500 
#    0.000    0.000    0.000    3.000    0.000    0.000 
#    0.000    0.000    0.000    0.000    0.000    0.000 
#
# Total GULP energy -396419.100153 kJ/mol
# GULP energy per Si atom -12388.096880 kJ/mol
# Density = 1.765887 g / cm^3
# Si number density = 17.699155 Si / 1000 Ang^3
#
#
#
# Elastic Constant Matrix: (Units=GPa)
#
#
# Indices 1 2 3 4 5 6 
#
# 1 88.8769 25.4417 32.8894 0.0000 0.0000 0.0000
# 2 25.4417 35.0631 19.5729 0.0000 0.0000 0.0000
# 3 32.8894 19.5729 62.5332 0.0000 0.0000 0.0000
# 4 0.0000 0.0000 0.0000 24.5044 0.0000 0.0000
# 5 0.0000 0.0000 0.0000 0.0000 23.1323 0.0000
# 6 0.0000 0.0000 0.0000 0.0000 0.0000 29.0017
#
#
#
# Elastic Compliance Matrix: (Units=1/GPa)
#
#
# Indices 1 2 3 4 5 6 
#
# 1 0.015711 -0.008224 -0.005689 0.000000 0.000000 0.000000
# 2 -0.008224 0.038863 -0.007839 0.000000 0.000000 0.000000
# 3 -0.005689 -0.007839 0.021437 0.000000 0.000000 0.000000
# 4 0.000000 0.000000 0.000000 0.040809 0.000000 0.000000
# 5 0.000000 0.000000 0.000000 0.000000 0.043230 0.000000
# 6 0.000000 0.000000 0.000000 0.000000 0.000000 0.034481
#
#
# Mechanical properties :
#
#
# Convention : Reuss Voigt Hill
#
# Bulk Modulus (GPa) = 30.76203 38.03122 34.39663
# Shear Modulus (GPa) = 20.09079 22.56563 21.32821
#
# Velocity S-wave (km/s) = 3.37282 3.57453 3.47514
# Velocity P-wave (km/s) = 5.70843 6.21052 5.96476
#
# Compressibility (1/GPa) = 0.03250760
#
# Stress axis : x y z
#
# Youngs Moduli (GPa) = 63.64965 25.73130 46.64791
#
# Poissons Ratio (x) = 0.21162 0.26538
# Poissons Ratio (y) = 0.52346 0.36566
# Poissons Ratio (z) = 0.36211 0.20170
#
# Static dielectric constant tensor:
#      x y z
#    x 3.444200 0.000000 0.000000 
#    y 0.000000 3.054070 0.000000 
#    z 0.000000 0.000000 3.314480 
# 
# 
# High freq. dielectric constant tensor:
#      x y z
#    x 1.686160 0.000000 0.000000 
#    y 0.000000 1.638330 0.000000 
#    z 0.000000 0.000000 1.675090 
# 
# From -- ./inp_files/14368.got.cif
#   From: 2010.06.25/outbox.cif.g09.slc.cpg/sg43_8_cif.got.tgz:14368.got - 2010.06.26 16:48:59.
