data_PCOD8186943
_publ_section_title
;
Structure prediction by ZEFSAII (Michael W. Deem and Ramdas Pophale) SiO2 
 PCOD8186943
Probable space group: F D D 2
;
_chemical_formula_sum "Si O2"
_cell_formula_units_Z 104
_cell_length_a 16.246313
_cell_length_b 16.246311
_cell_length_c 19.408913
_cell_angle_alpha 90.000000
_cell_angle_beta 90.000000
_cell_angle_gamma 90.000000
_cell_volume 5122.840001
_symmetry_space_group_name_H-M "F D D 2"
_symmetry_group_IT_number 43
_symmetry_cell_setting 'orthorhombic'
loop_
_space_group_symop_operation_xyz
x,y,z
-x,-y,z
1/4-x,1/4+y,1/4+z
1/4+x,1/4-y,1/4+z
x,1/2+y,1/2+z
-x,1/2-y,1/2+z
1/4-x,3/4+y,3/4+z
1/4+x,3/4-y,3/4+z
1/2+x,y,1/2+z
1/2-x,-y,1/2+z
3/4-x,1/4+y,3/4+z
3/4+x,1/4-y,3/4+z
1/2+x,1/2+y,z
1/2-x,1/2-y,z
3/4-x,3/4+y,1/4+z
3/4+x,3/4-y,1/4+z
loop_
_atom_site_type_symbol
_atom_site_label
_atom_site_fract_x
_atom_site_fract_y
_atom_site_fract_z
Si Si1 0.874551 0.874551 0.492670
Si Si2 0.498656 0.864911 0.329972
Si Si3 0.114911 0.751344 0.579972
Si Si4 0.607609 0.892390 0.888886
Si Si5 0.260009 0.494532 0.697678
Si Si6 0.500000 0.500000 0.487850
Si Si7 0.994532 0.760009 0.697678
O O1 0.833831 0.833830 0.559979
O O2 0.924536 0.808382 0.446952
O O3 0.939567 0.939571 0.529706
O O4 0.808381 0.924535 0.446952
O O5 0.410788 0.910788 0.320551
O O6 0.506805 0.829571 0.407651
O O7 0.508572 0.789877 0.275961
O O8 0.571831 0.928169 0.317252
O O9 0.039877 0.741429 0.525961
O O10 0.079571 0.743196 0.657651
O O11 0.584534 0.798077 0.905313
O O12 0.554269 0.945724 0.938962
O O13 0.701921 0.915466 0.905314
#
# Coordination Sequence:
#
# PCOD8186943 Si02
#       7
#    16  16  16  16  16   8  16
#     4  10  20  36  60  90 120 152 190 245 309 366
#     4  11  24  42  61  89 124 166 208 255 310 373
#     4  11  24  42  61  89 124 166 208 255 310 373
#     4  10  18  36  60  86 116 148 188 250 301 355
#     4  11  21  40  64  90 121 156 203 256 309 366
#     4   8  20  32  52  88 116 140 188 236 288 354
#     4  11  21  40  64  90 121 156 203 256 309 366
#
# _framework density 20.301238999999999
#
# number of rings (size 3 to 8) (size 9 to 14) (size 15 to 20)
#    0.000    1.538    4.615    0.923    0.000    0.000 
#    8.308    0.000    0.000    0.000    0.000    0.000 
#    0.000    0.000    0.000    0.000    0.000    0.000 
#
# Total GULP energy -322255.174178 kJ/mol
# GULP energy per Si atom -12394.429776 kJ/mol
# Density = 2.025503 g / cm^3
# Si number density = 20.301239 Si / 1000 Ang^3
#
#
#
# Elastic Constant Matrix: (Units=GPa)
#
#
# Indices 1 2 3 4 5 6 
#
# 1 73.5500 23.3291 28.3282 0.0000 0.0000 0.0000
# 2 23.3291 73.5488 28.3287 0.0000 0.0000 0.0000
# 3 28.3282 28.3287 103.9973 0.0000 0.0000 0.0000
# 4 0.0000 0.0000 0.0000 43.9223 0.0000 0.0000
# 5 0.0000 0.0000 0.0000 0.0000 43.9222 0.0000
# 6 0.0000 0.0000 0.0000 0.0000 0.0000 21.0988
#
#
#
# Elastic Compliance Matrix: (Units=1/GPa)
#
#
# Indices 1 2 3 4 5 6 
#
# 1 0.016095 -0.003817 -0.003344 0.000000 0.000000 0.000000
# 2 -0.003817 0.016095 -0.003345 0.000000 0.000000 0.000000
# 3 -0.003344 -0.003345 0.011438 0.000000 0.000000 0.000000
# 4 0.000000 0.000000 0.000000 0.022767 0.000000 0.000000
# 5 0.000000 0.000000 0.000000 0.000000 0.022768 0.000000
# 6 0.000000 0.000000 0.000000 0.000000 0.000000 0.047396
#
#
# Mechanical properties :
#
#
# Convention : Reuss Voigt Hill
#
# Bulk Modulus (GPa) = 44.21659 45.67423 44.94541
# Shear Modulus (GPa) = 30.28285 33.19600 31.73943
#
# Velocity S-wave (km/s) = 3.86641 4.04811 3.95830
# Velocity P-wave (km/s) = 6.46217 6.66308 6.56340
#
# Compressibility (1/GPa) = 0.02261594
#
# Stress axis : x y z
#
# Youngs Moduli (GPa) = 62.13102 62.12961 87.43010
#
# Poissons Ratio (x) = 0.23715 0.29240
# Poissons Ratio (y) = 0.23716 0.29242
# Poissons Ratio (z) = 0.20779 0.20780
#
# Static dielectric constant tensor:
#      x y z
#    x 3.848680 0.000000 0.000000 
#    y 0.000000 3.848700 0.000000 
#    z 0.000000 0.000000 3.453040 
# 
# 
# High freq. dielectric constant tensor:
#      x y z
#    x 1.784080 0.000000 0.000000 
#    y 0.000000 1.784080 0.000000 
#    z 0.000000 0.000000 1.789160 
# 
# From -- ./inp_files/14250.got.cif
#   From: 2010.06.25/outbox.cif.g09.slc.cpg/sg43_8_cif.got.tgz:14250.got - 2010.06.26 16:48:59.
