data_PCOD8186966
_publ_section_title
;
Structure prediction by ZEFSAII (Michael W. Deem and Ramdas Pophale) SiO2 
 PCOD8186966
Probable space group: F D D 2
;
_chemical_formula_sum "Si O2"
_cell_formula_units_Z 120
_cell_length_a 26.352566
_cell_length_b 21.088711
_cell_length_c 9.486960
_cell_angle_alpha 90.000000
_cell_angle_beta 90.000000
_cell_angle_gamma 90.000000
_cell_volume 5272.298789
_symmetry_space_group_name_H-M "F D D 2"
_symmetry_group_IT_number 43
_symmetry_cell_setting 'orthorhombic'
loop_
_space_group_symop_operation_xyz
x,y,z
-x,-y,z
1/4-x,1/4+y,1/4+z
1/4+x,1/4-y,1/4+z
x,1/2+y,1/2+z
-x,1/2-y,1/2+z
1/4-x,3/4+y,3/4+z
1/4+x,3/4-y,3/4+z
1/2+x,y,1/2+z
1/2-x,-y,1/2+z
3/4-x,1/4+y,3/4+z
3/4+x,1/4-y,3/4+z
1/2+x,1/2+y,z
1/2-x,1/2-y,z
3/4-x,3/4+y,1/4+z
3/4+x,3/4-y,1/4+z
loop_
_atom_site_type_symbol
_atom_site_label
_atom_site_fract_x
_atom_site_fract_y
_atom_site_fract_z
Si Si1 0.016579 0.638773 0.596980
Si Si2 0.750000 0.250000 0.422661
Si Si3 0.178188 0.675818 0.975739
Si Si4 0.593749 0.818827 0.926624
Si Si5 0.754583 0.529263 0.823766
Si Si6 0.050192 0.120105 0.787272
Si Si7 0.333437 0.735491 0.225511
Si Si8 0.928307 0.850775 0.373173
O O1 0.046097 0.635455 0.451118
O O2 0.060606 0.635166 0.711972
O O3 0.977986 0.579256 0.626137
O O4 0.986261 0.705493 0.609027
O O5 0.733369 0.307607 0.519200
O O6 0.705131 0.224584 0.321046
O O7 0.130482 0.667753 0.874733
O O8 0.187437 0.621248 0.091171
O O9 0.167251 0.739935 0.064889
O O10 0.612914 0.765427 0.811712
O O11 0.555888 0.789559 0.043336
O O12 0.641295 0.855318 0.998971
O O13 0.786333 0.544911 0.682762
O O14 0.776304 0.571301 0.951254
O O15 0.313582 0.662570 0.222178
#
# Coordination Sequence:
#
# PCOD8186966 Si02
#       8
#    16   8  16  16  16  16  16  16
#     4  12  28  44  66 105 148 182 226 299 363 418
#     4  10  18  42  68  98 128 172 230 282 342 418
#     4  11  23  41  72 100 135 183 237 286 353 420
#     4  10  23  42  72 104 130 189 240 288 352 427
#     4  12  23  47  73 100 140 187 239 292 354 432
#     4  11  25  44  68 104 138 181 234 293 356 424
#     4  10  21  41  73  98 133 176 243 289 337 433
#     4  11  24  43  68 103 133 183 241 276 357 419
#
# _framework density 22.760470999999999
#
# number of rings (size 3 to 8) (size 9 to 14) (size 15 to 20)
#    0.000    1.067    5.333    2.400    5.600    2.133 
#    7.200    0.000    0.000    0.000    0.000    0.000 
#    0.000    0.000    0.000    0.000    0.000    0.000 
#
# Total GULP energy -371908.261535 kJ/mol
# GULP energy per Si atom -12396.942051 kJ/mol
# Density = 2.270867 g / cm^3
# Si number density = 22.760471 Si / 1000 Ang^3
#
#
#
# Elastic Constant Matrix: (Units=GPa)
#
#
# Indices 1 2 3 4 5 6 
#
# 1 85.4040 21.1271 48.9457 0.0007 -0.0002 -0.0001
# 2 21.1271 48.6507 11.7795 -0.0003 -0.0002 0.0000
# 3 48.9457 11.7795 126.4874 0.0008 -0.0004 -0.0002
# 4 0.0007 -0.0003 0.0008 30.2159 -0.0004 -0.0002
# 5 -0.0002 -0.0002 -0.0004 -0.0004 30.5226 0.0000
# 6 -0.0001 0.0000 -0.0002 -0.0002 0.0000 21.7336
#
#
#
# Elastic Compliance Matrix: (Units=1/GPa)
#
#
# Indices 1 2 3 4 5 6 
#
# 1 0.016477 -0.005741 -0.005841 0.000000 0.000000 0.000000
# 2 -0.005741 0.023029 0.000077 0.000000 0.000000 0.000000
# 3 -0.005841 0.000077 0.010159 0.000000 0.000000 0.000000
# 4 0.000000 0.000000 0.000000 0.033095 0.000000 0.000000
# 5 0.000000 0.000000 0.000000 0.000000 0.032763 0.000000
# 6 0.000000 0.000000 0.000000 0.000000 0.000000 0.046012
#
#
# Mechanical properties :
#
#
# Convention : Reuss Voigt Hill
#
# Bulk Modulus (GPa) = 37.51720 47.13852 42.32786
# Shear Modulus (GPa) = 25.84910 28.40707 27.12809
#
# Velocity S-wave (km/s) = 3.37367 3.53666 3.45613
# Velocity P-wave (km/s) = 5.62982 6.11825 5.87911
#
# Compressibility (1/GPa) = 0.02665444
#
# Stress axis : x y z
#
# Youngs Moduli (GPa) = 60.69094 43.42322 98.43376
#
# Poissons Ratio (x) = 0.24929 0.57498
# Poissons Ratio (y) = 0.34842 -0.00757
# Poissons Ratio (z) = 0.35451 -0.00334
#
# Static dielectric constant tensor:
#      x y z
#    x 4.025740 0.000000 0.000000 
#    y 0.000000 4.145700 0.000000 
#    z 0.000000 0.000000 3.997420 
# 
# 
# High freq. dielectric constant tensor:
#      x y z
#    x 1.900930 0.000000 0.000000 
#    y 0.000000 1.891280 0.000000 
#    z 0.000000 0.000000 1.893580 
# 
# From -- ./inp_files/4344.got.cif
#   From: 2010.06.25/outbox.cif.g09.slc.cpg/sg43_3_cif.got.tgz:4344.got - 2010.06.26 16:48:59.
