data_PCOD8186138
_publ_section_title
;
Structure prediction by ZEFSAII (Michael W. Deem and Ramdas Pophale) SiO2 
 PCOD8186138
Probable space group: F M M 2
;
_chemical_formula_sum "Si O2"
_cell_formula_units_Z 104
_cell_length_a 17.734489
_cell_length_b 15.152507
_cell_length_c 21.369281
_cell_angle_alpha 90.000000
_cell_angle_beta 90.000000
_cell_angle_gamma 90.000000
_cell_volume 5742.395260
_symmetry_space_group_name_H-M "F M M 2"
_symmetry_group_IT_number 42
_symmetry_cell_setting 'orthorhombic'
loop_
_space_group_symop_operation_xyz
x,y,z
-x,-y,z
-x,y,z
x,-y,z
x,1/2+y,1/2+z
-x,1/2-y,1/2+z
-x,1/2+y,1/2+z
x,1/2-y,1/2+z
1/2+x,y,1/2+z
1/2-x,-y,1/2+z
1/2-x,y,1/2+z
1/2+x,-y,1/2+z
1/2+x,1/2+y,z
1/2-x,1/2-y,z
1/2-x,1/2+y,z
1/2+x,1/2-y,z
loop_
_atom_site_type_symbol
_atom_site_label
_atom_site_fract_x
_atom_site_fract_y
_atom_site_fract_z
Si Si1 0.351633 0.657764 0.334010
Si Si2 0.229135 0.345669 0.032108
Si Si3 0.144980 0.000000 0.742392
Si Si4 0.186981 0.000000 0.253927
Si Si5 0.087524 0.844449 0.818142
Si Si6 0.584765 0.897034 0.961960
Si Si7 0.211079 0.601016 0.404424
Si Si8 0.760416 0.500000 0.128740
O O1 0.356995 0.585827 0.278731
O O2 0.374378 0.750484 0.302670
O O3 0.408440 0.635875 0.390627
O O4 0.267182 0.659770 0.362012
O O5 0.250000 0.250000 0.059076
O O6 0.243645 0.412897 0.087832
O O7 0.142719 0.347987 0.008036
O O8 0.286236 0.366221 0.975545
O O9 0.225667 0.000000 0.779796
O O10 0.099413 0.911561 0.760307
O O11 0.160663 0.000000 0.667882
O O12 0.190282 0.000000 0.178053
O O13 0.126034 0.886027 0.880081
O O14 0.000000 0.832615 0.832417
O O15 0.500000 0.877980 0.985308
O O16 0.604765 0.000000 0.964367
O O17 0.238290 0.500000 0.402613
#
# Coordination Sequence:
#
# PCOD8186138 Si02
#       8
#    16  16   8   8  16  16  16   8
#     4  11  18  34  56  86 112 146 183 224 281 329
#     4  11  21  36  59  85 115 144 185 236 279 326
#     4  10  23  39  55  75 112 150 185 240 273 317
#     4  10  20  36  60  80 104 149 188 241 269 314
#     4  12  23  35  55  88 122 148 178 220 283 352
#     4  10  19  34  58  88 119 145 175 225 286 344
#     4  11  18  34  59  83 116 150 179 226 282 332
#     4  10  22  39  58  83 104 143 207 237 271 315
#
# _framework density 18.110910000000001
#
# number of rings (size 3 to 8) (size 9 to 14) (size 15 to 20)
#    0.462    0.769    5.385    3.923    0.000    1.231 
#    0.000    1.538    0.000    0.000    0.000    6.462 
#    0.000    0.000    0.000    0.000    0.000    0.000 
#
# Total GULP energy -322366.402787 kJ/mol
# GULP energy per Si atom -12398.707800 kJ/mol
# Density = 1.806969 g / cm^3
# Si number density = 18.110910 Si / 1000 Ang^3
#
#
#
# Elastic Constant Matrix: (Units=GPa)
#
#
# Indices 1 2 3 4 5 6 
#
# 1 70.5145 50.1776 22.4748 0.0000 0.0000 0.0000
# 2 50.1776 161.9890 60.1926 0.0000 0.0000 0.0000
# 3 22.4748 60.1926 111.2981 0.0000 0.0000 0.0000
# 4 0.0000 0.0000 0.0000 11.7916 0.0000 0.0000
# 5 0.0000 0.0000 0.0000 0.0000 16.9975 0.0000
# 6 0.0000 0.0000 0.0000 0.0000 0.0000 23.1097
#
#
#
# Elastic Compliance Matrix: (Units=1/GPa)
#
#
# Indices 1 2 3 4 5 6 
#
# 1 0.018246 -0.005360 -0.000786 0.000000 0.000000 0.000000
# 2 -0.005360 0.009300 -0.003948 0.000000 0.000000 0.000000
# 3 -0.000786 -0.003948 0.011278 0.000000 0.000000 0.000000
# 4 0.000000 0.000000 0.000000 0.084806 0.000000 0.000000
# 5 0.000000 0.000000 0.000000 0.000000 0.058832 0.000000
# 6 0.000000 0.000000 0.000000 0.000000 0.000000 0.043272
#
#
# Mechanical properties :
#
#
# Convention : Reuss Voigt Hill
#
# Bulk Modulus (GPa) = 53.65226 67.72126 60.68676
# Shear Modulus (GPa) = 19.83070 24.44352 22.13711
#
# Velocity S-wave (km/s) = 3.31261 3.67775 3.49995
# Velocity P-wave (km/s) = 6.65731 7.45038 7.06498
#
# Compressibility (1/GPa) = 0.01863854
#
# Stress axis : x y z
#
# Youngs Moduli (GPa) = 54.80664 107.52259 88.66468
#
# Poissons Ratio (x) = 0.57631 0.06966
# Poissons Ratio (y) = 0.29376 0.35001
# Poissons Ratio (z) = 0.04306 0.42445
#
# Static dielectric constant tensor:
#      x y z
#    x 3.191360 0.000000 0.000000 
#    y 0.000000 3.469720 0.000000 
#    z 0.000000 0.000000 3.107470 
# 
# 
# High freq. dielectric constant tensor:
#      x y z
#    x 1.682610 0.000000 0.000000 
#    y 0.000000 1.717070 0.000000 
#    z 0.000000 0.000000 1.674080 
# 
# From -- ./inp_files/29936.got.cif
#   From: 2010.03.12/outbox.cif.g09.slc.cpg/sg42_15_cif.got.tgz:29936.got - 2010.04.14 02:04:31.
