data_PCOD8186063
_publ_section_title
;
Structure prediction by ZEFSAII (Michael W. Deem and Ramdas Pophale) SiO2 
 PCOD8186063
Probable space group: F M M 2
;
_chemical_formula_sum "Si O2"
_cell_formula_units_Z 80
_cell_length_a 7.703295
_cell_length_b 29.227612
_cell_length_c 19.212729
_cell_angle_alpha 90.000000
_cell_angle_beta 90.000000
_cell_angle_gamma 90.000000
_cell_volume 4325.725134
_symmetry_space_group_name_H-M "F M M 2"
_symmetry_group_IT_number 42
_symmetry_cell_setting 'orthorhombic'
loop_
_space_group_symop_operation_xyz
x,y,z
-x,-y,z
-x,y,z
x,-y,z
x,1/2+y,1/2+z
-x,1/2-y,1/2+z
-x,1/2+y,1/2+z
x,1/2-y,1/2+z
1/2+x,y,1/2+z
1/2-x,-y,1/2+z
1/2-x,y,1/2+z
1/2+x,-y,1/2+z
1/2+x,1/2+y,z
1/2-x,1/2-y,z
1/2-x,1/2+y,z
1/2+x,1/2-y,z
loop_
_atom_site_type_symbol
_atom_site_label
_atom_site_fract_x
_atom_site_fract_y
_atom_site_fract_z
Si Si1 0.000000 0.551128 0.276981
Si Si2 0.703923 0.699671 0.691408
Si Si3 0.306642 0.615770 0.280920
Si Si4 0.201917 0.117435 0.441986
Si Si5 0.702637 0.700463 0.535315
Si Si6 0.500000 0.050617 0.441932
O O1 0.171165 0.578386 0.251494
O O2 0.000000 0.547150 0.359306
O O3 0.000000 0.500000 0.244132
O O4 0.500000 0.690785 0.694573
O O5 0.750000 0.750000 0.720231
O O6 0.798362 0.662749 0.738914
O O7 0.780791 0.694813 0.612987
O O8 0.500000 0.594917 0.273494
O O9 0.266747 0.627775 0.360988
O O10 0.271993 0.161604 0.483582
O O11 0.323644 0.075658 0.466828
O O12 0.000000 0.105698 0.457864
O O13 0.500000 0.695504 0.541503
O O14 0.750000 0.750000 0.503972
O O15 0.500000 0.000000 0.475117
#
# Coordination Sequence:
#
# PCOD8186063 Si02
#       6
#     8  16  16  16  16   8
#     4   9  18  34  54  77 104 132 169 214 258 306
#     4  10  19  33  51  74 105 139 176 211 249 304
#     4  10  19  33  53  78 106 134 169 212 258 304
#     4   9  19  34  51  77 106 132 168 211 256 301
#     4   9  19  33  50  74 102 138 175 207 250 300
#     4   9  18  32  54  79 100 132 169 208 260 304
#
# _framework density 18.494008999999998
#
# number of rings (size 3 to 8) (size 9 to 14) (size 15 to 20)
#    0.000    2.600    1.000    0.600    1.400    2.400 
#    0.000    6.000    0.000    1.200    0.000    0.000 
#    0.000    0.000    0.000    0.000    0.000    0.000 
#
# Total GULP energy -247956.792784 kJ/mol
# GULP energy per Si atom -12397.839639 kJ/mol
# Density = 1.845192 g / cm^3
# Si number density = 18.494009 Si / 1000 Ang^3
#
#
#
# Elastic Constant Matrix: (Units=GPa)
#
#
# Indices 1 2 3 4 5 6 
#
# 1 97.5283 61.7592 28.1166 0.0000 0.0000 0.0000
# 2 61.7592 172.2994 52.9925 0.0000 0.0000 0.0000
# 3 28.1166 52.9925 48.2087 0.0000 0.0000 0.0000
# 4 0.0000 0.0000 0.0000 10.4822 0.0000 0.0000
# 5 0.0000 0.0000 0.0000 0.0000 15.8171 0.0000
# 6 0.0000 0.0000 0.0000 0.0000 0.0000 30.9220
#
#
#
# Elastic Compliance Matrix: (Units=1/GPa)
#
#
# Indices 1 2 3 4 5 6 
#
# 1 0.013739 -0.003717 -0.003928 0.000000 0.000000 0.000000
# 2 -0.003717 0.009774 -0.008576 0.000000 0.000000 0.000000
# 3 -0.003928 -0.008576 0.032461 0.000000 0.000000 0.000000
# 4 0.000000 0.000000 0.000000 0.095400 0.000000 0.000000
# 5 0.000000 0.000000 0.000000 0.000000 0.063223 0.000000
# 6 0.000000 0.000000 0.000000 0.000000 0.000000 0.032339
#
#
# Mechanical properties :
#
#
# Convention : Reuss Voigt Hill
#
# Bulk Modulus (GPa) = 42.49294 67.08589 54.78941
# Shear Modulus (GPa) = 17.40823 23.12212 20.26518
#
# Velocity S-wave (km/s) = 3.07137 3.53972 3.31383
# Velocity P-wave (km/s) = 5.96693 7.28418 6.65821
#
# Compressibility (1/GPa) = 0.02353332
#
# Stress axis : x y z
#
# Youngs Moduli (GPa) = 72.78368 102.31571 30.80660
#
# Poissons Ratio (x) = 0.38029 0.12099
# Poissons Ratio (y) = 0.27052 0.26419
# Poissons Ratio (z) = 0.28586 0.87744
#
# Static dielectric constant tensor:
#      x y z
#    x 3.499510 0.000000 0.000000 
#    y 0.000000 3.422010 0.000000 
#    z 0.000000 0.000000 3.332210 
# 
# 
# High freq. dielectric constant tensor:
#      x y z
#    x 1.729380 0.000000 0.000000 
#    y 0.000000 1.711850 0.000000 
#    z 0.000000 0.000000 1.685520 
# 
# From -- ./inp_files/18247.got.cif
#   From: 2010.03.12/outbox.cif.g09.slc.cpg/sg42_10_cif.got.tgz:18247.got - 2010.04.14 02:04:31.
