data_PCOD8186453
_publ_section_title
;
Structure prediction by ZEFSAII (Michael W. Deem and Ramdas Pophale) SiO2 
 PCOD8186453
Probable space group: F M M 2
;
_chemical_formula_sum "Si O2"
_cell_formula_units_Z 72
_cell_length_a 9.118805
_cell_length_b 15.016136
_cell_length_c 25.570496
_cell_angle_alpha 90.000000
_cell_angle_beta 90.000000
_cell_angle_gamma 90.000000
_cell_volume 3501.347971
_symmetry_space_group_name_H-M "F M M 2"
_symmetry_group_IT_number 42
_symmetry_cell_setting 'orthorhombic'
loop_
_space_group_symop_operation_xyz
x,y,z
-x,-y,z
-x,y,z
x,-y,z
x,1/2+y,1/2+z
-x,1/2-y,1/2+z
-x,1/2+y,1/2+z
x,1/2-y,1/2+z
1/2+x,y,1/2+z
1/2-x,-y,1/2+z
1/2-x,y,1/2+z
1/2+x,-y,1/2+z
1/2+x,1/2+y,z
1/2-x,1/2-y,z
1/2-x,1/2+y,z
1/2+x,1/2-y,z
loop_
_atom_site_type_symbol
_atom_site_label
_atom_site_fract_x
_atom_site_fract_y
_atom_site_fract_z
Si Si1 0.159444 0.327794 0.841920
Si Si2 0.168878 0.597960 0.521229
Si Si3 0.823397 0.657665 0.633939
Si Si4 0.670392 0.000000 0.192488
Si Si5 0.750000 0.250000 0.441511
Si Si6 0.667499 0.500000 0.816292
O O1 0.250000 0.250000 0.811278
O O2 0.132278 0.295815 0.902280
O O3 0.254136 0.416015 0.841535
O O4 0.000000 0.342264 0.815649
O O5 0.237783 0.500000 0.507019
O O6 0.234946 0.633269 0.575806
O O7 0.187289 0.670679 0.476410
O O8 0.000000 0.583173 0.531615
O O9 0.750000 0.750000 0.650496
O O10 0.758175 0.585786 0.673395
O O11 0.000000 0.662198 0.638414
O O12 0.679824 0.000000 0.254555
O O13 0.500000 0.000000 0.173944
O O14 0.500000 0.500000 0.835399
#
# Coordination Sequence:
#
# PCOD8186453 Si02
#       6
#    16  16  16   8   8   8
#     4  10  23  41  64  94 128 163 211 263 315 376
#     4  10  20  36  60  91 128 172 213 253 307 370
#     4  11  22  40  65  95 130 171 211 259 312 373
#     4  11  25  45  66  95 124 163 214 267 324 381
#     4  10  22  36  64  94 130 168 214 254 318 362
#     4  11  25  45  70  91 122 165 212 269 330 377
#
# _framework density 20.563509
#
# number of rings (size 3 to 8) (size 9 to 14) (size 15 to 20)
#    0.667    0.889    2.222    2.667    1.556    2.667 
#    0.000    0.000    0.000    0.000    0.000    0.000 
#    0.000    0.000    0.000    0.000    0.000    0.000 
#
# Total GULP energy -223018.169586 kJ/mol
# GULP energy per Si atom -12389.898310 kJ/mol
# Density = 2.051671 g / cm^3
# Si number density = 20.563509 Si / 1000 Ang^3
#
#
#
# Elastic Constant Matrix: (Units=GPa)
#
#
# Indices 1 2 3 4 5 6 
#
# 1 141.8359 71.6793 24.9356 0.0000 0.0000 0.0000
# 2 71.6793 202.3492 36.8705 0.0000 0.0000 0.0000
# 3 24.9356 36.8705 61.0652 0.0000 0.0000 0.0000
# 4 0.0000 0.0000 0.0000 2.9548 0.0000 0.0000
# 5 0.0000 0.0000 0.0000 0.0000 19.5533 0.0000
# 6 0.0000 0.0000 0.0000 0.0000 0.0000 34.7208
#
#
#
# Elastic Compliance Matrix: (Units=1/GPa)
#
#
# Indices 1 2 3 4 5 6 
#
# 1 0.008783 -0.002762 -0.001919 0.000000 0.000000 0.000000
# 2 -0.002762 0.006421 -0.002749 0.000000 0.000000 0.000000
# 3 -0.001919 -0.002749 0.018820 0.000000 0.000000 0.000000
# 4 0.000000 0.000000 0.000000 0.338434 0.000000 0.000000
# 5 0.000000 0.000000 0.000000 0.000000 0.051142 0.000000
# 6 0.000000 0.000000 0.000000 0.000000 0.000000 0.028801
#
#
# Mechanical properties :
#
#
# Convention : Reuss Voigt Hill
#
# Bulk Modulus (GPa) = 52.18151 74.69125 63.43638
# Shear Modulus (GPa) = 10.55631 29.56342 20.05986
#
# Velocity S-wave (km/s) = 2.26818 3.79577 3.12670
# Velocity P-wave (km/s) = 5.68247 7.45732 6.62955
#
# Compressibility (1/GPa) = 0.01916388
#
# Stress axis : x y z
#
# Youngs Moduli (GPa) = 113.84989 155.73373 53.13593
#
# Poissons Ratio (x) = 0.43009 0.10198
# Poissons Ratio (y) = 0.31442 0.14609
# Poissons Ratio (z) = 0.21850 0.42816
#
# Static dielectric constant tensor:
#      x y z
#    x 3.646810 0.000000 0.000000 
#    y 0.000000 3.824290 0.000000 
#    z 0.000000 0.000000 3.565030 
# 
# 
# High freq. dielectric constant tensor:
#      x y z
#    x 1.796000 0.000000 0.000000 
#    y 0.000000 1.827330 0.000000 
#    z 0.000000 0.000000 1.791000 
# 
# From -- ./inp_files/31155.got.cif
#   From: 2010.03.12/outbox.cif.g09.slc.cpg/sg42_16_cif.got.tgz:31155.got - 2010.04.14 02:04:31.
