data_PCOD8186035
_publ_section_title
;
Structure prediction by ZEFSAII (Michael W. Deem and Ramdas Pophale) SiO2 
 PCOD8186035
Probable space group: F M M 2
;
_chemical_formula_sum "Si O2"
_cell_formula_units_Z 68
_cell_length_a 15.803551
_cell_length_b 7.933837
_cell_length_c 26.953611
_cell_angle_alpha 90.000000
_cell_angle_beta 90.000000
_cell_angle_gamma 90.000000
_cell_volume 3379.519154
_symmetry_space_group_name_H-M "F M M 2"
_symmetry_group_IT_number 42
_symmetry_cell_setting 'orthorhombic'
loop_
_space_group_symop_operation_xyz
x,y,z
-x,-y,z
-x,y,z
x,-y,z
x,1/2+y,1/2+z
-x,1/2-y,1/2+z
-x,1/2+y,1/2+z
x,1/2-y,1/2+z
1/2+x,y,1/2+z
1/2-x,-y,1/2+z
1/2-x,y,1/2+z
1/2+x,-y,1/2+z
1/2+x,1/2+y,z
1/2-x,1/2-y,z
1/2-x,1/2+y,z
1/2+x,1/2-y,z
loop_
_atom_site_type_symbol
_atom_site_label
_atom_site_fract_x
_atom_site_fract_y
_atom_site_fract_z
Si Si1 0.000000 0.500000 0.116810
Si Si2 0.500000 0.201931 0.540079
Si Si3 0.157584 0.802494 0.973047
Si Si4 0.905389 0.000000 0.711344
Si Si5 0.842773 0.698519 0.362663
Si Si6 0.404034 0.681484 0.263930
O O1 0.000000 0.323481 0.087494
O O2 0.084893 0.500000 0.151396
O O3 0.416596 0.256229 0.509612
O O4 0.500000 0.000000 0.553495
O O5 0.250000 0.750000 0.993807
O O6 0.155066 0.000000 0.968036
O O7 0.141396 0.725890 0.918020
O O8 0.858584 0.831155 0.732055
O O9 0.000000 0.000000 0.735717
O O10 0.856257 0.500000 0.362468
O O11 0.750000 0.750000 0.344588
O O12 0.905232 0.780579 0.322829
O O13 0.500000 0.666130 0.245678
O O14 0.359204 0.500000 0.253578
#
# Coordination Sequence:
#
# PCOD8186035 Si02
#       6
#     4   8  16   8  16  16
#     4  10  22  38  64  86 102 150 194 250 300 360
#     4  10  22  40  59  91 115 151 202 252 300 353
#     4   9  20  36  56  85 124 162 194 242 291 346
#     4   8  18  36  54  81 105 138 183 239 287 333
#     4  10  19  32  51  79 120 158 188 225 277 344
#     4  10  19  32  53  82 110 145 184 225 277 333
#
# _framework density 20.121206000000001
#
# number of rings (size 3 to 8) (size 9 to 14) (size 15 to 20)
#    0.353    2.118    1.176    0.706    3.294    1.882 
#    0.000    0.000    0.000    1.412    0.000    0.000 
#    0.000    0.000    0.000    0.000    0.000    0.000 
#
# Total GULP energy -210605.644826 kJ/mol
# GULP energy per Si atom -12388.567343 kJ/mol
# Density = 2.007541 g / cm^3
# Si number density = 20.121206 Si / 1000 Ang^3
#
#
#
# Elastic Constant Matrix: (Units=GPa)
#
#
# Indices 1 2 3 4 5 6 
#
# 1 62.7883 22.3695 37.5460 0.0000 0.0000 0.0000
# 2 22.3695 139.0302 65.1705 0.0000 0.0000 0.0000
# 3 37.5460 65.1705 125.5501 0.0000 0.0000 0.0000
# 4 0.0000 0.0000 0.0000 28.2041 0.0000 0.0000
# 5 0.0000 0.0000 0.0000 0.0000 8.2949 0.0000
# 6 0.0000 0.0000 0.0000 0.0000 0.0000 21.8338
#
#
#
# Elastic Compliance Matrix: (Units=1/GPa)
#
#
# Indices 1 2 3 4 5 6 
#
# 1 0.019425 -0.000532 -0.005533 0.000000 0.000000 0.000000
# 2 -0.000532 0.009520 -0.004783 0.000000 0.000000 0.000000
# 3 -0.005533 -0.004783 0.012102 0.000000 0.000000 0.000000
# 4 0.000000 0.000000 0.000000 0.035456 0.000000 0.000000
# 5 0.000000 0.000000 0.000000 0.000000 0.120556 0.000000
# 6 0.000000 0.000000 0.000000 0.000000 0.000000 0.045801
#
#
# Mechanical properties :
#
#
# Convention : Reuss Voigt Hill
#
# Bulk Modulus (GPa) = 51.67396 64.17117 57.92257
# Shear Modulus (GPa) = 18.44990 25.15208 21.80099
#
# Velocity S-wave (km/s) = 3.03138 3.53941 3.29520
# Velocity P-wave (km/s) = 6.16356 6.97601 6.58233
#
# Compressibility (1/GPa) = 0.01935211
#
# Stress axis : x y z
#
# Youngs Moduli (GPa) = 51.48119 105.04064 82.62988
#
# Poissons Ratio (x) = 0.05586 0.45718
# Poissons Ratio (y) = 0.02738 0.39519
# Poissons Ratio (z) = 0.28484 0.50237
#
# Static dielectric constant tensor:
#      x y z
#    x 3.153660 0.000000 0.000000 
#    y 0.000000 4.036730 0.000000 
#    z 0.000000 0.000000 3.552000 
# 
# 
# High freq. dielectric constant tensor:
#      x y z
#    x 1.750730 0.000000 0.000000 
#    y 0.000000 1.801480 0.000000 
#    z 0.000000 0.000000 1.760790 
# 
# From -- ./inp_files/23246.got.cif
#   From: 2010.03.12/outbox.cif.g09.slc.cpg/sg42_12_cif.got.tgz:23246.got - 2010.04.14 02:04:31.
