data_PCOD8186017
_publ_section_title
;
Structure prediction by ZEFSAII (Michael W. Deem and Ramdas Pophale) SiO2 
 PCOD8186017
Probable space group: F M M 2
;
_chemical_formula_sum "Si O2"
_cell_formula_units_Z 104
_cell_length_a 28.474116
_cell_length_b 22.706609
_cell_length_c 8.421686
_cell_angle_alpha 90.000000
_cell_angle_beta 90.000000
_cell_angle_gamma 90.000000
_cell_volume 5445.046293
_symmetry_space_group_name_H-M "F M M 2"
_symmetry_group_IT_number 42
_symmetry_cell_setting 'orthorhombic'
loop_
_space_group_symop_operation_xyz
x,y,z
-x,-y,z
-x,y,z
x,-y,z
x,1/2+y,1/2+z
-x,1/2-y,1/2+z
-x,1/2+y,1/2+z
x,1/2-y,1/2+z
1/2+x,y,1/2+z
1/2-x,-y,1/2+z
1/2-x,y,1/2+z
1/2+x,-y,1/2+z
1/2+x,1/2+y,z
1/2-x,1/2-y,z
1/2-x,1/2+y,z
1/2+x,1/2-y,z
loop_
_atom_site_type_symbol
_atom_site_label
_atom_site_fract_x
_atom_site_fract_y
_atom_site_fract_z
Si Si1 0.500000 0.775796 0.830950
Si Si2 0.250000 0.250000 0.739347
Si Si3 0.193300 0.678004 0.989693
Si Si4 0.397920 0.337193 0.021837
Si Si5 0.272920 0.066545 0.842162
Si Si6 0.601664 0.216924 0.865519
Si Si7 0.500000 0.666370 0.004928
Si Si8 0.818894 0.433396 0.507000
O O1 0.452055 0.802608 0.907575
O O2 0.500000 0.784542 0.643206
O O3 0.500000 0.704870 0.845139
O O4 0.213199 0.287112 0.838713
O O5 0.219210 0.203044 0.642962
O O6 0.201675 0.608646 0.968963
O O7 0.137102 0.687218 0.991477
O O8 0.386273 0.304631 0.187558
O O9 0.450296 0.368301 0.020052
O O10 0.361589 0.388865 0.987099
O O11 0.393955 0.288077 0.883240
O O12 0.288924 0.081295 0.664433
O O13 0.286581 0.000000 0.890780
O O14 0.216453 0.075041 0.858398
O O15 0.838784 0.500000 0.513705
#
# Coordination Sequence:
#
# PCOD8186017 Si02
#       8
#     8   8  16  16  16  16   8  16
#     4   8  16  30  46  72  96 136 160 200 236 308
#     4  10  24  30  46  72 110 128 158 198 258 298
#     4  11  20  34  47  73 100 134 161 205 245 301
#     4  10  19  35  51  81  99 137 160 210 248 303
#     4  10  21  36  53  69  96 138 176 209 239 291
#     4  10  19  31  52  73 106 129 167 199 258 295
#     4   8  16  30  53  70 106 124 167 196 250 296
#     4  10  21  38  54  71 100 135 175 209 244 290
#
# _framework density 19.099928999999999
#
# number of rings (size 3 to 8) (size 9 to 14) (size 15 to 20)
#    0.000    2.154    1.538    1.846    4.308    0.000 
#    2.769    0.385    0.000    0.000    0.000    0.538 
#    0.000    0.000    0.000   45.385    0.000    0.000 
#
# Total GULP energy -322134.167016 kJ/mol
# GULP energy per Si atom -12389.775654 kJ/mol
# Density = 1.905646 g / cm^3
# Si number density = 19.099929 Si / 1000 Ang^3
#
#
#
# Elastic Constant Matrix: (Units=GPa)
#
#
# Indices 1 2 3 4 5 6 
#
# 1 135.5758 55.1803 18.0024 0.0055 0.0003 -0.0011
# 2 55.1803 80.4992 10.0281 0.0140 0.0044 -0.0013
# 3 18.0024 10.0281 34.4017 0.0138 0.0040 -0.0012
# 4 0.0055 0.0140 0.0138 16.3024 0.0027 -0.0006
# 5 0.0003 0.0044 0.0040 0.0027 16.4498 -0.0008
# 6 -0.0011 -0.0013 -0.0012 -0.0006 -0.0008 27.8168
#
#
#
# Elastic Compliance Matrix: (Units=1/GPa)
#
#
# Indices 1 2 3 4 5 6 
#
# 1 0.010637 -0.006846 -0.003570 0.000005 0.000002 0.000000
# 2 -0.006846 0.017297 -0.001459 -0.000011 -0.000004 0.000000
# 3 -0.003570 -0.001459 0.031362 -0.000024 -0.000007 0.000001
# 4 0.000005 -0.000011 -0.000024 0.061341 -0.000010 0.000001
# 5 0.000002 -0.000004 -0.000007 -0.000010 0.060791 0.000002
# 6 0.000000 0.000000 0.000001 0.000001 0.000002 0.035950
#
#
# Mechanical properties :
#
#
# Convention : Reuss Voigt Hill
#
# Bulk Modulus (GPa) = 28.13447 46.32203 37.22825
# Shear Modulus (GPa) = 19.76462 23.26487 21.51475
#
# Velocity S-wave (km/s) = 3.22032 3.49386 3.35988
# Velocity P-wave (km/s) = 5.34691 6.37034 5.88093
#
# Compressibility (1/GPa) = 0.03554359
#
# Stress axis : x y z
#
# Youngs Moduli (GPa) = 94.01553 57.81252 31.88560
#
# Poissons Ratio (x) = 0.39580 0.11384
# Poissons Ratio (y) = 0.64366 0.04654
# Poissons Ratio (z) = 0.33567 0.08438
#
# Static dielectric constant tensor:
#      x y z
#    x 3.822550 0.000000 0.000000 
#    y 0.000000 3.350230 0.000000 
#    z 0.000000 0.000000 3.431940 
# 
# 
# High freq. dielectric constant tensor:
#      x y z
#    x 1.753670 0.000000 0.000000 
#    y 0.000000 1.710320 0.000000 
#    z 0.000000 0.000000 1.735580 
# 
# From -- ./inp_files/4374.got.cif
#   From: 2010.03.12/outbox.cif.g09.slc.cpg/sg42_3_cif.got.tgz:4374.got - 2010.04.14 02:04:31.
