data_PCOD8186451
_publ_section_title
;
Structure prediction by ZEFSAII (Michael W. Deem and Ramdas Pophale) SiO2 
 PCOD8186451
Probable space group: F M M 2
;
_chemical_formula_sum "Si O2"
_cell_formula_units_Z 112
_cell_length_a 14.090775
_cell_length_b 24.184497
_cell_length_c 13.757097
_cell_angle_alpha 90.000000
_cell_angle_beta 90.000000
_cell_angle_gamma 90.000000
_cell_volume 4688.120207
_symmetry_space_group_name_H-M "F M M 2"
_symmetry_group_IT_number 42
_symmetry_cell_setting 'orthorhombic'
loop_
_space_group_symop_operation_xyz
x,y,z
-x,-y,z
-x,y,z
x,-y,z
x,1/2+y,1/2+z
-x,1/2-y,1/2+z
-x,1/2+y,1/2+z
x,1/2-y,1/2+z
1/2+x,y,1/2+z
1/2-x,-y,1/2+z
1/2-x,y,1/2+z
1/2+x,-y,1/2+z
1/2+x,1/2+y,z
1/2-x,1/2-y,z
1/2-x,1/2+y,z
1/2+x,1/2-y,z
loop_
_atom_site_type_symbol
_atom_site_label
_atom_site_fract_x
_atom_site_fract_y
_atom_site_fract_z
Si Si1 0.888550 0.619897 0.763630
Si Si2 0.105866 0.327176 0.410998
Si Si3 0.892042 0.122216 0.485196
Si Si4 0.776325 0.436600 0.150915
Si Si5 0.858417 0.759797 0.556683
Si Si6 0.387576 0.940144 0.343917
Si Si7 0.395440 0.257725 0.264971
O O1 0.873393 0.600494 0.875503
O O2 0.826649 0.583773 0.688851
O O3 0.847344 0.682366 0.754571
O O4 0.000000 0.614987 0.734139
O O5 0.102413 0.298741 0.515960
O O6 0.151942 0.389008 0.410901
O O7 0.160052 0.284528 0.337399
O O8 0.000000 0.336173 0.369741
O O9 0.814534 0.096613 0.557549
O O10 0.880180 0.189150 0.484887
O O11 0.000000 0.106695 0.515792
O O12 0.764873 0.500000 0.119654
O O13 0.853875 0.428786 0.234760
O O14 0.750000 0.750000 0.575896
O O15 0.905408 0.771650 0.660356
O O16 0.500000 0.943138 0.344805
O O17 0.347508 0.000000 0.381041
O O18 0.500000 0.268289 0.309634
#
# Coordination Sequence:
#
# PCOD8186451 Si02
#       7
#    16  16  16  16  16  16  16
#     4  10  23  44  70  98 142 189 232 291 365 442
#     4  10  20  36  60  90 126 173 223 271 332 408
#     4  11  23  44  72 103 138 184 245 305 360 423
#     4  11  24  42  69 101 135 177 234 299 360 426
#     4  12  24  35  61  98 135 176 223 287 350 424
#     4   9  19  36  59  91 133 178 223 279 344 407
#     4  10  20  38  61  88 127 173 218 273 343 413
#
# _framework density 23.890173000000001
#
# number of rings (size 3 to 8) (size 9 to 14) (size 15 to 20)
#    0.000    1.571    1.429    3.429    2.000    3.429 
#    0.000    1.429    0.000    0.857    0.000    2.000 
#    0.000    0.000    0.000    0.000    0.000    0.000 
#
# Total GULP energy -347017.223891 kJ/mol
# GULP energy per Si atom -12393.472282 kJ/mol
# Density = 2.383580 g / cm^3
# Si number density = 23.890173 Si / 1000 Ang^3
#
#
#
# Elastic Constant Matrix: (Units=GPa)
#
#
# Indices 1 2 3 4 5 6 
#
# 1 89.5957 38.8951 39.1197 0.0000 0.0000 0.0000
# 2 38.8951 161.9385 33.2861 0.0000 0.0000 0.0000
# 3 39.1197 33.2861 85.7859 0.0000 0.0000 0.0000
# 4 0.0000 0.0000 0.0000 34.9307 0.0000 0.0000
# 5 0.0000 0.0000 0.0000 0.0000 23.8969 0.0000
# 6 0.0000 0.0000 0.0000 0.0000 0.0000 6.3773
#
#
#
# Elastic Compliance Matrix: (Units=1/GPa)
#
#
# Indices 1 2 3 4 5 6 
#
# 1 0.014710 -0.002341 -0.005800 0.000000 0.000000 0.000000
# 2 -0.002341 0.007083 -0.001681 0.000000 0.000000 0.000000
# 3 -0.005800 -0.001681 0.014954 0.000000 0.000000 0.000000
# 4 0.000000 0.000000 0.000000 0.028628 0.000000 0.000000
# 5 0.000000 0.000000 0.000000 0.000000 0.041846 0.000000
# 6 0.000000 0.000000 0.000000 0.000000 0.000000 0.156806
#
#
# Mechanical properties :
#
#
# Convention : Reuss Voigt Hill
#
# Bulk Modulus (GPa) = 58.46620 62.21354 60.33987
# Shear Modulus (GPa) = 17.27888 28.10894 22.69391
#
# Velocity S-wave (km/s) = 2.69227 3.43387 3.08543
# Velocity P-wave (km/s) = 5.84726 6.46683 6.16484
#
# Compressibility (1/GPa) = 0.01710390
#
# Stress axis : x y z
#
# Youngs Moduli (GPa) = 67.98217 141.18466 66.87277
#
# Poissons Ratio (x) = 0.33051 0.38783
# Poissons Ratio (y) = 0.15914 0.11240
# Poissons Ratio (z) = 0.39427 0.23730
#
# Static dielectric constant tensor:
#      x y z
#    x 4.140730 0.000000 0.000000 
#    y 0.000000 4.752050 0.000000 
#    z 0.000000 0.000000 4.048370 
# 
# 
# High freq. dielectric constant tensor:
#      x y z
#    x 1.944640 0.000000 0.000000 
#    y 0.000000 1.945100 0.000000 
#    z 0.000000 0.000000 1.936660 
# 
# From -- ./inp_files/14260.got.cif
#   From: 2010.03.12/outbox.cif.g09.slc.cpg/sg42_8_cif.got.tgz:14260.got - 2010.04.14 02:04:31.
