data_PCOD8186815
_publ_section_title
;
Structure prediction by ZEFSAII (Michael W. Deem and Ramdas Pophale) SiO2 
 PCOD8186815
Probable space group: F M M 2
;
_chemical_formula_sum "Si O2"
_cell_formula_units_Z 96
_cell_length_a 8.719345
_cell_length_b 27.996639
_cell_length_c 20.014129
_cell_angle_alpha 90.000000
_cell_angle_beta 90.000000
_cell_angle_gamma 90.000000
_cell_volume 4885.696149
_symmetry_space_group_name_H-M "F M M 2"
_symmetry_group_IT_number 42
_symmetry_cell_setting 'orthorhombic'
loop_
_space_group_symop_operation_xyz
x,y,z
-x,-y,z
-x,y,z
x,-y,z
x,1/2+y,1/2+z
-x,1/2-y,1/2+z
-x,1/2+y,1/2+z
x,1/2-y,1/2+z
1/2+x,y,1/2+z
1/2-x,-y,1/2+z
1/2-x,y,1/2+z
1/2+x,-y,1/2+z
1/2+x,1/2+y,z
1/2-x,1/2-y,z
1/2-x,1/2+y,z
1/2+x,1/2-y,z
loop_
_atom_site_type_symbol
_atom_site_label
_atom_site_fract_x
_atom_site_fract_y
_atom_site_fract_z
Si Si1 0.181932 0.147500 0.804040
Si Si2 0.680450 0.198500 0.926930
Si Si3 0.820851 0.053719 0.586904
Si Si4 0.823682 0.853670 0.047268
Si Si5 0.181989 0.551912 0.238089
Si Si6 0.321867 0.299471 0.181711
O O1 0.257486 0.160200 0.874167
O O2 0.243255 0.094464 0.784893
O O3 0.232804 0.184611 0.747717
O O4 0.000000 0.149092 0.811106
O O5 0.500000 0.202737 0.921030
O O6 0.750000 0.250000 0.911291
O O7 0.725398 0.180822 0.000336
O O8 0.730542 0.091380 0.540643
O O9 0.758257 0.058579 0.662536
O O10 0.000000 0.065972 0.583272
O O11 0.789326 0.000000 0.560336
O O12 0.796204 0.837676 0.123286
O O13 0.000000 0.849396 0.025594
O O14 0.237920 0.500000 0.265572
O O15 0.000000 0.553092 0.235604
O O16 0.500000 0.292978 0.198956
O O17 0.250000 0.250000 0.156809
#
# Coordination Sequence:
#
# PCOD8186815 Si02
#       6
#    16  16  16  16  16  16
#     4  11  21  37  62  88 118 154 196 241 293 352
#     4  12  26  44  63  83 116 157 201 247 301 360
#     4   9  17  33  59  90 122 157 197 241 294 350
#     4  11  23  39  60  88 120 155 199 245 296 354
#     4   8  15  30  56  89 120 152 191 235 286 343
#     4  11  23  37  56  84 116 148 191 245 295 349
#
# _framework density 19.649196
#
# number of rings (size 3 to 8) (size 9 to 14) (size 15 to 20)
#    0.000    1.667    1.667    5.000    0.000    3.667 
#    0.000    0.833    0.000    5.000    0.000    0.000 
#    0.000    0.000    0.000    0.000    0.000    0.000 
#
# Total GULP energy -297651.496981 kJ/mol
# GULP energy per Si atom -12402.145708 kJ/mol
# Density = 1.960447 g / cm^3
# Si number density = 19.649196 Si / 1000 Ang^3
#
#
#
# Elastic Constant Matrix: (Units=GPa)
#
#
# Indices 1 2 3 4 5 6 
#
# 1 98.2513 38.3447 26.7475 0.0000 0.0000 0.0000
# 2 38.3447 128.7871 18.8692 0.0000 0.0000 0.0000
# 3 26.7475 18.8692 58.2427 0.0000 0.0000 0.0000
# 4 0.0000 0.0000 0.0000 31.9216 0.0000 0.0000
# 5 0.0000 0.0000 0.0000 0.0000 29.7545 0.0000
# 6 0.0000 0.0000 0.0000 0.0000 0.0000 26.1707
#
#
#
# Elastic Compliance Matrix: (Units=1/GPa)
#
#
# Indices 1 2 3 4 5 6 
#
# 1 0.012692 -0.003071 -0.004834 0.000000 0.000000 0.000000
# 2 -0.003071 0.008895 -0.001471 0.000000 0.000000 0.000000
# 3 -0.004834 -0.001471 0.019866 0.000000 0.000000 0.000000
# 4 0.000000 0.000000 0.000000 0.031327 0.000000 0.000000
# 5 0.000000 0.000000 0.000000 0.000000 0.033608 0.000000
# 6 0.000000 0.000000 0.000000 0.000000 0.000000 0.038211
#
#
# Mechanical properties :
#
#
# Convention : Reuss Voigt Hill
#
# Bulk Modulus (GPa) = 44.05125 50.35600 47.20362
# Shear Modulus (GPa) = 29.25372 30.99066 30.12219
#
# Velocity S-wave (km/s) = 3.86268 3.97570 3.91960
# Velocity P-wave (km/s) = 6.50855 6.83799 6.67530
#
# Compressibility (1/GPa) = 0.02270083
#
# Stress axis : x y z
#
# Youngs Moduli (GPa) = 78.78726 112.42761 50.33666
#
# Poissons Ratio (x) = 0.34524 0.24333
# Poissons Ratio (y) = 0.24194 0.07407
# Poissons Ratio (z) = 0.38086 0.16543
#
# Static dielectric constant tensor:
#      x y z
#    x 3.448650 0.000000 0.000000 
#    y 0.000000 3.911010 0.000000 
#    z 0.000000 0.000000 3.354220 
# 
# 
# High freq. dielectric constant tensor:
#      x y z
#    x 1.757300 0.000000 0.000000 
#    y 0.000000 1.783110 0.000000 
#    z 0.000000 0.000000 1.745010 
# 
# From -- ./inp_files/23689.got.cif
#   From: 2010.03.12/outbox.cif.g09.slc.cpg/sg42_12_cif.got.tgz:23689.got - 2010.04.14 02:04:31.
