data_PCOD8186741
_publ_section_title
;
Structure prediction by ZEFSAII (Michael W. Deem and Ramdas Pophale) SiO2 
 PCOD8186741
Probable space group: F M M 2
;
_chemical_formula_sum "Si O2"
_cell_formula_units_Z 112
_cell_length_a 15.657784
_cell_length_b 23.276847
_cell_length_c 14.118474
_cell_angle_alpha 90.000000
_cell_angle_beta 90.000000
_cell_angle_gamma 90.000000
_cell_volume 5145.673285
_symmetry_space_group_name_H-M "F M M 2"
_symmetry_group_IT_number 42
_symmetry_cell_setting 'orthorhombic'
loop_
_space_group_symop_operation_xyz
x,y,z
-x,-y,z
-x,y,z
x,-y,z
x,1/2+y,1/2+z
-x,1/2-y,1/2+z
-x,1/2+y,1/2+z
x,1/2-y,1/2+z
1/2+x,y,1/2+z
1/2-x,-y,1/2+z
1/2-x,y,1/2+z
1/2+x,-y,1/2+z
1/2+x,1/2+y,z
1/2-x,1/2-y,z
1/2-x,1/2+y,z
1/2+x,1/2-y,z
loop_
_atom_site_type_symbol
_atom_site_label
_atom_site_fract_x
_atom_site_fract_y
_atom_site_fract_z
Si Si1 0.099182 0.610492 0.766740
Si Si2 0.147987 0.327311 0.344639
Si Si3 0.806816 0.131017 0.442900
Si Si4 0.743094 0.433359 0.122709
Si Si5 0.904026 0.758780 0.503478
Si Si6 0.405349 0.935523 0.249768
Si Si7 0.403215 0.262448 0.208515
O O1 0.130118 0.592951 0.874121
O O2 0.160628 0.586360 0.683807
O O3 0.105510 0.679306 0.767365
O O4 0.000000 0.590498 0.750360
O O5 0.244589 0.340525 0.367281
O O6 0.102952 0.288941 0.423415
O O7 0.097961 0.387838 0.332457
O O8 0.153225 0.289396 0.249483
O O9 0.752030 0.094873 0.518905
O O10 0.850713 0.183504 0.495379
O O11 0.730830 0.500000 0.104635
O O12 0.832458 0.419720 0.174407
O O13 0.875680 0.726971 0.600068
O O14 0.000000 0.780866 0.507200
O O15 0.500000 0.933176 0.202409
O O16 0.389110 0.000000 0.290961
O O17 0.500000 0.240048 0.214562
#
# Coordination Sequence:
#
# PCOD8186741 Si02
#       7
#    16  16  16  16  16  16  16
#     4  11  24  46  73 104 143 187 236 296 364 432
#     4  12  22  39  62  99 138 180 224 278 345 419
#     4  12  25  40  66 103 137 180 234 297 348 424
#     4  11  26  48  72 100 138 181 234 297 362 429
#     4  11  23  39  63  98 138 181 228 281 349 425
#     4  10  22  42  69  98 132 178 230 286 348 412
#     4  10  22  40  64  94 135 179 223 279 344 417
#
# _framework density 21.765858000000001
#
# number of rings (size 3 to 8) (size 9 to 14) (size 15 to 20)
#    0.000    1.000    2.857    3.857    0.000    3.714 
#    0.000    1.429    0.000    0.000    0.000    0.000 
#    0.000    0.000    0.000    0.000    0.000    0.000 
#
# Total GULP energy -347048.995239 kJ/mol
# GULP energy per Si atom -12394.606973 kJ/mol
# Density = 2.171632 g / cm^3
# Si number density = 21.765858 Si / 1000 Ang^3
#
#
#
# Elastic Constant Matrix: (Units=GPa)
#
#
# Indices 1 2 3 4 5 6 
#
# 1 138.0962 33.6515 44.5338 0.0000 0.0000 0.0000
# 2 33.6515 110.4671 45.5605 0.0000 0.0000 0.0000
# 3 44.5338 45.5605 120.1281 0.0000 0.0000 0.0000
# 4 0.0000 0.0000 0.0000 29.0579 0.0000 0.0000
# 5 0.0000 0.0000 0.0000 0.0000 30.3451 0.0000
# 6 0.0000 0.0000 0.0000 0.0000 0.0000 44.9371
#
#
#
# Elastic Compliance Matrix: (Units=1/GPa)
#
#
# Indices 1 2 3 4 5 6 
#
# 1 0.008434 -0.001517 -0.002551 0.000000 0.000000 0.000000
# 2 -0.001517 0.011004 -0.003611 0.000000 0.000000 0.000000
# 3 -0.002551 -0.003611 0.010640 0.000000 0.000000 0.000000
# 4 0.000000 0.000000 0.000000 0.034414 0.000000 0.000000
# 5 0.000000 0.000000 0.000000 0.000000 0.032954 0.000000
# 6 0.000000 0.000000 0.000000 0.000000 0.000000 0.022253
#
#
# Mechanical properties :
#
#
# Convention : Reuss Voigt Hill
#
# Bulk Modulus (GPa) = 67.93950 68.46478 68.20214
# Shear Modulus (GPa) = 35.72354 37.19772 36.46063
#
# Velocity S-wave (km/s) = 4.05565 4.13848 4.09727
# Velocity P-wave (km/s) = 7.29470 7.37289 7.33390
#
# Compressibility (1/GPa) = 0.01471898
#
# Stress axis : x y z
#
# Youngs Moduli (GPa) = 118.57180 90.87693 93.98690
#
# Poissons Ratio (x) = 0.13786 0.23978
# Poissons Ratio (y) = 0.17987 0.33939
# Poissons Ratio (z) = 0.30250 0.32816
#
# Static dielectric constant tensor:
#      x y z
#    x 4.157190 0.000000 0.000000 
#    y 0.000000 3.910940 0.000000 
#    z 0.000000 0.000000 4.006230 
# 
# 
# High freq. dielectric constant tensor:
#      x y z
#    x 1.868420 0.000000 0.000000 
#    y 0.000000 1.848430 0.000000 
#    z 0.000000 0.000000 1.852940 
# 
# From -- ./inp_files/14261.got.cif
#   From: 2010.03.12/outbox.cif.g09.slc.cpg/sg42_8_cif.got.tgz:14261.got - 2010.04.14 02:04:31.
