data_PCOD8186604
_publ_section_title
;
Structure prediction by ZEFSAII (Michael W. Deem and Ramdas Pophale) SiO2 
 PCOD8186604
Probable space group: F M M 2
;
_chemical_formula_sum "Si O2"
_cell_formula_units_Z 80
_cell_length_a 8.931150
_cell_length_b 25.768481
_cell_length_c 17.955222
_cell_angle_alpha 90.000000
_cell_angle_beta 90.000000
_cell_angle_gamma 90.000000
_cell_volume 4132.253737
_symmetry_space_group_name_H-M "F M M 2"
_symmetry_group_IT_number 42
_symmetry_cell_setting 'orthorhombic'
loop_
_space_group_symop_operation_xyz
x,y,z
-x,-y,z
-x,y,z
x,-y,z
x,1/2+y,1/2+z
-x,1/2-y,1/2+z
-x,1/2+y,1/2+z
x,1/2-y,1/2+z
1/2+x,y,1/2+z
1/2-x,-y,1/2+z
1/2-x,y,1/2+z
1/2+x,-y,1/2+z
1/2+x,1/2+y,z
1/2-x,1/2-y,z
1/2-x,1/2+y,z
1/2+x,1/2-y,z
loop_
_atom_site_type_symbol
_atom_site_label
_atom_site_fract_x
_atom_site_fract_y
_atom_site_fract_z
Si Si1 0.676841 0.094272 0.813030
Si Si2 0.828988 0.000000 0.072859
Si Si3 0.326089 0.902071 0.469681
Si Si4 0.323485 0.500000 0.727769
Si Si5 0.176024 0.197589 0.230784
Si Si6 0.823802 0.302410 0.561497
O O1 0.500000 0.086657 0.805422
O O2 0.724500 0.089337 0.898122
O O3 0.756763 0.050829 0.765057
O O4 0.729011 0.149927 0.781643
O O5 0.715805 0.000000 0.141098
O O6 0.796750 0.949507 0.024430
O O7 0.000000 0.000000 0.102380
O O8 0.500000 0.899013 0.446352
O O9 0.271257 0.850013 0.510618
O O10 0.500000 0.500000 0.739045
O O11 0.250000 0.250000 0.262439
O O12 0.229530 0.187018 0.146115
O O13 0.000000 0.205025 0.234629
O O14 0.750000 0.250000 0.529870
O O15 0.000000 0.295600 0.558224
#
# Coordination Sequence:
#
# PCOD8186604 Si02
#       6
#    16   8  16   8  16  16
#     4  11  23  39  59  84 117 153 190 233 283 338
#     4  10  21  40  63  83 109 145 183 230 287 340
#     4  10  21  37  58  84 115 149 186 231 284 338
#     4  12  25  40  61  87 113 145 189 236 283 338
#     4   9  19  36  58  83 111 148 191 234 281 332
#     4   9  18  34  55  79 109 146 189 233 278 331
#
# _framework density 19.359895000000002
#
# number of rings (size 3 to 8) (size 9 to 14) (size 15 to 20)
#    0.000    2.000    0.000    3.300    0.000    8.000 
#    0.000    8.000    0.000    0.000    0.000    0.000 
#    0.000    0.000    0.000    0.000    0.000    0.000 
#
# Total GULP energy -248087.147970 kJ/mol
# GULP energy per Si atom -12404.357398 kJ/mol
# Density = 1.931583 g / cm^3
# Si number density = 19.359895 Si / 1000 Ang^3
#
#
#
# Elastic Constant Matrix: (Units=GPa)
#
#
# Indices 1 2 3 4 5 6 
#
# 1 70.8678 58.9949 45.5733 0.0000 0.0000 0.0000
# 2 58.9949 167.4176 67.3699 0.0000 0.0000 0.0000
# 3 45.5733 67.3699 103.5207 0.0000 0.0000 0.0000
# 4 0.0000 0.0000 0.0000 67.1563 0.0000 0.0000
# 5 0.0000 0.0000 0.0000 0.0000 33.6086 0.0000
# 6 0.0000 0.0000 0.0000 0.0000 0.0000 33.7542
#
#
#
# Elastic Compliance Matrix: (Units=1/GPa)
#
#
# Indices 1 2 3 4 5 6 
#
# 1 0.022810 -0.005415 -0.006518 0.000000 0.000000 0.000000
# 2 -0.005415 0.009378 -0.003719 0.000000 0.000000 0.000000
# 3 -0.006518 -0.003719 0.014950 0.000000 0.000000 0.000000
# 4 0.000000 0.000000 0.000000 0.014891 0.000000 0.000000
# 5 0.000000 0.000000 0.000000 0.000000 0.029754 0.000000
# 6 0.000000 0.000000 0.000000 0.000000 0.000000 0.029626
#
#
# Mechanical properties :
#
#
# Convention : Reuss Voigt Hill
#
# Bulk Modulus (GPa) = 63.15637 76.18693 69.67165
# Shear Modulus (GPa) = 31.64763 38.22835 34.93799
#
# Velocity S-wave (km/s) = 4.04753 4.44849 4.25274
# Velocity P-wave (km/s) = 7.38488 8.11318 7.75758
#
# Compressibility (1/GPa) = 0.01583372
#
# Stress axis : x y z
#
# Youngs Moduli (GPa) = 43.84052 106.63441 66.89170
#
# Poissons Ratio (x) = 0.57743 0.43598
# Poissons Ratio (y) = 0.23740 0.24878
# Poissons Ratio (z) = 0.28574 0.39658
#
# Static dielectric constant tensor:
#      x y z
#    x 3.441860 0.000000 0.000000 
#    y 0.000000 3.850290 0.000000 
#    z 0.000000 0.000000 3.554860 
# 
# 
# High freq. dielectric constant tensor:
#      x y z
#    x 1.745920 0.000000 0.000000 
#    y 0.000000 1.773270 0.000000 
#    z 0.000000 0.000000 1.754400 
# 
# From -- ./inp_files/18234.got.cif
#   From: 2010.03.12/outbox.cif.g09.slc.cpg/sg42_10_cif.got.tgz:18234.got - 2010.04.14 02:04:31.
