data_PCOD8186956
_publ_section_title
;
Structure prediction by ZEFSAII (Michael W. Deem and Ramdas Pophale) SiO2 
 PCOD8186956
Probable space group: F D D 2
;
_chemical_formula_sum "Si O2"
_cell_formula_units_Z 120
_cell_length_a 12.661142
_cell_length_b 17.751023
_cell_length_c 23.764745
_cell_angle_alpha 90.000000
_cell_angle_beta 90.000000
_cell_angle_gamma 90.000000
_cell_volume 5341.084205
_symmetry_space_group_name_H-M "F D D 2"
_symmetry_group_IT_number 43
_symmetry_cell_setting 'orthorhombic'
loop_
_space_group_symop_operation_xyz
x,y,z
-x,-y,z
1/4-x,1/4+y,1/4+z
1/4+x,1/4-y,1/4+z
x,1/2+y,1/2+z
-x,1/2-y,1/2+z
1/4-x,3/4+y,3/4+z
1/4+x,3/4-y,3/4+z
1/2+x,y,1/2+z
1/2-x,-y,1/2+z
3/4-x,1/4+y,3/4+z
3/4+x,1/4-y,3/4+z
1/2+x,1/2+y,z
1/2-x,1/2-y,z
3/4-x,3/4+y,1/4+z
3/4+x,3/4-y,1/4+z
loop_
_atom_site_type_symbol
_atom_site_label
_atom_site_fract_x
_atom_site_fract_y
_atom_site_fract_z
Si Si1 0.487574 0.708150 0.692560
Si Si2 0.122876 0.411661 0.035419
Si Si3 0.686330 0.179038 0.584560
Si Si4 0.889502 0.977044 0.632144
Si Si5 0.645210 0.886333 0.450701
Si Si6 0.000000 0.500000 0.758006
Si Si7 0.425089 0.830052 0.472355
Si Si8 0.931988 0.824353 0.579849
O O1 0.598841 0.684758 0.721580
O O2 0.441618 0.783556 0.721528
O O3 0.405143 0.639844 0.695444
O O4 0.507314 0.726555 0.626430
O O5 0.228393 0.377531 0.060942
O O6 0.105522 0.486339 0.070882
O O7 0.019233 0.358658 0.037067
O O8 0.750000 0.250000 0.610203
O O9 0.621054 0.137601 0.633367
O O10 0.610688 0.203391 0.532602
O O11 0.875273 0.888696 0.618797
O O12 0.806091 0.011052 0.677461
O O13 0.000000 0.000000 0.662803
O O14 0.725288 0.820333 0.467877
O O15 0.535223 0.872210 0.482454
O O16 0.098892 0.476780 0.796926
#
# Coordination Sequence:
#
# PCOD8186956 Si02
#       8
#    16  16  16  16  16   8  16  16
#     4  11  23  43  74 110 135 183 241 300 370 434
#     4  10  21  40  69 107 134 180 236 299 358 424
#     4  11  23  39  74 110 139 185 240 299 372 432
#     4  10  18  39  68 103 140 173 231 299 358 418
#     4  12  26  49  65 101 153 193 239 296 368 455
#     4  12  32  52  64  98 150 216 246 296 380 442
#     4  11  22  41  75 114 145 179 232 311 375 433
#     4  11  24  48  71  99 144 187 252 310 355 438
#
# _framework density 22.467348000000001
#
# number of rings (size 3 to 8) (size 9 to 14) (size 15 to 20)
#    0.000    1.067    4.000    3.200    5.600    0.000 
#   13.200    0.000    0.000    0.000    0.000    0.000 
#    0.000    0.000    0.000    0.000    0.000    0.000 
#
# Total GULP energy -371914.164047 kJ/mol
# GULP energy per Si atom -12397.138802 kJ/mol
# Density = 2.241621 g / cm^3
# Si number density = 22.467348 Si / 1000 Ang^3
#
#
#
# Elastic Constant Matrix: (Units=GPa)
#
#
# Indices 1 2 3 4 5 6 
#
# 1 90.0525 22.3153 36.2106 0.0000 0.0000 0.0000
# 2 22.3153 100.5432 26.9867 0.0000 0.0000 0.0000
# 3 36.2106 26.9867 99.6445 0.0000 0.0000 0.0000
# 4 0.0000 0.0000 0.0000 30.6670 0.0000 0.0000
# 5 0.0000 0.0000 0.0000 0.0000 32.9394 0.0000
# 6 0.0000 0.0000 0.0000 0.0000 0.0000 32.4091
#
#
#
# Elastic Compliance Matrix: (Units=1/GPa)
#
#
# Indices 1 2 3 4 5 6 
#
# 1 0.013295 -0.001784 -0.004348 0.000000 0.000000 0.000000
# 2 -0.001784 0.010965 -0.002321 0.000000 0.000000 0.000000
# 3 -0.004348 -0.002321 0.012245 0.000000 0.000000 0.000000
# 4 0.000000 0.000000 0.000000 0.032608 0.000000 0.000000
# 5 0.000000 0.000000 0.000000 0.000000 0.030359 0.000000
# 6 0.000000 0.000000 0.000000 0.000000 0.000000 0.030855
#
#
# Mechanical properties :
#
#
# Convention : Reuss Voigt Hill
#
# Bulk Modulus (GPa) = 51.02640 51.25171 51.13905
# Shear Modulus (GPa) = 32.51678 32.85162 32.68420
#
# Velocity S-wave (km/s) = 3.80845 3.82801 3.81825
# Velocity P-wave (km/s) = 6.48843 6.51148 6.49997
#
# Compressibility (1/GPa) = 0.01959770
#
# Stress axis : x y z
#
# Youngs Moduli (GPa) = 75.21553 91.19968 81.66886
#
# Poissons Ratio (x) = 0.16267 0.35512
# Poissons Ratio (y) = 0.13416 0.18959
# Poissons Ratio (z) = 0.32706 0.21171
#
# Static dielectric constant tensor:
#      x y z
#    x 4.261900 0.000000 0.000000 
#    y 0.000000 4.141930 0.000000 
#    z 0.000000 0.000000 4.141910 
# 
# 
# High freq. dielectric constant tensor:
#      x y z
#    x 1.871210 0.000000 0.000000 
#    y 0.000000 1.888770 0.000000 
#    z 0.000000 0.000000 1.884160 
# 
# From -- ./inp_files/22136.got.cif
#   From: 2010.06.25/outbox.cif.g09.slc.cpg/sg43_12_cif.got.tgz:22136.got - 2010.06.26 16:48:59.
