data_PCOD8186917
_publ_section_title
;
Structure prediction by ZEFSAII (Michael W. Deem and Ramdas Pophale) SiO2 
 PCOD8186917
Probable space group: F D D 2
;
_chemical_formula_sum "Si O2"
_cell_formula_units_Z 128
_cell_length_a 20.330489
_cell_length_b 18.343740
_cell_length_c 21.093574
_cell_angle_alpha 90.000000
_cell_angle_beta 90.000000
_cell_angle_gamma 90.000000
_cell_volume 7866.578516
_symmetry_space_group_name_H-M "F D D 2"
_symmetry_group_IT_number 43
_symmetry_cell_setting 'orthorhombic'
loop_
_space_group_symop_operation_xyz
x,y,z
-x,-y,z
1/4-x,1/4+y,1/4+z
1/4+x,1/4-y,1/4+z
x,1/2+y,1/2+z
-x,1/2-y,1/2+z
1/4-x,3/4+y,3/4+z
1/4+x,3/4-y,3/4+z
1/2+x,y,1/2+z
1/2-x,-y,1/2+z
3/4-x,1/4+y,3/4+z
3/4+x,1/4-y,3/4+z
1/2+x,1/2+y,z
1/2-x,1/2-y,z
3/4-x,3/4+y,1/4+z
3/4+x,3/4-y,1/4+z
loop_
_atom_site_type_symbol
_atom_site_label
_atom_site_fract_x
_atom_site_fract_y
_atom_site_fract_z
Si Si1 0.762674 0.834474 0.948090
Si Si2 0.892440 0.968790 0.433458
Si Si3 0.144617 0.573925 0.068582
Si Si4 0.318758 0.969107 0.270945
Si Si5 0.039262 0.567438 0.329367
Si Si6 0.150228 0.937084 0.659102
Si Si7 0.019802 0.393117 0.918628
Si Si8 0.049111 0.191712 0.607254
O O1 0.750000 0.750000 0.929285
O O2 0.833413 0.857683 0.920805
O O3 0.711644 0.891821 0.919369
O O4 0.758785 0.844125 0.023437
O O5 0.848484 0.955034 0.496718
O O6 0.940239 0.900759 0.416053
O O7 0.943114 0.034547 0.440402
O O8 0.842199 0.987821 0.376732
O O9 0.131072 0.505369 0.114503
O O10 0.208339 0.614727 0.098522
O O11 0.086438 0.634000 0.062212
O O12 0.390616 0.953643 0.299054
O O13 0.292083 0.908504 0.224439
O O14 0.266491 0.975774 0.327471
O O15 0.322038 0.041470 0.228138
O O16 0.046340 0.633350 0.378462
O O17 0.000000 0.500000 0.362405
#
# Coordination Sequence:
#
# PCOD8186917 Si02
#       8
#    16  16  16  16  16  16  16  16
#     4  11  18  30  49  78 108 136 162 207 268 323
#     4  10  19  31  47  75 109 134 172 210 253 317
#     4  10  18  30  50  78 105 137 164 211 264 313
#     4  11  19  33  51  76 106 140 173 213 267 318
#     4  11  21  34  52  77 112 138 171 220 271 324
#     4  11  20  31  52  75 109 137 173 212 266 325
#     4   9  19  30  49  76 106 137 165 207 265 308
#     4  11  20  29  51  79 106 139 170 203 269 317
#
# _framework density 16.271369
#
# number of rings (size 3 to 8) (size 9 to 14) (size 15 to 20)
#    0.000    1.500    6.250    3.000    0.000    0.000 
#    0.000    0.000    2.750    0.000    0.000    0.000 
#    0.000    0.000    0.000    0.000    0.000    0.000 
#
# Total GULP energy -396429.615746 kJ/mol
# GULP energy per Si atom -12388.425492 kJ/mol
# Density = 1.623433 g / cm^3
# Si number density = 16.271369 Si / 1000 Ang^3
#
#
#
# Elastic Constant Matrix: (Units=GPa)
#
#
# Indices 1 2 3 4 5 6 
#
# 1 66.7123 32.2873 20.5208 0.0000 0.0000 0.0000
# 2 32.2873 55.9538 29.8453 0.0000 0.0000 0.0000
# 3 20.5208 29.8453 55.8778 0.0000 0.0000 0.0000
# 4 0.0000 0.0000 0.0000 29.0153 0.0000 0.0000
# 5 0.0000 0.0000 0.0000 0.0000 21.9355 0.0000
# 6 0.0000 0.0000 0.0000 0.0000 0.0000 26.3326
#
#
#
# Elastic Compliance Matrix: (Units=1/GPa)
#
#
# Indices 1 2 3 4 5 6 
#
# 1 0.020917 -0.011148 -0.001727 0.000000 0.000000 0.000000
# 2 -0.011148 0.030934 -0.012428 0.000000 0.000000 0.000000
# 3 -0.001727 -0.012428 0.025168 0.000000 0.000000 0.000000
# 4 0.000000 0.000000 0.000000 0.034465 0.000000 0.000000
# 5 0.000000 0.000000 0.000000 0.000000 0.045588 0.000000
# 6 0.000000 0.000000 0.000000 0.000000 0.000000 0.037976
#
#
# Mechanical properties :
#
#
# Convention : Reuss Voigt Hill
#
# Bulk Modulus (GPa) = 37.86162 38.20564 38.03363
# Shear Modulus (GPa) = 19.64956 21.84938 20.74947
#
# Velocity S-wave (km/s) = 3.47885 3.66841 3.57489
# Velocity P-wave (km/s) = 6.28139 6.44005 6.36122
#
# Compressibility (1/GPa) = 0.02641197
#
# Stress axis : x y z
#
# Youngs Moduli (GPa) = 47.80901 32.32689 39.73224
#
# Poissons Ratio (x) = 0.36040 0.06861
# Poissons Ratio (y) = 0.53300 0.49380
# Poissons Ratio (z) = 0.08256 0.40176
#
# Static dielectric constant tensor:
#      x y z
#    x 3.298180 0.000000 0.000000 
#    y 0.000000 3.078390 0.000000 
#    z 0.000000 0.000000 3.014940 
# 
# 
# High freq. dielectric constant tensor:
#      x y z
#    x 1.620020 0.000000 0.000000 
#    y 0.000000 1.603330 0.000000 
#    z 0.000000 0.000000 1.610690 
# 
# From -- ./inp_files/14687.got.cif
#   From: 2010.06.25/outbox.cif.g09.slc.cpg/sg43_8_cif.got.tgz:14687.got - 2010.06.26 16:48:59.
