data_PCOD8186230
_publ_section_title
;
Structure prediction by ZEFSAII (Michael W. Deem and Ramdas Pophale) SiO2 
 PCOD8186230
Probable space group: F M M 2
;
_chemical_formula_sum "Si O2"
_cell_formula_units_Z 80
_cell_length_a 13.283542
_cell_length_b 17.269959
_cell_length_c 18.630280
_cell_angle_alpha 90.000000
_cell_angle_beta 90.000000
_cell_angle_gamma 90.000000
_cell_volume 4273.902219
_symmetry_space_group_name_H-M "F M M 2"
_symmetry_group_IT_number 42
_symmetry_cell_setting 'orthorhombic'
loop_
_space_group_symop_operation_xyz
x,y,z
-x,-y,z
-x,y,z
x,-y,z
x,1/2+y,1/2+z
-x,1/2-y,1/2+z
-x,1/2+y,1/2+z
x,1/2-y,1/2+z
1/2+x,y,1/2+z
1/2-x,-y,1/2+z
1/2-x,y,1/2+z
1/2+x,-y,1/2+z
1/2+x,1/2+y,z
1/2-x,1/2-y,z
1/2-x,1/2+y,z
1/2+x,1/2-y,z
loop_
_atom_site_type_symbol
_atom_site_label
_atom_site_fract_x
_atom_site_fract_y
_atom_site_fract_z
Si Si1 0.735091 0.086314 0.156520
Si Si2 0.885990 0.908438 0.794339
Si Si3 0.615782 0.690172 0.072110
Si Si4 0.615615 0.135379 0.032987
Si Si5 0.222054 0.163619 0.928872
O O1 0.676067 0.120618 0.225187
O O2 0.823288 0.145688 0.134428
O O3 0.654529 0.075233 0.092024
O O4 0.778999 0.000000 0.172321
O O5 0.824349 0.882479 0.863481
O O6 0.000000 0.873554 0.793700
O O7 0.893279 0.000000 0.793904
O O8 0.500000 0.675099 0.089168
O O9 0.641348 0.781338 0.069459
O O10 0.641561 0.657897 0.993335
O O11 0.500000 0.122898 0.014857
O O12 0.674655 0.124596 0.957860
O O13 0.250000 0.250000 0.903901
#
# Coordination Sequence:
#
# PCOD8186230 Si02
#       5
#    16  16  16  16  16
#     4  10  20  33  50  74 103 133 168 208 249 297
#     4  10  21  36  52  72 102 138 173 210 252 298
#     4   9  18  34  55  77 100 128 164 208 255 300
#     4   9  18  34  54  75 101 131 164 205 253 303
#     4   9  18  32  52  77 103 128 164 210 253 298
#
# _framework density 18.718257000000001
#
# number of rings (size 3 to 8) (size 9 to 14) (size 15 to 20)
#    0.000    2.600    0.000    3.000    0.000    7.200 
#    0.000    1.000    0.000    1.200    0.000    0.000 
#    0.000    0.000    0.000    0.000    0.000    0.000 
#
# Total GULP energy -247902.845565 kJ/mol
# GULP energy per Si atom -12395.142278 kJ/mol
# Density = 1.867565 g / cm^3
# Si number density = 18.718257 Si / 1000 Ang^3
#
#
#
# Elastic Constant Matrix: (Units=GPa)
#
#
# Indices 1 2 3 4 5 6 
#
# 1 125.3093 29.3128 57.2447 0.0000 0.0000 0.0000
# 2 29.3128 33.2549 19.6475 0.0000 0.0000 0.0000
# 3 57.2447 19.6475 109.2536 0.0000 0.0000 0.0000
# 4 0.0000 0.0000 0.0000 13.3408 0.0000 0.0000
# 5 0.0000 0.0000 0.0000 0.0000 27.2572 0.0000
# 6 0.0000 0.0000 0.0000 0.0000 0.0000 26.4932
#
#
#
# Elastic Compliance Matrix: (Units=1/GPa)
#
#
# Indices 1 2 3 4 5 6 
#
# 1 0.012027 -0.007696 -0.004918 0.000000 0.000000 0.000000
# 2 -0.007696 0.038570 -0.002904 0.000000 0.000000 0.000000
# 3 -0.004918 -0.002904 0.012252 0.000000 0.000000 0.000000
# 4 0.000000 0.000000 0.000000 0.074958 0.000000 0.000000
# 5 0.000000 0.000000 0.000000 0.000000 0.036688 0.000000
# 6 0.000000 0.000000 0.000000 0.000000 0.000000 0.037746
#
#
# Mechanical properties :
#
#
# Convention : Reuss Voigt Hill
#
# Bulk Modulus (GPa) = 31.43264 53.35863 42.39564
# Shear Modulus (GPa) = 19.69438 24.19243 21.94341
#
# Velocity S-wave (km/s) = 3.24720 3.59897 3.42760
# Velocity P-wave (km/s) = 5.55770 6.77039 6.19380
#
# Compressibility (1/GPa) = 0.03181406
#
# Stress axis : x y z
#
# Youngs Moduli (GPa) = 83.14587 25.92690 81.61984
#
# Poissons Ratio (x) = 0.19953 0.40138
# Poissons Ratio (y) = 0.63988 0.23701
# Poissons Ratio (z) = 0.40889 0.07529
#
# Static dielectric constant tensor:
#      x y z
#    x 3.587820 0.000000 0.000000 
#    y 0.000000 3.592340 0.000000 
#    z 0.000000 0.000000 3.284920 
# 
# 
# High freq. dielectric constant tensor:
#      x y z
#    x 1.734530 0.000000 0.000000 
#    y 0.000000 1.713860 0.000000 
#    z 0.000000 0.000000 1.713880 
# 
# From -- ./inp_files/13816.got.cif
#   From: 2010.03.12/outbox.cif.g09.slc.cpg/sg42_7_cif.got.tgz:13816.got - 2010.04.14 02:04:31.
