data_PCOD8186221
_publ_section_title
;
Structure prediction by ZEFSAII (Michael W. Deem and Ramdas Pophale) SiO2 
 PCOD8186221
Probable space group: F M M 2
;
_chemical_formula_sum "Si O2"
_cell_formula_units_Z 88
_cell_length_a 13.652416
_cell_length_b 25.926033
_cell_length_c 13.629611
_cell_angle_alpha 90.000000
_cell_angle_beta 90.000000
_cell_angle_gamma 90.000000
_cell_volume 4824.241535
_symmetry_space_group_name_H-M "F M M 2"
_symmetry_group_IT_number 42
_symmetry_cell_setting 'orthorhombic'
loop_
_space_group_symop_operation_xyz
x,y,z
-x,-y,z
-x,y,z
x,-y,z
x,1/2+y,1/2+z
-x,1/2-y,1/2+z
-x,1/2+y,1/2+z
x,1/2-y,1/2+z
1/2+x,y,1/2+z
1/2-x,-y,1/2+z
1/2-x,y,1/2+z
1/2+x,-y,1/2+z
1/2+x,1/2+y,z
1/2-x,1/2-y,z
1/2-x,1/2+y,z
1/2+x,1/2-y,z
loop_
_atom_site_type_symbol
_atom_site_label
_atom_site_fract_x
_atom_site_fract_y
_atom_site_fract_z
Si Si1 0.500000 0.212507 0.279701
Si Si2 0.000000 0.196933 0.414714
Si Si3 0.885300 0.441282 0.715884
Si Si4 0.691708 0.137556 0.872136
Si Si5 0.500000 0.195592 0.494455
Si Si6 0.708351 0.196140 0.206216
Si Si7 0.817457 0.368472 0.556343
O O1 0.500000 0.273705 0.308482
O O2 0.500000 0.178602 0.379914
O O3 0.592072 0.198253 0.213956
O O4 0.904644 0.161061 0.423472
O O5 0.000000 0.241342 0.499858
O O6 0.848861 0.500000 0.720299
O O7 0.831963 0.410218 0.801998
O O8 0.860282 0.419549 0.607766
O O9 0.000000 0.436712 0.734651
O O10 0.743386 0.183159 0.811350
O O11 0.767877 0.116941 0.953327
O O12 0.596355 0.173630 0.546657
O O13 0.750000 0.250000 0.168823
O O14 0.732748 0.153792 0.125336
#
# Coordination Sequence:
#
# PCOD8186221 Si02
#       7
#     8   8  16  16   8  16  16
#     4  10  20  36  55  76 123 167 198 228 275 336
#     4  10  20  32  60  78 124 166 196 226 284 354
#     4  10  22  42  65  85 110 150 204 259 306 349
#     4  11  21  39  56  89 117 155 194 244 296 358
#     4  10  20  36  57  80 123 167 190 236 277 348
#     4  11  22  33  55  83 120 160 199 233 282 342
#     4  11  24  36  60  89 117 152 205 244 294 356
#
# _framework density 18.241209000000001
#
# number of rings (size 3 to 8) (size 9 to 14) (size 15 to 20)
#    0.545    0.909    5.455    0.000    2.545    2.182 
#    0.000    0.000    0.000    0.000    0.000    3.818 
#    0.000    0.000    0.000    0.000    0.000    0.000 
#
# Total GULP energy -272816.467557 kJ/mol
# GULP energy per Si atom -12400.748525 kJ/mol
# Density = 1.819969 g / cm^3
# Si number density = 18.241209 Si / 1000 Ang^3
#
#
#
# Elastic Constant Matrix: (Units=GPa)
#
#
# Indices 1 2 3 4 5 6 
#
# 1 110.2660 32.3500 28.0526 0.0000 0.0000 0.0000
# 2 32.3500 104.2718 31.5744 0.0000 0.0000 0.0000
# 3 28.0526 31.5744 75.7709 0.0000 0.0000 0.0000
# 4 0.0000 0.0000 0.0000 25.0581 0.0000 0.0000
# 5 0.0000 0.0000 0.0000 0.0000 32.2738 0.0000
# 6 0.0000 0.0000 0.0000 0.0000 0.0000 19.8856
#
#
#
# Elastic Compliance Matrix: (Units=1/GPa)
#
#
# Indices 1 2 3 4 5 6 
#
# 1 0.010505 -0.002382 -0.002897 0.000000 0.000000 0.000000
# 2 -0.002382 0.011515 -0.003917 0.000000 0.000000 0.000000
# 3 -0.002897 -0.003917 0.015902 0.000000 0.000000 0.000000
# 4 0.000000 0.000000 0.000000 0.039907 0.000000 0.000000
# 5 0.000000 0.000000 0.000000 0.000000 0.030985 0.000000
# 6 0.000000 0.000000 0.000000 0.000000 0.000000 0.050288
#
#
# Mechanical properties :
#
#
# Convention : Reuss Voigt Hill
#
# Bulk Modulus (GPa) = 51.19845 52.69585 51.94715
# Shear Modulus (GPa) = 27.17350 28.66563 27.91956
#
# Velocity S-wave (km/s) = 3.86382 3.96849 3.91650
# Velocity P-wave (km/s) = 6.93065 7.06750 6.99941
#
# Compressibility (1/GPa) = 0.01953184
#
# Stress axis : x y z
#
# Youngs Moduli (GPa) = 95.19539 86.84087 62.88441
#
# Poissons Ratio (x) = 0.20685 0.18215
# Poissons Ratio (y) = 0.22675 0.24630
# Poissons Ratio (z) = 0.27574 0.34013
#
# Static dielectric constant tensor:
#      x y z
#    x 3.367530 0.000000 0.000000 
#    y 0.000000 3.173580 0.000000 
#    z 0.000000 0.000000 3.292000 
# 
# 
# High freq. dielectric constant tensor:
#      x y z
#    x 1.717880 0.000000 0.000000 
#    y 0.000000 1.677730 0.000000 
#    z 0.000000 0.000000 1.706270 
# 
# From -- ./inp_files/13102.got.cif
#   From: 2010.03.12/outbox.cif.g09.slc.cpg/sg42_7_cif.got.tgz:13102.got - 2010.04.14 02:04:31.
