data_PCOD8186646
_publ_section_title
;
Structure prediction by ZEFSAII (Michael W. Deem and Ramdas Pophale) SiO2 
 PCOD8186646
Probable space group: F M M 2
;
_chemical_formula_sum "Si O2"
_cell_formula_units_Z 112
_cell_length_a 14.071946
_cell_length_b 28.153532
_cell_length_c 12.448887
_cell_angle_alpha 90.000000
_cell_angle_beta 90.000000
_cell_angle_gamma 90.000000
_cell_volume 4931.937583
_symmetry_space_group_name_H-M "F M M 2"
_symmetry_group_IT_number 42
_symmetry_cell_setting 'orthorhombic'
loop_
_space_group_symop_operation_xyz
x,y,z
-x,-y,z
-x,y,z
x,-y,z
x,1/2+y,1/2+z
-x,1/2-y,1/2+z
-x,1/2+y,1/2+z
x,1/2-y,1/2+z
1/2+x,y,1/2+z
1/2-x,-y,1/2+z
1/2-x,y,1/2+z
1/2+x,-y,1/2+z
1/2+x,1/2+y,z
1/2-x,1/2-y,z
1/2-x,1/2+y,z
1/2+x,1/2-y,z
loop_
_atom_site_type_symbol
_atom_site_label
_atom_site_fract_x
_atom_site_fract_y
_atom_site_fract_z
Si Si1 0.103161 0.422698 0.810640
Si Si2 0.723033 0.800680 0.936238
Si Si3 0.896080 0.684360 0.742090
Si Si4 0.109752 0.051663 0.940559
Si Si5 0.795210 0.553073 0.217331
Si Si6 0.611850 0.114382 0.034792
Si Si7 0.609180 0.349164 0.012796
O O1 0.091868 0.367810 0.786965
O O2 0.181271 0.447014 0.735344
O O3 0.000000 0.447540 0.790232
O O4 0.129422 0.423122 0.937665
O O5 0.750000 0.750000 0.990195
O O6 0.678208 0.788752 0.818972
O O7 0.821793 0.829617 0.919827
O O8 0.652375 0.832545 0.009856
O O9 0.860301 0.679325 0.619796
O O10 0.000000 0.709606 0.745539
O O11 0.160369 0.066583 0.831256
O O12 0.127441 0.093843 0.027084
O O13 0.000000 0.047795 0.912211
O O14 0.146812 0.000000 0.983765
O O15 0.825921 0.500000 0.180802
O O16 0.830225 0.592582 0.134185
O O17 0.500000 0.119262 0.061480
O O18 0.500000 0.339500 0.981697
#
# Coordination Sequence:
#
# PCOD8186646 Si02
#       7
#    16  16  16  16  16  16  16
#     4   9  19  37  60  85 117 160 212 267 319 378
#     4  11  23  39  65  94 123 158 207 267 325 381
#     4   9  19  39  62  83 114 158 203 251 313 377
#     4   9  18  34  58  91 128 164 207 262 322 382
#     4  11  22  36  60  94 132 175 222 270 321 381
#     4  10  22  42  66  92 127 172 220 271 330 392
#     4  10  21  38  62  91 126 164 202 251 312 380
#
# _framework density 22.709126000000001
#
# number of rings (size 3 to 8) (size 9 to 14) (size 15 to 20)
#    0.000    2.143    0.000    4.286    0.000    3.429 
#    0.000    5.714    0.000    9.429    0.000    4.000 
#    0.000    0.000    0.000    0.000    0.000    0.000 
#
# Total GULP energy -346921.472099 kJ/mol
# GULP energy per Si atom -12390.052575 kJ/mol
# Density = 2.265744 g / cm^3
# Si number density = 22.709126 Si / 1000 Ang^3
#
#
#
# Elastic Constant Matrix: (Units=GPa)
#
#
# Indices 1 2 3 4 5 6 
#
# 1 140.4300 56.3499 61.4791 0.0000 0.0000 0.0000
# 2 56.3499 105.4392 28.5994 0.0000 0.0000 0.0000
# 3 61.4791 28.5994 72.2324 0.0000 0.0000 0.0000
# 4 0.0000 0.0000 0.0000 24.5210 0.0000 0.0000
# 5 0.0000 0.0000 0.0000 0.0000 29.2311 0.0000
# 6 0.0000 0.0000 0.0000 0.0000 0.0000 84.8924
#
#
#
# Elastic Compliance Matrix: (Units=1/GPa)
#
#
# Indices 1 2 3 4 5 6 
#
# 1 0.012950 -0.004404 -0.009279 0.000000 0.000000 0.000000
# 2 -0.004404 0.012123 -0.001051 0.000000 0.000000 0.000000
# 3 -0.009279 -0.001051 0.022158 0.000000 0.000000 0.000000
# 4 0.000000 0.000000 0.000000 0.040781 0.000000 0.000000
# 5 0.000000 0.000000 0.000000 0.000000 0.034210 0.000000
# 6 0.000000 0.000000 0.000000 0.000000 0.000000 0.011780
#
#
# Mechanical properties :
#
#
# Convention : Reuss Voigt Hill
#
# Bulk Modulus (GPa) = 56.29766 67.88426 62.09096
# Shear Modulus (GPa) = 29.51734 39.17378 34.34556
#
# Velocity S-wave (km/s) = 3.60919 4.15785 3.89319
# Velocity P-wave (km/s) = 6.49714 7.28067 6.90004
#
# Compressibility (1/GPa) = 0.01776273
#
# Stress axis : x y z
#
# Youngs Moduli (GPa) = 77.21759 82.48706 45.13088
#
# Poissons Ratio (x) = 0.36330 0.41875
# Poissons Ratio (y) = 0.34009 0.04745
# Poissons Ratio (z) = 0.71647 0.08672
#
# Static dielectric constant tensor:
#      x y z
#    x 4.582440 0.000000 0.000000 
#    y 0.000000 3.887710 0.000000 
#    z 0.000000 0.000000 4.165970 
# 
# 
# High freq. dielectric constant tensor:
#      x y z
#    x 1.914100 0.000000 0.000000 
#    y 0.000000 1.871600 0.000000 
#    z 0.000000 0.000000 1.877660 
# 
# From -- ./inp_files/8130.got.cif
#   From: 2010.03.12/outbox.cif.g09.slc.cpg/sg42_5_cif.got.tgz:8130.got - 2010.04.14 02:04:31.
