data_PCOD8186178
_publ_section_title
;
Structure prediction by ZEFSAII (Michael W. Deem and Ramdas Pophale) SiO2 
 PCOD8186178
Probable space group: F M M 2
;
_chemical_formula_sum "Si O2"
_cell_formula_units_Z 88
_cell_length_a 10.395355
_cell_length_b 33.113514
_cell_length_c 13.926473
_cell_angle_alpha 90.000000
_cell_angle_beta 90.000000
_cell_angle_gamma 90.000000
_cell_volume 4793.864308
_symmetry_space_group_name_H-M "F M M 2"
_symmetry_group_IT_number 42
_symmetry_cell_setting 'orthorhombic'
loop_
_space_group_symop_operation_xyz
x,y,z
-x,-y,z
-x,y,z
x,-y,z
x,1/2+y,1/2+z
-x,1/2-y,1/2+z
-x,1/2+y,1/2+z
x,1/2-y,1/2+z
1/2+x,y,1/2+z
1/2-x,-y,1/2+z
1/2-x,y,1/2+z
1/2+x,-y,1/2+z
1/2+x,1/2+y,z
1/2-x,1/2-y,z
1/2-x,1/2+y,z
1/2+x,1/2-y,z
loop_
_atom_site_type_symbol
_atom_site_label
_atom_site_fract_x
_atom_site_fract_y
_atom_site_fract_z
Si Si1 0.352628 0.652538 0.091880
Si Si2 0.242329 0.909702 0.727746
Si Si3 0.146165 0.784932 0.254790
Si Si4 0.773824 0.352844 0.897601
Si Si5 0.500000 0.046936 0.783585
Si Si6 0.500000 0.547029 0.663276
Si Si7 0.000000 0.093523 0.467996
O O1 0.500000 0.638624 0.104958
O O2 0.258699 0.617604 0.132418
O O3 0.328907 0.693031 0.153439
O O4 0.326284 0.661518 0.979441
O O5 0.207367 0.881342 0.818279
O O6 0.374636 0.933451 0.737809
O O7 0.127977 0.942058 0.722128
O O8 0.250000 0.750000 0.265448
O O9 0.162388 0.814927 0.344645
O O10 0.000000 0.767674 0.258043
O O11 0.878553 0.378283 0.953903
O O12 0.500000 0.055373 0.896750
O O13 0.500000 0.000000 0.761446
O O14 0.500000 0.500000 0.637880
O O15 0.500000 0.575023 0.571748
#
# Coordination Sequence:
#
# PCOD8186178 Si02
#       7
#    16  16  16  16   8   8   8
#     4  10  20  38  61  84 112 154 202 240 280 348
#     4  10  21  36  58  82 115 152 194 239 290 351
#     4  10  22  41  60  88 123 153 190 242 296 349
#     4  10  20  38  63  83 112 157 197 234 284 349
#     4  10  19  36  57  78 106 156 197 231 287 354
#     4  12  23  36  55  91 126 149 186 259 310 336
#     4  10  19  36  60  81 108 155 201 236 275 352
#
# _framework density 18.356798000000001
#
# number of rings (size 3 to 8) (size 9 to 14) (size 15 to 20)
#    0.000    1.818    3.636    0.818    1.273    1.455 
#    6.545    1.818    0.000    1.091    0.000    0.000 
#    0.000    0.000    0.000    0.000    0.000    0.000 
#
# Total GULP energy -272754.767801 kJ/mol
# GULP energy per Si atom -12397.943991 kJ/mol
# Density = 1.831502 g / cm^3
# Si number density = 18.356798 Si / 1000 Ang^3
#
#
#
# Elastic Constant Matrix: (Units=GPa)
#
#
# Indices 1 2 3 4 5 6 
#
# 1 106.5293 48.9111 38.4827 0.0000 0.0000 0.0000
# 2 48.9111 99.9762 41.3365 0.0000 0.0000 0.0000
# 3 38.4827 41.3365 113.8271 0.0000 0.0000 0.0000
# 4 0.0000 0.0000 0.0000 19.8264 0.0000 0.0000
# 5 0.0000 0.0000 0.0000 0.0000 27.2402 0.0000
# 6 0.0000 0.0000 0.0000 0.0000 0.0000 37.8236
#
#
#
# Elastic Compliance Matrix: (Units=1/GPa)
#
#
# Indices 1 2 3 4 5 6 
#
# 1 0.012634 -0.005195 -0.002385 0.000000 0.000000 0.000000
# 2 -0.005195 0.013906 -0.003294 0.000000 0.000000 0.000000
# 3 -0.002385 -0.003294 0.010788 0.000000 0.000000 0.000000
# 4 0.000000 0.000000 0.000000 0.050438 0.000000 0.000000
# 5 0.000000 0.000000 0.000000 0.000000 0.036710 0.000000
# 6 0.000000 0.000000 0.000000 0.000000 0.000000 0.026438
#
#
# Mechanical properties :
#
#
# Convention : Reuss Voigt Hill
#
# Bulk Modulus (GPa) = 64.18202 64.19923 64.19062
# Shear Modulus (GPa) = 28.11310 29.75155 28.93233
#
# Velocity S-wave (km/s) = 3.91766 4.03021 3.97433
# Velocity P-wave (km/s) = 7.45008 7.53032 7.49030
#
# Compressibility (1/GPa) = 0.01558069
#
# Stress axis : x y z
#
# Youngs Moduli (GPa) = 79.15394 71.91370 92.69952
#
# Poissons Ratio (x) = 0.37357 0.22106
# Poissons Ratio (y) = 0.41118 0.30531
# Poissons Ratio (z) = 0.18876 0.23685
#
# Static dielectric constant tensor:
#      x y z
#    x 3.364780 0.000000 0.000000 
#    y 0.000000 3.303170 0.000000 
#    z 0.000000 0.000000 3.426530 
# 
# 
# High freq. dielectric constant tensor:
#      x y z
#    x 1.716030 0.000000 0.000000 
#    y 0.000000 1.701400 0.000000 
#    z 0.000000 0.000000 1.716570 
# 
# From -- ./inp_files/7071.got.cif
#   From: 2010.03.12/outbox.cif.g09.slc.cpg/sg42_4_cif.got.tgz:7071.got - 2010.04.14 02:04:31.
