data_PCOD8186898
_publ_section_title
;
Structure prediction by ZEFSAII (Michael W. Deem and Ramdas Pophale) SiO2 
 PCOD8186898
Probable space group: F D D 2
;
_chemical_formula_sum "Si O2"
_cell_formula_units_Z 104
_cell_length_a 6.929397
_cell_length_b 28.516137
_cell_length_c 20.688620
_cell_angle_alpha 90.000000
_cell_angle_beta 90.000000
_cell_angle_gamma 90.000000
_cell_volume 4088.063744
_symmetry_space_group_name_H-M "F D D 2"
_symmetry_group_IT_number 43
_symmetry_cell_setting 'orthorhombic'
loop_
_space_group_symop_operation_xyz
x,y,z
-x,-y,z
1/4-x,1/4+y,1/4+z
1/4+x,1/4-y,1/4+z
x,1/2+y,1/2+z
-x,1/2-y,1/2+z
1/4-x,3/4+y,3/4+z
1/4+x,3/4-y,3/4+z
1/2+x,y,1/2+z
1/2-x,-y,1/2+z
3/4-x,1/4+y,3/4+z
3/4+x,1/4-y,3/4+z
1/2+x,1/2+y,z
1/2-x,1/2-y,z
3/4-x,3/4+y,1/4+z
3/4+x,3/4-y,1/4+z
loop_
_atom_site_type_symbol
_atom_site_label
_atom_site_fract_x
_atom_site_fract_y
_atom_site_fract_z
Si Si1 0.733503 0.575010 0.116170
Si Si2 0.927309 0.152394 0.353098
Si Si3 0.703515 0.410972 0.243382
Si Si4 0.310516 0.328923 0.077573
Si Si5 0.277543 0.493176 0.527955
Si Si6 0.000000 0.000000 0.917792
Si Si7 0.223088 0.485974 0.233807
O O1 0.605356 0.622919 0.109360
O O2 0.689343 0.541341 0.055768
O O3 0.677168 0.547058 0.180462
O O4 0.954204 0.591294 0.120977
O O5 0.944308 0.115453 0.292848
O O6 0.042642 0.139673 0.419796
O O7 0.013249 0.201912 0.329115
O O8 0.651882 0.466660 0.242450
O O9 0.920137 0.404337 0.270216
O O10 0.189707 0.295852 0.126563
O O11 0.477925 0.295208 0.049248
O O12 0.500000 0.500000 0.514185
O O13 0.180483 0.482965 0.459845
O O14 0.000000 0.500000 0.214912
#
# Coordination Sequence:
#
# PCOD8186898 Si02
#       7
#    16  16  16  16  16   8  16
#     4  10  18  32  62  88 121 171 227 261 338 405
#     4  10  19  35  60  98 125 175 228 280 338 418
#     4  10  18  32  61  91 133 168 224 284 340 404
#     4  10  21  32  57  99 126 168 230 278 329 409
#     4  10  23  41  64  95 131 174 225 278 335 413
#     4  12  24  42  62  98 140 170 218 288 346 400
#     4  10  15  33  53  87 127 164 222 276 323 405
#
# _framework density 25.439919
#
# number of rings (size 3 to 8) (size 9 to 14) (size 15 to 20)
#    0.000    1.846    6.923    0.462    2.154    3.692 
#    0.000    1.538    0.000    0.000   12.000    0.000 
#    0.000    0.000    0.000    0.000    0.000    0.000 
#
# Total GULP energy -322251.879126 kJ/mol
# GULP energy per Si atom -12394.303043 kJ/mol
# Density = 2.538202 g / cm^3
# Si number density = 25.439919 Si / 1000 Ang^3
#
#
#
# Elastic Constant Matrix: (Units=GPa)
#
#
# Indices 1 2 3 4 5 6 
#
# 1 19.8256 24.8235 37.4098 0.0000 0.0000 0.0000
# 2 24.8235 214.9237 86.9023 0.0000 0.0000 0.0000
# 3 37.4098 86.9023 178.3863 0.0000 0.0000 0.0000
# 4 0.0000 0.0000 0.0000 55.4514 0.0000 0.0000
# 5 0.0000 0.0000 0.0000 0.0000 19.1622 0.0000
# 6 0.0000 0.0000 0.0000 0.0000 0.0000 18.8093
#
#
#
# Elastic Compliance Matrix: (Units=1/GPa)
#
#
# Indices 1 2 3 4 5 6 
#
# 1 0.085266 -0.003260 -0.016293 0.000000 0.000000 0.000000
# 2 -0.003260 0.005919 -0.002200 0.000000 0.000000 0.000000
# 3 -0.016293 -0.002200 0.010094 0.000000 0.000000 0.000000
# 4 0.000000 0.000000 0.000000 0.018034 0.000000 0.000000
# 5 0.000000 0.000000 0.000000 0.000000 0.052186 0.000000
# 6 0.000000 0.000000 0.000000 0.000000 0.000000 0.053165
#
#
# Mechanical properties :
#
#
# Convention : Reuss Voigt Hill
#
# Bulk Modulus (GPa) = 17.30903 79.04519 48.17711
# Shear Modulus (GPa) = 17.39564 36.28456 26.84010
#
# Velocity S-wave (km/s) = 2.61778 3.78072 3.25166
# Velocity P-wave (km/s) = 3.99446 7.08500 5.75121
#
# Compressibility (1/GPa) = 0.05777332
#
# Stress axis : x y z
#
# Youngs Moduli (GPa) = 11.72795 168.95358 99.06604
#
# Poissons Ratio (x) = 0.55083 1.61410
# Poissons Ratio (y) = 0.03824 0.21791
# Poissons Ratio (z) = 0.19109 0.37164
#
# Static dielectric constant tensor:
#      x y z
#    x 4.051600 0.000000 0.000000 
#    y 0.000000 5.209690 0.000000 
#    z 0.000000 0.000000 4.720960 
# 
# 
# High freq. dielectric constant tensor:
#      x y z
#    x 1.985480 0.000000 0.000000 
#    y 0.000000 2.025850 0.000000 
#    z 0.000000 0.000000 2.018420 
# 
# From -- ./inp_files/16561.got.cif
#   From: 2010.06.25/outbox.cif.g09.slc.cpg/sg43_9_cif.got.tgz:16561.got - 2010.06.26 16:48:59.
