data_PCOD8186360
_publ_section_title
;
Structure prediction by ZEFSAII (Michael W. Deem and Ramdas Pophale) SiO2 
 PCOD8186360
Probable space group: F M M 2
;
_chemical_formula_sum "Si O2"
_cell_formula_units_Z 96
_cell_length_a 13.335976
_cell_length_b 13.771807
_cell_length_c 24.537993
_cell_angle_alpha 90.000000
_cell_angle_beta 90.000000
_cell_angle_gamma 90.000000
_cell_volume 4506.659760
_symmetry_space_group_name_H-M "F M M 2"
_symmetry_group_IT_number 42
_symmetry_cell_setting 'orthorhombic'
loop_
_space_group_symop_operation_xyz
x,y,z
-x,-y,z
-x,y,z
x,-y,z
x,1/2+y,1/2+z
-x,1/2-y,1/2+z
-x,1/2+y,1/2+z
x,1/2-y,1/2+z
1/2+x,y,1/2+z
1/2-x,-y,1/2+z
1/2-x,y,1/2+z
1/2+x,-y,1/2+z
1/2+x,1/2+y,z
1/2-x,1/2-y,z
1/2-x,1/2+y,z
1/2+x,1/2-y,z
loop_
_atom_site_type_symbol
_atom_site_label
_atom_site_fract_x
_atom_site_fract_y
_atom_site_fract_z
Si Si1 0.619266 0.800104 0.151350
Si Si2 0.109863 0.000000 0.821602
Si Si3 0.618222 0.393669 0.210518
Si Si4 0.618494 0.391746 0.542166
Si Si5 0.387165 0.613932 0.423295
Si Si6 0.774798 0.647912 0.818490
Si Si7 0.890771 0.500000 0.195133
O O1 0.500000 0.800411 0.160531
O O2 0.663254 0.697687 0.174824
O O3 0.647693 0.810958 0.087367
O O4 0.665532 0.898072 0.180374
O O5 0.173618 0.905889 0.837278
O O6 0.091433 0.000000 0.758133
O O7 0.000000 0.000000 0.850711
O O8 0.500000 0.376299 0.216790
O O9 0.639203 0.500000 0.182542
O O10 0.662967 0.405286 0.271307
O O11 0.500000 0.396983 0.534416
O O12 0.655825 0.500000 0.560387
O O13 0.663467 0.363817 0.482613
O O14 0.500000 0.652214 0.423496
O O15 0.381025 0.500000 0.410682
O O16 0.334202 0.669014 0.374044
O O17 0.750000 0.750000 0.791258
O O18 0.000000 0.500000 0.164646
#
# Coordination Sequence:
#
# PCOD8186360 Si02
#       7
#    16   8  16  16  16  16   8
#     4   9  15  26  49  84 121 154 188 234 292 351
#     4  11  24  40  54  79 119 157 197 246 309 375
#     4  10  20  35  56  84 120 160 199 237 289 359
#     4   8  13  24  48  86 123 150 185 236 291 348
#     4   9  17  32  57  87 118 151 190 239 295 353
#     4  12  23  37  58  83 114 159 196 252 300 362
#     4   9  16  28  47  73 111 147 180 230 288 351
#
# _framework density 21.301808999999999
#
# number of rings (size 3 to 8) (size 9 to 14) (size 15 to 20)
#    0.000    2.333    2.500    2.500    0.000    4.000 
#    0.000    0.000    0.000    3.000    2.167    0.000 
#    0.000    1.333    0.000    0.000    0.000    0.000 
#
# Total GULP energy -297325.773874 kJ/mol
# GULP energy per Si atom -12388.573911 kJ/mol
# Density = 2.125332 g / cm^3
# Si number density = 21.301809 Si / 1000 Ang^3
#
#
#
# Elastic Constant Matrix: (Units=GPa)
#
#
# Indices 1 2 3 4 5 6 
#
# 1 35.7285 42.6717 19.3635 0.0000 0.0000 0.0000
# 2 42.6717 149.3007 46.2356 0.0000 0.0000 0.0000
# 3 19.3635 46.2356 123.4907 0.0000 0.0000 0.0000
# 4 0.0000 0.0000 0.0000 30.5559 0.0000 0.0000
# 5 0.0000 0.0000 0.0000 0.0000 5.7895 0.0000
# 6 0.0000 0.0000 0.0000 0.0000 0.0000 26.1801
#
#
#
# Elastic Compliance Matrix: (Units=1/GPa)
#
#
# Indices 1 2 3 4 5 6 
#
# 1 0.043129 -0.011574 -0.002429 0.000000 0.000000 0.000000
# 2 -0.011574 0.010683 -0.002185 0.000000 0.000000 0.000000
# 3 -0.002429 -0.002185 0.009297 0.000000 0.000000 0.000000
# 4 0.000000 0.000000 0.000000 0.032727 0.000000 0.000000
# 5 0.000000 0.000000 0.000000 0.000000 0.172725 0.000000
# 6 0.000000 0.000000 0.000000 0.000000 0.000000 0.038197
#
#
# Mechanical properties :
#
#
# Convention : Reuss Voigt Hill
#
# Bulk Modulus (GPa) = 32.53979 58.34017 45.43998
# Shear Modulus (GPa) = 14.31116 25.85505 20.08311
#
# Velocity S-wave (km/s) = 2.59478 3.48767 3.07382
# Velocity P-wave (km/s) = 4.92807 6.60798 5.82886
#
# Compressibility (1/GPa) = 0.03073161
#
# Stress axis : x y z
#
# Youngs Moduli (GPa) = 23.18622 93.61052 107.56575
#
# Poissons Ratio (x) = 1.08349 0.26129
# Poissons Ratio (y) = 0.26837 0.23500
# Poissons Ratio (z) = 0.05632 0.20451
#
# Static dielectric constant tensor:
#      x y z
#    x 3.836030 0.000000 0.000000 
#    y 0.000000 3.930130 0.000000 
#    z 0.000000 0.000000 3.820780 
# 
# 
# High freq. dielectric constant tensor:
#      x y z
#    x 1.815880 0.000000 0.000000 
#    y 0.000000 1.831840 0.000000 
#    z 0.000000 0.000000 1.823470 
# 
# From -- ./inp_files/29410.got.cif
#   From: 2010.03.12/outbox.cif.g09.slc.cpg/sg42_15_cif.got.tgz:29410.got - 2010.04.14 02:04:31.
