data_PCOD8186820
_publ_section_title
;
Structure prediction by ZEFSAII (Michael W. Deem and Ramdas Pophale) SiO2 
 PCOD8186820
Probable space group: F M M 2
;
_chemical_formula_sum "Si O2"
_cell_formula_units_Z 80
_cell_length_a 9.502912
_cell_length_b 25.938680
_cell_length_c 18.735232
_cell_angle_alpha 90.000000
_cell_angle_beta 90.000000
_cell_angle_gamma 90.000000
_cell_volume 4618.103418
_symmetry_space_group_name_H-M "F M M 2"
_symmetry_group_IT_number 42
_symmetry_cell_setting 'orthorhombic'
loop_
_space_group_symop_operation_xyz
x,y,z
-x,-y,z
-x,y,z
x,-y,z
x,1/2+y,1/2+z
-x,1/2-y,1/2+z
-x,1/2+y,1/2+z
x,1/2-y,1/2+z
1/2+x,y,1/2+z
1/2-x,-y,1/2+z
1/2-x,y,1/2+z
1/2+x,-y,1/2+z
1/2+x,1/2+y,z
1/2-x,1/2-y,z
1/2-x,1/2+y,z
1/2+x,1/2-y,z
loop_
_atom_site_type_symbol
_atom_site_label
_atom_site_fract_x
_atom_site_fract_y
_atom_site_fract_z
Si Si1 0.666862 0.088342 0.318860
Si Si2 0.845290 0.204488 0.816692
Si Si3 0.666237 0.000000 0.575026
Si Si4 0.156047 0.295363 0.486226
Si Si5 0.167278 0.407524 0.481096
Si Si6 0.831736 0.000000 0.239888
O O1 0.500000 0.077892 0.307730
O O2 0.707254 0.146935 0.296599
O O3 0.711497 0.077894 0.400696
O O4 0.761928 0.050971 0.271819
O O5 0.750000 0.250000 0.783397
O O6 0.851469 0.209577 0.901411
O O7 0.000000 0.212814 0.784360
O O8 0.729132 0.949529 0.535844
O O9 0.500000 0.000000 0.564309
O O10 0.708806 0.000000 0.656882
O O11 0.250000 0.250000 0.520011
O O12 0.224523 0.351130 0.504566
O O13 0.000000 0.289832 0.518924
O O14 0.000000 0.403849 0.483246
O O15 0.000000 0.000000 0.252258
#
# Coordination Sequence:
#
# PCOD8186820 Si02
#       6
#    16  16   8  16  16   8
#     4   9  17  31  51  70  89 119 156 187 219 267
#     4   8  14  24  41  67  93 115 141 176 220 265
#     4   9  17  29  45  65  88 115 150 190 226 261
#     4   8  13  22  39  65  91 111 136 173 216 259
#     4   8  14  27  49  70  85 112 155 188 210 255
#     4  11  22  31  43  67  94 119 150 192 238 271
#
# _framework density 17.323128000000001
#
# number of rings (size 3 to 8) (size 9 to 14) (size 15 to 20)
#    0.000    3.400    0.000    3.300    0.000    2.400 
#    0.000    3.000    0.000    8.400    0.000    5.600 
#    0.000    0.000    0.000    0.000    0.000    0.000 
#
# Total GULP energy -247821.214147 kJ/mol
# GULP energy per Si atom -12391.060707 kJ/mol
# Density = 1.728370 g / cm^3
# Si number density = 17.323128 Si / 1000 Ang^3
#
#
#
# Elastic Constant Matrix: (Units=GPa)
#
#
# Indices 1 2 3 4 5 6 
#
# 1 63.7319 66.6012 32.7265 0.0000 0.0000 0.0000
# 2 66.6012 184.2058 66.6442 0.0000 0.0000 0.0000
# 3 32.7265 66.6442 71.5879 0.0000 0.0000 0.0000
# 4 0.0000 0.0000 0.0000 1.9696 0.0000 0.0000
# 5 0.0000 0.0000 0.0000 0.0000 13.3839 0.0000
# 6 0.0000 0.0000 0.0000 0.0000 0.0000 33.2058
#
#
#
# Elastic Compliance Matrix: (Units=1/GPa)
#
#
# Indices 1 2 3 4 5 6 
#
# 1 0.026259 -0.007767 -0.004774 0.000000 0.000000 0.000000
# 2 -0.007767 0.010483 -0.006208 0.000000 0.000000 0.000000
# 3 -0.004774 -0.006208 0.021931 0.000000 0.000000 0.000000
# 4 0.000000 0.000000 0.000000 0.507706 0.000000 0.000000
# 5 0.000000 0.000000 0.000000 0.000000 0.074717 0.000000
# 6 0.000000 0.000000 0.000000 0.000000 0.000000 0.030115
#
#
# Mechanical properties :
#
#
# Convention : Reuss Voigt Hill
#
# Bulk Modulus (GPa) = 47.22655 72.38548 59.80602
# Shear Modulus (GPa) = 6.98552 19.94876 13.46714
#
# Velocity S-wave (km/s) = 2.01028 3.39716 2.79123
# Velocity P-wave (km/s) = 5.71923 7.56728 6.70721
#
# Compressibility (1/GPa) = 0.02117453
#
# Stress axis : x y z
#
# Youngs Moduli (GPa) = 38.08270 95.39135 45.59796
#
# Poissons Ratio (x) = 0.74091 0.21766
# Poissons Ratio (y) = 0.29579 0.28309
# Poissons Ratio (z) = 0.18179 0.59224
#
# Static dielectric constant tensor:
#      x y z
#    x 3.135350 0.000000 0.000000 
#    y 0.000000 3.673030 0.000000 
#    z 0.000000 0.000000 2.839700 
# 
# 
# High freq. dielectric constant tensor:
#      x y z
#    x 1.636020 0.000000 0.000000 
#    y 0.000000 1.692470 0.000000 
#    z 0.000000 0.000000 1.618660 
# 
# From -- ./inp_files/18241.got.cif
#   From: 2010.03.12/outbox.cif.g09.slc.cpg/sg42_10_cif.got.tgz:18241.got - 2010.04.14 02:04:31.
