data_PCOD8186350
_publ_section_title
;
Structure prediction by ZEFSAII (Michael W. Deem and Ramdas Pophale) SiO2 
 PCOD8186350
Probable space group: F M M 2
;
_chemical_formula_sum "Si O2"
_cell_formula_units_Z 72
_cell_length_a 21.460953
_cell_length_b 13.935609
_cell_length_c 12.659972
_cell_angle_alpha 90.000000
_cell_angle_beta 90.000000
_cell_angle_gamma 90.000000
_cell_volume 3786.236180
_symmetry_space_group_name_H-M "F M M 2"
_symmetry_group_IT_number 42
_symmetry_cell_setting 'orthorhombic'
loop_
_space_group_symop_operation_xyz
x,y,z
-x,-y,z
-x,y,z
x,-y,z
x,1/2+y,1/2+z
-x,1/2-y,1/2+z
-x,1/2+y,1/2+z
x,1/2-y,1/2+z
1/2+x,y,1/2+z
1/2-x,-y,1/2+z
1/2-x,y,1/2+z
1/2+x,-y,1/2+z
1/2+x,1/2+y,z
1/2-x,1/2-y,z
1/2-x,1/2+y,z
1/2+x,1/2-y,z
loop_
_atom_site_type_symbol
_atom_site_label
_atom_site_fract_x
_atom_site_fract_y
_atom_site_fract_z
Si Si1 0.289921 0.890749 0.312330
Si Si2 0.148309 0.390944 0.751025
Si Si3 0.250000 0.250000 0.483653
Si Si4 0.070644 0.389407 0.955464
Si Si5 0.142092 0.207282 0.629403
O O1 0.222431 0.880591 0.258827
O O2 0.290203 0.825774 0.416362
O O3 0.344353 0.853897 0.234943
O O4 0.304102 0.000000 0.344405
O O5 0.128617 0.500000 0.721532
O O6 0.116613 0.358514 0.860869
O O7 0.127221 0.318104 0.659036
O O8 0.202225 0.192335 0.556168
O O9 0.081625 0.500000 0.982495
O O10 0.000000 0.368775 0.919380
O O11 0.083537 0.331976 0.063700
#
# Coordination Sequence:
#
# PCOD8186350 Si02
#       5
#    16  16   8  16  16
#     4  11  21  33  51  81 114 147 180 230 284 330
#     4  10  20  35  55  81 114 146 186 233 280 332
#     4  12  20  34  50  82 114 146 178 230 278 350
#     4  10  22  39  59  82 111 152 195 231 273 333
#     4  12  20  36  57  84 114 145 190 231 282 335
#
# _framework density 19.016245999999999
#
# number of rings (size 3 to 8) (size 9 to 14) (size 15 to 20)
#    0.000    1.111    6.667    0.667    0.000    2.667 
#    0.000    0.000    0.000    0.000    0.000    0.000 
#    0.000    0.000    0.000    0.000    0.000    0.000 
#
# Total GULP energy -223230.101068 kJ/mol
# GULP energy per Si atom -12401.672282 kJ/mol
# Density = 1.897296 g / cm^3
# Si number density = 19.016246 Si / 1000 Ang^3
#
#
#
# Elastic Constant Matrix: (Units=GPa)
#
#
# Indices 1 2 3 4 5 6 
#
# 1 47.5811 19.0947 19.5563 0.0000 0.0000 0.0000
# 2 19.0947 102.4842 44.2237 0.0000 0.0000 0.0000
# 3 19.5563 44.2237 87.9686 0.0000 0.0000 0.0000
# 4 0.0000 0.0000 0.0000 32.7017 0.0000 0.0000
# 5 0.0000 0.0000 0.0000 0.0000 21.7993 0.0000
# 6 0.0000 0.0000 0.0000 0.0000 0.0000 20.3779
#
#
#
# Elastic Compliance Matrix: (Units=1/GPa)
#
#
# Indices 1 2 3 4 5 6 
#
# 1 0.023717 -0.002738 -0.003896 0.000000 0.000000 0.000000
# 2 -0.002738 0.012777 -0.005815 0.000000 0.000000 0.000000
# 3 -0.003896 -0.005815 0.015157 0.000000 0.000000 0.000000
# 4 0.000000 0.000000 0.000000 0.030579 0.000000 0.000000
# 5 0.000000 0.000000 0.000000 0.000000 0.045873 0.000000
# 6 0.000000 0.000000 0.000000 0.000000 0.000000 0.049073
#
#
# Mechanical properties :
#
#
# Convention : Reuss Voigt Hill
#
# Bulk Modulus (GPa) = 37.37796 44.86481 41.12138
# Shear Modulus (GPa) = 23.69778 25.31974 24.50876
#
# Velocity S-wave (km/s) = 3.53397 3.65290 3.59393
# Velocity P-wave (km/s) = 6.02913 6.43706 6.23643
#
# Compressibility (1/GPa) = 0.02675374
#
# Stress axis : x y z
#
# Youngs Moduli (GPa) = 42.16427 78.26719 65.97631
#
# Poissons Ratio (x) = 0.21426 0.25706
# Poissons Ratio (y) = 0.11543 0.38362
# Poissons Ratio (z) = 0.16428 0.45509
#
# Static dielectric constant tensor:
#      x y z
#    x 3.214020 0.000000 0.000000 
#    y 0.000000 3.642320 0.000000 
#    z 0.000000 0.000000 3.451280 
# 
# 
# High freq. dielectric constant tensor:
#      x y z
#    x 1.704300 0.000000 0.000000 
#    y 0.000000 1.746490 0.000000 
#    z 0.000000 0.000000 1.737310 
# 
# From -- ./inp_files/7695.got.cif
#   From: 2010.03.12/outbox.cif.g09.slc.cpg/sg42_4_cif.got.tgz:7695.got - 2010.04.14 02:04:31.
