data_PCOD8186044
_publ_section_title
;
Structure prediction by ZEFSAII (Michael W. Deem and Ramdas Pophale) SiO2 
 PCOD8186044
Probable space group: F M M 2
;
_chemical_formula_sum "Si O2"
_cell_formula_units_Z 96
_cell_length_a 8.659434
_cell_length_b 31.286880
_cell_length_c 19.610473
_cell_angle_alpha 90.000000
_cell_angle_beta 90.000000
_cell_angle_gamma 90.000000
_cell_volume 5313.000195
_symmetry_space_group_name_H-M "F M M 2"
_symmetry_group_IT_number 42
_symmetry_cell_setting 'orthorhombic'
loop_
_space_group_symop_operation_xyz
x,y,z
-x,-y,z
-x,y,z
x,-y,z
x,1/2+y,1/2+z
-x,1/2-y,1/2+z
-x,1/2+y,1/2+z
x,1/2-y,1/2+z
1/2+x,y,1/2+z
1/2-x,-y,1/2+z
1/2-x,y,1/2+z
1/2+x,-y,1/2+z
1/2+x,1/2+y,z
1/2-x,1/2-y,z
1/2-x,1/2+y,z
1/2+x,1/2-y,z
loop_
_atom_site_type_symbol
_atom_site_label
_atom_site_fract_x
_atom_site_fract_y
_atom_site_fract_z
Si Si1 0.818183 0.295392 0.421330
Si Si2 0.318293 0.204526 0.065599
Si Si3 0.679874 0.867398 0.173775
Si Si4 0.173603 0.044868 0.325416
Si Si5 0.326393 0.046672 0.663504
Si Si6 0.683788 0.863246 0.820805
O O1 0.750000 0.250000 0.399280
O O2 0.750426 0.310483 0.493482
O O3 0.774278 0.328296 0.362875
O O4 0.000000 0.291404 0.427646
O O5 0.500000 0.209480 0.057261
O O6 0.250000 0.250000 0.089027
O O7 0.272943 0.169069 0.120563
O O8 0.500000 0.866031 0.191941
O O9 0.719692 0.913673 0.140005
O O10 0.777988 0.857985 0.241285
O O11 0.172059 0.045889 0.244440
O O12 0.245843 0.090207 0.348855
O O13 0.000000 0.043036 0.353357
O O14 0.257513 0.000000 0.349504
O O15 0.500000 0.054126 0.636001
O O16 0.265242 0.000000 0.636985
O O17 0.500000 0.858911 0.830305
#
# Coordination Sequence:
#
# PCOD8186044 Si02
#       6
#    16  16  16  16  16  16
#     4  11  22  37  56  75  98 129 168 209 252 305
#     4  10  21  37  55  74  98 130 168 207 250 303
#     4  10  20  32  49  77 108 134 167 211 253 295
#     4   7  11  22  42  68  96 127 162 197 235 283
#     4   8  14  26  45  69  98 133 170 205 246 297
#     4  10  19  32  52  77 106 136 168 207 250 296
#
# _framework density 18.068885999999999
#
# number of rings (size 3 to 8) (size 9 to 14) (size 15 to 20)
#    0.000    2.667    0.000    6.000    0.000    3.667 
#    0.000    1.667    0.000    2.500    0.000    2.333 
#    0.000    0.000    0.000    0.000    0.000    0.000 
#
# Total GULP energy -297323.431719 kJ/mol
# GULP energy per Si atom -12388.476322 kJ/mol
# Density = 1.802776 g / cm^3
# Si number density = 18.068886 Si / 1000 Ang^3
#
#
#
# Elastic Constant Matrix: (Units=GPa)
#
#
# Indices 1 2 3 4 5 6 
#
# 1 70.1485 43.1955 23.2917 0.0000 0.0000 0.0000
# 2 43.1955 158.9979 63.8239 0.0000 0.0000 0.0000
# 3 23.2917 63.8239 54.3458 0.0000 0.0000 0.0000
# 4 0.0000 0.0000 0.0000 -3.4113 0.0000 0.0000
# 5 0.0000 0.0000 0.0000 0.0000 23.6654 0.0000
# 6 0.0000 0.0000 0.0000 0.0000 0.0000 29.6791
#
#
#
# Elastic Compliance Matrix: (Units=1/GPa)
#
#
# Indices 1 2 3 4 5 6 
#
# 1 0.017489 -0.003297 -0.003624 0.000000 0.000000 0.000000
# 2 -0.003297 0.012520 -0.013291 0.000000 0.000000 0.000000
# 3 -0.003624 -0.013291 0.035563 0.000000 0.000000 0.000000
# 4 0.000000 0.000000 0.000000 -0.293144 0.000000 0.000000
# 5 0.000000 0.000000 0.000000 0.000000 0.042256 0.000000
# 6 0.000000 0.000000 0.000000 0.000000 0.000000 0.033694
#
#
# Mechanical properties :
#
#
# Convention : Reuss Voigt Hill
#
# Bulk Modulus (GPa) = 39.76319 60.45715 50.11017
# Shear Modulus (GPa) = -48.62962 20.19872 -14.21545
#
# Velocity S-wave (km/s) = -5.19345 3.34709 -2.80793
# Velocity P-wave (km/s) = 3.72938 6.96198 4.15698
#
# Compressibility (1/GPa) = 0.02514889
#
# Stress axis : x y z
#
# Youngs Moduli (GPa) = 57.17998 79.87169 28.11942
#
# Poissons Ratio (x) = 0.26330 0.10190
# Poissons Ratio (y) = 0.18849 0.37373
# Poissons Ratio (z) = 0.20721 1.06156
#
# Static dielectric constant tensor:
#      x y z
#    x 3.269300 0.000000 0.000000 
#    y 0.000000 4.144360 0.000000 
#    z 0.000000 0.000000 2.935120 
# 
# 
# High freq. dielectric constant tensor:
#      x y z
#    x 1.691250 0.000000 0.000000 
#    y 0.000000 1.727120 0.000000 
#    z 0.000000 0.000000 1.651520 
# 
# From -- ./inp_files/23715.got.cif
#   From: 2010.03.12/outbox.cif.g09.slc.cpg/sg42_12_cif.got.tgz:23715.got - 2010.04.14 02:04:31.
