data_PCOD8186703
_publ_section_title
;
Structure prediction by ZEFSAII (Michael W. Deem and Ramdas Pophale) SiO2 
 PCOD8186703
Probable space group: F M M 2
;
_chemical_formula_sum "Si O2"
_cell_formula_units_Z 88
_cell_length_a 28.819711
_cell_length_b 18.748146
_cell_length_c 8.715332
_cell_angle_alpha 90.000000
_cell_angle_beta 90.000000
_cell_angle_gamma 90.000000
_cell_volume 4709.034628
_symmetry_space_group_name_H-M "F M M 2"
_symmetry_group_IT_number 42
_symmetry_cell_setting 'orthorhombic'
loop_
_space_group_symop_operation_xyz
x,y,z
-x,-y,z
-x,y,z
x,-y,z
x,1/2+y,1/2+z
-x,1/2-y,1/2+z
-x,1/2+y,1/2+z
x,1/2-y,1/2+z
1/2+x,y,1/2+z
1/2-x,-y,1/2+z
1/2-x,y,1/2+z
1/2+x,-y,1/2+z
1/2+x,1/2+y,z
1/2-x,1/2-y,z
1/2-x,1/2+y,z
1/2+x,1/2-y,z
loop_
_atom_site_type_symbol
_atom_site_label
_atom_site_fract_x
_atom_site_fract_y
_atom_site_fract_z
Si Si1 0.750000 0.750000 0.989661
Si Si2 0.390793 0.302310 0.119078
Si Si3 0.444944 0.696038 0.421061
Si Si4 0.687185 0.806883 0.230187
Si Si5 0.132108 0.081316 0.891422
Si Si6 0.052142 0.420528 0.164924
O O1 0.709522 0.715368 0.891454
O O2 0.726435 0.810514 0.098412
O O3 0.426543 0.323274 0.252698
O O4 0.351376 0.251131 0.186449
O O5 0.419621 0.266909 0.980586
O O6 0.367437 0.373860 0.049718
O O7 0.500000 0.707764 0.413844
O O8 0.429850 0.632521 0.534129
O O9 0.665853 0.884833 0.261147
O O10 0.080714 0.084806 0.821364
O O11 0.147647 0.000000 0.924931
O O12 0.055363 0.500000 0.095050
O O13 0.000000 0.400011 0.211890
#
# Coordination Sequence:
#
# PCOD8186703 Si02
#       6
#     8  16  16  16  16  16
#     4  10  22  36  70  90 110 144 200 244 298 362
#     4  12  21  37  59  86 121 155 202 248 288 354
#     4  11  21  33  56  88 120 159 208 252 288 340
#     4  11  20  40  62  91 112 151 193 242 296 363
#     4  11  23  39  61  89 124 159 196 247 303 353
#     4   9  19  36  56  81 119 165 205 245 297 349
#
# _framework density 18.687481999999999
#
# number of rings (size 3 to 8) (size 9 to 14) (size 15 to 20)
#    0.000    1.273    5.455    0.545    0.000    3.636 
#    0.000    0.909    0.000    0.000    0.000    0.000 
#    0.000    0.000    0.000    0.000    0.000    0.000 
#
# Total GULP energy -272785.473598 kJ/mol
# GULP energy per Si atom -12399.339709 kJ/mol
# Density = 1.864495 g / cm^3
# Si number density = 18.687482 Si / 1000 Ang^3
#
#
#
# Elastic Constant Matrix: (Units=GPa)
#
#
# Indices 1 2 3 4 5 6 
#
# 1 81.3063 39.1506 37.0405 0.0000 0.0000 0.0000
# 2 39.1506 128.4652 41.4938 0.0000 0.0000 0.0000
# 3 37.0405 41.4938 95.9984 -0.0001 0.0000 0.0000
# 4 0.0000 0.0000 -0.0001 30.9977 0.0000 0.0000
# 5 0.0000 0.0000 0.0000 0.0000 40.5308 0.0000
# 6 0.0000 0.0000 0.0000 0.0000 0.0000 20.5251
#
#
#
# Elastic Compliance Matrix: (Units=1/GPa)
#
#
# Indices 1 2 3 4 5 6 
#
# 1 0.016085 -0.003368 -0.004751 0.000000 0.000000 0.000000
# 2 -0.003368 0.009752 -0.002916 0.000000 0.000000 0.000000
# 3 -0.004751 -0.002916 0.013510 0.000000 0.000000 0.000000
# 4 0.000000 0.000000 0.000000 0.032260 0.000000 0.000000
# 5 0.000000 0.000000 0.000000 0.000000 0.024673 0.000000
# 6 0.000000 0.000000 0.000000 0.000000 0.000000 0.048721
#
#
# Mechanical properties :
#
#
# Convention : Reuss Voigt Hill
#
# Bulk Modulus (GPa) = 57.87329 60.12664 58.99996
# Shear Modulus (GPa) = 28.93024 30.94972 29.93998
#
# Velocity S-wave (km/s) = 3.93887 4.07403 4.00702
# Velocity P-wave (km/s) = 7.19184 7.37394 7.28345
#
# Compressibility (1/GPa) = 0.01727913
#
# Stress axis : x y z
#
# Youngs Moduli (GPa) = 62.16972 102.53961 74.01781
#
# Poissons Ratio (x) = 0.34531 0.35164
# Poissons Ratio (y) = 0.20936 0.21583
# Poissons Ratio (z) = 0.29535 0.29900
#
# Static dielectric constant tensor:
#      x y z
#    x 3.570060 0.000000 0.000000 
#    y 0.000000 3.414940 0.000000 
#    z 0.000000 0.000000 3.491110 
# 
# 
# High freq. dielectric constant tensor:
#      x y z
#    x 1.734570 0.000000 0.000000 
#    y 0.000000 1.707060 0.000000 
#    z 0.000000 0.000000 1.728990 
# 
# From -- ./inp_files/3619.got.cif
#   From: 2010.03.12/outbox.cif.g09.slc.cpg/sg42_2_cif.got.tgz:3619.got - 2010.04.14 02:04:31.
