data_PCOD8186261
_publ_section_title
;
Structure prediction by ZEFSAII (Michael W. Deem and Ramdas Pophale) SiO2 
 PCOD8186261
Probable space group: F M M 2
;
_chemical_formula_sum "Si O2"
_cell_formula_units_Z 96
_cell_length_a 26.225608
_cell_length_b 13.107507
_cell_length_c 14.244110
_cell_angle_alpha 90.000000
_cell_angle_beta 90.000000
_cell_angle_gamma 90.000000
_cell_volume 4896.446150
_symmetry_space_group_name_H-M "F M M 2"
_symmetry_group_IT_number 42
_symmetry_cell_setting 'orthorhombic'
loop_
_space_group_symop_operation_xyz
x,y,z
-x,-y,z
-x,y,z
x,-y,z
x,1/2+y,1/2+z
-x,1/2-y,1/2+z
-x,1/2+y,1/2+z
x,1/2-y,1/2+z
1/2+x,y,1/2+z
1/2-x,-y,1/2+z
1/2-x,y,1/2+z
1/2+x,-y,1/2+z
1/2+x,1/2+y,z
1/2-x,1/2-y,z
1/2-x,1/2+y,z
1/2+x,1/2-y,z
loop_
_atom_site_type_symbol
_atom_site_label
_atom_site_fract_x
_atom_site_fract_y
_atom_site_fract_z
Si Si1 0.724380 0.120646 0.860010
Si Si2 0.289623 0.383809 0.025320
Si Si3 0.383410 0.380344 0.433867
Si Si4 0.213371 0.616345 0.187040
Si Si5 0.059857 0.383278 0.746755
Si Si6 0.127064 0.745235 0.114225
O O1 0.669702 0.164059 0.891481
O O2 0.742299 0.157569 0.757181
O O3 0.718770 0.000000 0.864530
O O4 0.771497 0.158259 0.924609
O O5 0.307219 0.500000 0.020656
O O6 0.237826 0.371631 0.085041
O O7 0.337827 0.326705 0.063639
O O8 0.380110 0.500000 0.457872
O O9 0.425544 0.357299 0.354364
O O10 0.397837 0.323869 0.531589
O O11 0.199725 0.500000 0.212545
O O12 0.160519 0.678352 0.187243
O O13 0.077261 0.500000 0.724207
O O14 0.084641 0.304650 0.673478
O O15 0.000000 0.370676 0.735934
#
# Coordination Sequence:
#
# PCOD8186261 Si02
#       6
#    16  16  16  16  16  16
#     4   9  18  33  52  76 120 164 190 221 273 345
#     4  10  20  34  49  80 122 159 193 224 274 344
#     4  10  21  39  62  89 123 160 200 245 294 353
#     4  10  20  34  52  81 123 162 192 232 285 345
#     4  10  24  46  66  84 111 151 201 256 310 359
#     4  12  22  34  61  91 115 150 200 254 291 348
#
# _framework density 19.606057
#
# number of rings (size 3 to 8) (size 9 to 14) (size 15 to 20)
#    0.000    1.833    1.667    2.500    2.333    3.333 
#    0.000    0.000    0.000    1.500    0.000    0.000 
#    0.000    0.000    0.000    0.000    0.000    0.000 
#
# Total GULP energy -297521.482864 kJ/mol
# GULP energy per Si atom -12396.728453 kJ/mol
# Density = 1.956143 g / cm^3
# Si number density = 19.606057 Si / 1000 Ang^3
#
#
#
# Elastic Constant Matrix: (Units=GPa)
#
#
# Indices 1 2 3 4 5 6 
#
# 1 70.8249 34.2104 29.5403 0.0000 0.0000 0.0000
# 2 34.2104 77.8747 33.8407 0.0000 0.0000 0.0000
# 3 29.5403 33.8407 98.3867 0.0000 0.0000 0.0000
# 4 0.0000 0.0000 0.0000 20.1438 0.0000 0.0000
# 5 0.0000 0.0000 0.0000 0.0000 -199.6888 0.0000
# 6 0.0000 0.0000 0.0000 0.0000 0.0000 29.1001
#
#
#
# Elastic Compliance Matrix: (Units=1/GPa)
#
#
# Indices 1 2 3 4 5 6 
#
# 1 0.018789 -0.006822 -0.003295 0.000000 0.000000 0.000000
# 2 -0.006822 0.017575 -0.003997 0.000000 0.000000 0.000000
# 3 -0.003295 -0.003997 0.012528 0.000000 0.000000 0.000000
# 4 0.000000 0.000000 0.000000 0.049643 0.000000 0.000000
# 5 0.000000 0.000000 0.000000 0.000000 -0.005008 0.000000
# 6 0.000000 0.000000 0.000000 0.000000 0.000000 0.034364
#
#
# Mechanical properties :
#
#
# Convention : Reuss Voigt Hill
#
# Bulk Modulus (GPa) = 48.39236 49.14101 48.76668
# Shear Modulus (GPa) = 30.67362 -20.12267 5.27548
#
# Velocity S-wave (km/s) = 3.95966 -3.20714 1.64213
# Velocity P-wave (km/s) = 6.75583 3.37702 5.34067
#
# Compressibility (1/GPa) = 0.02066442
#
# Stress axis : x y z
#
# Youngs Moduli (GPa) = 53.22298 56.89928 79.82192
#
# Poissons Ratio (x) = 0.38818 0.26299
# Poissons Ratio (y) = 0.36310 0.31902
# Poissons Ratio (z) = 0.17536 0.22741
#
# Static dielectric constant tensor:
#      x y z
#    x 3.259310 0.000000 0.000000 
#    y 0.000000 3.847510 0.000000 
#    z 0.000000 0.000000 3.771060 
# 
# 
# High freq. dielectric constant tensor:
#      x y z
#    x 1.724230 0.000000 0.000000 
#    y 0.000000 1.780450 0.000000 
#    z 0.000000 0.000000 1.771770 
# 
# From -- ./inp_files/14005.got.cif
#   From: 2010.03.12/outbox.cif.g09.slc.cpg/sg42_8_cif.got.tgz:14005.got - 2010.04.14 02:04:31.
