data_PCOD8186912
_publ_section_title
;
Structure prediction by ZEFSAII (Michael W. Deem and Ramdas Pophale) SiO2 
 PCOD8186912
Probable space group: F D D 2
;
_chemical_formula_sum "Si O2"
_cell_formula_units_Z 120
_cell_length_a 16.770898
_cell_length_b 12.052394
_cell_length_c 30.005575
_cell_angle_alpha 90.000000
_cell_angle_beta 90.000000
_cell_angle_gamma 90.000000
_cell_volume 6065.010985
_symmetry_space_group_name_H-M "F D D 2"
_symmetry_group_IT_number 43
_symmetry_cell_setting 'orthorhombic'
loop_
_space_group_symop_operation_xyz
x,y,z
-x,-y,z
1/4-x,1/4+y,1/4+z
1/4+x,1/4-y,1/4+z
x,1/2+y,1/2+z
-x,1/2-y,1/2+z
1/4-x,3/4+y,3/4+z
1/4+x,3/4-y,3/4+z
1/2+x,y,1/2+z
1/2-x,-y,1/2+z
3/4-x,1/4+y,3/4+z
3/4+x,1/4-y,3/4+z
1/2+x,1/2+y,z
1/2-x,1/2-y,z
3/4-x,3/4+y,1/4+z
3/4+x,3/4-y,1/4+z
loop_
_atom_site_type_symbol
_atom_site_label
_atom_site_fract_x
_atom_site_fract_y
_atom_site_fract_z
Si Si1 0.868183 0.799780 0.584600
Si Si2 0.309587 0.840413 0.419882
Si Si3 0.454373 0.887055 0.299599
Si Si4 0.030875 0.886842 0.568076
Si Si5 0.729383 0.529734 0.469727
Si Si6 0.750000 0.250000 0.008941
Si Si7 0.320997 0.669683 0.165842
Si Si8 0.542599 0.744697 0.886635
O O1 0.822767 0.792227 0.538375
O O2 0.849848 0.694841 0.615529
O O3 0.960595 0.797049 0.570321
O O4 0.844031 0.908819 0.612263
O O5 0.250000 0.750000 0.442525
O O6 0.306493 0.829784 0.367201
O O7 0.403067 0.808483 0.426950
O O8 0.284215 0.963009 0.434845
O O9 0.359620 0.911800 0.294479
O O10 0.475170 0.791652 0.264511
O O11 0.480988 0.845537 0.348923
O O12 0.500000 0.000000 0.288042
O O13 0.000000 0.000000 0.543807
O O14 0.775447 0.644979 0.478857
O O15 0.642861 0.563590 0.450292
O O16 0.250000 0.750000 0.181632
O O17 0.285715 0.544436 0.161559
#
# Coordination Sequence:
#
# PCOD8186912 Si02
#       8
#    16  16  16  16  16   8  16  16
#     4  11  16  36  65  87 114 164 211 252 292 366
#     4  10  17  33  62  91 119 148 195 258 316 353
#     4  11  23  37  59  93 129 157 193 256 328 367
#     4  10  17  34  63  90 113 157 212 249 292 374
#     4  12  23  39  55  90 125 162 197 260 318 364
#     4  12  24  38  60  84 132 166 200 258 316 368
#     4  10  20  34  63  91 118 156 217 259 294 356
#     4  10  18  38  61  90 115 163 206 252 296 379
#
# _framework density 19.785620000000002
#
# number of rings (size 3 to 8) (size 9 to 14) (size 15 to 20)
#    0.000    1.333    8.667    1.200    0.000    1.600 
#    4.800    0.000    0.000    4.000    0.000    0.000 
#    0.000    0.000    0.000    0.000    0.000    0.000 
#
# Total GULP energy -371779.569945 kJ/mol
# GULP energy per Si atom -12392.652332 kJ/mol
# Density = 1.974059 g / cm^3
# Si number density = 19.785620 Si / 1000 Ang^3
#
#
#
# Elastic Constant Matrix: (Units=GPa)
#
#
# Indices 1 2 3 4 5 6 
#
# 1 112.2250 62.4287 22.4359 0.0000 0.0000 0.0000
# 2 62.4287 119.9778 35.2892 0.0000 0.0000 0.0000
# 3 22.4359 35.2892 44.7875 0.0000 0.0000 0.0000
# 4 0.0000 0.0000 0.0000 21.4806 0.0000 0.0000
# 5 0.0000 0.0000 0.0000 0.0000 12.5103 0.0000
# 6 0.0000 0.0000 0.0000 0.0000 0.0000 40.1964
#
#
#
# Elastic Compliance Matrix: (Units=1/GPa)
#
#
# Indices 1 2 3 4 5 6 
#
# 1 0.012617 -0.006126 -0.001494 0.000000 0.000000 0.000000
# 2 -0.006126 0.013823 -0.007823 0.000000 0.000000 0.000000
# 3 -0.001494 -0.007823 0.029240 0.000000 0.000000 0.000000
# 4 0.000000 0.000000 0.000000 0.046554 0.000000 0.000000
# 5 0.000000 0.000000 0.000000 0.000000 0.079934 0.000000
# 6 0.000000 0.000000 0.000000 0.000000 0.000000 0.024878
#
#
# Mechanical properties :
#
#
# Convention : Reuss Voigt Hill
#
# Bulk Modulus (GPa) = 40.33057 57.47753 48.90405
# Shear Modulus (GPa) = 20.30905 25.29324 22.80114
#
# Velocity S-wave (km/s) = 3.20731 3.57930 3.39840
# Velocity P-wave (km/s) = 5.84327 6.79670 6.33794
#
# Compressibility (1/GPa) = 0.02479509
#
# Stress axis : x y z
#
# Youngs Moduli (GPa) = 79.25891 72.34165 34.19973
#
# Poissons Ratio (x) = 0.44314 0.05109
# Poissons Ratio (y) = 0.48551 0.26755
# Poissons Ratio (z) = 0.11839 0.56594
#
# Static dielectric constant tensor:
#      x y z
#    x 3.884000 0.000000 0.000000 
#    y 0.000000 3.756750 0.000000 
#    z 0.000000 0.000000 3.451610 
# 
# 
# High freq. dielectric constant tensor:
#      x y z
#    x 1.764920 0.000000 0.000000 
#    y 0.000000 1.751330 0.000000 
#    z 0.000000 0.000000 1.756740 
# 
# From -- ./inp_files/29519.got.cif
#   From: 2010.06.25/outbox.cif.g09.slc.cpg/sg43_15_cif.got.tgz:29519.got - 2010.06.26 16:48:59.
