data_PCOD8186952
_publ_section_title
;
Structure prediction by ZEFSAII (Michael W. Deem and Ramdas Pophale) SiO2 
 PCOD8186952
Probable space group: F D D 2
;
_chemical_formula_sum "Si O2"
_cell_formula_units_Z 96
_cell_length_a 10.199905
_cell_length_b 15.116130
_cell_length_c 27.471505
_cell_angle_alpha 90.000000
_cell_angle_beta 90.000000
_cell_angle_gamma 90.000000
_cell_volume 4235.641527
_symmetry_space_group_name_H-M "F D D 2"
_symmetry_group_IT_number 43
_symmetry_cell_setting 'orthorhombic'
loop_
_space_group_symop_operation_xyz
x,y,z
-x,-y,z
1/4-x,1/4+y,1/4+z
1/4+x,1/4-y,1/4+z
x,1/2+y,1/2+z
-x,1/2-y,1/2+z
1/4-x,3/4+y,3/4+z
1/4+x,3/4-y,3/4+z
1/2+x,y,1/2+z
1/2-x,-y,1/2+z
3/4-x,1/4+y,3/4+z
3/4+x,1/4-y,3/4+z
1/2+x,1/2+y,z
1/2-x,1/2-y,z
3/4-x,3/4+y,1/4+z
3/4+x,3/4-y,1/4+z
loop_
_atom_site_type_symbol
_atom_site_label
_atom_site_fract_x
_atom_site_fract_y
_atom_site_fract_z
Si Si1 0.494111 0.605486 0.545890
Si Si2 0.483792 0.105095 0.517150
Si Si3 0.242398 0.408799 0.586934
Si Si4 0.192085 0.843801 0.188856
Si Si5 0.529796 0.860017 0.327342
Si Si6 0.171942 0.842702 0.927385
O O1 0.500000 0.500000 0.552259
O O2 0.625227 0.643725 0.571575
O O3 0.495515 0.630045 0.488707
O O4 0.366023 0.652222 0.570834
O O5 0.384660 0.131868 0.560801
O O6 0.623640 0.144269 0.534674
O O7 0.437584 0.158221 0.469450
O O8 0.500000 0.000000 0.507766
O O9 0.227847 0.410735 0.645270
O O10 0.248245 0.507838 0.567813
O O11 0.250000 0.750000 0.173926
O O12 0.033531 0.836313 0.193035
O O13 0.596882 0.875615 0.379375
O O14 0.250000 0.750000 0.920407
#
# Coordination Sequence:
#
# PCOD8186952 Si02
#       6
#    16  16  16  16  16  16
#     4   9  20  36  59  85 124 166 210 254 323 385
#     4  10  21  37  65  92 124 167 215 262 328 384
#     4  10  18  38  61  87 119 170 214 251 316 396
#     4  11  22  37  61  94 125 160 219 266 315 381
#     4  10  20  39  62  91 125 170 212 264 321 394
#     4  12  22  41  69  96 125 172 224 268 320 397
#
# _framework density 22.664808000000001
#
# number of rings (size 3 to 8) (size 9 to 14) (size 15 to 20)
#    0.000    1.667    5.000    0.500    2.333    2.000 
#    0.000    0.000    0.000    0.000    0.000    0.000 
#    0.000    0.000    0.000    0.000    0.000    0.000 
#
# Total GULP energy -297409.193024 kJ/mol
# GULP energy per Si atom -12392.049709 kJ/mol
# Density = 2.261322 g / cm^3
# Si number density = 22.664808 Si / 1000 Ang^3
#
#
#
# Elastic Constant Matrix: (Units=GPa)
#
#
# Indices 1 2 3 4 5 6 
#
# 1 192.9896 15.5142 69.9681 0.0000 0.0000 0.0000
# 2 15.5142 24.5509 3.9387 0.0000 0.0000 0.0000
# 3 69.9681 3.9387 142.4322 0.0000 0.0000 0.0000
# 4 0.0000 0.0000 0.0000 23.0658 0.0000 0.0000
# 5 0.0000 0.0000 0.0000 0.0000 36.3004 0.0000
# 6 0.0000 0.0000 0.0000 0.0000 0.0000 15.1079
#
#
#
# Elastic Compliance Matrix: (Units=1/GPa)
#
#
# Indices 1 2 3 4 5 6 
#
# 1 0.006619 -0.003677 -0.003150 0.000000 0.000000 0.000000
# 2 -0.003677 0.042956 0.000619 0.000000 0.000000 0.000000
# 3 -0.003150 0.000619 0.008551 0.000000 0.000000 0.000000
# 4 0.000000 0.000000 0.000000 0.043354 0.000000 0.000000
# 5 0.000000 0.000000 0.000000 0.000000 0.027548 0.000000
# 6 0.000000 0.000000 0.000000 0.000000 0.000000 0.066191
#
#
# Mechanical properties :
#
#
# Convention : Reuss Voigt Hill
#
# Bulk Modulus (GPa) = 21.87743 59.86828 40.87286
# Shear Modulus (GPa) = 22.43425 32.93160 27.68292
#
# Velocity S-wave (km/s) = 3.14957 3.81594 3.49865
# Velocity P-wave (km/s) = 4.78538 6.77401 5.86460
#
# Compressibility (1/GPa) = 0.04570920
#
# Stress axis : x y z
#
# Youngs Moduli (GPa) = 151.07421 23.27945 116.94338
#
# Poissons Ratio (x) = 0.08561 0.36836
# Poissons Ratio (y) = 0.55557 -0.07235
# Poissons Ratio (z) = 0.47587 -0.01440
#
# Static dielectric constant tensor:
#      x y z
#    x 4.829900 0.000000 0.000000 
#    y 0.000000 3.556100 0.000000 
#    z 0.000000 0.000000 3.918240 
# 
# 
# High freq. dielectric constant tensor:
#      x y z
#    x 1.915220 0.000000 0.000000 
#    y 0.000000 1.846490 0.000000 
#    z 0.000000 0.000000 1.894920 
# 
# From -- ./inp_files/24235.got.cif
#   From: 2010.06.25/outbox.cif.g09.slc.cpg/sg43_13_cif.got.tgz:24235.got - 2010.06.26 16:48:59.
