data_PCOD8186418
_publ_section_title
;
Structure prediction by ZEFSAII (Michael W. Deem and Ramdas Pophale) SiO2 
 PCOD8186418
Probable space group: F M M 2
;
_chemical_formula_sum "Si O2"
_cell_formula_units_Z 112
_cell_length_a 16.199957
_cell_length_b 24.700115
_cell_length_c 13.631263
_cell_angle_alpha 90.000000
_cell_angle_beta 90.000000
_cell_angle_gamma 90.000000
_cell_volume 5454.424494
_symmetry_space_group_name_H-M "F M M 2"
_symmetry_group_IT_number 42
_symmetry_cell_setting 'orthorhombic'
loop_
_space_group_symop_operation_xyz
x,y,z
-x,-y,z
-x,y,z
x,-y,z
x,1/2+y,1/2+z
-x,1/2-y,1/2+z
-x,1/2+y,1/2+z
x,1/2-y,1/2+z
1/2+x,y,1/2+z
1/2-x,-y,1/2+z
1/2-x,y,1/2+z
1/2+x,-y,1/2+z
1/2+x,1/2+y,z
1/2-x,1/2-y,z
1/2-x,1/2+y,z
1/2+x,1/2-y,z
loop_
_atom_site_type_symbol
_atom_site_label
_atom_site_fract_x
_atom_site_fract_y
_atom_site_fract_z
Si Si1 0.903028 0.382502 0.265890
Si Si2 0.238988 0.602213 0.415280
Si Si3 0.851295 0.059878 0.259159
Si Si4 0.798057 0.058937 0.616126
Si Si5 0.808768 0.293220 0.496926
Si Si6 0.092594 0.168081 0.175392
Si Si7 0.405320 0.739969 0.817401
O O1 0.847305 0.409048 0.354598
O O2 0.870825 0.402111 0.158220
O O3 0.892261 0.317759 0.264440
O O4 0.000000 0.398358 0.281195
O O5 0.322170 0.579717 0.365941
O O6 0.243595 0.577067 0.523451
O O7 0.245148 0.666845 0.428642
O O8 0.767128 0.054802 0.201883
O O9 0.909589 0.106353 0.214593
O O10 0.894843 0.000000 0.263826
O O11 0.837695 0.000000 0.595668
O O12 0.750000 0.250000 0.551254
O O13 0.856967 0.329590 0.574870
O O14 0.867657 0.259095 0.425684
O O15 0.132757 0.211266 0.251369
O O16 0.000000 0.185821 0.150606
O O17 0.500000 0.753627 0.833108
#
# Coordination Sequence:
#
# PCOD8186418 Si02
#       7
#    16  16  16  16  16  16  16
#     4   9  20  38  62  89 121 161 204 257 316 376
#     4  10  20  37  60  90 120 159 203 252 309 368
#     4  10  21  39  61  83 117 162 205 253 306 368
#     4  10  20  36  57  86 121 156 202 254 305 363
#     4  11  22  34  60  92 120 154 200 247 302 376
#     4  11  23  39  60  88 122 160 202 252 310 366
#     4   9  20  39  58  83 122 157 191 245 309 366
#
# _framework density 20.533788999999999
#
# number of rings (size 3 to 8) (size 9 to 14) (size 15 to 20)
#    0.000    2.000    1.429    1.714    2.000    3.429 
#    0.000    0.714    0.000    1.714    0.000    0.000 
#    0.000    0.000    0.000    0.000    0.000    0.000 
#
# Total GULP energy -346870.490373 kJ/mol
# GULP energy per Si atom -12388.231799 kJ/mol
# Density = 2.048705 g / cm^3
# Si number density = 20.533789 Si / 1000 Ang^3
#
#
#
# Elastic Constant Matrix: (Units=GPa)
#
#
# Indices 1 2 3 4 5 6 
#
# 1 64.3708 40.7171 36.0087 0.0000 0.0000 0.0000
# 2 40.7171 121.7226 50.2751 0.0000 0.0000 0.0000
# 3 36.0087 50.2751 98.7134 0.0000 0.0000 0.0000
# 4 0.0000 0.0000 0.0000 28.3076 0.0000 0.0000
# 5 0.0000 0.0000 0.0000 0.0000 29.3854 0.0000
# 6 0.0000 0.0000 0.0000 0.0000 0.0000 25.6027
#
#
#
# Elastic Compliance Matrix: (Units=1/GPa)
#
#
# Indices 1 2 3 4 5 6 
#
# 1 0.021727 -0.005058 -0.005349 0.000000 0.000000 0.000000
# 2 -0.005058 0.011582 -0.004053 0.000000 0.000000 0.000000
# 3 -0.005349 -0.004053 0.014146 0.000000 0.000000 0.000000
# 4 0.000000 0.000000 0.000000 0.035326 0.000000 0.000000
# 5 0.000000 0.000000 0.000000 0.000000 0.034031 0.000000
# 6 0.000000 0.000000 0.000000 0.000000 0.000000 0.039058
#
#
# Mechanical properties :
#
#
# Convention : Reuss Voigt Hill
#
# Bulk Modulus (GPa) = 53.95919 59.86762 56.91340
# Shear Modulus (GPa) = 26.18219 27.17953 26.68086
#
# Velocity S-wave (km/s) = 3.57470 3.64215 3.60858
# Velocity P-wave (km/s) = 6.58584 6.84879 6.71860
#
# Compressibility (1/GPa) = 0.01853253
#
# Stress axis : x y z
#
# Youngs Moduli (GPa) = 46.02562 86.34352 70.69119
#
# Poissons Ratio (x) = 0.43676 0.37815
# Poissons Ratio (y) = 0.23282 0.28654
# Poissons Ratio (z) = 0.24620 0.34998
#
# Static dielectric constant tensor:
#      x y z
#    x 3.511690 0.000000 0.000000 
#    y 0.000000 4.121620 0.000000 
#    z 0.000000 0.000000 3.725750 
# 
# 
# High freq. dielectric constant tensor:
#      x y z
#    x 1.778870 0.000000 0.000000 
#    y 0.000000 1.810070 0.000000 
#    z 0.000000 0.000000 1.800190 
# 
# From -- ./inp_files/14234.got.cif
#   From: 2010.03.12/outbox.cif.g09.slc.cpg/sg42_8_cif.got.tgz:14234.got - 2010.04.14 02:04:31.
