data_PCOD8186179
_publ_section_title
;
Structure prediction by ZEFSAII (Michael W. Deem and Ramdas Pophale) SiO2 
 PCOD8186179
Probable space group: F M M 2
;
_chemical_formula_sum "Si O2"
_cell_formula_units_Z 88
_cell_length_a 16.090509
_cell_length_b 22.155004
_cell_length_c 12.887246
_cell_angle_alpha 90.000000
_cell_angle_beta 90.000000
_cell_angle_gamma 90.000000
_cell_volume 4594.113644
_symmetry_space_group_name_H-M "F M M 2"
_symmetry_group_IT_number 42
_symmetry_cell_setting 'orthorhombic'
loop_
_space_group_symop_operation_xyz
x,y,z
-x,-y,z
-x,y,z
x,-y,z
x,1/2+y,1/2+z
-x,1/2-y,1/2+z
-x,1/2+y,1/2+z
x,1/2-y,1/2+z
1/2+x,y,1/2+z
1/2-x,-y,1/2+z
1/2-x,y,1/2+z
1/2+x,-y,1/2+z
1/2+x,1/2+y,z
1/2-x,1/2-y,z
1/2-x,1/2+y,z
1/2+x,1/2-y,z
loop_
_atom_site_type_symbol
_atom_site_label
_atom_site_fract_x
_atom_site_fract_y
_atom_site_fract_z
Si Si1 0.183284 0.334067 0.503660
Si Si2 0.000000 0.069251 0.284081
Si Si3 0.834333 0.864468 0.768350
Si Si4 0.352931 0.289592 0.572747
Si Si5 0.500000 0.869907 0.001655
Si Si6 0.000000 0.431752 0.205070
Si Si7 0.324708 0.071154 0.676590
O O1 0.157256 0.342792 0.385563
O O2 0.275746 0.309126 0.503296
O O3 0.127801 0.281957 0.560334
O O4 0.176725 0.397446 0.564100
O O5 0.916014 0.084472 0.221954
O O6 0.000000 0.109387 0.385049
O O7 0.000000 0.000000 0.317861
O O8 0.836559 0.805696 0.693684
O O9 0.916283 0.903324 0.749377
O O10 0.749457 0.902447 0.748705
O O11 0.423396 0.327988 0.522217
O O12 0.500000 0.926605 0.079967
O O13 0.000000 0.500000 0.240592
O O14 0.309361 0.000000 0.661569
#
# Coordination Sequence:
#
# PCOD8186179 Si02
#       7
#    16   8  16  16   8   8  16
#     4  10  21  38  58  81 113 150 180 226 285 332
#     4  10  21  36  56  82 113 148 184 228 278 326
#     4  10  21  38  58  82 113 148 185 229 280 329
#     4   9  21  36  56  84 109 140 189 232 272 331
#     4  10  19  36  58  82 109 144 188 234 278 324
#     4  10  21  36  56  84 113 144 188 232 272 330
#     4  10  22  38  56  83 114 146 189 230 271 333
#
# _framework density 19.154945000000001
#
# number of rings (size 3 to 8) (size 9 to 14) (size 15 to 20)
#    0.000    2.182    0.000    1.909    0.000   10.909 
#    0.000    7.273    0.000    0.000    0.000    0.000 
#    0.000    0.000    0.000    0.000    0.000    0.000 
#
# Total GULP energy -272687.706114 kJ/mol
# GULP energy per Si atom -12394.895732 kJ/mol
# Density = 1.911135 g / cm^3
# Si number density = 19.154945 Si / 1000 Ang^3
#
#
#
# Elastic Constant Matrix: (Units=GPa)
#
#
# Indices 1 2 3 4 5 6 
#
# 1 116.4522 42.3783 41.9094 0.0000 0.0000 0.0000
# 2 42.3783 130.6055 75.5459 0.0000 0.0000 0.0000
# 3 41.9094 75.5459 135.5934 0.0000 0.0000 0.0000
# 4 0.0000 0.0000 0.0000 21.1848 0.0000 0.0000
# 5 0.0000 0.0000 0.0000 0.0000 48.3610 0.0000
# 6 0.0000 0.0000 0.0000 0.0000 0.0000 311.6061
#
#
#
# Elastic Compliance Matrix: (Units=1/GPa)
#
#
# Indices 1 2 3 4 5 6 
#
# 1 0.010060 -0.002163 -0.001904 0.000000 0.000000 0.000000
# 2 -0.002163 0.011762 -0.005885 0.000000 0.000000 0.000000
# 3 -0.001904 -0.005885 0.011242 0.000000 0.000000 0.000000
# 4 0.000000 0.000000 0.000000 0.047204 0.000000 0.000000
# 5 0.000000 0.000000 0.000000 0.000000 0.020678 0.000000
# 6 0.000000 0.000000 0.000000 0.000000 0.000000 0.003209
#
#
# Mechanical properties :
#
#
# Convention : Reuss Voigt Hill
#
# Bulk Modulus (GPa) = 75.98478 78.03536 77.01007
# Shear Modulus (GPa) = 38.92695 91.08488 65.00592
#
# Velocity S-wave (km/s) = 4.51290 6.90325 5.83186
# Velocity P-wave (km/s) = 8.17983 10.21603 9.25410
#
# Compressibility (1/GPa) = 0.01316053
#
# Stress axis : x y z
#
# Youngs Moduli (GPa) = 99.40816 85.01665 88.94874
#
# Poissons Ratio (x) = 0.18385 0.16939
# Poissons Ratio (y) = 0.21497 0.52347
# Poissons Ratio (z) = 0.18931 0.50032
#
# Static dielectric constant tensor:
#      x y z
#    x 3.489480 0.000000 0.000000 
#    y 0.000000 3.674420 0.000000 
#    z 0.000000 0.000000 3.389660 
# 
# 
# High freq. dielectric constant tensor:
#      x y z
#    x 1.759330 0.000000 0.000000 
#    y 0.000000 1.751280 0.000000 
#    z 0.000000 0.000000 1.739530 
# 
# From -- ./inp_files/7887.got.cif
#   From: 2010.03.12/outbox.cif.g09.slc.cpg/sg42_4_cif.got.tgz:7887.got - 2010.04.14 02:04:31.
