data_PCOD8186403
_publ_section_title
;
Structure prediction by ZEFSAII (Michael W. Deem and Ramdas Pophale) SiO2 
 PCOD8186403
Probable space group: F M M 2
;
_chemical_formula_sum "Si O2"
_cell_formula_units_Z 96
_cell_length_a 25.711575
_cell_length_b 8.716259
_cell_length_c 23.620329
_cell_angle_alpha 90.000000
_cell_angle_beta 90.000000
_cell_angle_gamma 90.000000
_cell_volume 5293.522336
_symmetry_space_group_name_H-M "F M M 2"
_symmetry_group_IT_number 42
_symmetry_cell_setting 'orthorhombic'
loop_
_space_group_symop_operation_xyz
x,y,z
-x,-y,z
-x,y,z
x,-y,z
x,1/2+y,1/2+z
-x,1/2-y,1/2+z
-x,1/2+y,1/2+z
x,1/2-y,1/2+z
1/2+x,y,1/2+z
1/2-x,-y,1/2+z
1/2-x,y,1/2+z
1/2+x,-y,1/2+z
1/2+x,1/2+y,z
1/2-x,1/2-y,z
1/2-x,1/2+y,z
1/2+x,1/2-y,z
loop_
_atom_site_type_symbol
_atom_site_label
_atom_site_fract_x
_atom_site_fract_y
_atom_site_fract_z
Si Si1 0.195657 0.180928 0.106170
Si Si2 0.402014 0.317101 0.174998
Si Si3 0.441286 0.818208 0.793910
Si Si4 0.902237 0.318249 0.914648
Si Si5 0.000000 0.317820 0.478057
Si Si6 0.694857 0.818428 0.476829
Si Si7 0.500000 0.182368 0.606177
O O1 0.250000 0.250000 0.126630
O O2 0.151388 0.246739 0.148049
O O3 0.199780 0.000000 0.110510
O O4 0.182528 0.229415 0.041647
O O5 0.401566 0.500000 0.173070
O O6 0.409673 0.256905 0.239192
O O7 0.449236 0.252378 0.137439
O O8 0.500000 0.749843 0.794999
O O9 0.409764 0.767221 0.849477
O O10 0.445770 0.000000 0.790775
O O11 0.903402 0.500000 0.921451
O O12 0.847857 0.252935 0.935798
O O13 0.948658 0.247135 0.950053
O O14 0.000000 0.259186 0.542254
O O15 0.000000 0.500000 0.473610
O O16 0.750000 0.750000 0.457881
O O17 0.695543 0.000000 0.469413
O O18 0.500000 0.000000 0.608675
#
# Coordination Sequence:
#
# PCOD8186403 Si02
#       7
#    16  16  16  16   8  16   8
#     4   9  18  32  52  77 103 132 168 209 256 310
#     4   9  15  27  49  75 100 127 165 213 259 305
#     4   9  16  29  49  74 102 135 174 214 255 303
#     4  11  21  34  52  77 107 140 178 218 261 311
#     4  11  21  32  49  77 109 139 172 217 266 316
#     4  10  20  36  56  80 107 138 175 215 263 316
#     4   9  16  26  45  73 101 125 158 211 268 312
#
# _framework density 18.135373000000001
#
# number of rings (size 3 to 8) (size 9 to 14) (size 15 to 20)
#    0.000    2.333    1.667    2.250    0.000    3.333 
#    0.000    0.833    0.000    4.000    0.000    2.333 
#    0.000    0.000    0.000    0.000    0.000    0.000 
#
# Total GULP energy -297576.441176 kJ/mol
# GULP energy per Si atom -12399.018382 kJ/mol
# Density = 1.809410 g / cm^3
# Si number density = 18.135373 Si / 1000 Ang^3
#
#
#
# Elastic Constant Matrix: (Units=GPa)
#
#
# Indices 1 2 3 4 5 6 
#
# 1 180.1621 32.5784 108.9160 0.0000 0.0000 0.0000
# 2 32.5784 38.1044 33.9480 0.0000 0.0000 -0.0001
# 3 108.9160 33.9480 172.3957 0.0000 0.0000 0.0000
# 4 0.0000 0.0000 0.0000 16.5426 0.0000 0.0000
# 5 0.0000 0.0000 0.0000 0.0000 79.5663 0.0000
# 6 0.0000 -0.0001 0.0000 0.0000 0.0000 30.5053
#
#
#
# Elastic Compliance Matrix: (Units=1/GPa)
#
#
# Indices 1 2 3 4 5 6 
#
# 1 0.009310 -0.003298 -0.005233 0.000000 0.000000 0.000000
# 2 -0.003298 0.032996 -0.004414 0.000000 0.000000 0.000000
# 3 -0.005233 -0.004414 0.009976 0.000000 0.000000 0.000000
# 4 0.000000 0.000000 0.000000 0.060450 0.000000 0.000000
# 5 0.000000 0.000000 0.000000 0.000000 0.012568 0.000000
# 6 0.000000 0.000000 0.000000 0.000000 0.000000 0.032781
#
#
# Mechanical properties :
#
#
# Convention : Reuss Voigt Hill
#
# Bulk Modulus (GPa) = 37.88938 82.39410 60.14174
# Shear Modulus (GPa) = 25.93794 39.67083 32.80439
#
# Velocity S-wave (km/s) = 3.78595 4.68213 4.25769
# Velocity P-wave (km/s) = 6.32844 8.64646 7.57662
#
# Compressibility (1/GPa) = 0.02639262
#
# Stress axis : x y z
#
# Youngs Moduli (GPa) = 107.40799 30.30679 100.24489
#
# Poissons Ratio (x) = 0.09996 0.52454
# Poissons Ratio (y) = 0.35426 0.44245
# Poissons Ratio (z) = 0.56202 0.13377
#
# Static dielectric constant tensor:
#      x y z
#    x 3.292610 0.000000 0.000000 
#    y 0.000000 3.015200 0.000000 
#    z 0.000000 0.000000 3.633620 
# 
# 
# High freq. dielectric constant tensor:
#      x y z
#    x 1.709550 0.000000 0.000000 
#    y 0.000000 1.667880 0.000000 
#    z 0.000000 0.000000 1.707340 
# 
# From -- ./inp_files/28082.got.cif
#   From: 2010.03.12/outbox.cif.g09.slc.cpg/sg42_15_cif.got.tgz:28082.got - 2010.04.14 02:04:31.
