data_PCOD8186692
_publ_section_title
;
Structure prediction by ZEFSAII (Michael W. Deem and Ramdas Pophale) SiO2 
 PCOD8186692
Probable space group: F M M 2
;
_chemical_formula_sum "Si O2"
_cell_formula_units_Z 88
_cell_length_a 13.337907
_cell_length_b 22.090222
_cell_length_c 15.083692
_cell_angle_alpha 90.000000
_cell_angle_beta 90.000000
_cell_angle_gamma 90.000000
_cell_volume 4444.218687
_symmetry_space_group_name_H-M "F M M 2"
_symmetry_group_IT_number 42
_symmetry_cell_setting 'orthorhombic'
loop_
_space_group_symop_operation_xyz
x,y,z
-x,-y,z
-x,y,z
x,-y,z
x,1/2+y,1/2+z
-x,1/2-y,1/2+z
-x,1/2+y,1/2+z
x,1/2-y,1/2+z
1/2+x,y,1/2+z
1/2-x,-y,1/2+z
1/2-x,y,1/2+z
1/2+x,-y,1/2+z
1/2+x,1/2+y,z
1/2-x,1/2-y,z
1/2-x,1/2+y,z
1/2+x,1/2-y,z
loop_
_atom_site_type_symbol
_atom_site_label
_atom_site_fract_x
_atom_site_fract_y
_atom_site_fract_z
Si Si1 0.219122 0.152192 0.183050
Si Si2 0.711382 0.625832 0.499226
Si Si3 0.500000 0.929463 0.259923
Si Si4 0.114669 0.734860 0.243985
Si Si5 0.750000 0.750000 0.406880
Si Si6 0.290772 0.570372 0.827072
Si Si7 0.500000 0.571678 0.552175
O O1 0.127135 0.198106 0.201056
O O2 0.324344 0.188475 0.183262
O O3 0.212178 0.102791 0.261320
O O4 0.219580 0.119744 0.087395
O O5 0.713210 0.695278 0.467924
O O6 0.764078 0.582391 0.428380
O O7 0.597954 0.603031 0.510942
O O8 0.599281 0.901663 0.305356
O O9 0.500000 0.916249 0.156199
O O10 0.500000 0.000000 0.280166
O O11 0.157532 0.731148 0.343926
O O12 0.000000 0.714781 0.243894
O O13 0.286017 0.500000 0.805270
O O14 0.500000 0.500000 0.530496
#
# Coordination Sequence:
#
# PCOD8186692 Si02
#       7
#    16  16   8  16   8  16   8
#     4  10  22  40  61  92 124 161 212 259 321 375
#     4  12  23  41  62  95 133 162 217 268 321 386
#     4   9  20  40  63  89 119 165 216 254 312 376
#     4  10  21  41  65  87 123 170 212 258 318 392
#     4  10  22  38  58  96 126 168 210 254 336 372
#     4  11  22  39  64  91 127 164 206 267 316 374
#     4  11  24  40  69  99 125 177 229 268 318 380
#
# _framework density 19.801006999999998
#
# number of rings (size 3 to 8) (size 9 to 14) (size 15 to 20)
#    0.000    1.636    5.455    1.636    3.818    0.727 
#    1.636    0.000    0.000    0.000    0.000    0.000 
#    0.000    0.000    0.000    0.000    0.000    0.000 
#
# Total GULP energy -272789.481258 kJ/mol
# GULP energy per Si atom -12399.521875 kJ/mol
# Density = 1.975594 g / cm^3
# Si number density = 19.801007 Si / 1000 Ang^3
#
#
#
# Elastic Constant Matrix: (Units=GPa)
#
#
# Indices 1 2 3 4 5 6 
#
# 1 80.8698 10.1437 19.2939 0.0000 0.0000 0.0000
# 2 10.1437 75.3324 20.0884 0.0000 0.0000 0.0000
# 3 19.2939 20.0884 120.3912 0.0000 0.0000 0.0000
# 4 0.0000 0.0000 0.0000 30.3033 0.0000 0.0000
# 5 0.0000 0.0000 0.0000 0.0000 26.2841 0.0000
# 6 0.0000 0.0000 0.0000 0.0000 0.0000 31.1027
#
#
#
# Elastic Compliance Matrix: (Units=1/GPa)
#
#
# Indices 1 2 3 4 5 6 
#
# 1 0.012968 -0.001247 -0.001870 0.000000 0.000000 0.000000
# 2 -0.001247 0.014013 -0.002138 0.000000 0.000000 0.000000
# 3 -0.001870 -0.002138 0.008963 0.000000 0.000000 0.000000
# 4 0.000000 0.000000 0.000000 0.033000 0.000000 0.000000
# 5 0.000000 0.000000 0.000000 0.000000 0.038046 0.000000
# 6 0.000000 0.000000 0.000000 0.000000 0.000000 0.032152
#
#
# Mechanical properties :
#
#
# Convention : Reuss Voigt Hill
#
# Bulk Modulus (GPa) = 39.32067 41.73837 40.52952
# Shear Modulus (GPa) = 31.61962 32.67585 32.14773
#
# Velocity S-wave (km/s) = 4.00042 4.06669 4.03369
# Velocity P-wave (km/s) = 6.42175 6.57079 6.49670
#
# Compressibility (1/GPa) = 0.02543191
#
# Stress axis : x y z
#
# Youngs Moduli (GPa) = 77.11168 71.36402 111.57292
#
# Poissons Ratio (x) = 0.08903 0.20866
# Poissons Ratio (y) = 0.09620 0.23857
# Poissons Ratio (z) = 0.14421 0.15259
#
# Static dielectric constant tensor:
#      x y z
#    x 3.479620 0.000000 0.000000 
#    y 0.000000 3.763460 0.000000 
#    z 0.000000 0.000000 3.648110 
# 
# 
# High freq. dielectric constant tensor:
#      x y z
#    x 1.747900 0.000000 0.000000 
#    y 0.000000 1.787120 0.000000 
#    z 0.000000 0.000000 1.774750 
# 
# From -- ./inp_files/14145.got.cif
#   From: 2010.03.12/outbox.cif.g09.slc.cpg/sg42_8_cif.got.tgz:14145.got - 2010.04.14 02:04:31.
