data_PCOD8186224
_publ_section_title
;
Structure prediction by ZEFSAII (Michael W. Deem and Ramdas Pophale) SiO2 
 PCOD8186224
Probable space group: F M M 2
;
_chemical_formula_sum "Si O2"
_cell_formula_units_Z 96
_cell_length_a 8.926002
_cell_length_b 18.282593
_cell_length_c 31.433097
_cell_angle_alpha 90.000000
_cell_angle_beta 90.000000
_cell_angle_gamma 90.000000
_cell_volume 5129.581612
_symmetry_space_group_name_H-M "F M M 2"
_symmetry_group_IT_number 42
_symmetry_cell_setting 'orthorhombic'
loop_
_space_group_symop_operation_xyz
x,y,z
-x,-y,z
-x,y,z
x,-y,z
x,1/2+y,1/2+z
-x,1/2-y,1/2+z
-x,1/2+y,1/2+z
x,1/2-y,1/2+z
1/2+x,y,1/2+z
1/2-x,-y,1/2+z
1/2-x,y,1/2+z
1/2+x,-y,1/2+z
1/2+x,1/2+y,z
1/2-x,1/2-y,z
1/2-x,1/2+y,z
1/2+x,1/2-y,z
loop_
_atom_site_type_symbol
_atom_site_label
_atom_site_fract_x
_atom_site_fract_y
_atom_site_fract_z
Si Si1 0.679285 0.082130 0.717930
Si Si2 0.827415 0.414519 0.063846
Si Si3 0.177087 0.828121 0.137648
Si Si4 0.675866 0.672636 0.479929
Si Si5 0.820348 0.417752 0.900409
Si Si6 0.664055 0.913192 0.809159
O O1 0.500000 0.081558 0.720072
O O2 0.737405 0.137226 0.681790
O O3 0.744727 0.108593 0.764346
O O4 0.736391 0.000000 0.707214
O O5 0.795880 0.500000 0.060561
O O6 0.721452 0.381539 0.099701
O O7 0.782997 0.379949 0.018822
O O8 0.000000 0.397779 0.075237
O O9 0.250000 0.750000 0.130320
O O10 0.000000 0.819127 0.138202
O O11 0.500000 0.684167 0.475959
O O12 0.750000 0.750000 0.488110
O O13 0.740727 0.636199 0.436811
O O14 0.764215 0.500000 0.910521
O O15 0.755949 0.390869 0.853923
O O16 0.000000 0.417603 0.898989
O O17 0.500000 0.876489 0.809011
O O18 0.646661 0.000000 0.809297
#
# Coordination Sequence:
#
# PCOD8186224 Si02
#       6
#    16  16  16  16  16  16
#     4   8  14  26  45  69  95 123 158 201 245 286
#     4  10  21  37  56  76  97 123 159 204 250 295
#     4  11  22  35  51  72 101 134 166 201 243 291
#     4  10  20  33  49  71 100 130 158 192 237 287
#     4   8  13  24  45  70  93 121 160 201 237 277
#     4   7  10  19  39  67  94 118 151 198 243 279
#
# _framework density 18.714976
#
# number of rings (size 3 to 8) (size 9 to 14) (size 15 to 20)
#    0.000    3.000    0.000    4.000    0.000    5.000 
#    0.000    0.833    0.000    1.500    0.000    1.167 
#    0.000    8.000    0.000    0.000    0.000    0.000 
#
# Total GULP energy -297362.632854 kJ/mol
# GULP energy per Si atom -12390.109702 kJ/mol
# Density = 1.867238 g / cm^3
# Si number density = 18.714976 Si / 1000 Ang^3
#
#
#
# Elastic Constant Matrix: (Units=GPa)
#
#
# Indices 1 2 3 4 5 6 
#
# 1 24.9605 24.2882 33.8865 0.0000 0.0000 0.0000
# 2 24.2882 104.2982 65.9928 0.0000 0.0000 0.0000
# 3 33.8865 65.9928 171.4877 0.0000 0.0000 0.0000
# 4 0.0000 0.0000 0.0000 -5.6481 0.0000 0.0000
# 5 0.0000 0.0000 0.0000 0.0000 15.4318 0.0000
# 6 0.0000 0.0000 0.0000 0.0000 0.0000 15.0959
#
#
#
# Elastic Compliance Matrix: (Units=1/GPa)
#
#
# Indices 1 2 3 4 5 6 
#
# 1 0.060020 -0.008556 -0.008568 0.000000 0.000000 0.000000
# 2 -0.008556 0.013894 -0.003656 0.000000 0.000000 0.000000
# 3 -0.008568 -0.003656 0.008931 0.000000 0.000000 0.000000
# 4 0.000000 0.000000 0.000000 -0.177050 0.000000 0.000000
# 5 0.000000 0.000000 0.000000 0.000000 0.064801 0.000000
# 6 0.000000 0.000000 0.000000 0.000000 0.000000 0.066243
#
#
# Mechanical properties :
#
#
# Convention : Reuss Voigt Hill
#
# Bulk Modulus (GPa) = 24.22128 61.00904 42.61516
# Shear Modulus (GPa) = 54.25321 16.74785 35.50053
#
# Velocity S-wave (km/s) = 5.39000 2.99472 4.36007
# Velocity P-wave (km/s) = 7.19072 6.68039 6.94025
#
# Compressibility (1/GPa) = 0.04128600
#
# Stress axis : x y z
#
# Youngs Moduli (GPa) = 16.66098 71.97571 111.96710
#
# Poissons Ratio (x) = 0.61583 0.95929
# Poissons Ratio (y) = 0.14255 0.40934
# Poissons Ratio (z) = 0.14275 0.26313
#
# Static dielectric constant tensor:
#      x y z
#    x 2.897050 0.000000 0.000000 
#    y 0.000000 3.288160 0.000000 
#    z 0.000000 0.000000 4.089140 
# 
# 
# High freq. dielectric constant tensor:
#      x y z
#    x 1.665370 0.000000 0.000000 
#    y 0.000000 1.709210 0.000000 
#    z 0.000000 0.000000 1.756950 
# 
# From -- ./inp_files/32144.got.cif
#   From: 2010.03.12/outbox.cif.g09.slc.cpg/sg42_17_cif.got.tgz:32144.got - 2010.04.14 02:04:31.
