data_PCOD8186263
_publ_section_title
;
Structure prediction by ZEFSAII (Michael W. Deem and Ramdas Pophale) SiO2 
 PCOD8186263
Probable space group: F M M 2
;
_chemical_formula_sum "Si O2"
_cell_formula_units_Z 128
_cell_length_a 25.201284
_cell_length_b 19.924786
_cell_length_c 14.110877
_cell_angle_alpha 90.000000
_cell_angle_beta 90.000000
_cell_angle_gamma 90.000000
_cell_volume 7085.497358
_symmetry_space_group_name_H-M "F M M 2"
_symmetry_group_IT_number 42
_symmetry_cell_setting 'orthorhombic'
loop_
_space_group_symop_operation_xyz
x,y,z
-x,-y,z
-x,y,z
x,-y,z
x,1/2+y,1/2+z
-x,1/2-y,1/2+z
-x,1/2+y,1/2+z
x,1/2-y,1/2+z
1/2+x,y,1/2+z
1/2-x,-y,1/2+z
1/2-x,y,1/2+z
1/2+x,-y,1/2+z
1/2+x,1/2+y,z
1/2-x,1/2-y,z
1/2-x,1/2+y,z
1/2+x,1/2-y,z
loop_
_atom_site_type_symbol
_atom_site_label
_atom_site_fract_x
_atom_site_fract_y
_atom_site_fract_z
Si Si1 0.270371 0.326036 0.745800
Si Si2 0.820486 0.132390 0.381819
Si Si3 0.057094 0.793837 0.186939
Si Si4 0.233127 0.580592 0.065152
Si Si5 0.100533 0.426337 0.741776
Si Si6 0.850114 0.925970 0.043671
Si Si7 0.439502 0.831590 0.479477
Si Si8 0.368824 0.733737 0.832535
O O1 0.250000 0.250000 0.719494
O O2 0.229559 0.366015 0.811666
O O3 0.281239 0.372671 0.654694
O O4 0.325373 0.321972 0.805188
O O5 0.807850 0.098851 0.482273
O O6 0.867591 0.088060 0.337861
O O7 0.840871 0.208552 0.394849
O O8 0.055105 0.871967 0.219753
O O9 0.108215 0.759867 0.232720
O O10 0.000000 0.762611 0.216617
O O11 0.063635 0.786670 0.074002
O O12 0.230944 0.500000 0.088765
O O13 0.291212 0.603250 0.026995
O O14 0.073961 0.500000 0.748641
O O15 0.142639 0.423170 0.656425
O O16 0.852160 0.000000 0.002203
O O17 0.897039 0.890671 0.986968
O O18 0.500000 0.857549 0.463765
O O19 0.420551 0.790034 0.389075
#
# Coordination Sequence:
#
# PCOD8186263 Si02
#       8
#    16  16  16  16  16  16  16  16
#     4  10  22  36  53  81 109 148 185 227 271 325
#     4  10  20  34  50  78 106 141 184 218 265 325
#     4   9  19  33  51  77 104 131 172 221 268 322
#     4  11  22  34  56  82 112 150 185 226 272 326
#     4   9  16  30  50  70 102 134 163 210 266 317
#     4   9  18  32  51  74 102 137 169 214 268 313
#     4  10  20  34  55  79 105 137 176 223 272 324
#     4  10  21  35  53  75 107 144 178 221 273 314
#
# _framework density 18.065069000000001
#
# number of rings (size 3 to 8) (size 9 to 14) (size 15 to 20)
#    0.000    2.250    1.250    1.500    3.500    2.500 
#    0.000    3.125    0.000    0.000    0.000    0.000 
#    0.000    2.250    0.000    0.000    0.000    0.000 
#
# Total GULP energy -396555.908318 kJ/mol
# GULP energy per Si atom -12392.372135 kJ/mol
# Density = 1.802395 g / cm^3
# Si number density = 18.065069 Si / 1000 Ang^3
#
#
#
# Elastic Constant Matrix: (Units=GPa)
#
#
# Indices 1 2 3 4 5 6 
#
# 1 84.5518 16.1305 24.5205 0.0000 0.0000 0.0000
# 2 16.1305 58.3906 29.9435 0.0000 0.0000 0.0000
# 3 24.5205 29.9435 76.5175 0.0000 0.0000 0.0000
# 4 0.0000 0.0000 0.0000 20.3821 0.0000 0.0000
# 5 0.0000 0.0000 0.0000 0.0000 19.3397 0.0000
# 6 0.0000 0.0000 0.0000 0.0000 0.0000 18.6327
#
#
#
# Elastic Compliance Matrix: (Units=1/GPa)
#
#
# Indices 1 2 3 4 5 6 
#
# 1 0.013196 -0.001848 -0.003506 0.000000 0.000000 0.000000
# 2 -0.001848 0.021684 -0.007894 0.000000 0.000000 0.000000
# 3 -0.003506 -0.007894 0.017281 0.000000 0.000000 0.000000
# 4 0.000000 0.000000 0.000000 0.049063 0.000000 0.000000
# 5 0.000000 0.000000 0.000000 0.000000 0.051707 0.000000
# 6 0.000000 0.000000 0.000000 0.000000 0.000000 0.053669
#
#
# Mechanical properties :
#
#
# Convention : Reuss Voigt Hill
#
# Bulk Modulus (GPa) = 38.95924 40.07210 39.51567
# Shear Modulus (GPa) = 20.69100 21.59526 21.14313
#
# Velocity S-wave (km/s) = 3.38799 3.46123 3.42480
# Velocity P-wave (km/s) = 6.07598 6.18092 6.12867
#
# Compressibility (1/GPa) = 0.02566785
#
# Stress axis : x y z
#
# Youngs Moduli (GPa) = 75.77905 46.11601 57.86577
#
# Poissons Ratio (x) = 0.08521 0.20286
# Poissons Ratio (y) = 0.14002 0.45677
# Poissons Ratio (z) = 0.26566 0.36402
#
# Static dielectric constant tensor:
#      x y z
#    x 3.291430 0.000000 0.000000 
#    y 0.000000 3.317500 0.000000 
#    z 0.000000 0.000000 3.188350 
# 
# 
# High freq. dielectric constant tensor:
#      x y z
#    x 1.700990 0.000000 0.000000 
#    y 0.000000 1.683680 0.000000 
#    z 0.000000 0.000000 1.687670 
# 
# From -- ./inp_files/10810.got.cif
#   From: 2010.03.12/outbox.cif.g09.slc.cpg/sg42_6_cif.got.tgz:10810.got - 2010.04.14 02:04:31.
