data_PCOD8186143
_publ_section_title
;
Structure prediction by ZEFSAII (Michael W. Deem and Ramdas Pophale) SiO2 
 PCOD8186143
Probable space group: F M M 2
;
_chemical_formula_sum "Si O2"
_cell_formula_units_Z 96
_cell_length_a 25.334174
_cell_length_b 8.669138
_cell_length_c 23.663214
_cell_angle_alpha 90.000000
_cell_angle_beta 90.000000
_cell_angle_gamma 90.000000
_cell_volume 5197.044036
_symmetry_space_group_name_H-M "F M M 2"
_symmetry_group_IT_number 42
_symmetry_cell_setting 'orthorhombic'
loop_
_space_group_symop_operation_xyz
x,y,z
-x,-y,z
-x,y,z
x,-y,z
x,1/2+y,1/2+z
-x,1/2-y,1/2+z
-x,1/2+y,1/2+z
x,1/2-y,1/2+z
1/2+x,y,1/2+z
1/2-x,-y,1/2+z
1/2-x,y,1/2+z
1/2+x,-y,1/2+z
1/2+x,1/2+y,z
1/2-x,1/2-y,z
1/2-x,1/2+y,z
1/2+x,1/2-y,z
loop_
_atom_site_type_symbol
_atom_site_label
_atom_site_fract_x
_atom_site_fract_y
_atom_site_fract_z
Si Si1 0.000000 0.816363 0.663671
Si Si2 0.940312 0.817790 0.345160
Si Si3 0.306324 0.817435 0.154067
Si Si4 0.099842 0.817147 0.466821
Si Si5 0.599283 0.818156 0.233702
Si Si6 0.500000 0.316625 0.537437
Si Si7 0.193161 0.317540 0.534342
O O1 0.948722 0.753871 0.695989
O O2 0.000000 0.748098 0.600539
O O3 0.000000 0.000000 0.660656
O O4 0.913205 0.765016 0.403245
O O5 0.903202 0.756569 0.295288
O O6 0.000000 0.749873 0.340746
O O7 0.943353 0.000000 0.342544
O O8 0.250000 0.750000 0.171831
O O9 0.346565 0.769475 0.203397
O O10 0.326138 0.748210 0.094693
O O11 0.302737 0.000000 0.146751
O O12 0.152924 0.732240 0.485652
O O13 0.052079 0.757214 0.505831
O O14 0.107624 0.000000 0.471970
O O15 0.594895 0.000000 0.240550
O O16 0.500000 0.500000 0.537120
O O17 0.197250 0.500000 0.538295
O O18 0.250000 0.250000 0.518221
#
# Coordination Sequence:
#
# PCOD8186143 Si02
#       7
#     8  16  16  16  16   8  16
#     4   9  16  27  47  77 105 133 172 221 270 317
#     4  10  20  35  55  81 111 147 186 225 275 325
#     4  10  20  36  58  83 110 144 185 225 274 333
#     4  10  19  35  57  81 110 147 189 228 271 330
#     4  10  20  34  54  79 108 145 188 225 269 327
#     4   9  16  29  53  79 107 141 180 223 270 329
#     4  11  22  37  58  84 113 146 183 227 281 332
#
# _framework density 18.472038999999999
#
# number of rings (size 3 to 8) (size 9 to 14) (size 15 to 20)
#    0.000    2.000    1.667    4.000    0.000    4.667 
#    0.000    1.250    0.000    2.000    0.000    0.000 
#    0.000    0.000    0.000    0.000    0.000    0.000 
#
# Total GULP energy -297654.984731 kJ/mol
# GULP energy per Si atom -12402.291030 kJ/mol
# Density = 1.843000 g / cm^3
# Si number density = 18.472039 Si / 1000 Ang^3
#
#
#
# Elastic Constant Matrix: (Units=GPa)
#
#
# Indices 1 2 3 4 5 6 
#
# 1 126.7267 40.3122 85.5724 0.0000 0.0000 -0.0001
# 2 40.3122 59.5937 36.8953 0.0000 0.0000 -0.0001
# 3 85.5724 36.8953 165.4818 0.0000 0.0000 0.0000
# 4 0.0000 0.0000 0.0000 29.2948 0.0000 0.0000
# 5 0.0000 0.0000 0.0000 0.0000 29.4437 0.0000
# 6 -0.0001 -0.0001 0.0000 0.0000 0.0000 25.1719
#
#
#
# Elastic Compliance Matrix: (Units=1/GPa)
#
#
# Indices 1 2 3 4 5 6 
#
# 1 0.013569 -0.005609 -0.005766 0.000000 0.000000 0.000000
# 2 -0.005609 0.021786 -0.001957 0.000000 0.000000 0.000000
# 3 -0.005766 -0.001957 0.009461 0.000000 0.000000 0.000000
# 4 0.000000 0.000000 0.000000 0.034136 0.000000 0.000000
# 5 0.000000 0.000000 0.000000 0.000000 0.033963 0.000000
# 6 0.000000 0.000000 0.000000 0.000000 0.000000 0.039727
#
#
# Mechanical properties :
#
#
# Convention : Reuss Voigt Hill
#
# Bulk Modulus (GPa) = 55.09001 75.26247 65.17624
# Shear Modulus (GPa) = 26.97519 29.38353 28.17936
#
# Velocity S-wave (km/s) = 3.82557 3.99269 3.91002
# Velocity P-wave (km/s) = 7.02862 7.87959 7.46624
#
# Compressibility (1/GPa) = 0.01815211
#
# Stress axis : x y z
#
# Youngs Moduli (GPa) = 73.69927 45.90114 105.69772
#
# Poissons Ratio (x) = 0.25745 0.60945
# Poissons Ratio (y) = 0.41336 0.20685
# Poissons Ratio (z) = 0.42495 0.08983
#
# Static dielectric constant tensor:
#      x y z
#    x 3.475280 0.000000 0.000000 
#    y 0.000000 3.143030 0.000000 
#    z 0.000000 0.000000 3.505390 
# 
# 
# High freq. dielectric constant tensor:
#      x y z
#    x 1.720000 0.000000 0.000000 
#    y 0.000000 1.697640 0.000000 
#    z 0.000000 0.000000 1.720050 
# 
# From -- ./inp_files/30622.got.cif
#   From: 2010.03.12/outbox.cif.g09.slc.cpg/sg42_16_cif.got.tgz:30622.got - 2010.04.14 02:04:31.
