data_PCOD8186429
_publ_section_title
;
Structure prediction by ZEFSAII (Michael W. Deem and Ramdas Pophale) SiO2 
 PCOD8186429
Probable space group: F M M 2
;
_chemical_formula_sum "Si O2"
_cell_formula_units_Z 112
_cell_length_a 18.576611
_cell_length_b 26.501145
_cell_length_c 12.047277
_cell_angle_alpha 90.000000
_cell_angle_beta 90.000000
_cell_angle_gamma 90.000000
_cell_volume 5930.892077
_symmetry_space_group_name_H-M "F M M 2"
_symmetry_group_IT_number 42
_symmetry_cell_setting 'orthorhombic'
loop_
_space_group_symop_operation_xyz
x,y,z
-x,-y,z
-x,y,z
x,-y,z
x,1/2+y,1/2+z
-x,1/2-y,1/2+z
-x,1/2+y,1/2+z
x,1/2-y,1/2+z
1/2+x,y,1/2+z
1/2-x,-y,1/2+z
1/2-x,y,1/2+z
1/2+x,-y,1/2+z
1/2+x,1/2+y,z
1/2-x,1/2-y,z
1/2-x,1/2+y,z
1/2+x,1/2-y,z
loop_
_atom_site_type_symbol
_atom_site_label
_atom_site_fract_x
_atom_site_fract_y
_atom_site_fract_z
Si Si1 0.580330 0.293223 0.716670
Si Si2 0.213660 0.195028 0.350469
Si Si3 0.585432 0.055412 0.086760
Si Si4 0.150057 0.151314 0.922006
Si Si5 0.185524 0.285095 0.621904
Si Si6 0.916247 0.942438 0.836971
Si Si7 0.581694 0.655178 0.481925
O O1 0.500000 0.273620 0.739145
O O2 0.605504 0.323283 0.824029
O O3 0.631878 0.246302 0.699590
O O4 0.583203 0.327263 0.608277
O O5 0.250000 0.250000 0.369191
O O6 0.263855 0.153209 0.407642
O O7 0.217745 0.179821 0.219588
O O8 0.134543 0.189346 0.406545
O O9 0.500000 0.054811 0.096583
O O10 0.613678 0.067116 0.211904
O O11 0.613436 0.000000 0.048547
O O12 0.608222 0.096785 0.993669
O O13 0.125289 0.093141 0.926125
O O14 0.137997 0.182851 0.035786
O O15 0.250000 0.250000 0.568183
O O16 0.000000 0.928709 0.843785
O O17 0.902432 0.000000 0.873144
O O18 0.500000 0.659482 0.433876
#
# Coordination Sequence:
#
# PCOD8186429 Si02
#       7
#    16  16  16  16  16  16  16
#     4  11  22  34  54  84 113 143 190 240 278 333
#     4  11  23  40  56  78 114 158 192 232 288 352
#     4   8  14  28  54  86 115 142 181 238 290 329
#     4  12  21  36  61  81 116 151 192 238 290 348
#     4  11  24  40  55  80 112 157 194 230 286 350
#     4   9  18  34  56  85 118 152 195 243 288 334
#     4  10  20  36  58  84 113 146 191 238 284 336
#
# _framework density 18.884174000000002
#
# number of rings (size 3 to 8) (size 9 to 14) (size 15 to 20)
#    0.000    1.714    4.286    3.429    0.000    1.714 
#    0.000    0.714    0.000    1.714    0.000    2.000 
#    0.000    0.000    0.000    0.000    0.000    0.000 
#
# Total GULP energy -346891.885243 kJ/mol
# GULP energy per Si atom -12388.995902 kJ/mol
# Density = 1.884119 g / cm^3
# Si number density = 18.884174 Si / 1000 Ang^3
#
#
#
# Elastic Constant Matrix: (Units=GPa)
#
#
# Indices 1 2 3 4 5 6 
#
# 1 85.7852 39.1008 25.6105 0.0000 0.0000 0.0000
# 2 39.1008 102.9018 36.3840 0.0000 0.0000 0.0000
# 3 25.6105 36.3840 83.1357 0.0000 0.0000 0.0000
# 4 0.0000 0.0000 0.0000 17.8259 0.0000 0.0000
# 5 0.0000 0.0000 0.0000 0.0000 23.6872 0.0000
# 6 0.0000 0.0000 0.0000 0.0000 0.0000 29.8147
#
#
#
# Elastic Compliance Matrix: (Units=1/GPa)
#
#
# Indices 1 2 3 4 5 6 
#
# 1 0.014503 -0.004651 -0.002432 0.000000 0.000000 0.000000
# 2 -0.004651 0.012989 -0.004252 0.000000 0.000000 0.000000
# 3 -0.002432 -0.004252 0.014639 0.000000 0.000000 0.000000
# 4 0.000000 0.000000 0.000000 0.056098 0.000000 0.000000
# 5 0.000000 0.000000 0.000000 0.000000 0.042217 0.000000
# 6 0.000000 0.000000 0.000000 0.000000 0.000000 0.033541
#
#
# Mechanical properties :
#
#
# Convention : Reuss Voigt Hill
#
# Bulk Modulus (GPa) = 51.38630 52.66813 52.02721
# Shear Modulus (GPa) = 24.61329 25.64737 25.13033
#
# Velocity S-wave (km/s) = 3.61415 3.68929 3.65192
# Velocity P-wave (km/s) = 6.68480 6.78959 6.73740
#
# Compressibility (1/GPa) = 0.01946044
#
# Stress axis : x y z
#
# Youngs Moduli (GPa) = 68.95107 76.99086 68.31277
#
# Poissons Ratio (x) = 0.35807 0.16616
# Poissons Ratio (y) = 0.32068 0.29044
# Poissons Ratio (z) = 0.16771 0.32734
#
# Static dielectric constant tensor:
#      x y z
#    x 3.780880 0.000000 0.000000 
#    y 0.000000 3.758200 0.000000 
#    z 0.000000 0.000000 3.366720 
# 
# 
# High freq. dielectric constant tensor:
#      x y z
#    x 1.722090 0.000000 0.000000 
#    y 0.000000 1.718010 0.000000 
#    z 0.000000 0.000000 1.719550 
# 
# From -- ./inp_files/9780.got.cif
#   From: 2010.03.12/outbox.cif.g09.slc.cpg/sg42_5_cif.got.tgz:9780.got - 2010.04.14 02:04:31.
