data_PCOD8186710
_publ_section_title
;
Structure prediction by ZEFSAII (Michael W. Deem and Ramdas Pophale) SiO2 
 PCOD8186710
Probable space group: F M M 2
;
_chemical_formula_sum "Si O2"
_cell_formula_units_Z 112
_cell_length_a 14.207263
_cell_length_b 27.513159
_cell_length_c 14.668324
_cell_angle_alpha 90.000000
_cell_angle_beta 90.000000
_cell_angle_gamma 90.000000
_cell_volume 5733.652556
_symmetry_space_group_name_H-M "F M M 2"
_symmetry_group_IT_number 42
_symmetry_cell_setting 'orthorhombic'
loop_
_space_group_symop_operation_xyz
x,y,z
-x,-y,z
-x,y,z
x,-y,z
x,1/2+y,1/2+z
-x,1/2-y,1/2+z
-x,1/2+y,1/2+z
x,1/2-y,1/2+z
1/2+x,y,1/2+z
1/2-x,-y,1/2+z
1/2-x,y,1/2+z
1/2+x,-y,1/2+z
1/2+x,1/2+y,z
1/2-x,1/2-y,z
1/2-x,1/2+y,z
1/2+x,1/2-y,z
loop_
_atom_site_type_symbol
_atom_site_label
_atom_site_fract_x
_atom_site_fract_y
_atom_site_fract_z
Si Si1 0.893345 0.798235 0.057560
Si Si2 0.295775 0.902266 0.710065
Si Si3 0.500000 0.942684 0.443266
Si Si4 0.324681 0.206399 0.754788
Si Si5 0.241246 0.875760 0.522442
Si Si6 0.000000 0.058475 0.155015
Si Si7 0.801923 0.444365 0.375331
Si Si8 0.607441 0.704974 0.456079
O O1 0.888390 0.786173 0.165309
O O2 0.838387 0.846033 0.027750
O O3 0.000000 0.808338 0.029507
O O4 0.849950 0.753906 0.999750
O O5 0.280761 0.847590 0.748541
O O6 0.237897 0.906168 0.615893
O O7 0.406161 0.918038 0.701027
O O8 0.238720 0.938913 0.774244
O O9 0.500000 0.926065 0.548998
O O10 0.408250 0.924004 0.388392
O O11 0.500000 0.000000 0.442324
O O12 0.250000 0.250000 0.758122
O O13 0.384138 0.207414 0.847254
O O14 0.234998 0.913806 0.441068
O O15 0.155190 0.839873 0.506910
O O16 0.000000 0.000000 0.168768
O O17 0.796814 0.500000 0.405581
O O18 0.500000 0.700248 0.484123
#
# Coordination Sequence:
#
# PCOD8186710 Si02
#       8
#    16  16   8  16  16   8  16  16
#     4  10  22  37  61  91 123 158 202 254 311 375
#     4  11  24  38  66  94 127 169 207 268 327 383
#     4   9  20  40  66  90 121 161 211 268 314 374
#     4  11  22  37  61  87 123 161 207 252 308 378
#     4  11  22  39  64  89 124 165 207 265 316 377
#     4  11  22  40  68 100 127 165 227 282 323 382
#     4  11  23  40  62  94 126 162 208 263 322 376
#     4  11  23  41  61  87 125 167 208 255 314 380
#
# _framework density 19.533795999999999
#
# number of rings (size 3 to 8) (size 9 to 14) (size 15 to 20)
#    0.000    1.286    2.857    3.857    6.000    0.571 
#    1.286    0.000    1.571    0.000    0.000    0.000 
#    0.000    0.000    0.000    0.000    0.000    0.000 
#
# Total GULP energy -347112.816600 kJ/mol
# GULP energy per Si atom -12396.886307 kJ/mol
# Density = 1.948934 g / cm^3
# Si number density = 19.533796 Si / 1000 Ang^3
#
#
#
# Elastic Constant Matrix: (Units=GPa)
#
#
# Indices 1 2 3 4 5 6 
#
# 1 79.1721 26.4909 30.2558 0.0000 0.0000 0.0000
# 2 26.4909 81.0694 31.6738 0.0000 0.0000 0.0000
# 3 30.2558 31.6738 118.2488 0.0000 0.0000 0.0000
# 4 0.0000 0.0000 0.0000 32.5022 0.0000 0.0000
# 5 0.0000 0.0000 0.0000 0.0000 33.3024 0.0000
# 6 0.0000 0.0000 0.0000 0.0000 0.0000 24.7241
#
#
#
# Elastic Compliance Matrix: (Units=1/GPa)
#
#
# Indices 1 2 3 4 5 6 
#
# 1 0.014976 -0.003794 -0.002816 0.000000 0.000000 0.000000
# 2 -0.003794 0.014738 -0.002977 0.000000 0.000000 0.000000
# 3 -0.002816 -0.002977 0.009975 0.000000 0.000000 0.000000
# 4 0.000000 0.000000 0.000000 0.030767 0.000000 0.000000
# 5 0.000000 0.000000 0.000000 0.000000 0.030028 0.000000
# 6 0.000000 0.000000 0.000000 0.000000 0.000000 0.040446
#
#
# Mechanical properties :
#
#
# Convention : Reuss Voigt Hill
#
# Bulk Modulus (GPa) = 48.74265 50.59235 49.66750
# Shear Modulus (GPa) = 29.95068 30.77706 30.36387
#
# Velocity S-wave (km/s) = 3.91995 3.97366 3.94690
# Velocity P-wave (km/s) = 6.74501 6.85635 6.80091
#
# Compressibility (1/GPa) = 0.02051591
#
# Stress axis : x y z
#
# Youngs Moduli (GPa) = 66.77309 67.85249 100.25466
#
# Poissons Ratio (x) = 0.25741 0.28229
# Poissons Ratio (y) = 0.25331 0.29846
# Poissons Ratio (z) = 0.18801 0.20200
#
# Static dielectric constant tensor:
#      x y z
#    x 3.463080 0.000000 0.000000 
#    y 0.000000 3.651280 0.000000 
#    z 0.000000 0.000000 3.768930 
# 
# 
# High freq. dielectric constant tensor:
#      x y z
#    x 1.749810 0.000000 0.000000 
#    y 0.000000 1.768650 0.000000 
#    z 0.000000 0.000000 1.766580 
# 
# From -- ./inp_files/14436.got.cif
#   From: 2010.03.12/outbox.cif.g09.slc.cpg/sg42_8_cif.got.tgz:14436.got - 2010.04.14 02:04:31.
