data_PCOD8186491
_publ_section_title
;
Structure prediction by ZEFSAII (Michael W. Deem and Ramdas Pophale) SiO2 
 PCOD8186491
Probable space group: F M M 2
;
_chemical_formula_sum "Si O2"
_cell_formula_units_Z 80
_cell_length_a 17.343947
_cell_length_b 11.536510
_cell_length_c 20.148420
_cell_angle_alpha 90.000000
_cell_angle_beta 90.000000
_cell_angle_gamma 90.000000
_cell_volume 4031.469513
_symmetry_space_group_name_H-M "F M M 2"
_symmetry_group_IT_number 42
_symmetry_cell_setting 'orthorhombic'
loop_
_space_group_symop_operation_xyz
x,y,z
-x,-y,z
-x,y,z
x,-y,z
x,1/2+y,1/2+z
-x,1/2-y,1/2+z
-x,1/2+y,1/2+z
x,1/2-y,1/2+z
1/2+x,y,1/2+z
1/2-x,-y,1/2+z
1/2-x,y,1/2+z
1/2+x,-y,1/2+z
1/2+x,1/2+y,z
1/2-x,1/2-y,z
1/2-x,1/2+y,z
1/2+x,1/2-y,z
loop_
_atom_site_type_symbol
_atom_site_label
_atom_site_fract_x
_atom_site_fract_y
_atom_site_fract_z
Si Si1 0.659481 0.243468 0.949930
Si Si2 0.408252 0.500000 0.288342
Si Si3 0.591275 0.371066 0.826522
Si Si4 0.410958 0.864993 0.571649
Si Si5 0.407918 0.000000 0.939171
Si Si6 0.408916 0.717108 0.210097
O O1 0.750000 0.250000 0.941436
O O2 0.623079 0.281361 0.880098
O O3 0.628645 0.116061 0.971260
O O4 0.637032 0.333873 0.006860
O O5 0.500000 0.500000 0.287006
O O6 0.380007 0.500000 0.363526
O O7 0.373195 0.611326 0.251771
O O8 0.500000 0.369747 0.834523
O O9 0.624658 0.500000 0.838077
O O10 0.613723 0.332866 0.751014
O O11 0.500000 0.837415 0.556662
O O12 0.379223 0.788050 0.634022
O O13 0.399613 0.000000 0.589134
O O14 0.500000 0.000000 0.949388
O O15 0.500000 0.700501 0.206668
#
# Coordination Sequence:
#
# PCOD8186491 Si02
#       6
#    16   8  16  16   8  16
#     4  12  26  39  58  85 126 160 203 253 306 358
#     4   9  14  28  57  88 110 132 187 256 295 340
#     4  10  20  37  63  90 119 153 195 248 305 364
#     4  10  20  37  63  88 115 155 203 247 294 360
#     4  11  22  40  65  88 117 162 211 258 306 364
#     4   9  16  31  58  91 114 141 193 253 297 351
#
# _framework density 19.843882000000001
#
# number of rings (size 3 to 8) (size 9 to 14) (size 15 to 20)
#    0.000    1.800    3.000    2.400    2.800    1.600 
#    1.800    1.000    0.000    2.400    0.000    0.000 
#    0.000    0.000    0.000    0.000    0.000    0.000 
#
# Total GULP energy -247927.580899 kJ/mol
# GULP energy per Si atom -12396.379045 kJ/mol
# Density = 1.979872 g / cm^3
# Si number density = 19.843882 Si / 1000 Ang^3
#
#
#
# Elastic Constant Matrix: (Units=GPa)
#
#
# Indices 1 2 3 4 5 6 
#
# 1 49.1397 34.1015 22.6171 0.0000 0.0000 0.0000
# 2 34.1015 102.6294 23.2246 0.0000 0.0000 0.0000
# 3 22.6171 23.2246 112.5725 0.0000 0.0000 0.0000
# 4 0.0000 0.0000 0.0000 34.3055 0.0000 0.0000
# 5 0.0000 0.0000 0.0000 0.0000 -0.9004 0.0000
# 6 0.0000 0.0000 0.0000 0.0000 0.0000 18.0434
#
#
#
# Elastic Compliance Matrix: (Units=1/GPa)
#
#
# Indices 1 2 3 4 5 6 
#
# 1 0.027980 -0.008418 -0.003885 0.000000 0.000000 0.000000
# 2 -0.008418 0.012754 -0.000940 0.000000 0.000000 0.000000
# 3 -0.003885 -0.000940 0.009858 0.000000 0.000000 0.000000
# 4 0.000000 0.000000 0.000000 0.029150 0.000000 0.000000
# 5 0.000000 0.000000 0.000000 0.000000 -1.110624 0.000000
# 6 0.000000 0.000000 0.000000 0.000000 0.000000 0.055422
#
#
# Mechanical properties :
#
#
# Convention : Reuss Voigt Hill
#
# Bulk Modulus (GPa) = 41.48386 47.13644 44.31015
# Shear Modulus (GPa) = -5.31383 22.58295 8.63456
#
# Velocity S-wave (km/s) = -1.63818 3.37713 2.08823
# Velocity P-wave (km/s) = 4.16801 6.24595 5.30962
#
# Compressibility (1/GPa) = 0.02410576
#
# Stress axis : x y z
#
# Youngs Moduli (GPa) = 35.73976 78.40902 101.44492
#
# Poissons Ratio (x) = 0.66005 0.39409
# Poissons Ratio (y) = 0.30086 0.09535
# Poissons Ratio (z) = 0.13884 0.07370
#
# Static dielectric constant tensor:
#      x y z
#    x 3.294550 0.000000 0.000000 
#    y 0.000000 3.797080 0.000000 
#    z 0.000000 0.000000 3.709540 
# 
# 
# High freq. dielectric constant tensor:
#      x y z
#    x 1.726670 0.000000 0.000000 
#    y 0.000000 1.779080 0.000000 
#    z 0.000000 0.000000 1.779120 
# 
# From -- ./inp_files/24262.got.cif
#   From: 2010.03.12/outbox.cif.g09.slc.cpg/sg42_13_cif.got.tgz:24262.got - 2010.04.14 02:04:31.
