data_PCOD8186975
_publ_section_title
;
Structure prediction by ZEFSAII (Michael W. Deem and Ramdas Pophale) SiO2 
 PCOD8186975
Probable space group: F D D 2
;
_chemical_formula_sum "Si O2"
_cell_formula_units_Z 120
_cell_length_a 19.334654
_cell_length_b 11.475368
_cell_length_c 25.400590
_cell_angle_alpha 90.000000
_cell_angle_beta 90.000000
_cell_angle_gamma 90.000000
_cell_volume 5635.686558
_symmetry_space_group_name_H-M "F D D 2"
_symmetry_group_IT_number 43
_symmetry_cell_setting 'orthorhombic'
loop_
_space_group_symop_operation_xyz
x,y,z
-x,-y,z
1/4-x,1/4+y,1/4+z
1/4+x,1/4-y,1/4+z
x,1/2+y,1/2+z
-x,1/2-y,1/2+z
1/4-x,3/4+y,3/4+z
1/4+x,3/4-y,3/4+z
1/2+x,y,1/2+z
1/2-x,-y,1/2+z
3/4-x,1/4+y,3/4+z
3/4+x,1/4-y,3/4+z
1/2+x,1/2+y,z
1/2-x,1/2-y,z
3/4-x,3/4+y,1/4+z
3/4+x,3/4-y,1/4+z
loop_
_atom_site_type_symbol
_atom_site_label
_atom_site_fract_x
_atom_site_fract_y
_atom_site_fract_z
Si Si1 0.012939 0.133471 0.684740
Si Si2 0.471180 0.371485 0.035945
Si Si3 0.582136 0.195453 0.074007
Si Si4 0.867624 0.143615 0.876931
Si Si5 0.935982 0.680788 0.762327
Si Si6 0.500000 0.000000 0.689202
Si Si7 0.132439 0.769787 0.710272
Si Si8 0.826057 0.593296 0.565822
O O1 0.050078 0.150310 0.628529
O O2 0.058125 0.196836 0.730629
O O3 0.935883 0.182470 0.682888
O O4 0.000000 0.000000 0.699600
O O5 0.500000 0.500000 0.053962
O O6 0.527169 0.269281 0.039581
O O7 0.404719 0.335436 0.071583
O O8 0.440136 0.383799 0.976398
O O9 0.610778 0.083936 0.040571
O O10 0.649146 0.278077 0.082931
O O11 0.793242 0.159563 0.905176
O O12 0.907216 0.263174 0.866078
O O13 0.914995 0.063191 0.914714
O O14 0.945014 0.572117 0.723153
O O15 0.994613 0.668663 0.806965
O O16 0.116003 0.694882 0.762583
#
# Coordination Sequence:
#
# PCOD8186975 Si02
#       8
#    16  16  16  16  16   8  16  16
#     4  11  25  46  65  92 137 189 229 277 358 436
#     4  11  20  34  59 103 135 162 224 293 332 407
#     4  12  20  40  69  98 134 177 237 290 349 419
#     4  11  17  31  58  94 132 177 213 270 356 402
#     4  11  22  39  68  98 133 179 232 290 340 408
#     4  12  16  32  62  98 128 168 220 280 354 392
#     4  10  20  36  60  92 131 174 222 275 342 407
#     4  10  19  33  62 102 133 163 225 291 334 404
#
# _framework density 21.29288
#
# number of rings (size 3 to 8) (size 9 to 14) (size 15 to 20)
#    0.000    1.067    8.667    0.800    0.000    0.000 
#    2.400    1.333    2.933    3.200    0.000    0.000 
#    0.000    0.000    0.000    0.000    0.000    0.000 
#
# Total GULP energy -371704.666759 kJ/mol
# GULP energy per Si atom -12390.155559 kJ/mol
# Density = 2.124442 g / cm^3
# Si number density = 21.292880 Si / 1000 Ang^3
#
#
#
# Elastic Constant Matrix: (Units=GPa)
#
#
# Indices 1 2 3 4 5 6 
#
# 1 79.5066 41.0596 53.6282 0.0000 0.0000 0.0000
# 2 41.0596 114.7597 58.5428 0.0000 0.0000 0.0000
# 3 53.6282 58.5428 115.0445 0.0000 0.0000 0.0000
# 4 0.0000 0.0000 0.0000 29.8836 0.0000 0.0000
# 5 0.0000 0.0000 0.0000 0.0000 41.2272 0.0000
# 6 0.0000 0.0000 0.0000 0.0000 0.0000 29.7062
#
#
#
# Elastic Compliance Matrix: (Units=1/GPa)
#
#
# Indices 1 2 3 4 5 6 
#
# 1 0.019129 -0.003100 -0.007340 0.000000 0.000000 0.000000
# 2 -0.003100 0.012271 -0.004799 0.000000 0.000000 0.000000
# 3 -0.007340 -0.004799 0.014556 0.000000 0.000000 0.000000
# 4 0.000000 0.000000 0.000000 0.033463 0.000000 0.000000
# 5 0.000000 0.000000 0.000000 0.000000 0.024256 0.000000
# 6 0.000000 0.000000 0.000000 0.000000 0.000000 0.033663
#
#
# Mechanical properties :
#
#
# Convention : Reuss Voigt Hill
#
# Bulk Modulus (GPa) = 64.60632 68.41910 66.51271
# Shear Modulus (GPa) = 28.90574 30.56875 29.73724
#
# Velocity S-wave (km/s) = 3.68847 3.79308 3.74114
# Velocity P-wave (km/s) = 6.96759 7.16837 7.06869
#
# Compressibility (1/GPa) = 0.01547836
#
# Stress axis : x y z
#
# Youngs Moduli (GPa) = 52.27627 81.49052 68.70033
#
# Poissons Ratio (x) = 0.25262 0.50423
# Poissons Ratio (y) = 0.16206 0.32973
# Poissons Ratio (z) = 0.38369 0.39111
#
# Static dielectric constant tensor:
#      x y z
#    x 3.946090 0.000000 0.000000 
#    y 0.000000 3.925280 0.000000 
#    z 0.000000 0.000000 3.960440 
# 
# 
# High freq. dielectric constant tensor:
#      x y z
#    x 1.819600 0.000000 0.000000 
#    y 0.000000 1.812160 0.000000 
#    z 0.000000 0.000000 1.829240 
# 
# From -- ./inp_files/22441.got.cif
#   From: 2010.06.25/outbox.cif.g09.slc.cpg/sg43_12_cif.got.tgz:22441.got - 2010.06.26 16:48:59.
