data_PCOD8186281
_publ_section_title
;
Structure prediction by ZEFSAII (Michael W. Deem and Ramdas Pophale) SiO2 
 PCOD8186281
Probable space group: F M M 2
;
_chemical_formula_sum "Si O2"
_cell_formula_units_Z 96
_cell_length_a 8.830042
_cell_length_b 18.690065
_cell_length_c 31.162092
_cell_angle_alpha 90.000000
_cell_angle_beta 90.000000
_cell_angle_gamma 90.000000
_cell_volume 5142.806528
_symmetry_space_group_name_H-M "F M M 2"
_symmetry_group_IT_number 42
_symmetry_cell_setting 'orthorhombic'
loop_
_space_group_symop_operation_xyz
x,y,z
-x,-y,z
-x,y,z
x,-y,z
x,1/2+y,1/2+z
-x,1/2-y,1/2+z
-x,1/2+y,1/2+z
x,1/2-y,1/2+z
1/2+x,y,1/2+z
1/2-x,-y,1/2+z
1/2-x,y,1/2+z
1/2+x,-y,1/2+z
1/2+x,1/2+y,z
1/2-x,1/2-y,z
1/2-x,1/2+y,z
1/2+x,1/2-y,z
loop_
_atom_site_type_symbol
_atom_site_label
_atom_site_fract_x
_atom_site_fract_y
_atom_site_fract_z
Si Si1 0.824074 0.826756 0.932630
Si Si2 0.173628 0.415416 0.101270
Si Si3 0.170519 0.085051 0.187353
Si Si4 0.174092 0.084547 0.774032
Si Si5 0.676160 0.327445 0.027413
Si Si6 0.678856 0.828426 0.848797
O O1 0.750000 0.750000 0.935807
O O2 0.740370 0.866185 0.892897
O O3 0.000000 0.820393 0.921062
O O4 0.799860 0.861647 0.979627
O O5 0.191654 0.500000 0.098247
O O6 0.253912 0.384941 0.143974
O O7 0.250772 0.383000 0.059635
O O8 0.000000 0.391718 0.103085
O O9 0.267781 0.111819 0.227838
O O10 0.000000 0.115000 0.190998
O O11 0.170423 0.000000 0.185999
O O12 0.275593 0.121405 0.809770
O O13 0.000000 0.107484 0.779249
O O14 0.194968 0.000000 0.778531
O O15 0.500000 0.318616 0.037649
O O16 0.750000 0.250000 0.032390
O O17 0.500000 0.821475 0.850808
O O18 0.750000 0.750000 0.842877
#
# Coordination Sequence:
#
# PCOD8186281 Si02
#       6
#    16  16  16  16  16  16
#     4   9  17  31  51  74 100 133 172 210 252 304
#     4  10  20  34  53  77 105 137 173 212 254 301
#     4   9  17  31  52  76 102 134 172 209 249 303
#     4  10  20  35  55  78 105 136 171 211 255 303
#     4  10  20  34  54  78 104 135 171 212 257 305
#     4  11  21  34  54  78 105 136 172 212 255 304
#
# _framework density 18.66685
#
# number of rings (size 3 to 8) (size 9 to 14) (size 15 to 20)
#    0.000    2.167    0.000    5.000    0.000    6.000 
#    0.000    1.667    0.000    1.000    0.000    0.000 
#    0.000    0.000    0.000    0.000    0.000    0.000 
#
# Total GULP energy -297525.763087 kJ/mol
# GULP energy per Si atom -12396.906795 kJ/mol
# Density = 1.862436 g / cm^3
# Si number density = 18.666850 Si / 1000 Ang^3
#
#
#
# Elastic Constant Matrix: (Units=GPa)
#
#
# Indices 1 2 3 4 5 6 
#
# 1 164.2116 31.4404 79.3291 0.0000 0.0000 0.0000
# 2 31.4404 21.3560 32.6253 0.0000 0.0000 0.0000
# 3 79.3291 32.6253 165.2533 0.0000 0.0000 0.0000
# 4 0.0000 0.0000 0.0000 53.3684 0.0000 0.0000
# 5 0.0000 0.0000 0.0000 0.0000 40.6530 0.0000
# 6 0.0000 0.0000 0.0000 0.0000 0.0000 25.7384
#
#
#
# Elastic Compliance Matrix: (Units=1/GPa)
#
#
# Indices 1 2 3 4 5 6 
#
# 1 0.009138 -0.009667 -0.002478 0.000000 0.000000 0.000000
# 2 -0.009667 0.077274 -0.010615 0.000000 0.000000 0.000000
# 3 -0.002478 -0.010615 0.009337 0.000000 0.000000 0.000000
# 4 0.000000 0.000000 0.000000 0.018738 0.000000 0.000000
# 5 0.000000 0.000000 0.000000 0.000000 0.024598 0.000000
# 6 0.000000 0.000000 0.000000 0.000000 0.000000 0.038852
#
#
# Mechanical properties :
#
#
# Convention : Reuss Voigt Hill
#
# Bulk Modulus (GPa) = 19.90933 70.84562 45.37747
# Shear Modulus (GPa) = 20.81601 37.78036 29.29819
#
# Velocity S-wave (km/s) = 3.34298 4.50369 3.96603
# Velocity P-wave (km/s) = 5.05860 8.06718 6.73308
#
# Compressibility (1/GPa) = 0.05022772
#
# Stress axis : x y z
#
# Youngs Moduli (GPa) = 109.43727 12.94097 107.10533
#
# Poissons Ratio (x) = 0.12510 0.26541
# Poissons Ratio (y) = 1.05792 1.13696
# Poissons Ratio (z) = 0.27118 0.13737
#
# Static dielectric constant tensor:
#      x y z
#    x 3.681100 0.000000 0.000000 
#    y 0.000000 2.933280 0.000000 
#    z 0.000000 0.000000 4.073630 
# 
# 
# High freq. dielectric constant tensor:
#      x y z
#    x 1.747480 0.000000 0.000000 
#    y 0.000000 1.671570 0.000000 
#    z 0.000000 0.000000 1.749300 
# 
# From -- ./inp_files/28040.got.cif
#   From: 2010.03.12/outbox.cif.g09.slc.cpg/sg42_15_cif.got.tgz:28040.got - 2010.04.14 02:04:31.
