data_PCOD8186428
_publ_section_title
;
Structure prediction by ZEFSAII (Michael W. Deem and Ramdas Pophale) SiO2 
 PCOD8186428
Probable space group: F M M 2
;
_chemical_formula_sum "Si O2"
_cell_formula_units_Z 64
_cell_length_a 13.817991
_cell_length_b 21.336675
_cell_length_c 10.443100
_cell_angle_alpha 90.000000
_cell_angle_beta 90.000000
_cell_angle_gamma 90.000000
_cell_volume 3078.938997
_symmetry_space_group_name_H-M "F M M 2"
_symmetry_group_IT_number 42
_symmetry_cell_setting 'orthorhombic'
loop_
_space_group_symop_operation_xyz
x,y,z
-x,-y,z
-x,y,z
x,-y,z
x,1/2+y,1/2+z
-x,1/2-y,1/2+z
-x,1/2+y,1/2+z
x,1/2-y,1/2+z
1/2+x,y,1/2+z
1/2-x,-y,1/2+z
1/2-x,y,1/2+z
1/2+x,-y,1/2+z
1/2+x,1/2+y,z
1/2-x,1/2-y,z
1/2-x,1/2+y,z
1/2+x,1/2-y,z
loop_
_atom_site_type_symbol
_atom_site_label
_atom_site_fract_x
_atom_site_fract_y
_atom_site_fract_z
Si Si1 0.747329 0.897425 0.585850
Si Si2 0.107988 0.500000 0.694074
Si Si3 0.157003 0.787158 0.956855
Si Si4 0.607619 0.500000 0.490522
Si Si5 0.896726 0.302150 0.182457
O O1 0.669464 0.938483 0.661121
O O2 0.684877 0.859891 0.480966
O O3 0.804070 0.847654 0.674857
O O4 0.831585 0.938718 0.524660
O O5 0.000000 0.500000 0.628008
O O6 0.089905 0.500000 0.842084
O O7 0.250000 0.750000 0.913468
O O8 0.112638 0.757234 0.086434
O O9 0.090613 0.781275 0.830831
O O10 0.500000 0.500000 0.556460
O O11 0.000000 0.334642 0.146824
#
# Coordination Sequence:
#
# PCOD8186428 Si02
#       5
#    16   8  16   8  16
#     4  10  21  38  58  82 115 151 189 235 286 337
#     4  10  22  38  58  82 110 148 193 235 282 337
#     4  10  21  38  58  83 118 156 191 233 283 338
#     4  10  20  36  58  84 112 148 191 235 282 337
#     4  11  22  37  59  88 118 152 191 234 285 342
#
# _framework density 20.786383000000001
#
# number of rings (size 3 to 8) (size 9 to 14) (size 15 to 20)
#    0.000    1.750    0.000    5.250    0.000    4.000 
#    0.000    5.000    0.000    4.500    0.000    0.000 
#    0.000    0.000    0.000    0.000    0.000    0.000 
#
# Total GULP energy -198210.688538 kJ/mol
# GULP energy per Si atom -12388.168034 kJ/mol
# Density = 2.073907 g / cm^3
# Si number density = 20.786383 Si / 1000 Ang^3
#
#
#
# Elastic Constant Matrix: (Units=GPa)
#
#
# Indices 1 2 3 4 5 6 
#
# 1 157.2625 45.1324 40.4989 0.0000 0.0000 0.0000
# 2 45.1324 107.9178 45.4082 0.0000 0.0000 0.0000
# 3 40.4989 45.4082 126.9361 0.0000 0.0000 0.0000
# 4 0.0000 0.0000 0.0000 7.9118 0.0000 0.0000
# 5 0.0000 0.0000 0.0000 0.0000 -12.6266 0.0000
# 6 0.0000 0.0000 0.0000 0.0000 0.0000 20.1112
#
#
#
# Elastic Compliance Matrix: (Units=1/GPa)
#
#
# Indices 1 2 3 4 5 6 
#
# 1 0.007457 -0.002493 -0.001487 0.000000 0.000000 0.000000
# 2 -0.002493 0.011742 -0.003405 0.000000 0.000000 0.000000
# 3 -0.001487 -0.003405 0.009571 0.000000 0.000000 0.000000
# 4 0.000000 0.000000 0.000000 0.126393 0.000000 0.000000
# 5 0.000000 0.000000 0.000000 0.000000 -0.079198 0.000000
# 6 0.000000 0.000000 0.000000 0.000000 0.000000 0.049723
#
#
# Mechanical properties :
#
#
# Convention : Reuss Voigt Hill
#
# Bulk Modulus (GPa) = 71.43402 72.68838 72.06120
# Shear Modulus (GPa) = 34.45316 20.48443 27.46879
#
# Velocity S-wave (km/s) = 4.07564 3.14263 3.63916
# Velocity P-wave (km/s) = 7.52251 6.94358 7.23884
#
# Compressibility (1/GPa) = 0.01399893
#
# Stress axis : x y z
#
# Youngs Moduli (GPa) = 134.09738 85.16794 104.48693
#
# Poissons Ratio (x) = 0.21231 0.15542
# Poissons Ratio (y) = 0.33428 0.35577
# Poissons Ratio (z) = 0.19947 0.28999
#
# Static dielectric constant tensor:
#      x y z
#    x 4.064880 0.000000 0.000000 
#    y 0.000000 4.962390 0.000000 
#    z 0.000000 0.000000 3.550720 
# 
# 
# High freq. dielectric constant tensor:
#      x y z
#    x 1.836450 0.000000 0.000000 
#    y 0.000000 1.805200 0.000000 
#    z 0.000000 0.000000 1.805700 
# 
# From -- ./inp_files/2698.got.cif
#   From: 2010.03.12/outbox.cif.g09.slc.cpg/sg42_2_cif.got.tgz:2698.got - 2010.04.14 02:04:31.
