data_PCOD8186793
_publ_section_title
;
Structure prediction by ZEFSAII (Michael W. Deem and Ramdas Pophale) SiO2 
 PCOD8186793
Probable space group: F M M 2
;
_chemical_formula_sum "Si O2"
_cell_formula_units_Z 96
_cell_length_a 25.716244
_cell_length_b 13.703296
_cell_length_c 13.909946
_cell_angle_alpha 90.000000
_cell_angle_beta 90.000000
_cell_angle_gamma 90.000000
_cell_volume 4901.827463
_symmetry_space_group_name_H-M "F M M 2"
_symmetry_group_IT_number 42
_symmetry_cell_setting 'orthorhombic'
loop_
_space_group_symop_operation_xyz
x,y,z
-x,-y,z
-x,y,z
x,-y,z
x,1/2+y,1/2+z
-x,1/2-y,1/2+z
-x,1/2+y,1/2+z
x,1/2-y,1/2+z
1/2+x,y,1/2+z
1/2-x,-y,1/2+z
1/2-x,y,1/2+z
1/2+x,-y,1/2+z
1/2+x,1/2+y,z
1/2-x,1/2-y,z
1/2-x,1/2+y,z
1/2+x,1/2-y,z
loop_
_atom_site_type_symbol
_atom_site_label
_atom_site_fract_x
_atom_site_fract_y
_atom_site_fract_z
Si Si1 0.257009 0.360086 0.142840
Si Si2 0.211763 0.604527 0.954639
Si Si3 0.875281 0.888858 0.129797
Si Si4 0.696562 0.389839 0.828523
Si Si5 0.875247 0.755818 0.943532
Si Si6 0.060745 0.612941 0.818669
O O1 0.250000 0.250000 0.112778
O O2 0.316644 0.380436 0.172385
O O3 0.211595 0.388226 0.217240
O O4 0.245538 0.421448 0.048231
O O5 0.189638 0.500000 0.916160
O O6 0.251121 0.651172 0.877912
O O7 0.166748 0.678740 0.979545
O O8 0.911868 0.858723 0.218389
O O9 0.886429 0.000000 0.097896
O O10 0.888898 0.820647 0.037481
O O11 0.683708 0.500000 0.861821
O O12 0.647501 0.323184 0.857397
O O13 0.922409 0.690895 0.901116
O O14 0.073664 0.500000 0.847675
O O15 0.000000 0.626665 0.803020
#
# Coordination Sequence:
#
# PCOD8186793 Si02
#       6
#    16  16  16  16  16  16
#     4  12  20  34  54  82 123 167 199 235 282 350
#     4  11  21  34  51  83 123 159 196 231 280 349
#     4  11  22  39  62  90 124 161 205 251 297 355
#     4  11  22  34  52  83 125 164 197 236 286 350
#     4  12  22  37  61  90 118 156 200 253 301 357
#     4  10  24  46  68  88 112 150 205 263 314 363
#
# _framework density 19.584533
#
# number of rings (size 3 to 8) (size 9 to 14) (size 15 to 20)
#    0.000    0.833    3.333    6.000    0.000    3.333 
#    0.000    0.000    0.000    1.500    0.000    0.000 
#    0.000    0.000    0.000    0.000    0.000    0.000 
#
# Total GULP energy -297413.093450 kJ/mol
# GULP energy per Si atom -12392.212227 kJ/mol
# Density = 1.953996 g / cm^3
# Si number density = 19.584533 Si / 1000 Ang^3
#
#
#
# Elastic Constant Matrix: (Units=GPa)
#
#
# Indices 1 2 3 4 5 6 
#
# 1 88.0527 33.7839 16.0952 0.0000 0.0000 0.0000
# 2 33.7839 112.8003 30.1058 0.0000 0.0000 0.0000
# 3 16.0952 30.1058 53.1557 0.0000 0.0000 0.0000
# 4 0.0000 0.0000 0.0000 27.1297 0.0000 0.0000
# 5 0.0000 0.0000 0.0000 0.0000 27.5416 0.0000
# 6 0.0000 0.0000 0.0000 0.0000 0.0000 26.9939
#
#
#
# Elastic Compliance Matrix: (Units=1/GPa)
#
#
# Indices 1 2 3 4 5 6 
#
# 1 0.013017 -0.003354 -0.002042 0.000000 0.000000 0.000000
# 2 -0.003354 0.011308 -0.005389 0.000000 0.000000 0.000000
# 3 -0.002042 -0.005389 0.022483 0.000000 0.000000 0.000000
# 4 0.000000 0.000000 0.000000 0.036860 0.000000 0.000000
# 5 0.000000 0.000000 0.000000 0.000000 0.036309 0.000000
# 6 0.000000 0.000000 0.000000 0.000000 0.000000 0.037045
#
#
# Mechanical properties :
#
#
# Convention : Reuss Voigt Hill
#
# Bulk Modulus (GPa) = 39.62180 45.99760 42.80970
# Shear Modulus (GPa) = 26.73738 27.93462 27.33600
#
# Velocity S-wave (km/s) = 3.69891 3.78082 3.74009
# Velocity P-wave (km/s) = 6.20626 6.52665 6.36847
#
# Compressibility (1/GPa) = 0.02523863
#
# Stress axis : x y z
#
# Youngs Moduli (GPa) = 76.82390 88.43359 44.47768
#
# Poissons Ratio (x) = 0.29657 0.09083
# Poissons Ratio (y) = 0.25763 0.23969
# Poissons Ratio (z) = 0.15688 0.47657
#
# Static dielectric constant tensor:
#      x y z
#    x 3.285450 0.000000 0.000000 
#    y 0.000000 3.948340 0.000000 
#    z 0.000000 0.000000 3.524410 
# 
# 
# High freq. dielectric constant tensor:
#      x y z
#    x 1.720300 0.000000 0.000000 
#    y 0.000000 1.791190 0.000000 
#    z 0.000000 0.000000 1.765520 
# 
# From -- ./inp_files/13993.got.cif
#   From: 2010.03.12/outbox.cif.g09.slc.cpg/sg42_7_cif.got.tgz:13993.got - 2010.04.14 02:04:31.
