data_PCOD8186430
_publ_section_title
;
Structure prediction by ZEFSAII (Michael W. Deem and Ramdas Pophale) SiO2 
 PCOD8186430
Probable space group: F M M 2
;
_chemical_formula_sum "Si O2"
_cell_formula_units_Z 80
_cell_length_a 29.158413
_cell_length_b 8.850899
_cell_length_c 15.694403
_cell_angle_alpha 90.000000
_cell_angle_beta 90.000000
_cell_angle_gamma 90.000000
_cell_volume 4050.382781
_symmetry_space_group_name_H-M "F M M 2"
_symmetry_group_IT_number 42
_symmetry_cell_setting 'orthorhombic'
loop_
_space_group_symop_operation_xyz
x,y,z
-x,-y,z
-x,y,z
x,-y,z
x,1/2+y,1/2+z
-x,1/2-y,1/2+z
-x,1/2+y,1/2+z
x,1/2-y,1/2+z
1/2+x,y,1/2+z
1/2-x,-y,1/2+z
1/2-x,y,1/2+z
1/2+x,-y,1/2+z
1/2+x,1/2+y,z
1/2-x,1/2-y,z
1/2-x,1/2+y,z
1/2+x,1/2-y,z
loop_
_atom_site_type_symbol
_atom_site_label
_atom_site_fract_x
_atom_site_fract_y
_atom_site_fract_z
Si Si1 0.143882 0.179467 0.153820
Si Si2 0.550387 0.170758 0.395723
Si Si3 0.799419 0.821400 0.314776
Si Si4 0.353891 0.325672 0.965678
Si Si5 0.950232 0.178147 0.220003
O O1 0.177441 0.241634 0.227737
O O2 0.092400 0.246192 0.166836
O O3 0.141442 0.000000 0.160774
O O4 0.162048 0.226953 0.060260
O O5 0.500000 0.198217 0.438363
O O6 0.590894 0.196644 0.463746
O O7 0.558195 0.284843 0.318592
O O8 0.553132 0.000000 0.359789
O O9 0.750000 0.750000 0.324556
O O10 0.829675 0.777338 0.396051
O O11 0.794636 0.000000 0.312214
O O12 0.340478 0.500000 0.949056
O O13 0.000000 0.244416 0.190115
O O14 0.951077 0.000000 0.209995
#
# Coordination Sequence:
#
# PCOD8186430 Si02
#       5
#    16  16  16  16  16
#     4   9  19  35  56  83 113 143 181 225 268 322
#     4   9  17  29  49  79 114 149 183 221 265 314
#     4  11  23  41  61  81 108 140 180 229 283 335
#     4  10  20  36  58  84 114 147 184 225 271 324
#     4   9  16  29  52  79 109 147 186 221 262 315
#
# _framework density 19.751218999999999
#
# number of rings (size 3 to 8) (size 9 to 14) (size 15 to 20)
#    0.000    2.400    2.000    0.600    0.000    1.600 
#    0.000    9.000    0.000    0.000    0.000    5.600 
#    0.000    0.000    0.000    0.000    0.000    0.000 
#
# Total GULP energy -247852.946403 kJ/mol
# GULP energy per Si atom -12392.647320 kJ/mol
# Density = 1.970626 g / cm^3
# Si number density = 19.751219 Si / 1000 Ang^3
#
#
#
# Elastic Constant Matrix: (Units=GPa)
#
#
# Indices 1 2 3 4 5 6 
#
# 1 126.2266 26.5617 57.3172 0.0000 0.0000 0.0000
# 2 26.5617 29.2765 18.4199 0.0000 0.0000 0.0000
# 3 57.3172 18.4199 123.5117 0.0000 0.0000 0.0000
# 4 0.0000 0.0000 0.0000 22.7174 0.0000 0.0000
# 5 0.0000 0.0000 0.0000 0.0000 13.4352 0.0000
# 6 0.0000 0.0000 0.0000 0.0000 0.0000 17.9598
#
#
#
# Elastic Compliance Matrix: (Units=1/GPa)
#
#
# Indices 1 2 3 4 5 6 
#
# 1 0.011442 -0.007769 -0.004151 0.000000 0.000000 0.000000
# 2 -0.007769 0.042969 -0.002803 0.000000 0.000000 0.000000
# 3 -0.004151 -0.002803 0.010441 0.000000 0.000000 0.000000
# 4 0.000000 0.000000 0.000000 0.044019 0.000000 0.000000
# 5 0.000000 0.000000 0.000000 0.000000 0.074431 0.000000
# 6 0.000000 0.000000 0.000000 0.000000 0.000000 0.055680
#
#
# Mechanical properties :
#
#
# Convention : Reuss Voigt Hill
#
# Bulk Modulus (GPa) = 28.24403 53.73471 40.98937
# Shear Modulus (GPa) = 17.84243 22.60355 20.22299
#
# Velocity S-wave (km/s) = 3.00885 3.38659 3.20329
# Velocity P-wave (km/s) = 5.13827 6.52356 5.87191
#
# Compressibility (1/GPa) = 0.03540571
#
# Stress axis : x y z
#
# Youngs Moduli (GPa) = 87.39634 23.27243 95.77805
#
# Poissons Ratio (x) = 0.18081 0.39759
# Poissons Ratio (y) = 0.67901 0.26844
# Poissons Ratio (z) = 0.36280 0.06523
#
# Static dielectric constant tensor:
#      x y z
#    x 3.934810 0.000000 0.000000 
#    y 0.000000 3.318970 0.000000 
#    z 0.000000 0.000000 3.543990 
# 
# 
# High freq. dielectric constant tensor:
#      x y z
#    x 1.781840 0.000000 0.000000 
#    y 0.000000 1.736630 0.000000 
#    z 0.000000 0.000000 1.758090 
# 
# From -- ./inp_files/6953.got.cif
#   From: 2010.03.12/outbox.cif.g09.slc.cpg/sg42_4_cif.got.tgz:6953.got - 2010.04.14 02:04:31.
