data_PCOD8186196
_publ_section_title
;
Structure prediction by ZEFSAII (Michael W. Deem and Ramdas Pophale) SiO2 
 PCOD8186196
Probable space group: F M M 2
;
_chemical_formula_sum "Si O2"
_cell_formula_units_Z 112
_cell_length_a 26.363223
_cell_length_b 10.767613
_cell_length_c 18.988526
_cell_angle_alpha 90.000000
_cell_angle_beta 90.000000
_cell_angle_gamma 90.000000
_cell_volume 5390.253559
_symmetry_space_group_name_H-M "F M M 2"
_symmetry_group_IT_number 42
_symmetry_cell_setting 'orthorhombic'
loop_
_space_group_symop_operation_xyz
x,y,z
-x,-y,z
-x,y,z
x,-y,z
x,1/2+y,1/2+z
-x,1/2-y,1/2+z
-x,1/2+y,1/2+z
x,1/2-y,1/2+z
1/2+x,y,1/2+z
1/2-x,-y,1/2+z
1/2-x,y,1/2+z
1/2+x,-y,1/2+z
1/2+x,1/2+y,z
1/2-x,1/2-y,z
1/2-x,1/2+y,z
1/2+x,1/2-y,z
loop_
_atom_site_type_symbol
_atom_site_label
_atom_site_fract_x
_atom_site_fract_y
_atom_site_fract_z
Si Si1 0.056112 0.359288 0.592570
Si Si2 0.943887 0.140695 0.811954
Si Si3 0.868145 0.749981 0.202262
Si Si4 0.165138 0.865574 0.452264
Si Si5 0.443623 0.705108 0.452264
Si Si6 0.208417 0.146197 0.598190
Si Si7 0.708412 0.146203 0.806335
O O1 0.062636 0.500000 0.569519
O O2 0.097151 0.329948 0.651138
O O3 0.064049 0.285096 0.521429
O O4 0.000000 0.333300 0.623979
O O5 0.902846 0.169996 0.753383
O O6 0.935964 0.214996 0.883061
O O7 0.000000 0.166614 0.780524
O O8 0.937353 0.000000 0.835052
O O9 0.834784 0.653022 0.157528
O O10 0.834788 0.846952 0.246996
O O11 0.104131 0.886785 0.452273
O O12 0.185760 0.802935 0.523779
O O13 0.185753 0.802932 0.380747
O O14 0.190186 0.000000 0.452261
O O15 0.500000 0.640974 0.452284
O O16 0.250000 0.250000 0.618950
O O17 0.227093 0.000000 0.596316
O O18 0.750000 0.250000 0.785582
O O19 0.727083 0.000000 0.808205
#
# Coordination Sequence:
#
# PCOD8186196 Si02
#       7
#    16  16  16  16  16  16  16
#     4  10  21  37  59  90 126 164 207 251 299 363
#     4  10  21  37  59  90 126 164 207 251 299 363
#     4  12  22  38  64  88 128 164 204 250 314 370
#     4  10  21  43  65  89 122 156 203 257 306 368
#     4  10  19  38  64  90 120 158 204 252 301 357
#     4  11  25  44  66  91 123 162 209 263 315 369
#     4  11  25  44  66  91 123 162 209 263 315 369
#
# _framework density 20.778243
#
# number of rings (size 3 to 8) (size 9 to 14) (size 15 to 20)
#    0.000    1.429    2.857    2.571    0.000    5.429 
#    0.000    0.000    0.000    0.000    0.000    0.000 
#    0.000    0.000    0.000    0.000    0.000    0.000 
#
# Total GULP energy -346884.267359 kJ/mol
# GULP energy per Si atom -12388.723834 kJ/mol
# Density = 2.073095 g / cm^3
# Si number density = 20.778243 Si / 1000 Ang^3
#
#
#
# Elastic Constant Matrix: (Units=GPa)
#
#
# Indices 1 2 3 4 5 6 
#
# 1 113.4709 38.4838 47.2799 0.0000 0.0000 0.0000
# 2 38.4838 90.3652 24.9460 0.0000 0.0000 0.0000
# 3 47.2799 24.9460 128.3756 0.0000 0.0000 0.0000
# 4 0.0000 0.0000 0.0000 -14.3077 0.0000 0.0000
# 5 0.0000 0.0000 0.0000 0.0000 42.0962 0.0000
# 6 0.0000 0.0000 0.0000 0.0000 0.0000 27.1477
#
#
#
# Elastic Compliance Matrix: (Units=1/GPa)
#
#
# Indices 1 2 3 4 5 6 
#
# 1 0.011625 -0.003982 -0.003508 0.000000 0.000000 0.000000
# 2 -0.003982 0.013058 -0.001071 0.000000 0.000000 0.000000
# 3 -0.003508 -0.001071 0.009290 0.000000 0.000000 0.000000
# 4 0.000000 0.000000 0.000000 -0.069892 0.000000 0.000000
# 5 0.000000 0.000000 0.000000 0.000000 0.023755 0.000000
# 6 0.000000 0.000000 0.000000 0.000000 0.000000 0.036836
#
#
# Mechanical properties :
#
#
# Convention : Reuss Voigt Hill
#
# Bulk Modulus (GPa) = 59.34390 61.51456 60.42923
# Shear Modulus (GPa) = 105.46579 25.75404 65.60991
#
# Velocity S-wave (km/s) = 7.13218 3.52443 5.62537
# Velocity P-wave (km/s) = 9.82072 6.79939 8.44625
#
# Compressibility (1/GPa) = 0.01685093
#
# Stress axis : x y z
#
# Youngs Moduli (GPa) = 86.02174 76.58267 107.64840
#
# Poissons Ratio (x) = 0.30499 0.37758
# Poissons Ratio (y) = 0.34258 0.11526
# Poissons Ratio (z) = 0.30172 0.08200
#
# Static dielectric constant tensor:
#      x y z
#    x 3.967560 0.000000 0.000000 
#    y 0.000000 3.476010 0.000000 
#    z 0.000000 0.000000 4.188300 
# 
# 
# High freq. dielectric constant tensor:
#      x y z
#    x 1.820020 0.000000 0.000000 
#    y 0.000000 1.794470 0.000000 
#    z 0.000000 0.000000 1.832880 
# 
# From -- ./inp_files/24564.got.cif
#   From: 2010.03.12/outbox.cif.g09.slc.cpg/sg42_13_cif.got.tgz:24564.got - 2010.04.14 02:04:31.
