data_PCOD8186957
_publ_section_title
;
Structure prediction by ZEFSAII (Michael W. Deem and Ramdas Pophale) SiO2 
 PCOD8186957
Probable space group: F D D 2
;
_chemical_formula_sum "Si O2"
_cell_formula_units_Z 96
_cell_length_a 23.251345
_cell_length_b 13.127764
_cell_length_c 13.850740
_cell_angle_alpha 90.000000
_cell_angle_beta 90.000000
_cell_angle_gamma 90.000000
_cell_volume 4227.774529
_symmetry_space_group_name_H-M "F D D 2"
_symmetry_group_IT_number 43
_symmetry_cell_setting 'orthorhombic'
loop_
_space_group_symop_operation_xyz
x,y,z
-x,-y,z
1/4-x,1/4+y,1/4+z
1/4+x,1/4-y,1/4+z
x,1/2+y,1/2+z
-x,1/2-y,1/2+z
1/4-x,3/4+y,3/4+z
1/4+x,3/4-y,3/4+z
1/2+x,y,1/2+z
1/2-x,-y,1/2+z
3/4-x,1/4+y,3/4+z
3/4+x,1/4-y,3/4+z
1/2+x,1/2+y,z
1/2-x,1/2-y,z
3/4-x,3/4+y,1/4+z
3/4+x,3/4-y,1/4+z
loop_
_atom_site_type_symbol
_atom_site_label
_atom_site_fract_x
_atom_site_fract_y
_atom_site_fract_z
Si Si1 0.797740 0.981873 0.976460
Si Si2 0.222447 0.093805 0.182019
Si Si3 0.442042 0.444510 0.305379
Si Si4 0.093850 0.166615 0.496680
Si Si5 0.332617 0.700716 0.641419
Si Si6 0.704419 0.832386 0.927765
O O1 0.850473 0.935082 0.913884
O O2 0.736709 0.940312 0.939970
O O3 0.807134 0.943493 0.084023
O O4 0.796165 0.104656 0.977812
O O5 0.291810 0.107263 0.177719
O O6 0.190492 0.200979 0.200508
O O7 0.206663 0.003302 0.256007
O O8 0.500000 0.500000 0.338411
O O9 0.404586 0.526504 0.247346
O O10 0.410656 0.403759 0.401932
O O11 0.091549 0.095580 0.592017
O O12 0.325013 0.709097 0.525672
O O13 0.750000 0.750000 0.892204
#
# Coordination Sequence:
#
# PCOD8186957 Si02
#       6
#    16  16  16  16  16  16
#     4  10  21  40  71  99 135 182 228 290 343 406
#     4   9  19  40  61  99 131 171 231 282 335 404
#     4  11  26  48  71 101 145 179 238 295 353 423
#     4  11  25  45  69  99 142 188 223 287 360 423
#     4  10  18  39  68  94 135 176 228 291 329 408
#     4  11  23  42  65 103 142 178 235 286 348 419
#
# _framework density 22.706980999999999
#
# number of rings (size 3 to 8) (size 9 to 14) (size 15 to 20)
#    0.000    1.667    5.000    0.500    2.333    4.000 
#    6.000    0.000    0.000    0.000    0.000    0.000 
#    0.000    0.000    0.000    0.000    0.000    0.000 
#
# Total GULP energy -297492.015867 kJ/mol
# GULP energy per Si atom -12395.500661 kJ/mol
# Density = 2.265530 g / cm^3
# Si number density = 22.706981 Si / 1000 Ang^3
#
#
#
# Elastic Constant Matrix: (Units=GPa)
#
#
# Indices 1 2 3 4 5 6 
#
# 1 80.8271 35.1507 25.6814 0.0000 0.0000 0.0000
# 2 35.1507 82.6620 29.5771 0.0000 0.0000 0.0000
# 3 25.6814 29.5771 62.5826 0.0000 0.0000 0.0000
# 4 0.0000 0.0000 0.0000 28.1444 0.0000 0.0000
# 5 0.0000 0.0000 0.0000 0.0000 28.6522 0.0000
# 6 0.0000 0.0000 0.0000 0.0000 0.0000 41.1288
#
#
#
# Elastic Compliance Matrix: (Units=1/GPa)
#
#
# Indices 1 2 3 4 5 6 
#
# 1 0.015980 -0.005354 -0.004027 0.000000 0.000000 0.000000
# 2 -0.005354 0.016354 -0.005532 0.000000 0.000000 0.000000
# 3 -0.004027 -0.005532 0.020246 0.000000 0.000000 0.000000
# 4 0.000000 0.000000 0.000000 0.035531 0.000000 0.000000
# 5 0.000000 0.000000 0.000000 0.000000 0.034901 0.000000
# 6 0.000000 0.000000 0.000000 0.000000 0.000000 0.024314
#
#
# Mechanical properties :
#
#
# Convention : Reuss Voigt Hill
#
# Bulk Modulus (GPa) = 43.94969 45.21000 44.57985
# Shear Modulus (GPa) = 27.06560 28.62925 27.84742
#
# Velocity S-wave (km/s) = 3.45621 3.55464 3.50577
# Velocity P-wave (km/s) = 5.94343 6.06636 6.00521
#
# Compressibility (1/GPa) = 0.02275329
#
# Stress axis : x y z
#
# Youngs Moduli (GPa) = 62.57746 61.14873 49.39311
#
# Poissons Ratio (x) = 0.32741 0.19891
# Poissons Ratio (y) = 0.33506 0.27322
# Poissons Ratio (z) = 0.25201 0.33825
#
# Static dielectric constant tensor:
#      x y z
#    x 3.878120 0.000000 0.000000 
#    y 0.000000 4.356730 0.000000 
#    z 0.000000 0.000000 3.951990 
# 
# 
# High freq. dielectric constant tensor:
#      x y z
#    x 1.881620 0.000000 0.000000 
#    y 0.000000 1.903630 0.000000 
#    z 0.000000 0.000000 1.880090 
# 
# From -- ./inp_files/10089.got.cif
#   From: 2010.06.25/outbox.cif.g09.slc.cpg/sg43_6_cif.got.tgz:10089.got - 2010.06.26 16:48:59.
