data_PCOD8186714
_publ_section_title
;
Structure prediction by ZEFSAII (Michael W. Deem and Ramdas Pophale) SiO2 
 PCOD8186714
Probable space group: F M M 2
;
_chemical_formula_sum "Si O2"
_cell_formula_units_Z 112
_cell_length_a 13.617411
_cell_length_b 13.896691
_cell_length_c 27.183213
_cell_angle_alpha 90.000000
_cell_angle_beta 90.000000
_cell_angle_gamma 90.000000
_cell_volume 5144.068398
_symmetry_space_group_name_H-M "F M M 2"
_symmetry_group_IT_number 42
_symmetry_cell_setting 'orthorhombic'
loop_
_space_group_symop_operation_xyz
x,y,z
-x,-y,z
-x,y,z
x,-y,z
x,1/2+y,1/2+z
-x,1/2-y,1/2+z
-x,1/2+y,1/2+z
x,1/2-y,1/2+z
1/2+x,y,1/2+z
1/2-x,-y,1/2+z
1/2-x,y,1/2+z
1/2+x,-y,1/2+z
1/2+x,1/2+y,z
1/2-x,1/2-y,z
1/2-x,1/2+y,z
1/2+x,1/2-y,z
loop_
_atom_site_type_symbol
_atom_site_label
_atom_site_fract_x
_atom_site_fract_y
_atom_site_fract_z
Si Si1 0.708775 0.109513 0.963820
Si Si2 0.239734 0.387186 0.253710
Si Si3 0.387671 0.745154 0.805728
Si Si4 0.613205 0.313309 0.554061
Si Si5 0.281918 0.607275 0.642702
Si Si6 0.888394 0.603576 0.570077
Si Si7 0.111734 0.782882 0.918834
O O1 0.816653 0.142793 0.946681
O O2 0.624057 0.175480 0.940265
O O3 0.692790 0.000000 0.947572
O O4 0.690109 0.121016 0.022878
O O5 0.257233 0.500000 0.259361
O O6 0.325745 0.332652 0.283008
O O7 0.136629 0.354666 0.277820
O O8 0.233595 0.352586 0.197339
O O9 0.500000 0.773360 0.799351
O O10 0.359806 0.725066 0.862079
O O11 0.500000 0.344745 0.546082
O O12 0.643340 0.326244 0.611235
O O13 0.629225 0.200869 0.537865
O O14 0.327214 0.500000 0.644585
O O15 0.174533 0.607039 0.619236
O O16 0.867915 0.500000 0.541446
O O17 0.000000 0.605817 0.588513
O O18 0.000000 0.817819 0.927140
#
# Coordination Sequence:
#
# PCOD8186714 Si02
#       7
#    16  16  16  16  16  16  16
#     4  11  24  43  68  95 126 167 215 266 321 385
#     4  10  22  40  63  94 130 170 218 264 312 379
#     4  10  23  42  65  95 131 166 208 266 328 389
#     4  11  24  40  61  90 127 171 217 268 323 382
#     4  10  22  38  58  88 126 167 212 262 314 372
#     4   9  20  38  59  85 119 164 213 258 310 370
#     4  10  24  45  66  96 131 163 208 267 332 394
#
# _framework density 21.772651
#
# number of rings (size 3 to 8) (size 9 to 14) (size 15 to 20)
#    0.000    1.857    0.000    3.000    8.000    6.286 
#    0.000    5.714    0.000    0.000    0.000    0.000 
#    0.000    0.000    0.000    0.000    0.000    0.000 
#
# Total GULP energy -347041.037266 kJ/mol
# GULP energy per Si atom -12394.322760 kJ/mol
# Density = 2.172310 g / cm^3
# Si number density = 21.772651 Si / 1000 Ang^3
#
#
#
# Elastic Constant Matrix: (Units=GPa)
#
#
# Indices 1 2 3 4 5 6 
#
# 1 99.9609 46.5410 43.2667 0.0000 0.0000 0.0000
# 2 46.5410 142.6952 27.6074 0.0000 0.0000 0.0000
# 3 43.2667 27.6074 91.1142 0.0000 0.0000 0.0000
# 4 0.0000 0.0000 0.0000 22.6462 0.0000 0.0000
# 5 0.0000 0.0000 0.0000 0.0000 22.9728 0.0000
# 6 0.0000 0.0000 0.0000 0.0000 0.0000 21.3553
#
#
#
# Elastic Compliance Matrix: (Units=1/GPa)
#
#
# Indices 1 2 3 4 5 6 
#
# 1 0.014066 -0.003501 -0.005619 0.000000 0.000000 0.000000
# 2 -0.003501 0.008316 -0.000857 0.000000 0.000000 0.000000
# 3 -0.005619 -0.000857 0.013903 0.000000 0.000000 0.000000
# 4 0.000000 0.000000 0.000000 0.044158 0.000000 0.000000
# 5 0.000000 0.000000 0.000000 0.000000 0.043530 0.000000
# 6 0.000000 0.000000 0.000000 0.000000 0.000000 0.046827
#
#
# Mechanical properties :
#
#
# Convention : Reuss Voigt Hill
#
# Bulk Modulus (GPa) = 61.23198 63.17783 62.20490
# Shear Modulus (GPa) = 25.48484 27.81854 26.65169
#
# Velocity S-wave (km/s) = 3.42497 3.57835 3.50250
# Velocity P-wave (km/s) = 6.62004 6.79359 6.70737
#
# Compressibility (1/GPa) = 0.01633134
#
# Stress axis : x y z
#
# Youngs Moduli (GPa) = 71.09498 120.25666 71.92665
#
# Poissons Ratio (x) = 0.42097 0.40413
# Poissons Ratio (y) = 0.24887 0.06166
# Poissons Ratio (z) = 0.39945 0.10310
#
# Static dielectric constant tensor:
#      x y z
#    x 3.934250 0.000000 0.000000 
#    y 0.000000 4.145850 0.000000 
#    z 0.000000 0.000000 3.980730 
# 
# 
# High freq. dielectric constant tensor:
#      x y z
#    x 1.861460 0.000000 0.000000 
#    y 0.000000 1.860040 0.000000 
#    z 0.000000 0.000000 1.854410 
# 
# From -- ./inp_files/29490.got.cif
#   From: 2010.03.12/outbox.cif.g09.slc.cpg/sg42_15_cif.got.tgz:29490.got - 2010.04.14 02:04:31.
