data_PCOD8186413
_publ_section_title
;
Structure prediction by ZEFSAII (Michael W. Deem and Ramdas Pophale) SiO2 
 PCOD8186413
Probable space group: F M M 2
;
_chemical_formula_sum "Si O2"
_cell_formula_units_Z 80
_cell_length_a 10.350582
_cell_length_b 14.666734
_cell_length_c 26.643173
_cell_angle_alpha 90.000000
_cell_angle_beta 90.000000
_cell_angle_gamma 90.000000
_cell_volume 4044.679656
_symmetry_space_group_name_H-M "F M M 2"
_symmetry_group_IT_number 42
_symmetry_cell_setting 'orthorhombic'
loop_
_space_group_symop_operation_xyz
x,y,z
-x,-y,z
-x,y,z
x,-y,z
x,1/2+y,1/2+z
-x,1/2-y,1/2+z
-x,1/2+y,1/2+z
x,1/2-y,1/2+z
1/2+x,y,1/2+z
1/2-x,-y,1/2+z
1/2-x,y,1/2+z
1/2+x,-y,1/2+z
1/2+x,1/2+y,z
1/2-x,1/2-y,z
1/2-x,1/2+y,z
1/2+x,1/2-y,z
loop_
_atom_site_type_symbol
_atom_site_label
_atom_site_fract_x
_atom_site_fract_y
_atom_site_fract_z
Si Si1 0.000000 0.751922 0.093580
Si Si2 0.356239 0.608350 0.846555
Si Si3 0.000000 0.609240 0.007454
Si Si4 0.651418 0.394041 0.734935
Si Si5 0.748561 0.607510 0.447956
Si Si6 0.250000 0.250000 0.161596
Si Si7 0.500000 0.607272 0.008221
O O1 0.125243 0.756506 0.127557
O O2 0.000000 0.842638 0.060875
O O3 0.000000 0.658561 0.061253
O O4 0.500000 0.648170 0.855669
O O5 0.365992 0.500000 0.849772
O O6 0.306013 0.635800 0.791302
O O7 0.260124 0.644548 0.890481
O O8 0.122464 0.645572 0.975780
O O9 0.000000 0.500000 0.016512
O O10 0.500000 0.372427 0.726754
O O11 0.679146 0.500000 0.725706
O O12 0.740048 0.339188 0.696376
O O13 0.737795 0.500000 0.447150
O O14 0.874699 0.639204 0.477769
O O15 0.500000 0.500000 0.018670
#
# Coordination Sequence:
#
# PCOD8186413 Si02
#       7
#     8  16   8  16  16   8   8
#     4  12  26  40  58  80 114 154 202 254 304 340
#     4   8  13  27  57  90 114 146 189 228 279 352
#     4  10  22  38  55  81 119 159 194 232 289 356
#     4   9  19  38  64  90 118 157 199 237 294 368
#     4   9  16  31  57  86 115 148 186 230 283 348
#     4  12  24  42  60  86 116 152 204 264 300 338
#     4  10  20  36  57  81 107 143 192 240 289 346
#
# _framework density 19.779069
#
# number of rings (size 3 to 8) (size 9 to 14) (size 15 to 20)
#    0.000    2.400    2.000    2.400    0.000    1.600 
#    0.000    3.000    0.000    2.400    0.000    0.000 
#    0.000    0.000    0.000    0.000    0.000    0.000 
#
# Total GULP energy -247913.041096 kJ/mol
# GULP energy per Si atom -12395.652055 kJ/mol
# Density = 1.973405 g / cm^3
# Si number density = 19.779069 Si / 1000 Ang^3
#
#
#
# Elastic Constant Matrix: (Units=GPa)
#
#
# Indices 1 2 3 4 5 6 
#
# 1 148.8518 36.0773 93.9174 0.0000 0.0000 0.0000
# 2 36.0773 67.8080 57.5216 0.0000 0.0000 0.0000
# 3 93.9174 57.5216 185.1869 0.0000 0.0000 0.0000
# 4 0.0000 0.0000 0.0000 -18.9961 0.0000 0.0000
# 5 0.0000 0.0000 0.0000 0.0000 36.1203 0.0000
# 6 0.0000 0.0000 0.0000 0.0000 0.0000 13.2488
#
#
#
# Elastic Compliance Matrix: (Units=1/GPa)
#
#
# Indices 1 2 3 4 5 6 
#
# 1 0.009973 -0.001379 -0.004630 0.000000 0.000000 0.000000
# 2 -0.001379 0.020214 -0.005579 0.000000 0.000000 0.000000
# 3 -0.004630 -0.005579 0.009481 0.000000 0.000000 0.000000
# 4 0.000000 0.000000 0.000000 -0.052642 0.000000 0.000000
# 5 0.000000 0.000000 0.000000 0.000000 0.027685 0.000000
# 6 0.000000 0.000000 0.000000 0.000000 0.000000 0.075478
#
#
# Mechanical properties :
#
#
# Convention : Reuss Voigt Hill
#
# Bulk Modulus (GPa) = 60.63421 86.31993 73.47707
# Shear Modulus (GPa) = 42.06501 20.36329 31.21415
#
# Velocity S-wave (km/s) = 4.61667 3.21212 3.97689
# Velocity P-wave (km/s) = 7.69028 7.58246 7.63656
#
# Compressibility (1/GPa) = 0.01649234
#
# Stress axis : x y z
#
# Youngs Moduli (GPa) = 100.26688 49.46991 105.47481
#
# Poissons Ratio (x) = 0.06822 0.48831
# Poissons Ratio (y) = 0.13827 0.58849
# Poissons Ratio (z) = 0.46420 0.27602
#
# Static dielectric constant tensor:
#      x y z
#    x 3.858300 0.000000 0.000000 
#    y 0.000000 3.319690 0.000000 
#    z 0.000000 0.000000 3.948120 
# 
# 
# High freq. dielectric constant tensor:
#      x y z
#    x 1.761070 0.000000 0.000000 
#    y 0.000000 1.754030 0.000000 
#    z 0.000000 0.000000 1.784940 
# 
# From -- ./inp_files/29846.got.cif
#   From: 2010.03.12/outbox.cif.g09.slc.cpg/sg42_15_cif.got.tgz:29846.got - 2010.04.14 02:04:31.
