data_PCOD8186450
_publ_section_title
;
Structure prediction by ZEFSAII (Michael W. Deem and Ramdas Pophale) SiO2 
 PCOD8186450
Probable space group: F M M 2
;
_chemical_formula_sum "Si O2"
_cell_formula_units_Z 80
_cell_length_a 14.082794
_cell_length_b 14.762671
_cell_length_c 17.924965
_cell_angle_alpha 90.000000
_cell_angle_beta 90.000000
_cell_angle_gamma 90.000000
_cell_volume 3726.594032
_symmetry_space_group_name_H-M "F M M 2"
_symmetry_group_IT_number 42
_symmetry_cell_setting 'orthorhombic'
loop_
_space_group_symop_operation_xyz
x,y,z
-x,-y,z
-x,y,z
x,-y,z
x,1/2+y,1/2+z
-x,1/2-y,1/2+z
-x,1/2+y,1/2+z
x,1/2-y,1/2+z
1/2+x,y,1/2+z
1/2-x,-y,1/2+z
1/2-x,y,1/2+z
1/2+x,-y,1/2+z
1/2+x,1/2+y,z
1/2-x,1/2-y,z
1/2-x,1/2+y,z
1/2+x,1/2-y,z
loop_
_atom_site_type_symbol
_atom_site_label
_atom_site_fract_x
_atom_site_fract_y
_atom_site_fract_z
Si Si1 0.891011 0.601749 0.588840
Si Si2 0.388154 0.218737 0.724886
Si Si3 0.224529 0.852367 0.945646
Si Si4 0.105381 0.899777 0.359301
Si Si5 0.612320 0.898041 0.298239
O O1 0.885840 0.500000 0.622242
O O2 0.849451 0.674327 0.648713
O O3 0.825924 0.604089 0.516280
O O4 0.000000 0.625884 0.567668
O O5 0.500000 0.203227 0.726198
O O6 0.347453 0.165047 0.796724
O O7 0.359352 0.325076 0.733150
O O8 0.250000 0.750000 0.962528
O O9 0.325398 0.901145 0.930688
O O10 0.155306 0.865498 0.875819
O O11 0.000000 0.866533 0.383930
O O12 0.098927 0.000000 0.324998
O O13 0.500000 0.896939 0.308804
O O14 0.647187 0.000000 0.276642
#
# Coordination Sequence:
#
# PCOD8186450 Si02
#       5
#    16  16  16  16  16
#     4  10  21  39  65  95 126 160 202 256 312 367
#     4   9  18  36  62  93 122 154 199 251 309 364
#     4  12  23  37  58  90 129 164 204 251 304 364
#     4  10  20  36  60  89 122 161 205 252 301 358
#     4  10  20  37  64  95 125 159 204 259 311 364
#
# _framework density 21.467324000000001
#
# number of rings (size 3 to 8) (size 9 to 14) (size 15 to 20)
#    0.000    1.800    2.000    3.000    0.000    4.800 
#    3.600    0.000    0.000    2.400    0.000    2.800 
#    0.000    0.000    0.000    0.000    0.000    0.000 
#
# Total GULP energy -247898.611763 kJ/mol
# GULP energy per Si atom -12394.930588 kJ/mol
# Density = 2.141846 g / cm^3
# Si number density = 21.467324 Si / 1000 Ang^3
#
#
#
# Elastic Constant Matrix: (Units=GPa)
#
#
# Indices 1 2 3 4 5 6 
#
# 1 72.8463 22.7235 53.1236 0.0000 0.0000 0.0000
# 2 22.7235 144.9420 49.9296 0.0000 0.0000 0.0000
# 3 53.1236 49.9296 120.4011 0.0000 0.0000 0.0000
# 4 0.0000 0.0000 0.0000 31.5748 0.0000 0.0000
# 5 0.0000 0.0000 0.0000 0.0000 23.9310 0.0000
# 6 0.0000 0.0000 0.0000 0.0000 0.0000 25.3568
#
#
#
# Elastic Compliance Matrix: (Units=1/GPa)
#
#
# Indices 1 2 3 4 5 6 
#
# 1 0.020242 -0.000113 -0.008884 0.000000 0.000000 0.000000
# 2 -0.000113 0.008050 -0.003288 0.000000 0.000000 0.000000
# 3 -0.008884 -0.003288 0.013589 0.000000 0.000000 0.000000
# 4 0.000000 0.000000 0.000000 0.031671 0.000000 0.000000
# 5 0.000000 0.000000 0.000000 0.000000 0.041787 0.000000
# 6 0.000000 0.000000 0.000000 0.000000 0.000000 0.039437
#
#
# Mechanical properties :
#
#
# Convention : Reuss Voigt Hill
#
# Bulk Modulus (GPa) = 57.77173 65.52695 61.64934
# Shear Modulus (GPa) = 27.01005 30.33336 28.67171
#
# Velocity S-wave (km/s) = 3.55095 3.76307 3.65855
# Velocity P-wave (km/s) = 6.61681 7.03358 6.82838
#
# Compressibility (1/GPa) = 0.01730950
#
# Stress axis : x y z
#
# Youngs Moduli (GPa) = 49.40312 124.22675 73.58821
#
# Poissons Ratio (x) = 0.01404 0.65377
# Poissons Ratio (y) = 0.00558 0.24198
# Poissons Ratio (z) = 0.43891 0.40850
#
# Static dielectric constant tensor:
#      x y z
#    x 3.988140 0.000000 0.000000 
#    y 0.000000 4.240760 0.000000 
#    z 0.000000 0.000000 3.619270 
# 
# 
# High freq. dielectric constant tensor:
#      x y z
#    x 1.850270 0.000000 0.000000 
#    y 0.000000 1.859720 0.000000 
#    z 0.000000 0.000000 1.804800 
# 
# From -- ./inp_files/24935.got.cif
#   From: 2010.03.12/outbox.cif.g09.slc.cpg/sg42_13_cif.got.tgz:24935.got - 2010.04.14 02:04:31.
