data_PCOD8186694
_publ_section_title
;
Structure prediction by ZEFSAII (Michael W. Deem and Ramdas Pophale) SiO2 
 PCOD8186694
Probable space group: F M M 2
;
_chemical_formula_sum "Si O2"
_cell_formula_units_Z 68
_cell_length_a 18.569418
_cell_length_b 13.816169
_cell_length_c 12.886339
_cell_angle_alpha 90.000000
_cell_angle_beta 90.000000
_cell_angle_gamma 90.000000
_cell_volume 3306.096162
_symmetry_space_group_name_H-M "F M M 2"
_symmetry_group_IT_number 42
_symmetry_cell_setting 'orthorhombic'
loop_
_space_group_symop_operation_xyz
x,y,z
-x,-y,z
-x,y,z
x,-y,z
x,1/2+y,1/2+z
-x,1/2-y,1/2+z
-x,1/2+y,1/2+z
x,1/2-y,1/2+z
1/2+x,y,1/2+z
1/2-x,-y,1/2+z
1/2-x,y,1/2+z
1/2+x,-y,1/2+z
1/2+x,1/2+y,z
1/2-x,1/2-y,z
1/2-x,1/2+y,z
1/2+x,1/2-y,z
loop_
_atom_site_type_symbol
_atom_site_label
_atom_site_fract_x
_atom_site_fract_y
_atom_site_fract_z
Si Si1 0.345490 0.387027 0.511620
Si Si2 0.922335 0.500000 0.668156
Si Si3 0.750000 0.750000 0.642034
Si Si4 0.368155 0.321686 0.288433
Si Si5 0.000000 0.000000 0.966915
Si Si6 0.000000 0.611223 0.086829
Si Si7 0.000000 0.317887 0.315458
O O1 0.341690 0.500000 0.539996
O O2 0.277818 0.337349 0.569416
O O3 0.333400 0.370646 0.389609
O O4 0.425231 0.343639 0.541628
O O5 0.885522 0.403435 0.705239
O O6 0.000000 0.500000 0.723272
O O7 0.929362 0.500000 0.541991
O O8 0.686116 0.760557 0.722277
O O9 0.431801 0.251752 0.325190
O O10 0.000000 0.900771 0.902615
O O11 0.000000 0.624274 0.208905
O O12 0.000000 0.500000 0.054166
#
# Coordination Sequence:
#
# PCOD8186694 Si02
#       7
#    16   8   8  16   4   8   8
#     4  11  25  45  71 100 132 184 231 282 342 407
#     4  10  24  46  66 104 136 176 226 295 345 393
#     4  12  28  44  64 102 144 186 226 278 342 410
#     4  12  25  45  70  99 139 181 231 281 344 414
#     4  10  26  40  72 114 134 174 222 300 350 398
#     4  10  21  41  69  97 133 168 226 283 330 398
#     4  12  22  42  73 103 136 172 227 289 340 405
#
# _framework density 20.568064
#
# number of rings (size 3 to 8) (size 9 to 14) (size 15 to 20)
#    0.353    0.471    5.294    1.412    4.941    1.882 
#    0.000    0.000    0.000    0.000    0.000    0.000 
#    0.000    0.000    0.000    0.000    0.000    0.000 
#
# Total GULP energy -210644.452354 kJ/mol
# GULP energy per Si atom -12390.850138 kJ/mol
# Density = 2.052125 g / cm^3
# Si number density = 20.568064 Si / 1000 Ang^3
#
#
#
# Elastic Constant Matrix: (Units=GPa)
#
#
# Indices 1 2 3 4 5 6 
#
# 1 83.2346 43.7939 36.6354 0.0000 0.0000 0.0000
# 2 43.7939 116.3530 48.6590 0.0000 0.0000 0.0000
# 3 36.6354 48.6590 146.4788 0.0000 0.0000 0.0000
# 4 0.0000 0.0000 0.0000 46.9326 0.0000 0.0000
# 5 0.0000 0.0000 0.0000 0.0000 -58.0441 0.0000
# 6 0.0000 0.0000 0.0000 0.0000 0.0000 37.9956
#
#
#
# Elastic Compliance Matrix: (Units=1/GPa)
#
#
# Indices 1 2 3 4 5 6 
#
# 1 0.015603 -0.004925 -0.002266 0.000000 0.000000 0.000000
# 2 -0.004925 0.011536 -0.002600 0.000000 0.000000 0.000000
# 3 -0.002266 -0.002600 0.008258 0.000000 0.000000 0.000000
# 4 0.000000 0.000000 0.000000 0.021307 0.000000 0.000000
# 5 0.000000 0.000000 0.000000 0.000000 -0.017228 0.000000
# 6 0.000000 0.000000 0.000000 0.000000 0.000000 0.026319
#
#
# Mechanical properties :
#
#
# Convention : Reuss Voigt Hill
#
# Bulk Modulus (GPa) = 63.23926 67.13812 65.18869
# Shear Modulus (GPa) = 55.15821 19.84204 37.50012
#
# Velocity S-wave (km/s) = 5.18417 3.10933 4.27455
# Velocity P-wave (km/s) = 8.16378 6.75303 7.49168
#
# Compressibility (1/GPa) = 0.01581296
#
# Stress axis : x y z
#
# Youngs Moduli (GPa) = 64.08996 86.68748 121.10112
#
# Poissons Ratio (x) = 0.42694 0.27446
# Poissons Ratio (y) = 0.31564 0.31490
# Poissons Ratio (z) = 0.14525 0.22541
#
# Static dielectric constant tensor:
#      x y z
#    x 3.636720 0.000000 0.000000 
#    y 0.000000 3.592970 0.000000 
#    z 0.000000 0.000000 3.784060 
# 
# 
# High freq. dielectric constant tensor:
#      x y z
#    x 1.798950 0.000000 0.000000 
#    y 0.000000 1.805130 0.000000 
#    z 0.000000 0.000000 1.820500 
# 
# From -- ./inp_files/9294.got.cif
#   From: 2010.03.12/outbox.cif.g09.slc.cpg/sg42_5_cif.got.tgz:9294.got - 2010.04.14 02:04:31.
