data_PCOD8186779
_publ_section_title
;
Structure prediction by ZEFSAII (Michael W. Deem and Ramdas Pophale) SiO2 
 PCOD8186779
Probable space group: F M M 2
;
_chemical_formula_sum "Si O2"
_cell_formula_units_Z 72
_cell_length_a 14.952307
_cell_length_b 8.851346
_cell_length_c 25.658317
_cell_angle_alpha 90.000000
_cell_angle_beta 90.000000
_cell_angle_gamma 90.000000
_cell_volume 3395.828035
_symmetry_space_group_name_H-M "F M M 2"
_symmetry_group_IT_number 42
_symmetry_cell_setting 'orthorhombic'
loop_
_space_group_symop_operation_xyz
x,y,z
-x,-y,z
-x,y,z
x,-y,z
x,1/2+y,1/2+z
-x,1/2-y,1/2+z
-x,1/2+y,1/2+z
x,1/2-y,1/2+z
1/2+x,y,1/2+z
1/2-x,-y,1/2+z
1/2-x,y,1/2+z
1/2+x,-y,1/2+z
1/2+x,1/2+y,z
1/2-x,1/2-y,z
1/2-x,1/2+y,z
1/2+x,1/2-y,z
loop_
_atom_site_type_symbol
_atom_site_label
_atom_site_fract_x
_atom_site_fract_y
_atom_site_fract_z
Si Si1 0.750000 0.750000 0.446131
Si Si2 0.331884 0.334880 0.045794
Si Si3 0.899312 0.667914 0.866554
Si Si4 0.000000 0.677818 0.084476
Si Si5 0.500000 0.679423 0.196792
Si Si6 0.154634 0.321606 0.263580
O O1 0.695573 0.861845 0.484961
O O2 0.825286 0.831153 0.411672
O O3 0.350750 0.500000 0.070728
O O4 0.250000 0.250000 0.075665
O O5 0.415629 0.224279 0.049853
O O6 0.896663 0.500000 0.841554
O O7 0.875535 0.789827 0.822716
O O8 0.000000 0.701474 0.887974
O O9 0.000000 0.772878 0.137074
O O10 0.000000 0.500000 0.095784
O O11 0.500000 0.500000 0.202321
O O12 0.587281 0.747439 0.223250
O O13 0.157654 0.500000 0.254989
O O14 0.250000 0.250000 0.251940
#
# Coordination Sequence:
#
# PCOD8186779 Si02
#       6
#     8  16  16   8   8  16
#     4  10  24  38  70  98 138 176 236 270 340 392
#     4  10  23  43  67  98 134 173 224 279 335 397
#     4  11  23  40  65  97 137 183 227 273 333 398
#     4  12  26  46  73 100 133 174 224 281 341 401
#     4  12  26  48  73 100 135 174 222 279 341 403
#     4  12  25  43  68 100 138 178 226 275 332 399
#
# _framework density 21.202487000000001
#
# number of rings (size 3 to 8) (size 9 to 14) (size 15 to 20)
#    0.667    0.222    2.222    5.333    1.556    1.778 
#    0.000    4.444    0.000    0.000    0.000    0.000 
#    0.000    0.000    0.000    0.000    0.000    0.000 
#
# Total GULP energy -223095.665053 kJ/mol
# GULP energy per Si atom -12394.203614 kJ/mol
# Density = 2.115423 g / cm^3
# Si number density = 21.202487 Si / 1000 Ang^3
#
#
#
# Elastic Constant Matrix: (Units=GPa)
#
#
# Indices 1 2 3 4 5 6 
#
# 1 195.7820 64.2788 50.7448 0.0000 0.0000 0.0000
# 2 64.2788 180.6530 27.6647 0.0000 0.0000 0.0000
# 3 50.7448 27.6647 90.0381 0.0000 0.0000 0.0000
# 4 0.0000 0.0000 0.0000 25.9663 0.0000 0.0000
# 5 0.0000 0.0000 0.0000 0.0000 40.6733 0.0000
# 6 0.0000 0.0000 0.0000 0.0000 0.0000 29.5154
#
#
#
# Elastic Compliance Matrix: (Units=1/GPa)
#
#
# Indices 1 2 3 4 5 6 
#
# 1 0.006518 -0.001843 -0.003107 0.000000 0.000000 0.000000
# 2 -0.001843 0.006330 -0.000906 0.000000 0.000000 0.000000
# 3 -0.003107 -0.000906 0.013136 0.000000 0.000000 0.000000
# 4 0.000000 0.000000 0.000000 0.038511 0.000000 0.000000
# 5 0.000000 0.000000 0.000000 0.000000 0.024586 0.000000
# 6 0.000000 0.000000 0.000000 0.000000 0.000000 0.033881
#
#
# Mechanical properties :
#
#
# Convention : Reuss Voigt Hill
#
# Bulk Modulus (GPa) = 70.07213 83.53886 76.80549
# Shear Modulus (GPa) = 35.85945 40.81665 38.33805
#
# Velocity S-wave (km/s) = 4.11699 4.39234 4.25689
# Velocity P-wave (km/s) = 7.46460 8.07525 7.77592
#
# Compressibility (1/GPa) = 0.01427101
#
# Stress axis : x y z
#
# Youngs Moduli (GPa) = 153.41327 157.97409 76.12662
#
# Poissons Ratio (x) = 0.29122 0.23655
# Poissons Ratio (y) = 0.28281 0.06897
# Poissons Ratio (z) = 0.47670 0.14312
#
# Static dielectric constant tensor:
#      x y z
#    x 4.144630 0.000000 0.000000 
#    y 0.000000 3.787590 0.000000 
#    z 0.000000 0.000000 3.608120 
# 
# 
# High freq. dielectric constant tensor:
#      x y z
#    x 1.854630 0.000000 0.000000 
#    y 0.000000 1.840910 0.000000 
#    z 0.000000 0.000000 1.810380 
# 
# From -- ./inp_files/32449.got.cif
#   From: 2010.03.12/outbox.cif.g09.slc.cpg/sg42_17_cif.got.tgz:32449.got - 2010.04.14 02:04:31.
