data_PCOD8186294
_publ_section_title
;
Structure prediction by ZEFSAII (Michael W. Deem and Ramdas Pophale) SiO2 
 PCOD8186294
Probable space group: F M M 2
;
_chemical_formula_sum "Si O2"
_cell_formula_units_Z 104
_cell_length_a 21.509007
_cell_length_b 9.626625
_cell_length_c 26.563308
_cell_angle_alpha 90.000000
_cell_angle_beta 90.000000
_cell_angle_gamma 90.000000
_cell_volume 5500.175830
_symmetry_space_group_name_H-M "F M M 2"
_symmetry_group_IT_number 42
_symmetry_cell_setting 'orthorhombic'
loop_
_space_group_symop_operation_xyz
x,y,z
-x,-y,z
-x,y,z
x,-y,z
x,1/2+y,1/2+z
-x,1/2-y,1/2+z
-x,1/2+y,1/2+z
x,1/2-y,1/2+z
1/2+x,y,1/2+z
1/2-x,-y,1/2+z
1/2-x,y,1/2+z
1/2+x,-y,1/2+z
1/2+x,1/2+y,z
1/2-x,1/2-y,z
1/2-x,1/2+y,z
1/2+x,1/2-y,z
loop_
_atom_site_type_symbol
_atom_site_label
_atom_site_fract_x
_atom_site_fract_y
_atom_site_fract_z
Si Si1 0.631143 0.842622 0.942540
Si Si2 0.678443 0.152311 0.587760
Si Si3 0.806954 0.165066 0.681639
Si Si4 0.429242 0.838216 0.243254
Si Si5 0.068536 0.343526 0.522756
Si Si6 0.250000 0.750000 0.495918
Si Si7 0.071015 0.340763 0.840507
O O1 0.618748 0.797663 0.884794
O O2 0.609433 0.000000 0.949149
O O3 0.587320 0.753531 0.977363
O O4 0.703087 0.828606 0.958445
O O5 0.696395 0.280374 0.623861
O O6 0.606977 0.177943 0.573889
O O7 0.714031 0.147275 0.533934
O O8 0.688114 0.000000 0.613654
O O9 0.750000 0.250000 0.709414
O O10 0.875219 0.202235 0.703332
O O11 0.794378 0.000000 0.683306
O O12 0.500000 0.802387 0.223938
O O13 0.413059 0.755032 0.293330
O O14 0.424724 0.000000 0.256222
O O15 0.074606 0.500000 0.502349
O O16 0.000000 0.304366 0.539850
O O17 0.081164 0.500000 0.823966
O O18 0.000000 0.316758 0.858571
#
# Coordination Sequence:
#
# PCOD8186294 Si02
#       7
#    16  16  16  16  16   8  16
#     4  10  20  34  54  80 110 146 187 229 272 325
#     4  10  20  34  54  77 106 145 187 227 271 327
#     4  11  23  38  59  84 112 146 186 232 284 339
#     4   9  20  40  62  84 111 145 187 233 282 338
#     4   9  19  34  51  77 112 145 180 226 277 329
#     4  10  20  34  54  76 110 146 190 224 274 316
#     4   9  18  34  57  84 112 143 180 224 276 330
#
# _framework density 18.908487000000001
#
# number of rings (size 3 to 8) (size 9 to 14) (size 15 to 20)
#    0.000    2.308    0.769    1.385    0.000    6.462 
#    1.385    1.538    0.000    0.000    0.000    0.000 
#    0.000    0.000    0.000    0.000    0.000    0.000 
#
# Total GULP energy -322170.890830 kJ/mol
# GULP energy per Si atom -12391.188109 kJ/mol
# Density = 1.886545 g / cm^3
# Si number density = 18.908487 Si / 1000 Ang^3
#
#
#
# Elastic Constant Matrix: (Units=GPa)
#
#
# Indices 1 2 3 4 5 6 
#
# 1 144.4886 43.7659 57.5559 0.0000 0.0000 0.0000
# 2 43.7659 87.7159 37.5456 0.0000 0.0000 0.0000
# 3 57.5559 37.5456 86.7138 0.0000 0.0000 0.0000
# 4 0.0000 0.0000 0.0000 10.7274 0.0000 0.0000
# 5 0.0000 0.0000 0.0000 0.0000 31.7176 0.0000
# 6 0.0000 0.0000 0.0000 0.0000 0.0000 26.2353
#
#
#
# Elastic Compliance Matrix: (Units=1/GPa)
#
#
# Indices 1 2 3 4 5 6 
#
# 1 0.009870 -0.002603 -0.005424 0.000000 0.000000 0.000000
# 2 -0.002603 0.014680 -0.004629 0.000000 0.000000 0.000000
# 3 -0.005424 -0.004629 0.017137 0.000000 0.000000 0.000000
# 4 0.000000 0.000000 0.000000 0.093220 0.000000 0.000000
# 5 0.000000 0.000000 0.000000 0.000000 0.031528 0.000000
# 6 0.000000 0.000000 0.000000 0.000000 0.000000 0.038117
#
#
# Mechanical properties :
#
#
# Convention : Reuss Voigt Hill
#
# Bulk Modulus (GPa) = 61.06686 66.29478 63.68082
# Shear Modulus (GPa) = 21.24751 25.73944 23.49347
#
# Velocity S-wave (km/s) = 3.35580 3.69353 3.52871
# Velocity P-wave (km/s) = 6.88341 7.30250 7.09605
#
# Compressibility (1/GPa) = 0.01637549
#
# Stress axis : x y z
#
# Youngs Moduli (GPa) = 101.31623 68.11796 58.35452
#
# Poissons Ratio (x) = 0.17731 0.31653
# Poissons Ratio (y) = 0.26372 0.27010
# Poissons Ratio (z) = 0.54956 0.31530
#
# Static dielectric constant tensor:
#      x y z
#    x 4.035520 0.000000 0.000000 
#    y 0.000000 3.444520 0.000000 
#    z 0.000000 0.000000 3.229630 
# 
# 
# High freq. dielectric constant tensor:
#      x y z
#    x 1.751980 0.000000 0.000000 
#    y 0.000000 1.737550 0.000000 
#    z 0.000000 0.000000 1.707750 
# 
# From -- ./inp_files/33237.got.cif
#   From: 2010.03.12/outbox.cif.g09.slc.cpg/sg42_17_cif.got.tgz:33237.got - 2010.04.14 02:04:31.
