data_PCOD8186425
_publ_section_title
;
Structure prediction by ZEFSAII (Michael W. Deem and Ramdas Pophale) SiO2 
 PCOD8186425
Probable space group: F M M 2
;
_chemical_formula_sum "Si O2"
_cell_formula_units_Z 64
_cell_length_a 26.140887
_cell_length_b 8.827203
_cell_length_c 15.478070
_cell_angle_alpha 90.000000
_cell_angle_beta 90.000000
_cell_angle_gamma 90.000000
_cell_volume 3571.578833
_symmetry_space_group_name_H-M "F M M 2"
_symmetry_group_IT_number 42
_symmetry_cell_setting 'orthorhombic'
loop_
_space_group_symop_operation_xyz
x,y,z
-x,-y,z
-x,y,z
x,-y,z
x,1/2+y,1/2+z
-x,1/2-y,1/2+z
-x,1/2+y,1/2+z
x,1/2-y,1/2+z
1/2+x,y,1/2+z
1/2-x,-y,1/2+z
1/2-x,y,1/2+z
1/2+x,-y,1/2+z
1/2+x,1/2+y,z
1/2-x,1/2-y,z
1/2-x,1/2+y,z
1/2+x,1/2-y,z
loop_
_atom_site_type_symbol
_atom_site_label
_atom_site_fract_x
_atom_site_fract_y
_atom_site_fract_z
Si Si1 0.303668 0.329194 0.776800
Si Si2 0.397671 0.820974 0.715343
Si Si3 0.896068 0.328778 0.386176
Si Si4 0.558820 0.825924 0.048918
O O1 0.295038 0.500000 0.743376
O O2 0.250000 0.250000 0.791201
O O3 0.338859 0.239603 0.706632
O O4 0.334668 0.329196 0.868123
O O5 0.423033 0.749514 0.802479
O O6 0.430744 0.770768 0.634060
O O7 0.397879 0.000000 0.722868
O O8 0.916970 0.500000 0.396980
O O9 0.906197 0.233511 0.471571
O O10 0.500000 0.805334 0.022066
O O11 0.572513 0.000000 0.067516
#
# Coordination Sequence:
#
# PCOD8186425 Si02
#       4
#    16  16  16  16
#     4   9  18  34  58  84 112 146 183 227 277 329
#     4  10  20  36  58  82 113 148 186 229 275 331
#     4   9  20  37  57  82 113 145 185 230 275 330
#     4  11  23  38  57  82 112 147 189 234 279 330
#
# _framework density 17.919246000000001
#
# number of rings (size 3 to 8) (size 9 to 14) (size 15 to 20)
#    1.500    0.750    0.000    3.750    0.000    3.000 
#    0.000    1.250    0.000    3.000    0.000    0.000 
#    0.000    0.000    0.000    0.000    0.000    0.000 
#
# Total GULP energy -198273.252465 kJ/mol
# GULP energy per Si atom -12392.078279 kJ/mol
# Density = 1.787846 g / cm^3
# Si number density = 17.919246 Si / 1000 Ang^3
#
#
#
# Elastic Constant Matrix: (Units=GPa)
#
#
# Indices 1 2 3 4 5 6 
#
# 1 53.4367 36.6523 9.4991 0.0000 0.0000 0.0000
# 2 36.6523 137.7607 32.8118 0.0000 0.0000 0.0000
# 3 9.4991 32.8118 85.4289 0.0000 0.0000 0.0000
# 4 0.0000 0.0000 0.0000 35.7625 0.0000 0.0000
# 5 0.0000 0.0000 0.0000 0.0000 23.2038 0.0000
# 6 0.0000 0.0000 0.0000 0.0000 0.0000 25.6979
#
#
#
# Elastic Compliance Matrix: (Units=1/GPa)
#
#
# Indices 1 2 3 4 5 6 
#
# 1 0.022895 -0.006037 -0.000227 0.000000 0.000000 0.000000
# 2 -0.006037 0.009582 -0.003009 0.000000 0.000000 0.000000
# 3 -0.000227 -0.003009 0.012887 0.000000 0.000000 0.000000
# 4 0.000000 0.000000 0.000000 0.027962 0.000000 0.000000
# 5 0.000000 0.000000 0.000000 0.000000 0.043096 0.000000
# 6 0.000000 0.000000 0.000000 0.000000 0.000000 0.038914
#
#
# Mechanical properties :
#
#
# Convention : Reuss Voigt Hill
#
# Bulk Modulus (GPa) = 37.28962 48.28363 42.78662
# Shear Modulus (GPa) = 27.34911 30.11039 28.72975
#
# Velocity S-wave (km/s) = 3.91095 4.10364 4.00845
# Velocity P-wave (km/s) = 6.42254 7.03255 6.73446
#
# Compressibility (1/GPa) = 0.02681711
#
# Stress axis : x y z
#
# Youngs Moduli (GPa) = 43.67749 104.36320 77.60023
#
# Poissons Ratio (x) = 0.63008 0.01761
# Poissons Ratio (y) = 0.26370 0.23349
# Poissons Ratio (z) = 0.00991 0.31402
#
# Static dielectric constant tensor:
#      x y z
#    x 3.094370 0.000000 0.000000 
#    y 0.000000 3.433590 0.000000 
#    z 0.000000 0.000000 3.048880 
# 
# 
# High freq. dielectric constant tensor:
#      x y z
#    x 1.674180 0.000000 0.000000 
#    y 0.000000 1.717500 0.000000 
#    z 0.000000 0.000000 1.673470 
# 
# From -- ./inp_files/11873.got.cif
#   From: 2010.03.12/outbox.cif.g09.slc.cpg/sg42_6_cif.got.tgz:11873.got - 2010.04.14 02:04:31.
