data_PCOD8186419
_publ_section_title
;
Structure prediction by ZEFSAII (Michael W. Deem and Ramdas Pophale) SiO2 
 PCOD8186419
Probable space group: F M M 2
;
_chemical_formula_sum "Si O2"
_cell_formula_units_Z 96
_cell_length_a 32.795511
_cell_length_b 11.523266
_cell_length_c 13.566311
_cell_angle_alpha 90.000000
_cell_angle_beta 90.000000
_cell_angle_gamma 90.000000
_cell_volume 5126.863540
_symmetry_space_group_name_H-M "F M M 2"
_symmetry_group_IT_number 42
_symmetry_cell_setting 'orthorhombic'
loop_
_space_group_symop_operation_xyz
x,y,z
-x,-y,z
-x,y,z
x,-y,z
x,1/2+y,1/2+z
-x,1/2-y,1/2+z
-x,1/2+y,1/2+z
x,1/2-y,1/2+z
1/2+x,y,1/2+z
1/2-x,-y,1/2+z
1/2-x,y,1/2+z
1/2+x,-y,1/2+z
1/2+x,1/2+y,z
1/2-x,1/2-y,z
1/2-x,1/2+y,z
1/2+x,1/2-y,z
loop_
_atom_site_type_symbol
_atom_site_label
_atom_site_fract_x
_atom_site_fract_y
_atom_site_fract_z
Si Si1 0.387287 0.217795 0.540940
Si Si2 0.454500 0.637152 0.182867
Si Si3 0.302807 0.000000 0.294442
Si Si4 0.833135 0.500000 0.502218
Si Si5 0.393953 0.363579 0.350169
Si Si6 0.257719 0.000000 0.620522
Si Si7 0.750000 0.750000 0.629207
Si Si8 0.333239 0.765518 0.220255
O O1 0.430039 0.179013 0.587325
O O2 0.362259 0.110486 0.496462
O O3 0.398584 0.307161 0.456234
O O4 0.359467 0.280834 0.621510
O O5 0.500000 0.690773 0.181350
O O6 0.456306 0.500000 0.179224
O O7 0.432110 0.676870 0.283171
O O8 0.259499 0.000000 0.234421
O O9 0.330643 0.891123 0.268056
O O10 0.299234 0.000000 0.413878
O O11 0.806940 0.500000 0.604472
O O12 0.392570 0.500000 0.364287
O O13 0.352502 0.324893 0.296549
O O14 0.241642 0.125131 0.572043
O O15 0.711648 0.783379 0.696737
#
# Coordination Sequence:
#
# PCOD8186419 Si02
#       8
#    16  16   8   8  16   8   8  16
#     4  11  21  36  62  89 114 158 193 244 294 355
#     4   9  19  37  61  88 119 152 193 240 292 356
#     4  10  22  40  58  85 114 155 200 255 295 344
#     4  12  20  40  65  84 115 159 206 241 302 354
#     4  10  22  37  58  89 118 155 197 236 295 357
#     4  10  22  38  58  81 119 154 198 254 304 346
#     4  10  20  36  58  76 112 156 192 246 294 350
#     4  10  21  37  58  82 118 152 196 244 299 341
#
# _framework density 18.724898
#
# number of rings (size 3 to 8) (size 9 to 14) (size 15 to 20)
#    0.000    1.833    4.167    0.000    3.500    0.667 
#    0.000   10.833    0.000    0.000    0.000    0.000 
#    0.000    0.000    0.000    0.000    0.000    0.000 
#
# Total GULP energy -297350.274317 kJ/mol
# GULP energy per Si atom -12389.594763 kJ/mol
# Density = 1.868228 g / cm^3
# Si number density = 18.724898 Si / 1000 Ang^3
#
#
#
# Elastic Constant Matrix: (Units=GPa)
#
#
# Indices 1 2 3 4 5 6 
#
# 1 117.0847 14.6533 41.0872 0.0000 0.0000 0.0000
# 2 14.6533 105.0837 26.8539 0.0000 0.0000 0.0000
# 3 41.0872 26.8539 108.2237 0.0000 0.0000 0.0000
# 4 0.0000 0.0000 0.0000 28.9523 0.0000 0.0000
# 5 0.0000 0.0000 0.0000 0.0000 17.1037 0.0000
# 6 0.0000 0.0000 0.0000 0.0000 0.0000 21.7575
#
#
#
# Elastic Compliance Matrix: (Units=1/GPa)
#
#
# Indices 1 2 3 4 5 6 
#
# 1 0.009873 -0.000447 -0.003637 0.000000 0.000000 0.000000
# 2 -0.000447 0.010181 -0.002356 0.000000 0.000000 0.000000
# 3 -0.003637 -0.002356 0.011206 0.000000 0.000000 0.000000
# 4 0.000000 0.000000 0.000000 0.034540 0.000000 0.000000
# 5 0.000000 0.000000 0.000000 0.000000 0.058467 0.000000
# 6 0.000000 0.000000 0.000000 0.000000 0.000000 0.045961
#
#
# Mechanical properties :
#
#
# Convention : Reuss Voigt Hill
#
# Bulk Modulus (GPa) = 54.41381 55.06455 54.73918
# Shear Modulus (GPa) = 26.42215 30.08256 28.25236
#
# Velocity S-wave (km/s) = 3.76050 4.01253 3.88856
# Velocity P-wave (km/s) = 6.92660 7.13710 7.03264
#
# Compressibility (1/GPa) = 0.01837769
#
# Stress axis : x y z
#
# Youngs Moduli (GPa) = 101.28400 98.22451 89.23976
#
# Poissons Ratio (x) = 0.04393 0.32460
# Poissons Ratio (y) = 0.04530 0.21028
# Poissons Ratio (z) = 0.36841 0.23146
#
# Static dielectric constant tensor:
#      x y z
#    x 3.610170 0.000000 0.000000 
#    y 0.000000 3.750960 0.000000 
#    z 0.000000 0.000000 3.331940 
# 
# 
# High freq. dielectric constant tensor:
#      x y z
#    x 1.720020 0.000000 0.000000 
#    y 0.000000 1.737650 0.000000 
#    z 0.000000 0.000000 1.710430 
# 
# From -- ./inp_files/13209.got.cif
#   From: 2010.03.12/outbox.cif.g09.slc.cpg/sg42_7_cif.got.tgz:13209.got - 2010.04.14 02:04:31.
