data_PCOD8186054
_publ_section_title
;
Structure prediction by ZEFSAII (Michael W. Deem and Ramdas Pophale) SiO2 
 PCOD8186054
Probable space group: F M M 2
;
_chemical_formula_sum "Si O2"
_cell_formula_units_Z 80
_cell_length_a 15.702463
_cell_length_b 8.632949
_cell_length_c 29.061918
_cell_angle_alpha 90.000000
_cell_angle_beta 90.000000
_cell_angle_gamma 90.000000
_cell_volume 3939.591820
_symmetry_space_group_name_H-M "F M M 2"
_symmetry_group_IT_number 42
_symmetry_cell_setting 'orthorhombic'
loop_
_space_group_symop_operation_xyz
x,y,z
-x,-y,z
-x,y,z
x,-y,z
x,1/2+y,1/2+z
-x,1/2-y,1/2+z
-x,1/2+y,1/2+z
x,1/2-y,1/2+z
1/2+x,y,1/2+z
1/2-x,-y,1/2+z
1/2-x,y,1/2+z
1/2+x,-y,1/2+z
1/2+x,1/2+y,z
1/2-x,1/2-y,z
1/2-x,1/2+y,z
1/2+x,1/2-y,z
loop_
_atom_site_type_symbol
_atom_site_label
_atom_site_fract_x
_atom_site_fract_y
_atom_site_fract_z
Si Si1 0.500000 0.179967 0.101521
Si Si2 0.342909 0.316016 0.942211
Si Si3 0.593807 0.183377 0.345573
Si Si4 0.838190 0.183410 0.750575
Si Si5 0.500000 0.819158 0.699716
Si Si6 0.656262 0.818309 0.035453
O O1 0.500000 0.288479 0.145667
O O2 0.413087 0.219731 0.074389
O O3 0.500000 0.000000 0.115808
O O4 0.345740 0.500000 0.941886
O O5 0.250000 0.250000 0.944841
O O6 0.382894 0.245992 0.895382
O O7 0.385996 0.253433 0.988896
O O8 0.500000 0.241145 0.332371
O O9 0.654148 0.239257 0.303972
O O10 0.597236 0.000000 0.349648
O O11 0.750000 0.250000 0.730672
O O12 0.915787 0.245329 0.720978
O O13 0.838289 0.000000 0.746722
O O14 0.500000 0.000000 0.709920
O O15 0.750000 0.750000 0.047963
O O16 0.668244 0.000000 0.028303
#
# Coordination Sequence:
#
# PCOD8186054 Si02
#       6
#     8  16  16  16   8  16
#     4  10  24  44  65  86 117 157 194 247 313 364
#     4  10  19  32  54  82 118 157 199 242 288 346
#     4   9  18  33  55  85 120 161 202 243 293 349
#     4  11  22  41  67  91 125 165 204 252 306 361
#     4  12  26  44  65  94 123 153 204 255 309 376
#     4  10  21  39  61  87 120 156 198 243 296 356
#
# _framework density 20.306671999999999
#
# number of rings (size 3 to 8) (size 9 to 14) (size 15 to 20)
#    0.000    1.800    1.000    4.500    1.400    2.400 
#    0.000    5.000    0.000    0.000    0.000    0.000 
#    0.000    0.000    0.000    0.000    0.000    0.000 
#
# Total GULP energy -247902.472976 kJ/mol
# GULP energy per Si atom -12395.123649 kJ/mol
# Density = 2.026045 g / cm^3
# Si number density = 20.306672 Si / 1000 Ang^3
#
#
#
# Elastic Constant Matrix: (Units=GPa)
#
#
# Indices 1 2 3 4 5 6 
#
# 1 124.1858 41.0281 62.0319 0.0000 0.0000 0.0000
# 2 41.0281 90.5926 47.6467 0.0000 0.0000 0.0000
# 3 62.0319 47.6467 130.8366 0.0000 0.0000 0.0000
# 4 0.0000 0.0000 0.0000 28.9162 0.0000 0.0000
# 5 0.0000 0.0000 0.0000 0.0000 24.3341 0.0000
# 6 0.0000 0.0000 0.0000 0.0000 0.0000 20.8244
#
#
#
# Elastic Compliance Matrix: (Units=1/GPa)
#
#
# Indices 1 2 3 4 5 6 
#
# 1 0.011095 -0.002793 -0.004243 0.000000 0.000000 0.000000
# 2 -0.002793 0.014357 -0.003904 0.000000 0.000000 0.000000
# 3 -0.004243 -0.003904 0.011077 0.000000 0.000000 0.000000
# 4 0.000000 0.000000 0.000000 0.034583 0.000000 0.000000
# 5 0.000000 0.000000 0.000000 0.000000 0.041095 0.000000
# 6 0.000000 0.000000 0.000000 0.000000 0.000000 0.048021
#
#
# Mechanical properties :
#
#
# Convention : Reuss Voigt Hill
#
# Bulk Modulus (GPa) = 68.27019 71.89203 70.08111
# Shear Modulus (GPa) = 26.73963 27.80883 27.27423
#
# Velocity S-wave (km/s) = 3.63270 3.70461 3.66883
# Velocity P-wave (km/s) = 7.16156 7.33341 7.24799
#
# Compressibility (1/GPa) = 0.01464768
#
# Stress axis : x y z
#
# Youngs Moduli (GPa) = 90.13379 69.65414 90.28083
#
# Poissons Ratio (x) = 0.19454 0.38306
# Poissons Ratio (y) = 0.25174 0.35246
# Poissons Ratio (z) = 0.38244 0.27193
#
# Static dielectric constant tensor:
#      x y z
#    x 3.758940 0.000000 0.000000 
#    y 0.000000 3.551230 0.000000 
#    z 0.000000 0.000000 4.271490 
# 
# 
# High freq. dielectric constant tensor:
#      x y z
#    x 1.799370 0.000000 0.000000 
#    y 0.000000 1.780980 0.000000 
#    z 0.000000 0.000000 1.802200 
# 
# From -- ./inp_files/32761.got.cif
#   From: 2010.03.12/outbox.cif.g09.slc.cpg/sg42_17_cif.got.tgz:32761.got - 2010.04.14 02:04:31.
