data_PCOD8186883
_publ_section_title
;
Structure prediction by ZEFSAII (Michael W. Deem and Ramdas Pophale) SiO2 
 PCOD8186883
Probable space group: F M M 2
;
_chemical_formula_sum "Si O2"
_cell_formula_units_Z 112
_cell_length_a 30.411063
_cell_length_b 9.878507
_cell_length_c 25.519909
_cell_angle_alpha 90.000000
_cell_angle_beta 90.000000
_cell_angle_gamma 90.000000
_cell_volume 7666.586398
_symmetry_space_group_name_H-M "F M M 2"
_symmetry_group_IT_number 42
_symmetry_cell_setting 'orthorhombic'
loop_
_space_group_symop_operation_xyz
x,y,z
-x,-y,z
-x,y,z
x,-y,z
x,1/2+y,1/2+z
-x,1/2-y,1/2+z
-x,1/2+y,1/2+z
x,1/2-y,1/2+z
1/2+x,y,1/2+z
1/2-x,-y,1/2+z
1/2-x,y,1/2+z
1/2+x,-y,1/2+z
1/2+x,1/2+y,z
1/2-x,1/2-y,z
1/2-x,1/2+y,z
1/2+x,1/2-y,z
loop_
_atom_site_type_symbol
_atom_site_label
_atom_site_fract_x
_atom_site_fract_y
_atom_site_fract_z
Si Si1 0.615929 0.838637 0.977290
Si Si2 0.213457 0.150173 0.479920
Si Si3 0.615843 0.339348 0.360999
Si Si4 0.451009 0.839022 0.062644
Si Si5 0.051198 0.657645 0.770812
Si Si6 0.287009 0.650769 0.355441
Si Si7 0.947781 0.849445 0.678267
O O1 0.664973 0.795173 0.994990
O O2 0.605206 0.781090 0.919060
O O3 0.613270 0.000000 0.976394
O O4 0.581200 0.776860 0.018579
O O5 0.250000 0.250000 0.504244
O O6 0.217411 0.143844 0.417646
O O7 0.221299 0.000000 0.503225
O O8 0.616740 0.500000 0.364913
O O9 0.578335 0.290047 0.321084
O O10 0.664267 0.292293 0.341376
O O11 0.500000 0.779596 0.053349
O O12 0.432745 0.799958 0.120430
O O13 0.452794 0.000000 0.058406
O O14 0.059945 0.500000 0.759194
O O15 0.068822 0.742212 0.721162
O O16 0.000000 0.685269 0.782338
O O17 0.279911 0.500000 0.331959
O O18 0.250000 0.750000 0.331246
O O19 0.000000 0.856294 0.678061
O O20 0.929058 0.000000 0.690935
#
# Coordination Sequence:
#
# PCOD8186883 Si02
#       7
#    16  16  16  16  16  16  16
#     4   8  13  21  34  54  78 100 121 147 182 221
#     4   8  13  21  34  51  71  95 120 146 177 212
#     4   8  14  23  34  52  79 103 120 145 183 221
#     4   8  13  21  35  55  76  97 122 152 184 216
#     4   9  16  25  38  56  76  99 126 151 177 215
#     4   8  13  22  35  50  70  95 120 147 179 212
#     4   8  14  25  39  54  72  94 123 159 190 210
#
# _framework density 14.608848999999999
#
# number of rings (size 3 to 8) (size 9 to 14) (size 15 to 20)
#    0.000    3.857    0.000    2.571    0.000    0.571 
#    0.000    3.571    0.000    1.714    0.000    1.000 
#    0.000   11.429    0.000    0.000    0.000    0.000 
#
# Total GULP energy -346917.067942 kJ/mol
# GULP energy per Si atom -12389.895284 kJ/mol
# Density = 1.457560 g / cm^3
# Si number density = 14.608849 Si / 1000 Ang^3
#
#
#
# Elastic Constant Matrix: (Units=GPa)
#
#
# Indices 1 2 3 4 5 6 
#
# 1 95.7061 34.4116 60.4406 0.0000 0.0000 0.0000
# 2 34.4116 39.1391 32.1420 0.0000 0.0000 0.0000
# 3 60.4406 32.1420 90.4980 0.0000 0.0000 0.0000
# 4 0.0000 0.0000 0.0000 13.6804 0.0000 0.0000
# 5 0.0000 0.0000 0.0000 0.0000 3.5010 0.0000
# 6 0.0000 0.0000 0.0000 0.0000 0.0000 16.5566
#
#
#
# Elastic Compliance Matrix: (Units=1/GPa)
#
#
# Indices 1 2 3 4 5 6 
#
# 1 0.020286 -0.009472 -0.010184 0.000000 0.000000 0.000000
# 2 -0.009472 0.040494 -0.008056 0.000000 0.000000 0.000000
# 3 -0.010184 -0.008056 0.020713 0.000000 0.000000 0.000000
# 4 0.000000 0.000000 0.000000 0.073097 0.000000 0.000000
# 5 0.000000 0.000000 0.000000 0.000000 0.285631 0.000000
# 6 0.000000 0.000000 0.000000 0.000000 0.000000 0.060399
#
#
# Mechanical properties :
#
#
# Convention : Reuss Voigt Hill
#
# Bulk Modulus (GPa) = 38.36117 53.25907 45.81012
# Shear Modulus (GPa) = 8.85373 13.30420 11.07896
#
# Velocity S-wave (km/s) = 2.46448 3.02105 2.75685
# Velocity P-wave (km/s) = 5.86635 6.97888 6.44666
#
# Compressibility (1/GPa) = 0.02606803
#
# Stress axis : x y z
#
# Youngs Moduli (GPa) = 49.29522 24.69520 48.27944
#
# Poissons Ratio (x) = 0.23392 0.49168
# Poissons Ratio (y) = 0.46694 0.38893
# Poissons Ratio (z) = 0.50203 0.19894
#
# Static dielectric constant tensor:
#      x y z
#    x 3.013820 0.000000 0.000000 
#    y 0.000000 2.719300 0.000000 
#    z 0.000000 0.000000 2.908350 
# 
# 
# High freq. dielectric constant tensor:
#      x y z
#    x 1.551020 0.000000 0.000000 
#    y 0.000000 1.520360 0.000000 
#    z 0.000000 0.000000 1.529710 
# 
# From -- ./inp_files/24659.got.cif
#   From: 2010.03.12/outbox.cif.g09.slc.cpg/sg42_13_cif.got.tgz:24659.got - 2010.04.14 02:04:31.
