data_PCOD8186862
_publ_section_title
;
Structure prediction by ZEFSAII (Michael W. Deem and Ramdas Pophale) SiO2 
 PCOD8186862
Probable space group: F M M 2
;
_chemical_formula_sum "Si O2"
_cell_formula_units_Z 112
_cell_length_a 13.723851
_cell_length_b 24.824813
_cell_length_c 13.305836
_cell_angle_alpha 90.000000
_cell_angle_beta 90.000000
_cell_angle_gamma 90.000000
_cell_volume 4533.192340
_symmetry_space_group_name_H-M "F M M 2"
_symmetry_group_IT_number 42
_symmetry_cell_setting 'orthorhombic'
loop_
_space_group_symop_operation_xyz
x,y,z
-x,-y,z
-x,y,z
x,-y,z
x,1/2+y,1/2+z
-x,1/2-y,1/2+z
-x,1/2+y,1/2+z
x,1/2-y,1/2+z
1/2+x,y,1/2+z
1/2-x,-y,1/2+z
1/2-x,y,1/2+z
1/2+x,-y,1/2+z
1/2+x,1/2+y,z
1/2-x,1/2-y,z
1/2-x,1/2+y,z
1/2+x,1/2-y,z
loop_
_atom_site_type_symbol
_atom_site_label
_atom_site_fract_x
_atom_site_fract_y
_atom_site_fract_z
Si Si1 0.203977 0.904651 0.468570
Si Si2 0.113230 0.561208 0.164866
Si Si3 0.697075 0.329874 0.194916
Si Si4 0.604319 0.561894 0.884585
Si Si5 0.698661 0.696712 0.975329
Si Si6 0.111608 0.778431 0.769962
Si Si7 0.887487 0.561066 0.776505
O O1 0.171052 0.903471 0.583757
O O2 0.313293 0.929494 0.466802
O O3 0.218034 0.843303 0.430198
O O4 0.129768 0.936711 0.397248
O O5 0.150634 0.500000 0.154939
O O6 0.134894 0.586306 0.275534
O O7 0.000000 0.564969 0.140144
O O8 0.658171 0.328051 0.079403
O O9 0.812583 0.314612 0.205111
O O10 0.636739 0.285228 0.258581
O O11 0.677653 0.392067 0.227477
O O12 0.500000 0.586590 0.920853
O O13 0.587520 0.500000 0.861560
O O14 0.750000 0.750000 0.010388
O O15 0.618800 0.706137 0.888670
O O16 0.000000 0.789627 0.735079
O O17 0.857726 0.500000 0.741185
O O18 0.000000 0.571572 0.752627
#
# Coordination Sequence:
#
# PCOD8186862 Si02
#       7
#    16  16  16  16  16  16  16
#     4  12  23  38  68  98 138 182 233 296 353 421
#     4   9  19  38  65  97 131 174 232 289 342 410
#     4  11  24  49  77 106 153 192 244 306 382 444
#     4   9  20  40  64  93 133 180 229 280 343 417
#     4  12  25  47  70 104 144 187 239 305 375 443
#     4  11  23  45  80 112 145 190 248 311 376 442
#     4  11  24  44  72 106 146 198 250 298 364 446
#
# _framework density 24.70665
#
# number of rings (size 3 to 8) (size 9 to 14) (size 15 to 20)
#    0.000    1.286    4.286    3.000    2.000    2.857 
#    0.000    3.571    0.000    2.143    0.000    0.000 
#    0.000    0.000    0.000    0.000    0.000    0.000 
#
# Total GULP energy -346986.743972 kJ/mol
# GULP energy per Si atom -12392.383713 kJ/mol
# Density = 2.465042 g / cm^3
# Si number density = 24.706650 Si / 1000 Ang^3
#
#
#
# Elastic Constant Matrix: (Units=GPa)
#
#
# Indices 1 2 3 4 5 6 
#
# 1 137.2203 46.5340 41.2635 0.0000 0.0000 0.0000
# 2 46.5340 139.8319 22.6047 0.0000 0.0000 0.0000
# 3 41.2635 22.6047 109.7979 0.0000 0.0000 0.0000
# 4 0.0000 0.0000 0.0000 75.4279 0.0000 0.0000
# 5 0.0000 0.0000 0.0000 0.0000 -67.0306 0.0000
# 6 0.0000 0.0000 0.0000 0.0000 0.0000 20.8197
#
#
#
# Elastic Compliance Matrix: (Units=1/GPa)
#
#
# Indices 1 2 3 4 5 6 
#
# 1 0.009008 -0.002535 -0.002864 0.000000 0.000000 0.000000
# 2 -0.002535 0.008111 -0.000717 0.000000 0.000000 0.000000
# 3 -0.002864 -0.000717 0.010331 0.000000 0.000000 0.000000
# 4 0.000000 0.000000 0.000000 0.013258 0.000000 0.000000
# 5 0.000000 0.000000 0.000000 0.000000 -0.014919 0.000000
# 6 0.000000 0.000000 0.000000 0.000000 0.000000 0.048032
#
#
# Mechanical properties :
#
#
# Convention : Reuss Voigt Hill
#
# Bulk Modulus (GPa) = 65.70569 67.51717 66.61143
# Shear Modulus (GPa) = 54.86918 24.27326 39.57122
#
# Velocity S-wave (km/s) = 4.71768 3.13782 4.00639
# Velocity P-wave (km/s) = 7.50516 6.36512 6.95852
#
# Compressibility (1/GPa) = 0.01521938
#
# Stress axis : x y z
#
# Youngs Moduli (GPa) = 111.00888 123.28993 96.79171
#
# Poissons Ratio (x) = 0.31253 0.27717
# Poissons Ratio (y) = 0.28140 0.06942
# Poissons Ratio (z) = 0.31788 0.08842
#
# Static dielectric constant tensor:
#      x y z
#    x 4.225080 0.000000 0.000000 
#    y 0.000000 4.613330 0.000000 
#    z 0.000000 0.000000 4.376680 
# 
# 
# High freq. dielectric constant tensor:
#      x y z
#    x 1.968920 0.000000 0.000000 
#    y 0.000000 2.001440 0.000000 
#    z 0.000000 0.000000 1.979080 
# 
# From -- ./inp_files/14383.got.cif
#   From: 2010.03.12/outbox.cif.g09.slc.cpg/sg42_8_cif.got.tgz:14383.got - 2010.04.14 02:04:31.
