data_PCOD8186322
_publ_section_title
;
Structure prediction by ZEFSAII (Michael W. Deem and Ramdas Pophale) SiO2 
 PCOD8186322
Probable space group: F M M 2
;
_chemical_formula_sum "Si O2"
_cell_formula_units_Z 96
_cell_length_a 17.114506
_cell_length_b 18.793045
_cell_length_c 14.340171
_cell_angle_alpha 90.000000
_cell_angle_beta 90.000000
_cell_angle_gamma 90.000000
_cell_volume 4612.281991
_symmetry_space_group_name_H-M "F M M 2"
_symmetry_group_IT_number 42
_symmetry_cell_setting 'orthorhombic'
loop_
_space_group_symop_operation_xyz
x,y,z
-x,-y,z
-x,y,z
x,-y,z
x,1/2+y,1/2+z
-x,1/2-y,1/2+z
-x,1/2+y,1/2+z
x,1/2-y,1/2+z
1/2+x,y,1/2+z
1/2-x,-y,1/2+z
1/2-x,y,1/2+z
1/2+x,-y,1/2+z
1/2+x,1/2+y,z
1/2-x,1/2-y,z
1/2-x,1/2+y,z
1/2+x,1/2-y,z
loop_
_atom_site_type_symbol
_atom_site_label
_atom_site_fract_x
_atom_site_fract_y
_atom_site_fract_z
Si Si1 0.689873 0.415865 0.539360
Si Si2 0.344858 0.176808 0.543648
Si Si3 0.907176 0.308167 0.938031
Si Si4 0.413473 0.079113 0.409195
Si Si5 0.697914 0.581663 0.751452
Si Si6 0.680267 0.806856 0.753600
O O1 0.704901 0.500000 0.517646
O O2 0.765744 0.366853 0.519444
O O3 0.619124 0.386163 0.475384
O O4 0.665771 0.405258 0.647331
O O5 0.352092 0.252433 0.492721
O O6 0.412513 0.126309 0.502789
O O7 0.358317 0.194303 0.651637
O O8 0.888216 0.297286 0.828725
O O9 0.000000 0.297237 0.953589
O O10 0.500000 0.077358 0.368625
O O11 0.362602 0.114146 0.326197
O O12 0.384448 0.000000 0.434799
O O13 0.710670 0.500000 0.772447
O O14 0.782016 0.615994 0.768505
O O15 0.750000 0.750000 0.760861
#
# Coordination Sequence:
#
# PCOD8186322 Si02
#       6
#    16  16  16  16  16  16
#     4  10  21  40  65  90 118 155 201 248 291 341
#     4  11  22  40  63  87 114 153 203 249 292 344
#     4  12  26  40  59  89 124 160 193 236 300 363
#     4  10  20  34  56  88 123 157 193 239 297 354
#     4   9  19  36  61  89 114 149 198 248 291 336
#     4  11  23  40  61  84 112 149 198 247 291 345
#
# _framework density 20.813991000000001
#
# number of rings (size 3 to 8) (size 9 to 14) (size 15 to 20)
#    0.000    1.500    0.000    6.500    0.000    5.000 
#    0.000    1.667    0.000    0.000    0.000    0.000 
#    0.000    0.000    0.000    0.000    0.000    0.000 
#
# Total GULP energy -297479.881915 kJ/mol
# GULP energy per Si atom -12394.995080 kJ/mol
# Density = 2.076662 g / cm^3
# Si number density = 20.813991 Si / 1000 Ang^3
#
#
#
# Elastic Constant Matrix: (Units=GPa)
#
#
# Indices 1 2 3 4 5 6 
#
# 1 85.9360 42.5506 57.1307 0.0000 0.0000 0.0000
# 2 42.5506 98.0722 55.0534 0.0000 0.0000 0.0000
# 3 57.1307 55.0534 136.6220 0.0000 0.0000 0.0000
# 4 0.0000 0.0000 0.0000 31.0570 0.0000 0.0000
# 5 0.0000 0.0000 0.0000 0.0000 22.7867 0.0000
# 6 0.0000 0.0000 0.0000 0.0000 0.0000 27.2394
#
#
#
# Elastic Compliance Matrix: (Units=1/GPa)
#
#
# Indices 1 2 3 4 5 6 
#
# 1 0.017538 -0.004513 -0.005515 0.000000 0.000000 0.000000
# 2 -0.004513 0.014339 -0.003891 0.000000 0.000000 0.000000
# 3 -0.005515 -0.003891 0.011193 0.000000 0.000000 0.000000
# 4 0.000000 0.000000 0.000000 0.032199 0.000000 0.000000
# 5 0.000000 0.000000 0.000000 0.000000 0.043885 0.000000
# 6 0.000000 0.000000 0.000000 0.000000 0.000000 0.036712
#
#
# Mechanical properties :
#
#
# Convention : Reuss Voigt Hill
#
# Bulk Modulus (GPa) = 65.65092 70.01106 67.83099
# Shear Modulus (GPa) = 26.48574 27.27630 26.88102
#
# Velocity S-wave (km/s) = 3.57108 3.62398 3.59763
# Velocity P-wave (km/s) = 6.97235 7.15685 7.06520
#
# Compressibility (1/GPa) = 0.01523208
#
# Stress axis : x y z
#
# Youngs Moduli (GPa) = 57.02018 69.74097 89.33773
#
# Poissons Ratio (x) = 0.31475 0.49270
# Poissons Ratio (y) = 0.25734 0.34759
# Poissons Ratio (z) = 0.31447 0.27134
#
# Static dielectric constant tensor:
#      x y z
#    x 3.562930 0.000000 0.000000 
#    y 0.000000 4.031630 0.000000 
#    z 0.000000 0.000000 3.930060 
# 
# 
# High freq. dielectric constant tensor:
#      x y z
#    x 1.788110 0.000000 0.000000 
#    y 0.000000 1.830520 0.000000 
#    z 0.000000 0.000000 1.823700 
# 
# From -- ./inp_files/13995.got.cif
#   From: 2010.03.12/outbox.cif.g09.slc.cpg/sg42_7_cif.got.tgz:13995.got - 2010.04.14 02:04:31.
