data_PCOD8186436
_publ_section_title
;
Structure prediction by ZEFSAII (Michael W. Deem and Ramdas Pophale) SiO2 
 PCOD8186436
Probable space group: F M M 2
;
_chemical_formula_sum "Si O2"
_cell_formula_units_Z 64
_cell_length_a 25.948616
_cell_length_b 13.122891
_cell_length_c 8.031334
_cell_angle_alpha 90.000000
_cell_angle_beta 90.000000
_cell_angle_gamma 90.000000
_cell_volume 2734.836756
_symmetry_space_group_name_H-M "F M M 2"
_symmetry_group_IT_number 42
_symmetry_cell_setting 'orthorhombic'
loop_
_space_group_symop_operation_xyz
x,y,z
-x,-y,z
-x,y,z
x,-y,z
x,1/2+y,1/2+z
-x,1/2-y,1/2+z
-x,1/2+y,1/2+z
x,1/2-y,1/2+z
1/2+x,y,1/2+z
1/2-x,-y,1/2+z
1/2-x,y,1/2+z
1/2+x,-y,1/2+z
1/2+x,1/2+y,z
1/2-x,1/2-y,z
1/2-x,1/2+y,z
1/2+x,1/2-y,z
loop_
_atom_site_type_symbol
_atom_site_label
_atom_site_fract_x
_atom_site_fract_y
_atom_site_fract_z
Si Si1 0.393144 0.619292 0.219540
Si Si2 0.192059 0.281888 0.915822
Si Si3 0.351835 0.384428 0.735394
Si Si4 0.059758 0.798978 0.550803
O O1 0.398199 0.500000 0.176761
O O2 0.333810 0.646065 0.271646
O O3 0.414707 0.685866 0.064811
O O4 0.430524 0.652186 0.371381
O O5 0.250000 0.250000 0.874664
O O6 0.160302 0.174787 0.907071
O O7 0.185280 0.335645 0.092881
O O8 0.336435 0.500000 0.762524
O O9 0.411546 0.371475 0.685532
O O10 0.000000 0.796876 0.595133
#
# Coordination Sequence:
#
# PCOD8186436 Si02
#       4
#    16  16  16  16
#     4  10  22  40  60  84 116 152 190 234 284 338
#     4  10  20  38  59  83 115 147 188 237 279 333
#     4  10  22  38  56  82 114 148 188 232 282 338
#     4  10  20  36  59  85 113 147 190 235 279 335
#
# _framework density 23.401762999999999
#
# number of rings (size 3 to 8) (size 9 to 14) (size 15 to 20)
#    0.000    2.000    0.000    4.500    0.000    5.500 
#    0.000   22.500    0.000   12.000    0.000    0.000 
#    0.000    0.000    0.000    0.000    0.000    0.000 
#
# Total GULP energy -198214.242628 kJ/mol
# GULP energy per Si atom -12388.390164 kJ/mol
# Density = 2.334850 g / cm^3
# Si number density = 23.401763 Si / 1000 Ang^3
#
#
#
# Elastic Constant Matrix: (Units=GPa)
#
#
# Indices 1 2 3 4 5 6 
#
# 1 160.8022 3.7245 22.0367 0.0000 0.0000 0.0000
# 2 3.7245 196.0335 21.2003 0.0000 0.0000 0.0000
# 3 22.0367 21.2003 26.2100 0.0000 0.0000 0.0000
# 4 0.0000 0.0000 0.0000 18.0665 0.0000 0.0000
# 5 0.0000 0.0000 0.0000 0.0000 12.0481 0.0000
# 6 0.0000 0.0000 0.0000 0.0000 0.0000 12.9514
#
#
#
# Elastic Compliance Matrix: (Units=1/GPa)
#
#
# Indices 1 2 3 4 5 6 
#
# 1 0.007084 0.000558 -0.006408 0.000000 0.000000 0.000000
# 2 0.000558 0.005634 -0.005027 0.000000 0.000000 0.000000
# 3 -0.006408 -0.005027 0.047607 0.000000 0.000000 0.000000
# 4 0.000000 0.000000 0.000000 0.055351 0.000000 0.000000
# 5 0.000000 0.000000 0.000000 0.000000 0.083000 0.000000
# 6 0.000000 0.000000 0.000000 0.000000 0.000000 0.077212
#
#
# Mechanical properties :
#
#
# Convention : Reuss Voigt Hill
#
# Bulk Modulus (GPa) = 25.92505 52.99653 39.46079
# Shear Modulus (GPa) = 16.10319 31.01883 23.56101
#
# Velocity S-wave (km/s) = 2.62605 3.64468 3.17646
# Velocity P-wave (km/s) = 4.50523 6.35666 5.50928
#
# Compressibility (1/GPa) = 0.03857273
#
# Stress axis : x y z
#
# Youngs Moduli (GPa) = 141.16289 177.48794 21.00545
#
# Poissons Ratio (x) = -0.09911 0.13460
# Poissons Ratio (y) = -0.07882 0.10559
# Poissons Ratio (z) = 0.90453 0.89219
#
# Static dielectric constant tensor:
#      x y z
#    x 4.191020 0.000000 0.000000 
#    y 0.000000 4.189960 0.000000 
#    z 0.000000 0.000000 4.202010 
# 
# 
# High freq. dielectric constant tensor:
#      x y z
#    x 1.920340 0.000000 0.000000 
#    y 0.000000 1.915620 0.000000 
#    z 0.000000 0.000000 1.931290 
# 
# From -- ./inp_files/5438.got.cif
#   From: 2010.03.12/outbox.cif.g09.slc.cpg/sg42_3_cif.got.tgz:5438.got - 2010.04.14 02:04:31.
