data_PCOD8186503
_publ_section_title
;
Structure prediction by ZEFSAII (Michael W. Deem and Ramdas Pophale) SiO2 
 PCOD8186503
Probable space group: F M M 2
;
_chemical_formula_sum "Si O2"
_cell_formula_units_Z 112
_cell_length_a 16.305375
_cell_length_b 25.759597
_cell_length_c 12.829075
_cell_angle_alpha 90.000000
_cell_angle_beta 90.000000
_cell_angle_gamma 90.000000
_cell_volume 5388.466657
_symmetry_space_group_name_H-M "F M M 2"
_symmetry_group_IT_number 42
_symmetry_cell_setting 'orthorhombic'
loop_
_space_group_symop_operation_xyz
x,y,z
-x,-y,z
-x,y,z
x,-y,z
x,1/2+y,1/2+z
-x,1/2-y,1/2+z
-x,1/2+y,1/2+z
x,1/2-y,1/2+z
1/2+x,y,1/2+z
1/2-x,-y,1/2+z
1/2-x,y,1/2+z
1/2+x,-y,1/2+z
1/2+x,1/2+y,z
1/2-x,1/2-y,z
1/2-x,1/2+y,z
1/2+x,1/2-y,z
loop_
_atom_site_type_symbol
_atom_site_label
_atom_site_fract_x
_atom_site_fract_y
_atom_site_fract_z
Si Si1 0.906156 0.343891 0.179310
Si Si2 0.593276 0.103771 0.507395
Si Si3 0.153680 0.443614 0.086395
Si Si4 0.178259 0.057584 0.195641
Si Si5 0.592388 0.295996 0.892129
Si Si6 0.739878 0.103974 0.905502
Si Si7 0.311504 0.790987 0.993413
O O1 0.896119 0.405744 0.163294
O O2 0.869722 0.327267 0.291956
O O3 0.000000 0.328549 0.171082
O O4 0.861319 0.314583 0.087257
O O5 0.500000 0.084428 0.475329
O O6 0.608701 0.087889 0.628314
O O7 0.595928 0.166271 0.493625
O O8 0.668209 0.081483 0.433819
O O9 0.109339 0.500000 0.084939
O O10 0.246515 0.450514 0.120195
O O11 0.164040 0.421005 0.970190
O O12 0.212688 0.092990 0.288257
O O13 0.146728 0.000000 0.231535
O O14 0.500000 0.281875 0.863731
O O15 0.634073 0.240605 0.910529
O O16 0.739729 0.165799 0.929279
O O17 0.250000 0.750000 0.045475
#
# Coordination Sequence:
#
# PCOD8186503 Si02
#       7
#    16  16  16  16  16  16  16
#     4  10  22  39  59  86 122 158 204 260 314 378
#     4  10  21  39  62  91 127 164 207 264 322 374
#     4   9  19  35  58  85 116 157 203 255 312 369
#     4  10  21  38  62  90 123 163 208 258 309 373
#     4  10  21  39  59  85 122 161 202 258 321 374
#     4  10  20  38  61  90 124 162 212 259 311 375
#     4  11  22  37  59  90 119 163 210 258 309 379
#
# _framework density 20.785133999999999
#
# number of rings (size 3 to 8) (size 9 to 14) (size 15 to 20)
#    0.000    2.000    1.429    1.714    0.000    2.857 
#    0.000    5.714    0.000    6.857    0.000    0.000 
#    0.000    0.000    0.000    0.000    0.000    0.000 
#
# Total GULP energy -346883.534793 kJ/mol
# GULP energy per Si atom -12388.697671 kJ/mol
# Density = 2.073783 g / cm^3
# Si number density = 20.785134 Si / 1000 Ang^3
#
#
#
# Elastic Constant Matrix: (Units=GPa)
#
#
# Indices 1 2 3 4 5 6 
#
# 1 92.0521 36.7234 44.4447 0.0000 0.0000 0.0000
# 2 36.7234 131.9399 52.7982 0.0000 0.0000 0.0000
# 3 44.4447 52.7982 98.2508 0.0000 0.0000 0.0000
# 4 0.0000 0.0000 0.0000 27.4432 0.0000 0.0000
# 5 0.0000 0.0000 0.0000 0.0000 31.0190 0.0000
# 6 0.0000 0.0000 0.0000 0.0000 0.0000 14.5569
#
#
#
# Elastic Compliance Matrix: (Units=1/GPa)
#
#
# Indices 1 2 3 4 5 6 
#
# 1 0.014214 -0.001762 -0.005483 0.000000 0.000000 0.000000
# 2 -0.001762 0.009874 -0.004509 0.000000 0.000000 0.000000
# 3 -0.005483 -0.004509 0.015081 0.000000 0.000000 0.000000
# 4 0.000000 0.000000 0.000000 0.036439 0.000000 0.000000
# 5 0.000000 0.000000 0.000000 0.000000 0.032238 0.000000
# 6 0.000000 0.000000 0.000000 0.000000 0.000000 0.068696
#
#
# Mechanical properties :
#
#
# Convention : Reuss Voigt Hill
#
# Bulk Modulus (GPa) = 63.85220 65.57502 64.71361
# Shear Modulus (GPa) = 24.35816 27.15560 25.75688
#
# Velocity S-wave (km/s) = 3.42702 3.61846 3.52404
# Velocity P-wave (km/s) = 6.81514 7.00537 6.91091
#
# Compressibility (1/GPa) = 0.01566117
#
# Stress axis : x y z
#
# Youngs Moduli (GPa) = 70.35538 101.27576 66.30749
#
# Poissons Ratio (x) = 0.17846 0.36354
# Poissons Ratio (y) = 0.12397 0.29898
# Poissons Ratio (z) = 0.38574 0.45665
#
# Static dielectric constant tensor:
#      x y z
#    x 3.797840 0.000000 0.000000 
#    y 0.000000 4.091330 0.000000 
#    z 0.000000 0.000000 3.667240 
# 
# 
# High freq. dielectric constant tensor:
#      x y z
#    x 1.809140 0.000000 0.000000 
#    y 0.000000 1.810990 0.000000 
#    z 0.000000 0.000000 1.800780 
# 
# From -- ./inp_files/14221.got.cif
#   From: 2010.03.12/outbox.cif.g09.slc.cpg/sg42_8_cif.got.tgz:14221.got - 2010.04.14 02:04:31.
