data_PCOD8186504
_publ_section_title
;
Structure prediction by ZEFSAII (Michael W. Deem and Ramdas Pophale) SiO2 
 PCOD8186504
Probable space group: F M M 2
;
_chemical_formula_sum "Si O2"
_cell_formula_units_Z 96
_cell_length_a 18.325620
_cell_length_b 22.923114
_cell_length_c 11.587738
_cell_angle_alpha 90.000000
_cell_angle_beta 90.000000
_cell_angle_gamma 90.000000
_cell_volume 4867.780182
_symmetry_space_group_name_H-M "F M M 2"
_symmetry_group_IT_number 42
_symmetry_cell_setting 'orthorhombic'
loop_
_space_group_symop_operation_xyz
x,y,z
-x,-y,z
-x,y,z
x,-y,z
x,1/2+y,1/2+z
-x,1/2-y,1/2+z
-x,1/2+y,1/2+z
x,1/2-y,1/2+z
1/2+x,y,1/2+z
1/2-x,-y,1/2+z
1/2-x,y,1/2+z
1/2+x,-y,1/2+z
1/2+x,1/2+y,z
1/2-x,1/2-y,z
1/2-x,1/2+y,z
1/2+x,1/2-y,z
loop_
_atom_site_type_symbol
_atom_site_label
_atom_site_fract_x
_atom_site_fract_y
_atom_site_fract_z
Si Si1 0.692540 0.068387 0.092860
Si Si2 0.080361 0.157777 0.019113
Si Si3 0.671330 0.653691 0.794585
Si Si4 0.586507 0.233341 0.731527
Si Si5 0.144125 0.935859 0.156127
Si Si6 0.668656 0.361173 0.364918
O O1 0.664684 0.096101 0.213884
O O2 0.780011 0.070316 0.086093
O O3 0.666242 0.000000 0.083008
O O4 0.663107 0.112446 0.993715
O O5 0.107358 0.208995 0.104616
O O6 0.079812 0.100568 0.097940
O O7 0.000000 0.171698 0.971784
O O8 0.131945 0.143379 0.914448
O O9 0.632982 0.707955 0.733300
O O10 0.754427 0.667736 0.828530
O O11 0.500000 0.244761 0.743633
O O12 0.609497 0.189627 0.836547
O O13 0.155473 0.917802 0.287700
O O14 0.113462 0.000000 0.155888
#
# Coordination Sequence:
#
# PCOD8186504 Si02
#       6
#    16  16  16  16  16  16
#     4  10  21  37  61  91 124 158 198 252 307 359
#     4  10  21  38  58  86 123 161 204 250 306 365
#     4  11  22  38  60  92 123 157 207 252 304 367
#     4  10  23  41  61  86 121 162 205 254 309 367
#     4   9  18  34  57  84 117 156 200 246 297 354
#     4  10  20  38  61  91 118 159 203 250 301 362
#
# _framework density 19.721515
#
# number of rings (size 3 to 8) (size 9 to 14) (size 15 to 20)
#    0.000    2.000    1.667    1.500    2.333    1.667 
#    0.000    0.833    0.000    5.000    0.000    0.000 
#    0.000    0.000    0.000    0.000    0.000    0.000 
#
# Total GULP energy -297384.681473 kJ/mol
# GULP energy per Si atom -12391.028395 kJ/mol
# Density = 1.967663 g / cm^3
# Si number density = 19.721515 Si / 1000 Ang^3
#
#
#
# Elastic Constant Matrix: (Units=GPa)
#
#
# Indices 1 2 3 4 5 6 
#
# 1 62.8480 36.3266 34.5635 0.0000 0.0000 0.0000
# 2 36.3266 117.7844 34.6220 0.0000 0.0000 0.0000
# 3 34.5635 34.6220 104.3104 0.0000 0.0000 0.0000
# 4 0.0000 0.0000 0.0000 23.0578 0.0000 0.0000
# 5 0.0000 0.0000 0.0000 0.0000 20.4274 0.0000
# 6 0.0000 0.0000 0.0000 0.0000 0.0000 14.7919
#
#
#
# Elastic Compliance Matrix: (Units=1/GPa)
#
#
# Indices 1 2 3 4 5 6 
#
# 1 0.021938 -0.005130 -0.005567 0.000000 0.000000 0.000000
# 2 -0.005130 0.010607 -0.001821 0.000000 0.000000 0.000000
# 3 -0.005567 -0.001821 0.012036 0.000000 0.000000 0.000000
# 4 0.000000 0.000000 0.000000 0.043369 0.000000 0.000000
# 5 0.000000 0.000000 0.000000 0.000000 0.048954 0.000000
# 6 0.000000 0.000000 0.000000 0.000000 0.000000 0.067604
#
#
# Mechanical properties :
#
#
# Convention : Reuss Voigt Hill
#
# Bulk Modulus (GPa) = 51.16033 55.10745 53.13389
# Shear Modulus (GPa) = 21.18118 23.61744 22.39931
#
# Velocity S-wave (km/s) = 3.28077 3.46431 3.37379
# Velocity P-wave (km/s) = 6.35208 6.63366 6.49440
#
# Compressibility (1/GPa) = 0.01954640
#
# Stress axis : x y z
#
# Youngs Moduli (GPa) = 45.58354 94.27331 83.08632
#
# Poissons Ratio (x) = 0.48359 0.46250
# Poissons Ratio (y) = 0.23383 0.15130
# Poissons Ratio (z) = 0.25374 0.17167
#
# Static dielectric constant tensor:
#      x y z
#    x 3.485230 0.000000 0.000000 
#    y 0.000000 3.631810 0.000000 
#    z 0.000000 0.000000 3.599030 
# 
# 
# High freq. dielectric constant tensor:
#      x y z
#    x 1.752390 0.000000 0.000000 
#    y 0.000000 1.772420 0.000000 
#    z 0.000000 0.000000 1.773940 
# 
# From -- ./inp_files/8790.got.cif
#   From: 2010.03.12/outbox.cif.g09.slc.cpg/sg42_5_cif.got.tgz:8790.got - 2010.04.14 02:04:31.
