data_PCOD8186611
_publ_section_title
;
Structure prediction by ZEFSAII (Michael W. Deem and Ramdas Pophale) SiO2 
 PCOD8186611
Probable space group: F M M 2
;
_chemical_formula_sum "Si O2"
_cell_formula_units_Z 96
_cell_length_a 8.478310
_cell_length_b 27.954938
_cell_length_c 20.155772
_cell_angle_alpha 90.000000
_cell_angle_beta 90.000000
_cell_angle_gamma 90.000000
_cell_volume 4777.132228
_symmetry_space_group_name_H-M "F M M 2"
_symmetry_group_IT_number 42
_symmetry_cell_setting 'orthorhombic'
loop_
_space_group_symop_operation_xyz
x,y,z
-x,-y,z
-x,y,z
x,-y,z
x,1/2+y,1/2+z
-x,1/2-y,1/2+z
-x,1/2+y,1/2+z
x,1/2-y,1/2+z
1/2+x,y,1/2+z
1/2-x,-y,1/2+z
1/2-x,y,1/2+z
1/2+x,-y,1/2+z
1/2+x,1/2+y,z
1/2-x,1/2-y,z
1/2-x,1/2+y,z
1/2+x,1/2-y,z
loop_
_atom_site_type_symbol
_atom_site_label
_atom_site_fract_x
_atom_site_fract_y
_atom_site_fract_z
Si Si1 0.814308 0.198408 0.200920
Si Si2 0.818248 0.610927 0.908104
Si Si3 0.683481 0.554767 0.028614
Si Si4 0.815932 0.200027 0.845058
Si Si5 0.818080 0.395716 0.153161
Si Si6 0.682173 0.944570 0.777243
O O1 0.750000 0.250000 0.179591
O O2 0.772784 0.186548 0.277066
O O3 0.735407 0.159545 0.152538
O O4 0.000000 0.196549 0.191536
O O5 0.715867 0.658990 0.899049
O O6 0.776586 0.573097 0.850856
O O7 0.000000 0.625917 0.906389
O O8 0.780610 0.587118 0.978029
O O9 0.500000 0.558765 0.011959
O O10 0.741285 0.500000 0.023728
O O11 0.714550 0.573661 0.102368
O O12 0.750000 0.250000 0.873512
O O13 0.000000 0.205125 0.829599
O O14 0.792551 0.416811 0.226253
O O15 0.000000 0.399282 0.133043
O O16 0.500000 0.934485 0.759349
O O17 0.723650 0.000000 0.773931
#
# Coordination Sequence:
#
# PCOD8186611 Si02
#       6
#    16  16  16  16  16  16
#     4  11  21  37  61  91 125 161 201 250 307 364
#     4  11  22  39  63  91 123 162 205 253 308 365
#     4  11  25  44  64  87 122 167 210 254 308 369
#     4  11  21  36  60  92 126 162 203 250 305 363
#     4  12  24  39  61  90 122 161 207 254 306 366
#     4  10  21  37  59  87 120 157 200 253 308 361
#
# _framework density 20.095738000000001
#
# number of rings (size 3 to 8) (size 9 to 14) (size 15 to 20)
#    0.000    1.000    1.667    7.500    0.000    5.000 
#    0.000    0.833    0.000    0.000    0.000    0.000 
#    0.000    0.000    0.000    0.000    0.000    0.000 
#
# Total GULP energy -297783.372914 kJ/mol
# GULP energy per Si atom -12407.640538 kJ/mol
# Density = 2.005000 g / cm^3
# Si number density = 20.095738 Si / 1000 Ang^3
#
#
#
# Elastic Constant Matrix: (Units=GPa)
#
#
# Indices 1 2 3 4 5 6 
#
# 1 82.7680 32.4708 12.1787 0.0000 0.0000 0.0000
# 2 32.4708 134.4601 25.1165 0.0000 0.0000 0.0000
# 3 12.1787 25.1165 60.0175 0.0000 0.0000 0.0000
# 4 0.0000 0.0000 0.0000 33.5431 0.0000 0.0000
# 5 0.0000 0.0000 0.0000 0.0000 28.8450 0.0000
# 6 0.0000 0.0000 0.0000 0.0000 0.0000 33.5731
#
#
#
# Elastic Compliance Matrix: (Units=1/GPa)
#
#
# Indices 1 2 3 4 5 6 
#
# 1 0.013468 -0.002974 -0.001488 0.000000 0.000000 0.000000
# 2 -0.002974 0.008725 -0.003048 0.000000 0.000000 0.000000
# 3 -0.001488 -0.003048 0.018239 0.000000 0.000000 0.000000
# 4 0.000000 0.000000 0.000000 0.029812 0.000000 0.000000
# 5 0.000000 0.000000 0.000000 0.000000 0.034668 0.000000
# 6 0.000000 0.000000 0.000000 0.000000 0.000000 0.029786
#
#
# Mechanical properties :
#
#
# Convention : Reuss Voigt Hill
#
# Bulk Modulus (GPa) = 39.35237 46.30862 42.83049
# Shear Modulus (GPa) = 31.60783 33.02420 32.31602
#
# Velocity S-wave (km/s) = 3.97024 4.05822 4.01447
# Velocity P-wave (km/s) = 6.37511 6.71214 6.54579
#
# Compressibility (1/GPa) = 0.02541143
#
# Stress axis : x y z
#
# Youngs Moduli (GPa) = 74.25114 114.61694 54.82708
#
# Poissons Ratio (x) = 0.34091 0.08159
# Poissons Ratio (y) = 0.22085 0.16709
# Poissons Ratio (z) = 0.11050 0.34931
#
# Static dielectric constant tensor:
#      x y z
#    x 3.640920 0.000000 0.000000 
#    y 0.000000 4.006450 0.000000 
#    z 0.000000 0.000000 3.351440 
# 
# 
# High freq. dielectric constant tensor:
#      x y z
#    x 1.794200 0.000000 0.000000 
#    y 0.000000 1.803450 0.000000 
#    z 0.000000 0.000000 1.761260 
# 
# From -- ./inp_files/23719.got.cif
#   From: 2010.03.12/outbox.cif.g09.slc.cpg/sg42_12_cif.got.tgz:23719.got - 2010.04.14 02:04:31.
