data_PCOD8186113
_publ_section_title
;
Structure prediction by ZEFSAII (Michael W. Deem and Ramdas Pophale) SiO2 
 PCOD8186113
Probable space group: F M M 2
;
_chemical_formula_sum "Si O2"
_cell_formula_units_Z 80
_cell_length_a 9.787515
_cell_length_b 16.688337
_cell_length_c 26.034357
_cell_angle_alpha 90.000000
_cell_angle_beta 90.000000
_cell_angle_gamma 90.000000
_cell_volume 4252.382848
_symmetry_space_group_name_H-M "F M M 2"
_symmetry_group_IT_number 42
_symmetry_cell_setting 'orthorhombic'
loop_
_space_group_symop_operation_xyz
x,y,z
-x,-y,z
-x,y,z
x,-y,z
x,1/2+y,1/2+z
-x,1/2-y,1/2+z
-x,1/2+y,1/2+z
x,1/2-y,1/2+z
1/2+x,y,1/2+z
1/2-x,-y,1/2+z
1/2-x,y,1/2+z
1/2+x,-y,1/2+z
1/2+x,1/2+y,z
1/2-x,1/2-y,z
1/2-x,1/2+y,z
1/2+x,1/2-y,z
loop_
_atom_site_type_symbol
_atom_site_label
_atom_site_fract_x
_atom_site_fract_y
_atom_site_fract_z
Si Si1 0.780062 0.843191 0.259980
Si Si2 0.000000 0.595579 0.836328
Si Si3 0.500000 0.595786 0.183765
Si Si4 0.000000 0.407428 0.290373
Si Si5 0.500000 0.595348 0.903858
Si Si6 0.500000 0.904614 0.953962
Si Si7 0.500000 0.904700 0.567567
Si Si8 0.787704 0.595385 0.486104
O O1 0.750000 0.750000 0.260038
O O2 0.633551 0.885495 0.258055
O O3 0.863943 0.868913 0.310443
O O4 0.864112 0.869174 0.209779
O O5 0.000000 0.500000 0.829587
O O6 0.000000 0.623681 0.895035
O O7 0.500000 0.500000 0.188466
O O8 0.500000 0.627634 0.125402
O O9 0.000000 0.365371 0.346941
O O10 0.000000 0.500000 0.300872
O O11 0.500000 0.500000 0.900659
O O12 0.366462 0.624742 0.934949
O O13 0.366617 0.870473 0.983408
O O14 0.500000 0.000000 0.954857
O O15 0.635183 0.873586 0.537356
O O16 0.500000 0.000000 0.568054
O O17 0.785684 0.500000 0.486630
#
# Coordination Sequence:
#
# PCOD8186113 Si02
#       8
#    16   8   8   8   8   8   8  16
#     4  11  22  35  50  73 104 137 171 212 260 309
#     4  10  19  34  54  78 108 146 177 201 242 306
#     4  10  20  38  58  75  97 134 177 219 265 316
#     4  11  19  30  50  76 100 129 169 214 248 287
#     4   8  14  23  39  64  97 128 157 193 241 293
#     4   9  15  23  43  74 107 133 159 198 246 292
#     4   8  15  28  48  69  94 126 163 207 259 304
#     4   8  13  23  39  68 102 127 153 197 250 299
#
# _framework density 18.812982999999999
#
# number of rings (size 3 to 8) (size 9 to 14) (size 15 to 20)
#    0.000    2.600    0.000    6.000    0.000    3.200 
#    0.000    1.000    0.000    3.600    0.000   21.000 
#    0.000    0.000    0.000    0.000    0.000    0.000 
#
# Total GULP energy -247896.720758 kJ/mol
# GULP energy per Si atom -12394.836038 kJ/mol
# Density = 1.877016 g / cm^3
# Si number density = 18.812983 Si / 1000 Ang^3
#
#
#
# Elastic Constant Matrix: (Units=GPa)
#
#
# Indices 1 2 3 4 5 6 
#
# 1 198.2297 25.8467 87.1632 0.0000 0.0000 0.0000
# 2 25.8467 56.8032 23.8187 0.0000 0.0000 0.0000
# 3 87.1632 23.8187 153.2650 0.0000 0.0000 0.0000
# 4 0.0000 0.0000 0.0000 3.0876 0.0000 0.0000
# 5 0.0000 0.0000 0.0000 0.0000 17.7732 0.0000
# 6 0.0000 0.0000 0.0000 0.0000 0.0000 18.9240
#
#
#
# Elastic Compliance Matrix: (Units=1/GPa)
#
#
# Indices 1 2 3 4 5 6 
#
# 1 0.006858 -0.001589 -0.003653 0.000000 0.000000 0.000000
# 2 -0.001589 0.019200 -0.002080 0.000000 0.000000 0.000000
# 3 -0.003653 -0.002080 0.008926 0.000000 0.000000 0.000000
# 4 0.000000 0.000000 0.000000 0.323881 0.000000 0.000000
# 5 0.000000 0.000000 0.000000 0.000000 0.056264 0.000000
# 6 0.000000 0.000000 0.000000 0.000000 0.000000 0.052843
#
#
# Mechanical properties :
#
#
# Convention : Reuss Voigt Hill
#
# Bulk Modulus (GPa) = 49.16694 75.77278 62.46986
# Shear Modulus (GPa) = 10.21665 26.05491 18.13578
#
# Velocity S-wave (km/s) = 2.33290 3.72552 3.10821
# Velocity P-wave (km/s) = 5.78341 7.67270 6.79405
#
# Compressibility (1/GPa) = 0.02033887
#
# Stress axis : x y z
#
# Youngs Moduli (GPa) = 145.80982 52.08377 112.03609
#
# Poissons Ratio (x) = 0.08274 0.40932
# Poissons Ratio (y) = 0.23165 0.23307
# Poissons Ratio (z) = 0.53271 0.10835
#
# Static dielectric constant tensor:
#      x y z
#    x 3.814630 0.000000 0.000000 
#    y 0.000000 2.948110 0.000000 
#    z 0.000000 0.000000 3.560000 
# 
# 
# High freq. dielectric constant tensor:
#      x y z
#    x 1.746540 0.000000 0.000000 
#    y 0.000000 1.687120 0.000000 
#    z 0.000000 0.000000 1.717010 
# 
# From -- ./inp_files/33601.got.cif
#   From: 2010.03.12/outbox.cif.g09.slc.cpg/sg42_17_cif.got.tgz:33601.got - 2010.04.14 02:04:31.
