data_PCOD8186074
_publ_section_title
;
Structure prediction by ZEFSAII (Michael W. Deem and Ramdas Pophale) SiO2 
 PCOD8186074
Probable space group: F M M 2
;
_chemical_formula_sum "Si O2"
_cell_formula_units_Z 96
_cell_length_a 9.175195
_cell_length_b 28.054354
_cell_length_c 20.577743
_cell_angle_alpha 90.000000
_cell_angle_beta 90.000000
_cell_angle_gamma 90.000000
_cell_volume 5296.796828
_symmetry_space_group_name_H-M "F M M 2"
_symmetry_group_IT_number 42
_symmetry_cell_setting 'orthorhombic'
loop_
_space_group_symop_operation_xyz
x,y,z
-x,-y,z
-x,y,z
x,-y,z
x,1/2+y,1/2+z
-x,1/2-y,1/2+z
-x,1/2+y,1/2+z
x,1/2-y,1/2+z
1/2+x,y,1/2+z
1/2-x,-y,1/2+z
1/2-x,y,1/2+z
1/2+x,-y,1/2+z
1/2+x,1/2+y,z
1/2-x,1/2-y,z
1/2-x,1/2+y,z
1/2+x,1/2-y,z
loop_
_atom_site_type_symbol
_atom_site_label
_atom_site_fract_x
_atom_site_fract_y
_atom_site_fract_z
Si Si1 0.327891 0.389035 0.152860
Si Si2 0.165863 0.555136 0.781349
Si Si3 0.330432 0.797144 0.344341
Si Si4 0.173052 0.446324 0.527108
Si Si5 0.672642 0.897198 0.396475
Si Si6 0.328520 0.297935 0.693695
O O1 0.500000 0.378637 0.149303
O O2 0.283497 0.416742 0.217759
O O3 0.273573 0.420451 0.092266
O O4 0.239646 0.339895 0.150743
O O5 0.184308 0.500000 0.764840
O O6 0.266171 0.568390 0.841466
O O7 0.000000 0.567913 0.799330
O O8 0.500000 0.787828 0.354158
O O9 0.250000 0.750000 0.370123
O O10 0.275548 0.842626 0.385737
O O11 0.292744 0.807443 0.269286
O O12 0.237505 0.500000 0.524575
O O13 0.230546 0.415941 0.465685
O O14 0.000000 0.448901 0.525901
O O15 0.500000 0.900018 0.391382
O O16 0.500000 0.293973 0.680758
O O17 0.250000 0.250000 0.670227
#
# Coordination Sequence:
#
# PCOD8186074 Si02
#       6
#    16  16  16  16  16  16
#     4  10  19  33  53  77 105 139 178 217 259 307
#     4  10  20  32  49  75 105 135 172 219 265 311
#     4   9  18  31  50  76 104 132 167 211 258 310
#     4   9  18  33  54  77 104 142 182 216 255 309
#     4  10  19  34  54  78 104 135 176 220 262 309
#     4  10  19  33  53  79 108 137 173 215 265 316
#
# _framework density 18.124161000000001
#
# number of rings (size 3 to 8) (size 9 to 14) (size 15 to 20)
#    0.000    2.333    1.667    1.500    0.000    4.333 
#    0.000    1.667    0.000    4.500    0.000    0.000 
#    0.000    0.000    0.000    0.000    0.000    0.000 
#
# Total GULP energy -297644.253017 kJ/mol
# GULP energy per Si atom -12401.843876 kJ/mol
# Density = 1.808291 g / cm^3
# Si number density = 18.124161 Si / 1000 Ang^3
#
#
#
# Elastic Constant Matrix: (Units=GPa)
#
#
# Indices 1 2 3 4 5 6 
#
# 1 39.0431 40.0199 27.0596 0.0000 0.0000 0.0000
# 2 40.0199 151.9025 59.7563 0.0000 0.0000 0.0000
# 3 27.0596 59.7563 106.0228 0.0000 0.0000 0.0000
# 4 0.0000 0.0000 0.0000 34.0951 0.0000 0.0000
# 5 0.0000 0.0000 0.0000 0.0000 17.0527 0.0000
# 6 0.0000 0.0000 0.0000 0.0000 0.0000 30.3386
#
#
#
# Elastic Compliance Matrix: (Units=1/GPa)
#
#
# Indices 1 2 3 4 5 6 
#
# 1 0.037109 -0.007775 -0.005089 0.000000 0.000000 0.000000
# 2 -0.007775 0.010087 -0.003701 0.000000 0.000000 0.000000
# 3 -0.005089 -0.003701 0.012817 0.000000 0.000000 0.000000
# 4 0.000000 0.000000 0.000000 0.029330 0.000000 0.000000
# 5 0.000000 0.000000 0.000000 0.000000 0.058642 0.000000
# 6 0.000000 0.000000 0.000000 0.000000 0.000000 0.032961
#
#
# Mechanical properties :
#
#
# Convention : Reuss Voigt Hill
#
# Bulk Modulus (GPa) = 37.19778 61.18223 49.19001
# Shear Modulus (GPa) = 22.41776 27.63945 25.02861
#
# Velocity S-wave (km/s) = 3.52077 3.90937 3.72015
# Velocity P-wave (km/s) = 6.09067 7.36262 6.75664
#
# Compressibility (1/GPa) = 0.02688333
#
# Stress axis : x y z
#
# Youngs Moduli (GPa) = 26.94753 99.13295 78.02202
#
# Poissons Ratio (x) = 0.77073 0.39707
# Poissons Ratio (y) = 0.20951 0.28877
# Poissons Ratio (z) = 0.13714 0.36691
#
# Static dielectric constant tensor:
#      x y z
#    x 3.137710 0.000000 0.000000 
#    y 0.000000 3.531940 0.000000 
#    z 0.000000 0.000000 3.314700 
# 
# 
# High freq. dielectric constant tensor:
#      x y z
#    x 1.679300 0.000000 0.000000 
#    y 0.000000 1.718830 0.000000 
#    z 0.000000 0.000000 1.686950 
# 
# From -- ./inp_files/19133.got.cif
#   From: 2010.03.12/outbox.cif.g09.slc.cpg/sg42_10_cif.got.tgz:19133.got - 2010.04.14 02:04:31.
