data_PCOD8186215
_publ_section_title
;
Structure prediction by ZEFSAII (Michael W. Deem and Ramdas Pophale) SiO2 
 PCOD8186215
Probable space group: F M M 2
;
_chemical_formula_sum "Si O2"
_cell_formula_units_Z 96
_cell_length_a 23.831600
_cell_length_b 8.618933
_cell_length_c 25.189321
_cell_angle_alpha 90.000000
_cell_angle_beta 90.000000
_cell_angle_gamma 90.000000
_cell_volume 5173.961187
_symmetry_space_group_name_H-M "F M M 2"
_symmetry_group_IT_number 42
_symmetry_cell_setting 'orthorhombic'
loop_
_space_group_symop_operation_xyz
x,y,z
-x,-y,z
-x,y,z
x,-y,z
x,1/2+y,1/2+z
-x,1/2-y,1/2+z
-x,1/2+y,1/2+z
x,1/2-y,1/2+z
1/2+x,y,1/2+z
1/2-x,-y,1/2+z
1/2-x,y,1/2+z
1/2+x,-y,1/2+z
1/2+x,1/2+y,z
1/2-x,1/2-y,z
1/2-x,1/2+y,z
1/2+x,1/2-y,z
loop_
_atom_site_type_symbol
_atom_site_label
_atom_site_fract_x
_atom_site_fract_y
_atom_site_fract_z
Si Si1 0.934810 0.818963 0.807640
Si Si2 0.500000 0.822857 0.560831
Si Si3 0.385683 0.320496 0.526923
Si Si4 0.188890 0.681334 0.616687
Si Si5 0.105122 0.681152 0.709518
Si Si6 0.063863 0.319616 0.918911
Si Si7 0.500000 0.324684 0.664864
O O1 0.888968 0.720524 0.772284
O O2 0.919487 0.782197 0.868508
O O3 0.000000 0.769262 0.797289
O O4 0.926058 0.000000 0.797560
O O5 0.553587 0.725362 0.546207
O O6 0.500000 0.819008 0.624179
O O7 0.500000 0.000000 0.539734
O O8 0.374441 0.500000 0.537555
O O9 0.339274 0.229792 0.560804
O O10 0.388825 0.282320 0.463953
O O11 0.194513 0.500000 0.614805
O O12 0.250000 0.750000 0.621524
O O13 0.155091 0.732330 0.669801
O O14 0.091556 0.500000 0.700916
O O15 0.054712 0.800557 0.699639
O O16 0.065768 0.500000 0.903638
O O17 0.000000 0.277305 0.938772
O O18 0.500000 0.500000 0.641242
#
# Coordination Sequence:
#
# PCOD8186215 Si02
#       7
#    16   8  16  16  16  16   8
#     4  10  20  32  50  81 117 153 189 224 270 330
#     4  12  22  32  49  80 117 150 184 224 278 342
#     4  11  21  36  58  83 114 150 188 233 282 336
#     4  11  25  42  60  83 110 146 191 236 288 340
#     4  11  22  36  56  81 113 149 185 230 281 337
#     4   9  18  33  52  79 115 154 189 222 272 331
#     4  12  22  32  51  80 113 148 184 224 276 338
#
# _framework density 18.554448000000001
#
# number of rings (size 3 to 8) (size 9 to 14) (size 15 to 20)
#    0.000    1.333    3.333    3.500    0.000    4.000 
#    0.000    0.000    0.000    1.000    0.000    4.667 
#    0.000    0.000    0.000    0.000    0.000    0.000 
#
# Total GULP energy -297349.355094 kJ/mol
# GULP energy per Si atom -12389.556462 kJ/mol
# Density = 1.851222 g / cm^3
# Si number density = 18.554448 Si / 1000 Ang^3
#
#
#
# Elastic Constant Matrix: (Units=GPa)
#
#
# Indices 1 2 3 4 5 6 
#
# 1 105.0781 40.0627 56.9992 0.0000 0.0000 0.0001
# 2 40.0627 61.3607 44.6015 0.0000 -0.0001 0.0000
# 3 56.9992 44.6015 120.8569 0.0000 0.0000 0.0000
# 4 0.0000 0.0000 0.0000 32.6175 0.0000 0.0000
# 5 0.0000 -0.0001 0.0000 0.0000 32.9569 0.0001
# 6 0.0001 0.0000 0.0000 0.0000 0.0001 6.5043
#
#
#
# Elastic Compliance Matrix: (Units=1/GPa)
#
#
# Indices 1 2 3 4 5 6 
#
# 1 0.014259 -0.006042 -0.004495 0.000000 0.000000 0.000000
# 2 -0.006042 0.024832 -0.006314 0.000000 0.000000 0.000000
# 3 -0.004495 -0.006314 0.012724 0.000000 0.000000 0.000000
# 4 0.000000 0.000000 0.000000 0.030658 0.000000 0.000000
# 5 0.000000 0.000000 0.000000 0.000000 0.030343 0.000000
# 6 0.000000 0.000000 0.000000 0.000000 0.000000 0.153745
#
#
# Mechanical properties :
#
#
# Convention : Reuss Voigt Hill
#
# Bulk Modulus (GPa) = 55.21239 63.40249 59.30744
# Shear Modulus (GPa) = 16.32376 24.12455 20.22415
#
# Velocity S-wave (km/s) = 2.96932 3.60974 3.30508
# Velocity P-wave (km/s) = 6.44805 7.18463 6.82628
#
# Compressibility (1/GPa) = 0.01811188
#
# Stress axis : x y z
#
# Youngs Moduli (GPa) = 70.13259 40.27075 78.58918
#
# Poissons Ratio (x) = 0.24333 0.35325
# Poissons Ratio (y) = 0.42377 0.49624
# Poissons Ratio (z) = 0.31524 0.25428
#
# Static dielectric constant tensor:
#      x y z
#    x 2.663020 0.000000 0.000000 
#    y 0.000000 3.349390 0.000000 
#    z 0.000000 0.000000 3.903620 
# 
# 
# High freq. dielectric constant tensor:
#      x y z
#    x 1.668130 0.000000 0.000000 
#    y 0.000000 1.730910 0.000000 
#    z 0.000000 0.000000 1.737830 
# 
# From -- ./inp_files/33198.got.cif
#   From: 2010.03.12/outbox.cif.g09.slc.cpg/sg42_17_cif.got.tgz:33198.got - 2010.04.14 02:04:31.
