data_PCOD8186596
_publ_section_title
;
Structure prediction by ZEFSAII (Michael W. Deem and Ramdas Pophale) SiO2 
 PCOD8186596
Probable space group: F M M 2
;
_chemical_formula_sum "Si O2"
_cell_formula_units_Z 96
_cell_length_a 8.842003
_cell_length_b 18.760334
_cell_length_c 30.506408
_cell_angle_alpha 90.000000
_cell_angle_beta 90.000000
_cell_angle_gamma 90.000000
_cell_volume 5060.370302
_symmetry_space_group_name_H-M "F M M 2"
_symmetry_group_IT_number 42
_symmetry_cell_setting 'orthorhombic'
loop_
_space_group_symop_operation_xyz
x,y,z
-x,-y,z
-x,y,z
x,-y,z
x,1/2+y,1/2+z
-x,1/2-y,1/2+z
-x,1/2+y,1/2+z
x,1/2-y,1/2+z
1/2+x,y,1/2+z
1/2-x,-y,1/2+z
1/2-x,y,1/2+z
1/2+x,-y,1/2+z
1/2+x,1/2+y,z
1/2-x,1/2-y,z
1/2-x,1/2+y,z
1/2+x,1/2-y,z
loop_
_atom_site_type_symbol
_atom_site_label
_atom_site_fract_x
_atom_site_fract_y
_atom_site_fract_z
Si Si1 0.323276 0.917340 0.709710
Si Si2 0.321324 0.827823 0.285684
Si Si3 0.321402 0.823671 0.040558
Si Si4 0.172096 0.417274 0.120089
Si Si5 0.176807 0.676505 0.942783
Si Si6 0.322980 0.582447 0.362076
O O1 0.500000 0.903853 0.716752
O O2 0.230361 0.867197 0.741809
O O3 0.277952 0.895198 0.660554
O O4 0.281341 0.000000 0.718781
O O5 0.500000 0.819360 0.285284
O O6 0.250000 0.750000 0.289001
O O7 0.272722 0.875047 0.326738
O O8 0.500000 0.816598 0.041027
O O9 0.250000 0.750000 0.055691
O O10 0.265854 0.881332 0.075792
O O11 0.265074 0.844580 0.991545
O O12 0.182327 0.500000 0.110592
O O13 0.000000 0.394029 0.130811
O O14 0.250000 0.750000 0.926202
O O15 0.218974 0.612621 0.910012
O O16 0.000000 0.690478 0.943290
O O17 0.500000 0.592177 0.351499
O O18 0.275932 0.500000 0.360779
#
# Coordination Sequence:
#
# PCOD8186596 Si02
#       6
#    16  16  16  16  16  16
#     4  10  21  38  59  82 110 143 179 221 270 323
#     4  12  25  40  59  82 109 141 179 222 269 322
#     4   9  18  32  51  76 106 141 180 222 267 315
#     4   9  18  33  53  77 106 141 181 223 266 315
#     4   9  18  33  53  77 106 142 181 221 267 317
#     4  10  21  37  57  82 112 144 179 221 269 321
#
# _framework density 18.970943999999999
#
# number of rings (size 3 to 8) (size 9 to 14) (size 15 to 20)
#    0.000    2.167    0.000    3.000    0.000    7.333 
#    0.000    5.000    0.000    0.000    0.000    7.000 
#    0.000    0.000    0.000    0.000    0.000    0.000 
#
# Total GULP energy -297625.689532 kJ/mol
# GULP energy per Si atom -12401.070397 kJ/mol
# Density = 1.892777 g / cm^3
# Si number density = 18.970944 Si / 1000 Ang^3
#
#
#
# Elastic Constant Matrix: (Units=GPa)
#
#
# Indices 1 2 3 4 5 6 
#
# 1 74.3809 57.5587 52.0770 0.0000 0.0000 0.0000
# 2 57.5587 128.0509 86.3339 0.0000 0.0000 0.0000
# 3 52.0770 86.3339 133.6540 0.0000 0.0000 0.0000
# 4 0.0000 0.0000 0.0000 40.5728 0.0000 0.0000
# 5 0.0000 0.0000 0.0000 0.0000 28.9197 0.0000
# 6 0.0000 0.0000 0.0000 0.0000 0.0000 30.3826
#
#
#
# Elastic Compliance Matrix: (Units=1/GPa)
#
#
# Indices 1 2 3 4 5 6 
#
# 1 0.021657 -0.007167 -0.003809 0.000000 0.000000 0.000000
# 2 -0.007167 0.016206 -0.007676 0.000000 0.000000 0.000000
# 3 -0.003809 -0.007676 0.013924 0.000000 0.000000 0.000000
# 4 0.000000 0.000000 0.000000 0.024647 0.000000 0.000000
# 5 0.000000 0.000000 0.000000 0.000000 0.034579 0.000000
# 6 0.000000 0.000000 0.000000 0.000000 0.000000 0.032914
#
#
# Mechanical properties :
#
#
# Convention : Reuss Voigt Hill
#
# Bulk Modulus (GPa) = 69.04094 80.89168 74.96631
# Shear Modulus (GPa) = 26.87336 29.31611 28.09474
#
# Velocity S-wave (km/s) = 3.76780 3.93532 3.85247
# Velocity P-wave (km/s) = 7.44314 7.96124 7.70655
#
# Compressibility (1/GPa) = 0.01448416
#
# Stress axis : x y z
#
# Youngs Moduli (GPa) = 46.17434 61.70578 71.81622
#
# Poissons Ratio (x) = 0.44222 0.27356
# Poissons Ratio (y) = 0.33091 0.55125
# Poissons Ratio (z) = 0.17589 0.47364
#
# Static dielectric constant tensor:
#      x y z
#    x 3.443020 0.000000 0.000000 
#    y 0.000000 3.493730 0.000000 
#    z 0.000000 0.000000 3.824290 
# 
# 
# High freq. dielectric constant tensor:
#      x y z
#    x 1.731120 0.000000 0.000000 
#    y 0.000000 1.735760 0.000000 
#    z 0.000000 0.000000 1.752150 
# 
# From -- ./inp_files/31454.got.cif
#   From: 2010.03.12/outbox.cif.g09.slc.cpg/sg42_16_cif.got.tgz:31454.got - 2010.04.14 02:04:31.
