data_PCOD8186762
_publ_section_title
;
Structure prediction by ZEFSAII (Michael W. Deem and Ramdas Pophale) SiO2 
 PCOD8186762
Probable space group: F M M 2
;
_chemical_formula_sum "Si O2"
_cell_formula_units_Z 56
_cell_length_a 15.743448
_cell_length_b 20.187365
_cell_length_c 7.632980
_cell_angle_alpha 90.000000
_cell_angle_beta 90.000000
_cell_angle_gamma 90.000000
_cell_volume 2425.904018
_symmetry_space_group_name_H-M "F M M 2"
_symmetry_group_IT_number 42
_symmetry_cell_setting 'orthorhombic'
loop_
_space_group_symop_operation_xyz
x,y,z
-x,-y,z
-x,y,z
x,-y,z
x,1/2+y,1/2+z
-x,1/2-y,1/2+z
-x,1/2+y,1/2+z
x,1/2-y,1/2+z
1/2+x,y,1/2+z
1/2-x,-y,1/2+z
1/2-x,y,1/2+z
1/2+x,-y,1/2+z
1/2+x,1/2+y,z
1/2-x,1/2-y,z
1/2-x,1/2+y,z
1/2+x,1/2-y,z
loop_
_atom_site_type_symbol
_atom_site_label
_atom_site_fract_x
_atom_site_fract_y
_atom_site_fract_z
Si Si1 0.250000 0.750000 0.484231
Si Si2 0.149811 0.573461 0.766400
Si Si3 0.094260 0.831346 0.566337
Si Si4 0.322091 0.383721 0.878673
O O1 0.164084 0.772410 0.588103
O O2 0.274577 0.812878 0.369315
O O3 0.109198 0.500000 0.780995
O O4 0.249035 0.565598 0.818067
O O5 0.139877 0.598767 0.566875
O O6 0.101686 0.625197 0.890299
O O7 0.104427 0.881222 0.732116
O O8 0.000000 0.799632 0.570657
#
# Coordination Sequence:
#
# PCOD8186762 Si02
#       4
#     8  16  16  16
#     4  10  22  44  66  98 140 174 228 282 338 414
#     4  11  23  41  68 100 134 181 233 279 332 402
#     4  11  26  44  67 101 140 180 225 284 344 402
#     4  11  22  39  69  97 131 178 231 278 342 401
#
# _framework density 23.084177
#
# number of rings (size 3 to 8) (size 9 to 14) (size 15 to 20)
#    0.000    1.143    5.714    1.714    4.000    4.000 
#    0.000    0.000    0.000    0.000    0.000    0.000 
#    0.000    0.000    0.000    0.000    0.000    0.000 
#
# Total GULP energy -173459.266764 kJ/mol
# GULP energy per Si atom -12389.947626 kJ/mol
# Density = 2.303164 g / cm^3
# Si number density = 23.084177 Si / 1000 Ang^3
#
#
#
# Elastic Constant Matrix: (Units=GPa)
#
#
# Indices 1 2 3 4 5 6 
#
# 1 158.1756 25.7905 37.4558 0.0000 0.0000 0.0000
# 2 25.7905 106.4892 16.1995 0.0000 0.0000 0.0000
# 3 37.4558 16.1995 155.3724 0.0001 -0.0001 0.0000
# 4 0.0000 0.0000 0.0001 14.5978 0.0000 0.0000
# 5 0.0000 0.0000 -0.0001 0.0000 17.1221 0.0000
# 6 0.0000 0.0000 0.0000 0.0000 0.0000 17.9106
#
#
#
# Elastic Compliance Matrix: (Units=1/GPa)
#
#
# Indices 1 2 3 4 5 6 
#
# 1 0.006917 -0.001444 -0.001517 0.000000 0.000000 0.000000
# 2 -0.001444 0.009844 -0.000678 0.000000 0.000000 0.000000
# 3 -0.001517 -0.000678 0.006873 0.000000 0.000000 0.000000
# 4 0.000000 0.000000 0.000000 0.068503 0.000000 0.000000
# 5 0.000000 0.000000 0.000000 0.000000 0.058404 0.000000
# 6 0.000000 0.000000 0.000000 0.000000 0.000000 0.055833
#
#
# Mechanical properties :
#
#
# Convention : Reuss Voigt Hill
#
# Bulk Modulus (GPa) = 61.14650 64.32543 62.73597
# Shear Modulus (GPa) = 22.82029 32.63220 27.72625
#
# Velocity S-wave (km/s) = 3.14756 3.76389 3.46944
# Velocity P-wave (km/s) = 6.30520 6.84217 6.57916
#
# Compressibility (1/GPa) = 0.01635417
#
# Stress axis : x y z
#
# Youngs Moduli (GPa) = 144.57580 101.58884 145.50714
#
# Poissons Ratio (x) = 0.14674 0.22071
# Poissons Ratio (y) = 0.20883 0.09867
# Poissons Ratio (z) = 0.21930 0.06889
#
# Static dielectric constant tensor:
#      x y z
#    x 3.854420 0.000000 0.000000 
#    y 0.000000 4.076800 0.000000 
#    z 0.000000 0.000000 4.102600 
# 
# 
# High freq. dielectric constant tensor:
#      x y z
#    x 1.880640 0.000000 0.000000 
#    y 0.000000 1.900490 0.000000 
#    z 0.000000 0.000000 1.927470 
# 
# From -- ./inp_files/2581.got.cif
#   From: 2010.03.12/outbox.cif.g09.slc.cpg/sg42_2_cif.got.tgz:2581.got - 2010.04.14 02:04:31.
