data_PCOD8186713
_publ_section_title
;
Structure prediction by ZEFSAII (Michael W. Deem and Ramdas Pophale) SiO2 
 PCOD8186713
Probable space group: F M M 2
;
_chemical_formula_sum "Si O2"
_cell_formula_units_Z 88
_cell_length_a 10.240978
_cell_length_b 13.638325
_cell_length_c 28.937683
_cell_angle_alpha 90.000000
_cell_angle_beta 90.000000
_cell_angle_gamma 90.000000
_cell_volume 4041.720000
_symmetry_space_group_name_H-M "F M M 2"
_symmetry_group_IT_number 42
_symmetry_cell_setting 'orthorhombic'
loop_
_space_group_symop_operation_xyz
x,y,z
-x,-y,z
-x,y,z
x,-y,z
x,1/2+y,1/2+z
-x,1/2-y,1/2+z
-x,1/2+y,1/2+z
x,1/2-y,1/2+z
1/2+x,y,1/2+z
1/2-x,-y,1/2+z
1/2-x,y,1/2+z
1/2+x,-y,1/2+z
1/2+x,1/2+y,z
1/2-x,1/2-y,z
1/2-x,1/2+y,z
1/2+x,1/2-y,z
loop_
_atom_site_type_symbol
_atom_site_label
_atom_site_fract_x
_atom_site_fract_y
_atom_site_fract_z
Si Si1 0.650258 0.106350 0.254180
Si Si2 0.146363 0.616568 0.153808
Si Si3 0.854732 0.116311 0.978015
Si Si4 0.147172 0.612873 0.903801
Si Si5 0.250000 0.250000 0.828116
Si Si6 0.645970 0.616649 0.081239
O O1 0.500000 0.088386 0.244397
O O2 0.704308 0.145134 0.204667
O O3 0.662586 0.182478 0.295544
O O4 0.713888 0.000000 0.267241
O O5 0.142756 0.500000 0.149696
O O6 0.246244 0.661616 0.116012
O O7 0.000000 0.658671 0.144798
O O8 0.745983 0.155668 0.942384
O O9 0.000000 0.151476 0.962202
O O10 0.850556 0.000000 0.978287
O O11 0.823080 0.155225 0.029413
O O12 0.181107 0.500000 0.891150
O O13 0.158330 0.679737 0.858389
O O14 0.000000 0.620472 0.923121
O O15 0.500000 0.650184 0.096043
O O16 0.653017 0.500000 0.081746
#
# Coordination Sequence:
#
# PCOD8186713 Si02
#       6
#    16  16  16  16   8  16
#     4   9  19  36  56  79 108 143 184 226 268 323
#     4   8  14  26  46  73 104 138 177 218 260 313
#     4   8  15  29  50  76 107 144 183 219 261 323
#     4  10  22  38  55  81 115 144 178 231 285 327
#     4  12  22  36  58  80 104 142 188 230 280 332
#     4   8  13  23  43  74 108 139 173 213 259 314
#
# _framework density 21.772908999999999
#
# number of rings (size 3 to 8) (size 9 to 14) (size 15 to 20)
#    0.000    3.091    0.000    3.273    0.000    2.182 
#    0.000    7.273    0.000    5.455    0.000    2.545 
#    0.000    0.000    0.000    0.000    0.000    1.818 
#
# Total GULP energy -272621.193306 kJ/mol
# GULP energy per Si atom -12391.872423 kJ/mol
# Density = 2.172335 g / cm^3
# Si number density = 21.772909 Si / 1000 Ang^3
#
#
#
# Elastic Constant Matrix: (Units=GPa)
#
#
# Indices 1 2 3 4 5 6 
#
# 1 136.0925 26.8991 90.1468 0.0000 0.0000 0.0000
# 2 26.8991 65.3062 44.4480 0.0000 0.0000 0.0000
# 3 90.1468 44.4480 174.0198 0.0000 0.0000 0.0000
# 4 0.0000 0.0000 0.0000 -19.2812 0.0000 0.0000
# 5 0.0000 0.0000 0.0000 0.0000 24.4585 0.0000
# 6 0.0000 0.0000 0.0000 0.0000 0.0000 2.2783
#
#
#
# Elastic Compliance Matrix: (Units=1/GPa)
#
#
# Indices 1 2 3 4 5 6 
#
# 1 0.011221 -0.000806 -0.005607 0.000000 0.000000 0.000000
# 2 -0.000806 0.018592 -0.004331 0.000000 0.000000 0.000000
# 3 -0.005607 -0.004331 0.009757 0.000000 0.000000 0.000000
# 4 0.000000 0.000000 0.000000 -0.051864 0.000000 0.000000
# 5 0.000000 0.000000 0.000000 0.000000 0.040886 0.000000
# 6 0.000000 0.000000 0.000000 0.000000 0.000000 0.438930
#
#
# Mechanical properties :
#
#
# Convention : Reuss Voigt Hill
#
# Bulk Modulus (GPa) = 55.30203 77.60071 66.45137
# Shear Modulus (GPa) = 10.10021 15.75276 12.92648
#
# Velocity S-wave (km/s) = 2.15614 2.69272 2.43923
# Velocity P-wave (km/s) = 5.62612 6.73691 6.20642
#
# Compressibility (1/GPa) = 0.01808252
#
# Stress axis : x y z
#
# Youngs Moduli (GPa) = 89.11602 53.78548 102.48559
#
# Poissons Ratio (x) = 0.04333 0.57465
# Poissons Ratio (y) = 0.07180 0.44392
# Poissons Ratio (z) = 0.49969 0.23297
#
# Static dielectric constant tensor:
#      x y z
#    x 3.948570 0.000000 0.000000 
#    y 0.000000 3.670190 0.000000 
#    z 0.000000 0.000000 4.140150 
# 
# 
# High freq. dielectric constant tensor:
#      x y z
#    x 1.838790 0.000000 0.000000 
#    y 0.000000 1.850200 0.000000 
#    z 0.000000 0.000000 1.854650 
# 
# From -- ./inp_files/28721.got.cif
#   From: 2010.03.12/outbox.cif.g09.slc.cpg/sg42_15_cif.got.tgz:28721.got - 2010.04.14 02:04:31.
