data_PCOD8186366
_publ_section_title
;
Structure prediction by ZEFSAII (Michael W. Deem and Ramdas Pophale) SiO2 
 PCOD8186366
Probable space group: F M M 2
;
_chemical_formula_sum "Si O2"
_cell_formula_units_Z 112
_cell_length_a 9.317233
_cell_length_b 30.884172
_cell_length_c 20.415241
_cell_angle_alpha 90.000000
_cell_angle_beta 90.000000
_cell_angle_gamma 90.000000
_cell_volume 5874.588216
_symmetry_space_group_name_H-M "F M M 2"
_symmetry_group_IT_number 42
_symmetry_cell_setting 'orthorhombic'
loop_
_space_group_symop_operation_xyz
x,y,z
-x,-y,z
-x,y,z
x,-y,z
x,1/2+y,1/2+z
-x,1/2-y,1/2+z
-x,1/2+y,1/2+z
x,1/2-y,1/2+z
1/2+x,y,1/2+z
1/2-x,-y,1/2+z
1/2-x,y,1/2+z
1/2+x,-y,1/2+z
1/2+x,1/2+y,z
1/2-x,1/2-y,z
1/2-x,1/2+y,z
1/2+x,1/2-y,z
loop_
_atom_site_type_symbol
_atom_site_label
_atom_site_fract_x
_atom_site_fract_y
_atom_site_fract_z
Si Si1 0.340126 0.184531 0.794450
Si Si2 0.334485 0.912822 0.838371
Si Si3 0.670892 0.382836 0.474640
Si Si4 0.338018 0.210098 0.939585
Si Si5 0.670291 0.207880 0.170833
Si Si6 0.333973 0.951111 0.225981
Si Si7 0.169957 0.615138 0.118693
O O1 0.500000 0.189977 0.763726
O O2 0.309697 0.134426 0.808542
O O3 0.331414 0.211359 0.861125
O O4 0.219836 0.202802 0.745954
O O5 0.500000 0.926832 0.835255
O O6 0.278001 0.913377 0.914323
O O7 0.244037 0.946513 0.795747
O O8 0.500000 0.379267 0.468711
O O9 0.731969 0.334298 0.466007
O O10 0.721335 0.399861 0.545944
O O11 0.500000 0.214849 0.965375
O O12 0.250000 0.250000 0.969226
O O13 0.500000 0.214775 0.168491
O O14 0.750000 0.250000 0.140097
O O15 0.718706 0.164523 0.132175
O O16 0.500000 0.940239 0.237469
O O17 0.265800 0.918389 0.171931
O O18 0.312775 0.000000 0.200301
O O19 0.000000 0.612394 0.122278
#
# Coordination Sequence:
#
# PCOD8186366 Si02
#       7
#    16  16  16  16  16  16  16
#     4   9  17  30  47  70 100 133 169 215 264 306
#     4   9  17  32  56  81 104 131 168 217 265 311
#     4   8  16  32  52  72 100 137 173 212 258 304
#     4   9  17  28  44  67  95 130 171 214 258 299
#     4  11  21  31  47  72 103 141 180 217 257 305
#     4  10  20  35  57  83 108 135 171 214 261 317
#     4   9  18  34  53  75 105 141 176 213 259 308
#
# _framework density 19.065166999999999
#
# number of rings (size 3 to 8) (size 9 to 14) (size 15 to 20)
#    0.000    2.714    1.429    2.571    0.000    2.571 
#    0.000    2.857    0.000    6.857    0.000    0.000 
#    0.000    0.000    0.000    0.000    0.000    0.000 
#
# Total GULP energy -347035.133212 kJ/mol
# GULP energy per Si atom -12394.111900 kJ/mol
# Density = 1.902177 g / cm^3
# Si number density = 19.065167 Si / 1000 Ang^3
#
#
#
# Elastic Constant Matrix: (Units=GPa)
#
#
# Indices 1 2 3 4 5 6 
#
# 1 49.9191 30.6037 26.7043 0.0000 0.0000 0.0000
# 2 30.6037 84.8250 48.8197 0.0000 0.0000 0.0000
# 3 26.7043 48.8197 128.3068 0.0000 0.0000 0.0000
# 4 0.0000 0.0000 0.0000 11.9840 0.0000 0.0000
# 5 0.0000 0.0000 0.0000 0.0000 16.9745 0.0000
# 6 0.0000 0.0000 0.0000 0.0000 0.0000 23.6626
#
#
#
# Elastic Compliance Matrix: (Units=1/GPa)
#
#
# Indices 1 2 3 4 5 6 
#
# 1 0.026279 -0.008109 -0.002384 0.000000 0.000000 0.000000
# 2 -0.008109 0.017597 -0.005008 0.000000 0.000000 0.000000
# 3 -0.002384 -0.005008 0.010195 0.000000 0.000000 0.000000
# 4 0.000000 0.000000 0.000000 0.083444 0.000000 0.000000
# 5 0.000000 0.000000 0.000000 0.000000 0.058912 0.000000
# 6 0.000000 0.000000 0.000000 0.000000 0.000000 0.042261
#
#
# Mechanical properties :
#
#
# Convention : Reuss Voigt Hill
#
# Bulk Modulus (GPa) = 43.34688 52.81182 48.07935
# Shear Modulus (GPa) = 18.02582 20.98576 19.50579
#
# Velocity S-wave (km/s) = 3.07821 3.32134 3.20208
# Velocity P-wave (km/s) = 5.95142 6.51684 6.24053
#
# Compressibility (1/GPa) = 0.02306971
#
# Stress axis : x y z
#
# Youngs Moduli (GPa) = 38.05303 56.82882 98.08358
#
# Poissons Ratio (x) = 0.46083 0.23383
# Poissons Ratio (y) = 0.30857 0.49117
# Poissons Ratio (z) = 0.09072 0.28458
#
# Static dielectric constant tensor:
#      x y z
#    x 3.158730 0.000000 0.000000 
#    y 0.000000 3.417840 0.000000 
#    z 0.000000 0.000000 3.620060 
# 
# 
# High freq. dielectric constant tensor:
#      x y z
#    x 1.702150 0.000000 0.000000 
#    y 0.000000 1.728140 0.000000 
#    z 0.000000 0.000000 1.740260 
# 
# From -- ./inp_files/24652.got.cif
#   From: 2010.03.12/outbox.cif.g09.slc.cpg/sg42_13_cif.got.tgz:24652.got - 2010.04.14 02:04:31.
