data_PCOD8186125
_publ_section_title
;
Structure prediction by ZEFSAII (Michael W. Deem and Ramdas Pophale) SiO2 
 PCOD8186125
Probable space group: F M M 2
;
_chemical_formula_sum "Si O2"
_cell_formula_units_Z 80
_cell_length_a 8.709224
_cell_length_b 28.858939
_cell_length_c 15.656508
_cell_angle_alpha 90.000000
_cell_angle_beta 90.000000
_cell_angle_gamma 90.000000
_cell_volume 3935.090503
_symmetry_space_group_name_H-M "F M M 2"
_symmetry_group_IT_number 42
_symmetry_cell_setting 'orthorhombic'
loop_
_space_group_symop_operation_xyz
x,y,z
-x,-y,z
-x,y,z
x,-y,z
x,1/2+y,1/2+z
-x,1/2-y,1/2+z
-x,1/2+y,1/2+z
x,1/2-y,1/2+z
1/2+x,y,1/2+z
1/2-x,-y,1/2+z
1/2-x,y,1/2+z
1/2+x,-y,1/2+z
1/2+x,1/2+y,z
1/2-x,1/2-y,z
1/2-x,1/2+y,z
1/2+x,1/2-y,z
loop_
_atom_site_type_symbol
_atom_site_label
_atom_site_fract_x
_atom_site_fract_y
_atom_site_fract_z
Si Si1 0.178247 0.394066 0.425080
Si Si2 0.180946 0.611469 0.098740
Si Si3 0.817343 0.052158 0.758653
Si Si4 0.181414 0.298155 0.665026
Si Si5 0.821429 0.203244 0.848655
O O1 0.272751 0.410797 0.507818
O O2 0.242957 0.421716 0.343157
O O3 0.204412 0.339165 0.412652
O O4 0.000000 0.405542 0.439275
O O5 0.242940 0.578317 0.174213
O O6 0.262803 0.661050 0.103632
O O7 0.000000 0.618145 0.105528
O O8 0.000000 0.052217 0.758278
O O9 0.751981 0.000000 0.758179
O O10 0.250000 0.250000 0.630407
O O11 0.238713 0.308647 0.760251
O O12 0.000000 0.295074 0.662982
O O13 0.750000 0.250000 0.889564
O O14 0.000000 0.211166 0.828758
#
# Coordination Sequence:
#
# PCOD8186125 Si02
#       5
#    16  16  16  16  16
#     4  10  21  38  59  86 119 155 198 243 292 351
#     4  11  22  38  60  89 121 156 199 244 294 351
#     4   9  19  39  64  85 114 157 198 243 301 356
#     4  11  21  35  58  86 119 158 199 241 290 347
#     4  10  19  34  56  84 118 156 196 239 288 348
#
# _framework density 20.329899999999999
#
# number of rings (size 3 to 8) (size 9 to 14) (size 15 to 20)
#    0.000    1.800    2.000    4.200    0.000    3.200 
#    0.000    2.000    0.000    4.200    0.000    0.000 
#    0.000    0.000    0.000    0.000    0.000    0.000 
#
# Total GULP energy -248046.811375 kJ/mol
# GULP energy per Si atom -12402.340569 kJ/mol
# Density = 2.028363 g / cm^3
# Si number density = 20.329900 Si / 1000 Ang^3
#
#
#
# Elastic Constant Matrix: (Units=GPa)
#
#
# Indices 1 2 3 4 5 6 
#
# 1 100.6468 40.5751 40.1469 0.0000 0.0000 0.0000
# 2 40.5751 131.0360 69.2024 0.0000 0.0000 0.0000
# 3 40.1469 69.2024 148.2819 0.0000 0.0000 0.0000
# 4 0.0000 0.0000 0.0000 15.0591 0.0000 0.0000
# 5 0.0000 0.0000 0.0000 0.0000 33.7225 0.0000
# 6 0.0000 0.0000 0.0000 0.0000 0.0000 18.2379
#
#
#
# Elastic Compliance Matrix: (Units=1/GPa)
#
#
# Indices 1 2 3 4 5 6 
#
# 1 0.011772 -0.002604 -0.001972 0.000000 0.000000 0.000000
# 2 -0.002604 0.010704 -0.004290 0.000000 0.000000 0.000000
# 3 -0.001972 -0.004290 0.009280 0.000000 0.000000 0.000000
# 4 0.000000 0.000000 0.000000 0.066405 0.000000 0.000000
# 5 0.000000 0.000000 0.000000 0.000000 0.029654 0.000000
# 6 0.000000 0.000000 0.000000 0.000000 0.000000 0.054831
#
#
# Mechanical properties :
#
#
# Convention : Reuss Voigt Hill
#
# Bulk Modulus (GPa) = 71.30930 75.53484 73.42207
# Shear Modulus (GPa) = 24.38402 28.73991 26.56197
#
# Velocity S-wave (km/s) = 3.46702 3.76397 3.61854
# Velocity P-wave (km/s) = 7.15396 7.49167 7.32476
#
# Compressibility (1/GPa) = 0.01402342
#
# Stress axis : x y z
#
# Youngs Moduli (GPa) = 84.94692 93.42726 107.75703
#
# Poissons Ratio (x) = 0.24326 0.21251
# Poissons Ratio (y) = 0.22117 0.46231
# Poissons Ratio (z) = 0.16753 0.40083
#
# Static dielectric constant tensor:
#      x y z
#    x 3.460920 0.000000 0.000000 
#    y 0.000000 3.797590 0.000000 
#    z 0.000000 0.000000 3.638160 
# 
# 
# High freq. dielectric constant tensor:
#      x y z
#    x 1.776770 0.000000 0.000000 
#    y 0.000000 1.793990 0.000000 
#    z 0.000000 0.000000 1.794520 
# 
# From -- ./inp_files/18209.got.cif
#   From: 2010.03.12/outbox.cif.g09.slc.cpg/sg42_10_cif.got.tgz:18209.got - 2010.04.14 02:04:31.
