data_PCOD8186218
_publ_section_title
;
Structure prediction by ZEFSAII (Michael W. Deem and Ramdas Pophale) SiO2 
 PCOD8186218
Probable space group: F M M 2
;
_chemical_formula_sum "Si O2"
_cell_formula_units_Z 104
_cell_length_a 27.744263
_cell_length_b 11.954331
_cell_length_c 17.252155
_cell_angle_alpha 90.000000
_cell_angle_beta 90.000000
_cell_angle_gamma 90.000000
_cell_volume 5721.920517
_symmetry_space_group_name_H-M "F M M 2"
_symmetry_group_IT_number 42
_symmetry_cell_setting 'orthorhombic'
loop_
_space_group_symop_operation_xyz
x,y,z
-x,-y,z
-x,y,z
x,-y,z
x,1/2+y,1/2+z
-x,1/2-y,1/2+z
-x,1/2+y,1/2+z
x,1/2-y,1/2+z
1/2+x,y,1/2+z
1/2-x,-y,1/2+z
1/2-x,y,1/2+z
1/2+x,-y,1/2+z
1/2+x,1/2+y,z
1/2-x,1/2-y,z
1/2-x,1/2+y,z
1/2+x,1/2-y,z
loop_
_atom_site_type_symbol
_atom_site_label
_atom_site_fract_x
_atom_site_fract_y
_atom_site_fract_z
Si Si1 0.943091 0.500000 0.822650
Si Si2 0.593946 0.724426 0.583848
Si Si3 0.057307 0.500000 0.999557
Si Si4 0.750000 0.750000 0.066457
Si Si5 0.444870 0.225370 0.743223
Si Si6 0.159494 0.866365 0.986989
Si Si7 0.636059 0.127474 0.316840
Si Si8 0.817870 0.624797 0.164188
O O1 0.922935 0.500000 0.911024
O O2 0.924939 0.606722 0.774170
O O3 0.000000 0.500000 0.827225
O O4 0.575458 0.612869 0.541156
O O5 0.556499 0.767220 0.649077
O O6 0.609093 0.823874 0.525222
O O7 0.643043 0.706069 0.629059
O O8 0.000000 0.500000 0.002468
O O9 0.767000 0.652324 0.125017
O O10 0.792572 0.802337 0.015255
O O11 0.500000 0.244332 0.769187
O O12 0.412566 0.317257 0.785118
O O13 0.154785 0.826850 0.898259
O O14 0.164778 0.000000 0.998299
O O15 0.680957 0.141954 0.257140
O O16 0.620723 0.000000 0.326799
O O17 0.832654 0.500000 0.141971
#
# Coordination Sequence:
#
# PCOD8186218 Si02
#       8
#     8  16   8   8  16  16  16  16
#     4   9  20  34  50  72 106 143 179 229 278 326
#     4  10  20  33  55  81 108 144 183 236 288 339
#     4  11  20  34  56  84 110 143 197 249 286 332
#     4  10  20  32  56  82 104 146 184 232 274 346
#     4  10  20  35  55  79 109 149 192 231 279 344
#     4  10  21  37  56  82 115 149 185 233 293 352
#     4   9  19  35  55  78 110 145 179 230 286 335
#     4   9  17  33  51  74 103 134 176 221 276 327
#
# _framework density 18.175715
#
# number of rings (size 3 to 8) (size 9 to 14) (size 15 to 20)
#    0.000    2.308    0.769    1.846    2.154    0.923 
#    0.000    0.769    0.000    1.846    0.000    0.000 
#    0.000    0.000    0.000    0.000    0.000    0.000 
#
# Total GULP energy -322181.206439 kJ/mol
# GULP energy per Si atom -12391.584863 kJ/mol
# Density = 1.813435 g / cm^3
# Si number density = 18.175715 Si / 1000 Ang^3
#
#
#
# Elastic Constant Matrix: (Units=GPa)
#
#
# Indices 1 2 3 4 5 6 
#
# 1 72.6787 25.2756 43.3883 0.0000 0.0000 0.0000
# 2 25.2756 75.1436 59.5990 0.0000 0.0000 0.0000
# 3 43.3883 59.5990 144.4410 0.0000 0.0000 0.0000
# 4 0.0000 0.0000 0.0000 32.6921 0.0000 0.0000
# 5 0.0000 0.0000 0.0000 0.0000 26.3212 0.0000
# 6 0.0000 0.0000 0.0000 0.0000 0.0000 25.6451
#
#
#
# Elastic Compliance Matrix: (Units=1/GPa)
#
#
# Indices 1 2 3 4 5 6 
#
# 1 0.017074 -0.002490 -0.004101 0.000000 0.000000 0.000000
# 2 -0.002490 0.020145 -0.007564 0.000000 0.000000 0.000000
# 3 -0.004101 -0.007564 0.011276 0.000000 0.000000 0.000000
# 4 0.000000 0.000000 0.000000 0.030588 0.000000 0.000000
# 5 0.000000 0.000000 0.000000 0.000000 0.037992 0.000000
# 6 0.000000 0.000000 0.000000 0.000000 0.000000 0.038994
#
#
# Mechanical properties :
#
#
# Convention : Reuss Voigt Hill
#
# Bulk Modulus (GPa) = 49.54480 60.97658 55.26069
# Shear Modulus (GPa) = 26.16322 27.86503 27.01412
#
# Velocity S-wave (km/s) = 3.79814 3.91972 3.85941
# Velocity P-wave (km/s) = 6.82293 7.35573 7.09434
#
# Compressibility (1/GPa) = 0.02018375
#
# Stress axis : x y z
#
# Youngs Moduli (GPa) = 58.57006 49.64061 88.68166
#
# Poissons Ratio (x) = 0.12361 0.36370
# Poissons Ratio (y) = 0.14585 0.67080
# Poissons Ratio (z) = 0.24021 0.37549
#
# Static dielectric constant tensor:
#      x y z
#    x 3.212690 0.000000 0.000000 
#    y 0.000000 3.413730 0.000000 
#    z 0.000000 0.000000 3.742550 
# 
# 
# High freq. dielectric constant tensor:
#      x y z
#    x 1.686440 0.000000 0.000000 
#    y 0.000000 1.707390 0.000000 
#    z 0.000000 0.000000 1.718820 
# 
# From -- ./inp_files/22586.got.cif
#   From: 2010.03.12/outbox.cif.g09.slc.cpg/sg42_12_cif.got.tgz:22586.got - 2010.04.14 02:04:31.
