data_PCOD8186124
_publ_section_title
;
Structure prediction by ZEFSAII (Michael W. Deem and Ramdas Pophale) SiO2 
 PCOD8186124
Probable space group: F M M 2
;
_chemical_formula_sum "Si O2"
_cell_formula_units_Z 96
_cell_length_a 23.736405
_cell_length_b 8.389599
_cell_length_c 25.237545
_cell_angle_alpha 90.000000
_cell_angle_beta 90.000000
_cell_angle_gamma 90.000000
_cell_volume 5025.777446
_symmetry_space_group_name_H-M "F M M 2"
_symmetry_group_IT_number 42
_symmetry_cell_setting 'orthorhombic'
loop_
_space_group_symop_operation_xyz
x,y,z
-x,-y,z
-x,y,z
x,-y,z
x,1/2+y,1/2+z
-x,1/2-y,1/2+z
-x,1/2+y,1/2+z
x,1/2-y,1/2+z
1/2+x,y,1/2+z
1/2-x,-y,1/2+z
1/2-x,y,1/2+z
1/2+x,-y,1/2+z
1/2+x,1/2+y,z
1/2-x,1/2-y,z
1/2-x,1/2+y,z
1/2+x,1/2-y,z
loop_
_atom_site_type_symbol
_atom_site_label
_atom_site_fract_x
_atom_site_fract_y
_atom_site_fract_z
Si Si1 0.311876 0.687329 0.468440
Si Si2 0.500000 0.810501 0.721961
Si Si3 0.381374 0.310684 0.183216
Si Si4 0.500000 0.310406 0.343698
Si Si5 0.688390 0.184991 0.780831
Si Si6 0.310482 0.189073 0.583540
Si Si7 0.617503 0.314431 0.875536
O O1 0.314448 0.500000 0.458055
O O2 0.250000 0.750000 0.453449
O O3 0.326819 0.725572 0.529081
O O4 0.357990 0.776544 0.433261
O O5 0.444745 0.743991 0.691585
O O6 0.500000 0.751279 0.782728
O O7 0.500000 0.000000 0.721561
O O8 0.382191 0.500000 0.188159
O O9 0.341572 0.237848 0.229310
O O10 0.357418 0.258792 0.126258
O O11 0.500000 0.500000 0.347084
O O12 0.446865 0.239976 0.374508
O O13 0.750000 0.250000 0.789984
O O14 0.651597 0.215361 0.832386
O O15 0.693758 0.000000 0.771143
O O16 0.250000 0.250000 0.604090
O O17 0.308007 0.000000 0.574923
O O18 0.623140 0.500000 0.862933
#
# Coordination Sequence:
#
# PCOD8186124 Si02
#       7
#    16   8  16   8  16  16  16
#     4  11  22  39  61  85 114 152 194 240 296 350
#     4   9  16  33  58  83 110 149 192 232 277 335
#     4   9  18  32  55  83 113 149 192 234 283 345
#     4  11  21  39  64  85 114 155 196 236 285 343
#     4  11  21  35  54  83 116 152 190 235 291 347
#     4  10  19  34  56  84 115 149 190 236 288 345
#     4  12  24  39  58  85 117 150 193 240 286 343
#
# _framework density 19.101521999999999
#
# number of rings (size 3 to 8) (size 9 to 14) (size 15 to 20)
#    0.000    1.500    1.667    6.250    0.000    0.000 
#    0.000    3.333    0.000    2.000    0.000    0.000 
#    0.000    0.000    0.000    0.000    0.000    0.000 
#
# Total GULP energy -297664.548344 kJ/mol
# GULP energy per Si atom -12402.689514 kJ/mol
# Density = 1.905805 g / cm^3
# Si number density = 19.101522 Si / 1000 Ang^3
#
#
#
# Elastic Constant Matrix: (Units=GPa)
#
#
# Indices 1 2 3 4 5 6 
#
# 1 154.7431 12.2746 69.9428 0.0000 0.0000 -0.0001
# 2 12.2746 55.1523 6.1431 0.0000 -0.0001 -0.0001
# 3 69.9428 6.1431 101.0734 0.0000 0.0000 0.0000
# 4 0.0000 0.0000 0.0000 21.5985 0.0000 0.0000
# 5 0.0000 -0.0001 0.0000 0.0000 10.9501 0.0001
# 6 -0.0001 -0.0001 0.0000 0.0000 0.0001 21.8474
#
#
#
# Elastic Compliance Matrix: (Units=1/GPa)
#
#
# Indices 1 2 3 4 5 6 
#
# 1 0.009509 -0.001393 -0.006495 0.000000 0.000000 0.000000
# 2 -0.001393 0.018459 -0.000158 0.000000 0.000000 0.000000
# 3 -0.006495 -0.000158 0.014398 0.000000 0.000000 0.000000
# 4 0.000000 0.000000 0.000000 0.046300 0.000000 0.000000
# 5 0.000000 0.000000 0.000000 0.000000 0.091323 0.000000
# 6 0.000000 0.000000 0.000000 0.000000 0.000000 0.045772
#
#
# Mechanical properties :
#
#
# Convention : Reuss Voigt Hill
#
# Bulk Modulus (GPa) = 38.06108 54.18776 46.12442
# Shear Modulus (GPa) = 19.95123 25.71975 22.83549
#
# Velocity S-wave (km/s) = 3.23535 3.67342 3.46132
# Velocity P-wave (km/s) = 5.82457 6.81336 6.33828
#
# Compressibility (1/GPa) = 0.02627356
#
# Stress axis : x y z
#
# Youngs Moduli (GPa) = 105.16741 54.17358 69.45315
#
# Poissons Ratio (x) = 0.07545 0.45112
# Poissons Ratio (y) = 0.14647 0.01098
# Poissons Ratio (z) = 0.68310 0.00857
#
# Static dielectric constant tensor:
#      x y z
#    x 3.791360 0.000000 0.000000 
#    y 0.000000 3.372550 0.000000 
#    z 0.000000 0.000000 3.529740 
# 
# 
# High freq. dielectric constant tensor:
#      x y z
#    x 1.747750 0.000000 0.000000 
#    y 0.000000 1.734110 0.000000 
#    z 0.000000 0.000000 1.743600 
# 
# From -- ./inp_files/30441.got.cif
#   From: 2010.03.12/outbox.cif.g09.slc.cpg/sg42_16_cif.got.tgz:30441.got - 2010.04.14 02:04:31.
