data_PCOD8186866
_publ_section_title
;
Structure prediction by ZEFSAII (Michael W. Deem and Ramdas Pophale) SiO2 
 PCOD8186866
Probable space group: F M M 2
;
_chemical_formula_sum "Si O2"
_cell_formula_units_Z 64
_cell_length_a 10.293111
_cell_length_b 32.211599
_cell_length_c 9.221062
_cell_angle_alpha 90.000000
_cell_angle_beta 90.000000
_cell_angle_gamma 90.000000
_cell_volume 3057.312854
_symmetry_space_group_name_H-M "F M M 2"
_symmetry_group_IT_number 42
_symmetry_cell_setting 'orthorhombic'
loop_
_space_group_symop_operation_xyz
x,y,z
-x,-y,z
-x,y,z
x,-y,z
x,1/2+y,1/2+z
-x,1/2-y,1/2+z
-x,1/2+y,1/2+z
x,1/2-y,1/2+z
1/2+x,y,1/2+z
1/2-x,-y,1/2+z
1/2-x,y,1/2+z
1/2+x,-y,1/2+z
1/2+x,1/2+y,z
1/2-x,1/2-y,z
1/2-x,1/2+y,z
1/2+x,1/2-y,z
loop_
_atom_site_type_symbol
_atom_site_label
_atom_site_fract_x
_atom_site_fract_y
_atom_site_fract_z
Si Si1 0.500000 0.793375 0.268930
Si Si2 0.744062 0.154982 0.376276
Si Si3 0.500000 0.705198 0.421148
Si Si4 0.000000 0.452316 0.677923
Si Si5 0.252404 0.903723 0.625982
Si Si6 0.000000 0.951334 0.520029
O O1 0.373813 0.817156 0.323386
O O2 0.500000 0.749116 0.343615
O O3 0.500000 0.789591 0.094946
O O4 0.875697 0.180818 0.362665
O O5 0.729302 0.139777 0.541143
O O6 0.748043 0.111249 0.291614
O O7 0.125578 0.433320 0.601181
O O8 0.000000 0.444322 0.848977
O O9 0.000000 0.500000 0.638323
O O10 0.124166 0.929154 0.588017
O O11 0.000000 0.000000 0.560750
#
# Coordination Sequence:
#
# PCOD8186866 Si02
#       6
#     8  16   8   8  16   8
#     4  12  28  46  68 101 136 176 220 275 336 397
#     4  12  25  45  72  96 137 174 224 277 327 394
#     4  12  28  47  67 102 137 174 220 275 336 397
#     4  11  24  43  67 100 137 177 222 276 336 396
#     4  12  23  45  70  99 131 180 223 274 331 393
#     4  11  24  44  66  99 142 175 216 282 336 390
#
# _framework density 20.933416000000001
#
# number of rings (size 3 to 8) (size 9 to 14) (size 15 to 20)
#    0.000    0.250    5.000    4.500    3.500    2.000 
#    0.000    1.250    0.000    0.000    0.000    0.000 
#    0.000    0.000    0.000    0.000    0.000    0.000 
#
# Total GULP energy -198465.475332 kJ/mol
# GULP energy per Si atom -12404.092208 kJ/mol
# Density = 2.088577 g / cm^3
# Si number density = 20.933416 Si / 1000 Ang^3
#
#
#
# Elastic Constant Matrix: (Units=GPa)
#
#
# Indices 1 2 3 4 5 6 
#
# 1 220.6415 95.8392 48.8441 0.0000 0.0000 0.0000
# 2 95.8392 150.2103 40.2852 0.0000 0.0000 0.0000
# 3 48.8441 40.2852 60.2358 0.0000 0.0000 0.0000
# 4 0.0000 0.0000 0.0000 28.4018 0.0000 0.0000
# 5 0.0000 0.0000 0.0000 0.0000 31.8988 0.0000
# 6 0.0000 0.0000 0.0000 0.0000 0.0000 66.1620
#
#
#
# Elastic Compliance Matrix: (Units=1/GPa)
#
#
# Indices 1 2 3 4 5 6 
#
# 1 0.006727 -0.003447 -0.003149 0.000000 0.000000 0.000000
# 2 -0.003447 0.009879 -0.003812 0.000000 0.000000 0.000000
# 3 -0.003149 -0.003812 0.021704 0.000000 0.000000 0.000000
# 4 0.000000 0.000000 0.000000 0.035209 0.000000 0.000000
# 5 0.000000 0.000000 0.000000 0.000000 0.031349 0.000000
# 6 0.000000 0.000000 0.000000 0.000000 0.000000 0.015114
#
#
# Mechanical properties :
#
#
# Convention : Reuss Voigt Hill
#
# Bulk Modulus (GPa) = 57.16289 89.00276 73.08282
# Shear Modulus (GPa) = 34.09941 41.70046 37.89993
#
# Velocity S-wave (km/s) = 4.04040 4.46808 4.25961
# Velocity P-wave (km/s) = 7.00947 8.32032 7.69287
#
# Compressibility (1/GPa) = 0.01749387
#
# Stress axis : x y z
#
# Youngs Moduli (GPa) = 148.65980 101.22360 46.07411
#
# Poissons Ratio (x) = 0.34895 0.14509
# Poissons Ratio (y) = 0.51248 0.17562
# Poissons Ratio (z) = 0.46814 0.38583
#
# Static dielectric constant tensor:
#      x y z
#    x 3.962730 0.000000 0.000000 
#    y 0.000000 4.016250 0.000000 
#    z 0.000000 0.000000 3.936850 
# 
# 
# High freq. dielectric constant tensor:
#      x y z
#    x 1.839730 0.000000 0.000000 
#    y 0.000000 1.835510 0.000000 
#    z 0.000000 0.000000 1.829360 
# 
# From -- ./inp_files/2257.got.cif
#   From: 2010.03.12/outbox.cif.g09.slc.cpg/sg42_2_cif.got.tgz:2257.got - 2010.04.14 02:04:31.
