data_PCOD8186787
_publ_section_title
;
Structure prediction by ZEFSAII (Michael W. Deem and Ramdas Pophale) SiO2 
 PCOD8186787
Probable space group: F M M 2
;
_chemical_formula_sum "Si O2"
_cell_formula_units_Z 88
_cell_length_a 27.632555
_cell_length_b 16.823453
_cell_length_c 8.035047
_cell_angle_alpha 90.000000
_cell_angle_beta 90.000000
_cell_angle_gamma 90.000000
_cell_volume 3735.292396
_symmetry_space_group_name_H-M "F M M 2"
_symmetry_group_IT_number 42
_symmetry_cell_setting 'orthorhombic'
loop_
_space_group_symop_operation_xyz
x,y,z
-x,-y,z
-x,y,z
x,-y,z
x,1/2+y,1/2+z
-x,1/2-y,1/2+z
-x,1/2+y,1/2+z
x,1/2-y,1/2+z
1/2+x,y,1/2+z
1/2-x,-y,1/2+z
1/2-x,y,1/2+z
1/2+x,-y,1/2+z
1/2+x,1/2+y,z
1/2-x,1/2-y,z
1/2-x,1/2+y,z
1/2+x,1/2-y,z
loop_
_atom_site_type_symbol
_atom_site_label
_atom_site_fract_x
_atom_site_fract_y
_atom_site_fract_z
Si Si1 0.598145 0.675192 0.028240
Si Si2 0.000000 0.591468 0.513727
Si Si3 0.750000 0.250000 0.193717
Si Si4 0.398629 0.352232 0.418927
Si Si5 0.000000 0.412455 0.908697
Si Si6 0.828476 0.500000 0.975616
Si Si7 0.764261 0.000000 0.141936
Si Si8 0.198798 0.351254 0.453067
O O1 0.547455 0.641377 0.954247
O O2 0.603638 0.652784 0.220389
O O3 0.609044 0.768216 0.006071
O O4 0.641588 0.633259 0.924991
O O5 0.000000 0.500000 0.444184
O O6 0.000000 0.588044 0.710484
O O7 0.770916 0.326121 0.291220
O O8 0.795343 0.221159 0.084489
O O9 0.452508 0.371698 0.480629
O O10 0.361054 0.420328 0.475429
O O11 0.000000 0.500000 0.980764
O O12 0.792230 0.500000 0.816172
O O13 0.795406 0.500000 0.145426
O O14 0.776574 0.072763 0.025613
#
# Coordination Sequence:
#
# PCOD8186787 Si02
#       8
#    16   8   8  16   8   8   8  16
#     4  11  23  40  69  98 129 171 219 274 328 394
#     4   9  21  38  67 100 135 170 220 270 331 394
#     4  10  24  40  60  92 124 164 212 262 330 372
#     4  11  23  43  69  99 132 169 223 273 331 398
#     4   9  17  36  69 101 126 167 211 264 325 384
#     4  12  26  47  64  98 132 177 222 276 328 398
#     4  12  26  42  64  92 130 172 222 270 320 394
#     4  11  23  40  63  88 125 166 210 267 316 386
#
# _framework density 23.559063999999999
#
# number of rings (size 3 to 8) (size 9 to 14) (size 15 to 20)
#    0.000    1.273    2.727    2.727    7.636    0.000 
#    3.273    0.000    2.000    1.091    0.000    0.000 
#    0.000    0.000    0.000    0.000    0.000    0.000 
#
# Total GULP energy -272616.840973 kJ/mol
# GULP energy per Si atom -12391.674590 kJ/mol
# Density = 2.350544 g / cm^3
# Si number density = 23.559064 Si / 1000 Ang^3
#
#
#
# Elastic Constant Matrix: (Units=GPa)
#
#
# Indices 1 2 3 4 5 6 
#
# 1 204.8034 51.1587 18.8629 0.0000 0.0000 0.0000
# 2 51.1587 125.5526 1.2650 0.0000 0.0000 0.0000
# 3 18.8629 1.2650 25.0696 0.0001 0.0000 0.0000
# 4 0.0000 0.0000 0.0001 66.2090 0.0000 0.0001
# 5 0.0000 0.0000 0.0000 0.0000 17.4248 0.0000
# 6 0.0000 0.0000 0.0000 0.0001 0.0000 59.3894
#
#
#
# Elastic Compliance Matrix: (Units=1/GPa)
#
#
# Indices 1 2 3 4 5 6 
#
# 1 0.005864 -0.002346 -0.004294 0.000000 0.000000 0.000000
# 2 -0.002346 0.008908 0.001316 0.000000 0.000000 0.000000
# 3 -0.004294 0.001316 0.043053 0.000000 0.000000 0.000000
# 4 0.000000 0.000000 0.000000 0.015104 0.000000 0.000000
# 5 0.000000 0.000000 0.000000 0.000000 0.057389 0.000000
# 6 0.000000 0.000000 0.000000 0.000000 0.000000 0.016838
#
#
# Mechanical properties :
#
#
# Convention : Reuss Voigt Hill
#
# Bulk Modulus (GPa) = 21.19697 55.33318 38.26507
# Shear Modulus (GPa) = 28.81336 47.54727 38.18032
#
# Velocity S-wave (km/s) = 3.50097 4.49733 4.03006
# Velocity P-wave (km/s) = 5.03580 7.10675 6.15895
#
# Compressibility (1/GPa) = 0.04717656
#
# Stress axis : x y z
#
# Youngs Moduli (GPa) = 170.52335 112.26431 23.22693
#
# Poissons Ratio (x) = 0.26340 0.09974
# Poissons Ratio (y) = 0.40009 -0.03056
# Poissons Ratio (z) = 0.73223 -0.14773
#
# Static dielectric constant tensor:
#      x y z
#    x 5.783220 0.000000 0.000000 
#    y 0.000000 3.974590 0.000000 
#    z 0.000000 0.000000 3.994720 
# 
# 
# High freq. dielectric constant tensor:
#      x y z
#    x 1.954880 0.000000 0.000000 
#    y 0.000000 1.948690 0.000000 
#    z 0.000000 0.000000 1.904000 
# 
# From -- ./inp_files/5565.got.cif
#   From: 2010.03.12/outbox.cif.g09.slc.cpg/sg42_3_cif.got.tgz:5565.got - 2010.04.14 02:04:31.
