data_PCOD8186881
_publ_section_title
;
Structure prediction by ZEFSAII (Michael W. Deem and Ramdas Pophale) SiO2 
 PCOD8186881
Probable space group: F M M 2
;
_chemical_formula_sum "Si O2"
_cell_formula_units_Z 80
_cell_length_a 28.458322
_cell_length_b 8.560956
_cell_length_c 15.426128
_cell_angle_alpha 90.000000
_cell_angle_beta 90.000000
_cell_angle_gamma 90.000000
_cell_volume 3758.274390
_symmetry_space_group_name_H-M "F M M 2"
_symmetry_group_IT_number 42
_symmetry_cell_setting 'orthorhombic'
loop_
_space_group_symop_operation_xyz
x,y,z
-x,-y,z
-x,y,z
x,-y,z
x,1/2+y,1/2+z
-x,1/2-y,1/2+z
-x,1/2+y,1/2+z
x,1/2-y,1/2+z
1/2+x,y,1/2+z
1/2-x,-y,1/2+z
1/2-x,y,1/2+z
1/2+x,-y,1/2+z
1/2+x,1/2+y,z
1/2-x,1/2-y,z
1/2-x,1/2+y,z
1/2+x,1/2-y,z
loop_
_atom_site_type_symbol
_atom_site_label
_atom_site_fract_x
_atom_site_fract_y
_atom_site_fract_z
Si Si1 0.355332 0.181094 0.245720
Si Si2 0.947286 0.680004 0.478795
Si Si3 0.552899 0.679815 0.181976
Si Si4 0.198554 0.182841 0.082885
Si Si5 0.644798 0.320145 0.424438
O O1 0.410811 0.211435 0.232820
O O2 0.326214 0.234640 0.163097
O O3 0.336381 0.274038 0.329512
O O4 0.346846 0.000000 0.262105
O O5 0.936774 0.500000 0.456528
O O6 0.941097 0.709790 0.580427
O O7 0.911219 0.789390 0.427183
O O8 0.000000 0.725460 0.449860
O O9 0.500000 0.722869 0.211277
O O10 0.564358 0.500000 0.203541
O O11 0.250000 0.250000 0.070068
O O12 0.200393 0.000000 0.101262
O O13 0.169632 0.213343 0.995737
O O14 0.656188 0.500000 0.443385
#
# Coordination Sequence:
#
# PCOD8186881 Si02
#       5
#    16  16  16  16  16
#     4  12  25  42  66  98 132 172 217 264 319 381
#     4   9  18  35  61  92 129 173 217 263 317 376
#     4   9  18  35  61  92 129 173 217 263 317 376
#     4  12  26  48  73  98 129 164 208 265 325 387
#     4  12  25  42  66  98 132 172 217 264 319 381
#
# _framework density 21.286366000000001
#
# number of rings (size 3 to 8) (size 9 to 14) (size 15 to 20)
#    0.000    1.200    2.000    6.600    0.000    2.400 
#    0.000    6.000    0.000    0.000    0.000    0.000 
#    0.000    0.000    0.000    0.000    0.000    0.000 
#
# Total GULP energy -248103.119783 kJ/mol
# GULP energy per Si atom -12405.155989 kJ/mol
# Density = 2.123792 g / cm^3
# Si number density = 21.286366 Si / 1000 Ang^3
#
#
#
# Elastic Constant Matrix: (Units=GPa)
#
#
# Indices 1 2 3 4 5 6 
#
# 1 98.7977 18.7386 28.5947 0.0000 0.0000 0.0000
# 2 18.7386 90.4948 6.5966 0.0000 0.0000 0.0000
# 3 28.5947 6.5966 93.5300 0.0000 0.0000 0.0000
# 4 0.0000 0.0000 0.0000 32.4629 0.0000 0.0000
# 5 0.0000 0.0000 0.0000 0.0000 1.5738 0.0000
# 6 0.0000 0.0000 0.0000 0.0000 0.0000 37.9530
#
#
#
# Elastic Compliance Matrix: (Units=1/GPa)
#
#
# Indices 1 2 3 4 5 6 
#
# 1 0.011501 -0.002136 -0.003365 0.000000 0.000000 0.000000
# 2 -0.002136 0.011504 -0.000158 0.000000 0.000000 0.000000
# 3 -0.003365 -0.000158 0.011732 0.000000 0.000000 0.000000
# 4 0.000000 0.000000 0.000000 0.030804 0.000000 0.000000
# 5 0.000000 0.000000 0.000000 0.000000 0.635386 0.000000
# 6 0.000000 0.000000 0.000000 0.000000 0.000000 0.026348
#
#
# Mechanical properties :
#
#
# Convention : Reuss Voigt Hill
#
# Bulk Modulus (GPa) = 42.70381 43.40913 43.05647
# Shear Modulus (GPa) = 6.69881 29.65748 18.17814
#
# Velocity S-wave (km/s) = 1.77590 3.73669 2.92547
# Velocity P-wave (km/s) = 4.93054 6.24935 5.62870
#
# Compressibility (1/GPa) = 0.02341711
#
# Stress axis : x y z
#
# Youngs Moduli (GPa) = 86.94972 86.92455 85.23816
#
# Poissons Ratio (x) = 0.18568 0.28687
# Poissons Ratio (y) = 0.18574 0.01349
# Poissons Ratio (z) = 0.29263 0.01376
#
# Static dielectric constant tensor:
#      x y z
#    x 3.984090 0.000000 0.000000 
#    y 0.000000 3.723710 0.000000 
#    z 0.000000 0.000000 3.789780 
# 
# 
# High freq. dielectric constant tensor:
#      x y z
#    x 1.835770 0.000000 0.000000 
#    y 0.000000 1.832630 0.000000 
#    z 0.000000 0.000000 1.838770 
# 
# From -- ./inp_files/22433.got.cif
#   From: 2010.03.12/outbox.cif.g09.slc.cpg/sg42_12_cif.got.tgz:22433.got - 2010.04.14 02:04:31.
