data_PCOD8186086
_publ_section_title
;
Structure prediction by ZEFSAII (Michael W. Deem and Ramdas Pophale) SiO2 
 PCOD8186086
Probable space group: F M M 2
;
_chemical_formula_sum "Si O2"
_cell_formula_units_Z 80
_cell_length_a 8.551837
_cell_length_b 25.833927
_cell_length_c 19.838336
_cell_angle_alpha 90.000000
_cell_angle_beta 90.000000
_cell_angle_gamma 90.000000
_cell_volume 4382.834627
_symmetry_space_group_name_H-M "F M M 2"
_symmetry_group_IT_number 42
_symmetry_cell_setting 'orthorhombic'
loop_
_space_group_symop_operation_xyz
x,y,z
-x,-y,z
-x,y,z
x,-y,z
x,1/2+y,1/2+z
-x,1/2-y,1/2+z
-x,1/2+y,1/2+z
x,1/2-y,1/2+z
1/2+x,y,1/2+z
1/2-x,-y,1/2+z
1/2-x,y,1/2+z
1/2+x,-y,1/2+z
1/2+x,1/2+y,z
1/2-x,1/2-y,z
1/2-x,1/2+y,z
1/2+x,1/2-y,z
loop_
_atom_site_type_symbol
_atom_site_label
_atom_site_fract_x
_atom_site_fract_y
_atom_site_fract_z
Si Si1 0.685148 0.194100 0.127490
Si Si2 0.176293 0.500000 0.247433
Si Si3 0.314541 0.112149 0.883879
Si Si4 0.316786 0.194883 0.483595
Si Si5 0.319400 0.112717 0.236701
Si Si6 0.821607 0.500000 0.885522
O O1 0.500000 0.196245 0.126229
O O2 0.750000 0.250000 0.148468
O O3 0.747447 0.152146 0.181165
O O4 0.743568 0.176788 0.054160
O O5 0.199025 0.446149 0.206451
O O6 0.305688 0.500000 0.305157
O O7 0.000000 0.500000 0.278864
O O8 0.500000 0.117912 0.894256
O O9 0.222321 0.154106 0.926201
O O10 0.276676 0.119987 0.805309
O O11 0.252138 0.055306 0.910424
O O12 0.500000 0.200291 0.493303
O O13 0.250000 0.250000 0.460473
O O14 0.500000 0.125087 0.252290
O O15 0.000000 0.500000 0.906333
#
# Coordination Sequence:
#
# PCOD8186086 Si02
#       6
#    16   8  16  16  16   8
#     4  10  20  35  53  73 100 133 169 207 252 304
#     4   8  14  28  49  72  99 131 165 203 249 296
#     4  10  19  33  54  79 106 135 170 210 252 299
#     4  11  22  37  55  74 100 134 172 212 258 307
#     4   9  18  32  52  77 103 132 168 209 251 297
#     4   8  16  30  49  74 103 135 167 203 249 298
#
# _framework density 18.253025999999998
#
# number of rings (size 3 to 8) (size 9 to 14) (size 15 to 20)
#    0.000    2.400    0.000    4.200    0.000    3.200 
#    0.000    3.000    0.000    3.600    0.000    0.000 
#    0.000    0.000    0.000    0.000    0.000    0.000 
#
# Total GULP energy -247814.313448 kJ/mol
# GULP energy per Si atom -12390.715672 kJ/mol
# Density = 1.821148 g / cm^3
# Si number density = 18.253026 Si / 1000 Ang^3
#
#
#
# Elastic Constant Matrix: (Units=GPa)
#
#
# Indices 1 2 3 4 5 6 
#
# 1 61.0526 28.0105 19.8057 0.0000 0.0000 0.0000
# 2 28.0105 150.5083 77.9849 0.0000 0.0000 0.0000
# 3 19.8057 77.9849 78.7192 0.0000 0.0000 0.0000
# 4 0.0000 0.0000 0.0000 4.0512 0.0000 0.0000
# 5 0.0000 0.0000 0.0000 0.0000 26.7668 0.0000
# 6 0.0000 0.0000 0.0000 0.0000 0.0000 24.0512
#
#
#
# Elastic Compliance Matrix: (Units=1/GPa)
#
#
# Indices 1 2 3 4 5 6 
#
# 1 0.018146 -0.002078 -0.002507 0.000000 0.000000 0.000000
# 2 -0.002078 0.013890 -0.013237 0.000000 0.000000 0.000000
# 3 -0.002507 -0.013237 0.026448 0.000000 0.000000 0.000000
# 4 0.000000 0.000000 0.000000 0.246839 0.000000 0.000000
# 5 0.000000 0.000000 0.000000 0.000000 0.037360 0.000000
# 6 0.000000 0.000000 0.000000 0.000000 0.000000 0.041578
#
#
# Mechanical properties :
#
#
# Convention : Reuss Voigt Hill
#
# Bulk Modulus (GPa) = 43.78439 60.20914 51.99676
# Shear Modulus (GPa) = 11.69543 21.93909 16.81726
#
# Velocity S-wave (km/s) = 2.53403 3.47067 3.03865
# Velocity P-wave (km/s) = 5.70975 7.00843 6.39216
#
# Compressibility (1/GPa) = 0.02283919
#
# Stress axis : x y z
#
# Youngs Moduli (GPa) = 55.10858 71.99561 37.81027
#
# Poissons Ratio (x) = 0.14963 0.09478
# Poissons Ratio (y) = 0.11453 0.50050
# Poissons Ratio (z) = 0.13814 0.95303
#
# Static dielectric constant tensor:
#      x y z
#    x 3.377610 0.000000 0.000000 
#    y 0.000000 3.874780 0.000000 
#    z 0.000000 0.000000 3.118830 
# 
# 
# High freq. dielectric constant tensor:
#      x y z
#    x 1.711470 0.000000 0.000000 
#    y 0.000000 1.728810 0.000000 
#    z 0.000000 0.000000 1.672360 
# 
# From -- ./inp_files/18248.got.cif
#   From: 2010.03.12/outbox.cif.g09.slc.cpg/sg42_10_cif.got.tgz:18248.got - 2010.04.14 02:04:31.
