data_PCOD8186776
_publ_section_title
;
Structure prediction by ZEFSAII (Michael W. Deem and Ramdas Pophale) SiO2 
 PCOD8186776
Probable space group: F M M 2
;
_chemical_formula_sum "Si O2"
_cell_formula_units_Z 72
_cell_length_a 14.451762
_cell_length_b 9.775180
_cell_length_c 22.978962
_cell_angle_alpha 90.000000
_cell_angle_beta 90.000000
_cell_angle_gamma 90.000000
_cell_volume 3246.205214
_symmetry_space_group_name_H-M "F M M 2"
_symmetry_group_IT_number 42
_symmetry_cell_setting 'orthorhombic'
loop_
_space_group_symop_operation_xyz
x,y,z
-x,-y,z
-x,y,z
x,-y,z
x,1/2+y,1/2+z
-x,1/2-y,1/2+z
-x,1/2+y,1/2+z
x,1/2-y,1/2+z
1/2+x,y,1/2+z
1/2-x,-y,1/2+z
1/2-x,y,1/2+z
1/2+x,-y,1/2+z
1/2+x,1/2+y,z
1/2-x,1/2-y,z
1/2-x,1/2+y,z
1/2+x,1/2-y,z
loop_
_atom_site_type_symbol
_atom_site_label
_atom_site_fract_x
_atom_site_fract_y
_atom_site_fract_z
Si Si1 0.891090 0.150568 0.008620
Si Si2 0.099879 0.649721 0.785592
Si Si3 0.161135 0.336491 0.379267
Si Si4 0.894052 0.846478 0.609900
Si Si5 0.250000 0.250000 0.700726
O O1 0.854157 0.252245 0.057946
O O2 0.000000 0.142149 0.011765
O O3 0.848095 0.000000 0.019943
O O4 0.864519 0.203644 0.944864
O O5 0.110475 0.500000 0.816212
O O6 0.090494 0.773015 0.832677
O O7 0.184772 0.656399 0.740506
O O8 0.000000 0.655258 0.752573
O O9 0.170090 0.500000 0.370912
O O10 0.250000 0.250000 0.361275
O O11 0.822085 0.838741 0.662943
O O12 0.000000 0.805099 0.627941
O O13 0.894549 0.000000 0.585850
#
# Coordination Sequence:
#
# PCOD8186776 Si02
#       5
#    16  16  16  16   8
#     4   9  20  40  64  92 127 167 209 257 320 385
#     4  11  25  44  67  96 130 171 219 271 326 385
#     4  11  23  40  65  97 132 169 211 263 325 390
#     4  10  23  42  65  95 129 169 219 268 317 376
#     4  12  24  42  66  94 128 174 216 272 322 386
#
# _framework density 22.179742999999998
#
# number of rings (size 3 to 8) (size 9 to 14) (size 15 to 20)
#    0.000    1.556    1.111    2.667    1.556    5.778 
#    0.000    4.444    0.000    0.000    0.000    0.000 
#    0.000    0.000    0.000    0.000    0.000    0.000 
#
# Total GULP energy -223015.865295 kJ/mol
# GULP energy per Si atom -12389.770294 kJ/mol
# Density = 2.212926 g / cm^3
# Si number density = 22.179743 Si / 1000 Ang^3
#
#
#
# Elastic Constant Matrix: (Units=GPa)
#
#
# Indices 1 2 3 4 5 6 
#
# 1 115.4563 46.1351 53.5572 0.0000 0.0000 0.0000
# 2 46.1351 146.8426 72.0735 0.0000 0.0000 0.0000
# 3 53.5572 72.0735 130.2539 0.0000 0.0000 0.0000
# 4 0.0000 0.0000 0.0000 -70.3085 0.0000 0.0000
# 5 0.0000 0.0000 0.0000 0.0000 35.1320 0.0000
# 6 0.0000 0.0000 0.0000 0.0000 0.0000 21.4590
#
#
#
# Elastic Compliance Matrix: (Units=1/GPa)
#
#
# Indices 1 2 3 4 5 6 
#
# 1 0.011002 -0.001697 -0.003585 0.000000 0.000000 0.000000
# 2 -0.001697 0.009611 -0.004620 0.000000 0.000000 0.000000
# 3 -0.003585 -0.004620 0.011708 0.000000 0.000000 0.000000
# 4 0.000000 0.000000 0.000000 -0.014223 0.000000 0.000000
# 5 0.000000 0.000000 0.000000 0.000000 0.028464 0.000000
# 6 0.000000 0.000000 0.000000 0.000000 0.000000 0.046601
#
#
# Mechanical properties :
#
#
# Convention : Reuss Voigt Hill
#
# Bulk Modulus (GPa) = 79.89318 81.78715 80.84017
# Shear Modulus (GPa) = 42.68424 11.97562 27.32993
#
# Velocity S-wave (km/s) = 4.39164 2.32617 3.51408
# Velocity P-wave (km/s) = 7.86221 6.64602 7.27955
#
# Compressibility (1/GPa) = 0.01251671
#
# Stress axis : x y z
#
# Youngs Moduli (GPa) = 90.88953 104.04817 85.41348
#
# Poissons Ratio (x) = 0.17660 0.30619
# Poissons Ratio (y) = 0.15426 0.39462
# Poissons Ratio (z) = 0.32582 0.48072
#
# Static dielectric constant tensor:
#      x y z
#    x 4.249360 0.000000 0.000000 
#    y 0.000000 5.073270 0.000000 
#    z 0.000000 0.000000 4.050160 
# 
# 
# High freq. dielectric constant tensor:
#      x y z
#    x 1.889210 0.000000 0.000000 
#    y 0.000000 1.874010 0.000000 
#    z 0.000000 0.000000 1.860220 
# 
# From -- ./inp_files/31054.got.cif
#   From: 2010.03.12/outbox.cif.g09.slc.cpg/sg42_16_cif.got.tgz:31054.got - 2010.04.14 02:04:31.
