data_PCOD8186721
_publ_section_title
;
Structure prediction by ZEFSAII (Michael W. Deem and Ramdas Pophale) SiO2 
 PCOD8186721
Probable space group: F M M 2
;
_chemical_formula_sum "Si O2"
_cell_formula_units_Z 72
_cell_length_a 13.682256
_cell_length_b 9.756426
_cell_length_c 23.966211
_cell_angle_alpha 90.000000
_cell_angle_beta 90.000000
_cell_angle_gamma 90.000000
_cell_volume 3199.247545
_symmetry_space_group_name_H-M "F M M 2"
_symmetry_group_IT_number 42
_symmetry_cell_setting 'orthorhombic'
loop_
_space_group_symop_operation_xyz
x,y,z
-x,-y,z
-x,y,z
x,-y,z
x,1/2+y,1/2+z
-x,1/2-y,1/2+z
-x,1/2+y,1/2+z
x,1/2-y,1/2+z
1/2+x,y,1/2+z
1/2-x,-y,1/2+z
1/2-x,y,1/2+z
1/2+x,-y,1/2+z
1/2+x,1/2+y,z
1/2-x,1/2-y,z
1/2-x,1/2+y,z
1/2+x,1/2-y,z
loop_
_atom_site_type_symbol
_atom_site_label
_atom_site_fract_x
_atom_site_fract_y
_atom_site_fract_z
Si Si1 0.611686 0.847291 0.916260
Si Si2 0.250000 0.250000 0.507857
Si Si3 0.105610 0.156124 0.097909
Si Si4 0.616162 0.655005 0.816300
Si Si5 0.116102 0.346220 0.718592
O O1 0.500000 0.814586 0.933979
O O2 0.649521 0.734955 0.872108
O O3 0.617849 0.000000 0.890031
O O4 0.680373 0.844854 0.970583
O O5 0.181813 0.339322 0.547777
O O6 0.143823 0.216576 0.157253
O O7 0.000000 0.222820 0.080971
O O8 0.086126 0.000000 0.112800
O O9 0.500000 0.650774 0.813430
O O10 0.658459 0.500000 0.817722
O O11 0.659405 0.738890 0.763711
O O12 0.158875 0.500000 0.728920
O O13 0.000000 0.352021 0.724881
#
# Coordination Sequence:
#
# PCOD8186721 Si02
#       5
#    16   8  16  16  16
#     4  10  22  39  58  83 117 155 192 234 289 346
#     4  12  22  36  58  84 112 150 198 246 280 322
#     4   9  19  36  58  84 114 150 190 231 280 339
#     4   9  17  31  55  86 115 145 186 236 287 339
#     4   8  14  29  55  83 111 146 186 228 281 345
#
# _framework density 22.505291
#
# number of rings (size 3 to 8) (size 9 to 14) (size 15 to 20)
#    0.000    2.667    0.000    3.333    0.000    4.444 
#    0.000    5.556    0.000    8.000    0.000    0.000 
#    0.000    0.000    0.000    0.000    0.000    0.000 
#
# Total GULP energy -223050.445913 kJ/mol
# GULP energy per Si atom -12391.691440 kJ/mol
# Density = 2.245407 g / cm^3
# Si number density = 22.505291 Si / 1000 Ang^3
#
#
#
# Elastic Constant Matrix: (Units=GPa)
#
#
# Indices 1 2 3 4 5 6 
#
# 1 79.5264 30.0667 56.9866 0.0000 0.0000 0.0000
# 2 30.0667 136.7693 72.5302 0.0000 0.0000 0.0000
# 3 56.9866 72.5302 181.0645 0.0000 0.0000 0.0000
# 4 0.0000 0.0000 0.0000 35.9506 0.0000 0.0000
# 5 0.0000 0.0000 0.0000 0.0000 -50.4947 0.0000
# 6 0.0000 0.0000 0.0000 0.0000 0.0000 11.2116
#
#
#
# Elastic Compliance Matrix: (Units=1/GPa)
#
#
# Indices 1 2 3 4 5 6 
#
# 1 0.016365 -0.001100 -0.004710 0.000000 0.000000 0.000000
# 2 -0.001100 0.009358 -0.003402 0.000000 0.000000 0.000000
# 3 -0.004710 -0.003402 0.008368 0.000000 0.000000 0.000000
# 4 0.000000 0.000000 0.000000 0.027816 0.000000 0.000000
# 5 0.000000 0.000000 0.000000 0.000000 -0.019804 0.000000
# 6 0.000000 0.000000 0.000000 0.000000 0.000000 0.089193
#
#
# Mechanical properties :
#
#
# Convention : Reuss Voigt Hill
#
# Bulk Modulus (GPa) = 63.82963 79.61413 71.72188
# Shear Modulus (GPa) = 32.26989 15.18529 23.72759
#
# Velocity S-wave (km/s) = 3.79077 2.60040 3.25054
# Velocity P-wave (km/s) = 6.89808 6.66848 6.78425
#
# Compressibility (1/GPa) = 0.01566671
#
# Stress axis : x y z
#
# Youngs Moduli (GPa) = 61.10441 106.86454 119.50010
#
# Poissons Ratio (x) = 0.11754 0.56286
# Poissons Ratio (y) = 0.06721 0.40657
# Poissons Ratio (z) = 0.28781 0.36358
#
# Static dielectric constant tensor:
#      x y z
#    x 3.903070 0.000000 0.000000 
#    y 0.000000 3.831630 0.000000 
#    z 0.000000 0.000000 4.102980 
# 
# 
# High freq. dielectric constant tensor:
#      x y z
#    x 1.888910 0.000000 0.000000 
#    y 0.000000 1.861770 0.000000 
#    z 0.000000 0.000000 1.889480 
# 
# From -- ./inp_files/27679.got.cif
#   From: 2010.03.12/outbox.cif.g09.slc.cpg/sg42_14_cif.got.tgz:27679.got - 2010.04.14 02:04:31.
