data_PCOD8186225
_publ_section_title
;
Structure prediction by ZEFSAII (Michael W. Deem and Ramdas Pophale) SiO2 
 PCOD8186225
Probable space group: F M M 2
;
_chemical_formula_sum "Si O2"
_cell_formula_units_Z 112
_cell_length_a 18.508449
_cell_length_b 9.486915
_cell_length_c 36.640653
_cell_angle_alpha 90.000000
_cell_angle_beta 90.000000
_cell_angle_gamma 90.000000
_cell_volume 6433.662000
_symmetry_space_group_name_H-M "F M M 2"
_symmetry_group_IT_number 42
_symmetry_cell_setting 'orthorhombic'
loop_
_space_group_symop_operation_xyz
x,y,z
-x,-y,z
-x,y,z
x,-y,z
x,1/2+y,1/2+z
-x,1/2-y,1/2+z
-x,1/2+y,1/2+z
x,1/2-y,1/2+z
1/2+x,y,1/2+z
1/2-x,-y,1/2+z
1/2-x,y,1/2+z
1/2+x,-y,1/2+z
1/2+x,1/2+y,z
1/2-x,1/2-y,z
1/2-x,1/2+y,z
1/2+x,1/2-y,z
loop_
_atom_site_type_symbol
_atom_site_label
_atom_site_fract_x
_atom_site_fract_y
_atom_site_fract_z
Si Si1 0.080837 0.667190 0.112400
Si Si2 0.416608 0.663622 0.320154
Si Si3 0.416862 0.336639 0.750942
Si Si4 0.824187 0.835184 0.545616
Si Si5 0.823374 0.835897 0.387857
Si Si6 0.179521 0.340189 0.966554
Si Si7 0.824219 0.333853 0.180496
O O1 0.075374 0.500000 0.113093
O O2 0.118409 0.720243 0.075148
O O3 0.128184 0.719585 0.146470
O O4 0.000000 0.731765 0.114663
O O5 0.500000 0.696936 0.326544
O O6 0.402218 0.500000 0.312504
O O7 0.387277 0.749053 0.285378
O O8 0.377156 0.717380 0.356600
O O9 0.500000 0.298238 0.741939
O O10 0.408977 0.500000 0.760693
O O11 0.368609 0.294747 0.716570
O O12 0.750000 0.750000 0.550044
O O13 0.860893 0.810007 0.505201
O O14 0.806827 0.000000 0.552073
O O15 0.750000 0.750000 0.384461
O O16 0.861759 0.810679 0.427988
O O17 0.805254 0.000000 0.382359
O O18 0.206221 0.500000 0.966738
O O19 0.250000 0.250000 0.966197
O O20 0.808035 0.500000 0.178016
O O21 0.750000 0.250000 0.180600
#
# Coordination Sequence:
#
# PCOD8186225 Si02
#       7
#    16  16  16  16  16  16  16
#     4   9  17  30  48  69  93 121 152 184 219 262
#     4   9  18  32  48  66  90 120 150 182 225 271
#     4   9  18  33  51  68  87 116 153 187 220 263
#     4   9  16  27  46  69  91 117 150 187 224 262
#     4   9  17  29  45  65  90 119 151 186 223 265
#     4   8  14  25  41  63  89 116 147 182 221 263
#     4  10  20  33  50  71  94 119 148 184 224 265
#
# _framework density 17.408436999999999
#
# number of rings (size 3 to 8) (size 9 to 14) (size 15 to 20)
#    0.000    3.000    0.000    0.857    0.000    3.429 
#    0.000    3.571    0.000    6.857    0.000    0.000 
#    0.000   11.429    0.000    0.000    0.000    0.000 
#
# Total GULP energy -346937.458849 kJ/mol
# GULP energy per Si atom -12390.623530 kJ/mol
# Density = 1.736881 g / cm^3
# Si number density = 17.408437 Si / 1000 Ang^3
#
#
#
# Elastic Constant Matrix: (Units=GPa)
#
#
# Indices 1 2 3 4 5 6 
#
# 1 97.8577 32.4788 86.9483 0.0000 0.0000 0.0000
# 2 32.4788 32.9440 47.2109 0.0000 0.0000 0.0000
# 3 86.9483 47.2109 205.0366 0.0000 0.0000 0.0000
# 4 0.0000 0.0000 0.0000 25.3569 0.0000 0.0000
# 5 0.0000 0.0000 0.0000 0.0000 23.2979 0.0000
# 6 0.0000 0.0000 0.0000 0.0000 0.0000 22.1762
#
#
#
# Elastic Compliance Matrix: (Units=1/GPa)
#
#
# Indices 1 2 3 4 5 6 
#
# 1 0.018534 -0.010461 -0.005451 0.000000 0.000000 0.000000
# 2 -0.010461 0.051208 -0.007355 0.000000 0.000000 0.000000
# 3 -0.005451 -0.007355 0.008882 0.000000 0.000000 0.000000
# 4 0.000000 0.000000 0.000000 0.039437 0.000000 0.000000
# 5 0.000000 0.000000 0.000000 0.000000 0.042922 0.000000
# 6 0.000000 0.000000 0.000000 0.000000 0.000000 0.045093
#
#
# Mechanical properties :
#
#
# Convention : Reuss Voigt Hill
#
# Bulk Modulus (GPa) = 31.16166 74.34603 52.75385
# Shear Modulus (GPa) = 18.98925 25.44622 22.21774
#
# Velocity S-wave (km/s) = 3.30632 3.82739 3.57636
# Velocity P-wave (km/s) = 5.70218 7.89503 6.88645
#
# Compressibility (1/GPa) = 0.03209072
#
# Stress axis : x y z
#
# Youngs Moduli (GPa) = 53.95448 19.52834 112.58461
#
# Poissons Ratio (x) = 0.20428 0.61369
# Poissons Ratio (y) = 0.56441 0.82804
# Poissons Ratio (z) = 0.29410 0.14363
#
# Static dielectric constant tensor:
#      x y z
#    x 0.413870 0.000000 0.000000 
#    y 0.000000 3.054640 0.000000 
#    z 0.000000 0.000000 3.911880 
# 
# 
# High freq. dielectric constant tensor:
#      x y z
#    x 1.643620 0.000000 0.000000 
#    y 0.000000 1.653690 0.000000 
#    z 0.000000 0.000000 1.700280 
# 
# From -- ./inp_files/34312.got.cif
#   From: 2010.03.12/outbox.cif.g09.slc.cpg/sg42_18_cif.got.tgz:34312.got - 2010.04.14 02:04:31.
