data_PCOD8186570
_publ_section_title
;
Structure prediction by ZEFSAII (Michael W. Deem and Ramdas Pophale) SiO2 
 PCOD8186570
Probable space group: F M M 2
;
_chemical_formula_sum "Si O2"
_cell_formula_units_Z 80
_cell_length_a 18.491427
_cell_length_b 9.020394
_cell_length_c 25.434247
_cell_angle_alpha 90.000000
_cell_angle_beta 90.000000
_cell_angle_gamma 90.000000
_cell_volume 4242.431310
_symmetry_space_group_name_H-M "F M M 2"
_symmetry_group_IT_number 42
_symmetry_cell_setting 'orthorhombic'
loop_
_space_group_symop_operation_xyz
x,y,z
-x,-y,z
-x,y,z
x,-y,z
x,1/2+y,1/2+z
-x,1/2-y,1/2+z
-x,1/2+y,1/2+z
x,1/2-y,1/2+z
1/2+x,y,1/2+z
1/2-x,-y,1/2+z
1/2-x,y,1/2+z
1/2+x,-y,1/2+z
1/2+x,1/2+y,z
1/2-x,1/2-y,z
1/2-x,1/2+y,z
1/2+x,1/2-y,z
loop_
_atom_site_type_symbol
_atom_site_label
_atom_site_fract_x
_atom_site_fract_y
_atom_site_fract_z
Si Si1 0.172226 0.675925 0.493560
Si Si2 0.419504 0.675902 0.092729
Si Si3 0.177209 0.328184 0.805714
Si Si4 0.324078 0.174823 0.687801
Si Si5 0.583813 0.327879 0.403583
O O1 0.181643 0.500000 0.493056
O O2 0.250000 0.750000 0.491981
O O3 0.130343 0.733489 0.545237
O O4 0.126422 0.724159 0.443347
O O5 0.500000 0.743921 0.087155
O O6 0.423842 0.500000 0.090630
O O7 0.386599 0.729425 0.148301
O O8 0.195793 0.500000 0.805038
O O9 0.250000 0.250000 0.825663
O O10 0.154843 0.275388 0.747028
O O11 0.111649 0.291894 0.844856
O O12 0.250000 0.250000 0.669694
O O13 0.313244 0.000000 0.683462
O O14 0.500000 0.285758 0.405817
O O15 0.596973 0.500000 0.417737
#
# Coordination Sequence:
#
# PCOD8186570 Si02
#       5
#    16  16  16  16  16
#     4  11  22  36  55  77 102 134 173 213 254 304
#     4   9  18  32  51  76 103 130 164 207 253 302
#     4   9  18  32  51  75 101 132 169 208 250 297
#     4   9  17  31  52  75 100 131 167 207 249 295
#     4  10  21  36  53  76 106 136 169 211 257 305
#
# _framework density 18.857111
#
# number of rings (size 3 to 8) (size 9 to 14) (size 15 to 20)
#    0.000    2.400    0.000    2.400    0.000    4.400 
#    0.000    5.000    0.000    3.000    0.000    5.600 
#    0.000    0.000    0.000    0.000    0.000    0.000 
#
# Total GULP energy -248010.127776 kJ/mol
# GULP energy per Si atom -12400.506389 kJ/mol
# Density = 1.881419 g / cm^3
# Si number density = 18.857111 Si / 1000 Ang^3
#
#
#
# Elastic Constant Matrix: (Units=GPa)
#
#
# Indices 1 2 3 4 5 6 
#
# 1 166.6409 41.4048 83.4780 0.0000 0.0000 0.0000
# 2 41.4048 39.4560 34.3780 0.0000 0.0000 -0.0001
# 3 83.4780 34.3780 125.4268 0.0000 0.0000 0.0000
# 4 0.0000 0.0000 0.0000 22.3010 0.0000 0.0000
# 5 0.0000 0.0000 0.0000 0.0000 33.6071 0.0000
# 6 0.0000 -0.0001 0.0000 0.0000 0.0000 20.7741
#
#
#
# Elastic Compliance Matrix: (Units=1/GPa)
#
#
# Indices 1 2 3 4 5 6 
#
# 1 0.010034 -0.006189 -0.004982 0.000000 0.000000 0.000000
# 2 -0.006189 0.037114 -0.006053 0.000000 0.000000 0.000000
# 3 -0.004982 -0.006053 0.012948 0.000000 0.000000 0.000000
# 4 0.000000 0.000000 0.000000 0.044841 0.000000 0.000000
# 5 0.000000 0.000000 0.000000 0.000000 0.029756 0.000000
# 6 0.000000 0.000000 0.000000 0.000000 0.000000 0.048137
#
#
# Mechanical properties :
#
#
# Convention : Reuss Voigt Hill
#
# Bulk Modulus (GPa) = 38.99097 72.22727 55.60912
# Shear Modulus (GPa) = 22.14079 26.82063 24.48071
#
# Velocity S-wave (km/s) = 3.43028 3.77544 3.60699
# Velocity P-wave (km/s) = 6.03416 7.57567 6.84843
#
# Compressibility (1/GPa) = 0.02564697
#
# Stress axis : x y z
#
# Youngs Moduli (GPa) = 99.65620 26.94418 77.23365
#
# Poissons Ratio (x) = 0.16676 0.38478
# Poissons Ratio (y) = 0.61679 0.46751
# Poissons Ratio (z) = 0.49650 0.16310
#
# Static dielectric constant tensor:
#      x y z
#    x 3.640630 0.000000 0.000000 
#    y 0.000000 3.229480 0.000000 
#    z 0.000000 0.000000 3.759620 
# 
# 
# High freq. dielectric constant tensor:
#      x y z
#    x 1.736080 0.000000 0.000000 
#    y 0.000000 1.707560 0.000000 
#    z 0.000000 0.000000 1.748060 
# 
# From -- ./inp_files/28622.got.cif
#   From: 2010.03.12/outbox.cif.g09.slc.cpg/sg42_15_cif.got.tgz:28622.got - 2010.04.14 02:04:31.
