data_PCOD8186166
_publ_section_title
;
Structure prediction by ZEFSAII (Michael W. Deem and Ramdas Pophale) SiO2 
 PCOD8186166
Probable space group: F M M 2
;
_chemical_formula_sum "Si O2"
_cell_formula_units_Z 96
_cell_length_a 27.476257
_cell_length_b 18.026498
_cell_length_c 9.247159
_cell_angle_alpha 90.000000
_cell_angle_beta 90.000000
_cell_angle_gamma 90.000000
_cell_volume 4580.124250
_symmetry_space_group_name_H-M "F M M 2"
_symmetry_group_IT_number 42
_symmetry_cell_setting 'orthorhombic'
loop_
_space_group_symop_operation_xyz
x,y,z
-x,-y,z
-x,y,z
x,-y,z
x,1/2+y,1/2+z
-x,1/2-y,1/2+z
-x,1/2+y,1/2+z
x,1/2-y,1/2+z
1/2+x,y,1/2+z
1/2-x,-y,1/2+z
1/2-x,y,1/2+z
1/2+x,-y,1/2+z
1/2+x,1/2+y,z
1/2-x,1/2-y,z
1/2-x,1/2+y,z
1/2+x,1/2-y,z
loop_
_atom_site_type_symbol
_atom_site_label
_atom_site_fract_x
_atom_site_fract_y
_atom_site_fract_z
Si Si1 0.941935 0.305030 0.406440
Si Si2 0.448300 0.585841 0.457273
Si Si3 0.884900 0.412454 0.217323
Si Si4 0.691805 0.411129 0.262746
Si Si5 0.712934 0.587226 0.590070
Si Si6 0.593564 0.169779 0.721638
O O1 0.915061 0.378491 0.348962
O O2 0.914158 0.235474 0.337264
O O3 0.932046 0.303832 0.576485
O O4 0.000000 0.305906 0.374911
O O5 0.500000 0.625732 0.490410
O O6 0.454249 0.500000 0.483105
O O7 0.408504 0.616386 0.567715
O O8 0.433697 0.599264 0.291325
O O9 0.887472 0.500000 0.240466
O O10 0.829264 0.383670 0.200033
O O11 0.679573 0.500000 0.255825
O O12 0.705985 0.385376 0.425103
O O13 0.735371 0.389609 0.154498
O O14 0.649003 0.357909 0.203984
O O15 0.707569 0.500000 0.585710
#
# Coordination Sequence:
#
# PCOD8186166 Si02
#       6
#    16  16  16  16  16  16
#     4  12  27  44  64  90 126 174 222 271 331 390
#     4  10  19  35  62  92 123 162 208 261 319 381
#     4  10  21  40  66  95 129 165 212 268 324 391
#     4  10  21  40  70 102 131 168 212 262 321 388
#     4   9  19  37  65 100 131 163 206 256 318 381
#     4  12  25  43  64  89 128 169 220 269 323 387
#
# _framework density 20.960129999999999
#
# number of rings (size 3 to 8) (size 9 to 14) (size 15 to 20)
#    0.000    1.500    1.667    3.500    2.333    2.333 
#    0.000    0.833    0.000    0.000    0.000    0.000 
#    0.000    0.000    0.000    0.000    0.000    0.000 
#
# Total GULP energy -297408.897919 kJ/mol
# GULP energy per Si atom -12392.037413 kJ/mol
# Density = 2.091242 g / cm^3
# Si number density = 20.960130 Si / 1000 Ang^3
#
#
#
# Elastic Constant Matrix: (Units=GPa)
#
#
# Indices 1 2 3 4 5 6 
#
# 1 148.6893 36.4536 23.1585 0.0000 0.0000 0.0000
# 2 36.4536 35.2972 19.9223 0.0000 0.0000 0.0000
# 3 23.1585 19.9223 88.8632 -0.0002 0.0000 0.0000
# 4 0.0000 0.0000 -0.0002 30.3047 0.0000 0.0000
# 5 0.0000 0.0000 0.0000 0.0000 35.4797 0.0000
# 6 0.0000 0.0000 0.0000 0.0000 0.0000 24.5944
#
#
#
# Elastic Compliance Matrix: (Units=1/GPa)
#
#
# Indices 1 2 3 4 5 6 
#
# 1 0.009013 -0.009139 -0.000300 0.000000 0.000000 0.000000
# 2 -0.009139 0.041701 -0.006967 0.000000 0.000000 0.000000
# 3 -0.000300 -0.006967 0.012893 0.000000 0.000000 0.000000
# 4 0.000000 0.000000 0.000000 0.032998 0.000000 0.000000
# 5 0.000000 0.000000 0.000000 0.000000 0.028185 0.000000
# 6 0.000000 0.000000 0.000000 0.000000 0.000000 0.040660
#
#
# Mechanical properties :
#
#
# Convention : Reuss Voigt Hill
#
# Bulk Modulus (GPa) = 32.47233 47.99092 40.23163
# Shear Modulus (GPa) = 23.97763 30.96346 27.47054
#
# Velocity S-wave (km/s) = 3.38592 3.84768 3.62416
# Velocity P-wave (km/s) = 5.55086 6.53341 6.06208
#
# Compressibility (1/GPa) = 0.03079545
#
# Stress axis : x y z
#
# Youngs Moduli (GPa) = 110.95545 23.97998 77.55865
#
# Poissons Ratio (x) = 0.21914 0.02327
# Poissons Ratio (y) = 1.01398 0.54039
# Poissons Ratio (z) = 0.03328 0.16708
#
# Static dielectric constant tensor:
#      x y z
#    x 4.487680 0.000000 0.000000 
#    y 0.000000 3.615560 0.000000 
#    z 0.000000 0.000000 3.921820 
# 
# 
# High freq. dielectric constant tensor:
#      x y z
#    x 1.838830 0.000000 0.000000 
#    y 0.000000 1.798150 0.000000 
#    z 0.000000 0.000000 1.821370 
# 
# From -- ./inp_files/4179.got.cif
#   From: 2010.03.12/outbox.cif.g09.slc.cpg/sg42_3_cif.got.tgz:4179.got - 2010.04.14 02:04:31.
