data_PCOD8186744
_publ_section_title
;
Structure prediction by ZEFSAII (Michael W. Deem and Ramdas Pophale) SiO2 
 PCOD8186744
Probable space group: F M M 2
;
_chemical_formula_sum "Si O2"
_cell_formula_units_Z 96
_cell_length_a 23.023177
_cell_length_b 16.236882
_cell_length_c 11.654128
_cell_angle_alpha 90.000000
_cell_angle_beta 90.000000
_cell_angle_gamma 90.000000
_cell_volume 4356.599834
_symmetry_space_group_name_H-M "F M M 2"
_symmetry_group_IT_number 42
_symmetry_cell_setting 'orthorhombic'
loop_
_space_group_symop_operation_xyz
x,y,z
-x,-y,z
-x,y,z
x,-y,z
x,1/2+y,1/2+z
-x,1/2-y,1/2+z
-x,1/2+y,1/2+z
x,1/2-y,1/2+z
1/2+x,y,1/2+z
1/2-x,-y,1/2+z
1/2-x,y,1/2+z
1/2+x,-y,1/2+z
1/2+x,1/2+y,z
1/2-x,1/2-y,z
1/2-x,1/2+y,z
1/2+x,1/2-y,z
loop_
_atom_site_type_symbol
_atom_site_label
_atom_site_fract_x
_atom_site_fract_y
_atom_site_fract_z
Si Si1 0.627919 0.401759 0.750000
Si Si2 0.166465 0.091374 0.096217
Si Si3 0.435353 0.643817 0.969330
Si Si4 0.766383 0.157119 0.890709
Si Si5 0.067232 0.669036 0.028444
Si Si6 0.647133 0.905655 0.847563
O O1 0.620492 0.500000 0.753861
O O2 0.585140 0.355443 0.837499
O O3 0.694351 0.379198 0.786185
O O4 0.609466 0.369051 0.625136
O O5 0.159925 0.132018 0.221231
O O6 0.195140 0.000000 0.101580
O O7 0.102528 0.080415 0.042660
O O8 0.201002 0.153062 0.012824
O O9 0.500000 0.610189 0.972736
O O10 0.430019 0.732974 0.028371
O O11 0.750000 0.250000 0.860448
O O12 0.708272 0.104317 0.912575
O O13 0.093470 0.640279 0.906714
O O14 0.000000 0.639003 0.041278
O O15 0.628788 0.000000 0.837830
#
# Coordination Sequence:
#
# PCOD8186744 Si02
#       6
#    16  16  16  16  16  16
#     4  11  24  45  71 100 137 182 235 286 336 411
#     4  10  23  41  63  95 134 174 224 275 334 412
#     4  10  22  40  66  95 130 173 223 281 336 399
#     4  11  24  42  68  98 133 174 224 281 341 405
#     4  11  26  44  68 102 138 180 230 284 344 408
#     4  11  24  41  64  94 133 175 219 277 338 404
#
# _framework density 22.035533000000001
#
# number of rings (size 3 to 8) (size 9 to 14) (size 15 to 20)
#    0.000    1.333    0.000    6.000    7.000    4.667 
#    0.000    1.667    0.000    0.000    0.000    0.000 
#    0.000    0.000    0.000    0.000    0.000    0.000 
#
# Total GULP energy -297556.895335 kJ/mol
# GULP energy per Si atom -12398.203972 kJ/mol
# Density = 2.198538 g / cm^3
# Si number density = 22.035533 Si / 1000 Ang^3
#
#
#
# Elastic Constant Matrix: (Units=GPa)
#
#
# Indices 1 2 3 4 5 6 
#
# 1 109.0570 21.8077 33.0094 0.0000 0.0000 0.0000
# 2 21.8077 82.7336 28.5618 0.0000 0.0000 0.0000
# 3 33.0094 28.5618 115.7108 0.0000 0.0000 0.0000
# 4 0.0000 0.0000 0.0000 34.5313 0.0000 0.0000
# 5 0.0000 0.0000 0.0000 0.0000 24.7978 0.0000
# 6 0.0000 0.0000 0.0000 0.0000 0.0000 32.1576
#
#
#
# Elastic Compliance Matrix: (Units=1/GPa)
#
#
# Indices 1 2 3 4 5 6 
#
# 1 0.010291 -0.001857 -0.002477 0.000000 0.000000 0.000000
# 2 -0.001857 0.013548 -0.002814 0.000000 0.000000 0.000000
# 3 -0.002477 -0.002814 0.010044 0.000000 0.000000 0.000000
# 4 0.000000 0.000000 0.000000 0.028959 0.000000 0.000000
# 5 0.000000 0.000000 0.000000 0.000000 0.040326 0.000000
# 6 0.000000 0.000000 0.000000 0.000000 0.000000 0.031097
#
#
# Mechanical properties :
#
#
# Convention : Reuss Voigt Hill
#
# Bulk Modulus (GPa) = 51.06030 52.69547 51.87788
# Shear Modulus (GPa) = 32.23918 33.23883 32.73900
#
# Velocity S-wave (km/s) = 3.82914 3.88805 3.85871
# Velocity P-wave (km/s) = 6.54002 6.64242 6.59142
#
# Compressibility (1/GPa) = 0.01958469
#
# Stress axis : x y z
#
# Youngs Moduli (GPa) = 97.17481 73.81078 99.56569
#
# Poissons Ratio (x) = 0.13709 0.24665
# Poissons Ratio (y) = 0.18049 0.28021
# Poissons Ratio (z) = 0.24072 0.20773
#
# Static dielectric constant tensor:
#      x y z
#    x 4.168240 0.000000 0.000000 
#    y 0.000000 3.819600 0.000000 
#    z 0.000000 0.000000 4.012310 
# 
# 
# High freq. dielectric constant tensor:
#      x y z
#    x 1.873330 0.000000 0.000000 
#    y 0.000000 1.866120 0.000000 
#    z 0.000000 0.000000 1.868720 
# 
# From -- ./inp_files/10150.got.cif
#   From: 2010.03.12/outbox.cif.g09.slc.cpg/sg42_6_cif.got.tgz:10150.got - 2010.04.14 02:04:31.
