data_PCOD8186969
_publ_section_title
;
Structure prediction by ZEFSAII (Michael W. Deem and Ramdas Pophale) SiO2 
 PCOD8186969
Probable space group: F D D 2
;
_chemical_formula_sum "Si O2"
_cell_formula_units_Z 96
_cell_length_a 10.108389
_cell_length_b 14.802491
_cell_length_c 25.560061
_cell_angle_alpha 90.000000
_cell_angle_beta 90.000000
_cell_angle_gamma 90.000000
_cell_volume 3824.534986
_symmetry_space_group_name_H-M "F D D 2"
_symmetry_group_IT_number 43
_symmetry_cell_setting 'orthorhombic'
loop_
_space_group_symop_operation_xyz
x,y,z
-x,-y,z
1/4-x,1/4+y,1/4+z
1/4+x,1/4-y,1/4+z
x,1/2+y,1/2+z
-x,1/2-y,1/2+z
1/4-x,3/4+y,3/4+z
1/4+x,3/4-y,3/4+z
1/2+x,y,1/2+z
1/2-x,-y,1/2+z
3/4-x,1/4+y,3/4+z
3/4+x,1/4-y,3/4+z
1/2+x,1/2+y,z
1/2-x,1/2-y,z
3/4-x,3/4+y,1/4+z
3/4+x,3/4-y,1/4+z
loop_
_atom_site_type_symbol
_atom_site_label
_atom_site_fract_x
_atom_site_fract_y
_atom_site_fract_z
Si Si1 0.351833 0.817949 0.209860
Si Si2 0.276757 0.373686 0.868724
Si Si3 0.113342 0.709098 0.561835
Si Si4 0.800497 0.466154 0.619884
Si Si5 0.807003 0.921875 0.539230
Si Si6 0.335585 0.021473 0.734105
O O1 0.250000 0.750000 0.179972
O O2 0.443839 0.872899 0.171420
O O3 0.436564 0.760266 0.251917
O O4 0.263418 0.892967 0.237805
O O5 0.328060 0.474491 0.859151
O O6 0.396309 0.305083 0.879310
O O7 0.195406 0.339349 0.819361
O O8 0.250000 0.750000 0.536308
O O9 0.125740 0.612528 0.589214
O O10 0.992449 0.698760 0.519934
O O11 0.806277 0.555997 0.582626
O O12 0.867563 0.486018 0.675961
O O13 0.780574 0.824627 0.508189
#
# Coordination Sequence:
#
# PCOD8186969 Si02
#       6
#    16  16  16  16  16  16
#     4  10  19  32  56  82 115 148 199 240 288 335
#     4  10  19  34  55  82 118 155 188 237 292 341
#     4   9  20  34  52  86 122 148 191 240 287 346
#     4  11  20  32  58  88 121 149 191 236 295 344
#     4  10  20  35  53  89 116 146 198 244 274 354
#     4  10  20  32  56  86 117 148 195 237 293 337
#
# _framework density 25.101089999999999
#
# number of rings (size 3 to 8) (size 9 to 14) (size 15 to 20)
#    0.000    2.000    1.667    5.500    4.667    0.000 
#    0.000    0.000    7.333    3.000    0.000    0.000 
#    0.000    0.000    0.000    0.000    0.000    0.000 
#
# Total GULP energy -297386.030091 kJ/mol
# GULP energy per Si atom -12391.084587 kJ/mol
# Density = 2.504396 g / cm^3
# Si number density = 25.101090 Si / 1000 Ang^3
#
#
#
# Elastic Constant Matrix: (Units=GPa)
#
#
# Indices 1 2 3 4 5 6 
#
# 1 39.2438 5.3613 32.6433 0.0000 0.0000 0.0000
# 2 5.3613 122.4141 64.8581 0.0000 0.0000 0.0000
# 3 32.6433 64.8581 163.9913 0.0000 0.0000 0.0000
# 4 0.0000 0.0000 0.0000 33.3889 0.0000 0.0000
# 5 0.0000 0.0000 0.0000 0.0000 13.3017 0.0000
# 6 0.0000 0.0000 0.0000 0.0000 0.0000 17.8979
#
#
#
# Elastic Compliance Matrix: (Units=1/GPa)
#
#
# Indices 1 2 3 4 5 6 
#
# 1 0.031097 0.002426 -0.007150 0.000000 0.000000 0.000000
# 2 0.002426 0.010524 -0.004645 0.000000 0.000000 0.000000
# 3 -0.007150 -0.004645 0.009358 0.000000 0.000000 0.000000
# 4 0.000000 0.000000 0.000000 0.029950 0.000000 0.000000
# 5 0.000000 0.000000 0.000000 0.000000 0.075178 0.000000
# 6 0.000000 0.000000 0.000000 0.000000 0.000000 0.055872
#
#
# Mechanical properties :
#
#
# Convention : Reuss Voigt Hill
#
# Bulk Modulus (GPa) = 31.01526 59.04161 45.02843
# Shear Modulus (GPa) = 20.70697 27.77015 24.23856
#
# Velocity S-wave (km/s) = 2.87530 3.32977 3.11084
# Velocity P-wave (km/s) = 4.83798 6.19320 5.55706
#
# Compressibility (1/GPa) = 0.03224220
#
# Stress axis : x y z
#
# Youngs Moduli (GPa) = 32.15705 95.02259 106.85860
#
# Poissons Ratio (x) = -0.23053 0.76400
# Poissons Ratio (y) = -0.07802 0.49636
# Poissons Ratio (z) = 0.22991 0.44139
#
# Static dielectric constant tensor:
#      x y z
#    x 4.694130 0.000000 0.000000 
#    y 0.000000 4.941600 0.000000 
#    z 0.000000 0.000000 4.572310 
# 
# 
# High freq. dielectric constant tensor:
#      x y z
#    x 1.985790 0.000000 0.000000 
#    y 0.000000 2.018110 0.000000 
#    z 0.000000 0.000000 2.000380 
# 
# From -- ./inp_files/21087.got.cif
#   From: 2010.06.25/outbox.cif.g09.slc.cpg/sg43_11_cif.got.tgz:21087.got - 2010.06.26 16:48:59.
