data_PCOD8186065
_publ_section_title
;
Structure prediction by ZEFSAII (Michael W. Deem and Ramdas Pophale) SiO2 
 PCOD8186065
Probable space group: F M M 2
;
_chemical_formula_sum "Si O2"
_cell_formula_units_Z 96
_cell_length_a 8.885609
_cell_length_b 19.561286
_cell_length_c 31.158004
_cell_angle_alpha 90.000000
_cell_angle_beta 90.000000
_cell_angle_gamma 90.000000
_cell_volume 5415.695405
_symmetry_space_group_name_H-M "F M M 2"
_symmetry_group_IT_number 42
_symmetry_cell_setting 'orthorhombic'
loop_
_space_group_symop_operation_xyz
x,y,z
-x,-y,z
-x,y,z
x,-y,z
x,1/2+y,1/2+z
-x,1/2-y,1/2+z
-x,1/2+y,1/2+z
x,1/2-y,1/2+z
1/2+x,y,1/2+z
1/2-x,-y,1/2+z
1/2-x,y,1/2+z
1/2+x,-y,1/2+z
1/2+x,1/2+y,z
1/2-x,1/2-y,z
1/2-x,1/2+y,z
1/2+x,1/2-y,z
loop_
_atom_site_type_symbol
_atom_site_label
_atom_site_fract_x
_atom_site_fract_y
_atom_site_fract_z
Si Si1 0.320570 0.076141 0.042120
Si Si2 0.832495 0.418306 0.135179
Si Si3 0.174012 0.080854 0.312182
Si Si4 0.680049 0.322135 0.468492
Si Si5 0.178637 0.677781 0.378663
Si Si6 0.324982 0.423102 0.217365
O O1 0.500000 0.074019 0.044030
O O2 0.262008 0.103187 0.088822
O O3 0.258376 0.000000 0.032584
O O4 0.263855 0.125098 0.004458
O O5 0.828218 0.500000 0.136644
O O6 0.747459 0.384985 0.176211
O O7 0.000000 0.389619 0.138736
O O8 0.284438 0.120219 0.343897
O O9 0.212034 0.108785 0.264077
O O10 0.000000 0.096440 0.323391
O O11 0.204336 0.000000 0.315673
O O12 0.500000 0.317534 0.465079
O O13 0.750000 0.250000 0.481699
O O14 0.748251 0.346594 0.423327
O O15 0.250000 0.750000 0.364338
O O16 0.000000 0.686000 0.383646
O O17 0.500000 0.422783 0.209207
O O18 0.262263 0.500000 0.218445
#
# Coordination Sequence:
#
# PCOD8186065 Si02
#       6
#    16  16  16  16  16  16
#     4   8  15  28  47  71  95 122 158 196 233 275
#     4   8  13  23  41  65  92 120 153 193 232 272
#     4   9  18  33  52  74 101 131 162 198 242 289
#     4  10  19  33  52  70  92 124 160 196 237 289
#     4  11  22  36  53  72  96 126 163 203 244 294
#     4   8  14  25  42  66  96 127 156 187 228 279
#
# _framework density 17.726254999999998
#
# number of rings (size 3 to 8) (size 9 to 14) (size 15 to 20)
#    0.000    3.000    0.000    5.000    0.000    1.667 
#    0.000    5.000    0.000    4.500    0.000    4.667 
#    0.000    0.000    0.000    0.000    0.000    0.000 
#
# Total GULP energy -297366.350010 kJ/mol
# GULP energy per Si atom -12390.264584 kJ/mol
# Density = 1.768591 g / cm^3
# Si number density = 17.726255 Si / 1000 Ang^3
#
#
#
# Elastic Constant Matrix: (Units=GPa)
#
#
# Indices 1 2 3 4 5 6 
#
# 1 68.6319 24.6990 51.2948 0.0000 0.0000 0.0000
# 2 24.6990 51.0339 63.8588 0.0000 0.0000 0.0000
# 3 51.2948 63.8588 161.4965 0.0000 0.0000 0.0000
# 4 0.0000 0.0000 0.0000 1.9262 0.0000 0.0000
# 5 0.0000 0.0000 0.0000 0.0000 30.6530 0.0000
# 6 0.0000 0.0000 0.0000 0.0000 0.0000 21.3674
#
#
#
# Elastic Compliance Matrix: (Units=1/GPa)
#
#
# Indices 1 2 3 4 5 6 
#
# 1 0.019386 -0.003320 -0.004844 0.000000 0.000000 0.000000
# 2 -0.003320 0.039354 -0.014507 0.000000 0.000000 0.000000
# 3 -0.004844 -0.014507 0.013467 0.000000 0.000000 0.000000
# 4 0.000000 0.000000 0.000000 0.519150 0.000000 0.000000
# 5 0.000000 0.000000 0.000000 0.000000 0.032623 0.000000
# 6 0.000000 0.000000 0.000000 0.000000 0.000000 0.046800
#
#
# Mechanical properties :
#
#
# Convention : Reuss Voigt Hill
#
# Bulk Modulus (GPa) = 37.22462 62.31861 49.77161
# Shear Modulus (GPa) = 6.89581 20.20996 13.55288
#
# Velocity S-wave (km/s) = 1.97449 3.38022 2.76808
# Velocity P-wave (km/s) = 5.12284 7.10401 6.19316
#
# Compressibility (1/GPa) = 0.02686394
#
# Stress axis : x y z
#
# Youngs Moduli (GPa) = 51.58317 25.41035 74.25548
#
# Poissons Ratio (x) = 0.08437 0.35973
# Poissons Ratio (y) = 0.17128 1.07720
# Poissons Ratio (z) = 0.24989 0.36862
#
# Static dielectric constant tensor:
#      x y z
#    x 3.160150 0.000000 0.000000 
#    y 0.000000 2.958290 0.000000 
#    z 0.000000 0.000000 3.716380 
# 
# 
# High freq. dielectric constant tensor:
#      x y z
#    x 1.670020 0.000000 0.000000 
#    y 0.000000 1.638710 0.000000 
#    z 0.000000 0.000000 1.708050 
# 
# From -- ./inp_files/31617.got.cif
#   From: 2010.03.12/outbox.cif.g09.slc.cpg/sg42_16_cif.got.tgz:31617.got - 2010.04.14 02:04:31.
