data_PCOD8186784
_publ_section_title
;
Structure prediction by ZEFSAII (Michael W. Deem and Ramdas Pophale) SiO2 
 PCOD8186784
Probable space group: F M M 2
;
_chemical_formula_sum "Si O2"
_cell_formula_units_Z 40
_cell_length_a 16.100428
_cell_length_b 9.702830
_cell_length_c 11.115023
_cell_angle_alpha 90.000000
_cell_angle_beta 90.000000
_cell_angle_gamma 90.000000
_cell_volume 1736.385734
_symmetry_space_group_name_H-M "F M M 2"
_symmetry_group_IT_number 42
_symmetry_cell_setting 'orthorhombic'
loop_
_space_group_symop_operation_xyz
x,y,z
-x,-y,z
-x,y,z
x,-y,z
x,1/2+y,1/2+z
-x,1/2-y,1/2+z
-x,1/2+y,1/2+z
x,1/2-y,1/2+z
1/2+x,y,1/2+z
1/2-x,-y,1/2+z
1/2-x,y,1/2+z
1/2+x,-y,1/2+z
1/2+x,1/2+y,z
1/2-x,1/2-y,z
1/2-x,1/2+y,z
1/2+x,1/2-y,z
loop_
_atom_site_type_symbol
_atom_site_label
_atom_site_fract_x
_atom_site_fract_y
_atom_site_fract_z
Si Si1 0.314589 0.500000 0.724310
Si Si2 0.095449 0.702522 0.074078
Si Si3 0.171248 0.000000 0.393434
Si Si4 0.642612 0.500000 0.129635
O O1 0.368979 0.361843 0.700039
O O2 0.270748 0.500000 0.856075
O O3 0.242977 0.500000 0.619204
O O4 0.104343 0.866140 0.066881
O O5 0.000000 0.659528 0.062013
O O6 0.147298 0.637486 0.964846
O O7 0.117665 0.000000 0.270520
#
# Coordination Sequence:
#
# PCOD8186784 Si02
#       4
#     8  16   8   8
#     4   9  21  45  66  97 138 183 220 274 337 408
#     4  11  22  44  73 104 134 178 230 286 337 399
#     4   9  23  44  70  92 145 180 225 264 352 400
#     4  10  23  45  71 101 141 179 227 278 344 408
#
# _framework density 23.036356000000001
#
# number of rings (size 3 to 8) (size 9 to 14) (size 15 to 20)
#    1.200    0.800    0.000    4.200    0.000    3.200 
#   28.800    2.000    0.000    9.600    0.000   22.400 
#    0.000    0.000    0.000    0.000    0.000    0.000 
#
# Total GULP energy -123939.029066 kJ/mol
# GULP energy per Si atom -12393.902907 kJ/mol
# Density = 2.298392 g / cm^3
# Si number density = 23.036356 Si / 1000 Ang^3
#
#
#
# Elastic Constant Matrix: (Units=GPa)
#
#
# Indices 1 2 3 4 5 6 
#
# 1 136.5878 50.8428 41.9778 0.0000 0.0000 0.0000
# 2 50.8428 211.6939 71.9868 0.0000 0.0000 0.0000
# 3 41.9778 71.9868 94.3213 0.0000 0.0000 0.0000
# 4 0.0000 0.0000 0.0000 25.7519 0.0000 0.0000
# 5 0.0000 0.0000 0.0000 0.0000 32.1382 0.0000
# 6 0.0000 0.0000 0.0000 0.0000 0.0000 21.6493
#
#
#
# Elastic Compliance Matrix: (Units=1/GPa)
#
#
# Indices 1 2 3 4 5 6 
#
# 1 0.008647 -0.001037 -0.003057 0.000000 0.000000 0.000000
# 2 -0.001037 0.006504 -0.004502 0.000000 0.000000 0.000000
# 3 -0.003057 -0.004502 0.015398 0.000000 0.000000 0.000000
# 4 0.000000 0.000000 0.000000 0.038832 0.000000 0.000000
# 5 0.000000 0.000000 0.000000 0.000000 0.031116 0.000000
# 6 0.000000 0.000000 0.000000 0.000000 0.000000 0.046191
#
#
# Mechanical properties :
#
#
# Convention : Reuss Voigt Hill
#
# Bulk Modulus (GPa) = 74.86680 85.80198 80.33439
# Shear Modulus (GPa) = 29.70315 34.42759 32.06537
#
# Velocity S-wave (km/s) = 3.59472 3.87006 3.73493
# Velocity P-wave (km/s) = 7.05686 7.56948 7.31766
#
# Compressibility (1/GPa) = 0.01335705
#
# Stress axis : x y z
#
# Youngs Moduli (GPa) = 115.64965 153.75373 64.94148
#
# Poissons Ratio (x) = 0.15949 0.19850
# Poissons Ratio (y) = 0.11997 0.29238
# Poissons Ratio (z) = 0.35349 0.69223
#
# Static dielectric constant tensor:
#      x y z
#    x 4.092250 0.000000 0.000000 
#    y 0.000000 3.893420 0.000000 
#    z 0.000000 0.000000 3.954070 
# 
# 
# High freq. dielectric constant tensor:
#      x y z
#    x 1.908240 0.000000 0.000000 
#    y 0.000000 1.913290 0.000000 
#    z 0.000000 0.000000 1.891930 
# 
# From -- ./inp_files/5967.got.cif
#   From: 2010.03.12/outbox.cif.g09.slc.cpg/sg42_3_cif.got.tgz:5967.got - 2010.04.14 02:04:31.
