data_PCOD8186151
_publ_section_title
;
Structure prediction by ZEFSAII (Michael W. Deem and Ramdas Pophale) SiO2 
 PCOD8186151
Probable space group: F M M 2
;
_chemical_formula_sum "Si O2"
_cell_formula_units_Z 96
_cell_length_a 28.085809
_cell_length_b 8.632362
_cell_length_c 20.644563
_cell_angle_alpha 90.000000
_cell_angle_beta 90.000000
_cell_angle_gamma 90.000000
_cell_volume 5005.209689
_symmetry_space_group_name_H-M "F M M 2"
_symmetry_group_IT_number 42
_symmetry_cell_setting 'orthorhombic'
loop_
_space_group_symop_operation_xyz
x,y,z
-x,-y,z
-x,y,z
x,-y,z
x,1/2+y,1/2+z
-x,1/2-y,1/2+z
-x,1/2+y,1/2+z
x,1/2-y,1/2+z
1/2+x,y,1/2+z
1/2-x,-y,1/2+z
1/2-x,y,1/2+z
1/2+x,-y,1/2+z
1/2+x,1/2+y,z
1/2-x,1/2-y,z
1/2-x,1/2+y,z
1/2+x,1/2-y,z
loop_
_atom_site_type_symbol
_atom_site_label
_atom_site_fract_x
_atom_site_fract_y
_atom_site_fract_z
Si Si1 0.891214 0.681060 0.821680
Si Si2 0.609231 0.181991 0.569603
Si Si3 0.699904 0.182621 0.014650
Si Si4 0.800015 0.317594 0.374572
Si Si5 0.946464 0.815753 0.195435
Si Si6 0.444222 0.177584 0.439042
O O1 0.880615 0.500000 0.816042
O O2 0.840966 0.770044 0.824352
O O3 0.919470 0.744196 0.759320
O O4 0.922755 0.711688 0.884811
O O5 0.659538 0.270223 0.565853
O O6 0.581753 0.244533 0.632641
O O7 0.577099 0.224236 0.508098
O O8 0.619304 0.000000 0.574352
O O9 0.750000 0.250000 0.039427
O O10 0.704142 0.000000 0.008027
O O11 0.686107 0.252183 0.944915
O O12 0.795631 0.500000 0.379886
O O13 0.750000 0.250000 0.349748
O O14 0.000000 0.747160 0.195022
O O15 0.949013 0.000000 0.194883
O O16 0.500000 0.205490 0.442913
O O17 0.431583 0.000000 0.421788
#
# Coordination Sequence:
#
# PCOD8186151 Si02
#       6
#    16  16  16  16  16  16
#     4  11  21  35  56  84 116 151 191 236 285 338
#     4  10  19  35  58  83 113 150 193 235 280 336
#     4  11  21  35  57  86 117 148 185 231 286 342
#     4  11  21  36  58  85 115 148 187 233 287 344
#     4   9  19  36  58  83 114 155 196 234 280 335
#     4  10  20  33  53  81 111 145 189 239 287 337
#
# _framework density 19.180015000000001
#
# number of rings (size 3 to 8) (size 9 to 14) (size 15 to 20)
#    0.000    1.667    1.667    5.500    0.000    3.000 
#    0.000    2.500    0.000    3.500    0.000    0.000 
#    0.000    0.000    0.000    0.000    0.000    0.000 
#
# Total GULP energy -297703.423683 kJ/mol
# GULP energy per Si atom -12404.309320 kJ/mol
# Density = 1.913636 g / cm^3
# Si number density = 19.180015 Si / 1000 Ang^3
#
#
#
# Elastic Constant Matrix: (Units=GPa)
#
#
# Indices 1 2 3 4 5 6 
#
# 1 170.9901 48.4105 79.3462 0.0000 0.0000 0.0000
# 2 48.4105 96.9872 38.1184 0.0000 0.0000 0.0000
# 3 79.3462 38.1184 126.8356 0.0000 0.0000 0.0000
# 4 0.0000 0.0000 0.0000 17.4730 0.0000 0.0000
# 5 0.0000 0.0000 0.0000 0.0000 35.3994 0.0000
# 6 0.0000 0.0000 0.0000 0.0000 0.0000 27.8907
#
#
#
# Elastic Compliance Matrix: (Units=1/GPa)
#
#
# Indices 1 2 3 4 5 6 
#
# 1 0.008749 -0.002513 -0.004718 0.000000 0.000000 0.000000
# 2 -0.002513 0.012413 -0.002159 0.000000 0.000000 0.000000
# 3 -0.004718 -0.002159 0.011485 0.000000 0.000000 0.000000
# 4 0.000000 0.000000 0.000000 0.057231 0.000000 0.000000
# 5 0.000000 0.000000 0.000000 0.000000 0.028249 0.000000
# 6 0.000000 0.000000 0.000000 0.000000 0.000000 0.035854
#
#
# Mechanical properties :
#
#
# Convention : Reuss Voigt Hill
#
# Bulk Modulus (GPa) = 72.10925 80.72925 76.41925
# Shear Modulus (GPa) = 28.18758 31.41513 29.80136
#
# Velocity S-wave (km/s) = 3.83774 4.05150 3.94607
# Velocity P-wave (km/s) = 7.57069 8.00424 7.79048
#
# Compressibility (1/GPa) = 0.01386785
#
# Stress axis : x y z
#
# Youngs Moduli (GPa) = 114.29773 80.55895 87.07342
#
# Poissons Ratio (x) = 0.20242 0.41082
# Poissons Ratio (y) = 0.28720 0.18797
# Poissons Ratio (z) = 0.53927 0.17390
#
# Static dielectric constant tensor:
#      x y z
#    x 3.758250 0.000000 0.000000 
#    y 0.000000 3.339560 0.000000 
#    z 0.000000 0.000000 3.450520 
# 
# 
# High freq. dielectric constant tensor:
#      x y z
#    x 1.767100 0.000000 0.000000 
#    y 0.000000 1.732930 0.000000 
#    z 0.000000 0.000000 1.727510 
# 
# From -- ./inp_files/23723.got.cif
#   From: 2010.03.12/outbox.cif.g09.slc.cpg/sg42_12_cif.got.tgz:23723.got - 2010.04.14 02:04:31.
