data_PCOD8186384
_publ_section_title
;
Structure prediction by ZEFSAII (Michael W. Deem and Ramdas Pophale) SiO2 
 PCOD8186384
Probable space group: F M M 2
;
_chemical_formula_sum "Si O2"
_cell_formula_units_Z 80
_cell_length_a 8.735324
_cell_length_b 15.563042
_cell_length_c 28.865673
_cell_angle_alpha 90.000000
_cell_angle_beta 90.000000
_cell_angle_gamma 90.000000
_cell_volume 3924.236699
_symmetry_space_group_name_H-M "F M M 2"
_symmetry_group_IT_number 42
_symmetry_cell_setting 'orthorhombic'
loop_
_space_group_symop_operation_xyz
x,y,z
-x,-y,z
-x,y,z
x,-y,z
x,1/2+y,1/2+z
-x,1/2-y,1/2+z
-x,1/2+y,1/2+z
x,1/2-y,1/2+z
1/2+x,y,1/2+z
1/2-x,-y,1/2+z
1/2-x,y,1/2+z
1/2+x,-y,1/2+z
1/2+x,1/2+y,z
1/2-x,1/2-y,z
1/2-x,1/2+y,z
1/2+x,1/2-y,z
loop_
_atom_site_type_symbol
_atom_site_label
_atom_site_fract_x
_atom_site_fract_y
_atom_site_fract_z
Si Si1 0.176273 0.399078 0.415160
Si Si2 0.680405 0.339138 0.324281
Si Si3 0.318594 0.161439 0.108570
Si Si4 0.681843 0.500000 0.665757
Si Si5 0.818300 0.000000 0.771497
Si Si6 0.675441 0.600471 0.509490
O O1 0.208472 0.500000 0.409783
O O2 0.280101 0.349127 0.378456
O O3 0.221913 0.368073 0.466521
O O4 0.000000 0.376464 0.405860
O O5 0.500000 0.339370 0.317095
O O6 0.750000 0.250000 0.305500
O O7 0.754362 0.415656 0.295575
O O8 0.500000 0.163897 0.111877
O O9 0.250000 0.250000 0.127756
O O10 0.265992 0.148456 0.055434
O O11 0.252885 0.084630 0.140309
O O12 0.500000 0.500000 0.662421
O O13 0.737518 0.500000 0.718568
O O14 0.000000 0.000000 0.776461
O O15 0.500000 0.622580 0.498125
O O16 0.695718 0.500000 0.518989
#
# Coordination Sequence:
#
# PCOD8186384 Si02
#       6
#    16  16  16   8   8  16
#     4  10  20  35  58  88 125 162 202 249 300 357
#     4  12  25  42  65  92 124 162 205 252 305 366
#     4  10  20  37  60  88 119 157 200 245 295 354
#     4   9  20  41  66  87 116 157 196 241 302 363
#     4  11  23  43  68  93 122 157 200 255 314 371
#     4   9  17  32  56  82 115 161 208 244 287 353
#
# _framework density 20.386130999999999
#
# number of rings (size 3 to 8) (size 9 to 14) (size 15 to 20)
#    0.000    1.800    2.000    2.700    0.000    3.200 
#    0.000    6.500    0.000    0.000    0.000    0.000 
#    0.000    0.000    0.000    0.000    0.000    0.000 
#
# Total GULP energy -248076.202819 kJ/mol
# GULP energy per Si atom -12403.810141 kJ/mol
# Density = 2.033973 g / cm^3
# Si number density = 20.386131 Si / 1000 Ang^3
#
#
#
# Elastic Constant Matrix: (Units=GPa)
#
#
# Indices 1 2 3 4 5 6 
#
# 1 84.1333 42.1780 42.3980 0.0000 0.0000 0.0000
# 2 42.1780 146.8192 74.6426 0.0000 0.0000 0.0000
# 3 42.3980 74.6426 130.3806 0.0000 0.0000 0.0000
# 4 0.0000 0.0000 0.0000 3.9759 0.0000 0.0000
# 5 0.0000 0.0000 0.0000 0.0000 22.4435 0.0000
# 6 0.0000 0.0000 0.0000 0.0000 0.0000 32.8230
#
#
#
# Elastic Compliance Matrix: (Units=1/GPa)
#
#
# Indices 1 2 3 4 5 6 
#
# 1 0.014866 -0.002557 -0.003370 0.000000 0.000000 0.000000
# 2 -0.002557 0.010047 -0.004920 0.000000 0.000000 0.000000
# 3 -0.003370 -0.004920 0.011583 0.000000 0.000000 0.000000
# 4 0.000000 0.000000 0.000000 0.251517 0.000000 0.000000
# 5 0.000000 0.000000 0.000000 0.000000 0.044556 0.000000
# 6 0.000000 0.000000 0.000000 0.000000 0.000000 0.030466
#
#
# Mechanical properties :
#
#
# Convention : Reuss Voigt Hill
#
# Bulk Modulus (GPa) = 67.56611 75.53003 71.54807
# Shear Modulus (GPa) = 12.83153 25.32279 19.07716
#
# Velocity S-wave (km/s) = 2.51155 3.52825 3.06239
# Velocity P-wave (km/s) = 6.45180 7.32995 6.90485
#
# Compressibility (1/GPa) = 0.01480032
#
# Stress axis : x y z
#
# Youngs Moduli (GPa) = 67.26593 99.52905 86.33521
#
# Poissons Ratio (x) = 0.25453 0.29097
# Poissons Ratio (y) = 0.17202 0.42481
# Poissons Ratio (z) = 0.22670 0.48973
#
# Static dielectric constant tensor:
#      x y z
#    x 3.510030 0.000000 0.000000 
#    y 0.000000 3.794320 0.000000 
#    z 0.000000 0.000000 3.820260 
# 
# 
# High freq. dielectric constant tensor:
#      x y z
#    x 1.782680 0.000000 0.000000 
#    y 0.000000 1.802270 0.000000 
#    z 0.000000 0.000000 1.797030 
# 
# From -- ./inp_files/31284.got.cif
#   From: 2010.03.12/outbox.cif.g09.slc.cpg/sg42_16_cif.got.tgz:31284.got - 2010.04.14 02:04:31.
