data_PCOD8186323
_publ_section_title
;
Structure prediction by ZEFSAII (Michael W. Deem and Ramdas Pophale) SiO2 
 PCOD8186323
Probable space group: F M M 2
;
_chemical_formula_sum "Si O2"
_cell_formula_units_Z 80
_cell_length_a 9.010055
_cell_length_b 15.528880
_cell_length_c 28.741708
_cell_angle_alpha 90.000000
_cell_angle_beta 90.000000
_cell_angle_gamma 90.000000
_cell_volume 4021.426624
_symmetry_space_group_name_H-M "F M M 2"
_symmetry_group_IT_number 42
_symmetry_cell_setting 'orthorhombic'
loop_
_space_group_symop_operation_xyz
x,y,z
-x,-y,z
-x,y,z
x,-y,z
x,1/2+y,1/2+z
-x,1/2-y,1/2+z
-x,1/2+y,1/2+z
x,1/2-y,1/2+z
1/2+x,y,1/2+z
1/2-x,-y,1/2+z
1/2-x,y,1/2+z
1/2+x,-y,1/2+z
1/2+x,1/2+y,z
1/2-x,1/2-y,z
1/2-x,1/2+y,z
1/2+x,1/2-y,z
loop_
_atom_site_type_symbol
_atom_site_label
_atom_site_fract_x
_atom_site_fract_y
_atom_site_fract_z
Si Si1 0.827891 0.899120 0.783290
Si Si2 0.169748 0.100585 0.376018
Si Si3 0.675188 0.663260 0.475944
Si Si4 0.325888 0.500000 0.132698
Si Si5 0.324764 0.664276 0.193145
Si Si6 0.823715 0.500000 0.033709
O O1 0.773925 0.868085 0.833973
O O2 0.734484 0.848303 0.745195
O O3 0.000000 0.876571 0.777418
O O4 0.795833 0.000000 0.777353
O O5 0.221472 0.149661 0.422328
O O6 0.000000 0.121767 0.363044
O O7 0.189050 0.000000 0.386211
O O8 0.500000 0.671170 0.480921
O O9 0.750000 0.750000 0.494977
O O10 0.735264 0.584315 0.506889
O O11 0.500000 0.500000 0.122404
O O12 0.277380 0.583851 0.161564
O O13 0.237650 0.500000 0.085272
O O14 0.500000 0.675931 0.194795
O O15 0.250000 0.750000 0.171721
O O16 0.000000 0.500000 0.035130
#
# Coordination Sequence:
#
# PCOD8186323 Si02
#       6
#    16  16  16   8  16   8
#     4  10  20  34  56  88 123 158 200 243 289 346
#     4   9  17  33  57  81 114 160 203 239 284 343
#     4  10  21  38  60  88 118 154 197 241 289 348
#     4  10  24  44  65  88 117 151 192 243 301 356
#     4  11  23  41  63  89 120 156 198 243 294 353
#     4  10  22  42  65  86 115 153 194 239 295 356
#
# _framework density 19.893436000000001
#
# number of rings (size 3 to 8) (size 9 to 14) (size 15 to 20)
#    0.000    2.000    2.000    1.200    0.000    5.600 
#    0.000    6.000    0.000    0.000    0.000    0.000 
#    0.000    0.000    0.000    0.000    0.000    0.000 
#
# Total GULP energy -248082.966786 kJ/mol
# GULP energy per Si atom -12404.148339 kJ/mol
# Density = 1.984816 g / cm^3
# Si number density = 19.893436 Si / 1000 Ang^3
#
#
#
# Elastic Constant Matrix: (Units=GPa)
#
#
# Indices 1 2 3 4 5 6 
#
# 1 66.7104 51.7604 46.7559 0.0000 0.0000 0.0000
# 2 51.7604 148.2066 72.4963 0.0000 0.0000 0.0000
# 3 46.7559 72.4963 114.9339 0.0000 0.0000 0.0000
# 4 0.0000 0.0000 0.0000 10.9536 0.0000 0.0000
# 5 0.0000 0.0000 0.0000 0.0000 36.5035 0.0000
# 6 0.0000 0.0000 0.0000 0.0000 0.0000 34.0316
#
#
#
# Elastic Compliance Matrix: (Units=1/GPa)
#
#
# Indices 1 2 3 4 5 6 
#
# 1 0.023337 -0.005071 -0.006295 0.000000 0.000000 0.000000
# 2 -0.005071 0.010860 -0.004787 0.000000 0.000000 0.000000
# 3 -0.006295 -0.004787 0.014281 0.000000 0.000000 0.000000
# 4 0.000000 0.000000 0.000000 0.091294 0.000000 0.000000
# 5 0.000000 0.000000 0.000000 0.000000 0.027395 0.000000
# 6 0.000000 0.000000 0.000000 0.000000 0.000000 0.029384
#
#
# Mechanical properties :
#
#
# Convention : Reuss Voigt Hill
#
# Bulk Modulus (GPa) = 61.83703 74.65291 68.24497
# Shear Modulus (GPa) = 21.34491 26.88696 24.11594
#
# Velocity S-wave (km/s) = 3.27916 3.68033 3.48552
# Velocity P-wave (km/s) = 6.74454 7.46108 7.11184
#
# Compressibility (1/GPa) = 0.01617154
#
# Stress axis : x y z
#
# Youngs Moduli (GPa) = 42.85091 92.08043 70.02271
#
# Poissons Ratio (x) = 0.46694 0.44079
# Poissons Ratio (y) = 0.21730 0.33521
# Poissons Ratio (z) = 0.26974 0.44081
#
# Static dielectric constant tensor:
#      x y z
#    x 3.470200 0.000000 0.000000 
#    y 0.000000 3.788370 0.000000 
#    z 0.000000 0.000000 3.550630 
# 
# 
# High freq. dielectric constant tensor:
#      x y z
#    x 1.768830 0.000000 0.000000 
#    y 0.000000 1.783180 0.000000 
#    z 0.000000 0.000000 1.772720 
# 
# From -- ./inp_files/31282.got.cif
#   From: 2010.03.12/outbox.cif.g09.slc.cpg/sg42_16_cif.got.tgz:31282.got - 2010.04.14 02:04:31.
