data_PCOD8186402
_publ_section_title
;
Structure prediction by ZEFSAII (Michael W. Deem and Ramdas Pophale) SiO2 
 PCOD8186402
Probable space group: F M M 2
;
_chemical_formula_sum "Si O2"
_cell_formula_units_Z 96
_cell_length_a 25.535032
_cell_length_b 9.155825
_cell_length_c 23.065799
_cell_angle_alpha 90.000000
_cell_angle_beta 90.000000
_cell_angle_gamma 90.000000
_cell_volume 5392.651970
_symmetry_space_group_name_H-M "F M M 2"
_symmetry_group_IT_number 42
_symmetry_cell_setting 'orthorhombic'
loop_
_space_group_symop_operation_xyz
x,y,z
-x,-y,z
-x,y,z
x,-y,z
x,1/2+y,1/2+z
-x,1/2-y,1/2+z
-x,1/2+y,1/2+z
x,1/2-y,1/2+z
1/2+x,y,1/2+z
1/2-x,-y,1/2+z
1/2-x,y,1/2+z
1/2+x,-y,1/2+z
1/2+x,1/2+y,z
1/2-x,1/2-y,z
1/2-x,1/2+y,z
1/2+x,1/2-y,z
loop_
_atom_site_type_symbol
_atom_site_label
_atom_site_fract_x
_atom_site_fract_y
_atom_site_fract_z
Si Si1 0.698146 0.829656 0.458780
Si Si2 0.301851 0.829309 0.590971
Si Si3 0.500000 0.333711 0.592404
Si Si4 0.061393 0.168899 0.281513
Si Si5 0.406952 0.170275 0.652741
Si Si6 0.093542 0.827247 0.893266
Si Si7 0.500000 0.167652 0.955612
O O1 0.750000 0.750000 0.435561
O O2 0.685423 0.782469 0.524866
O O3 0.650055 0.783718 0.418210
O O4 0.709249 0.000000 0.454985
O O5 0.250000 0.750000 0.614113
O O6 0.349585 0.780914 0.631921
O O7 0.291469 0.000000 0.595437
O O8 0.500000 0.500000 0.613612
O O9 0.448450 0.257625 0.615608
O O10 0.500000 0.321280 0.523912
O O11 0.087235 0.207492 0.220180
O O12 0.090204 0.271523 0.327553
O O13 0.000000 0.206184 0.279527
O O14 0.070315 0.000000 0.297765
O O15 0.417108 0.000000 0.640823
O O16 0.050927 0.747295 0.932046
O O17 0.083758 0.000000 0.895825
O O18 0.500000 0.000000 0.933859
#
# Coordination Sequence:
#
# PCOD8186402 Si02
#       7
#    16  16   8  16  16  16   8
#     4   9  19  35  55  81 108 138 177 220 270 323
#     4   9  18  34  57  81 107 139 177 220 267 321
#     4  11  23  34  51  82 113 138 172 225 276 317
#     4  10  20  36  56  78 107 147 187 220 266 325
#     4  10  20  37  58  78 106 147 185 217 264 328
#     4  11  22  36  56  81 107 140 184 229 270 315
#     4  11  23  36  51  78 113 144 174 215 274 333
#
# _framework density 17.802001000000001
#
# number of rings (size 3 to 8) (size 9 to 14) (size 15 to 20)
#    0.000    2.000    1.667    2.000    0.000    5.333 
#    0.000    4.167    0.000    4.000    0.000    0.000 
#    0.000    0.000    0.000    0.000    0.000    0.000 
#
# Total GULP energy -297684.872281 kJ/mol
# GULP energy per Si atom -12403.536345 kJ/mol
# Density = 1.776148 g / cm^3
# Si number density = 17.802001 Si / 1000 Ang^3
#
#
#
# Elastic Constant Matrix: (Units=GPa)
#
#
# Indices 1 2 3 4 5 6 
#
# 1 162.3655 65.5102 79.4649 0.0000 0.0000 0.0000
# 2 65.5102 71.0348 50.2049 0.0000 0.0000 0.0000
# 3 79.4649 50.2049 105.4372 0.0000 0.0000 0.0000
# 4 0.0000 0.0000 0.0000 29.2741 0.0000 0.0000
# 5 0.0000 0.0000 0.0000 0.0000 34.6728 0.0000
# 6 0.0000 0.0000 0.0000 0.0000 0.0000 40.3805
#
#
#
# Elastic Compliance Matrix: (Units=1/GPa)
#
#
# Indices 1 2 3 4 5 6 
#
# 1 0.011597 -0.006809 -0.005498 0.000000 0.000000 0.000000
# 2 -0.006809 0.025216 -0.006875 0.000000 0.000000 0.000000
# 3 -0.005498 -0.006875 0.016902 0.000000 0.000000 0.000000
# 4 0.000000 0.000000 0.000000 0.034160 0.000000 0.000000
# 5 0.000000 0.000000 0.000000 0.000000 0.028841 0.000000
# 6 0.000000 0.000000 0.000000 0.000000 0.000000 0.024764
#
#
# Mechanical properties :
#
#
# Convention : Reuss Voigt Hill
#
# Bulk Modulus (GPa) = 65.14530 81.02193 73.08362
# Shear Modulus (GPa) = 27.03249 30.44263 28.73756
#
# Velocity S-wave (km/s) = 3.90103 4.13978 4.02218
# Velocity P-wave (km/s) = 7.54749 8.27418 7.91917
#
# Compressibility (1/GPa) = 0.01535030
#
# Stress axis : x y z
#
# Youngs Moduli (GPa) = 86.22720 39.65672 59.16574
#
# Poissons Ratio (x) = 0.27004 0.32530
# Poissons Ratio (y) = 0.58716 0.40676
# Poissons Ratio (z) = 0.47409 0.27264
#
# Static dielectric constant tensor:
#      x y z
#    x 3.393250 0.000000 0.000000 
#    y 0.000000 3.342570 0.000000 
#    z 0.000000 0.000000 3.362090 
# 
# 
# High freq. dielectric constant tensor:
#      x y z
#    x 1.691800 0.000000 0.000000 
#    y 0.000000 1.690760 0.000000 
#    z 0.000000 0.000000 1.689690 
# 
# From -- ./inp_files/28086.got.cif
#   From: 2010.03.12/outbox.cif.g09.slc.cpg/sg42_15_cif.got.tgz:28086.got - 2010.04.14 02:04:31.
