data_PCOD8186984
_publ_section_title
;
Structure prediction by ZEFSAII (Michael W. Deem and Ramdas Pophale) SiO2 
 PCOD8186984
Probable space group: F D D 2
;
_chemical_formula_sum "Si O2"
_cell_formula_units_Z 112
_cell_length_a 14.899246
_cell_length_b 31.762276
_cell_length_c 12.199976
_cell_angle_alpha 90.000000
_cell_angle_beta 90.000000
_cell_angle_gamma 90.000000
_cell_volume 5773.442999
_symmetry_space_group_name_H-M "F D D 2"
_symmetry_group_IT_number 43
_symmetry_cell_setting 'orthorhombic'
loop_
_space_group_symop_operation_xyz
x,y,z
-x,-y,z
1/4-x,1/4+y,1/4+z
1/4+x,1/4-y,1/4+z
x,1/2+y,1/2+z
-x,1/2-y,1/2+z
1/4-x,3/4+y,3/4+z
1/4+x,3/4-y,3/4+z
1/2+x,y,1/2+z
1/2-x,-y,1/2+z
3/4-x,1/4+y,3/4+z
3/4+x,1/4-y,3/4+z
1/2+x,1/2+y,z
1/2-x,1/2-y,z
3/4-x,3/4+y,1/4+z
3/4+x,3/4-y,1/4+z
loop_
_atom_site_type_symbol
_atom_site_label
_atom_site_fract_x
_atom_site_fract_y
_atom_site_fract_z
Si Si1 0.266408 0.335960 0.393040
Si Si2 0.071434 0.833514 0.231376
Si Si3 0.293686 0.429271 0.839431
Si Si4 0.559899 0.208649 0.879871
Si Si5 0.240046 0.798298 0.123690
Si Si6 0.412283 0.473239 0.007521
Si Si7 0.131094 0.386376 0.933230
O O1 0.252957 0.385483 0.416096
O O2 0.369590 0.328913 0.355461
O O3 0.256344 0.304474 0.495684
O O4 0.194166 0.322109 0.302661
O O5 0.139255 0.812491 0.147836
O O6 0.122330 0.863208 0.317262
O O7 0.019057 0.796445 0.291784
O O8 0.230005 0.454158 0.752694
O O9 0.352212 0.464797 0.900514
O O10 0.231887 0.405482 0.930514
O O11 0.362113 0.396454 0.781326
O O12 0.606385 0.253467 0.854509
O O13 0.250000 0.750000 0.157643
O O14 0.309560 0.825842 0.194907
O O15 0.500000 0.500000 0.973262
#
# Coordination Sequence:
#
# PCOD8186984 Si02
#       7
#    16  16  16  16  16  16  16
#     4  10  19  38  58  82 115 159 197 240 298 357
#     4  10  19  35  58  89 115 152 201 248 293 352
#     4  11  21  42  62  85 125 160 203 240 303 368
#     4  10  20  36  63  84 117 158 200 243 304 341
#     4  11  20  32  61  92 116 143 205 260 288 345
#     4  10  24  41  59  87 125 162 190 253 312 352
#     4  10  20  38  61  84 117 164 192 249 300 351
#
# _framework density 19.399169000000001
#
# number of rings (size 3 to 8) (size 9 to 14) (size 15 to 20)
#    0.000    1.714    4.286    3.000    2.000    0.000 
#    7.714    4.286    0.000    0.000    0.000    0.000 
#    0.000    0.000    0.000    0.000    0.000    0.000 
#
# Total GULP energy -347121.255199 kJ/mol
# GULP energy per Si atom -12397.187686 kJ/mol
# Density = 1.935502 g / cm^3
# Si number density = 19.399169 Si / 1000 Ang^3
#
#
#
# Elastic Constant Matrix: (Units=GPa)
#
#
# Indices 1 2 3 4 5 6 
#
# 1 100.0629 39.4751 41.2305 0.0000 0.0000 0.0000
# 2 39.4751 91.0363 33.6006 0.0000 0.0000 0.0000
# 3 41.2305 33.6006 59.2509 0.0000 0.0000 0.0000
# 4 0.0000 0.0000 0.0000 27.2350 0.0000 0.0000
# 5 0.0000 0.0000 0.0000 0.0000 35.6727 0.0000
# 6 0.0000 0.0000 0.0000 0.0000 0.0000 27.1802
#
#
#
# Elastic Compliance Matrix: (Units=1/GPa)
#
#
# Indices 1 2 3 4 5 6 
#
# 1 0.014755 -0.003299 -0.008397 0.000000 0.000000 0.000000
# 2 -0.003299 0.014630 -0.006001 0.000000 0.000000 0.000000
# 3 -0.008397 -0.006001 0.026123 0.000000 0.000000 0.000000
# 4 0.000000 0.000000 0.000000 0.036718 0.000000 0.000000
# 5 0.000000 0.000000 0.000000 0.000000 0.028033 0.000000
# 6 0.000000 0.000000 0.000000 0.000000 0.000000 0.036792
#
#
# Mechanical properties :
#
#
# Convention : Reuss Voigt Hill
#
# Bulk Modulus (GPa) = 49.71332 53.21804 51.46568
# Shear Modulus (GPa) = 25.10694 27.08715 26.09705
#
# Velocity S-wave (km/s) = 3.60144 3.74077 3.67177
# Velocity P-wave (km/s) = 6.55561 6.79342 6.67557
#
# Compressibility (1/GPa) = 0.02011533
#
# Stress axis : x y z
#
# Youngs Moduli (GPa) = 67.77393 68.35277 38.27987
#
# Poissons Ratio (x) = 0.22549 0.32142
# Poissons Ratio (y) = 0.22358 0.22972
# Poissons Ratio (z) = 0.56907 0.41018
#
# Static dielectric constant tensor:
#      x y z
#    x 3.557700 0.000000 0.000000 
#    y 0.000000 3.464160 0.000000 
#    z 0.000000 0.000000 3.270750 
# 
# 
# High freq. dielectric constant tensor:
#      x y z
#    x 1.757440 0.000000 0.000000 
#    y 0.000000 1.748790 0.000000 
#    z 0.000000 0.000000 1.729050 
# 
# From -- ./inp_files/8270.got.cif
#   From: 2010.06.25/outbox.cif.g09.slc.cpg/sg43_5_cif.got.tgz:8270.got - 2010.06.26 16:48:59.
