data_PCOD8186661
_publ_section_title
;
Structure prediction by ZEFSAII (Michael W. Deem and Ramdas Pophale) SiO2 
 PCOD8186661
Probable space group: F M M 2
;
_chemical_formula_sum "Si O2"
_cell_formula_units_Z 80
_cell_length_a 25.491285
_cell_length_b 8.623026
_cell_length_c 18.244453
_cell_angle_alpha 90.000000
_cell_angle_beta 90.000000
_cell_angle_gamma 90.000000
_cell_volume 4010.349946
_symmetry_space_group_name_H-M "F M M 2"
_symmetry_group_IT_number 42
_symmetry_cell_setting 'orthorhombic'
loop_
_space_group_symop_operation_xyz
x,y,z
-x,-y,z
-x,y,z
x,-y,z
x,1/2+y,1/2+z
-x,1/2-y,1/2+z
-x,1/2+y,1/2+z
x,1/2-y,1/2+z
1/2+x,y,1/2+z
1/2-x,-y,1/2+z
1/2-x,y,1/2+z
1/2+x,-y,1/2+z
1/2+x,1/2+y,z
1/2-x,1/2-y,z
1/2-x,1/2+y,z
1/2+x,1/2-y,z
loop_
_atom_site_type_symbol
_atom_site_label
_atom_site_fract_x
_atom_site_fract_y
_atom_site_fract_z
Si Si1 0.000000 0.183708 0.080060
Si Si2 0.102228 0.680228 0.663058
Si Si3 0.193996 0.317704 0.075791
Si Si4 0.806388 0.316859 0.420205
Si Si5 0.899558 0.679981 0.833904
Si Si6 0.500000 0.815987 0.412884
O O1 0.948171 0.247608 0.120256
O O2 0.000000 0.000000 0.086366
O O3 0.000000 0.241047 0.996697
O O4 0.111857 0.500000 0.644965
O O5 0.152859 0.776581 0.638796
O O6 0.092240 0.707693 0.748282
O O7 0.199423 0.500000 0.066316
O O8 0.250000 0.250000 0.099480
O O9 0.174725 0.246138 0.998892
O O10 0.802726 0.500000 0.424479
O O11 0.750000 0.250000 0.398189
O O12 0.847119 0.267023 0.358306
O O13 0.894451 0.500000 0.853493
O O14 0.948834 0.750141 0.875014
O O15 0.500000 0.000000 0.407494
#
# Coordination Sequence:
#
# PCOD8186661 Si02
#       6
#     8  16  16  16  16   8
#     4   9  19  37  61  85 110 149 194 235 285 342
#     4  10  21  39  61  85 117 156 196 240 292 348
#     4  11  22  38  61  88 118 153 196 243 292 350
#     4  11  22  39  62  87 118 155 198 246 296 352
#     4  11  23  39  60  87 120 158 200 245 294 350
#     4  11  22  37  61  89 118 155 200 247 295 352
#
# _framework density 19.948383
#
# number of rings (size 3 to 8) (size 9 to 14) (size 15 to 20)
#    0.000    1.400    0.000    7.500    0.000    5.600 
#    0.000    1.500    0.000    0.000    0.000    0.000 
#    0.000    0.000    0.000    0.000    0.000    0.000 
#
# Total GULP energy -248124.950939 kJ/mol
# GULP energy per Si atom -12406.247547 kJ/mol
# Density = 1.990298 g / cm^3
# Si number density = 19.948383 Si / 1000 Ang^3
#
#
#
# Elastic Constant Matrix: (Units=GPa)
#
#
# Indices 1 2 3 4 5 6 
#
# 1 143.9848 57.2689 77.0442 0.0000 0.0000 0.0000
# 2 57.2689 143.9188 57.5451 0.0000 0.0000 0.0000
# 3 77.0442 57.5451 116.2817 0.0000 0.0000 0.0000
# 4 0.0000 0.0000 0.0000 29.7642 0.0000 0.0000
# 5 0.0000 0.0000 0.0000 0.0000 -13.6164 0.0000
# 6 0.0000 0.0000 0.0000 0.0000 0.0000 35.2940
#
#
#
# Elastic Compliance Matrix: (Units=1/GPa)
#
#
# Indices 1 2 3 4 5 6 
#
# 1 0.011140 -0.001847 -0.006467 0.000000 0.000000 0.000000
# 2 -0.001847 0.008969 -0.003215 0.000000 0.000000 0.000000
# 3 -0.006467 -0.003215 0.014475 0.000000 0.000000 0.000000
# 4 0.000000 0.000000 0.000000 0.033597 0.000000 0.000000
# 5 0.000000 0.000000 0.000000 0.000000 -0.073441 0.000000
# 6 0.000000 0.000000 0.000000 0.000000 0.000000 0.028333
#
#
# Mechanical properties :
#
#
# Convention : Reuss Voigt Hill
#
# Bulk Modulus (GPa) = 86.75331 87.54462 87.14896
# Shear Modulus (GPa) = 100.05192 24.44352 62.24772
#
# Velocity S-wave (km/s) = 7.08973 3.50428 5.59215
# Velocity P-wave (km/s) = 10.51677 7.76879 9.24544
#
# Compressibility (1/GPa) = 0.01152694
#
# Stress axis : x y z
#
# Youngs Moduli (GPa) = 89.76407 111.49875 69.08251
#
# Poissons Ratio (x) = 0.20596 0.44676
# Poissons Ratio (y) = 0.16581 0.22207
# Poissons Ratio (z) = 0.58051 0.35841
#
# Static dielectric constant tensor:
#      x y z
#    x 4.389780 0.000000 0.000000 
#    y 0.000000 3.659590 0.000000 
#    z 0.000000 0.000000 3.662260 
# 
# 
# High freq. dielectric constant tensor:
#      x y z
#    x 1.794400 0.000000 0.000000 
#    y 0.000000 1.780100 0.000000 
#    z 0.000000 0.000000 1.782080 
# 
# From -- ./inp_files/22450.got.cif
#   From: 2010.03.12/outbox.cif.g09.slc.cpg/sg42_12_cif.got.tgz:22450.got - 2010.04.14 02:04:31.
