data_PCOD8186558
_publ_section_title
;
Structure prediction by ZEFSAII (Michael W. Deem and Ramdas Pophale) SiO2 
 PCOD8186558
Probable space group: F M M 2
;
_chemical_formula_sum "Si O2"
_cell_formula_units_Z 96
_cell_length_a 27.728200
_cell_length_b 9.145774
_cell_length_c 20.188982
_cell_angle_alpha 90.000000
_cell_angle_beta 90.000000
_cell_angle_gamma 90.000000
_cell_volume 5119.842064
_symmetry_space_group_name_H-M "F M M 2"
_symmetry_group_IT_number 42
_symmetry_cell_setting 'orthorhombic'
loop_
_space_group_symop_operation_xyz
x,y,z
-x,-y,z
-x,y,z
x,-y,z
x,1/2+y,1/2+z
-x,1/2-y,1/2+z
-x,1/2+y,1/2+z
x,1/2-y,1/2+z
1/2+x,y,1/2+z
1/2-x,-y,1/2+z
1/2-x,y,1/2+z
1/2+x,-y,1/2+z
1/2+x,1/2+y,z
1/2-x,1/2-y,z
1/2-x,1/2+y,z
1/2+x,1/2-y,z
loop_
_atom_site_type_symbol
_atom_site_label
_atom_site_fract_x
_atom_site_fract_y
_atom_site_fract_z
Si Si1 0.800321 0.672325 0.235690
Si Si2 0.642229 0.670574 0.603977
Si Si3 0.701796 0.833327 0.980711
Si Si4 0.857228 0.331826 0.849050
Si Si5 0.444955 0.169650 0.398194
Si Si6 0.945717 0.670725 0.550177
O O1 0.791644 0.500000 0.245539
O O2 0.750000 0.750000 0.220633
O O3 0.835866 0.706043 0.175166
O O4 0.823611 0.738813 0.301060
O O5 0.634245 0.500000 0.592314
O O6 0.677982 0.732741 0.547296
O O7 0.590296 0.746048 0.599040
O O8 0.750000 0.750000 0.961604
O O9 0.663823 0.816019 0.922167
O O10 0.716616 0.000000 0.992511
O O11 0.859040 0.500000 0.825498
O O12 0.911097 0.265854 0.850489
O O13 0.500000 0.196950 0.376139
O O14 0.437787 0.218932 0.474186
O O15 0.431233 0.000000 0.389746
O O16 0.936125 0.500000 0.557324
O O17 0.000000 0.710242 0.572278
#
# Coordination Sequence:
#
# PCOD8186558 Si02
#       6
#    16  16  16  16  16  16
#     4  11  24  41  60  81 113 154 194 235 284 342
#     4  10  21  38  57  82 113 147 188 233 282 336
#     4  10  21  35  53  80 109 139 181 232 280 329
#     4  11  22  37  58  84 115 149 190 236 283 339
#     4   9  18  34  57  86 118 150 186 231 286 342
#     4   9  18  33  56  87 118 148 184 229 282 337
#
# _framework density 18.750578000000001
#
# number of rings (size 3 to 8) (size 9 to 14) (size 15 to 20)
#    0.000    2.000    1.667    3.000    0.000    5.333 
#    0.000    2.500    0.000    1.000    0.000    0.000 
#    0.000    0.000    0.000    0.000    0.000    0.000 
#
# Total GULP energy -297676.200792 kJ/mol
# GULP energy per Si atom -12403.175033 kJ/mol
# Density = 1.870790 g / cm^3
# Si number density = 18.750578 Si / 1000 Ang^3
#
#
#
# Elastic Constant Matrix: (Units=GPa)
#
#
# Indices 1 2 3 4 5 6 
#
# 1 117.0494 56.7443 16.8953 0.0000 0.0000 0.0000
# 2 56.7443 82.0645 32.9916 0.0000 0.0000 0.0000
# 3 16.8953 32.9916 51.5399 0.0000 0.0000 0.0000
# 4 0.0000 0.0000 0.0000 28.0846 0.0000 0.0000
# 5 0.0000 0.0000 0.0000 0.0000 31.4216 0.0000
# 6 0.0000 0.0000 0.0000 0.0000 0.0000 38.1113
#
#
#
# Elastic Compliance Matrix: (Units=1/GPa)
#
#
# Indices 1 2 3 4 5 6 
#
# 1 0.013004 -0.009800 0.002010 0.000000 0.000000 0.000000
# 2 -0.009800 0.023793 -0.012018 0.000000 0.000000 0.000000
# 3 0.002010 -0.012018 0.026436 0.000000 0.000000 0.000000
# 4 0.000000 0.000000 0.000000 0.035607 0.000000 0.000000
# 5 0.000000 0.000000 0.000000 0.000000 0.031825 0.000000
# 6 0.000000 0.000000 0.000000 0.000000 0.000000 0.026239
#
#
# Mechanical properties :
#
#
# Convention : Reuss Voigt Hill
#
# Bulk Modulus (GPa) = 42.33988 51.54624 46.94306
# Shear Modulus (GPa) = 24.46267 29.12500 26.79383
#
# Velocity S-wave (km/s) = 3.61589 3.94545 3.78426
# Velocity P-wave (km/s) = 6.32949 6.95022 6.64711
#
# Compressibility (1/GPa) = 0.02361840
#
# Stress axis : x y z
#
# Youngs Moduli (GPa) = 76.89831 42.02855 37.82670
#
# Poissons Ratio (x) = 0.41188 -0.07604
# Poissons Ratio (y) = 0.75361 0.45460
# Poissons Ratio (z) = -0.15459 0.50510
#
# Static dielectric constant tensor:
#      x y z
#    x 3.454660 0.000000 0.000000 
#    y 0.000000 3.429180 0.000000 
#    z 0.000000 0.000000 3.279900 
# 
# 
# High freq. dielectric constant tensor:
#      x y z
#    x 1.738780 0.000000 0.000000 
#    y 0.000000 1.727650 0.000000 
#    z 0.000000 0.000000 1.713340 
# 
# From -- ./inp_files/23679.got.cif
#   From: 2010.03.12/outbox.cif.g09.slc.cpg/sg42_12_cif.got.tgz:23679.got - 2010.04.14 02:04:31.
