data_PCOD8186471
_publ_section_title
;
Structure prediction by ZEFSAII (Michael W. Deem and Ramdas Pophale) SiO2 
 PCOD8186471
Probable space group: F M M 2
;
_chemical_formula_sum "Si O2"
_cell_formula_units_Z 112
_cell_length_a 25.112653
_cell_length_b 13.957802
_cell_length_c 13.576675
_cell_angle_alpha 90.000000
_cell_angle_beta 90.000000
_cell_angle_gamma 90.000000
_cell_volume 4758.861341
_symmetry_space_group_name_H-M "F M M 2"
_symmetry_group_IT_number 42
_symmetry_cell_setting 'orthorhombic'
loop_
_space_group_symop_operation_xyz
x,y,z
-x,-y,z
-x,y,z
x,-y,z
x,1/2+y,1/2+z
-x,1/2-y,1/2+z
-x,1/2+y,1/2+z
x,1/2-y,1/2+z
1/2+x,y,1/2+z
1/2-x,-y,1/2+z
1/2-x,y,1/2+z
1/2+x,-y,1/2+z
1/2+x,1/2+y,z
1/2-x,1/2-y,z
1/2-x,1/2+y,z
1/2+x,1/2-y,z
loop_
_atom_site_type_symbol
_atom_site_label
_atom_site_fract_x
_atom_site_fract_y
_atom_site_fract_z
Si Si1 0.558859 0.386326 0.587170
Si Si2 0.768811 0.108716 0.920429
Si Si3 0.332397 0.392964 0.517988
Si Si4 0.593213 0.216731 0.278761
Si Si5 0.061137 0.106440 0.175247
Si Si6 0.206510 0.324889 0.215173
Si Si7 0.384799 0.385514 0.972827
O O1 0.500000 0.358501 0.545225
O O2 0.565779 0.500000 0.592717
O O3 0.607903 0.344680 0.518351
O O4 0.563580 0.348008 0.697881
O O5 0.769010 0.112454 0.802937
O O6 0.823064 0.149188 0.969631
O O7 0.763953 0.000000 0.957028
O O8 0.713776 0.162538 0.955120
O O9 0.338878 0.500000 0.476773
O O10 0.311168 0.396733 0.629841
O O11 0.569971 0.324677 0.269265
O O12 0.655529 0.230147 0.257751
O O13 0.583132 0.169167 0.385661
O O14 0.000000 0.104345 0.144158
O O15 0.080899 0.000000 0.204541
O O16 0.092336 0.145357 0.078853
O O17 0.250000 0.250000 0.175433
O O18 0.390007 0.500000 0.955116
#
# Coordination Sequence:
#
# PCOD8186471 Si02
#       7
#    16  16  16  16  16  16  16
#     4   9  17  31  55  88 122 156 201 254 306 363
#     4   9  18  35  57  81 115 156 196 244 300 363
#     4   9  18  33  55  83 116 156 192 237 304 365
#     4  10  20  37  59  87 121 162 206 256 317 367
#     4  10  22  39  60  90 125 162 211 264 310 369
#     4  10  21  34  51  84 116 149 191 244 297 358
#     4   9  19  37  63  92 123 161 209 262 314 370
#
# _framework density 23.535041
#
# number of rings (size 3 to 8) (size 9 to 14) (size 15 to 20)
#    0.000    2.571    0.000    1.286    2.000    5.143 
#    7.714    2.143    0.000    1.714    0.000    2.000 
#    0.000    0.000    0.000    0.000    0.000    0.857 
#
# Total GULP energy -346944.087374 kJ/mol
# GULP energy per Si atom -12390.860263 kJ/mol
# Density = 2.348147 g / cm^3
# Si number density = 23.535041 Si / 1000 Ang^3
#
#
#
# Elastic Constant Matrix: (Units=GPa)
#
#
# Indices 1 2 3 4 5 6 
#
# 1 159.3484 22.5446 46.1807 0.0000 0.0000 0.0000
# 2 22.5446 56.3463 18.7056 0.0000 0.0000 0.0000
# 3 46.1807 18.7056 74.8427 0.0000 0.0000 0.0000
# 4 0.0000 0.0000 0.0000 22.6652 0.0000 0.0000
# 5 0.0000 0.0000 0.0000 0.0000 30.9850 0.0000
# 6 0.0000 0.0000 0.0000 0.0000 0.0000 28.5889
#
#
#
# Elastic Compliance Matrix: (Units=1/GPa)
#
#
# Indices 1 2 3 4 5 6 
#
# 1 0.007781 -0.001657 -0.004387 0.000000 0.000000 0.000000
# 2 -0.001657 0.019706 -0.003903 0.000000 0.000000 0.000000
# 3 -0.004387 -0.003903 0.017044 0.000000 0.000000 0.000000
# 4 0.000000 0.000000 0.000000 0.044121 0.000000 0.000000
# 5 0.000000 0.000000 0.000000 0.000000 0.032274 0.000000
# 6 0.000000 0.000000 0.000000 0.000000 0.000000 0.034979
#
#
# Mechanical properties :
#
#
# Convention : Reuss Voigt Hill
#
# Bulk Modulus (GPa) = 40.58888 51.71102 46.14995
# Shear Modulus (GPa) = 27.17233 29.98825 28.58029
#
# Velocity S-wave (km/s) = 3.40155 3.57346 3.48856
# Velocity P-wave (km/s) = 5.71935 6.24866 5.98986
#
# Compressibility (1/GPa) = 0.02463729
#
# Stress axis : x y z
#
# Youngs Moduli (GPa) = 128.51043 50.74605 58.67189
#
# Poissons Ratio (x) = 0.08408 0.25741
# Poissons Ratio (y) = 0.21293 0.22898
# Poissons Ratio (z) = 0.56382 0.19805
#
# Static dielectric constant tensor:
#      x y z
#    x 4.712760 0.000000 0.000000 
#    y 0.000000 4.070860 0.000000 
#    z 0.000000 0.000000 3.939220 
# 
# 
# High freq. dielectric constant tensor:
#      x y z
#    x 1.944560 0.000000 0.000000 
#    y 0.000000 1.927320 0.000000 
#    z 0.000000 0.000000 1.903040 
# 
# From -- ./inp_files/16553.got.cif
#   From: 2010.03.12/outbox.cif.g09.slc.cpg/sg42_9_cif.got.tgz:16553.got - 2010.04.14 02:04:31.
