data_PCOD8186760
_publ_section_title
;
Structure prediction by ZEFSAII (Michael W. Deem and Ramdas Pophale) SiO2 
 PCOD8186760
Probable space group: F M M 2
;
_chemical_formula_sum "Si O2"
_cell_formula_units_Z 112
_cell_length_a 15.593738
_cell_length_b 23.304860
_cell_length_c 13.894041
_cell_angle_alpha 90.000000
_cell_angle_beta 90.000000
_cell_angle_gamma 90.000000
_cell_volume 5049.231786
_symmetry_space_group_name_H-M "F M M 2"
_symmetry_group_IT_number 42
_symmetry_cell_setting 'orthorhombic'
loop_
_space_group_symop_operation_xyz
x,y,z
-x,-y,z
-x,y,z
x,-y,z
x,1/2+y,1/2+z
-x,1/2-y,1/2+z
-x,1/2+y,1/2+z
x,1/2-y,1/2+z
1/2+x,y,1/2+z
1/2-x,-y,1/2+z
1/2-x,y,1/2+z
1/2+x,-y,1/2+z
1/2+x,1/2+y,z
1/2-x,1/2-y,z
1/2-x,1/2+y,z
1/2+x,1/2-y,z
loop_
_atom_site_type_symbol
_atom_site_label
_atom_site_fract_x
_atom_site_fract_y
_atom_site_fract_z
Si Si1 0.189097 0.632246 0.513450
Si Si2 0.255321 0.067396 0.705989
Si Si3 0.596409 0.260314 0.096342
Si Si4 0.351514 0.743920 0.806949
Si Si5 0.906521 0.935846 0.347711
Si Si6 0.134655 0.833563 0.460151
Si Si7 0.600116 0.613435 0.830369
O O1 0.225592 0.596620 0.603409
O O2 0.152584 0.693721 0.541069
O O3 0.266848 0.650193 0.444991
O O4 0.126001 0.596281 0.441501
O O5 0.333823 0.086615 0.774681
O O6 0.162900 0.083707 0.751689
O O7 0.256979 0.000000 0.688240
O O8 0.500000 0.276362 0.072799
O O9 0.615026 0.267723 0.207139
O O10 0.616641 0.194029 0.065215
O O11 0.250000 0.750000 0.809775
O O12 0.394764 0.784569 0.886082
O O13 0.387959 0.681046 0.822789
O O14 0.914959 0.893079 0.439230
O O15 0.000000 0.936604 0.295836
O O16 0.883412 0.000000 0.384750
O O17 0.500000 0.596241 0.811622
#
# Coordination Sequence:
#
# PCOD8186760 Si02
#       7
#    16  16  16  16  16  16  16
#     4  12  24  42  68 100 137 182 237 297 355 427
#     4  11  26  48  73 100 138 187 237 297 372 442
#     4  12  25  37  61 101 140 179 229 286 353 431
#     4  12  22  41  65  94 137 189 229 280 356 427
#     4  10  22  42  69  99 134 179 234 293 351 419
#     4  12  22  41  66  96 135 185 228 277 348 427
#     4  12  25  45  73 108 147 189 242 305 370 437
#
# _framework density 22.181591000000001
#
# number of rings (size 3 to 8) (size 9 to 14) (size 15 to 20)
#    0.000    0.429    4.286    5.143    0.000    5.429 
#    0.000    0.714    0.000    0.000    0.000    0.000 
#    0.000    0.000    0.000    0.000    0.000    0.000 
#
# Total GULP energy -347052.424769 kJ/mol
# GULP energy per Si atom -12394.729456 kJ/mol
# Density = 2.213110 g / cm^3
# Si number density = 22.181591 Si / 1000 Ang^3
#
#
#
# Elastic Constant Matrix: (Units=GPa)
#
#
# Indices 1 2 3 4 5 6 
#
# 1 151.6122 35.3346 39.7064 0.0000 0.0000 0.0000
# 2 35.3346 109.7385 38.5383 0.0000 0.0000 0.0000
# 3 39.7064 38.5383 89.0926 0.0000 0.0000 0.0000
# 4 0.0000 0.0000 0.0000 31.8965 0.0000 0.0000
# 5 0.0000 0.0000 0.0000 0.0000 11.3125 0.0000
# 6 0.0000 0.0000 0.0000 0.0000 0.0000 6.6735
#
#
#
# Elastic Compliance Matrix: (Units=1/GPa)
#
#
# Indices 1 2 3 4 5 6 
#
# 1 0.007670 -0.001497 -0.002771 0.000000 0.000000 0.000000
# 2 -0.001497 0.011037 -0.004107 0.000000 0.000000 0.000000
# 3 -0.002771 -0.004107 0.014236 0.000000 0.000000 0.000000
# 4 0.000000 0.000000 0.000000 0.031351 0.000000 0.000000
# 5 0.000000 0.000000 0.000000 0.000000 0.088398 0.000000
# 6 0.000000 0.000000 0.000000 0.000000 0.000000 0.149847
#
#
# Mechanical properties :
#
#
# Convention : Reuss Voigt Hill
#
# Bulk Modulus (GPa) = 61.75372 64.17797 62.96585
# Shear Modulus (GPa) = 15.39947 25.76742 20.58345
#
# Velocity S-wave (km/s) = 2.63771 3.41201 3.04953
# Velocity P-wave (km/s) = 6.09731 6.67220 6.39122
#
# Compressibility (1/GPa) = 0.01619336
#
# Stress axis : x y z
#
# Youngs Moduli (GPa) = 130.37289 90.60578 70.24495
#
# Poissons Ratio (x) = 0.13560 0.19466
# Poissons Ratio (y) = 0.19511 0.28851
# Poissons Ratio (z) = 0.36128 0.37213
#
# Static dielectric constant tensor:
#      x y z
#    x 4.236530 0.000000 0.000000 
#    y 0.000000 3.929340 0.000000 
#    z 0.000000 0.000000 4.159370 
# 
# 
# High freq. dielectric constant tensor:
#      x y z
#    x 1.885370 0.000000 0.000000 
#    y 0.000000 1.867740 0.000000 
#    z 0.000000 0.000000 1.871050 
# 
# From -- ./inp_files/14216.got.cif
#   From: 2010.03.12/outbox.cif.g09.slc.cpg/sg42_8_cif.got.tgz:14216.got - 2010.04.14 02:04:31.
