data_PCOD8186260
_publ_section_title
;
Structure prediction by ZEFSAII (Michael W. Deem and Ramdas Pophale) SiO2 
 PCOD8186260
Probable space group: F M M 2
;
_chemical_formula_sum "Si O2"
_cell_formula_units_Z 88
_cell_length_a 30.630583
_cell_length_b 13.090940
_cell_length_c 12.213621
_cell_angle_alpha 90.000000
_cell_angle_beta 90.000000
_cell_angle_gamma 90.000000
_cell_volume 4897.455907
_symmetry_space_group_name_H-M "F M M 2"
_symmetry_group_IT_number 42
_symmetry_cell_setting 'orthorhombic'
loop_
_space_group_symop_operation_xyz
x,y,z
-x,-y,z
-x,y,z
x,-y,z
x,1/2+y,1/2+z
-x,1/2-y,1/2+z
-x,1/2+y,1/2+z
x,1/2-y,1/2+z
1/2+x,y,1/2+z
1/2-x,-y,1/2+z
1/2-x,y,1/2+z
1/2+x,-y,1/2+z
1/2+x,1/2+y,z
1/2-x,1/2-y,z
1/2-x,1/2+y,z
1/2+x,1/2-y,z
loop_
_atom_site_type_symbol
_atom_site_label
_atom_site_fract_x
_atom_site_fract_y
_atom_site_fract_z
Si Si1 0.388601 0.239129 0.553680
Si Si2 0.378844 0.384239 0.266491
Si Si3 0.250000 0.250000 0.023660
Si Si4 0.329192 0.708398 0.869726
Si Si5 0.450171 0.114846 0.949381
Si Si6 0.684904 0.117160 0.143355
O O1 0.393939 0.157456 0.648937
O O2 0.371823 0.180892 0.443573
O O3 0.433926 0.299899 0.535900
O O4 0.352932 0.325899 0.577949
O O5 0.362211 0.500000 0.254699
O O6 0.338096 0.319609 0.314245
O O7 0.421618 0.375924 0.340378
O O8 0.286943 0.295900 0.945802
O O9 0.268659 0.162541 0.104145
O O10 0.322056 0.626666 0.773752
O O11 0.500000 0.139311 0.918785
O O12 0.445857 0.000000 0.998721
O O13 0.683140 0.000000 0.109082
#
# Coordination Sequence:
#
# PCOD8186260 Si02
#       6
#    16  16   8  16  16  16
#     4   9  18  33  52  74 100 130 166 205 246 293
#     4   9  18  33  53  75 100 133 168 205 248 294
#     4  10  20  34  48  70  96 124 162 202 244 292
#     4   9  19  34  49  69  97 125 162 204 245 293
#     4   9  17  30  50  76 103 132 167 204 245 295
#     4  10  20  34  51  70  96 129 164 203 245 292
#
# _framework density 17.968512
#
# number of rings (size 3 to 8) (size 9 to 14) (size 15 to 20)
#    0.000    2.727    0.000    1.091    0.000    6.545 
#    0.000   12.727    0.000    0.000    0.000    0.000 
#    0.000    0.000    0.000    0.000    0.000    0.000 
#
# Total GULP energy -272725.731433 kJ/mol
# GULP energy per Si atom -12396.624156 kJ/mol
# Density = 1.792762 g / cm^3
# Si number density = 17.968512 Si / 1000 Ang^3
#
#
#
# Elastic Constant Matrix: (Units=GPa)
#
#
# Indices 1 2 3 4 5 6 
#
# 1 81.9651 23.5195 15.8956 0.0000 0.0000 0.0000
# 2 23.5195 78.5732 25.1562 0.0000 0.0000 0.0000
# 3 15.8956 25.1562 87.3529 0.0000 0.0000 0.0000
# 4 0.0000 0.0000 0.0000 25.3765 0.0000 0.0000
# 5 0.0000 0.0000 0.0000 0.0000 17.5022 0.0000
# 6 0.0000 0.0000 0.0000 0.0000 0.0000 24.9169
#
#
#
# Elastic Compliance Matrix: (Units=1/GPa)
#
#
# Indices 1 2 3 4 5 6 
#
# 1 0.013506 -0.003587 -0.001425 0.000000 0.000000 0.000000
# 2 -0.003587 0.014972 -0.003659 0.000000 0.000000 0.000000
# 3 -0.001425 -0.003659 0.012761 0.000000 0.000000 0.000000
# 4 0.000000 0.000000 0.000000 0.039407 0.000000 0.000000
# 5 0.000000 0.000000 0.000000 0.000000 0.057136 0.000000
# 6 0.000000 0.000000 0.000000 0.000000 0.000000 0.040133
#
#
# Mechanical properties :
#
#
# Convention : Reuss Voigt Hill
#
# Bulk Modulus (GPa) = 41.84472 41.89264 41.86868
# Shear Modulus (GPa) = 24.60377 25.78046 25.19211
#
# Velocity S-wave (km/s) = 3.70438 3.79193 3.74841
# Velocity P-wave (km/s) = 6.45251 6.52202 6.48736
#
# Compressibility (1/GPa) = 0.02389788
#
# Stress axis : x y z
#
# Youngs Moduli (GPa) = 74.04239 66.79108 78.36479
#
# Poissons Ratio (x) = 0.23955 0.11165
# Poissons Ratio (y) = 0.26556 0.28674
# Poissons Ratio (z) = 0.10549 0.24439
#
# Static dielectric constant tensor:
#      x y z
#    x 3.273230 0.000000 0.000000 
#    y 0.000000 3.210210 0.000000 
#    z 0.000000 0.000000 3.477960 
# 
# 
# High freq. dielectric constant tensor:
#      x y z
#    x 1.684600 0.000000 0.000000 
#    y 0.000000 1.679150 0.000000 
#    z 0.000000 0.000000 1.704540 
# 
# From -- ./inp_files/10984.got.cif
#   From: 2010.03.12/outbox.cif.g09.slc.cpg/sg42_6_cif.got.tgz:10984.got - 2010.04.14 02:04:31.
