data_PCOD8186468
_publ_section_title
;
Structure prediction by ZEFSAII (Michael W. Deem and Ramdas Pophale) SiO2 
 PCOD8186468
Probable space group: F M M 2
;
_chemical_formula_sum "Si O2"
_cell_formula_units_Z 80
_cell_length_a 17.011819
_cell_length_b 26.063812
_cell_length_c 10.184264
_cell_angle_alpha 90.000000
_cell_angle_beta 90.000000
_cell_angle_gamma 90.000000
_cell_volume 4515.629862
_symmetry_space_group_name_H-M "F M M 2"
_symmetry_group_IT_number 42
_symmetry_cell_setting 'orthorhombic'
loop_
_space_group_symop_operation_xyz
x,y,z
-x,-y,z
-x,y,z
x,-y,z
x,1/2+y,1/2+z
-x,1/2-y,1/2+z
-x,1/2+y,1/2+z
x,1/2-y,1/2+z
1/2+x,y,1/2+z
1/2-x,-y,1/2+z
1/2-x,y,1/2+z
1/2+x,-y,1/2+z
1/2+x,1/2+y,z
1/2-x,1/2-y,z
1/2-x,1/2+y,z
1/2+x,1/2-y,z
loop_
_atom_site_type_symbol
_atom_site_label
_atom_site_fract_x
_atom_site_fract_y
_atom_site_fract_z
Si Si1 0.825013 0.717973 0.715580
Si Si2 0.293819 0.060081 0.429772
Si Si3 0.911220 0.868047 0.821580
Si Si4 0.088456 0.258395 0.454348
Si Si5 0.261008 0.614227 0.681805
O O1 0.750000 0.750000 0.760575
O O2 0.862101 0.745348 0.588206
O O3 0.881701 0.719051 0.842538
O O4 0.802555 0.659658 0.683403
O O5 0.380310 0.086508 0.418218
O O6 0.242943 0.074830 0.300944
O O7 0.244416 0.082501 0.549496
O O8 0.305191 0.000000 0.445258
O O9 0.907491 0.815786 0.901248
O O10 0.850919 0.864155 0.697613
O O11 0.000000 0.880017 0.773733
O O12 0.000000 0.242546 0.490352
#
# Coordination Sequence:
#
# PCOD8186468 Si02
#       5
#    16  16  16  16  16
#     4  12  21  36  58  82 114 149 189 226 279 337
#     4  10  20  37  59  86 112 146 192 239 286 337
#     4   9  20  37  56  82 113 146 189 232 280 338
#     4  11  23  37  55  82 116 153 189 231 279 338
#     4  10  21  36  58  86 111 147 190 235 283 333
#
# _framework density 17.716242999999999
#
# number of rings (size 3 to 8) (size 9 to 14) (size 15 to 20)
#    1.200    0.400    4.000    1.800    2.800    0.400 
#    0.000    0.000    0.000    1.200    0.000    0.000 
#    0.000    0.000    0.000    0.000    0.000    0.000 
#
# Total GULP energy -247879.304437 kJ/mol
# GULP energy per Si atom -12393.965222 kJ/mol
# Density = 1.767592 g / cm^3
# Si number density = 17.716243 Si / 1000 Ang^3
#
#
#
# Elastic Constant Matrix: (Units=GPa)
#
#
# Indices 1 2 3 4 5 6 
#
# 1 99.9288 19.6027 39.3212 0.0000 0.0000 0.0000
# 2 19.6027 49.3677 -4.9783 0.0000 0.0000 0.0000
# 3 39.3212 -4.9783 89.0827 0.0000 0.0000 0.0000
# 4 0.0000 0.0000 0.0000 22.7344 0.0000 0.0000
# 5 0.0000 0.0000 0.0000 0.0000 20.5800 0.0000
# 6 0.0000 0.0000 0.0000 0.0000 0.0000 13.7748
#
#
#
# Elastic Compliance Matrix: (Units=1/GPa)
#
#
# Indices 1 2 3 4 5 6 
#
# 1 0.013719 -0.006093 -0.006396 0.000000 0.000000 0.000000
# 2 -0.006093 0.023077 0.003979 0.000000 0.000000 0.000000
# 3 -0.006396 0.003979 0.014271 0.000000 0.000000 0.000000
# 4 0.000000 0.000000 0.000000 0.043986 0.000000 0.000000
# 5 0.000000 0.000000 0.000000 0.000000 0.048591 0.000000
# 6 0.000000 0.000000 0.000000 0.000000 0.000000 0.072596
#
#
# Mechanical properties :
#
#
# Convention : Reuss Voigt Hill
#
# Bulk Modulus (GPa) = 29.37091 38.47450 33.92271
# Shear Modulus (GPa) = 20.44080 23.71341 22.07711
#
# Velocity S-wave (km/s) = 3.40043 3.66254 3.53392
# Velocity P-wave (km/s) = 5.65966 6.29681 5.98672
#
# Compressibility (1/GPa) = 0.03404729
#
# Stress axis : x y z
#
# Youngs Moduli (GPa) = 72.89107 43.33397 70.07152
#
# Poissons Ratio (x) = 0.26401 0.44819
# Poissons Ratio (y) = 0.44409 -0.27881
# Poissons Ratio (z) = 0.46622 -0.17242
#
# Static dielectric constant tensor:
#      x y z
#    x 3.359450 0.000000 0.000000 
#    y 0.000000 3.246220 0.000000 
#    z 0.000000 0.000000 3.203580 
# 
# 
# High freq. dielectric constant tensor:
#      x y z
#    x 1.675340 0.000000 0.000000 
#    y 0.000000 1.675250 0.000000 
#    z 0.000000 0.000000 1.685360 
# 
# From -- ./inp_files/3508.got.cif
#   From: 2010.03.12/outbox.cif.g09.slc.cpg/sg42_2_cif.got.tgz:3508.got - 2010.04.14 02:04:31.
