data_PCOD8186139
_publ_section_title
;
Structure prediction by ZEFSAII (Michael W. Deem and Ramdas Pophale) SiO2 
 PCOD8186139
Probable space group: F M M 2
;
_chemical_formula_sum "Si O2"
_cell_formula_units_Z 112
_cell_length_a 14.229657
_cell_length_b 29.153172
_cell_length_c 14.832442
_cell_angle_alpha 90.000000
_cell_angle_beta 90.000000
_cell_angle_gamma 90.000000
_cell_volume 6153.084870
_symmetry_space_group_name_H-M "F M M 2"
_symmetry_group_IT_number 42
_symmetry_cell_setting 'orthorhombic'
loop_
_space_group_symop_operation_xyz
x,y,z
-x,-y,z
-x,y,z
x,-y,z
x,1/2+y,1/2+z
-x,1/2-y,1/2+z
-x,1/2+y,1/2+z
x,1/2-y,1/2+z
1/2+x,y,1/2+z
1/2-x,-y,1/2+z
1/2-x,y,1/2+z
1/2+x,-y,1/2+z
1/2+x,1/2+y,z
1/2-x,1/2-y,z
1/2-x,1/2+y,z
1/2+x,1/2-y,z
loop_
_atom_site_type_symbol
_atom_site_label
_atom_site_fract_x
_atom_site_fract_y
_atom_site_fract_z
Si Si1 0.703903 0.052133 0.873960
Si Si2 0.895379 0.132348 0.689191
Si Si3 0.894142 0.595758 0.384606
Si Si4 0.893420 0.374852 0.748362
Si Si5 0.395406 0.847592 0.556781
Si Si6 0.269867 0.301700 0.180978
Si Si7 0.109816 0.448211 0.059655
O O1 0.817404 0.055631 0.874850
O O2 0.657918 0.083537 0.797413
O O3 0.675277 0.000000 0.852572
O O4 0.664514 0.067611 0.970556
O O5 0.893372 0.126581 0.796040
O O6 0.829185 0.174019 0.662568
O O7 0.861292 0.085287 0.641312
O O8 0.000000 0.144911 0.656055
O O9 0.860423 0.627904 0.466604
O O10 0.000000 0.575709 0.400960
O O11 0.894968 0.384532 0.640116
O O12 0.830872 0.327907 0.759514
O O13 0.000000 0.368043 0.785303
O O14 0.500000 0.827757 0.541947
O O15 0.327632 0.805174 0.585925
O O16 0.250000 0.250000 0.210788
O O17 0.138138 0.500000 0.088172
O O18 0.000000 0.445328 0.037946
#
# Coordination Sequence:
#
# PCOD8186139 Si02
#       7
#    16  16  16  16  16  16  16
#     4  11  21  33  56  83 111 149 191 232 277 336
#     4  10  20  34  54  79 110 145 181 227 274 329
#     4  10  19  35  55  76 109 150 187 223 275 332
#     4   9  19  37  57  80 110 145 184 234 289 330
#     4   8  17  34  57  78 104 145 183 227 278 328
#     4  10  19  35  57  84 108 143 183 228 283 334
#     4   9  19  35  55  80 108 141 183 231 279 327
#
# _framework density 18.202252000000001
#
# number of rings (size 3 to 8) (size 9 to 14) (size 15 to 20)
#    0.857    1.571    1.429    1.286    0.000    2.857 
#    0.000    2.857    0.000    2.571    0.000    0.000 
#    0.000    0.000    0.000    0.000    0.000    0.000 
#
# Total GULP energy -346935.551798 kJ/mol
# GULP energy per Si atom -12390.555421 kJ/mol
# Density = 1.816082 g / cm^3
# Si number density = 18.202252 Si / 1000 Ang^3
#
#
#
# Elastic Constant Matrix: (Units=GPa)
#
#
# Indices 1 2 3 4 5 6 
#
# 1 107.8819 56.4894 28.1911 0.0000 0.0000 0.0000
# 2 56.4894 111.4463 42.0045 0.0000 0.0000 0.0000
# 3 28.1911 42.0045 77.9480 0.0000 0.0000 0.0000
# 4 0.0000 0.0000 0.0000 18.5869 0.0000 0.0000
# 5 0.0000 0.0000 0.0000 0.0000 21.7925 0.0000
# 6 0.0000 0.0000 0.0000 0.0000 0.0000 20.1705
#
#
#
# Elastic Compliance Matrix: (Units=1/GPa)
#
#
# Indices 1 2 3 4 5 6 
#
# 1 0.012742 -0.005925 -0.001415 0.000000 0.000000 0.000000
# 2 -0.005925 0.014015 -0.005410 0.000000 0.000000 0.000000
# 3 -0.001415 -0.005410 0.016256 0.000000 0.000000 0.000000
# 4 0.000000 0.000000 0.000000 0.053801 0.000000 0.000000
# 5 0.000000 0.000000 0.000000 0.000000 0.045887 0.000000
# 6 0.000000 0.000000 0.000000 0.000000 0.000000 0.049577
#
#
# Mechanical properties :
#
#
# Convention : Reuss Voigt Hill
#
# Bulk Modulus (GPa) = 57.10055 61.18290 59.14173
# Shear Modulus (GPa) = 22.35972 23.48272 22.92122
#
# Velocity S-wave (km/s) = 3.50866 3.59569 3.55244
# Velocity P-wave (km/s) = 6.91754 7.13614 7.02769
#
# Compressibility (1/GPa) = 0.01751297
#
# Stress axis : x y z
#
# Youngs Moduli (GPa) = 78.48231 71.35188 61.51562
#
# Poissons Ratio (x) = 0.42276 0.08707
# Poissons Ratio (y) = 0.46501 0.33277
# Poissons Ratio (z) = 0.11108 0.38598
#
# Static dielectric constant tensor:
#      x y z
#    x 3.690140 0.000000 0.000000 
#    y 0.000000 2.982310 0.000000 
#    z 0.000000 0.000000 3.245110 
# 
# 
# High freq. dielectric constant tensor:
#      x y z
#    x 1.727390 0.000000 0.000000 
#    y 0.000000 1.663520 0.000000 
#    z 0.000000 0.000000 1.694750 
# 
# From -- ./inp_files/14388.got.cif
#   From: 2010.03.12/outbox.cif.g09.slc.cpg/sg42_8_cif.got.tgz:14388.got - 2010.04.14 02:04:31.
