data_PCOD8186655
_publ_section_title
;
Structure prediction by ZEFSAII (Michael W. Deem and Ramdas Pophale) SiO2 
 PCOD8186655
Probable space group: F M M 2
;
_chemical_formula_sum "Si O2"
_cell_formula_units_Z 64
_cell_length_a 17.808212
_cell_length_b 7.542452
_cell_length_c 23.713592
_cell_angle_alpha 90.000000
_cell_angle_beta 90.000000
_cell_angle_gamma 90.000000
_cell_volume 3185.152391
_symmetry_space_group_name_H-M "F M M 2"
_symmetry_group_IT_number 42
_symmetry_cell_setting 'orthorhombic'
loop_
_space_group_symop_operation_xyz
x,y,z
-x,-y,z
-x,y,z
x,-y,z
x,1/2+y,1/2+z
-x,1/2-y,1/2+z
-x,1/2+y,1/2+z
x,1/2-y,1/2+z
1/2+x,y,1/2+z
1/2-x,-y,1/2+z
1/2-x,y,1/2+z
1/2+x,-y,1/2+z
1/2+x,1/2+y,z
1/2-x,1/2-y,z
1/2-x,1/2+y,z
1/2+x,1/2-y,z
loop_
_atom_site_type_symbol
_atom_site_label
_atom_site_fract_x
_atom_site_fract_y
_atom_site_fract_z
Si Si1 0.586796 0.500000 0.521500
Si Si2 0.664844 0.696494 0.089610
Si Si3 0.836968 0.206468 0.817329
Si Si4 0.586118 0.707214 0.700920
Si Si5 0.086616 0.500000 0.888721
O O1 0.500000 0.500000 0.539777
O O2 0.625273 0.325101 0.545601
O O3 0.597778 0.500000 0.455199
O O4 0.661447 0.500000 0.063231
O O5 0.750000 0.750000 0.100842
O O6 0.622926 0.690628 0.149260
O O7 0.750000 0.250000 0.815487
O O8 0.871782 0.263038 0.757733
O O9 0.875443 0.321504 0.865846
O O10 0.851815 0.000000 0.830612
O O11 0.500000 0.764918 0.707136
O O12 0.594387 0.500000 0.688493
O O13 0.000000 0.500000 0.871249
#
# Coordination Sequence:
#
# PCOD8186655 Si02
#       5
#     8  16  16  16   8
#     4  11  26  48  67  94 135 171 219 278 326 390
#     4  12  24  42  67  99 130 174 218 270 329 387
#     4  11  23  42  66 100 132 172 218 271 326 387
#     4  10  21  38  64  97 139 173 208 267 328 395
#     4  11  26  46  69  94 131 177 219 272 330 390
#
# _framework density 20.093229000000001
#
# number of rings (size 3 to 8) (size 9 to 14) (size 15 to 20)
#    0.000    1.000    3.750    2.250    1.750    7.500 
#    0.000    2.500    0.000    0.000    0.000    0.000 
#    0.000    0.000    0.000    0.000    0.000    0.000 
#
# Total GULP energy -198500.371936 kJ/mol
# GULP energy per Si atom -12406.273246 kJ/mol
# Density = 2.004750 g / cm^3
# Si number density = 20.093229 Si / 1000 Ang^3
#
#
#
# Elastic Constant Matrix: (Units=GPa)
#
#
# Indices 1 2 3 4 5 6 
#
# 1 175.4054 54.8170 69.3001 0.0000 0.0000 -0.0002
# 2 54.8170 143.9829 49.8731 0.0000 0.0000 -0.0005
# 3 69.3001 49.8731 94.4351 0.0000 0.0000 0.0000
# 4 0.0000 0.0000 0.0000 -7.1065 0.0000 0.0000
# 5 0.0000 0.0000 0.0000 0.0000 -20.2440 0.0000
# 6 -0.0002 -0.0005 0.0000 0.0000 0.0000 -19.1524
#
#
#
# Elastic Compliance Matrix: (Units=1/GPa)
#
#
# Indices 1 2 3 4 5 6 
#
# 1 0.008215 -0.001272 -0.005357 0.000000 0.000000 0.000000
# 2 -0.001272 0.008697 -0.003660 0.000000 0.000000 0.000000
# 3 -0.005357 -0.003660 0.016453 0.000000 0.000000 0.000000
# 4 0.000000 0.000000 0.000000 -0.140716 0.000000 0.000000
# 5 0.000000 0.000000 0.000000 0.000000 -0.049397 0.000000
# 6 0.000000 0.000000 0.000000 0.000000 0.000000 -0.052213
#
#
# Mechanical properties :
#
#
# Convention : Reuss Voigt Hill
#
# Bulk Modulus (GPa) = 78.19643 84.64485 81.42064
# Shear Modulus (GPa) = -27.15588 6.68832 -10.23378
#
# Velocity S-wave (km/s) = -3.68026 1.82644 -2.25925
# Velocity P-wave (km/s) = 4.57627 6.83120 5.81410
#
# Compressibility (1/GPa) = 0.01278831
#
# Stress axis : x y z
#
# Youngs Moduli (GPa) = 121.72918 114.97913 60.77965
#
# Poissons Ratio (x) = 0.14627 0.32557
# Poissons Ratio (y) = 0.15486 0.22243
# Poissons Ratio (z) = 0.65205 0.42078
#
# Static dielectric constant tensor:
#      x y z
#    x 3.914800 0.000000 0.000000 
#    y 0.000000 4.126110 0.000000 
#    z 0.000000 0.000000 3.535800 
# 
# 
# High freq. dielectric constant tensor:
#      x y z
#    x 1.805660 0.000000 0.000000 
#    y 0.000000 1.797860 0.000000 
#    z 0.000000 0.000000 1.779470 
# 
# From -- ./inp_files/23196.got.cif
#   From: 2010.03.12/outbox.cif.g09.slc.cpg/sg42_12_cif.got.tgz:23196.got - 2010.04.14 02:04:31.
