data_PCOD8186781
_publ_section_title
;
Structure prediction by ZEFSAII (Michael W. Deem and Ramdas Pophale) SiO2 
 PCOD8186781
Probable space group: F M M 2
;
_chemical_formula_sum "Si O2"
_cell_formula_units_Z 80
_cell_length_a 25.167729
_cell_length_b 17.556518
_cell_length_c 9.449260
_cell_angle_alpha 90.000000
_cell_angle_beta 90.000000
_cell_angle_gamma 90.000000
_cell_volume 4175.228169
_symmetry_space_group_name_H-M "F M M 2"
_symmetry_group_IT_number 42
_symmetry_cell_setting 'orthorhombic'
loop_
_space_group_symop_operation_xyz
x,y,z
-x,-y,z
-x,y,z
x,-y,z
x,1/2+y,1/2+z
-x,1/2-y,1/2+z
-x,1/2+y,1/2+z
x,1/2-y,1/2+z
1/2+x,y,1/2+z
1/2-x,-y,1/2+z
1/2-x,y,1/2+z
1/2+x,-y,1/2+z
1/2+x,1/2+y,z
1/2-x,1/2-y,z
1/2-x,1/2+y,z
1/2+x,1/2-y,z
loop_
_atom_site_type_symbol
_atom_site_label
_atom_site_fract_x
_atom_site_fract_y
_atom_site_fract_z
Si Si1 0.062265 0.088274 0.992330
Si Si2 0.776533 0.669231 0.486642
Si Si3 0.131810 0.335420 0.272442
Si Si4 0.330628 0.412221 0.497307
Si Si5 0.863900 0.835696 0.217445
O O1 0.082691 0.120374 0.842671
O O2 0.000000 0.102074 0.002001
O O3 0.077509 0.000000 0.003450
O O4 0.089147 0.132908 0.120882
O O5 0.750000 0.750000 0.452277
O O6 0.814396 0.645586 0.357625
O O7 0.732002 0.604919 0.500994
O O8 0.809021 0.674024 0.632186
O O9 0.119065 0.245903 0.278848
O O10 0.138086 0.361894 0.111606
O O11 0.339611 0.500000 0.533166
O O12 0.355105 0.393950 0.344930
#
# Coordination Sequence:
#
# PCOD8186781 Si02
#       5
#    16  16  16  16  16
#     4  10  23  44  65  84 115 157 199 250 312 362
#     4  11  21  37  59  85 121 166 200 226 286 356
#     4  11  22  39  63  86 119 158 201 246 290 359
#     4  12  24  35  57  93 125 155 199 251 292 344
#     4  11  22  39  63  86 119 158 201 246 290 359
#
# _framework density 19.160629
#
# number of rings (size 3 to 8) (size 9 to 14) (size 15 to 20)
#    0.000    1.000    4.000    3.600    0.000    7.200 
#    0.000    1.000    0.000    3.600    0.000    0.000 
#    0.000    0.000    0.000    0.000    0.000    0.000 
#
# Total GULP energy -248154.571916 kJ/mol
# GULP energy per Si atom -12407.728596 kJ/mol
# Density = 1.911702 g / cm^3
# Si number density = 19.160629 Si / 1000 Ang^3
#
#
#
# Elastic Constant Matrix: (Units=GPa)
#
#
# Indices 1 2 3 4 5 6 
#
# 1 90.0432 37.8676 33.8482 0.0000 0.0000 0.0000
# 2 37.8676 98.1806 13.0647 0.0000 0.0000 0.0000
# 3 33.8482 13.0647 96.6451 -0.0001 0.0000 0.0000
# 4 0.0000 0.0000 -0.0001 29.5567 0.0000 0.0000
# 5 0.0000 0.0000 0.0000 0.0000 16.4080 0.0000
# 6 0.0000 0.0000 0.0000 0.0000 0.0000 29.9458
#
#
#
# Elastic Compliance Matrix: (Units=1/GPa)
#
#
# Indices 1 2 3 4 5 6 
#
# 1 0.014994 -0.005177 -0.004552 0.000000 0.000000 0.000000
# 2 -0.005177 0.012160 0.000170 0.000000 0.000000 0.000000
# 3 -0.004552 0.000170 0.011918 0.000000 0.000000 0.000000
# 4 0.000000 0.000000 0.000000 0.033833 0.000000 0.000000
# 5 0.000000 0.000000 0.000000 0.000000 0.060946 0.000000
# 6 0.000000 0.000000 0.000000 0.000000 0.000000 0.033394
#
#
# Mechanical properties :
#
#
# Convention : Reuss Voigt Hill
#
# Bulk Modulus (GPa) = 50.11726 50.49221 50.30473
# Shear Modulus (GPa) = 25.90473 28.52132 27.21303
#
# Velocity S-wave (km/s) = 3.68091 3.86234 3.77272
# Velocity P-wave (km/s) = 6.65422 6.80438 6.72972
#
# Compressibility (1/GPa) = 0.01995321
#
# Stress axis : x y z
#
# Youngs Moduli (GPa) = 66.69277 82.23904 83.90454
#
# Poissons Ratio (x) = 0.42579 0.38189
# Poissons Ratio (y) = 0.34530 -0.01423
# Poissons Ratio (z) = 0.30355 -0.01394
#
# Static dielectric constant tensor:
#      x y z
#    x 3.395650 0.000000 0.000000 
#    y 0.000000 3.517990 0.000000 
#    z 0.000000 0.000000 3.612660 
# 
# 
# High freq. dielectric constant tensor:
#      x y z
#    x 1.728030 0.000000 0.000000 
#    y 0.000000 1.753590 0.000000 
#    z 0.000000 0.000000 1.759860 
# 
# From -- ./inp_files/3465.got.cif
#   From: 2010.03.12/outbox.cif.g09.slc.cpg/sg42_2_cif.got.tgz:3465.got - 2010.04.14 02:04:31.
