data_PCOD8186860
_publ_section_title
;
Structure prediction by ZEFSAII (Michael W. Deem and Ramdas Pophale) SiO2 
 PCOD8186860
Probable space group: F M M 2
;
_chemical_formula_sum "Si O2"
_cell_formula_units_Z 112
_cell_length_a 14.802804
_cell_length_b 27.861601
_cell_length_c 12.014672
_cell_angle_alpha 90.000000
_cell_angle_beta 90.000000
_cell_angle_gamma 90.000000
_cell_volume 4955.208995
_symmetry_space_group_name_H-M "F M M 2"
_symmetry_group_IT_number 42
_symmetry_cell_setting 'orthorhombic'
loop_
_space_group_symop_operation_xyz
x,y,z
-x,-y,z
-x,y,z
x,-y,z
x,1/2+y,1/2+z
-x,1/2-y,1/2+z
-x,1/2+y,1/2+z
x,1/2-y,1/2+z
1/2+x,y,1/2+z
1/2-x,-y,1/2+z
1/2-x,y,1/2+z
1/2+x,-y,1/2+z
1/2+x,1/2+y,z
1/2-x,1/2-y,z
1/2-x,1/2+y,z
1/2+x,1/2-y,z
loop_
_atom_site_type_symbol
_atom_site_label
_atom_site_fract_x
_atom_site_fract_y
_atom_site_fract_z
Si Si1 0.898687 0.892197 0.286370
Si Si2 0.140372 0.202285 0.676981
Si Si3 0.895985 0.948132 0.932994
Si Si4 0.601329 0.844234 0.403514
Si Si5 0.899836 0.387103 0.043298
Si Si6 0.264559 0.446265 0.139205
Si Si7 0.153166 0.807924 0.134586
O O1 0.873911 0.882353 0.414289
O O2 0.817905 0.926682 0.246490
O O3 0.900854 0.843415 0.215077
O O4 0.000000 0.914914 0.277061
O O5 0.109194 0.192206 0.802473
O O6 0.093839 0.166375 0.591317
O O7 0.108148 0.255335 0.640447
O O8 0.246678 0.195845 0.679976
O O9 0.875410 0.899454 0.862190
O O10 0.000000 0.948137 0.970768
O O11 0.874379 0.000000 0.872466
O O12 0.836580 0.943594 0.041860
O O13 0.500000 0.843123 0.450288
O O14 0.661283 0.827708 0.508344
O O15 0.825831 0.417057 0.111299
O O16 0.000000 0.410667 0.057696
O O17 0.232876 0.500000 0.164553
#
# Coordination Sequence:
#
# PCOD8186860 Si02
#       7
#    16  16  16  16  16  16  16
#     4  11  24  44  71 103 139 180 229 288 349 416
#     4  11  26  43  67  99 137 183 234 283 346 412
#     4   9  18  35  63  99 133 169 222 287 347 400
#     4  11  23  41  66  96 136 178 226 291 347 409
#     4  11  26  46  68  99 144 186 227 281 347 420
#     4  11  23  42  70 100 134 178 229 284 344 411
#     4  11  25  41  69  99 134 178 235 287 343 409
#
# _framework density 22.602475999999999
#
# number of rings (size 3 to 8) (size 9 to 14) (size 15 to 20)
#    0.000    1.286    2.857    1.286    6.000    5.143 
#    0.000    3.571    0.000    1.714    0.000    2.000 
#    0.000    0.000    0.000    0.000    0.000    0.000 
#
# Total GULP energy -347060.090397 kJ/mol
# GULP energy per Si atom -12395.003228 kJ/mol
# Density = 2.255103 g / cm^3
# Si number density = 22.602476 Si / 1000 Ang^3
#
#
#
# Elastic Constant Matrix: (Units=GPa)
#
#
# Indices 1 2 3 4 5 6 
#
# 1 85.1031 30.0920 31.4175 0.0000 0.0000 0.0000
# 2 30.0920 174.6581 49.9311 0.0000 0.0000 0.0000
# 3 31.4175 49.9311 114.7294 0.0000 0.0000 0.0000
# 4 0.0000 0.0000 0.0000 13.8897 0.0000 0.0000
# 5 0.0000 0.0000 0.0000 0.0000 35.0236 0.0000
# 6 0.0000 0.0000 0.0000 0.0000 0.0000 17.0051
#
#
#
# Elastic Compliance Matrix: (Units=1/GPa)
#
#
# Indices 1 2 3 4 5 6 
#
# 1 0.013380 -0.001437 -0.003039 0.000000 0.000000 0.000000
# 2 -0.001437 0.006693 -0.002520 0.000000 0.000000 0.000000
# 3 -0.003039 -0.002520 0.010645 0.000000 0.000000 0.000000
# 4 0.000000 0.000000 0.000000 0.071996 0.000000 0.000000
# 5 0.000000 0.000000 0.000000 0.000000 0.028552 0.000000
# 6 0.000000 0.000000 0.000000 0.000000 0.000000 0.058806
#
#
# Mechanical properties :
#
#
# Convention : Reuss Voigt Hill
#
# Bulk Modulus (GPa) = 59.77846 66.37463 63.07655
# Shear Modulus (GPa) = 23.85059 30.72036 27.28547
#
# Velocity S-wave (km/s) = 3.25194 3.69068 3.47823
# Velocity P-wave (km/s) = 6.37223 6.89864 6.64066
#
# Compressibility (1/GPa) = 0.01672843
#
# Stress axis : x y z
#
# Youngs Moduli (GPa) = 74.73700 149.40384 93.94213
#
# Poissons Ratio (x) = 0.21463 0.28548
# Poissons Ratio (y) = 0.10736 0.23669
# Poissons Ratio (z) = 0.22711 0.37643
#
# Static dielectric constant tensor:
#      x y z
#    x 4.146780 0.000000 0.000000 
#    y 0.000000 4.652750 0.000000 
#    z 0.000000 0.000000 3.796790 
# 
# 
# High freq. dielectric constant tensor:
#      x y z
#    x 1.906810 0.000000 0.000000 
#    y 0.000000 1.895720 0.000000 
#    z 0.000000 0.000000 1.879860 
# 
# From -- ./inp_files/8107.got.cif
#   From: 2010.03.12/outbox.cif.g09.slc.cpg/sg42_5_cif.got.tgz:8107.got - 2010.04.14 02:04:31.
