data_PCOD8186698
_publ_section_title
;
Structure prediction by ZEFSAII (Michael W. Deem and Ramdas Pophale) SiO2 
 PCOD8186698
Probable space group: F M M 2
;
_chemical_formula_sum "Si O2"
_cell_formula_units_Z 96
_cell_length_a 31.238036
_cell_length_b 14.356361
_cell_length_c 9.381945
_cell_angle_alpha 90.000000
_cell_angle_beta 90.000000
_cell_angle_gamma 90.000000
_cell_volume 4207.469477
_symmetry_space_group_name_H-M "F M M 2"
_symmetry_group_IT_number 42
_symmetry_cell_setting 'orthorhombic'
loop_
_space_group_symop_operation_xyz
x,y,z
-x,-y,z
-x,y,z
x,-y,z
x,1/2+y,1/2+z
-x,1/2-y,1/2+z
-x,1/2+y,1/2+z
x,1/2-y,1/2+z
1/2+x,y,1/2+z
1/2-x,-y,1/2+z
1/2-x,y,1/2+z
1/2+x,-y,1/2+z
1/2+x,1/2+y,z
1/2-x,1/2-y,z
1/2-x,1/2+y,z
1/2+x,1/2-y,z
loop_
_atom_site_type_symbol
_atom_site_label
_atom_site_fract_x
_atom_site_fract_y
_atom_site_fract_z
Si Si1 0.821043 0.000000 0.045660
Si Si2 0.287660 0.313369 0.323529
Si Si3 0.837159 0.195404 0.039365
Si Si4 0.632738 0.500000 0.589054
Si Si5 0.914406 0.184885 0.605212
Si Si6 0.726024 0.000000 0.980480
Si Si7 0.605768 0.000000 0.765998
Si Si8 0.951105 0.669779 0.805199
O O1 0.834767 0.094017 0.960331
O O2 0.848631 0.000000 0.190133
O O3 0.769633 0.000000 0.075669
O O4 0.250000 0.250000 0.258959
O O5 0.305393 0.265881 0.465040
O O6 0.323686 0.322407 0.203337
O O7 0.271689 0.413191 0.373996
O O8 0.883886 0.237915 0.034521
O O9 0.612576 0.406026 0.658748
O O10 0.684918 0.500000 0.588305
O O11 0.617580 0.500000 0.428879
O O12 0.938291 0.228639 0.742035
O O13 0.947232 0.163239 0.477034
O O14 0.578220 0.908174 0.728675
O O15 0.000000 0.648786 0.765694
#
# Coordination Sequence:
#
# PCOD8186698 Si02
#       8
#     8  16  16   8  16   8   8  16
#     4  12  24  41  65 101 132 184 224 286 330 390
#     4  12  25  42  62  93 130 180 237 287 330 383
#     4  12  24  44  66  92 133 182 228 276 341 402
#     4  10  22  41  66  93 135 186 229 266 333 407
#     4  11  23  43  70  98 136 179 221 277 344 414
#     4  12  24  42  64  96 135 186 238 281 318 389
#     4  10  21  42  69  98 134 178 225 275 340 414
#     4  11  23  43  73 105 133 171 223 282 346 422
#
# _framework density 22.816566000000002
#
# number of rings (size 3 to 8) (size 9 to 14) (size 15 to 20)
#    0.000    0.667    5.000    3.750    0.000    0.000 
#    0.000    7.083    0.000    0.000    0.000    0.000 
#    0.000    0.000    0.000    0.000    0.000    0.000 
#
# Total GULP energy -297532.592475 kJ/mol
# GULP energy per Si atom -12397.191353 kJ/mol
# Density = 2.276463 g / cm^3
# Si number density = 22.816566 Si / 1000 Ang^3
#
#
#
# Elastic Constant Matrix: (Units=GPa)
#
#
# Indices 1 2 3 4 5 6 
#
# 1 130.1089 48.5304 14.9039 0.0000 0.0000 0.0000
# 2 48.5304 157.3904 18.2263 0.0000 0.0000 0.0000
# 3 14.9039 18.2263 53.9301 0.0000 0.0000 0.0000
# 4 0.0000 0.0000 0.0000 18.0997 0.0000 0.0000
# 5 0.0000 0.0000 0.0000 0.0000 35.3431 0.0000
# 6 0.0000 0.0000 0.0000 0.0000 0.0000 28.3647
#
#
#
# Elastic Compliance Matrix: (Units=1/GPa)
#
#
# Indices 1 2 3 4 5 6 
#
# 1 0.008812 -0.002534 -0.001579 0.000000 0.000000 0.000000
# 2 -0.002534 0.007341 -0.001781 0.000000 0.000000 0.000000
# 3 -0.001579 -0.001781 0.019581 0.000000 0.000000 0.000000
# 4 0.000000 0.000000 0.000000 0.055250 0.000000 0.000000
# 5 0.000000 0.000000 0.000000 0.000000 0.028294 0.000000
# 6 0.000000 0.000000 0.000000 0.000000 0.000000 0.035255
#
#
# Mechanical properties :
#
#
# Convention : Reuss Voigt Hill
#
# Bulk Modulus (GPa) = 41.75996 56.08342 48.92169
# Shear Modulus (GPa) = 28.68578 33.67941 31.18259
#
# Velocity S-wave (km/s) = 3.54960 3.84617 3.70085
# Velocity P-wave (km/s) = 5.92805 6.66014 6.30473
#
# Compressibility (1/GPa) = 0.02394638
#
# Stress axis : x y z
#
# Youngs Moduli (GPa) = 113.48152 136.21609 51.07090
#
# Poissons Ratio (x) = 0.34521 0.08063
# Poissons Ratio (y) = 0.28760 0.09094
# Poissons Ratio (z) = 0.17916 0.24256
#
# Static dielectric constant tensor:
#      x y z
#    x 4.174310 0.000000 0.000000 
#    y 0.000000 5.011170 0.000000 
#    z 0.000000 0.000000 3.693260 
# 
# 
# High freq. dielectric constant tensor:
#      x y z
#    x 1.896390 0.000000 0.000000 
#    y 0.000000 1.927200 0.000000 
#    z 0.000000 0.000000 1.869420 
# 
# From -- ./inp_files/11081.got.cif
#   From: 2010.03.12/outbox.cif.g09.slc.cpg/sg42_6_cif.got.tgz:11081.got - 2010.04.14 02:04:31.
