data_PCOD8186466
_publ_section_title
;
Structure prediction by ZEFSAII (Michael W. Deem and Ramdas Pophale) SiO2 
 PCOD8186466
Probable space group: F M M 2
;
_chemical_formula_sum "Si O2"
_cell_formula_units_Z 96
_cell_length_a 8.592720
_cell_length_b 23.613441
_cell_length_c 25.106845
_cell_angle_alpha 90.000000
_cell_angle_beta 90.000000
_cell_angle_gamma 90.000000
_cell_volume 5094.271413
_symmetry_space_group_name_H-M "F M M 2"
_symmetry_group_IT_number 42
_symmetry_cell_setting 'orthorhombic'
loop_
_space_group_symop_operation_xyz
x,y,z
-x,-y,z
-x,y,z
x,-y,z
x,1/2+y,1/2+z
-x,1/2-y,1/2+z
-x,1/2+y,1/2+z
x,1/2-y,1/2+z
1/2+x,y,1/2+z
1/2-x,-y,1/2+z
1/2-x,y,1/2+z
1/2+x,-y,1/2+z
1/2+x,1/2+y,z
1/2-x,1/2-y,z
1/2-x,1/2+y,z
1/2+x,1/2-y,z
loop_
_atom_site_type_symbol
_atom_site_label
_atom_site_fract_x
_atom_site_fract_y
_atom_site_fract_z
Si Si1 0.317944 0.619794 0.721240
Si Si2 0.315936 0.189750 0.014519
Si Si3 0.183024 0.000000 0.384068
Si Si4 0.680331 0.000000 0.267748
Si Si5 0.316870 0.309250 0.130103
Si Si6 0.683763 0.312055 0.823923
Si Si7 0.684714 0.615969 0.923401
O O1 0.500000 0.629717 0.710668
O O2 0.280077 0.554124 0.731626
O O3 0.221334 0.639957 0.670248
O O4 0.257917 0.654959 0.771916
O O5 0.500000 0.192208 0.011607
O O6 0.250000 0.250000 0.994418
O O7 0.262606 0.176504 0.074216
O O8 0.252664 0.139304 0.978307
O O9 0.254622 0.053283 0.414142
O O10 0.221267 0.000000 0.321545
O O11 0.000000 0.000000 0.391498
O O12 0.500000 0.000000 0.285478
O O13 0.500000 0.303330 0.121756
O O14 0.250000 0.250000 0.153106
O O15 0.500000 0.309631 0.825086
O O16 0.750000 0.250000 0.823235
O O17 0.747110 0.344672 0.875542
O O18 0.500000 0.615436 0.925996
#
# Coordination Sequence:
#
# PCOD8186466 Si02
#       7
#    16  16   8   8  16  16  16
#     4  10  20  37  59  85 114 153 197 241 292 349
#     4  11  22  39  62  90 120 155 197 244 297 357
#     4  12  24  38  59  88 119 156 200 246 294 352
#     4  10  20  40  63  82 115 160 200 238 292 352
#     4  11  22  38  60  87 118 156 196 242 296 353
#     4  10  21  34  54  82 116 150 187 233 291 349
#     4  11  22  40  61  84 116 158 200 244 293 350
#
# _framework density 18.844698000000001
#
# number of rings (size 3 to 8) (size 9 to 14) (size 15 to 20)
#    0.000    1.333    1.667    6.250    0.000    5.333 
#    0.000    0.833    0.000    1.000    0.000    0.000 
#    0.000    0.000    0.000    0.000    0.000    0.000 
#
# Total GULP energy -297728.648401 kJ/mol
# GULP energy per Si atom -12405.360350 kJ/mol
# Density = 1.880181 g / cm^3
# Si number density = 18.844698 Si / 1000 Ang^3
#
#
#
# Elastic Constant Matrix: (Units=GPa)
#
#
# Indices 1 2 3 4 5 6 
#
# 1 102.8678 46.4368 38.5487 0.0000 0.0000 0.0000
# 2 46.4368 161.8983 73.3908 0.0000 0.0000 0.0000
# 3 38.5487 73.3908 101.7545 0.0000 0.0000 0.0000
# 4 0.0000 0.0000 0.0000 28.5480 0.0000 0.0000
# 5 0.0000 0.0000 0.0000 0.0000 31.2250 0.0000
# 6 0.0000 0.0000 0.0000 0.0000 0.0000 31.0465
#
#
#
# Elastic Compliance Matrix: (Units=1/GPa)
#
#
# Indices 1 2 3 4 5 6 
#
# 1 0.011754 -0.002010 -0.003003 0.000000 0.000000 0.000000
# 2 -0.002010 0.009521 -0.006106 0.000000 0.000000 0.000000
# 3 -0.003003 -0.006106 0.015369 0.000000 0.000000 0.000000
# 4 0.000000 0.000000 0.000000 0.035029 0.000000 0.000000
# 5 0.000000 0.000000 0.000000 0.000000 0.032026 0.000000
# 6 0.000000 0.000000 0.000000 0.000000 0.000000 0.032210
#
#
# Mechanical properties :
#
#
# Convention : Reuss Voigt Hill
#
# Bulk Modulus (GPa) = 69.41334 75.91926 72.66630
# Shear Modulus (GPa) = 30.68470 32.04018 31.36244
#
# Velocity S-wave (km/s) = 4.03959 4.12785 4.08396
# Velocity P-wave (km/s) = 7.65977 7.94312 7.80273
#
# Compressibility (1/GPa) = 0.01440645
#
# Stress axis : x y z
#
# Youngs Moduli (GPa) = 85.07761 105.03127 65.06620
#
# Poissons Ratio (x) = 0.21111 0.19541
# Poissons Ratio (y) = 0.17100 0.39727
# Poissons Ratio (z) = 0.25550 0.64128
#
# Static dielectric constant tensor:
#      x y z
#    x 3.459240 0.000000 0.000000 
#    y 0.000000 3.414810 0.000000 
#    z 0.000000 0.000000 3.511280 
# 
# 
# High freq. dielectric constant tensor:
#      x y z
#    x 1.737450 0.000000 0.000000 
#    y 0.000000 1.736960 0.000000 
#    z 0.000000 0.000000 1.734140 
# 
# From -- ./inp_files/28067.got.cif
#   From: 2010.03.12/outbox.cif.g09.slc.cpg/sg42_15_cif.got.tgz:28067.got - 2010.04.14 02:04:31.
