data_PCOD8186476
_publ_section_title
;
Structure prediction by ZEFSAII (Michael W. Deem and Ramdas Pophale) SiO2 
 PCOD8186476
Probable space group: F M M 2
;
_chemical_formula_sum "Si O2"
_cell_formula_units_Z 80
_cell_length_a 7.603380
_cell_length_b 17.786399
_cell_length_c 29.390022
_cell_angle_alpha 90.000000
_cell_angle_beta 90.000000
_cell_angle_gamma 90.000000
_cell_volume 3974.611070
_symmetry_space_group_name_H-M "F M M 2"
_symmetry_group_IT_number 42
_symmetry_cell_setting 'orthorhombic'
loop_
_space_group_symop_operation_xyz
x,y,z
-x,-y,z
-x,y,z
x,-y,z
x,1/2+y,1/2+z
-x,1/2-y,1/2+z
-x,1/2+y,1/2+z
x,1/2-y,1/2+z
1/2+x,y,1/2+z
1/2-x,-y,1/2+z
1/2-x,y,1/2+z
1/2+x,-y,1/2+z
1/2+x,1/2+y,z
1/2-x,1/2-y,z
1/2-x,1/2+y,z
1/2+x,1/2-y,z
loop_
_atom_site_type_symbol
_atom_site_label
_atom_site_fract_x
_atom_site_fract_y
_atom_site_fract_z
Si Si1 0.000000 0.910656 0.772841
Si Si2 0.794742 0.836704 0.011515
Si Si3 0.697214 0.163757 0.829670
Si Si4 0.000000 0.911081 0.670637
Si Si5 0.208350 0.586601 0.420749
Si Si6 0.798388 0.588608 0.603119
O O1 0.824952 0.882621 0.797241
O O2 0.000000 0.878101 0.721530
O O3 0.000000 0.000000 0.774442
O O4 0.750000 0.750000 0.007935
O O5 0.720132 0.871243 0.058212
O O6 0.000000 0.851354 0.011900
O O7 0.716028 0.879822 0.967914
O O8 0.500000 0.155575 0.810281
O O9 0.750000 0.250000 0.830986
O O10 0.700708 0.131786 0.880452
O O11 0.176506 0.883916 0.644794
O O12 0.000000 0.000000 0.673347
O O13 0.263590 0.500000 0.417757
O O14 0.000000 0.597010 0.416549
O O15 0.783347 0.500000 0.594990
O O16 0.000000 0.612046 0.613802
#
# Coordination Sequence:
#
# PCOD8186476 Si02
#       6
#     8  16  16   8  16  16
#     4  11  24  44  68  97 129 163 211 272 323 384
#     4  10  21  34  54  82 121 164 203 244 306 364
#     4  12  24  42  67  92 129 170 211 258 325 382
#     4   9  20  38  64  91 116 153 201 254 316 366
#     4  10  20  37  60  89 125 165 208 257 308 369
#     4   9  18  36  60  85 116 154 200 252 301 360
#
# _framework density 20.127755000000001
#
# number of rings (size 3 to 8) (size 9 to 14) (size 15 to 20)
#    0.000    1.800    2.000    1.800    1.400    7.200 
#    0.000    3.000    0.000    0.000    0.000    0.000 
#    0.000    0.000    0.000    0.000    0.000    0.000 
#
# Total GULP energy -248032.578015 kJ/mol
# GULP energy per Si atom -12401.628901 kJ/mol
# Density = 2.008194 g / cm^3
# Si number density = 20.127755 Si / 1000 Ang^3
#
#
#
# Elastic Constant Matrix: (Units=GPa)
#
#
# Indices 1 2 3 4 5 6 
#
# 1 119.7345 35.2241 65.7954 0.0000 0.0000 0.0000
# 2 35.2241 100.4796 48.4275 0.0000 0.0000 0.0000
# 3 65.7954 48.4275 170.3262 0.0000 0.0000 0.0000
# 4 0.0000 0.0000 0.0000 10.0027 0.0000 0.0000
# 5 0.0000 0.0000 0.0000 0.0000 32.8210 0.0000
# 6 0.0000 0.0000 0.0000 0.0000 0.0000 27.3507
#
#
#
# Elastic Compliance Matrix: (Units=1/GPa)
#
#
# Indices 1 2 3 4 5 6 
#
# 1 0.010968 -0.002089 -0.003643 0.000000 0.000000 0.000000
# 2 -0.002089 0.011931 -0.002585 0.000000 0.000000 0.000000
# 3 -0.003643 -0.002585 0.008013 0.000000 0.000000 0.000000
# 4 0.000000 0.000000 0.000000 0.099973 0.000000 0.000000
# 5 0.000000 0.000000 0.000000 0.000000 0.030468 0.000000
# 6 0.000000 0.000000 0.000000 0.000000 0.000000 0.036562
#
#
# Mechanical properties :
#
#
# Convention : Reuss Voigt Hill
#
# Bulk Modulus (GPa) = 70.03951 76.60381 73.32166
# Shear Modulus (GPa) = 22.79882 30.10776 26.45329
#
# Velocity S-wave (km/s) = 3.36922 3.87180 3.62922
# Velocity P-wave (km/s) = 7.07167 7.62425 7.35315
#
# Compressibility (1/GPa) = 0.01427766
#
# Stress axis : x y z
#
# Youngs Moduli (GPa) = 91.17220 83.81808 124.79255
#
# Poissons Ratio (x) = 0.17512 0.45461
# Poissons Ratio (y) = 0.19048 0.32260
# Poissons Ratio (z) = 0.33213 0.21668
#
# Static dielectric constant tensor:
#      x y z
#    x 3.650520 0.000000 0.000000 
#    y 0.000000 3.565690 0.000000 
#    z 0.000000 0.000000 3.948720 
# 
# 
# High freq. dielectric constant tensor:
#      x y z
#    x 1.789050 0.000000 0.000000 
#    y 0.000000 1.781130 0.000000 
#    z 0.000000 0.000000 1.788090 
# 
# From -- ./inp_files/31299.got.cif
#   From: 2010.03.12/outbox.cif.g09.slc.cpg/sg42_16_cif.got.tgz:31299.got - 2010.04.14 02:04:31.
