data_PCOD8186795
_publ_section_title
;
Structure prediction by ZEFSAII (Michael W. Deem and Ramdas Pophale) SiO2 
 PCOD8186795
Probable space group: F M M 2
;
_chemical_formula_sum "Si O2"
_cell_formula_units_Z 80
_cell_length_a 27.169191
_cell_length_b 18.631934
_cell_length_c 7.521501
_cell_angle_alpha 90.000000
_cell_angle_beta 90.000000
_cell_angle_gamma 90.000000
_cell_volume 3807.493421
_symmetry_space_group_name_H-M "F M M 2"
_symmetry_group_IT_number 42
_symmetry_cell_setting 'orthorhombic'
loop_
_space_group_symop_operation_xyz
x,y,z
-x,-y,z
-x,y,z
x,-y,z
x,1/2+y,1/2+z
-x,1/2-y,1/2+z
-x,1/2+y,1/2+z
x,1/2-y,1/2+z
1/2+x,y,1/2+z
1/2-x,-y,1/2+z
1/2-x,y,1/2+z
1/2+x,-y,1/2+z
1/2+x,1/2+y,z
1/2-x,1/2-y,z
1/2-x,1/2+y,z
1/2+x,1/2-y,z
loop_
_atom_site_type_symbol
_atom_site_label
_atom_site_fract_x
_atom_site_fract_y
_atom_site_fract_z
Si Si1 0.800253 0.658869 0.972890
Si Si2 0.406888 0.827253 0.404313
Si Si3 0.305310 0.322376 0.066769
Si Si4 0.443646 0.676284 0.287507
Si Si5 0.395490 0.915797 0.075504
O O1 0.815719 0.656549 0.768611
O O2 0.743051 0.636034 0.994182
O O3 0.802158 0.736623 0.062599
O O4 0.837873 0.606436 0.073745
O O5 0.350717 0.847520 0.447996
O O6 0.410705 0.745047 0.338922
O O7 0.440279 0.840205 0.577643
O O8 0.423020 0.879172 0.243773
O O9 0.500000 0.691796 0.338081
O O10 0.423467 0.608731 0.397285
O O11 0.400450 0.000000 0.094207
#
# Coordination Sequence:
#
# PCOD8186795 Si02
#       5
#    16  16  16  16  16
#     4  11  20  36  62 101 137 173 229 281 340 406
#     4  12  22  43  72 106 135 178 237 291 346 413
#     4  11  19  35  67 100 129 177 233 287 328 403
#     4  12  25  44  75 106 135 179 241 299 346 413
#     4  12  27  46  67 102 149 186 223 291 364 421
#
# _framework density 21.011199000000001
#
# number of rings (size 3 to 8) (size 9 to 14) (size 15 to 20)
#    0.000    0.400    6.000    5.400    0.000    2.000 
#    0.000    4.000    0.000    0.000    0.000    0.000 
#    0.000    0.000    0.000    0.000    0.000    0.000 
#
# Total GULP energy -248067.514709 kJ/mol
# GULP energy per Si atom -12403.375735 kJ/mol
# Density = 2.096338 g / cm^3
# Si number density = 21.011199 Si / 1000 Ang^3
#
#
#
# Elastic Constant Matrix: (Units=GPa)
#
#
# Indices 1 2 3 4 5 6 
#
# 1 106.0987 16.5745 27.3931 -0.0001 0.0000 0.0000
# 2 16.5745 95.8826 44.0640 -0.0017 0.0000 0.0000
# 3 27.3931 44.0640 121.1523 -0.0030 0.0000 0.0000
# 4 -0.0001 -0.0017 -0.0030 24.1436 0.0000 0.0000
# 5 0.0000 0.0000 0.0000 0.0000 30.6416 0.0000
# 6 0.0000 0.0000 0.0000 0.0000 0.0000 10.4625
#
#
#
# Elastic Compliance Matrix: (Units=1/GPa)
#
#
# Indices 1 2 3 4 5 6 
#
# 1 0.010065 -0.000833 -0.001973 0.000000 0.000000 0.000000
# 2 -0.000833 0.012591 -0.004391 0.000000 0.000000 0.000000
# 3 -0.001973 -0.004391 0.010297 0.000001 0.000000 0.000000
# 4 0.000000 0.000000 0.000001 0.041419 0.000000 0.000000
# 5 0.000000 0.000000 0.000000 0.000000 0.032635 0.000000
# 6 0.000000 0.000000 0.000000 0.000000 0.000000 0.095579
#
#
# Mechanical properties :
#
#
# Convention : Reuss Voigt Hill
#
# Bulk Modulus (GPa) = 53.88168 55.46632 54.67400
# Shear Modulus (GPa) = 22.40469 28.72301 25.56385
#
# Velocity S-wave (km/s) = 3.26900 3.70135 3.49187
# Velocity P-wave (km/s) = 6.32048 6.68748 6.50657
#
# Compressibility (1/GPa) = 0.01855919
#
# Stress axis : x y z
#
# Youngs Moduli (GPa) = 99.35767 79.41867 97.11378
#
# Poissons Ratio (x) = 0.06618 0.19157
# Poissons Ratio (y) = 0.08279 0.42645
# Poissons Ratio (z) = 0.19599 0.34874
#
# Static dielectric constant tensor:
#      x y z
#    x 4.057990 0.000000 0.000000 
#    y 0.000000 3.222950 0.000000 
#    z 0.000000 0.000000 4.020100 
# 
# 
# High freq. dielectric constant tensor:
#      x y z
#    x 1.836000 0.000000 0.000000 
#    y 0.000000 1.761580 0.000000 
#    z 0.000000 0.000000 1.847030 
# 
# From -- ./inp_files/3580.got.cif
#   From: 2010.03.12/outbox.cif.g09.slc.cpg/sg42_2_cif.got.tgz:3580.got - 2010.04.14 02:04:31.
