data_PCOD8186144
_publ_section_title
;
Structure prediction by ZEFSAII (Michael W. Deem and Ramdas Pophale) SiO2 
 PCOD8186144
Probable space group: F M M 2
;
_chemical_formula_sum "Si O2"
_cell_formula_units_Z 80
_cell_length_a 8.640866
_cell_length_b 14.949591
_cell_length_c 30.122012
_cell_angle_alpha 90.000000
_cell_angle_beta 90.000000
_cell_angle_gamma 90.000000
_cell_volume 3891.083572
_symmetry_space_group_name_H-M "F M M 2"
_symmetry_group_IT_number 42
_symmetry_cell_setting 'orthorhombic'
loop_
_space_group_symop_operation_xyz
x,y,z
-x,-y,z
-x,y,z
x,-y,z
x,1/2+y,1/2+z
-x,1/2-y,1/2+z
-x,1/2+y,1/2+z
x,1/2-y,1/2+z
1/2+x,y,1/2+z
1/2-x,-y,1/2+z
1/2-x,y,1/2+z
1/2+x,-y,1/2+z
1/2+x,1/2+y,z
1/2-x,1/2-y,z
1/2-x,1/2+y,z
1/2+x,1/2-y,z
loop_
_atom_site_type_symbol
_atom_site_label
_atom_site_fract_x
_atom_site_fract_y
_atom_site_fract_z
Si Si1 0.183518 0.000000 0.756191
Si Si2 0.683051 0.349644 0.095008
Si Si3 0.681406 0.847943 0.005961
Si Si4 0.817302 0.848600 0.821140
Si Si5 0.684049 0.000000 0.155556
Si Si6 0.318999 0.152151 0.910020
O O1 0.244024 0.088700 0.781397
O O2 0.244856 0.000000 0.706090
O O3 0.000000 0.000000 0.756995
O O4 0.500000 0.346843 0.098376
O O5 0.750000 0.250000 0.099991
O O6 0.734066 0.394617 0.047745
O O7 0.749961 0.410388 0.133875
O O8 0.500000 0.843304 0.016617
O O9 0.750000 0.750000 0.002270
O O10 0.710325 0.896630 0.958016
O O11 0.750000 0.750000 0.814196
O O12 0.762199 0.894403 0.867803
O O13 0.000000 0.842360 0.821579
O O14 0.500000 0.000000 0.152155
O O15 0.500000 0.158019 0.900218
O O16 0.250000 0.250000 0.913402
#
# Coordination Sequence:
#
# PCOD8186144 Si02
#       6
#     8  16  16  16   8  16
#     4   9  22  41  60  81 108 143 182 229 286 341
#     4  11  22  38  60  88 118 151 192 234 284 343
#     4   9  16  28  49  78 112 150 188 226 272 326
#     4  10  19  35  57  82 111 145 184 225 274 330
#     4  11  23  43  64  83 112 147 188 243 298 343
#     4   9  16  27  47  78 112 147 185 223 267 321
#
# _framework density 20.559825
#
# number of rings (size 3 to 8) (size 9 to 14) (size 15 to 20)
#    0.000    2.200    0.000    6.300    0.000    3.200 
#    0.000    9.000    0.000    4.800    0.000    0.000 
#    0.000    0.000    0.000    0.000    0.000    0.000 
#
# Total GULP energy -247796.697260 kJ/mol
# GULP energy per Si atom -12389.834863 kJ/mol
# Density = 2.051303 g / cm^3
# Si number density = 20.559825 Si / 1000 Ang^3
#
#
#
# Elastic Constant Matrix: (Units=GPa)
#
#
# Indices 1 2 3 4 5 6 
#
# 1 128.3799 36.9341 66.9609 0.0000 0.0000 0.0000
# 2 36.9341 85.0292 73.0236 0.0000 0.0000 0.0000
# 3 66.9609 73.0236 222.6651 0.0000 0.0000 0.0000
# 4 0.0000 0.0000 0.0000 394.6786 0.0000 0.0000
# 5 0.0000 0.0000 0.0000 0.0000 27.2801 0.0000
# 6 0.0000 0.0000 0.0000 0.0000 0.0000 19.7523
#
#
#
# Elastic Compliance Matrix: (Units=1/GPa)
#
#
# Indices 1 2 3 4 5 6 
#
# 1 0.009563 -0.002344 -0.002107 0.000000 0.000000 0.000000
# 2 -0.002344 0.016946 -0.004853 0.000000 0.000000 0.000000
# 3 -0.002107 -0.004853 0.006716 0.000000 0.000000 0.000000
# 4 0.000000 0.000000 0.000000 0.002534 0.000000 0.000000
# 5 0.000000 0.000000 0.000000 0.000000 0.036657 0.000000
# 6 0.000000 0.000000 0.000000 0.000000 0.000000 0.050627
#
#
# Mechanical properties :
#
#
# Convention : Reuss Voigt Hill
#
# Bulk Modulus (GPa) = 68.41111 87.76793 78.08952
# Shear Modulus (GPa) = 34.12431 105.61923 69.87177
#
# Velocity S-wave (km/s) = 4.07843 7.17518 5.83596
# Velocity P-wave (km/s) = 7.45148 10.55585 9.13648
#
# Compressibility (1/GPa) = 0.01461751
#
# Stress axis : x y z
#
# Youngs Moduli (GPa) = 104.57219 59.00944 148.89624
#
# Poissons Ratio (x) = 0.13834 0.31371
# Poissons Ratio (y) = 0.24515 0.72254
# Poissons Ratio (z) = 0.22033 0.28635
#
# Static dielectric constant tensor:
#      x y z
#    x 3.758060 0.000000 0.000000 
#    y 0.000000 3.297940 0.000000 
#    z 0.000000 0.000000 4.754250 
# 
# 
# High freq. dielectric constant tensor:
#      x y z
#    x 1.807760 0.000000 0.000000 
#    y 0.000000 1.774290 0.000000 
#    z 0.000000 0.000000 1.822340 
# 
# From -- ./inp_files/31311.got.cif
#   From: 2010.03.12/outbox.cif.g09.slc.cpg/sg42_16_cif.got.tgz:31311.got - 2010.04.14 02:04:31.
