data_PCOD8186285
_publ_section_title
;
Structure prediction by ZEFSAII (Michael W. Deem and Ramdas Pophale) SiO2 
 PCOD8186285
Probable space group: F M M 2
;
_chemical_formula_sum "Si O2"
_cell_formula_units_Z 96
_cell_length_a 8.797928
_cell_length_b 19.354929
_cell_length_c 30.817410
_cell_angle_alpha 90.000000
_cell_angle_beta 90.000000
_cell_angle_gamma 90.000000
_cell_volume 5247.689403
_symmetry_space_group_name_H-M "F M M 2"
_symmetry_group_IT_number 42
_symmetry_cell_setting 'orthorhombic'
loop_
_space_group_symop_operation_xyz
x,y,z
-x,-y,z
-x,y,z
x,-y,z
x,1/2+y,1/2+z
-x,1/2-y,1/2+z
-x,1/2+y,1/2+z
x,1/2-y,1/2+z
1/2+x,y,1/2+z
1/2-x,-y,1/2+z
1/2-x,y,1/2+z
1/2+x,-y,1/2+z
1/2+x,1/2+y,z
1/2-x,1/2-y,z
1/2-x,1/2+y,z
1/2+x,1/2-y,z
loop_
_atom_site_type_symbol
_atom_site_label
_atom_site_fract_x
_atom_site_fract_y
_atom_site_fract_z
Si Si1 0.679956 0.823294 0.215620
Si Si2 0.328764 0.582334 0.459302
Si Si3 0.321780 0.078573 0.546787
Si Si4 0.180492 0.177110 0.124370
Si Si5 0.170189 0.417912 0.373393
Si Si6 0.675207 0.081329 0.785525
O O1 0.500000 0.815735 0.211450
O O2 0.750000 0.750000 0.229900
O O3 0.749246 0.847511 0.169821
O O4 0.720782 0.880951 0.250561
O O5 0.500000 0.609514 0.456327
O O6 0.320999 0.500000 0.458714
O O7 0.256294 0.610056 0.503901
O O8 0.238584 0.612694 0.417958
O O9 0.500000 0.083180 0.538953
O O10 0.270294 0.121851 0.588412
O O11 0.269361 0.000000 0.555053
O O12 0.250000 0.250000 0.110080
O O13 0.000000 0.183301 0.129190
O O14 0.168602 0.500000 0.376040
O O15 0.273609 0.393779 0.333207
O O16 0.000000 0.388951 0.367210
O O17 0.500000 0.101611 0.778865
O O18 0.701526 0.000000 0.779755
#
# Coordination Sequence:
#
# PCOD8186285 Si02
#       6
#    16  16  16  16  16  16
#     4  11  22  37  56  76 101 134 173 212 254 307
#     4   9  16  26  43  69 100 132 165 202 246 295
#     4   9  18  32  50  73 100 130 165 205 249 296
#     4  10  20  35  54  74  98 131 169 207 251 303
#     4   9  16  27  45  70 101 135 169 204 245 296
#     4  10  20  34  53  78 107 136 169 211 257 302
#
# _framework density 18.293766000000002
#
# number of rings (size 3 to 8) (size 9 to 14) (size 15 to 20)
#    0.000    2.333    0.000    4.500    0.000    7.000 
#    0.000    1.667    0.000    1.000    0.000    4.667 
#    0.000    0.000    0.000    0.000    0.000    0.000 
#
# Total GULP energy -297623.127896 kJ/mol
# GULP energy per Si atom -12400.963662 kJ/mol
# Density = 1.825213 g / cm^3
# Si number density = 18.293766 Si / 1000 Ang^3
#
#
#
# Elastic Constant Matrix: (Units=GPa)
#
#
# Indices 1 2 3 4 5 6 
#
# 1 106.2782 30.6863 60.8517 0.0000 0.0000 0.0000
# 2 30.6863 44.7147 55.8283 0.0000 0.0000 0.0000
# 3 60.8517 55.8283 150.4224 0.0000 0.0000 0.0000
# 4 0.0000 0.0000 0.0000 -3.4662 0.0000 0.0000
# 5 0.0000 0.0000 0.0000 0.0000 38.1279 0.0000
# 6 0.0000 0.0000 0.0000 0.0000 0.0000 22.6972
#
#
#
# Elastic Compliance Matrix: (Units=1/GPa)
#
#
# Indices 1 2 3 4 5 6 
#
# 1 0.012670 -0.004278 -0.003538 0.000000 0.000000 0.000000
# 2 -0.004278 0.043121 -0.014273 0.000000 0.000000 0.000000
# 3 -0.003538 -0.014273 0.013377 0.000000 0.000000 0.000000
# 4 0.000000 0.000000 0.000000 -0.288502 0.000000 0.000000
# 5 0.000000 0.000000 0.000000 0.000000 0.026228 0.000000
# 6 0.000000 0.000000 0.000000 0.000000 0.000000 0.044058
#
#
# Mechanical properties :
#
#
# Convention : Reuss Voigt Hill
#
# Bulk Modulus (GPa) = 40.01733 66.23864 53.12799
# Shear Modulus (GPa) = -51.79170 21.74171 -15.02499
#
# Velocity S-wave (km/s) = -5.32659 3.45117 -2.86897
# Velocity P-wave (km/s) = 3.98845 7.22272 4.25793
#
# Compressibility (1/GPa) = 0.02498917
#
# Stress axis : x y z
#
# Youngs Moduli (GPa) = 78.92581 23.19061 74.75734
#
# Poissons Ratio (x) = 0.09921 0.26448
# Poissons Ratio (y) = 0.33765 1.06704
# Poissons Ratio (z) = 0.27922 0.33101
#
# Static dielectric constant tensor:
#      x y z
#    x 3.502170 0.000000 0.000000 
#    y 0.000000 3.057200 0.000000 
#    z 0.000000 0.000000 3.552020 
# 
# 
# High freq. dielectric constant tensor:
#      x y z
#    x 1.724580 0.000000 0.000000 
#    y 0.000000 1.661740 0.000000 
#    z 0.000000 0.000000 1.724250 
# 
# From -- ./inp_files/28050.got.cif
#   From: 2010.03.12/outbox.cif.g09.slc.cpg/sg42_15_cif.got.tgz:28050.got - 2010.04.14 02:04:31.
