data_PCOD8186756
_publ_section_title
;
Structure prediction by ZEFSAII (Michael W. Deem and Ramdas Pophale) SiO2 
 PCOD8186756
Probable space group: F M M 2
;
_chemical_formula_sum "Si O2"
_cell_formula_units_Z 64
_cell_length_a 27.552586
_cell_length_b 9.415445
_cell_length_c 11.276816
_cell_angle_alpha 90.000000
_cell_angle_beta 90.000000
_cell_angle_gamma 90.000000
_cell_volume 2925.430006
_symmetry_space_group_name_H-M "F M M 2"
_symmetry_group_IT_number 42
_symmetry_cell_setting 'orthorhombic'
loop_
_space_group_symop_operation_xyz
x,y,z
-x,-y,z
-x,y,z
x,-y,z
x,1/2+y,1/2+z
-x,1/2-y,1/2+z
-x,1/2+y,1/2+z
x,1/2-y,1/2+z
1/2+x,y,1/2+z
1/2-x,-y,1/2+z
1/2-x,y,1/2+z
1/2+x,-y,1/2+z
1/2+x,1/2+y,z
1/2-x,1/2-y,z
1/2-x,1/2+y,z
1/2+x,1/2-y,z
loop_
_atom_site_type_symbol
_atom_site_label
_atom_site_fract_x
_atom_site_fract_y
_atom_site_fract_z
Si Si1 0.809629 0.500000 0.838060
Si Si2 0.250000 0.750000 0.417608
Si Si3 0.391509 0.500000 0.158040
Si Si4 0.442665 0.211044 0.818606
Si Si5 0.602322 0.500000 0.494818
Si Si6 0.894211 0.500000 0.276370
Si Si7 0.681305 0.000000 0.461021
O O1 0.778757 0.643461 0.833115
O O2 0.839690 0.500000 0.720253
O O3 0.841449 0.500000 0.957535
O O4 0.286997 0.856327 0.490454
O O5 0.421678 0.638064 0.198652
O O6 0.372300 0.500000 0.023707
O O7 0.500000 0.204998 0.811482
O O8 0.423636 0.368483 0.827244
O O9 0.424619 0.136012 0.938987
O O10 0.602192 0.500000 0.634960
O O11 0.837970 0.500000 0.323228
#
# Coordination Sequence:
#
# PCOD8186756 Si02
#       7
#     8   8   8  16   8   8   8
#     4   9  20  41  61  91 123 174 220 275 340 391
#     4  10  22  42  62  92 136 166 236 278 328 416
#     4  10  22  41  70  93 139 182 222 281 347 396
#     4  10  23  44  69 101 136 181 230 277 335 406
#     4  10  23  46  67  90 139 184 216 283 340 400
#     4  12  26  42  71 102 136 178 228 277 343 405
#     4  11  24  44  63 102 133 180 228 282 343 404
#
# _framework density 21.877126000000001
#
# number of rings (size 3 to 8) (size 9 to 14) (size 15 to 20)
#    0.000    2.000    0.000    4.875    7.000    3.000 
#    9.000    1.250    0.000    0.000    0.000    0.000 
#    0.000    0.000    0.000    0.000    0.000    0.000 
#
# Total GULP energy -198235.745587 kJ/mol
# GULP energy per Si atom -12389.734099 kJ/mol
# Density = 2.182733 g / cm^3
# Si number density = 21.877126 Si / 1000 Ang^3
#
#
#
# Elastic Constant Matrix: (Units=GPa)
#
#
# Indices 1 2 3 4 5 6 
#
# 1 156.8927 69.6461 39.6212 0.0000 0.0000 0.0000
# 2 69.6461 197.0401 37.2875 0.0000 0.0000 0.0000
# 3 39.6212 37.2875 93.7025 0.0000 0.0000 0.0000
# 4 0.0000 0.0000 0.0000 12.1992 0.0000 0.0000
# 5 0.0000 0.0000 0.0000 0.0000 24.0580 0.0000
# 6 0.0000 0.0000 0.0000 0.0000 0.0000 38.9648
#
#
#
# Elastic Compliance Matrix: (Units=1/GPa)
#
#
# Indices 1 2 3 4 5 6 
#
# 1 0.008051 -0.002381 -0.002457 0.000000 0.000000 0.000000
# 2 -0.002381 0.006192 -0.001457 0.000000 0.000000 0.000000
# 3 -0.002457 -0.001457 0.012291 0.000000 0.000000 0.000000
# 4 0.000000 0.000000 0.000000 0.081972 0.000000 0.000000
# 5 0.000000 0.000000 0.000000 0.000000 0.041566 0.000000
# 6 0.000000 0.000000 0.000000 0.000000 0.000000 0.025664
#
#
# Mechanical properties :
#
#
# Convention : Reuss Voigt Hill
#
# Bulk Modulus (GPa) = 71.71514 82.30497 77.01006
# Shear Modulus (GPa) = 25.91001 35.11645 30.51323
#
# Velocity S-wave (km/s) = 3.44516 4.01080 3.73869
# Velocity P-wave (km/s) = 6.97693 7.69102 7.34266
#
# Compressibility (1/GPa) = 0.01394406
#
# Stress axis : x y z
#
# Youngs Moduli (GPa) = 124.20640 161.48703 81.36072
#
# Poissons Ratio (x) = 0.38447 0.19990
# Poissons Ratio (y) = 0.29571 0.11858
# Poissons Ratio (z) = 0.30517 0.23536
#
# Static dielectric constant tensor:
#      x y z
#    x 4.168130 0.000000 0.000000 
#    y 0.000000 4.251460 0.000000 
#    z 0.000000 0.000000 3.699780 
# 
# 
# High freq. dielectric constant tensor:
#      x y z
#    x 1.875020 0.000000 0.000000 
#    y 0.000000 1.879550 0.000000 
#    z 0.000000 0.000000 1.830040 
# 
# From -- ./inp_files/10892.got.cif
#   From: 2010.03.12/outbox.cif.g09.slc.cpg/sg42_6_cif.got.tgz:10892.got - 2010.04.14 02:04:31.
