data_PCOD8186174
_publ_section_title
;
Structure prediction by ZEFSAII (Michael W. Deem and Ramdas Pophale) SiO2 
 PCOD8186174
Probable space group: F M M 2
;
_chemical_formula_sum "Si O2"
_cell_formula_units_Z 96
_cell_length_a 18.426550
_cell_length_b 15.769502
_cell_length_c 18.352979
_cell_angle_alpha 90.000000
_cell_angle_beta 90.000000
_cell_angle_gamma 90.000000
_cell_volume 5332.963069
_symmetry_space_group_name_H-M "F M M 2"
_symmetry_group_IT_number 42
_symmetry_cell_setting 'orthorhombic'
loop_
_space_group_symop_operation_xyz
x,y,z
-x,-y,z
-x,y,z
x,-y,z
x,1/2+y,1/2+z
-x,1/2-y,1/2+z
-x,1/2+y,1/2+z
x,1/2-y,1/2+z
1/2+x,y,1/2+z
1/2-x,-y,1/2+z
1/2-x,y,1/2+z
1/2+x,-y,1/2+z
1/2+x,1/2+y,z
1/2-x,1/2-y,z
1/2-x,1/2+y,z
1/2+x,1/2-y,z
loop_
_atom_site_type_symbol
_atom_site_label
_atom_site_fract_x
_atom_site_fract_y
_atom_site_fract_z
Si Si1 0.416436 0.213739 0.540080
Si Si2 0.914604 0.324067 0.906187
Si Si3 0.350637 0.664644 0.643670
Si Si4 0.585931 0.000000 0.974544
Si Si5 0.584247 0.000000 0.140476
Si Si6 0.323339 0.295140 0.263617
Si Si7 0.304654 0.600635 0.129085
O O1 0.500000 0.183740 0.547886
O O2 0.398486 0.241097 0.456711
O O3 0.404380 0.303456 0.580473
O O4 0.364854 0.140589 0.574067
O O5 0.884308 0.413869 0.937069
O O6 0.876126 0.310255 0.829851
O O7 0.000000 0.331820 0.892707
O O8 0.381892 0.580369 0.680356
O O9 0.358488 0.732170 0.706503
O O10 0.270354 0.649249 0.610503
O O11 0.500000 0.000000 0.973226
O O12 0.613162 0.000000 0.057487
O O13 0.500000 0.000000 0.149505
O O14 0.250000 0.250000 0.292296
O O15 0.315817 0.382093 0.215989
O O16 0.301536 0.500000 0.115262
#
# Coordination Sequence:
#
# PCOD8186174 Si02
#       7
#    16  16  16   8   8  16  16
#     4  10  20  35  57  82 110 143 181 227 275 327
#     4  10  20  35  55  79 111 144 178 225 275 323
#     4  10  19  36  55  80 111 142 179 226 274 327
#     4   9  18  32  51  82 110 132 171 228 279 310
#     4  11  18  30  57  84 107 136 181 236 278 316
#     4   9  21  36  53  77 109 147 179 220 270 327
#     4  10  21  37  57  82 111 145 181 225 276 327
#
# _framework density 18.001249999999999
#
# number of rings (size 3 to 8) (size 9 to 14) (size 15 to 20)
#    0.000    2.167    2.500    2.000    1.167    5.000 
#    0.000    0.000    1.833    0.000    0.000    0.000 
#    0.000    0.000    0.000    0.000    0.000    0.000 
#
# Total GULP energy -297337.745459 kJ/mol
# GULP energy per Si atom -12389.072727 kJ/mol
# Density = 1.796028 g / cm^3
# Si number density = 18.001250 Si / 1000 Ang^3
#
#
#
# Elastic Constant Matrix: (Units=GPa)
#
#
# Indices 1 2 3 4 5 6 
#
# 1 63.1707 19.8953 34.1281 0.0000 0.0000 0.0000
# 2 19.8953 95.4028 15.6029 0.0000 0.0000 0.0000
# 3 34.1281 15.6029 54.3269 0.0000 0.0000 0.0000
# 4 0.0000 0.0000 0.0000 11.2132 0.0000 0.0000
# 5 0.0000 0.0000 0.0000 0.0000 30.5056 0.0000
# 6 0.0000 0.0000 0.0000 0.0000 0.0000 28.6170
#
#
#
# Elastic Compliance Matrix: (Units=1/GPa)
#
#
# Indices 1 2 3 4 5 6 
#
# 1 0.024624 -0.002734 -0.014684 0.000000 0.000000 0.000000
# 2 -0.002734 0.011302 -0.001529 0.000000 0.000000 0.000000
# 3 -0.014684 -0.001529 0.028070 0.000000 0.000000 0.000000
# 4 0.000000 0.000000 0.000000 0.089181 0.000000 0.000000
# 5 0.000000 0.000000 0.000000 0.000000 0.032781 0.000000
# 6 0.000000 0.000000 0.000000 0.000000 0.000000 0.034944
#
#
# Mechanical properties :
#
#
# Convention : Reuss Voigt Hill
#
# Bulk Modulus (GPa) = 38.30777 39.12812 38.71795
# Shear Modulus (GPa) = 18.69189 23.61875 21.15532
#
# Velocity S-wave (km/s) = 3.22587 3.62617 3.43186
# Velocity P-wave (km/s) = 5.93311 6.27022 6.10399
#
# Compressibility (1/GPa) = 0.02610436
#
# Stress axis : x y z
#
# Youngs Moduli (GPa) = 40.61086 88.48028 35.62467
#
# Poissons Ratio (x) = 0.24187 0.52310
# Poissons Ratio (y) = 0.11101 0.05446
# Poissons Ratio (z) = 0.59632 0.13526
#
# Static dielectric constant tensor:
#      x y z
#    x 3.286580 0.000000 0.000000 
#    y 0.000000 3.498580 0.000000 
#    z 0.000000 0.000000 3.200280 
# 
# 
# High freq. dielectric constant tensor:
#      x y z
#    x 1.695350 0.000000 0.000000 
#    y 0.000000 1.703430 0.000000 
#    z 0.000000 0.000000 1.676650 
# 
# From -- ./inp_files/14048.got.cif
#   From: 2010.03.12/outbox.cif.g09.slc.cpg/sg42_8_cif.got.tgz:14048.got - 2010.04.14 02:04:31.
