data_PCOD8186800
_publ_section_title
;
Structure prediction by ZEFSAII (Michael W. Deem and Ramdas Pophale) SiO2 
 PCOD8186800
Probable space group: F M M 2
;
_chemical_formula_sum "Si O2"
_cell_formula_units_Z 80
_cell_length_a 15.310859
_cell_length_b 11.726578
_cell_length_c 22.938356
_cell_angle_alpha 90.000000
_cell_angle_beta 90.000000
_cell_angle_gamma 90.000000
_cell_volume 4118.443784
_symmetry_space_group_name_H-M "F M M 2"
_symmetry_group_IT_number 42
_symmetry_cell_setting 'orthorhombic'
loop_
_space_group_symop_operation_xyz
x,y,z
-x,-y,z
-x,y,z
x,-y,z
x,1/2+y,1/2+z
-x,1/2-y,1/2+z
-x,1/2+y,1/2+z
x,1/2-y,1/2+z
1/2+x,y,1/2+z
1/2-x,-y,1/2+z
1/2-x,y,1/2+z
1/2+x,-y,1/2+z
1/2+x,1/2+y,z
1/2-x,1/2-y,z
1/2-x,1/2+y,z
1/2+x,1/2-y,z
loop_
_atom_site_type_symbol
_atom_site_label
_atom_site_fract_x
_atom_site_fract_y
_atom_site_fract_z
Si Si1 0.347390 0.778512 0.524690
Si Si2 0.845757 0.754745 0.805700
Si Si3 0.398303 0.868729 0.919098
Si Si4 0.403805 0.500000 0.827575
Si Si5 0.000000 0.135901 0.103200
Si Si6 0.500000 0.133385 0.739274
Si Si7 0.600281 0.500000 0.964631
O O1 0.250000 0.750000 0.548426
O O2 0.379967 0.674548 0.484443
O O3 0.413622 0.802309 0.577787
O O4 0.345571 0.890809 0.484919
O O5 0.750000 0.750000 0.778146
O O6 0.845998 0.704863 0.871504
O O7 0.859936 0.888472 0.803136
O O8 0.913333 0.686643 0.766307
O O9 0.500000 0.853571 0.904412
O O10 0.368926 0.000000 0.914994
O O11 0.500000 0.500000 0.802295
O O12 0.403327 0.500000 0.896423
O O13 0.000000 0.159558 0.171289
O O14 0.000000 0.000000 0.090421
O O15 0.500000 0.000000 0.753766
O O16 0.500000 0.500000 0.989452
#
# Coordination Sequence:
#
# PCOD8186800 Si02
#       7
#    16  16  16   8   8   8   8
#     4  12  23  37  66  94 128 161 207 262 312 374
#     4  12  25  40  66  97 131 166 210 264 315 384
#     4  11  22  37  60  95 136 172 200 247 322 388
#     4  11  22  38  64  94 130 174 208 251 320 372
#     4  11  24  47  72  88 115 169 225 266 308 372
#     4  11  26  48  69  89 122 169 218 269 323 377
#     4  11  20  38  62  92 128 168 210 245 302 384
#
# _framework density 19.424813
#
# number of rings (size 3 to 8) (size 9 to 14) (size 15 to 20)
#    0.000    0.600    7.000    1.200    4.200    0.800 
#    0.000    0.000    4.400    0.000    0.000    0.000 
#    0.000    0.000    0.000    0.000    0.000    0.000 
#
# Total GULP energy -248002.087597 kJ/mol
# GULP energy per Si atom -12400.104380 kJ/mol
# Density = 1.938060 g / cm^3
# Si number density = 19.424813 Si / 1000 Ang^3
#
#
#
# Elastic Constant Matrix: (Units=GPa)
#
#
# Indices 1 2 3 4 5 6 
#
# 1 169.0187 71.5121 53.0863 0.0000 0.0000 0.0000
# 2 71.5121 156.3291 47.3904 0.0000 0.0000 0.0000
# 3 53.0863 47.3904 102.9041 0.0000 0.0000 0.0000
# 4 0.0000 0.0000 0.0000 30.4694 0.0000 0.0000
# 5 0.0000 0.0000 0.0000 0.0000 8.5874 0.0000
# 6 0.0000 0.0000 0.0000 0.0000 0.0000 40.1960
#
#
#
# Elastic Compliance Matrix: (Units=1/GPa)
#
#
# Indices 1 2 3 4 5 6 
#
# 1 0.007990 -0.002796 -0.002834 0.000000 0.000000 0.000000
# 2 -0.002796 0.008413 -0.002432 0.000000 0.000000 0.000000
# 3 -0.002834 -0.002432 0.012300 0.000000 0.000000 0.000000
# 4 0.000000 0.000000 0.000000 0.032820 0.000000 0.000000
# 5 0.000000 0.000000 0.000000 0.000000 0.116450 0.000000
# 6 0.000000 0.000000 0.000000 0.000000 0.000000 0.024878
#
#
# Mechanical properties :
#
#
# Convention : Reuss Voigt Hill
#
# Bulk Modulus (GPa) = 79.50109 85.80329 82.65219
# Shear Modulus (GPa) = 22.40474 32.93475 27.66974
#
# Velocity S-wave (km/s) = 3.39987 4.12211 3.77829
# Velocity P-wave (km/s) = 7.51190 8.18069 7.85341
#
# Compressibility (1/GPa) = 0.01257844
#
# Stress axis : x y z
#
# Youngs Moduli (GPa) = 125.16420 118.86500 81.30088
#
# Poissons Ratio (x) = 0.33230 0.23042
# Poissons Ratio (y) = 0.34991 0.19774
# Poissons Ratio (z) = 0.35474 0.28910
#
# Static dielectric constant tensor:
#      x y z
#    x 3.669700 0.000000 0.000000 
#    y 0.000000 3.618310 0.000000 
#    z 0.000000 0.000000 3.352490 
# 
# 
# High freq. dielectric constant tensor:
#      x y z
#    x 1.766400 0.000000 0.000000 
#    y 0.000000 1.772040 0.000000 
#    z 0.000000 0.000000 1.729180 
# 
# From -- ./inp_files/28672.got.cif
#   From: 2010.03.12/outbox.cif.g09.slc.cpg/sg42_15_cif.got.tgz:28672.got - 2010.04.14 02:04:31.
