data_PCOD8186615
_publ_section_title
;
Structure prediction by ZEFSAII (Michael W. Deem and Ramdas Pophale) SiO2 
 PCOD8186615
Probable space group: F M M 2
;
_chemical_formula_sum "Si O2"
_cell_formula_units_Z 80
_cell_length_a 14.327595
_cell_length_b 21.797378
_cell_length_c 13.021120
_cell_angle_alpha 90.000000
_cell_angle_beta 90.000000
_cell_angle_gamma 90.000000
_cell_volume 4066.547913
_symmetry_space_group_name_H-M "F M M 2"
_symmetry_group_IT_number 42
_symmetry_cell_setting 'orthorhombic'
loop_
_space_group_symop_operation_xyz
x,y,z
-x,-y,z
-x,y,z
x,-y,z
x,1/2+y,1/2+z
-x,1/2-y,1/2+z
-x,1/2+y,1/2+z
x,1/2-y,1/2+z
1/2+x,y,1/2+z
1/2-x,-y,1/2+z
1/2-x,y,1/2+z
1/2+x,-y,1/2+z
1/2+x,1/2+y,z
1/2-x,1/2-y,z
1/2-x,1/2+y,z
1/2+x,1/2-y,z
loop_
_atom_site_type_symbol
_atom_site_label
_atom_site_fract_x
_atom_site_fract_y
_atom_site_fract_z
Si Si1 0.000000 0.930451 0.625000
Si Si2 0.334094 0.850429 0.816341
Si Si3 0.199242 0.070931 0.684714
Si Si4 0.268795 0.333598 0.537049
Si Si5 0.889549 0.267082 0.632465
Si Si6 0.500000 0.426813 0.396114
O O1 0.088700 0.917498 0.696633
O O2 0.000000 0.897783 0.512364
O O3 0.000000 0.000000 0.588045
O O4 0.247963 0.887081 0.768607
O O5 0.371680 0.794737 0.746062
O O6 0.411745 0.901413 0.835121
O O7 0.300268 0.820260 0.922039
O O8 0.227094 0.094644 0.569683
O O9 0.227797 0.000000 0.695322
O O10 0.161621 0.311506 0.550038
O O11 0.338580 0.298580 0.617910
O O12 0.000000 0.261784 0.610071
O O13 0.500000 0.500000 0.389451
#
# Coordination Sequence:
#
# PCOD8186615 Si02
#       6
#     8  16  16  16  16   8
#     4   9  18  34  57  88 122 158 196 239 294 353
#     4  11  22  40  61  91 120 162 205 250 304 362
#     4  10  21  37  60  91 125 157 199 252 301 358
#     4  10  23  39  62  89 124 159 204 248 309 361
#     4  10  23  41  62  87 121 156 205 257 302 354
#     4  11  20  34  63  94 120 160 207 243 294 369
#
# _framework density 19.672706999999999
#
# number of rings (size 3 to 8) (size 9 to 14) (size 15 to 20)
#    0.000    1.800    3.000    0.600    2.800    7.200 
#    1.800    0.000    0.000    0.000    0.000    0.000 
#    0.000    0.000    0.000    0.000    0.000    0.000 
#
# Total GULP energy -247840.864324 kJ/mol
# GULP energy per Si atom -12392.043216 kJ/mol
# Density = 1.962793 g / cm^3
# Si number density = 19.672707 Si / 1000 Ang^3
#
#
#
# Elastic Constant Matrix: (Units=GPa)
#
#
# Indices 1 2 3 4 5 6 
#
# 1 135.9234 28.2872 50.0714 0.0000 0.0000 0.0000
# 2 28.2872 84.4063 39.8001 0.0000 0.0000 0.0000
# 3 50.0714 39.8001 109.8614 0.0000 0.0000 0.0000
# 4 0.0000 0.0000 0.0000 24.2981 0.0000 0.0000
# 5 0.0000 0.0000 0.0000 0.0000 -87.9431 0.0000
# 6 0.0000 0.0000 0.0000 0.0000 0.0000 25.2212
#
#
#
# Elastic Compliance Matrix: (Units=1/GPa)
#
#
# Indices 1 2 3 4 5 6 
#
# 1 0.008958 -0.001299 -0.003612 0.000000 0.000000 0.000000
# 2 -0.001299 0.014477 -0.004653 0.000000 0.000000 0.000000
# 3 -0.003612 -0.004653 0.012434 0.000000 0.000000 0.000000
# 4 0.000000 0.000000 0.000000 0.041155 0.000000 0.000000
# 5 0.000000 0.000000 0.000000 0.000000 -0.011371 0.000000
# 6 0.000000 0.000000 0.000000 0.000000 0.000000 0.039649
#
#
# Mechanical properties :
#
#
# Convention : Reuss Voigt Hill
#
# Bulk Modulus (GPa) = 59.73153 62.94538 61.33845
# Shear Modulus (GPa) = 38.45848 6.45073 22.45460
#
# Velocity S-wave (km/s) = 4.42624 1.81277 3.38214
# Velocity P-wave (km/s) = 7.52002 6.03716 6.81902
#
# Compressibility (1/GPa) = 0.01674158
#
# Stress axis : x y z
#
# Youngs Moduli (GPa) = 111.63109 69.07727 80.42313
#
# Poissons Ratio (x) = 0.08972 0.29051
# Poissons Ratio (y) = 0.14499 0.37417
# Poissons Ratio (z) = 0.40324 0.32138
#
# Static dielectric constant tensor:
#      x y z
#    x 4.711520 0.000000 0.000000 
#    y 0.000000 3.671840 0.000000 
#    z 0.000000 0.000000 3.464820 
# 
# 
# High freq. dielectric constant tensor:
#      x y z
#    x 1.774600 0.000000 0.000000 
#    y 0.000000 1.772210 0.000000 
#    z 0.000000 0.000000 1.749400 
# 
# From -- ./inp_files/7773.got.cif
#   From: 2010.03.12/outbox.cif.g09.slc.cpg/sg42_4_cif.got.tgz:7773.got - 2010.04.14 02:04:31.
