data_PCOD8186759
_publ_section_title
;
Structure prediction by ZEFSAII (Michael W. Deem and Ramdas Pophale) SiO2 
 PCOD8186759
Probable space group: F M M 2
;
_chemical_formula_sum "Si O2"
_cell_formula_units_Z 96
_cell_length_a 10.822543
_cell_length_b 17.749710
_cell_length_c 24.834349
_cell_angle_alpha 90.000000
_cell_angle_beta 90.000000
_cell_angle_gamma 90.000000
_cell_volume 4770.603933
_symmetry_space_group_name_H-M "F M M 2"
_symmetry_group_IT_number 42
_symmetry_cell_setting 'orthorhombic'
loop_
_space_group_symop_operation_xyz
x,y,z
-x,-y,z
-x,y,z
x,-y,z
x,1/2+y,1/2+z
-x,1/2-y,1/2+z
-x,1/2+y,1/2+z
x,1/2-y,1/2+z
1/2+x,y,1/2+z
1/2-x,-y,1/2+z
1/2-x,y,1/2+z
1/2+x,-y,1/2+z
1/2+x,1/2+y,z
1/2-x,1/2-y,z
1/2-x,1/2+y,z
1/2+x,1/2-y,z
loop_
_atom_site_type_symbol
_atom_site_label
_atom_site_fract_x
_atom_site_fract_y
_atom_site_fract_z
Si Si1 0.500000 0.084122 0.609840
Si Si2 0.750279 0.660897 0.107114
Si Si3 0.357441 0.415356 0.710148
Si Si4 0.279477 0.337610 0.293366
Si Si5 0.642014 0.082532 0.008428
Si Si6 0.500000 0.085048 0.736570
Si Si7 0.149017 0.183702 0.409883
O O1 0.617671 0.129889 0.588939
O O2 0.500000 0.078514 0.673348
O O3 0.500000 0.000000 0.584906
O O4 0.750000 0.750000 0.105248
O O5 0.786597 0.634949 0.166667
O O6 0.845070 0.628780 0.063442
O O7 0.500000 0.415319 0.695355
O O8 0.302902 0.500000 0.707332
O O9 0.340412 0.382525 0.770979
O O10 0.250000 0.250000 0.288060
O O11 0.383641 0.365239 0.252658
O O12 0.323554 0.358593 0.353437
O O13 0.500000 0.069074 0.997912
O O14 0.691742 0.128649 0.957308
O O15 0.707249 0.000000 0.012022
O O16 0.500000 0.000000 0.761770
O O17 0.250000 0.250000 0.413786
O O18 0.000000 0.206843 0.412544
#
# Coordination Sequence:
#
# PCOD8186759 Si02
#       7
#     8  16  16  16  16   8  16
#     4  11  24  40  62  91 128 168 214 264 315 378
#     4  12  25  39  64  92 126 165 211 261 317 382
#     4  11  24  40  61  90 128 168 206 255 317 384
#     4  11  23  37  63  91 126 162 206 257 312 373
#     4  10  22  42  66  90 122 162 208 260 317 383
#     4  11  22  38  60  89 124 166 210 258 307 366
#     4  10  22  42  66  95 125 164 212 263 319 376
#
# _framework density 20.123238000000001
#
# number of rings (size 3 to 8) (size 9 to 14) (size 15 to 20)
#    0.000    1.167    2.500    3.500    3.500    3.333 
#    1.500    0.000    0.000    0.000    0.000    0.000 
#    0.000    0.000    0.000    0.000    0.000    0.000 
#
# Total GULP energy -297455.741755 kJ/mol
# GULP energy per Si atom -12393.989240 kJ/mol
# Density = 2.007744 g / cm^3
# Si number density = 20.123238 Si / 1000 Ang^3
#
#
#
# Elastic Constant Matrix: (Units=GPa)
#
#
# Indices 1 2 3 4 5 6 
#
# 1 68.9842 33.8022 16.8915 0.0000 0.0000 0.0000
# 2 33.8022 144.2940 47.0917 0.0000 0.0000 0.0000
# 3 16.8915 47.0917 101.6815 0.0000 0.0000 0.0000
# 4 0.0000 0.0000 0.0000 487.5055 0.0000 0.0000
# 5 0.0000 0.0000 0.0000 0.0000 -7.2993 0.0000
# 6 0.0000 0.0000 0.0000 0.0000 0.0000 -22.1590
#
#
#
# Elastic Compliance Matrix: (Units=1/GPa)
#
#
# Indices 1 2 3 4 5 6 
#
# 1 0.016483 -0.003496 -0.001119 0.000000 0.000000 0.000000
# 2 -0.003496 0.008906 -0.003544 0.000000 0.000000 0.000000
# 3 -0.001119 -0.003544 0.011662 0.000000 0.000000 0.000000
# 4 0.000000 0.000000 0.000000 0.002051 0.000000 0.000000
# 5 0.000000 0.000000 0.000000 0.000000 -0.136999 0.000000
# 6 0.000000 0.000000 0.000000 0.000000 0.000000 -0.045128
#
#
# Mechanical properties :
#
#
# Convention : Reuss Voigt Hill
#
# Bulk Modulus (GPa) = 48.23260 56.72562 52.47911
# Shear Modulus (GPa) = -41.73751 106.08772 32.17510
#
# Velocity S-wave (km/s) = -4.55916 7.26866 4.00297
# Velocity P-wave (km/s) = 1.92198 9.93453 6.89206
#
# Compressibility (1/GPa) = 0.02073286
#
# Stress axis : x y z
#
# Youngs Moduli (GPa) = 60.66791 112.28593 85.75040
#
# Poissons Ratio (x) = 0.39256 0.09596
# Poissons Ratio (y) = 0.21210 0.30388
# Poissons Ratio (z) = 0.06789 0.39792
#
# Static dielectric constant tensor:
#      x y z
#    x 4.598620 0.000000 0.000000 
#    y 0.000000 4.000580 0.000000 
#    z 0.000000 0.000000 3.749270 
# 
# 
# High freq. dielectric constant tensor:
#      x y z
#    x 1.789870 0.000000 0.000000 
#    y 0.000000 1.793160 0.000000 
#    z 0.000000 0.000000 1.784450 
# 
# From -- ./inp_files/28856.got.cif
#   From: 2010.03.12/outbox.cif.g09.slc.cpg/sg42_15_cif.got.tgz:28856.got - 2010.04.14 02:04:31.
