data_PCOD8186482
_publ_section_title
;
Structure prediction by ZEFSAII (Michael W. Deem and Ramdas Pophale) SiO2 
 PCOD8186482
Probable space group: F M M 2
;
_chemical_formula_sum "Si O2"
_cell_formula_units_Z 96
_cell_length_a 8.730381
_cell_length_b 28.042300
_cell_length_c 19.929853
_cell_angle_alpha 90.000000
_cell_angle_beta 90.000000
_cell_angle_gamma 90.000000
_cell_volume 4879.225876
_symmetry_space_group_name_H-M "F M M 2"
_symmetry_group_IT_number 42
_symmetry_cell_setting 'orthorhombic'
loop_
_space_group_symop_operation_xyz
x,y,z
-x,-y,z
-x,y,z
x,-y,z
x,1/2+y,1/2+z
-x,1/2-y,1/2+z
-x,1/2+y,1/2+z
x,1/2-y,1/2+z
1/2+x,y,1/2+z
1/2-x,-y,1/2+z
1/2-x,y,1/2+z
1/2+x,-y,1/2+z
1/2+x,1/2+y,z
1/2-x,1/2-y,z
1/2-x,1/2+y,z
1/2+x,1/2-y,z
loop_
_atom_site_type_symbol
_atom_site_label
_atom_site_fract_x
_atom_site_fract_y
_atom_site_fract_z
Si Si1 0.820785 0.446509 0.517730
Si Si2 0.322268 0.301149 0.931044
Si Si3 0.179972 0.646614 0.051295
Si Si4 0.677629 0.645732 0.795035
Si Si5 0.680090 0.199138 0.674965
Si Si6 0.818388 0.447933 0.365808
O O1 0.789131 0.500000 0.545018
O O2 0.729993 0.408382 0.563465
O O3 0.757903 0.442233 0.441653
O O4 0.000000 0.434450 0.521273
O O5 0.500000 0.300185 0.950985
O O6 0.250000 0.250000 0.943131
O O7 0.299434 0.316250 0.854255
O O8 0.235937 0.339131 0.977333
O O9 0.257878 0.681884 0.103839
O O10 0.000000 0.651867 0.058661
O O11 0.500000 0.642539 0.773903
O O12 0.776371 0.661038 0.731591
O O13 0.743283 0.594138 0.818190
O O14 0.500000 0.204612 0.670726
O O15 0.750000 0.250000 0.694260
O O16 0.768207 0.500000 0.337377
O O17 0.000000 0.444060 0.369585
#
# Coordination Sequence:
#
# PCOD8186482 Si02
#       6
#    16  16  16  16  16  16
#     4   9  17  34  61  91 122 157 196 240 295 351
#     4  11  22  37  58  86 118 152 194 246 299 353
#     4  12  24  39  60  87 120 156 200 246 295 353
#     4  10  20  37  61  89 120 154 196 241 293 354
#     4  12  26  44  63  83 115 157 202 248 304 361
#     4   8  14  29  57  90 121 154 191 233 285 343
#
# _framework density 19.675252
#
# number of rings (size 3 to 8) (size 9 to 14) (size 15 to 20)
#    0.000    1.667    1.667    5.500    0.000    3.000 
#    0.000    0.833    0.000    3.500    0.000    0.000 
#    0.000    0.000    0.000    0.000    0.000    0.000 
#
# Total GULP energy -297636.638575 kJ/mol
# GULP energy per Si atom -12401.526607 kJ/mol
# Density = 1.963047 g / cm^3
# Si number density = 19.675252 Si / 1000 Ang^3
#
#
#
# Elastic Constant Matrix: (Units=GPa)
#
#
# Indices 1 2 3 4 5 6 
#
# 1 110.9154 37.4417 27.7538 0.0000 0.0000 0.0000
# 2 37.4417 126.1245 15.9355 0.0000 0.0000 0.0000
# 3 27.7538 15.9355 51.7916 0.0000 0.0000 0.0000
# 4 0.0000 0.0000 0.0000 32.3695 0.0000 0.0000
# 5 0.0000 0.0000 0.0000 0.0000 29.0235 0.0000
# 6 0.0000 0.0000 0.0000 0.0000 0.0000 27.0986
#
#
#
# Elastic Compliance Matrix: (Units=1/GPa)
#
#
# Indices 1 2 3 4 5 6 
#
# 1 0.011217 -0.002674 -0.005188 0.000000 0.000000 0.000000
# 2 -0.002674 0.008887 -0.001301 0.000000 0.000000 0.000000
# 3 -0.005188 -0.001301 0.022489 0.000000 0.000000 0.000000
# 4 0.000000 0.000000 0.000000 0.030893 0.000000 0.000000
# 5 0.000000 0.000000 0.000000 0.000000 0.034455 0.000000
# 6 0.000000 0.000000 0.000000 0.000000 0.000000 0.036902
#
#
# Mechanical properties :
#
#
# Convention : Reuss Voigt Hill
#
# Bulk Modulus (GPa) = 41.21115 50.12149 45.66632
# Shear Modulus (GPa) = 29.19563 31.54501 30.37032
#
# Velocity S-wave (km/s) = 3.85629 4.00845 3.93310
# Velocity P-wave (km/s) = 6.38898 6.85224 6.62466
#
# Compressibility (1/GPa) = 0.02426528
#
# Stress axis : x y z
#
# Youngs Moduli (GPa) = 89.15179 112.52384 44.46691
#
# Poissons Ratio (x) = 0.30093 0.23069
# Poissons Ratio (y) = 0.23843 0.05786
# Poissons Ratio (z) = 0.46251 0.14642
#
# Static dielectric constant tensor:
#      x y z
#    x 3.378840 0.000000 0.000000 
#    y 0.000000 3.936630 0.000000 
#    z 0.000000 0.000000 3.375260 
# 
# 
# High freq. dielectric constant tensor:
#      x y z
#    x 1.749670 0.000000 0.000000 
#    y 0.000000 1.787960 0.000000 
#    z 0.000000 0.000000 1.745630 
# 
# From -- ./inp_files/23681.got.cif
#   From: 2010.03.12/outbox.cif.g09.slc.cpg/sg42_12_cif.got.tgz:23681.got - 2010.04.14 02:04:31.
