data_PCOD8186806
_publ_section_title
;
Structure prediction by ZEFSAII (Michael W. Deem and Ramdas Pophale) SiO2 
 PCOD8186806
Probable space group: F M M 2
;
_chemical_formula_sum "Si O2"
_cell_formula_units_Z 96
_cell_length_a 23.770115
_cell_length_b 8.782691
_cell_length_c 25.370585
_cell_angle_alpha 90.000000
_cell_angle_beta 90.000000
_cell_angle_gamma 90.000000
_cell_volume 5296.504768
_symmetry_space_group_name_H-M "F M M 2"
_symmetry_group_IT_number 42
_symmetry_cell_setting 'orthorhombic'
loop_
_space_group_symop_operation_xyz
x,y,z
-x,-y,z
-x,y,z
x,-y,z
x,1/2+y,1/2+z
-x,1/2-y,1/2+z
-x,1/2+y,1/2+z
x,1/2-y,1/2+z
1/2+x,y,1/2+z
1/2-x,-y,1/2+z
1/2-x,y,1/2+z
1/2+x,-y,1/2+z
1/2+x,1/2+y,z
1/2-x,1/2-y,z
1/2-x,1/2+y,z
1/2+x,1/2-y,z
loop_
_atom_site_type_symbol
_atom_site_label
_atom_site_fract_x
_atom_site_fract_y
_atom_site_fract_z
Si Si1 0.191144 0.319669 0.983520
Si Si2 0.000000 0.681185 0.239664
Si Si3 0.114964 0.179884 0.269882
Si Si4 0.382154 0.319462 0.578575
Si Si5 0.311244 0.319340 0.678191
Si Si6 0.307963 0.177774 0.865309
Si Si7 0.500000 0.818691 0.118417
O O1 0.196592 0.500000 0.987198
O O2 0.250000 0.250000 0.002679
O O3 0.176662 0.264258 0.924259
O O4 0.141752 0.261048 0.022486
O O5 0.946669 0.749125 0.269672
O O6 0.000000 0.500000 0.243783
O O7 0.000000 0.736055 0.178974
O O8 0.152237 0.258154 0.225854
O O9 0.141306 0.221092 0.326679
O O10 0.112647 0.000000 0.260147
O O11 0.385935 0.500000 0.579597
O O12 0.340197 0.263996 0.624273
O O13 0.444712 0.252785 0.588931
O O14 0.307726 0.500000 0.682065
O O15 0.250000 0.250000 0.681476
O O16 0.250000 0.250000 0.844718
O O17 0.297063 0.000000 0.866099
O O18 0.500000 0.000000 0.117289
#
# Coordination Sequence:
#
# PCOD8186806 Si02
#       7
#    16   8  16  16  16  16   8
#     4   9  17  32  53  77 103 135 171 211 261 311
#     4  11  21  37  58  77 103 141 181 217 260 315
#     4  11  22  36  53  77 108 139 175 219 264 313
#     4   9  17  30  51  76 103 132 172 218 261 312
#     4  11  21  33  50  77 108 138 173 218 268 320
#     4   9  19  34  53  77 106 138 175 216 260 312
#     4   9  16  31  52  75  99 131 171 213 252 303
#
# _framework density 18.125162
#
# number of rings (size 3 to 8) (size 9 to 14) (size 15 to 20)
#    0.000    2.167    1.667    2.250    0.000    2.667 
#    0.000    1.667    0.000    4.000    0.000    0.000 
#    0.000    0.000    0.000    0.000    0.000    0.000 
#
# Total GULP energy -297588.304560 kJ/mol
# GULP energy per Si atom -12399.512690 kJ/mol
# Density = 1.808391 g / cm^3
# Si number density = 18.125162 Si / 1000 Ang^3
#
#
#
# Elastic Constant Matrix: (Units=GPa)
#
#
# Indices 1 2 3 4 5 6 
#
# 1 172.7036 37.8641 81.2959 0.0000 0.0000 -0.0001
# 2 37.8641 43.2723 32.9241 0.0000 0.0000 -0.0002
# 3 81.2959 32.9241 118.8786 0.0000 0.0000 0.0000
# 4 0.0000 0.0000 0.0000 19.5514 0.0000 0.0000
# 5 0.0000 0.0000 0.0000 0.0000 33.9362 0.0000
# 6 -0.0001 -0.0002 0.0000 0.0000 0.0000 9.3929
#
#
#
# Elastic Compliance Matrix: (Units=1/GPa)
#
#
# Indices 1 2 3 4 5 6 
#
# 1 0.009073 -0.004078 -0.005076 0.000000 0.000000 0.000000
# 2 -0.004078 0.031112 -0.005828 0.000000 0.000000 0.000001
# 3 -0.005076 -0.005828 0.013497 0.000000 0.000000 0.000000
# 4 0.000000 0.000000 0.000000 0.051147 0.000000 0.000000
# 5 0.000000 0.000000 0.000000 0.000000 0.029467 0.000000
# 6 0.000000 0.000001 0.000000 0.000000 0.000000 0.106463
#
#
# Mechanical properties :
#
#
# Convention : Reuss Voigt Hill
#
# Bulk Modulus (GPa) = 42.15911 71.00252 56.58081
# Shear Modulus (GPa) = 17.94498 24.76078 21.35288
#
# Velocity S-wave (km/s) = 3.14993 3.70009 3.43604
# Velocity P-wave (km/s) = 6.04483 7.58371 6.85757
#
# Compressibility (1/GPa) = 0.02371967
#
# Stress axis : x y z
#
# Youngs Moduli (GPa) = 110.21121 32.14212 74.09015
#
# Poissons Ratio (x) = 0.13106 0.37605
# Poissons Ratio (y) = 0.44940 0.43180
# Poissons Ratio (z) = 0.55939 0.18733
#
# Static dielectric constant tensor:
#      x y z
#    x 3.317520 0.000000 0.000000 
#    y 0.000000 3.173670 0.000000 
#    z 0.000000 0.000000 3.682710 
# 
# 
# High freq. dielectric constant tensor:
#      x y z
#    x 1.707420 0.000000 0.000000 
#    y 0.000000 1.683110 0.000000 
#    z 0.000000 0.000000 1.705870 
# 
# From -- ./inp_files/28113.got.cif
#   From: 2010.03.12/outbox.cif.g09.slc.cpg/sg42_15_cif.got.tgz:28113.got - 2010.04.14 02:04:31.
