data_PCOD8186770
_publ_section_title
;
Structure prediction by ZEFSAII (Michael W. Deem and Ramdas Pophale) SiO2 
 PCOD8186770
Probable space group: F M M 2
;
_chemical_formula_sum "Si O2"
_cell_formula_units_Z 64
_cell_length_a 18.014159
_cell_length_b 17.458494
_cell_length_c 9.642094
_cell_angle_alpha 90.000000
_cell_angle_beta 90.000000
_cell_angle_gamma 90.000000
_cell_volume 3032.439400
_symmetry_space_group_name_H-M "F M M 2"
_symmetry_group_IT_number 42
_symmetry_cell_setting 'orthorhombic'
loop_
_space_group_symop_operation_xyz
x,y,z
-x,-y,z
-x,y,z
x,-y,z
x,1/2+y,1/2+z
-x,1/2-y,1/2+z
-x,1/2+y,1/2+z
x,1/2-y,1/2+z
1/2+x,y,1/2+z
1/2-x,-y,1/2+z
1/2-x,y,1/2+z
1/2+x,-y,1/2+z
1/2+x,1/2+y,z
1/2-x,1/2-y,z
1/2-x,1/2+y,z
1/2+x,1/2-y,z
loop_
_atom_site_type_symbol
_atom_site_label
_atom_site_fract_x
_atom_site_fract_y
_atom_site_fract_z
Si Si1 0.911975 0.158828 0.786090
Si Si2 0.587926 0.784696 0.579319
Si Si3 0.583210 0.583884 0.277901
Si Si4 0.186930 0.500000 0.954699
Si Si5 0.669843 0.000000 0.268879
O O1 0.884363 0.205692 0.650266
O O2 0.000000 0.151099 0.788364
O O3 0.879961 0.074364 0.789495
O O4 0.884069 0.206984 0.921414
O O5 0.500000 0.788404 0.583442
O O6 0.617831 0.856133 0.670155
O O7 0.500000 0.608485 0.328724
O O8 0.579454 0.500000 0.203734
O O9 0.637986 0.575487 0.411314
O O10 0.264702 0.500000 0.877978
O O11 0.204638 0.500000 0.116034
#
# Coordination Sequence:
#
# PCOD8186770 Si02
#       5
#    16  16  16   8   8
#     4  10  23  40  67  99 129 162 210 265 319 373
#     4   9  19  36  63  98 130 158 198 264 322 368
#     4   8  17  35  66  90 115 161 213 259 313 373
#     4  10  25  41  62  88 126 171 212 263 313 373
#     4  12  27  43  64  88 130 175 214 261 309 381
#
# _framework density 21.105121
#
# number of rings (size 3 to 8) (size 9 to 14) (size 15 to 20)
#    0.750    1.750    0.000    0.375    8.750    2.000 
#    0.000    1.250    0.000    0.000    0.000    0.000 
#    0.000    0.000    0.000    0.000    0.000    0.000 
#
# Total GULP energy -198254.146203 kJ/mol
# GULP energy per Si atom -12390.884138 kJ/mol
# Density = 2.105708 g / cm^3
# Si number density = 21.105121 Si / 1000 Ang^3
#
#
#
# Elastic Constant Matrix: (Units=GPa)
#
#
# Indices 1 2 3 4 5 6 
#
# 1 47.4798 41.6895 39.3285 0.0000 0.0000 0.0000
# 2 41.6895 131.6194 64.8223 0.0000 0.0000 0.0000
# 3 39.3285 64.8223 148.7991 0.0000 0.0000 0.0000
# 4 0.0000 0.0000 0.0000 26.3393 0.0000 0.0000
# 5 0.0000 0.0000 0.0000 0.0000 25.7246 0.0000
# 6 0.0000 0.0000 0.0000 0.0000 0.0000 8.6608
#
#
#
# Elastic Compliance Matrix: (Units=1/GPa)
#
#
# Indices 1 2 3 4 5 6 
#
# 1 0.031998 -0.007601 -0.005146 0.000000 0.000000 0.000000
# 2 -0.007601 0.011478 -0.002992 0.000000 0.000000 0.000000
# 3 -0.005146 -0.002992 0.009384 0.000000 0.000000 0.000000
# 4 0.000000 0.000000 0.000000 0.037966 0.000000 0.000000
# 5 0.000000 0.000000 0.000000 0.000000 0.038873 0.000000
# 6 0.000000 0.000000 0.000000 0.000000 0.000000 0.115463
#
#
# Mechanical properties :
#
#
# Convention : Reuss Voigt Hill
#
# Bulk Modulus (GPa) = 46.76476 68.84210 57.80343
# Shear Modulus (GPa) = 17.62008 24.28215 20.95111
#
# Velocity S-wave (km/s) = 2.89255 3.39563 3.15414
# Velocity P-wave (km/s) = 5.77598 6.93277 6.38064
#
# Compressibility (1/GPa) = 0.02138362
#
# Stress axis : x y z
#
# Youngs Moduli (GPa) = 31.25195 87.11977 106.56626
#
# Poissons Ratio (x) = 0.66217 0.54840
# Poissons Ratio (y) = 0.23754 0.31880
# Poissons Ratio (z) = 0.16083 0.26062
#
# Static dielectric constant tensor:
#      x y z
#    x 3.392670 0.000000 0.000000 
#    y 0.000000 3.875330 0.000000 
#    z 0.000000 0.000000 3.983320 
# 
# 
# High freq. dielectric constant tensor:
#      x y z
#    x 1.784780 0.000000 0.000000 
#    y 0.000000 1.831740 0.000000 
#    z 0.000000 0.000000 1.824850 
# 
# From -- ./inp_files/3871.got.cif
#   From: 2010.03.12/outbox.cif.g09.slc.cpg/sg42_2_cif.got.tgz:3871.got - 2010.04.14 02:04:31.
