data_PCOD8186904
_publ_section_title
;
Structure prediction by ZEFSAII (Michael W. Deem and Ramdas Pophale) SiO2 
 PCOD8186904
Probable space group: F D D 2
;
_chemical_formula_sum "Si O2"
_cell_formula_units_Z 72
_cell_length_a 6.688188
_cell_length_b 18.680371
_cell_length_c 31.686434
_cell_angle_alpha 90.000000
_cell_angle_beta 90.000000
_cell_angle_gamma 90.000000
_cell_volume 3958.834404
_symmetry_space_group_name_H-M "F D D 2"
_symmetry_group_IT_number 43
_symmetry_cell_setting 'orthorhombic'
loop_
_space_group_symop_operation_xyz
x,y,z
-x,-y,z
1/4-x,1/4+y,1/4+z
1/4+x,1/4-y,1/4+z
x,1/2+y,1/2+z
-x,1/2-y,1/2+z
1/4-x,3/4+y,3/4+z
1/4+x,3/4-y,3/4+z
1/2+x,y,1/2+z
1/2-x,-y,1/2+z
3/4-x,1/4+y,3/4+z
3/4+x,1/4-y,3/4+z
1/2+x,1/2+y,z
1/2-x,1/2-y,z
3/4-x,3/4+y,1/4+z
3/4+x,3/4-y,1/4+z
loop_
_atom_site_type_symbol
_atom_site_label
_atom_site_fract_x
_atom_site_fract_y
_atom_site_fract_z
Si Si1 0.041652 0.214883 0.608280
Si Si2 0.579797 0.153861 0.465352
Si Si3 0.750000 0.250000 0.681582
Si Si4 0.250000 0.250000 0.424672
Si Si5 0.000000 0.000000 0.785936
Si Si6 0.131469 0.815046 0.390596
O O1 0.250000 0.250000 0.600708
O O2 0.084672 0.131482 0.611123
O O3 0.940055 0.250537 0.649816
O O4 0.921131 0.219800 0.565462
O O5 0.382553 0.198056 0.453309
O O6 0.658163 0.182207 0.510353
O O7 0.768005 0.170207 0.435808
O O8 0.516271 0.069734 0.462109
O O9 0.396095 0.297800 0.395513
O O10 0.250000 0.750000 0.368496
#
# Coordination Sequence:
#
# PCOD8186904 Si02
#       6
#    16  16   8   8   8  16
#     4  10  21  36  55  83 116 152 183 233 290 340
#     4  10  19  35  57  85 109 145 187 238 275 334
#     4   9  20  38  60  85 112 140 202 240 268 331
#     4  10  16  30  62  83 104 145 196 227 272 333
#     4  11  22  36  54  80 120 149 186 235 292 340
#     4   9  18  34  57  83 108 140 192 234 271 332
#
# _framework density 18.187170999999999
#
# number of rings (size 3 to 8) (size 9 to 14) (size 15 to 20)
#    0.000    2.222    3.333    1.333    1.556    1.778 
#    0.000    2.222    0.000    2.667    0.000    0.000 
#    0.000    0.000    0.000    0.000    0.000    0.000 
#
# Total GULP energy -223040.439784 kJ/mol
# GULP energy per Si atom -12391.135544 kJ/mol
# Density = 1.814578 g / cm^3
# Si number density = 18.187171 Si / 1000 Ang^3
#
#
#
# Elastic Constant Matrix: (Units=GPa)
#
#
# Indices 1 2 3 4 5 6 
#
# 1 152.0063 69.6737 57.0350 0.0000 0.0000 0.0000
# 2 69.6737 169.0126 76.5702 0.0000 0.0000 0.0000
# 3 57.0350 76.5702 99.1113 0.0000 0.0000 0.0000
# 4 0.0000 0.0000 0.0000 36.0591 0.0000 0.0000
# 5 0.0000 0.0000 0.0000 0.0000 10.7351 0.0000
# 6 0.0000 0.0000 0.0000 0.0000 0.0000 29.1792
#
#
#
# Elastic Compliance Matrix: (Units=1/GPa)
#
#
# Indices 1 2 3 4 5 6 
#
# 1 0.008833 -0.002059 -0.003492 0.000000 0.000000 0.000000
# 2 -0.002059 0.009583 -0.006218 0.000000 0.000000 0.000000
# 3 -0.003492 -0.006218 0.016903 0.000000 0.000000 0.000000
# 4 0.000000 0.000000 0.000000 0.027732 0.000000 0.000000
# 5 0.000000 0.000000 0.000000 0.000000 0.093153 0.000000
# 6 0.000000 0.000000 0.000000 0.000000 0.000000 0.034271
#
#
# Mechanical properties :
#
#
# Convention : Reuss Voigt Hill
#
# Bulk Modulus (GPa) = 84.89219 91.85424 88.37322
# Shear Modulus (GPa) = 22.94202 29.65143 26.29672
#
# Velocity S-wave (km/s) = 3.55553 4.04214 3.80662
# Velocity P-wave (km/s) = 7.97709 8.50881 8.24724
#
# Compressibility (1/GPa) = 0.01177965
#
# Stress axis : x y z
#
# Youngs Moduli (GPa) = 113.21434 104.35376 59.15967
#
# Poissons Ratio (x) = 0.21488 0.20659
# Poissons Ratio (y) = 0.23312 0.36788
# Poissons Ratio (z) = 0.39536 0.64891
#
# Static dielectric constant tensor:
#      x y z
#    x 3.521030 0.000000 0.000000 
#    y 0.000000 3.672490 0.000000 
#    z 0.000000 0.000000 3.045330 
# 
# 
# High freq. dielectric constant tensor:
#      x y z
#    x 1.722430 0.000000 0.000000 
#    y 0.000000 1.716630 0.000000 
#    z 0.000000 0.000000 1.669130 
# 
# From -- ./inp_files/23440.got.cif
#   From: 2010.06.25/outbox.cif.g09.slc.cpg/sg43_12_cif.got.tgz:23440.got - 2010.06.26 16:48:59.
