data_PCOD8186013
_publ_section_title
;
Structure prediction by ZEFSAII (Michael W. Deem and Ramdas Pophale) SiO2 
 PCOD8186013
Probable space group: F M M 2
;
_chemical_formula_sum "Si O2"
_cell_formula_units_Z 96
_cell_length_a 9.015540
_cell_length_b 30.221241
_cell_length_c 19.886977
_cell_angle_alpha 90.000000
_cell_angle_beta 90.000000
_cell_angle_gamma 90.000000
_cell_volume 5418.421804
_symmetry_space_group_name_H-M "F M M 2"
_symmetry_group_IT_number 42
_symmetry_cell_setting 'orthorhombic'
loop_
_space_group_symop_operation_xyz
x,y,z
-x,-y,z
-x,y,z
x,-y,z
x,1/2+y,1/2+z
-x,1/2-y,1/2+z
-x,1/2+y,1/2+z
x,1/2-y,1/2+z
1/2+x,y,1/2+z
1/2-x,-y,1/2+z
1/2-x,y,1/2+z
1/2+x,-y,1/2+z
1/2+x,1/2+y,z
1/2-x,1/2-y,z
1/2-x,1/2+y,z
1/2+x,1/2-y,z
loop_
_atom_site_type_symbol
_atom_site_label
_atom_site_fract_x
_atom_site_fract_y
_atom_site_fract_z
Si Si1 0.174357 0.618042 0.649680
Si Si2 0.322855 0.888034 0.290226
Si Si3 0.162481 0.291334 0.299799
Si Si4 0.829843 0.449303 0.532335
Si Si5 0.333709 0.292612 0.640274
Si Si6 0.329777 0.948018 0.897325
O O1 0.249769 0.602243 0.718436
O O2 0.209978 0.579970 0.596416
O O3 0.242676 0.663506 0.621297
O O4 0.000000 0.624791 0.661601
O O5 0.500000 0.888624 0.281463
O O6 0.269564 0.839594 0.317342
O O7 0.270589 0.924886 0.341688
O O8 0.250000 0.250000 0.331731
O O9 0.157039 0.287291 0.219894
O O10 0.000000 0.287820 0.331430
O O11 0.797949 0.500000 0.552221
O O12 0.726948 0.434039 0.470782
O O13 0.000000 0.442681 0.510132
O O14 0.500000 0.295548 0.610154
O O15 0.250000 0.250000 0.609082
O O16 0.500000 0.933237 0.889570
O O17 0.310012 0.000000 0.886402
#
# Coordination Sequence:
#
# PCOD8186013 Si02
#       6
#    16  16  16  16  16  16
#     4  10  19  31  50  77 106 134 167 209 253 295
#     4  10  20  33  50  75 105 135 168 206 249 297
#     4   8  15  26  42  66  95 127 161 196 236 285
#     4   9  19  36  55  73  97 132 169 204 248 303
#     4   9  16  27  44  68  99 133 168 205 248 297
#     4  10  21  36  54  75  98 128 168 210 252 302
#
# _framework density 17.717336
#
# number of rings (size 3 to 8) (size 9 to 14) (size 15 to 20)
#    0.000    2.667    0.000    3.000    0.000    7.667 
#    0.000    1.667    0.000    1.000    0.000    4.667 
#    0.000    0.000    0.000    0.000    0.000    0.000 
#
# Total GULP energy -297548.190106 kJ/mol
# GULP energy per Si atom -12397.841254 kJ/mol
# Density = 1.767701 g / cm^3
# Si number density = 17.717336 Si / 1000 Ang^3
#
#
#
# Elastic Constant Matrix: (Units=GPa)
#
#
# Indices 1 2 3 4 5 6 
#
# 1 108.9921 57.6159 48.3957 0.0000 0.0000 0.0000
# 2 57.6159 100.6792 58.5498 0.0000 0.0000 0.0000
# 3 48.3957 58.5498 71.2491 0.0000 0.0000 0.0000
# 4 0.0000 0.0000 0.0000 -1.5164 0.0000 0.0000
# 5 0.0000 0.0000 0.0000 0.0000 24.0481 0.0000
# 6 0.0000 0.0000 0.0000 0.0000 0.0000 32.7215
#
#
#
# Elastic Compliance Matrix: (Units=1/GPa)
#
#
# Indices 1 2 3 4 5 6 
#
# 1 0.014273 -0.004846 -0.005713 0.000000 0.000000 0.000000
# 2 -0.004846 0.020669 -0.013694 0.000000 0.000000 0.000000
# 3 -0.005713 -0.013694 0.029169 0.000000 0.000000 0.000000
# 4 0.000000 0.000000 0.000000 -0.659475 0.000000 0.000000
# 5 0.000000 0.000000 0.000000 0.000000 0.041583 0.000000
# 6 0.000000 0.000000 0.000000 0.000000 0.000000 0.030561
#
#
# Mechanical properties :
#
#
# Convention : Reuss Voigt Hill
#
# Bulk Modulus (GPa) = 64.07670 67.78259 65.92964
# Shear Modulus (GPa) = -10.64934 18.80792 4.07929
#
# Velocity S-wave (km/s) = -2.45433 3.26169 1.51902
# Velocity P-wave (km/s) = 5.31159 7.24746 6.35368
#
# Compressibility (1/GPa) = 0.01560630
#
# Stress axis : x y z
#
# Youngs Moduli (GPa) = 70.06065 48.38122 34.28343
#
# Poissons Ratio (x) = 0.23445 0.19586
# Poissons Ratio (y) = 0.33951 0.46946
# Poissons Ratio (z) = 0.40025 0.66251
#
# Static dielectric constant tensor:
#      x y z
#    x 3.497650 0.000000 0.000000 
#    y 0.000000 3.483690 0.000000 
#    z 0.000000 0.000000 2.867790 
# 
# 
# High freq. dielectric constant tensor:
#      x y z
#    x 1.698100 0.000000 0.000000 
#    y 0.000000 1.695780 0.000000 
#    z 0.000000 0.000000 1.640330 
# 
# From -- ./inp_files/23717.got.cif
#   From: 2010.03.12/outbox.cif.g09.slc.cpg/sg42_12_cif.got.tgz:23717.got - 2010.04.14 02:04:31.
