data_PCOD8186231
_publ_section_title
;
Structure prediction by ZEFSAII (Michael W. Deem and Ramdas Pophale) SiO2 
 PCOD8186231
Probable space group: F M M 2
;
_chemical_formula_sum "Si O2"
_cell_formula_units_Z 96
_cell_length_a 30.458117
_cell_length_b 8.985040
_cell_length_c 19.512309
_cell_angle_alpha 90.000000
_cell_angle_beta 90.000000
_cell_angle_gamma 90.000000
_cell_volume 5339.882864
_symmetry_space_group_name_H-M "F M M 2"
_symmetry_group_IT_number 42
_symmetry_cell_setting 'orthorhombic'
loop_
_space_group_symop_operation_xyz
x,y,z
-x,-y,z
-x,y,z
x,-y,z
x,1/2+y,1/2+z
-x,1/2-y,1/2+z
-x,1/2+y,1/2+z
x,1/2-y,1/2+z
1/2+x,y,1/2+z
1/2-x,-y,1/2+z
1/2-x,y,1/2+z
1/2+x,-y,1/2+z
1/2+x,1/2+y,z
1/2-x,1/2-y,z
1/2-x,1/2+y,z
1/2+x,1/2-y,z
loop_
_atom_site_type_symbol
_atom_site_label
_atom_site_fract_x
_atom_site_fract_y
_atom_site_fract_z
Si Si1 0.617654 0.823926 0.320050
Si Si2 0.709108 0.162669 0.974276
Si Si3 0.292424 0.333400 0.311919
Si Si4 0.550731 0.668752 0.064795
Si Si5 0.550723 0.170598 0.723510
Si Si6 0.113676 0.676504 0.963610
O O1 0.663584 0.756506 0.293484
O O2 0.580011 0.784332 0.266098
O O3 0.602615 0.757553 0.392717
O O4 0.622710 0.000000 0.326469
O O5 0.750000 0.250000 0.007253
O O6 0.713570 0.156405 0.892889
O O7 0.661366 0.232421 0.991483
O O8 0.712136 0.000000 0.006977
O O9 0.295575 0.500000 0.280878
O O10 0.250000 0.250000 0.279916
O O11 0.500000 0.693386 0.047323
O O12 0.564638 0.500000 0.046722
O O13 0.559927 0.702069 0.143961
O O14 0.577708 0.784894 0.019801
O O15 0.500000 0.201528 0.740995
O O16 0.562670 0.000000 0.741764
O O17 0.114995 0.500000 0.949732
#
# Coordination Sequence:
#
# PCOD8186231 Si02
#       6
#    16  16  16  16  16  16
#     4  11  21  32  50  77 106 135 170 212 254 296
#     4   8  15  26  42  66  95 127 161 196 236 285
#     4   9  16  28  46  70 101 134 168 205 249 299
#     4   9  19  36  56  76  98 128 167 208 253 308
#     4   9  19  37  57  74  97 131 168 208 258 312
#     4  10  20  33  50  75 105 134 166 207 253 299
#
# _framework density 17.977923000000001
#
# number of rings (size 3 to 8) (size 9 to 14) (size 15 to 20)
#    0.000    2.667    0.000    4.500    0.000    6.667 
#    0.000    1.667    0.000    1.000    0.000    2.333 
#    0.000    0.000    0.000    0.000    0.000    0.000 
#
# Total GULP energy -297534.134649 kJ/mol
# GULP energy per Si atom -12397.255610 kJ/mol
# Density = 1.793700 g / cm^3
# Si number density = 17.977923 Si / 1000 Ang^3
#
#
#
# Elastic Constant Matrix: (Units=GPa)
#
#
# Indices 1 2 3 4 5 6 
#
# 1 118.2128 60.6489 52.4641 0.0000 0.0000 0.0000
# 2 60.6489 117.6295 38.0726 0.0000 0.0000 0.0000
# 3 52.4641 38.0726 49.6850 0.0000 0.0000 0.0000
# 4 0.0000 0.0000 0.0000 24.1807 0.0000 0.0000
# 5 0.0000 0.0000 0.0000 0.0000 -5.4273 0.0000
# 6 0.0000 0.0000 0.0000 0.0000 0.0000 34.9439
#
#
#
# Elastic Compliance Matrix: (Units=1/GPa)
#
#
# Indices 1 2 3 4 5 6 
#
# 1 0.017215 -0.003979 -0.015129 0.000000 0.000000 0.000000
# 2 -0.003979 0.012225 -0.005166 0.000000 0.000000 0.000000
# 3 -0.015129 -0.005166 0.040060 0.000000 0.000000 0.000000
# 4 0.000000 0.000000 0.000000 0.041355 0.000000 0.000000
# 5 0.000000 0.000000 0.000000 0.000000 -0.184255 0.000000
# 6 0.000000 0.000000 0.000000 0.000000 0.000000 0.028617
#
#
# Mechanical properties :
#
#
# Convention : Reuss Voigt Hill
#
# Bulk Modulus (GPa) = 47.72704 65.32207 56.52456
# Shear Modulus (GPa) = 465.07959 19.69556 242.38758
#
# Velocity S-wave (km/s) = 16.10144 3.31349 11.62402
# Velocity P-wave (km/s) = 19.29457 7.14510 14.54876
#
# Compressibility (1/GPa) = 0.02095248
#
# Stress axis : x y z
#
# Youngs Moduli (GPa) = 58.08780 81.79956 24.96232
#
# Poissons Ratio (x) = 0.32551 0.37765
# Poissons Ratio (y) = 0.23115 0.12895
# Poissons Ratio (z) = 0.87881 0.42256
#
# Static dielectric constant tensor:
#      x y z
#    x 3.505080 0.000000 0.000000 
#    y 0.000000 3.398060 0.000000 
#    z 0.000000 0.000000 2.864400 
# 
# 
# High freq. dielectric constant tensor:
#      x y z
#    x 1.709680 0.000000 0.000000 
#    y 0.000000 1.700570 0.000000 
#    z 0.000000 0.000000 1.649130 
# 
# From -- ./inp_files/23732.got.cif
#   From: 2010.03.12/outbox.cif.g09.slc.cpg/sg42_12_cif.got.tgz:23732.got - 2010.04.14 02:04:31.
