data_PCOD8186310
_publ_section_title
;
Structure prediction by ZEFSAII (Michael W. Deem and Ramdas Pophale) SiO2 
 PCOD8186310
Probable space group: F M M 2
;
_chemical_formula_sum "Si O2"
_cell_formula_units_Z 80
_cell_length_a 10.501066
_cell_length_b 17.143440
_cell_length_c 22.501696
_cell_angle_alpha 90.000000
_cell_angle_beta 90.000000
_cell_angle_gamma 90.000000
_cell_volume 4050.854207
_symmetry_space_group_name_H-M "F M M 2"
_symmetry_group_IT_number 42
_symmetry_cell_setting 'orthorhombic'
loop_
_space_group_symop_operation_xyz
x,y,z
-x,-y,z
-x,y,z
x,-y,z
x,1/2+y,1/2+z
-x,1/2-y,1/2+z
-x,1/2+y,1/2+z
x,1/2-y,1/2+z
1/2+x,y,1/2+z
1/2-x,-y,1/2+z
1/2-x,y,1/2+z
1/2+x,-y,1/2+z
1/2+x,1/2+y,z
1/2-x,1/2-y,z
1/2-x,1/2+y,z
1/2+x,1/2-y,z
loop_
_atom_site_type_symbol
_atom_site_label
_atom_site_fract_x
_atom_site_fract_y
_atom_site_fract_z
Si Si1 0.500000 0.913793 0.559801
Si Si2 0.352473 0.912365 0.933632
Si Si3 0.000000 0.408398 0.119144
Si Si4 0.293932 0.838599 0.341749
Si Si5 0.000000 0.410390 0.420049
Si Si6 0.500000 0.908072 0.256984
Si Si7 0.259834 0.658973 0.552054
O O1 0.500000 0.915196 0.489400
O O2 0.371045 0.872523 0.581101
O O3 0.500000 0.000000 0.587112
O O4 0.500000 0.908223 0.949317
O O5 0.333473 0.882631 0.865051
O O6 0.299191 0.000000 0.938374
O O7 0.277396 0.863465 0.983285
O O8 0.000000 0.387357 0.188395
O O9 0.874706 0.372518 0.091122
O O10 0.000000 0.500000 0.107017
O O11 0.250000 0.750000 0.331011
O O12 0.381589 0.857867 0.398843
O O13 0.369909 0.871217 0.284559
O O14 0.000000 0.500000 0.393400
O O15 0.500000 0.000000 0.268795
O O16 0.250000 0.750000 0.557200
#
# Coordination Sequence:
#
# PCOD8186310 Si02
#       7
#     8  16   8  16   8   8  16
#     4  11  22  35  58  90 126 167 207 251 302 365
#     4  11  22  35  58  91 133 172 203 247 312 388
#     4  11  24  47  71  87 120 173 223 260 312 388
#     4  11  22  35  60  90 122 155 202 262 313 357
#     4  10  20  34  55  82 122 169 204 235 288 378
#     4  10  24  46  70  85 110 169 226 256 296 383
#     4  12  24  38  62  97 131 166 206 263 320 375
#
# _framework density 19.748919999999998
#
# number of rings (size 3 to 8) (size 9 to 14) (size 15 to 20)
#    0.000    1.000    3.000    5.400    2.800    0.800 
#    0.000    0.000    2.200    0.000    0.000    0.000 
#    0.000    0.000    0.000    0.000    0.000    0.000 
#
# Total GULP energy -247796.198812 kJ/mol
# GULP energy per Si atom -12389.809941 kJ/mol
# Density = 1.970397 g / cm^3
# Si number density = 19.748920 Si / 1000 Ang^3
#
#
#
# Elastic Constant Matrix: (Units=GPa)
#
#
# Indices 1 2 3 4 5 6 
#
# 1 137.2104 78.7628 46.3943 0.0000 0.0000 0.0000
# 2 78.7628 173.5086 52.6819 0.0000 0.0000 0.0000
# 3 46.3943 52.6819 101.1834 0.0000 0.0000 0.0000
# 4 0.0000 0.0000 0.0000 -66.1703 0.0000 0.0000
# 5 0.0000 0.0000 0.0000 0.0000 23.9051 0.0000
# 6 0.0000 0.0000 0.0000 0.0000 0.0000 41.2969
#
#
#
# Elastic Compliance Matrix: (Units=1/GPa)
#
#
# Indices 1 2 3 4 5 6 
#
# 1 0.010469 -0.003913 -0.002762 0.000000 0.000000 0.000000
# 2 -0.003913 0.008308 -0.002532 0.000000 0.000000 0.000000
# 3 -0.002762 -0.002532 0.012468 0.000000 0.000000 0.000000
# 4 0.000000 0.000000 0.000000 -0.015113 0.000000 0.000000
# 5 0.000000 0.000000 0.000000 0.000000 0.041832 0.000000
# 6 0.000000 0.000000 0.000000 0.000000 0.000000 0.024215
#
#
# Mechanical properties :
#
#
# Convention : Reuss Voigt Hill
#
# Bulk Modulus (GPa) = 77.94216 85.28672 81.61444
# Shear Modulus (GPa) = 47.67782 15.41058 31.54420
#
# Velocity S-wave (km/s) = 4.91878 2.79646 4.00091
# Velocity P-wave (km/s) = 8.47416 7.32845 7.92205
#
# Compressibility (1/GPa) = 0.01283003
#
# Stress axis : x y z
#
# Youngs Moduli (GPa) = 95.52462 120.35915 80.20690
#
# Poissons Ratio (x) = 0.47100 0.22157
# Poissons Ratio (y) = 0.37382 0.20305
# Poissons Ratio (z) = 0.26389 0.30469
#
# Static dielectric constant tensor:
#      x y z
#    x 4.141750 0.000000 0.000000 
#    y 0.000000 3.717360 0.000000 
#    z 0.000000 0.000000 3.376590 
# 
# 
# High freq. dielectric constant tensor:
#      x y z
#    x 1.792470 0.000000 0.000000 
#    y 0.000000 1.779180 0.000000 
#    z 0.000000 0.000000 1.737110 
# 
# From -- ./inp_files/28679.got.cif
#   From: 2010.03.12/outbox.cif.g09.slc.cpg/sg42_15_cif.got.tgz:28679.got - 2010.04.14 02:04:31.
