data_PCOD8186014
_publ_section_title
;
Structure prediction by ZEFSAII (Michael W. Deem and Ramdas Pophale) SiO2 
 PCOD8186014
Probable space group: F M M 2
;
_chemical_formula_sum "Si O2"
_cell_formula_units_Z 88
_cell_length_a 9.406457
_cell_length_b 23.335906
_cell_length_c 23.060157
_cell_angle_alpha 90.000000
_cell_angle_beta 90.000000
_cell_angle_gamma 90.000000
_cell_volume 5061.893471
_symmetry_space_group_name_H-M "F M M 2"
_symmetry_group_IT_number 42
_symmetry_cell_setting 'orthorhombic'
loop_
_space_group_symop_operation_xyz
x,y,z
-x,-y,z
-x,y,z
x,-y,z
x,1/2+y,1/2+z
-x,1/2-y,1/2+z
-x,1/2+y,1/2+z
x,1/2-y,1/2+z
1/2+x,y,1/2+z
1/2-x,-y,1/2+z
1/2-x,y,1/2+z
1/2+x,-y,1/2+z
1/2+x,1/2+y,z
1/2-x,1/2-y,z
1/2-x,1/2+y,z
1/2+x,1/2-y,z
loop_
_atom_site_type_symbol
_atom_site_label
_atom_site_fract_x
_atom_site_fract_y
_atom_site_fract_z
Si Si1 0.164825 0.191527 0.856970
Si Si2 0.250000 0.750000 0.672028
Si Si3 0.660719 0.566149 0.680270
Si Si4 0.337291 0.807833 0.485570
Si Si5 0.161363 0.849681 0.253374
Si Si6 0.845399 0.654991 0.084958
O O1 0.250000 0.250000 0.856768
O O2 0.175918 0.163956 0.921530
O O3 0.239318 0.151581 0.810086
O O4 0.000000 0.202399 0.840160
O O5 0.160510 0.708528 0.714759
O O6 0.160323 0.791658 0.630251
O O7 0.500000 0.574217 0.705241
O O8 0.700926 0.500000 0.674046
O O9 0.778304 0.595734 0.719959
O O10 0.670435 0.594815 0.617323
O O11 0.500000 0.794304 0.500592
O O12 0.250000 0.750000 0.488996
O O13 0.274748 0.848162 0.535587
O O14 0.000000 0.861940 0.272150
O O15 0.000000 0.659113 0.055058
#
# Coordination Sequence:
#
# PCOD8186014 Si02
#       6
#    16   8  16  16  16  16
#     4  10  20  33  49  72 104 139 173 208 253 308
#     4  10  20  30  46  74 108 136 164 202 256 312
#     4   9  20  38  56  75 102 137 174 213 261 310
#     4  10  20  32  48  72 104 138 171 207 250 302
#     4  11  21  32  52  78 106 136 171 215 256 306
#     4  10  19  31  51  75 102 134 169 208 252 307
#
# _framework density 17.384798
#
# number of rings (size 3 to 8) (size 9 to 14) (size 15 to 20)
#    0.000    2.000    1.818    2.182    0.000    6.909 
#    0.000    0.000    0.000    1.091    0.000    5.091 
#    0.000    0.000    0.000    0.000    0.000    0.000 
#
# Total GULP energy -272649.006080 kJ/mol
# GULP energy per Si atom -12393.136640 kJ/mol
# Density = 1.734523 g / cm^3
# Si number density = 17.384798 Si / 1000 Ang^3
#
#
#
# Elastic Constant Matrix: (Units=GPa)
#
#
# Indices 1 2 3 4 5 6 
#
# 1 157.4762 41.1592 68.8707 0.0000 0.0000 0.0000
# 2 41.1592 95.6472 35.3478 0.0000 0.0000 0.0000
# 3 68.8707 35.3478 104.6445 0.0000 0.0000 0.0000
# 4 0.0000 0.0000 0.0000 12.0347 0.0000 0.0000
# 5 0.0000 0.0000 0.0000 0.0000 21.2728 0.0000
# 6 0.0000 0.0000 0.0000 0.0000 0.0000 18.4624
#
#
#
# Elastic Compliance Matrix: (Units=1/GPa)
#
#
# Indices 1 2 3 4 5 6 
#
# 1 0.009232 -0.001974 -0.005409 0.000000 0.000000 0.000000
# 2 -0.001974 0.012368 -0.002879 0.000000 0.000000 0.000000
# 3 -0.005409 -0.002879 0.014089 0.000000 0.000000 0.000000
# 4 0.000000 0.000000 0.000000 0.083093 0.000000 0.000000
# 5 0.000000 0.000000 0.000000 0.000000 0.047008 0.000000
# 6 0.000000 0.000000 0.000000 0.000000 0.000000 0.054164
#
#
# Mechanical properties :
#
#
# Convention : Reuss Voigt Hill
#
# Bulk Modulus (GPa) = 65.94014 72.05815 68.99914
# Shear Modulus (GPa) = 20.36394 24.51333 22.43863
#
# Velocity S-wave (km/s) = 3.42623 3.75913 3.59653
# Velocity P-wave (km/s) = 7.32559 7.77048 7.55131
#
# Compressibility (1/GPa) = 0.01516527
#
# Stress axis : x y z
#
# Youngs Moduli (GPa) = 108.32397 80.85151 70.97971
#
# Poissons Ratio (x) = 0.15957 0.38393
# Poissons Ratio (y) = 0.21379 0.20435
# Poissons Ratio (z) = 0.58592 0.23277
#
# Static dielectric constant tensor:
#      x y z
#    x 3.405460 0.000000 0.000000 
#    y 0.000000 2.904190 0.000000 
#    z 0.000000 0.000000 3.599640 
# 
# 
# High freq. dielectric constant tensor:
#      x y z
#    x 1.685470 0.000000 0.000000 
#    y 0.000000 1.628050 0.000000 
#    z 0.000000 0.000000 1.675480 
# 
# From -- ./inp_files/23522.got.cif
#   From: 2010.03.12/outbox.cif.g09.slc.cpg/sg42_12_cif.got.tgz:23522.got - 2010.04.14 02:04:31.
