data_PCOD8186569
_publ_section_title
;
Structure prediction by ZEFSAII (Michael W. Deem and Ramdas Pophale) SiO2 
 PCOD8186569
Probable space group: F M M 2
;
_chemical_formula_sum "Si O2"
_cell_formula_units_Z 80
_cell_length_a 9.774396
_cell_length_b 29.344883
_cell_length_c 14.998886
_cell_angle_alpha 90.000000
_cell_angle_beta 90.000000
_cell_angle_gamma 90.000000
_cell_volume 4302.108078
_symmetry_space_group_name_H-M "F M M 2"
_symmetry_group_IT_number 42
_symmetry_cell_setting 'orthorhombic'
loop_
_space_group_symop_operation_xyz
x,y,z
-x,-y,z
-x,y,z
x,-y,z
x,1/2+y,1/2+z
-x,1/2-y,1/2+z
-x,1/2+y,1/2+z
x,1/2-y,1/2+z
1/2+x,y,1/2+z
1/2-x,-y,1/2+z
1/2-x,y,1/2+z
1/2+x,-y,1/2+z
1/2+x,1/2+y,z
1/2-x,1/2-y,z
1/2-x,1/2+y,z
1/2+x,1/2-y,z
loop_
_atom_site_type_symbol
_atom_site_label
_atom_site_fract_x
_atom_site_fract_y
_atom_site_fract_z
Si Si1 0.337967 0.108734 0.880210
Si Si2 0.849251 0.711566 0.877498
Si Si3 0.161204 0.387727 0.079574
Si Si4 0.152205 0.711451 0.089384
Si Si5 0.341433 0.946606 0.244929
O O1 0.500000 0.099550 0.869853
O O2 0.300991 0.160525 0.851663
O O3 0.253829 0.073882 0.820639
O O4 0.285269 0.099405 0.981146
O O5 0.750000 0.750000 0.835767
O O6 0.000000 0.720667 0.838246
O O7 0.853954 0.715899 0.983381
O O8 0.215806 0.338298 0.112796
O O9 0.204299 0.426346 0.149439
O O10 0.000000 0.381747 0.070339
O O11 0.250000 0.750000 0.131507
O O12 0.000000 0.717965 0.129513
O O13 0.500000 0.934884 0.264822
O O14 0.315921 0.000000 0.240384
#
# Coordination Sequence:
#
# PCOD8186569 Si02
#       5
#    16  16  16  16  16
#     4   9  18  34  55  77 101 132 170 207 245 295
#     4   8  14  25  44  71 100 129 162 198 236 284
#     4   8  16  33  54  73  98 134 169 199 240 300
#     4   8  13  24  44  69  96 126 160 196 234 281
#     4  10  21  36  53  74  99 128 167 214 259 302
#
# _framework density 18.595535000000002
#
# number of rings (size 3 to 8) (size 9 to 14) (size 15 to 20)
#    0.000    3.400    0.000    2.400    0.000    2.000 
#    0.000    8.000    0.000    4.800    0.000    0.000 
#    0.000    0.000    0.000    0.000    0.000    0.000 
#
# Total GULP energy -247877.866120 kJ/mol
# GULP energy per Si atom -12393.893306 kJ/mol
# Density = 1.855321 g / cm^3
# Si number density = 18.595535 Si / 1000 Ang^3
#
#
#
# Elastic Constant Matrix: (Units=GPa)
#
#
# Indices 1 2 3 4 5 6 
#
# 1 71.9916 69.6058 41.4396 0.0000 0.0000 0.0000
# 2 69.6058 153.1638 65.3927 0.0000 0.0000 0.0000
# 3 41.4396 65.3927 80.1125 0.0000 0.0000 0.0000
# 4 0.0000 0.0000 0.0000 -25.7514 0.0000 0.0000
# 5 0.0000 0.0000 0.0000 0.0000 30.5793 0.0000
# 6 0.0000 0.0000 0.0000 0.0000 0.0000 32.6947
#
#
#
# Elastic Compliance Matrix: (Units=1/GPa)
#
#
# Indices 1 2 3 4 5 6 
#
# 1 0.026507 -0.009504 -0.005953 0.000000 0.000000 0.000000
# 2 -0.009504 0.013429 -0.006046 0.000000 0.000000 0.000000
# 3 -0.005953 -0.006046 0.020496 0.000000 0.000000 0.000000
# 4 0.000000 0.000000 0.000000 -0.038833 0.000000 0.000000
# 5 0.000000 0.000000 0.000000 0.000000 0.032702 0.000000
# 6 0.000000 0.000000 0.000000 0.000000 0.000000 0.030586
#
#
# Mechanical properties :
#
#
# Convention : Reuss Voigt Hill
#
# Bulk Modulus (GPa) = 57.38342 73.12713 65.25528
# Shear Modulus (GPa) = 37.39663 16.09319 26.74491
#
# Velocity S-wave (km/s) = 4.48934 2.94502 3.79653
# Velocity P-wave (km/s) = 7.60250 7.13965 7.37471
#
# Compressibility (1/GPa) = 0.01742664
#
# Stress axis : x y z
#
# Youngs Moduli (GPa) = 37.72658 74.46338 48.78900
#
# Poissons Ratio (x) = 0.70773 0.29043
# Poissons Ratio (y) = 0.35857 0.29496
# Poissons Ratio (z) = 0.22458 0.45017
#
# Static dielectric constant tensor:
#      x y z
#    x 3.392070 0.000000 0.000000 
#    y 0.000000 3.787730 0.000000 
#    z 0.000000 0.000000 3.187450 
# 
# 
# High freq. dielectric constant tensor:
#      x y z
#    x 1.697170 0.000000 0.000000 
#    y 0.000000 1.725380 0.000000 
#    z 0.000000 0.000000 1.702300 
# 
# From -- ./inp_files/10936.got.cif
#   From: 2010.03.12/outbox.cif.g09.slc.cpg/sg42_6_cif.got.tgz:10936.got - 2010.04.14 02:04:31.
