data_PCOD8186446
_publ_section_title
;
Structure prediction by ZEFSAII (Michael W. Deem and Ramdas Pophale) SiO2 
 PCOD8186446
Probable space group: F M M 2
;
_chemical_formula_sum "Si O2"
_cell_formula_units_Z 112
_cell_length_a 23.335504
_cell_length_b 13.727986
_cell_length_c 17.649124
_cell_angle_alpha 90.000000
_cell_angle_beta 90.000000
_cell_angle_gamma 90.000000
_cell_volume 5653.887558
_symmetry_space_group_name_H-M "F M M 2"
_symmetry_group_IT_number 42
_symmetry_cell_setting 'orthorhombic'
loop_
_space_group_symop_operation_xyz
x,y,z
-x,-y,z
-x,y,z
x,-y,z
x,1/2+y,1/2+z
-x,1/2-y,1/2+z
-x,1/2+y,1/2+z
x,1/2-y,1/2+z
1/2+x,y,1/2+z
1/2-x,-y,1/2+z
1/2-x,y,1/2+z
1/2+x,-y,1/2+z
1/2+x,1/2+y,z
1/2-x,1/2-y,z
1/2-x,1/2+y,z
1/2+x,1/2-y,z
loop_
_atom_site_type_symbol
_atom_site_label
_atom_site_fract_x
_atom_site_fract_y
_atom_site_fract_z
Si Si1 0.236715 0.109202 0.641180
Si Si2 0.851133 0.799258 0.744098
Si Si3 0.775957 0.388639 0.970219
Si Si4 0.132571 0.609430 0.666025
Si Si5 0.933370 0.207221 0.036459
Si Si6 0.162500 0.793774 0.918081
Si Si7 0.065023 0.391082 0.133223
O O1 0.209823 0.184003 0.701664
O O2 0.209663 0.129552 0.558644
O O3 0.304384 0.122041 0.631341
O O4 0.222007 0.000000 0.668326
O O5 0.872766 0.687511 0.734101
O O6 0.845565 0.824611 0.831515
O O7 0.896540 0.872360 0.706801
O O8 0.787699 0.500000 0.946500
O O9 0.816850 0.318641 0.921412
O O10 0.709555 0.364112 0.955120
O O11 0.122150 0.500000 0.697220
O O12 0.086427 0.631212 0.600714
O O13 0.920796 0.316755 0.065460
O O14 0.000000 0.189652 0.018328
O O15 0.897908 0.190917 0.959799
O O16 0.076647 0.500000 0.102367
O O17 0.000000 0.377475 0.160305
#
# Coordination Sequence:
#
# PCOD8186446 Si02
#       7
#    16  16  16  16  16  16  16
#     4  10  20  36  60  82 108 151 197 245 293 344
#     4  11  23  35  55  87 121 155 194 242 300 362
#     4  10  22  39  58  80 116 158 199 248 296 345
#     4  10  21  37  57  83 113 152 202 243 281 346
#     4  10  21  40  65  88 118 157 199 250 298 346
#     4  11  24  37  55  90 125 155 196 241 299 369
#     4   9  19  38  63  88 113 150 203 254 293 342
#
# _framework density 19.809379
#
# number of rings (size 3 to 8) (size 9 to 14) (size 15 to 20)
#    0.000    1.857    1.429    2.571    6.000    4.286 
#    0.000    0.000    0.000    0.000    0.000    2.000 
#    0.000    0.000    0.000    0.000    0.000    0.000 
#
# Total GULP energy -347217.095348 kJ/mol
# GULP energy per Si atom -12400.610548 kJ/mol
# Density = 1.976429 g / cm^3
# Si number density = 19.809379 Si / 1000 Ang^3
#
#
#
# Elastic Constant Matrix: (Units=GPa)
#
#
# Indices 1 2 3 4 5 6 
#
# 1 96.4009 1.7674 28.4127 0.0000 0.0000 0.0000
# 2 1.7674 84.5666 9.7173 0.0000 0.0000 0.0000
# 3 28.4127 9.7173 102.8454 0.0000 0.0000 0.0000
# 4 0.0000 0.0000 0.0000 16.7521 0.0000 0.0000
# 5 0.0000 0.0000 0.0000 0.0000 17.6978 0.0000
# 6 0.0000 0.0000 0.0000 0.0000 0.0000 23.9037
#
#
#
# Elastic Compliance Matrix: (Units=1/GPa)
#
#
# Indices 1 2 3 4 5 6 
#
# 1 0.011294 0.000124 -0.003132 0.000000 0.000000 0.000000
# 2 0.000124 0.011956 -0.001164 0.000000 0.000000 0.000000
# 3 -0.003132 -0.001164 0.010699 0.000000 0.000000 0.000000
# 4 0.000000 0.000000 0.000000 0.059694 0.000000 0.000000
# 5 0.000000 0.000000 0.000000 0.000000 0.056504 0.000000
# 6 0.000000 0.000000 0.000000 0.000000 0.000000 0.041835
#
#
# Mechanical properties :
#
#
# Convention : Reuss Voigt Hill
#
# Bulk Modulus (GPa) = 39.05495 40.40087 39.72791
# Shear Modulus (GPa) = 23.93940 27.93174 25.93557
#
# Velocity S-wave (km/s) = 3.48010 3.75910 3.62229
# Velocity P-wave (km/s) = 5.99219 6.26740 6.13134
#
# Compressibility (1/GPa) = 0.02560495
#
# Stress axis : x y z
#
# Youngs Moduli (GPa) = 88.54135 83.63901 93.47076
#
# Poissons Ratio (x) = -0.01036 0.29274
# Poissons Ratio (y) = -0.01096 0.10879
# Poissons Ratio (z) = 0.27730 0.09735
#
# Static dielectric constant tensor:
#      x y z
#    x 3.602070 0.000000 0.000000 
#    y 0.000000 3.830900 0.000000 
#    z 0.000000 0.000000 3.245690 
# 
# 
# High freq. dielectric constant tensor:
#      x y z
#    x 1.771420 0.000000 0.000000 
#    y 0.000000 1.784280 0.000000 
#    z 0.000000 0.000000 1.741090 
# 
# From -- ./inp_files/14228.got.cif
#   From: 2010.03.12/outbox.cif.g09.slc.cpg/sg42_8_cif.got.tgz:14228.got - 2010.04.14 02:04:31.
