data_PCOD8186542
_publ_section_title
;
Structure prediction by ZEFSAII (Michael W. Deem and Ramdas Pophale) SiO2 
 PCOD8186542
Probable space group: F M M 2
;
_chemical_formula_sum "Si O2"
_cell_formula_units_Z 64
_cell_length_a 14.474771
_cell_length_b 10.019015
_cell_length_c 21.246807
_cell_angle_alpha 90.000000
_cell_angle_beta 90.000000
_cell_angle_gamma 90.000000
_cell_volume 3081.274582
_symmetry_space_group_name_H-M "F M M 2"
_symmetry_group_IT_number 42
_symmetry_cell_setting 'orthorhombic'
loop_
_space_group_symop_operation_xyz
x,y,z
-x,-y,z
-x,y,z
x,-y,z
x,1/2+y,1/2+z
-x,1/2-y,1/2+z
-x,1/2+y,1/2+z
x,1/2-y,1/2+z
1/2+x,y,1/2+z
1/2-x,-y,1/2+z
1/2-x,y,1/2+z
1/2+x,-y,1/2+z
1/2+x,1/2+y,z
1/2-x,1/2-y,z
1/2-x,1/2+y,z
1/2+x,1/2-y,z
loop_
_atom_site_type_symbol
_atom_site_label
_atom_site_fract_x
_atom_site_fract_y
_atom_site_fract_z
Si Si1 0.000000 0.273546 0.529390
Si Si2 0.858929 0.500000 0.734454
Si Si3 0.839538 0.341985 0.434971
Si Si4 0.500000 0.500000 0.601436
Si Si5 0.000000 0.500000 0.628310
Si Si6 0.141276 0.263608 0.299254
Si Si7 0.640084 0.500000 0.712871
O O1 0.908853 0.306334 0.490232
O O2 0.000000 0.365956 0.589400
O O3 0.000000 0.123294 0.553867
O O4 0.895924 0.378396 0.776891
O O5 0.751336 0.500000 0.714626
O O6 0.907103 0.500000 0.667877
O O7 0.813262 0.500000 0.435577
O O8 0.750000 0.250000 0.444773
O O9 0.890212 0.305360 0.369189
O O10 0.593729 0.500000 0.643756
O O11 0.250000 0.250000 0.299064
O O12 0.103617 0.370649 0.249542
#
# Coordination Sequence:
#
# PCOD8186542 Si02
#       7
#     8   8  16   4   4  16   8
#     4  12  28  46  63  93 137 173 232 275 305 385
#     4  10  22  37  65  95 129 164 207 266 332 382
#     4  11  24  44  72  97 130 173 213 273 338 387
#     4  12  28  40  64  94 128 180 230 262 310 386
#     4  12  24  44  62  88 130 182 222 264 312 380
#     4   9  19  37  66  97 126 156 205 266 330 397
#     4  10  20  41  61  93 127 162 207 266 320 386
#
# _framework density 20.770624000000002
#
# number of rings (size 3 to 8) (size 9 to 14) (size 15 to 20)
#    0.000    1.500    2.500    1.500    7.000    4.000 
#    0.000    0.000    0.000    0.000    0.000    0.000 
#    0.000    0.000    0.000    0.000    0.000    0.000 
#
# Total GULP energy -198337.761783 kJ/mol
# GULP energy per Si atom -12396.110111 kJ/mol
# Density = 2.072335 g / cm^3
# Si number density = 20.770624 Si / 1000 Ang^3
#
#
#
# Elastic Constant Matrix: (Units=GPa)
#
#
# Indices 1 2 3 4 5 6 
#
# 1 89.5530 44.7974 47.2451 0.0000 0.0000 0.0000
# 2 44.7974 219.3273 88.7090 0.0000 0.0000 0.0000
# 3 47.2451 88.7090 140.0550 0.0000 0.0000 0.0000
# 4 0.0000 0.0000 0.0000 52.5554 0.0000 0.0000
# 5 0.0000 0.0000 0.0000 0.0000 25.3863 0.0000
# 6 0.0000 0.0000 0.0000 0.0000 0.0000 -46.5682
#
#
#
# Elastic Compliance Matrix: (Units=1/GPa)
#
#
# Indices 1 2 3 4 5 6 
#
# 1 0.013839 -0.001262 -0.003869 0.000000 0.000000 0.000000
# 2 -0.001262 0.006245 -0.003530 0.000000 0.000000 0.000000
# 3 -0.003869 -0.003530 0.010681 0.000000 0.000000 0.000000
# 4 0.000000 0.000000 0.000000 0.019028 0.000000 0.000000
# 5 0.000000 0.000000 0.000000 0.000000 0.039391 0.000000
# 6 0.000000 0.000000 0.000000 0.000000 0.000000 -0.021474
#
#
# Mechanical properties :
#
#
# Convention : Reuss Voigt Hill
#
# Bulk Modulus (GPa) = 74.38574 90.04868 82.21721
# Shear Modulus (GPa) = 55.85851 24.15363 40.00607
#
# Velocity S-wave (km/s) = 5.19148 3.41379 4.39348
# Velocity P-wave (km/s) = 8.47502 7.68028 8.08741
#
# Compressibility (1/GPa) = 0.01344344
#
# Stress axis : x y z
#
# Youngs Moduli (GPa) = 72.25978 160.13529 93.62468
#
# Poissons Ratio (x) = 0.20203 0.36225
# Poissons Ratio (y) = 0.09117 0.33047
# Poissons Ratio (z) = 0.27959 0.56523
#
# Static dielectric constant tensor:
#      x y z
#    x 3.413980 0.000000 0.000000 
#    y 0.000000 4.165180 0.000000 
#    z 0.000000 0.000000 3.910480 
# 
# 
# High freq. dielectric constant tensor:
#      x y z
#    x 1.810330 0.000000 0.000000 
#    y 0.000000 1.836330 0.000000 
#    z 0.000000 0.000000 1.817240 
# 
# From -- ./inp_files/19633.got.cif
#   From: 2010.03.12/outbox.cif.g09.slc.cpg/sg42_10_cif.got.tgz:19633.got - 2010.04.14 02:04:31.
