data_PCOD8186388
_publ_section_title
;
Structure prediction by ZEFSAII (Michael W. Deem and Ramdas Pophale) SiO2 
 PCOD8186388
Probable space group: F M M 2
;
_chemical_formula_sum "Si O2"
_cell_formula_units_Z 92
_cell_length_a 24.628207
_cell_length_b 7.627329
_cell_length_c 26.821262
_cell_angle_alpha 90.000000
_cell_angle_beta 90.000000
_cell_angle_gamma 90.000000
_cell_volume 5038.305336
_symmetry_space_group_name_H-M "F M M 2"
_symmetry_group_IT_number 42
_symmetry_cell_setting 'orthorhombic'
loop_
_space_group_symop_operation_xyz
x,y,z
-x,-y,z
-x,y,z
x,-y,z
x,1/2+y,1/2+z
-x,1/2-y,1/2+z
-x,1/2+y,1/2+z
x,1/2-y,1/2+z
1/2+x,y,1/2+z
1/2-x,-y,1/2+z
1/2-x,y,1/2+z
1/2+x,-y,1/2+z
1/2+x,1/2+y,z
1/2-x,1/2-y,z
1/2-x,1/2+y,z
1/2+x,1/2-y,z
loop_
_atom_site_type_symbol
_atom_site_label
_atom_site_fract_x
_atom_site_fract_y
_atom_site_fract_z
Si Si1 0.809903 0.795130 0.479200
Si Si2 0.438083 0.806104 0.150695
Si Si3 0.187829 0.697861 0.368339
Si Si4 0.000000 0.791710 0.975326
Si Si5 0.110664 0.500000 0.830816
Si Si6 0.435637 0.500000 0.222346
Si Si7 0.404634 0.699025 0.047184
Si Si8 0.500000 0.500000 0.393458
O O1 0.750000 0.750000 0.497131
O O2 0.823308 0.700084 0.427402
O O3 0.845975 0.719651 0.523343
O O4 0.819213 0.000000 0.470824
O O5 0.500000 0.758398 0.137265
O O6 0.416377 0.670285 0.191511
O O7 0.405252 0.803595 0.098929
O O8 0.432644 0.000000 0.174007
O O9 0.177383 0.500000 0.349127
O O10 0.250000 0.750000 0.356856
O O11 0.145891 0.827080 0.341670
O O12 0.000000 0.679183 0.925024
O O13 0.052021 0.731837 0.007098
O O14 0.000000 0.000000 0.962308
O O15 0.097647 0.500000 0.772802
O O16 0.054390 0.500000 0.860734
O O17 0.500000 0.500000 0.233020
O O18 0.418343 0.500000 0.060705
#
# Coordination Sequence:
#
# PCOD8186388 Si02
#       8
#    16  16  16   8   8   8  16   4
#     4  11  21  35  54  85 122 161 200 239 289 356
#     4  10  20  35  59  87 116 151 203 251 288 350
#     4  11  21  40  65  92 121 158 213 260 297 359
#     4  10  24  36  53  85 127 163 202 238 288 357
#     4  12  24  42  64  93 121 167 204 251 321 364
#     4  10  22  42  62  83 122 157 197 248 302 366
#     4  11  20  34  56  87 119 160 199 242 294 348
#     4  12  26  38  56  88 138 174 192 240 316 378
#
# _framework density 18.260107000000001
#
# number of rings (size 3 to 8) (size 9 to 14) (size 15 to 20)
#    0.000    1.217    3.913    4.174    2.435    2.783 
#    0.000    0.000    0.000    1.043    0.000    0.000 
#    0.000    0.000    0.000    0.000    0.000    0.000 
#
# Total GULP energy -285256.457869 kJ/mol
# GULP energy per Si atom -12402.454690 kJ/mol
# Density = 1.821855 g / cm^3
# Si number density = 18.260107 Si / 1000 Ang^3
#
#
#
# Elastic Constant Matrix: (Units=GPa)
#
#
# Indices 1 2 3 4 5 6 
#
# 1 99.3451 42.4647 67.9856 0.0000 0.0000 -0.0005
# 2 42.4647 137.4199 52.5618 0.0001 0.0000 -0.0008
# 3 67.9856 52.5618 127.0720 0.0000 0.0000 0.0000
# 4 0.0000 0.0001 0.0000 17.3268 0.0000 0.0000
# 5 0.0000 0.0000 0.0000 0.0000 23.1747 0.0000
# 6 -0.0005 -0.0008 0.0000 0.0000 0.0000 25.0981
#
#
#
# Elastic Compliance Matrix: (Units=1/GPa)
#
#
# Indices 1 2 3 4 5 6 
#
# 1 0.016342 -0.002026 -0.007905 0.000000 0.000000 0.000000
# 2 -0.002026 0.008896 -0.002596 0.000000 0.000000 0.000000
# 3 -0.007905 -0.002596 0.013172 0.000000 0.000000 0.000000
# 4 0.000000 0.000000 0.000000 0.057714 0.000000 0.000000
# 5 0.000000 0.000000 0.000000 0.000000 0.043150 0.000000
# 6 0.000000 0.000000 0.000000 0.000000 0.000000 0.039844
#
#
# Mechanical properties :
#
#
# Convention : Reuss Voigt Hill
#
# Bulk Modulus (GPa) = 74.87010 76.65124 75.76067
# Shear Modulus (GPa) = 23.96657 26.50826 25.23741
#
# Velocity S-wave (km/s) = 3.62679 3.81426 3.72170
# Velocity P-wave (km/s) = 7.65697 7.84007 7.74906
#
# Compressibility (1/GPa) = 0.01335647
#
# Stress axis : x y z
#
# Youngs Moduli (GPa) = 61.19325 112.41134 75.91598
#
# Poissons Ratio (x) = 0.22777 0.60011
# Poissons Ratio (y) = 0.12399 0.19705
# Poissons Ratio (z) = 0.48373 0.29177
#
# Static dielectric constant tensor:
#      x y z
#    x 3.355210 0.000000 0.000000 
#    y 0.000000 3.545010 0.000000 
#    z 0.000000 0.000000 3.128940 
# 
# 
# High freq. dielectric constant tensor:
#      x y z
#    x 1.698180 0.000000 0.000000 
#    y 0.000000 1.728280 0.000000 
#    z 0.000000 0.000000 1.685350 
# 
# From -- ./inp_files/31501.got.cif
#   From: 2010.03.12/outbox.cif.g09.slc.cpg/sg42_16_cif.got.tgz:31501.got - 2010.04.14 02:04:31.
