data_PCOD8186268
_publ_section_title
;
Structure prediction by ZEFSAII (Michael W. Deem and Ramdas Pophale) SiO2 
 PCOD8186268
Probable space group: F M M 2
;
_chemical_formula_sum "Si O2"
_cell_formula_units_Z 96
_cell_length_a 19.675647
_cell_length_b 9.344512
_cell_length_c 30.175052
_cell_angle_alpha 90.000000
_cell_angle_beta 90.000000
_cell_angle_gamma 90.000000
_cell_volume 5547.964527
_symmetry_space_group_name_H-M "F M M 2"
_symmetry_group_IT_number 42
_symmetry_cell_setting 'orthorhombic'
loop_
_space_group_symop_operation_xyz
x,y,z
-x,-y,z
-x,y,z
x,-y,z
x,1/2+y,1/2+z
-x,1/2-y,1/2+z
-x,1/2+y,1/2+z
x,1/2-y,1/2+z
1/2+x,y,1/2+z
1/2-x,-y,1/2+z
1/2-x,y,1/2+z
1/2+x,-y,1/2+z
1/2+x,1/2+y,z
1/2-x,1/2-y,z
1/2-x,1/2+y,z
1/2+x,1/2-y,z
loop_
_atom_site_type_symbol
_atom_site_label
_atom_site_fract_x
_atom_site_fract_y
_atom_site_fract_z
Si Si1 0.922253 0.666612 0.203720
Si Si2 0.580749 0.341495 0.869832
Si Si3 0.182035 0.168459 0.528843
Si Si4 0.184297 0.334732 0.130755
Si Si5 0.419002 0.160571 0.788585
Si Si6 0.079472 0.334107 0.469300
O O1 0.915124 0.500000 0.215208
O O2 0.879814 0.710652 0.160457
O O3 0.893410 0.753096 0.245732
O O4 0.000000 0.707877 0.193474
O O5 0.500000 0.345844 0.867184
O O6 0.609296 0.500000 0.859551
O O7 0.610639 0.232866 0.833282
O O8 0.602265 0.294159 0.919235
O O9 0.250000 0.250000 0.513464
O O10 0.166398 0.201904 0.580129
O O11 0.118733 0.229143 0.501907
O O12 0.190678 0.000000 0.519822
O O13 0.201886 0.500000 0.136585
O O14 0.250000 0.250000 0.147389
O O15 0.500000 0.162149 0.790060
O O16 0.390353 0.000000 0.786025
O O17 0.096462 0.500000 0.479375
O O18 0.000000 0.304949 0.476115
#
# Coordination Sequence:
#
# PCOD8186268 Si02
#       6
#    16  16  16  16  16  16
#     4   9  17  30  48  69  94 124 157 192 232 278
#     4   8  14  26  44  65  92 127 160 188 226 279
#     4  10  20  34  52  72  96 128 165 202 242 291
#     4   9  19  34  51  70  92 123 160 196 235 282
#     4   9  16  25  40  66  97 124 153 191 232 274
#     4   9  18  32  50  74 102 129 160 200 244 288
#
# _framework density 17.303643999999998
#
# number of rings (size 3 to 8) (size 9 to 14) (size 15 to 20)
#    0.000    3.000    0.000    2.000    0.000    5.000 
#    0.000    3.333    0.000    3.000    0.000    4.667 
#    0.000    0.000    0.000    0.000    0.000    0.000 
#
# Total GULP energy -297562.358959 kJ/mol
# GULP energy per Si atom -12398.431623 kJ/mol
# Density = 1.726426 g / cm^3
# Si number density = 17.303644 Si / 1000 Ang^3
#
#
#
# Elastic Constant Matrix: (Units=GPa)
#
#
# Indices 1 2 3 4 5 6 
#
# 1 61.2544 46.2942 54.4797 0.0000 0.0000 0.0000
# 2 46.2942 98.4983 68.6932 0.0000 0.0000 0.0000
# 3 54.4797 68.6932 116.4793 0.0000 0.0000 0.0000
# 4 0.0000 0.0000 0.0000 27.9963 0.0000 0.0000
# 5 0.0000 0.0000 0.0000 0.0000 3.4310 0.0000
# 6 0.0000 0.0000 0.0000 0.0000 0.0000 24.8248
#
#
#
# Elastic Compliance Matrix: (Units=1/GPa)
#
#
# Indices 1 2 3 4 5 6 
#
# 1 0.030947 -0.007560 -0.010016 0.000000 0.000000 0.000000
# 2 -0.007560 0.019092 -0.007724 0.000000 0.000000 0.000000
# 3 -0.010016 -0.007724 0.017825 0.000000 0.000000 0.000000
# 4 0.000000 0.000000 0.000000 0.035719 0.000000 0.000000
# 5 0.000000 0.000000 0.000000 0.000000 0.291462 0.000000
# 6 0.000000 0.000000 0.000000 0.000000 0.000000 0.040282
#
#
# Mechanical properties :
#
#
# Convention : Reuss Voigt Hill
#
# Bulk Modulus (GPa) = 57.92078 68.35179 63.13629
# Shear Modulus (GPa) = 10.16918 18.36808 14.26863
#
# Velocity S-wave (km/s) = 2.42686 3.26162 2.87470
# Velocity P-wave (km/s) = 6.43418 7.33290 6.89819
#
# Compressibility (1/GPa) = 0.01726496
#
# Stress axis : x y z
#
# Youngs Moduli (GPa) = 32.31291 52.37788 56.10102
#
# Poissons Ratio (x) = 0.39597 0.56193
# Poissons Ratio (y) = 0.24428 0.43330
# Poissons Ratio (z) = 0.32366 0.40454
#
# Static dielectric constant tensor:
#      x y z
#    x 2.874620 0.000000 0.000000 
#    y 0.000000 3.346110 0.000000 
#    z 0.000000 0.000000 3.381330 
# 
# 
# High freq. dielectric constant tensor:
#      x y z
#    x 1.626410 0.000000 0.000000 
#    y 0.000000 1.672210 0.000000 
#    z 0.000000 0.000000 1.675890 
# 
# From -- ./inp_files/28037.got.cif
#   From: 2010.03.12/outbox.cif.g09.slc.cpg/sg42_15_cif.got.tgz:28037.got - 2010.04.14 02:04:31.
