data_PCOD8186672
_publ_section_title
;
Structure prediction by ZEFSAII (Michael W. Deem and Ramdas Pophale) SiO2 
 PCOD8186672
Probable space group: F M M 2
;
_chemical_formula_sum "Si O2"
_cell_formula_units_Z 56
_cell_length_a 37.687267
_cell_length_b 13.287003
_cell_length_c 5.067458
_cell_angle_alpha 90.000000
_cell_angle_beta 90.000000
_cell_angle_gamma 90.000000
_cell_volume 2537.533798
_symmetry_space_group_name_H-M "F M M 2"
_symmetry_group_IT_number 42
_symmetry_cell_setting 'orthorhombic'
loop_
_space_group_symop_operation_xyz
x,y,z
-x,-y,z
-x,y,z
x,-y,z
x,1/2+y,1/2+z
-x,1/2-y,1/2+z
-x,1/2+y,1/2+z
x,1/2-y,1/2+z
1/2+x,y,1/2+z
1/2-x,-y,1/2+z
1/2-x,y,1/2+z
1/2+x,-y,1/2+z
1/2+x,1/2+y,z
1/2-x,1/2-y,z
1/2-x,1/2+y,z
1/2+x,1/2-y,z
loop_
_atom_site_type_symbol
_atom_site_label
_atom_site_fract_x
_atom_site_fract_y
_atom_site_fract_z
Si Si1 0.850914 0.190205 0.657250
Si Si2 0.500000 0.323333 0.225247
Si Si3 0.601989 0.500000 0.682377
Si Si4 0.772383 0.382268 0.217155
Si Si5 0.055427 0.500000 0.681814
O O1 0.861268 0.222104 0.362195
O O2 0.809156 0.173206 0.678090
O O3 0.873324 0.094373 0.738336
O O4 0.500000 0.253104 0.481364
O O5 0.533838 0.396829 0.224193
O O6 0.587909 0.500000 0.384509
O O7 0.569022 0.500000 0.882022
O O8 0.780080 0.500000 0.199331
O O9 0.755854 0.349673 0.495574
#
# Coordination Sequence:
#
# PCOD8186672 Si02
#       5
#    16   8   8  16   8
#     4  12  26  42  65  94 127 174 223 271 332 391
#     4  11  24  45  74 108 138 167 218 267 308 376
#     4  12  26  47  64  97 142 173 220 265 312 393
#     4  10  21  39  63  88 121 164 215 279 340 387
#     4  11  26  44  72 101 136 181 210 259 326 371
#
# _framework density 22.068669
#
# number of rings (size 3 to 8) (size 9 to 14) (size 15 to 20)
#    0.000    0.857    1.429    5.143    0.000   12.571 
#    0.000    0.000    0.000    0.000    0.000    0.000 
#    0.000    0.000    0.000    0.000    0.000    0.000 
#
# Total GULP energy -173677.002336 kJ/mol
# GULP energy per Si atom -12405.500167 kJ/mol
# Density = 2.201844 g / cm^3
# Si number density = 22.068669 Si / 1000 Ang^3
#
#
#
# Elastic Constant Matrix: (Units=GPa)
#
#
# Indices 1 2 3 4 5 6 
#
# 1 82.6515 44.4138 12.5144 0.0003 0.0001 0.0001
# 2 44.4138 122.5995 21.7991 -0.0008 -0.0002 -0.0002
# 3 12.5144 21.7991 108.6438 -0.0016 0.0002 0.0002
# 4 0.0003 -0.0008 -0.0016 78.8867 0.0001 0.0000
# 5 0.0001 -0.0002 0.0002 0.0001 44.6262 -0.0002
# 6 0.0001 -0.0002 0.0002 0.0000 -0.0002 55.9535
#
#
#
# Elastic Compliance Matrix: (Units=1/GPa)
#
#
# Indices 1 2 3 4 5 6 
#
# 1 0.015070 -0.005341 -0.000664 0.000000 0.000000 0.000000
# 2 -0.005341 0.010351 -0.001462 0.000000 0.000000 0.000000
# 3 -0.000664 -0.001462 0.009574 0.000000 0.000000 0.000000
# 4 0.000000 0.000000 0.000000 0.012676 0.000000 0.000000
# 5 0.000000 0.000000 0.000000 0.000000 0.022408 0.000000
# 6 0.000000 0.000000 0.000000 0.000000 0.000000 0.017872
#
#
# Mechanical properties :
#
#
# Convention : Reuss Voigt Hill
#
# Bulk Modulus (GPa) = 49.84745 52.37217 51.10981
# Shear Modulus (GPa) = 45.63153 51.57111 48.60132
#
# Velocity S-wave (km/s) = 4.55214 4.83934 4.69793
# Velocity P-wave (km/s) = 7.08983 7.41678 7.25515
#
# Compressibility (1/GPa) = 0.02006121
#
# Stress axis : x y z
#
# Youngs Moduli (GPa) = 66.35833 96.60445 104.44745
#
# Poissons Ratio (x) = 0.51598 0.06937
# Poissons Ratio (y) = 0.35443 0.15268
# Poissons Ratio (z) = 0.04407 0.14121
#
# Static dielectric constant tensor:
#      x y z
#    x 3.899350 0.000000 0.000000 
#    y 0.000000 4.144460 0.000000 
#    z 0.000000 0.000000 4.183000 
# 
# 
# High freq. dielectric constant tensor:
#      x y z
#    x 1.869410 0.000000 0.000000 
#    y 0.000000 1.892030 0.000000 
#    z 0.000000 0.000000 1.881860 
# 
# From -- ./inp_files/374.got.cif
#   From: 2010.03.12/outbox.cif.g09.slc.cpg/sg42_1_cif.got.tgz:374.got - 2010.04.14 02:04:31.
