data_PCOD8186122
_publ_section_title
;
Structure prediction by ZEFSAII (Michael W. Deem and Ramdas Pophale) SiO2 
 PCOD8186122
Probable space group: F M M 2
;
_chemical_formula_sum "Si O2"
_cell_formula_units_Z 80
_cell_length_a 25.811054
_cell_length_b 8.589447
_cell_length_c 19.440182
_cell_angle_alpha 90.000000
_cell_angle_beta 90.000000
_cell_angle_gamma 90.000000
_cell_volume 4309.940456
_symmetry_space_group_name_H-M "F M M 2"
_symmetry_group_IT_number 42
_symmetry_cell_setting 'orthorhombic'
loop_
_space_group_symop_operation_xyz
x,y,z
-x,-y,z
-x,y,z
x,-y,z
x,1/2+y,1/2+z
-x,1/2-y,1/2+z
-x,1/2+y,1/2+z
x,1/2-y,1/2+z
1/2+x,y,1/2+z
1/2-x,-y,1/2+z
1/2-x,y,1/2+z
1/2+x,-y,1/2+z
1/2+x,1/2+y,z
1/2-x,1/2-y,z
1/2-x,1/2+y,z
1/2+x,1/2-y,z
loop_
_atom_site_type_symbol
_atom_site_label
_atom_site_fract_x
_atom_site_fract_y
_atom_site_fract_z
Si Si1 0.894881 0.183516 0.406200
Si Si2 0.388332 0.317324 0.755340
Si Si3 0.000000 0.182226 0.761558
Si Si4 0.000000 0.814805 0.915845
Si Si5 0.694870 0.317421 0.510917
Si Si6 0.195165 0.818180 0.156951
O O1 0.886128 0.277234 0.335780
O O2 0.847267 0.229691 0.454719
O O3 0.946971 0.241508 0.446303
O O4 0.897275 0.000000 0.391764
O O5 0.377173 0.500000 0.745349
O O6 0.445838 0.270508 0.724844
O O7 0.346753 0.217332 0.714986
O O8 0.000000 0.251091 0.838033
O O9 0.000000 0.000000 0.772895
O O10 0.000000 0.000000 0.925576
O O11 0.700457 0.500000 0.518711
O O12 0.750000 0.250000 0.487320
O O13 0.677051 0.251879 0.584510
O O14 0.250000 0.750000 0.181242
O O15 0.201714 0.000000 0.148048
#
# Coordination Sequence:
#
# PCOD8186122 Si02
#       6
#    16  16   8   8  16  16
#     4  10  20  34  54  81 110 140 177 218 261 312
#     4  10  19  34  56  81 109 140 176 216 261 312
#     4   7  14  29  50  75 102 135 169 205 253 305
#     4   9  17  31  52  77 106 141 177 215 263 311
#     4  10  21  37  56  77 104 139 176 216 265 317
#     4  11  22  37  56  77 104 139 178 219 266 317
#
# _framework density 18.561741999999999
#
# number of rings (size 3 to 8) (size 9 to 14) (size 15 to 20)
#    0.000    2.200    0.000    6.300    0.000    4.000 
#    0.000    4.500    0.000    2.400    0.000    0.000 
#    0.000    0.000    0.000    0.000    0.000    0.000 
#
# Total GULP energy -247901.173905 kJ/mol
# GULP energy per Si atom -12395.058695 kJ/mol
# Density = 1.851949 g / cm^3
# Si number density = 18.561742 Si / 1000 Ang^3
#
#
#
# Elastic Constant Matrix: (Units=GPa)
#
#
# Indices 1 2 3 4 5 6 
#
# 1 148.6696 44.9403 62.3548 0.0000 0.0000 0.0000
# 2 44.9403 74.2577 22.8457 0.0000 0.0000 0.0000
# 3 62.3548 22.8457 61.1735 0.0000 0.0000 0.0000
# 4 0.0000 0.0000 0.0000 28.2633 0.0000 0.0000
# 5 0.0000 0.0000 0.0000 0.0000 -3.3265 0.0000
# 6 0.0000 0.0000 0.0000 0.0000 0.0000 32.6198
#
#
#
# Elastic Compliance Matrix: (Units=1/GPa)
#
#
# Indices 1 2 3 4 5 6 
#
# 1 0.012824 -0.004225 -0.011494 0.000000 0.000000 0.000000
# 2 -0.004225 0.016607 -0.001895 0.000000 0.000000 0.000000
# 3 -0.011494 -0.001895 0.028771 0.000000 0.000000 0.000000
# 4 0.000000 0.000000 0.000000 0.035382 0.000000 0.000000
# 5 0.000000 0.000000 0.000000 0.000000 -0.300621 0.000000
# 6 0.000000 0.000000 0.000000 0.000000 0.000000 0.030656
#
#
# Mechanical properties :
#
#
# Convention : Reuss Voigt Hill
#
# Bulk Modulus (GPa) = 43.52939 60.48694 52.00816
# Shear Modulus (GPa) = -37.45473 21.77532 -7.83971
#
# Velocity S-wave (km/s) = -4.49692 3.42881 -2.05737
# Velocity P-wave (km/s) = 1.86037 6.95222 4.73668
#
# Compressibility (1/GPa) = 0.02297298
#
# Stress axis : x y z
#
# Youngs Moduli (GPa) = 77.97698 60.21684 34.75748
#
# Poissons Ratio (x) = 0.25441 0.39951
# Poissons Ratio (y) = 0.32945 0.06588
# Poissons Ratio (z) = 0.89627 0.11413
#
# Static dielectric constant tensor:
#      x y z
#    x 3.914310 0.000000 0.000000 
#    y 0.000000 3.426130 0.000000 
#    z 0.000000 0.000000 3.111330 
# 
# 
# High freq. dielectric constant tensor:
#      x y z
#    x 1.741490 0.000000 0.000000 
#    y 0.000000 1.730800 0.000000 
#    z 0.000000 0.000000 1.685560 
# 
# From -- ./inp_files/22444.got.cif
#   From: 2010.03.12/outbox.cif.g09.slc.cpg/sg42_12_cif.got.tgz:22444.got - 2010.04.14 02:04:31.
