data_PCOD8186992
_publ_section_title
;
Structure prediction by ZEFSAII (Michael W. Deem and Ramdas Pophale) SiO2 
 PCOD8186992
Probable space group: F D D 2
;
_chemical_formula_sum "Si O2"
_cell_formula_units_Z 80
_cell_length_a 11.976727
_cell_length_b 21.503359
_cell_length_c 13.437592
_cell_angle_alpha 90.000000
_cell_angle_beta 90.000000
_cell_angle_gamma 90.000000
_cell_volume 3460.715567
_symmetry_space_group_name_H-M "F D D 2"
_symmetry_group_IT_number 43
_symmetry_cell_setting 'orthorhombic'
loop_
_space_group_symop_operation_xyz
x,y,z
-x,-y,z
1/4-x,1/4+y,1/4+z
1/4+x,1/4-y,1/4+z
x,1/2+y,1/2+z
-x,1/2-y,1/2+z
1/4-x,3/4+y,3/4+z
1/4+x,3/4-y,3/4+z
1/2+x,y,1/2+z
1/2-x,-y,1/2+z
3/4-x,1/4+y,3/4+z
3/4+x,1/4-y,3/4+z
1/2+x,1/2+y,z
1/2-x,1/2-y,z
3/4-x,3/4+y,1/4+z
3/4+x,3/4-y,1/4+z
loop_
_atom_site_type_symbol
_atom_site_label
_atom_site_fract_x
_atom_site_fract_y
_atom_site_fract_z
Si Si1 0.696767 0.815801 0.706780
Si Si2 0.232971 0.991704 0.901067
Si Si3 0.585059 0.127388 0.154801
Si Si4 0.411088 0.953829 0.550972
Si Si5 0.039360 0.909542 0.855980
O O1 0.750000 0.750000 0.689510
O O2 0.575894 0.813425 0.652476
O O3 0.686372 0.824893 0.824479
O O4 0.780478 0.866749 0.661742
O O5 0.124245 0.968120 0.838218
O O6 0.281136 0.057835 0.863915
O O7 0.192055 0.003347 0.014885
O O8 0.534079 0.104231 0.259010
O O9 0.366903 0.901585 0.627003
O O10 0.461929 0.920920 0.451320
O O11 0.500000 0.000000 0.604263
#
# Coordination Sequence:
#
# PCOD8186992 Si02
#       5
#    16  16  16  16  16
#     4  10  22  37  56  81 114 147 182 228 283 336
#     4   9  20  37  55  80 114 146 180 231 283 331
#     4  10  20  37  57  83 111 146 188 229 277 336
#     4   9  19  35  55  82 112 143 181 230 278 327
#     4  10  19  36  60  82 110 146 186 230 276 330
#
# _framework density 23.116606999999998
#
# number of rings (size 3 to 8) (size 9 to 14) (size 15 to 20)
#    0.000    2.400    0.000    2.400    0.000    7.200 
#    0.000    2.000    0.000    0.000    0.000    0.000 
#    0.000    0.000    0.000    0.000    0.000    0.000 
#
# Total GULP energy -247772.279288 kJ/mol
# GULP energy per Si atom -12388.613964 kJ/mol
# Density = 2.306399 g / cm^3
# Si number density = 23.116607 Si / 1000 Ang^3
#
#
#
# Elastic Constant Matrix: (Units=GPa)
#
#
# Indices 1 2 3 4 5 6 
#
# 1 125.1056 19.5641 13.3988 0.0000 0.0000 0.0000
# 2 19.5641 45.0731 3.0420 0.0000 0.0000 0.0000
# 3 13.3988 3.0420 19.3716 0.0000 0.0000 0.0000
# 4 0.0000 0.0000 0.0000 27.9162 0.0000 0.0000
# 5 0.0000 0.0000 0.0000 0.0000 7.7275 0.0000
# 6 0.0000 0.0000 0.0000 0.0000 0.0000 38.9198
#
#
#
# Elastic Compliance Matrix: (Units=1/GPa)
#
#
# Indices 1 2 3 4 5 6 
#
# 1 0.009174 -0.003592 -0.005781 0.000000 0.000000 0.000000
# 2 -0.003592 0.023830 -0.001258 0.000000 0.000000 0.000000
# 3 -0.005781 -0.001258 0.055818 0.000000 0.000000 0.000000
# 4 0.000000 0.000000 0.000000 0.035822 0.000000 0.000000
# 5 0.000000 0.000000 0.000000 0.000000 0.129409 0.000000
# 6 0.000000 0.000000 0.000000 0.000000 0.000000 0.025694
#
#
# Mechanical properties :
#
#
# Convention : Reuss Voigt Hill
#
# Bulk Modulus (GPa) = 14.80156 29.06222 21.93189
# Shear Modulus (GPa) = 15.45457 25.14904 20.30180
#
# Velocity S-wave (km/s) = 2.58844 3.30194 2.96672
# Velocity P-wave (km/s) = 3.91794 5.20926 4.60905
#
# Compressibility (1/GPa) = 0.06756046
#
# Stress axis : x y z
#
# Youngs Moduli (GPa) = 109.00203 41.96364 17.91529
#
# Poissons Ratio (x) = 0.15073 0.10358
# Poissons Ratio (y) = 0.39152 0.02253
# Poissons Ratio (z) = 0.63019 0.05278
#
# Static dielectric constant tensor:
#      x y z
#    x 5.159720 0.000000 0.000000 
#    y 0.000000 4.408880 0.000000 
#    z 0.000000 0.000000 3.406310 
# 
# 
# High freq. dielectric constant tensor:
#      x y z
#    x 1.943460 0.000000 0.000000 
#    y 0.000000 1.915730 0.000000 
#    z 0.000000 0.000000 1.850190 
# 
# From -- ./inp_files/9519.got.cif
#   From: 2010.06.25/outbox.cif.g09.slc.cpg/sg43_5_cif.got.tgz:9519.got - 2010.06.26 16:48:59.
