data_PCOD8186355
_publ_section_title
;
Structure prediction by ZEFSAII (Michael W. Deem and Ramdas Pophale) SiO2 
 PCOD8186355
Probable space group: F M M 2
;
_chemical_formula_sum "Si O2"
_cell_formula_units_Z 96
_cell_length_a 18.745055
_cell_length_b 8.944731
_cell_length_c 30.332482
_cell_angle_alpha 90.000000
_cell_angle_beta 90.000000
_cell_angle_gamma 90.000000
_cell_volume 5085.831319
_symmetry_space_group_name_H-M "F M M 2"
_symmetry_group_IT_number 42
_symmetry_cell_setting 'orthorhombic'
loop_
_space_group_symop_operation_xyz
x,y,z
-x,-y,z
-x,y,z
x,-y,z
x,1/2+y,1/2+z
-x,1/2-y,1/2+z
-x,1/2+y,1/2+z
x,1/2-y,1/2+z
1/2+x,y,1/2+z
1/2-x,-y,1/2+z
1/2-x,y,1/2+z
1/2+x,-y,1/2+z
1/2+x,1/2+y,z
1/2-x,1/2-y,z
1/2-x,1/2+y,z
1/2+x,1/2-y,z
loop_
_atom_site_type_symbol
_atom_site_label
_atom_site_fract_x
_atom_site_fract_y
_atom_site_fract_z
Si Si1 0.917679 0.325735 0.835490
Si Si2 0.917191 0.670066 0.085396
Si Si3 0.082736 0.324975 0.496269
Si Si4 0.824177 0.676428 0.264621
Si Si5 0.826992 0.676487 0.920575
Si Si6 0.677780 0.824777 0.165049
O O1 0.908209 0.500000 0.825295
O O2 0.889231 0.233276 0.794057
O O3 0.873630 0.277571 0.878427
O O4 0.000000 0.283679 0.843542
O O5 0.894531 0.500000 0.074055
O O6 0.881936 0.727498 0.130592
O O7 0.000000 0.681997 0.094544
O O8 0.894029 0.776193 0.045262
O O9 0.096333 0.500000 0.490582
O O10 0.132268 0.235224 0.463195
O O11 0.000000 0.282954 0.487695
O O12 0.816222 0.500000 0.269792
O O13 0.750000 0.750000 0.280414
O O14 0.842502 0.725870 0.214589
O O15 0.817651 0.500000 0.924726
O O16 0.750000 0.750000 0.916111
O O17 0.750000 0.750000 0.148953
O O18 0.689205 0.000000 0.164119
#
# Coordination Sequence:
#
# PCOD8186355 Si02
#       6
#    16  16  16  16  16  16
#     4  10  22  39  58  82 111 142 178 221 269 322
#     4   9  18  34  55  77 105 143 183 222 267 318
#     4  10  21  37  57  82 111 142 180 225 270 319
#     4  10  20  35  56  81 110 145 184 225 270 319
#     4  11  23  39  59  82 109 142 180 221 268 322
#     4   9  19  34  53  78 107 141 180 222 267 317
#
# _framework density 18.875969000000001
#
# number of rings (size 3 to 8) (size 9 to 14) (size 15 to 20)
#    0.000    2.167    0.000    2.500    0.000    7.333 
#    0.000    3.333    0.000    2.000    0.000    0.000 
#    0.000    0.000    0.000    0.000    0.000    0.000 
#
# Total GULP energy -297669.345672 kJ/mol
# GULP energy per Si atom -12402.889403 kJ/mol
# Density = 1.883301 g / cm^3
# Si number density = 18.875969 Si / 1000 Ang^3
#
#
#
# Elastic Constant Matrix: (Units=GPa)
#
#
# Indices 1 2 3 4 5 6 
#
# 1 121.6302 51.9026 81.7385 0.0000 0.0000 0.0000
# 2 51.9026 62.5426 48.1436 0.0000 0.0000 0.0000
# 3 81.7385 48.1436 126.8159 0.0000 0.0000 0.0000
# 4 0.0000 0.0000 0.0000 29.1014 0.0000 0.0000
# 5 0.0000 0.0000 0.0000 0.0000 45.8930 0.0000
# 6 0.0000 0.0000 0.0000 0.0000 0.0000 32.6415
#
#
#
# Elastic Compliance Matrix: (Units=1/GPa)
#
#
# Indices 1 2 3 4 5 6 
#
# 1 0.016919 -0.007978 -0.007877 0.000000 0.000000 0.000000
# 2 -0.007978 0.026352 -0.004862 0.000000 0.000000 0.000000
# 3 -0.007877 -0.004862 0.014808 0.000000 0.000000 0.000000
# 4 0.000000 0.000000 0.000000 0.034363 0.000000 0.000000
# 5 0.000000 0.000000 0.000000 0.000000 0.021790 0.000000
# 6 0.000000 0.000000 0.000000 0.000000 0.000000 0.030636
#
#
# Mechanical properties :
#
#
# Convention : Reuss Voigt Hill
#
# Bulk Modulus (GPa) = 60.07209 74.95090 67.51149
# Shear Modulus (GPa) = 26.06203 30.14076 28.10139
#
# Velocity S-wave (km/s) = 3.71981 4.00031 3.86260
# Velocity P-wave (km/s) = 7.09528 7.81856 7.46568
#
# Compressibility (1/GPa) = 0.01664667
#
# Stress axis : x y z
#
# Youngs Moduli (GPa) = 59.10471 37.94716 67.53033
#
# Poissons Ratio (x) = 0.30273 0.53191
# Poissons Ratio (y) = 0.47151 0.32836
# Poissons Ratio (z) = 0.46554 0.18451
#
# Static dielectric constant tensor:
#      x y z
#    x 3.402130 0.000000 0.000000 
#    y 0.000000 3.465970 0.000000 
#    z 0.000000 0.000000 3.648950 
# 
# 
# High freq. dielectric constant tensor:
#      x y z
#    x 1.732910 0.000000 0.000000 
#    y 0.000000 1.734980 0.000000 
#    z 0.000000 0.000000 1.744150 
# 
# From -- ./inp_files/31417.got.cif
#   From: 2010.03.12/outbox.cif.g09.slc.cpg/sg42_16_cif.got.tgz:31417.got - 2010.04.14 02:04:31.
