data_PCOD8186514
_publ_section_title
;
Structure prediction by ZEFSAII (Michael W. Deem and Ramdas Pophale) SiO2 
 PCOD8186514
Probable space group: F M M 2
;
_chemical_formula_sum "Si O2"
_cell_formula_units_Z 80
_cell_length_a 17.753385
_cell_length_b 7.718731
_cell_length_c 28.754591
_cell_angle_alpha 90.000000
_cell_angle_beta 90.000000
_cell_angle_gamma 90.000000
_cell_volume 3940.345212
_symmetry_space_group_name_H-M "F M M 2"
_symmetry_group_IT_number 42
_symmetry_cell_setting 'orthorhombic'
loop_
_space_group_symop_operation_xyz
x,y,z
-x,-y,z
-x,y,z
x,-y,z
x,1/2+y,1/2+z
-x,1/2-y,1/2+z
-x,1/2+y,1/2+z
x,1/2-y,1/2+z
1/2+x,y,1/2+z
1/2-x,-y,1/2+z
1/2-x,y,1/2+z
1/2+x,-y,1/2+z
1/2+x,1/2+y,z
1/2-x,1/2-y,z
1/2-x,1/2+y,z
1/2+x,1/2-y,z
loop_
_atom_site_type_symbol
_atom_site_label
_atom_site_fract_x
_atom_site_fract_y
_atom_site_fract_z
Si Si1 0.414387 0.200758 0.522670
Si Si2 0.164135 0.305194 0.112119
Si Si3 0.835545 0.297649 0.928940
Si Si4 0.910831 0.000000 0.271792
Si Si5 0.086485 0.193735 0.837012
Si Si6 0.089216 0.500000 0.667590
O O1 0.500000 0.266472 0.526344
O O2 0.363514 0.305905 0.558843
O O3 0.386247 0.231872 0.470891
O O4 0.408491 0.000000 0.535817
O O5 0.155289 0.500000 0.131963
O O6 0.250000 0.250000 0.113696
O O7 0.115306 0.174816 0.142704
O O8 0.846418 0.500000 0.921683
O O9 0.750000 0.250000 0.939827
O O10 0.862759 0.201782 0.882751
O O11 0.882562 0.171644 0.298702
O O12 0.877152 0.000000 0.219873
O O13 0.000000 0.000000 0.268404
O O14 0.000000 0.237981 0.850200
O O15 0.093035 0.000000 0.816150
O O16 0.000000 0.500000 0.667191
#
# Coordination Sequence:
#
# PCOD8186514 Si02
#       6
#    16  16  16   8  16   8
#     4  11  23  40  62  93 129 168 216 266 316 384
#     4  12  24  43  69  95 135 176 219 268 335 394
#     4  12  24  38  58  86 128 168 215 258 316 383
#     4   9  20  40  66  93 124 163 211 266 326 380
#     4  10  20  38  64  92 124 162 208 263 317 376
#     4  11  24  44  70 101 133 169 221 280 333 396
#
# _framework density 20.302792
#
# number of rings (size 3 to 8) (size 9 to 14) (size 15 to 20)
#    0.000    1.000    3.000    4.200    0.000    6.000 
#    0.000    3.000    0.000    0.000    0.000    0.000 
#    0.000    0.000    0.000    0.000    0.000    0.000 
#
# Total GULP energy -248104.293189 kJ/mol
# GULP energy per Si atom -12405.214659 kJ/mol
# Density = 2.025658 g / cm^3
# Si number density = 20.302792 Si / 1000 Ang^3
#
#
#
# Elastic Constant Matrix: (Units=GPa)
#
#
# Indices 1 2 3 4 5 6 
#
# 1 73.9994 45.9264 24.6106 0.0000 0.0000 0.0000
# 2 45.9264 147.5006 51.6688 0.0000 0.0000 0.0000
# 3 24.6106 51.6688 126.7051 0.0000 0.0000 0.0000
# 4 0.0000 0.0000 0.0000 80.9869 0.0000 0.0000
# 5 0.0000 0.0000 0.0000 0.0000 12.9744 0.0000
# 6 0.0000 0.0000 0.0000 0.0000 0.0000 27.4618
#
#
#
# Elastic Compliance Matrix: (Units=1/GPa)
#
#
# Indices 1 2 3 4 5 6 
#
# 1 0.016940 -0.004809 -0.001329 0.000000 0.000000 0.000000
# 2 -0.004809 0.009275 -0.002848 0.000000 0.000000 0.000000
# 3 -0.001329 -0.002848 0.009312 0.000000 0.000000 0.000000
# 4 0.000000 0.000000 0.000000 0.012348 0.000000 0.000000
# 5 0.000000 0.000000 0.000000 0.000000 0.077075 0.000000
# 6 0.000000 0.000000 0.000000 0.000000 0.000000 0.036414
#
#
# Mechanical properties :
#
#
# Convention : Reuss Voigt Hill
#
# Bulk Modulus (GPa) = 56.96636 65.84630 61.40633
# Shear Modulus (GPa) = 26.99965 39.35125 33.17545
#
# Velocity S-wave (km/s) = 3.65067 4.40730 4.04670
# Velocity P-wave (km/s) = 6.77415 7.64209 7.22117
#
# Compressibility (1/GPa) = 0.01755422
#
# Stress axis : x y z
#
# Youngs Moduli (GPa) = 59.03074 107.82122 107.38903
#
# Poissons Ratio (x) = 0.51851 0.14276
# Poissons Ratio (y) = 0.28388 0.30584
# Poissons Ratio (z) = 0.07847 0.30708
#
# Static dielectric constant tensor:
#      x y z
#    x 3.648170 0.000000 0.000000 
#    y 0.000000 3.252400 0.000000 
#    z 0.000000 0.000000 3.737070 
# 
# 
# High freq. dielectric constant tensor:
#      x y z
#    x 1.789540 0.000000 0.000000 
#    y 0.000000 1.812190 0.000000 
#    z 0.000000 0.000000 1.787490 
# 
# From -- ./inp_files/32782.got.cif
#   From: 2010.03.12/outbox.cif.g09.slc.cpg/sg42_17_cif.got.tgz:32782.got - 2010.04.14 02:04:31.
