data_PCOD8186804
_publ_section_title
;
Structure prediction by ZEFSAII (Michael W. Deem and Ramdas Pophale) SiO2 
 PCOD8186804
Probable space group: F M M 2
;
_chemical_formula_sum "Si O2"
_cell_formula_units_Z 80
_cell_length_a 17.157059
_cell_length_b 18.820316
_cell_length_c 13.394403
_cell_angle_alpha 90.000000
_cell_angle_beta 90.000000
_cell_angle_gamma 90.000000
_cell_volume 4325.069767
_symmetry_space_group_name_H-M "F M M 2"
_symmetry_group_IT_number 42
_symmetry_cell_setting 'orthorhombic'
loop_
_space_group_symop_operation_xyz
x,y,z
-x,-y,z
-x,y,z
x,-y,z
x,1/2+y,1/2+z
-x,1/2-y,1/2+z
-x,1/2+y,1/2+z
x,1/2-y,1/2+z
1/2+x,y,1/2+z
1/2-x,-y,1/2+z
1/2-x,y,1/2+z
1/2+x,-y,1/2+z
1/2+x,1/2+y,z
1/2-x,1/2-y,z
1/2-x,1/2+y,z
1/2+x,1/2-y,z
loop_
_atom_site_type_symbol
_atom_site_label
_atom_site_fract_x
_atom_site_fract_y
_atom_site_fract_z
Si Si1 0.338369 0.273116 0.449360
Si Si2 0.407486 0.500000 0.175238
Si Si3 0.408726 0.357930 0.852446
Si Si4 0.406511 0.000000 0.449876
Si Si5 0.590101 0.215186 0.155239
Si Si6 0.090265 0.144674 0.275643
O O1 0.250000 0.250000 0.436449
O O2 0.392195 0.204770 0.430366
O O3 0.356210 0.300932 0.560228
O O4 0.358009 0.335975 0.371919
O O5 0.500000 0.500000 0.169258
O O6 0.378302 0.430011 0.233222
O O7 0.373850 0.500000 0.062750
O O8 0.500000 0.366865 0.845169
O O9 0.372181 0.431439 0.891967
O O10 0.377491 0.336764 0.742600
O O11 0.500000 0.000000 0.450841
O O12 0.500000 0.199056 0.129931
O O13 0.600189 0.296578 0.189531
O O14 0.000000 0.140102 0.308835
#
# Coordination Sequence:
#
# PCOD8186804 Si02
#       6
#    16   8  16   8  16  16
#     4  11  21  32  49  72 103 138 170 203 246 299
#     4   9  16  28  52  81 103 127 163 210 258 300
#     4   9  18  33  54  77  99 126 166 213 254 295
#     4   9  16  30  54  81 103 125 163 212 258 302
#     4   9  17  31  51  73  99 131 167 209 252 294
#     4   9  18  33  53  76  99 126 167 214 254 295
#
# _framework density 18.496811999999998
#
# number of rings (size 3 to 8) (size 9 to 14) (size 15 to 20)
#    0.000    2.600    0.000    4.200    0.000    6.400 
#    0.000    2.000    0.000    3.600    0.000    0.000 
#    0.000    0.000    0.000    0.000    0.000    0.000 
#
# Total GULP energy -247982.895488 kJ/mol
# GULP energy per Si atom -12399.144774 kJ/mol
# Density = 1.845471 g / cm^3
# Si number density = 18.496812 Si / 1000 Ang^3
#
#
#
# Elastic Constant Matrix: (Units=GPa)
#
#
# Indices 1 2 3 4 5 6 
#
# 1 37.7878 17.1465 42.8014 0.0000 0.0000 0.0000
# 2 17.1465 147.3841 79.7154 0.0000 0.0000 0.0000
# 3 42.8014 79.7154 157.2318 0.0000 0.0000 0.0000
# 4 0.0000 0.0000 0.0000 18.9944 0.0000 0.0000
# 5 0.0000 0.0000 0.0000 0.0000 9.9968 0.0000
# 6 0.0000 0.0000 0.0000 0.0000 0.0000 11.7275
#
#
#
# Elastic Compliance Matrix: (Units=1/GPa)
#
#
# Indices 1 2 3 4 5 6 
#
# 1 0.038547 0.001641 -0.011325 0.000000 0.000000 0.000000
# 2 0.001641 0.009418 -0.005222 0.000000 0.000000 0.000000
# 3 -0.011325 -0.005222 0.012090 0.000000 0.000000 0.000000
# 4 0.000000 0.000000 0.000000 0.052647 0.000000 0.000000
# 5 0.000000 0.000000 0.000000 0.000000 0.100032 0.000000
# 6 0.000000 0.000000 0.000000 0.000000 0.000000 0.085270
#
#
# Mechanical properties :
#
#
# Convention : Reuss Voigt Hill
#
# Bulk Modulus (GPa) = 33.06489 69.08112 51.07300
# Shear Modulus (GPa) = 14.79742 21.65976 18.22859
#
# Velocity S-wave (km/s) = 2.83149 3.42570 3.14267
# Velocity P-wave (km/s) = 5.34833 7.28532 6.39064
#
# Compressibility (1/GPa) = 0.03024356
#
# Stress axis : x y z
#
# Youngs Moduli (GPa) = 25.94263 106.17561 82.71105
#
# Poissons Ratio (x) = -0.17422 0.93670
# Poissons Ratio (y) = -0.04257 0.43189
# Poissons Ratio (z) = 0.29380 0.55442
#
# Static dielectric constant tensor:
#      x y z
#    x 2.983660 0.000000 0.000000 
#    y 0.000000 3.754080 0.000000 
#    z 0.000000 0.000000 3.481110 
# 
# 
# High freq. dielectric constant tensor:
#      x y z
#    x 1.677640 0.000000 0.000000 
#    y 0.000000 1.709730 0.000000 
#    z 0.000000 0.000000 1.724680 
# 
# From -- ./inp_files/8610.got.cif
#   From: 2010.03.12/outbox.cif.g09.slc.cpg/sg42_5_cif.got.tgz:8610.got - 2010.04.14 02:04:31.
