data_PCOD8186840
_publ_section_title
;
Structure prediction by ZEFSAII (Michael W. Deem and Ramdas Pophale) SiO2 
 PCOD8186840
Probable space group: F M M 2
;
_chemical_formula_sum "Si O2"
_cell_formula_units_Z 60
_cell_length_a 14.749125
_cell_length_b 10.262429
_cell_length_c 18.546575
_cell_angle_alpha 90.000000
_cell_angle_beta 90.000000
_cell_angle_gamma 90.000000
_cell_volume 2807.243868
_symmetry_space_group_name_H-M "F M M 2"
_symmetry_group_IT_number 42
_symmetry_cell_setting 'orthorhombic'
loop_
_space_group_symop_operation_xyz
x,y,z
-x,-y,z
-x,y,z
x,-y,z
x,1/2+y,1/2+z
-x,1/2-y,1/2+z
-x,1/2+y,1/2+z
x,1/2-y,1/2+z
1/2+x,y,1/2+z
1/2-x,-y,1/2+z
1/2-x,y,1/2+z
1/2+x,-y,1/2+z
1/2+x,1/2+y,z
1/2-x,1/2-y,z
1/2-x,1/2+y,z
1/2+x,1/2-y,z
loop_
_atom_site_type_symbol
_atom_site_label
_atom_site_fract_x
_atom_site_fract_y
_atom_site_fract_z
Si Si1 0.184798 0.000000 0.673151
Si Si2 0.000000 0.785350 0.263872
Si Si3 0.148140 0.500000 0.786640
Si Si4 0.899158 0.000000 0.437698
Si Si5 0.500000 0.000000 0.259132
Si Si6 0.342473 0.702994 0.550237
Si Si7 0.000000 0.350905 0.610433
O O1 0.187758 0.873452 0.622464
O O2 0.267270 0.000000 0.731592
O O3 0.090370 0.000000 0.713089
O O4 0.000000 0.754160 0.178509
O O5 0.090973 0.867011 0.278405
O O6 0.000000 0.640582 0.302709
O O7 0.174540 0.500000 0.872287
O O8 0.892975 0.877387 0.489469
O O9 0.000000 0.000000 0.401815
O O10 0.250000 0.750000 0.513738
O O11 0.408664 0.823963 0.566122
O O12 0.000000 0.500000 0.637357
#
# Coordination Sequence:
#
# PCOD8186840 Si02
#       7
#     8   8   8   8   4  16   8
#     4  11  23  41  70 101 131 177 225 291 337 401
#     4  11  22  39  65 100 132 175 223 284 343 392
#     4  11  24  45  71  96 136 185 230 278 339 420
#     4  11  23  49  72  90 135 191 224 266 345 422
#     4  12  24  40  62 104 138 174 224 284 342 390
#     4  11  24  41  67 102 134 171 230 283 339 404
#     4  12  22  38  67 100 137 172 224 293 341 392
#
# _framework density 21.373277000000002
#
# number of rings (size 3 to 8) (size 9 to 14) (size 15 to 20)
#    0.000    0.800    6.667    1.600    5.600    0.000 
#    4.800    0.000    5.867    0.000    0.000    0.000 
#    0.000    0.000    0.000    0.000    0.000    0.000 
#
# Total GULP energy -185844.256516 kJ/mol
# GULP energy per Si atom -12389.617101 kJ/mol
# Density = 2.132463 g / cm^3
# Si number density = 21.373277 Si / 1000 Ang^3
#
#
#
# Elastic Constant Matrix: (Units=GPa)
#
#
# Indices 1 2 3 4 5 6 
#
# 1 135.3060 36.4544 32.1875 0.0000 0.0000 0.0000
# 2 36.4544 133.0142 16.1580 0.0000 0.0000 0.0000
# 3 32.1875 16.1580 103.6621 0.0000 0.0000 0.0000
# 4 0.0000 0.0000 0.0000 -18.5312 0.0000 0.0000
# 5 0.0000 0.0000 0.0000 0.0000 31.6157 0.0000
# 6 0.0000 0.0000 0.0000 0.0000 0.0000 15.3094
#
#
#
# Elastic Compliance Matrix: (Units=1/GPa)
#
#
# Indices 1 2 3 4 5 6 
#
# 1 0.008493 -0.002046 -0.002318 0.000000 0.000000 0.000000
# 2 -0.002046 0.008156 -0.000636 0.000000 0.000000 0.000000
# 3 -0.002318 -0.000636 0.010466 0.000000 0.000000 0.000000
# 4 0.000000 0.000000 0.000000 -0.053963 0.000000 0.000000
# 5 0.000000 0.000000 0.000000 0.000000 0.031630 0.000000
# 6 0.000000 0.000000 0.000000 0.000000 0.000000 0.065319
#
#
# Mechanical properties :
#
#
# Convention : Reuss Voigt Hill
#
# Bulk Modulus (GPa) = 58.43049 60.17578 59.30313
# Shear Modulus (GPa) = 58.27047 24.82429 41.54738
#
# Velocity S-wave (km/s) = 5.22709 3.41172 4.41374
# Velocity P-wave (km/s) = 7.98920 6.61329 7.33359
#
# Compressibility (1/GPa) = 0.01711435
#
# Stress axis : x y z
#
# Youngs Moduli (GPa) = 117.73822 122.60889 95.55027
#
# Poissons Ratio (x) = 0.25087 0.22151
# Poissons Ratio (y) = 0.24091 0.06077
# Poissons Ratio (z) = 0.27295 0.07797
#
# Static dielectric constant tensor:
#      x y z
#    x 3.848490 0.000000 0.000000 
#    y 0.000000 4.199230 0.000000 
#    z 0.000000 0.000000 3.749950 
# 
# 
# High freq. dielectric constant tensor:
#      x y z
#    x 1.844480 0.000000 0.000000 
#    y 0.000000 1.844470 0.000000 
#    z 0.000000 0.000000 1.817560 
# 
# From -- ./inp_files/18638.got.cif
#   From: 2010.03.12/outbox.cif.g09.slc.cpg/sg42_10_cif.got.tgz:18638.got - 2010.04.14 02:04:31.
