data_PCOD8186574
_publ_section_title
;
Structure prediction by ZEFSAII (Michael W. Deem and Ramdas Pophale) SiO2 
 PCOD8186574
Probable space group: F M M 2
;
_chemical_formula_sum "Si O2"
_cell_formula_units_Z 96
_cell_length_a 18.563240
_cell_length_b 9.077051
_cell_length_c 30.137868
_cell_angle_alpha 90.000000
_cell_angle_beta 90.000000
_cell_angle_gamma 90.000000
_cell_volume 5078.214972
_symmetry_space_group_name_H-M "F M M 2"
_symmetry_group_IT_number 42
_symmetry_cell_setting 'orthorhombic'
loop_
_space_group_symop_operation_xyz
x,y,z
-x,-y,z
-x,y,z
x,-y,z
x,1/2+y,1/2+z
-x,1/2-y,1/2+z
-x,1/2+y,1/2+z
x,1/2-y,1/2+z
1/2+x,y,1/2+z
1/2-x,-y,1/2+z
1/2-x,y,1/2+z
1/2+x,-y,1/2+z
1/2+x,1/2+y,z
1/2-x,1/2-y,z
1/2-x,1/2+y,z
1/2+x,1/2-y,z
loop_
_atom_site_type_symbol
_atom_site_label
_atom_site_fract_x
_atom_site_fract_y
_atom_site_fract_z
Si Si1 0.083237 0.171667 0.869640
Si Si2 0.916737 0.328080 0.540121
Si Si3 0.085165 0.166742 0.628289
Si Si4 0.676685 0.171703 0.800518
Si Si5 0.173435 0.173478 0.955087
Si Si6 0.823049 0.671910 0.697751
O O1 0.109657 0.263604 0.827387
O O2 0.127416 0.223036 0.912630
O O3 0.000000 0.207991 0.878285
O O4 0.094956 0.000000 0.859626
O O5 0.906244 0.500000 0.550030
O O6 0.887708 0.238849 0.582513
O O7 0.869964 0.275013 0.498455
O O8 0.000000 0.292174 0.529765
O O9 0.112132 0.259925 0.669971
O O10 0.000000 0.171872 0.630337
O O11 0.114355 0.000000 0.630838
O O12 0.750000 0.250000 0.816239
O O13 0.660815 0.203735 0.749138
O O14 0.685333 0.000000 0.810481
O O15 0.250000 0.250000 0.953616
O O16 0.185285 0.000000 0.955423
O O17 0.816202 0.500000 0.687788
O O18 0.750000 0.750000 0.682340
#
# Coordination Sequence:
#
# PCOD8186574 Si02
#       6
#    16  16  16  16  16  16
#     4  10  21  37  57  81 110 144 181 222 269 320
#     4   9  18  35  57  77 102 140 183 224 267 317
#     4  10  21  36  55  81 112 144 180 223 270 321
#     4  10  21  37  57  81 109 142 181 224 270 321
#     4  10  21  36  55  80 108 140 179 221 267 321
#     4  10  21  37  57  80 108 143 182 224 270 321
#
# _framework density 18.904281000000001
#
# number of rings (size 3 to 8) (size 9 to 14) (size 15 to 20)
#    0.000    2.167    0.000    2.500    0.000    9.333 
#    0.000    5.000    0.000    3.000    0.000    0.000 
#    0.000    0.000    0.000    0.000    0.000    0.000 
#
# Total GULP energy -297717.082001 kJ/mol
# GULP energy per Si atom -12404.878417 kJ/mol
# Density = 1.886125 g / cm^3
# Si number density = 18.904281 Si / 1000 Ang^3
#
#
#
# Elastic Constant Matrix: (Units=GPa)
#
#
# Indices 1 2 3 4 5 6 
#
# 1 100.4184 49.4032 65.2310 0.0000 0.0000 0.0000
# 2 49.4032 90.1995 63.0346 0.0000 0.0000 0.0000
# 3 65.2310 63.0346 118.0102 0.0000 0.0000 0.0000
# 4 0.0000 0.0000 0.0000 31.4722 0.0000 0.0000
# 5 0.0000 0.0000 0.0000 0.0000 38.7872 0.0000
# 6 0.0000 0.0000 0.0000 0.0000 0.0000 35.8329
#
#
#
# Elastic Compliance Matrix: (Units=1/GPa)
#
#
# Indices 1 2 3 4 5 6 
#
# 1 0.016499 -0.004250 -0.006850 0.000000 0.000000 0.000000
# 2 -0.004250 0.018784 -0.007685 0.000000 0.000000 0.000000
# 3 -0.006850 -0.007685 0.016365 0.000000 0.000000 0.000000
# 4 0.000000 0.000000 0.000000 0.031774 0.000000 0.000000
# 5 0.000000 0.000000 0.000000 0.000000 0.025782 0.000000
# 6 0.000000 0.000000 0.000000 0.000000 0.000000 0.027907
#
#
# Mechanical properties :
#
#
# Convention : Reuss Voigt Hill
#
# Bulk Modulus (GPa) = 71.02374 73.77396 72.39885
# Shear Modulus (GPa) = 27.87502 29.94910 28.91206
#
# Velocity S-wave (km/s) = 3.84413 3.98458 3.91499
# Velocity P-wave (km/s) = 7.57330 7.76395 7.66922
#
# Compressibility (1/GPa) = 0.01407980
#
# Stress axis : x y z
#
# Youngs Moduli (GPa) = 60.61117 53.23586 61.10656
#
# Poissons Ratio (x) = 0.22623 0.41857
# Poissons Ratio (y) = 0.25757 0.46958
# Poissons Ratio (z) = 0.41518 0.40910
#
# Static dielectric constant tensor:
#      x y z
#    x 3.382040 0.000000 0.000000 
#    y 0.000000 3.518780 0.000000 
#    z 0.000000 0.000000 3.550170 
# 
# 
# High freq. dielectric constant tensor:
#      x y z
#    x 1.732620 0.000000 0.000000 
#    y 0.000000 1.737030 0.000000 
#    z 0.000000 0.000000 1.744060 
# 
# From -- ./inp_files/31421.got.cif
#   From: 2010.03.12/outbox.cif.g09.slc.cpg/sg42_16_cif.got.tgz:31421.got - 2010.04.14 02:04:31.
