data_PCOD8186216
_publ_section_title
;
Structure prediction by ZEFSAII (Michael W. Deem and Ramdas Pophale) SiO2 
 PCOD8186216
Probable space group: F M M 2
;
_chemical_formula_sum "Si O2"
_cell_formula_units_Z 96
_cell_length_a 23.483767
_cell_length_b 9.098174
_cell_length_c 24.987138
_cell_angle_alpha 90.000000
_cell_angle_beta 90.000000
_cell_angle_gamma 90.000000
_cell_volume 5338.736871
_symmetry_space_group_name_H-M "F M M 2"
_symmetry_group_IT_number 42
_symmetry_cell_setting 'orthorhombic'
loop_
_space_group_symop_operation_xyz
x,y,z
-x,-y,z
-x,y,z
x,-y,z
x,1/2+y,1/2+z
-x,1/2-y,1/2+z
-x,1/2+y,1/2+z
x,1/2-y,1/2+z
1/2+x,y,1/2+z
1/2-x,-y,1/2+z
1/2-x,y,1/2+z
1/2+x,-y,1/2+z
1/2+x,1/2+y,z
1/2-x,1/2-y,z
1/2-x,1/2+y,z
1/2+x,1/2-y,z
loop_
_atom_site_type_symbol
_atom_site_label
_atom_site_fract_x
_atom_site_fract_y
_atom_site_fract_z
Si Si1 0.380037 0.671463 0.927950
Si Si2 0.000000 0.170873 0.976828
Si Si3 0.000000 0.325435 0.090695
Si Si4 0.610077 0.827959 0.628454
Si Si5 0.191799 0.173002 0.343412
Si Si6 0.690508 0.828547 0.531117
Si Si7 0.806612 0.329731 0.720962
O O1 0.372335 0.500000 0.915143
O O2 0.445358 0.709260 0.941037
O O3 0.361359 0.765526 0.876753
O O4 0.341582 0.721518 0.977667
O O5 0.000000 0.000000 0.994240
O O6 0.000000 0.264352 0.030654
O O7 0.945958 0.269246 0.123781
O O8 0.000000 0.500000 0.088387
O O9 0.652264 0.782242 0.581087
O O10 0.639561 0.786544 0.684673
O O11 0.594093 0.000000 0.624969
O O12 0.250000 0.250000 0.363003
O O13 0.179116 0.213709 0.281879
O O14 0.198159 0.000000 0.352624
O O15 0.750000 0.750000 0.535574
O O16 0.702407 0.000000 0.531001
O O17 0.792899 0.500000 0.715241
O O18 0.750000 0.250000 0.700148
#
# Coordination Sequence:
#
# PCOD8186216 Si02
#       7
#    16   8   8  16  16  16  16
#     4  10  20  35  56  80 105 143 186 222 269 326
#     4  10  20  40  61  76 105 147 188 222 268 331
#     4  12  24  36  55  84 111 141 182 228 274 317
#     4  10  20  38  58  76 106 149 185 218 267 328
#     4  10  20  35  55  82 113 145 182 225 272 324
#     4  10  20  32  51  78 107 137 174 218 269 323
#     4   9  19  35  58  83 109 145 184 222 272 324
#
# _framework density 17.981781999999999
#
# number of rings (size 3 to 8) (size 9 to 14) (size 15 to 20)
#    0.000    2.000    1.667    2.250    0.000    4.667 
#    0.000    0.833    0.000    3.000    0.000    0.000 
#    0.000    0.000    0.000    0.000    0.000    0.000 
#
# Total GULP energy -297693.556406 kJ/mol
# GULP energy per Si atom -12403.898184 kJ/mol
# Density = 1.794085 g / cm^3
# Si number density = 17.981782 Si / 1000 Ang^3
#
#
#
# Elastic Constant Matrix: (Units=GPa)
#
#
# Indices 1 2 3 4 5 6 
#
# 1 158.4881 68.8565 72.1964 0.0000 0.0000 0.0000
# 2 68.8565 75.5651 50.6726 0.0000 0.0000 0.0000
# 3 72.1964 50.6726 105.9905 0.0000 0.0000 0.0000
# 4 0.0000 0.0000 0.0000 22.9230 0.0000 0.0000
# 5 0.0000 0.0000 0.0000 0.0000 22.8879 0.0000
# 6 0.0000 0.0000 0.0000 0.0000 0.0000 32.3800
#
#
#
# Elastic Compliance Matrix: (Units=1/GPa)
#
#
# Indices 1 2 3 4 5 6 
#
# 1 0.011582 -0.007747 -0.004185 0.000000 0.000000 0.000000
# 2 -0.007747 0.024660 -0.006513 0.000000 0.000000 0.000000
# 3 -0.004185 -0.006513 0.015399 0.000000 0.000000 0.000000
# 4 0.000000 0.000000 0.000000 0.043624 0.000000 0.000000
# 5 0.000000 0.000000 0.000000 0.000000 0.043691 0.000000
# 6 0.000000 0.000000 0.000000 0.000000 0.000000 0.030883
#
#
# Mechanical properties :
#
#
# Convention : Reuss Voigt Hill
#
# Bulk Modulus (GPa) = 67.79116 80.38829 74.08973
# Shear Modulus (GPa) = 23.62414 25.52607 24.57511
#
# Velocity S-wave (km/s) = 3.62855 3.77178 3.70086
# Velocity P-wave (km/s) = 7.43888 7.98567 7.71712
#
# Compressibility (1/GPa) = 0.01475118
#
# Stress axis : x y z
#
# Youngs Moduli (GPa) = 86.34076 40.55109 64.93775
#
# Poissons Ratio (x) = 0.31415 0.27179
# Poissons Ratio (y) = 0.66889 0.42292
# Poissons Ratio (z) = 0.36137 0.26410
#
# Static dielectric constant tensor:
#      x y z
#    x 3.373390 0.000000 0.000000 
#    y 0.000000 3.243970 0.000000 
#    z 0.000000 0.000000 3.429340 
# 
# 
# High freq. dielectric constant tensor:
#      x y z
#    x 1.698650 0.000000 0.000000 
#    y 0.000000 1.691280 0.000000 
#    z 0.000000 0.000000 1.698240 
# 
# From -- ./inp_files/28059.got.cif
#   From: 2010.03.12/outbox.cif.g09.slc.cpg/sg42_15_cif.got.tgz:28059.got - 2010.04.14 02:04:31.
