data_PCOD8186195
_publ_section_title
;
Structure prediction by ZEFSAII (Michael W. Deem and Ramdas Pophale) SiO2 
 PCOD8186195
Probable space group: F M M 2
;
_chemical_formula_sum "Si O2"
_cell_formula_units_Z 96
_cell_length_a 14.601701
_cell_length_b 18.698390
_cell_length_c 17.679535
_cell_angle_alpha 90.000000
_cell_angle_beta 90.000000
_cell_angle_gamma 90.000000
_cell_volume 4827.013385
_symmetry_space_group_name_H-M "F M M 2"
_symmetry_group_IT_number 42
_symmetry_cell_setting 'orthorhombic'
loop_
_space_group_symop_operation_xyz
x,y,z
-x,-y,z
-x,y,z
x,-y,z
x,1/2+y,1/2+z
-x,1/2-y,1/2+z
-x,1/2+y,1/2+z
x,1/2-y,1/2+z
1/2+x,y,1/2+z
1/2-x,-y,1/2+z
1/2-x,y,1/2+z
1/2+x,-y,1/2+z
1/2+x,1/2+y,z
1/2-x,1/2-y,z
1/2-x,1/2+y,z
1/2+x,1/2-y,z
loop_
_atom_site_type_symbol
_atom_site_label
_atom_site_fract_x
_atom_site_fract_y
_atom_site_fract_z
Si Si1 0.000000 0.915780 0.919471
Si Si2 0.153302 0.849565 0.021783
Si Si3 0.000000 0.202561 0.799723
Si Si4 0.000000 0.838637 0.410161
Si Si5 0.326407 0.812088 0.193401
Si Si6 0.000000 0.417750 0.765422
Si Si7 0.177707 0.084287 0.184602
Si Si8 0.854865 0.310224 0.025767
O O1 0.092791 0.895908 0.964271
O O2 0.000000 0.874341 0.839806
O O3 0.000000 0.000000 0.902838
O O4 0.160980 0.894378 0.098230
O O5 0.108756 0.771600 0.030291
O O6 0.254605 0.828853 0.993216
O O7 0.000000 0.264775 0.862397
O O8 0.092387 0.209608 0.749873
O O9 0.085405 0.850402 0.464449
O O10 0.000000 0.905665 0.354497
O O11 0.250000 0.750000 0.180341
O O12 0.268473 0.880611 0.222002
O O13 0.367313 0.836088 0.112223
O O14 0.909204 0.383393 0.729369
O O15 0.000000 0.500000 0.744467
O O16 0.188224 0.000000 0.192951
#
# Coordination Sequence:
#
# PCOD8186195 Si02
#       8
#     8  16   8   8  16   8  16  16
#     4  12  25  40  57  90 133 166 200 247 305 369
#     4  10  19  38  61  92 120 156 201 254 303 352
#     4  12  27  37  59  89 121 168 202 240 308 369
#     4  12  23  39  61  89 123 160 200 248 304 367
#     4  11  22  42  63  89 118 155 207 255 300 354
#     4  10  23  40  59  92 127 160 198 249 305 357
#     4  10  20  38  65  91 120 157 202 250 300 355
#     4  10  20  39  65  90 119 150 204 260 299 349
#
# _framework density 19.888074
#
# number of rings (size 3 to 8) (size 9 to 14) (size 15 to 20)
#    0.000    1.333    5.000    2.500    0.000    4.000 
#    0.000    5.833    0.000    1.000    0.000    0.000 
#    0.000    0.000    0.000    0.000    0.000    0.000 
#
# Total GULP energy -297385.868033 kJ/mol
# GULP energy per Si atom -12391.077835 kJ/mol
# Density = 1.984281 g / cm^3
# Si number density = 19.888074 Si / 1000 Ang^3
#
#
#
# Elastic Constant Matrix: (Units=GPa)
#
#
# Indices 1 2 3 4 5 6 
#
# 1 122.1463 29.6667 64.1705 0.0000 0.0000 0.0000
# 2 29.6667 61.8725 15.1602 0.0000 0.0000 0.0000
# 3 64.1705 15.1602 97.0499 0.0000 0.0000 0.0000
# 4 0.0000 0.0000 0.0000 32.3708 0.0000 0.0000
# 5 0.0000 0.0000 0.0000 0.0000 -1.6567 0.0000
# 6 0.0000 0.0000 0.0000 0.0000 0.0000 25.1938
#
#
#
# Elastic Compliance Matrix: (Units=1/GPa)
#
#
# Indices 1 2 3 4 5 6 
#
# 1 0.013655 -0.004508 -0.008325 0.000000 0.000000 0.000000
# 2 -0.004508 0.018293 0.000123 0.000000 0.000000 0.000000
# 3 -0.008325 0.000123 0.015789 0.000000 0.000000 0.000000
# 4 0.000000 0.000000 0.000000 0.030892 0.000000 0.000000
# 5 0.000000 0.000000 0.000000 0.000000 -0.603617 0.000000
# 6 0.000000 0.000000 0.000000 0.000000 0.000000 0.039692
#
#
# Mechanical properties :
#
#
# Convention : Reuss Voigt Hill
#
# Bulk Modulus (GPa) = 44.80540 55.45151 50.12845
# Shear Modulus (GPa) = -11.05130 22.65300 5.80085
#
# Velocity S-wave (km/s) = -2.35983 3.37860 1.70970
# Velocity P-wave (km/s) = 3.89263 6.56980 5.39976
#
# Compressibility (1/GPa) = 0.02231874
#
# Stress axis : x y z
#
# Youngs Moduli (GPa) = 73.23191 54.66430 63.33408
#
# Poissons Ratio (x) = 0.24641 0.52725
# Poissons Ratio (y) = 0.33010 -0.00778
# Poissons Ratio (z) = 0.60965 -0.00672
#
# Static dielectric constant tensor:
#      x y z
#    x 4.059080 0.000000 0.000000 
#    y 0.000000 3.541870 0.000000 
#    z 0.000000 0.000000 3.554950 
# 
# 
# High freq. dielectric constant tensor:
#      x y z
#    x 1.788540 0.000000 0.000000 
#    y 0.000000 1.764140 0.000000 
#    z 0.000000 0.000000 1.769140 
# 
# From -- ./inp_files/14077.got.cif
#   From: 2010.03.12/outbox.cif.g09.slc.cpg/sg42_8_cif.got.tgz:14077.got - 2010.04.14 02:04:31.
