data_PCOD8186863
_publ_section_title
;
Structure prediction by ZEFSAII (Michael W. Deem and Ramdas Pophale) SiO2 
 PCOD8186863
Probable space group: F M M 2
;
_chemical_formula_sum "Si O2"
_cell_formula_units_Z 72
_cell_length_a 18.129936
_cell_length_b 23.249445
_cell_length_c 8.519880
_cell_angle_alpha 90.000000
_cell_angle_beta 90.000000
_cell_angle_gamma 90.000000
_cell_volume 3591.222712
_symmetry_space_group_name_H-M "F M M 2"
_symmetry_group_IT_number 42
_symmetry_cell_setting 'orthorhombic'
loop_
_space_group_symop_operation_xyz
x,y,z
-x,-y,z
-x,y,z
x,-y,z
x,1/2+y,1/2+z
-x,1/2-y,1/2+z
-x,1/2+y,1/2+z
x,1/2-y,1/2+z
1/2+x,y,1/2+z
1/2-x,-y,1/2+z
1/2-x,y,1/2+z
1/2+x,-y,1/2+z
1/2+x,1/2+y,z
1/2-x,1/2-y,z
1/2-x,1/2+y,z
1/2+x,1/2-y,z
loop_
_atom_site_type_symbol
_atom_site_label
_atom_site_fract_x
_atom_site_fract_y
_atom_site_fract_z
Si Si1 0.000000 0.657618 0.458820
Si Si2 0.654930 0.288190 0.009426
Si Si3 0.701343 0.176813 0.862329
Si Si4 0.000000 0.934075 0.687260
Si Si5 0.875054 0.437120 0.943726
Si Si6 0.500000 0.939694 0.695375
O O1 0.072070 0.697116 0.458698
O O2 0.000000 0.611794 0.322602
O O3 0.000000 0.620792 0.614036
O O4 0.662044 0.219278 0.988405
O O5 0.710463 0.316685 0.882020
O O6 0.675294 0.308236 0.185639
O O7 0.685404 0.111536 0.912953
O O8 0.925689 0.921731 0.591538
O O9 0.000000 0.000000 0.747637
O O10 0.836520 0.500000 0.968329
O O11 0.926352 0.441022 0.794230
O O12 0.500000 0.000000 0.594505
#
# Coordination Sequence:
#
# PCOD8186863 Si02
#       6
#     8  16  16   8  16   8
#     4  12  23  38  62 103 119 167 213 266 304 382
#     4  11  26  40  69  90 133 167 207 259 330 358
#     4  11  23  46  62  94 128 172 206 262 315 388
#     4   9  21  36  60  95 133 170 206 266 320 366
#     4   9  19  39  66  88 124 173 211 253 314 378
#     4   9  17  36  60  88 125 165 203 256 312 370
#
# _framework density 20.04888
#
# number of rings (size 3 to 8) (size 9 to 14) (size 15 to 20)
#    0.000    1.778    2.222    4.333    6.222    2.667 
#    0.000    3.333    0.000    0.000    0.000    0.000 
#    0.000    0.000    0.000    0.000    0.000    0.000 
#
# Total GULP energy -223030.312340 kJ/mol
# GULP energy per Si atom -12390.572908 kJ/mol
# Density = 2.000325 g / cm^3
# Si number density = 20.048880 Si / 1000 Ang^3
#
#
#
# Elastic Constant Matrix: (Units=GPa)
#
#
# Indices 1 2 3 4 5 6 
#
# 1 133.7551 62.3128 28.9003 0.0000 0.0000 0.0000
# 2 62.3128 126.5941 25.3949 0.0000 0.0000 0.0000
# 3 28.9003 25.3949 84.6128 -0.0003 0.0002 0.0000
# 4 0.0000 0.0000 -0.0003 37.5551 0.0002 0.0000
# 5 0.0000 0.0000 0.0002 0.0002 29.3752 0.0000
# 6 0.0000 0.0000 0.0000 0.0000 0.0000 35.9343
#
#
#
# Elastic Compliance Matrix: (Units=1/GPa)
#
#
# Indices 1 2 3 4 5 6 
#
# 1 0.010030 -0.004522 -0.002069 0.000000 0.000000 0.000000
# 2 -0.004522 0.010444 -0.001590 0.000000 0.000000 0.000000
# 3 -0.002069 -0.001590 0.013002 0.000000 0.000000 0.000000
# 4 0.000000 0.000000 0.000000 0.026628 0.000000 0.000000
# 5 0.000000 0.000000 0.000000 0.000000 0.034042 0.000000
# 6 0.000000 0.000000 0.000000 0.000000 0.000000 0.027829
#
#
# Mechanical properties :
#
#
# Convention : Reuss Voigt Hill
#
# Bulk Modulus (GPa) = 58.42841 64.24201 61.33521
# Shear Modulus (GPa) = 34.71226 35.79652 35.25439
#
# Velocity S-wave (km/s) = 4.16550 4.23006 4.19790
# Velocity P-wave (km/s) = 7.23474 7.48132 7.35906
#
# Compressibility (1/GPa) = 0.01711496
#
# Stress axis : x y z
#
# Youngs Moduli (GPa) = 99.70073 95.74791 76.90927
#
# Poissons Ratio (x) = 0.43298 0.15910
# Poissons Ratio (y) = 0.45085 0.12229
# Poissons Ratio (z) = 0.20625 0.15224
#
# Static dielectric constant tensor:
#      x y z
#    x 3.534060 0.000000 0.000000 
#    y 0.000000 3.660650 0.000000 
#    z 0.000000 0.000000 3.648110 
# 
# 
# High freq. dielectric constant tensor:
#      x y z
#    x 1.766950 0.000000 0.000000 
#    y 0.000000 1.796730 0.000000 
#    z 0.000000 0.000000 1.779790 
# 
# From -- ./inp_files/2883.got.cif
#   From: 2010.03.12/outbox.cif.g09.slc.cpg/sg42_2_cif.got.tgz:2883.got - 2010.04.14 02:04:31.
