data_PCOD8186267
_publ_section_title
;
Structure prediction by ZEFSAII (Michael W. Deem and Ramdas Pophale) SiO2 
 PCOD8186267
Probable space group: F M M 2
;
_chemical_formula_sum "Si O2"
_cell_formula_units_Z 96
_cell_length_a 17.677220
_cell_length_b 29.588071
_cell_length_c 10.094329
_cell_angle_alpha 90.000000
_cell_angle_beta 90.000000
_cell_angle_gamma 90.000000
_cell_volume 5279.685758
_symmetry_space_group_name_H-M "F M M 2"
_symmetry_group_IT_number 42
_symmetry_cell_setting 'orthorhombic'
loop_
_space_group_symop_operation_xyz
x,y,z
-x,-y,z
-x,y,z
x,-y,z
x,1/2+y,1/2+z
-x,1/2-y,1/2+z
-x,1/2+y,1/2+z
x,1/2-y,1/2+z
1/2+x,y,1/2+z
1/2-x,-y,1/2+z
1/2-x,y,1/2+z
1/2+x,-y,1/2+z
1/2+x,1/2+y,z
1/2-x,1/2-y,z
1/2-x,1/2+y,z
1/2+x,1/2-y,z
loop_
_atom_site_type_symbol
_atom_site_label
_atom_site_fract_x
_atom_site_fract_y
_atom_site_fract_z
Si Si1 0.583390 0.950353 0.514860
Si Si2 0.312356 0.633487 0.320151
Si Si3 0.818776 0.129292 0.021833
Si Si4 0.084602 0.949484 0.329130
Si Si5 0.588896 0.217212 0.527506
Si Si6 0.162819 0.265383 0.789265
O O1 0.500000 0.939117 0.458290
O O2 0.645535 0.916128 0.460480
O O3 0.580557 0.947040 0.672267
O O4 0.608407 0.000000 0.467959
O O5 0.244236 0.643597 0.418996
O O6 0.284611 0.622184 0.170140
O O7 0.362437 0.591899 0.378835
O O8 0.354268 0.681734 0.318263
O O9 0.886237 0.165185 0.029210
O O10 0.000000 0.942308 0.387177
O O11 0.114253 0.000000 0.372096
O O12 0.500000 0.220221 0.554073
O O13 0.609574 0.237697 0.386343
O O14 0.634613 0.244979 0.640184
O O15 0.250000 0.250000 0.803131
#
# Coordination Sequence:
#
# PCOD8186267 Si02
#       6
#    16  16  16  16  16  16
#     4   8  14  27  49  74 100 131 168 213 261 308
#     4  10  21  33  55  77 105 140 175 214 270 325
#     4  10  20  34  51  77 106 136 174 219 267 317
#     4   8  15  30  52  78 106 135 174 223 269 315
#     4  11  23  37  57  81 107 141 186 230 270 321
#     4  11  22  38  57  78 111 147 182 225 276 328
#
# _framework density 18.182901000000001
#
# number of rings (size 3 to 8) (size 9 to 14) (size 15 to 20)
#    0.000    2.333    1.667    2.500    2.333    5.333 
#    0.000    0.000    0.000    2.000    0.000    2.333 
#    0.000    0.000    0.000    0.000    0.000    0.000 
#
# Total GULP energy -297429.018826 kJ/mol
# GULP energy per Si atom -12392.875784 kJ/mol
# Density = 1.814152 g / cm^3
# Si number density = 18.182901 Si / 1000 Ang^3
#
#
#
# Elastic Constant Matrix: (Units=GPa)
#
#
# Indices 1 2 3 4 5 6 
#
# 1 81.0176 32.2541 24.7759 0.0000 0.0000 0.0000
# 2 32.2541 88.8688 22.0624 0.0000 0.0000 0.0000
# 3 24.7759 22.0624 57.4122 0.0000 0.0000 0.0000
# 4 0.0000 0.0000 0.0000 14.8643 0.0000 0.0000
# 5 0.0000 0.0000 0.0000 0.0000 19.7258 0.0000
# 6 0.0000 0.0000 0.0000 0.0000 0.0000 31.0477
#
#
#
# Elastic Compliance Matrix: (Units=1/GPa)
#
#
# Indices 1 2 3 4 5 6 
#
# 1 0.015650 -0.004426 -0.005053 0.000000 0.000000 0.000000
# 2 -0.004426 0.013691 -0.003351 0.000000 0.000000 0.000000
# 3 -0.005053 -0.003351 0.020886 0.000000 0.000000 0.000000
# 4 0.000000 0.000000 0.000000 0.067275 0.000000 0.000000
# 5 0.000000 0.000000 0.000000 0.000000 0.050695 0.000000
# 6 0.000000 0.000000 0.000000 0.000000 0.000000 0.032208
#
#
# Mechanical properties :
#
#
# Convention : Reuss Voigt Hill
#
# Bulk Modulus (GPa) = 40.70431 42.83148 41.76789
# Shear Modulus (GPa) = 21.34425 23.00798 22.17612
#
# Velocity S-wave (km/s) = 3.42989 3.56105 3.49609
# Velocity P-wave (km/s) = 6.17415 6.36515 6.27038
#
# Compressibility (1/GPa) = 0.02456742
#
# Stress axis : x y z
#
# Youngs Moduli (GPa) = 63.89707 73.04208 47.87813
#
# Poissons Ratio (x) = 0.32326 0.24193
# Poissons Ratio (y) = 0.28278 0.16045
# Poissons Ratio (z) = 0.32288 0.24478
#
# Static dielectric constant tensor:
#      x y z
#    x 3.322370 0.000000 0.000000 
#    y 0.000000 3.674870 0.000000 
#    z 0.000000 0.000000 3.104780 
# 
# 
# High freq. dielectric constant tensor:
#      x y z
#    x 1.693410 0.000000 0.000000 
#    y 0.000000 1.719340 0.000000 
#    z 0.000000 0.000000 1.671240 
# 
# From -- ./inp_files/8912.got.cif
#   From: 2010.03.12/outbox.cif.g09.slc.cpg/sg42_5_cif.got.tgz:8912.got - 2010.04.14 02:04:31.
