data_PCOD8186233
_publ_section_title
;
Structure prediction by ZEFSAII (Michael W. Deem and Ramdas Pophale) SiO2 
 PCOD8186233
Probable space group: F M M 2
;
_chemical_formula_sum "Si O2"
_cell_formula_units_Z 72
_cell_length_a 9.292037
_cell_length_b 13.236065
_cell_length_c 27.427675
_cell_angle_alpha 90.000000
_cell_angle_beta 90.000000
_cell_angle_gamma 90.000000
_cell_volume 3373.329905
_symmetry_space_group_name_H-M "F M M 2"
_symmetry_group_IT_number 42
_symmetry_cell_setting 'orthorhombic'
loop_
_space_group_symop_operation_xyz
x,y,z
-x,-y,z
-x,y,z
x,-y,z
x,1/2+y,1/2+z
-x,1/2-y,1/2+z
-x,1/2+y,1/2+z
x,1/2-y,1/2+z
1/2+x,y,1/2+z
1/2-x,-y,1/2+z
1/2-x,y,1/2+z
1/2+x,-y,1/2+z
1/2+x,1/2+y,z
1/2-x,1/2-y,z
1/2-x,1/2+y,z
1/2+x,1/2-y,z
loop_
_atom_site_type_symbol
_atom_site_label
_atom_site_fract_x
_atom_site_fract_y
_atom_site_fract_z
Si Si1 0.750000 0.250000 0.607950
Si Si2 0.000000 0.113141 0.940292
Si Si3 0.250000 0.750000 0.816598
Si Si4 0.500000 0.618031 0.769869
Si Si5 0.500000 0.616525 0.654630
Si Si6 0.500000 0.208689 0.545024
Si Si7 0.000000 0.883737 0.483350
Si Si8 0.798498 0.114552 0.398474
O O1 0.645846 0.324036 0.638619
O O2 0.644784 0.179518 0.574449
O O3 0.869969 0.134266 0.904010
O O4 0.000000 0.174182 0.989775
O O5 0.000000 0.000000 0.960092
O O6 0.355679 0.678579 0.785243
O O7 0.151832 0.678543 0.851665
O O8 0.500000 0.500000 0.789474
O O9 0.500000 0.615503 0.712231
O O10 0.500000 0.500000 0.635408
O O11 0.500000 0.330830 0.536519
O O12 0.134810 0.850405 0.449847
O O13 0.000000 0.000000 0.496808
O O14 0.843657 0.000000 0.388338
#
# Coordination Sequence:
#
# PCOD8186233 Si02
#       8
#     8   8   8   8   8   8   8  16
#     4  10  23  39  64  94 118 156 208 249 309 388
#     4  10  20  33  50  77 121 167 204 246 291 340
#     4  12  21  37  64  90 126 164 202 261 307 344
#     4  11  25  43  67  96 121 155 204 251 312 385
#     4  10  23  47  69  89 125 159 189 252 325 379
#     4  11  20  34  56  87 120 154 207 259 295 352
#     4  10  20  33  50  77 119 167 206 242 291 344
#     4  10  20  33  51  80 120 167 211 244 290 352
#
# _framework density 21.343893999999999
#
# number of rings (size 3 to 8) (size 9 to 14) (size 15 to 20)
#    0.000    1.556    0.000    5.333    0.000    3.556 
#    0.000    3.333    0.000    8.000    0.000    0.000 
#    0.000    0.000    0.000    0.000    0.000    0.000 
#
# Total GULP energy -222996.438290 kJ/mol
# GULP energy per Si atom -12388.691016 kJ/mol
# Density = 2.129531 g / cm^3
# Si number density = 21.343894 Si / 1000 Ang^3
#
#
#
# Elastic Constant Matrix: (Units=GPa)
#
#
# Indices 1 2 3 4 5 6 
#
# 1 142.3927 47.9591 26.7328 0.0000 0.0000 0.0000
# 2 47.9591 125.3466 46.2970 0.0000 0.0000 0.0000
# 3 26.7328 46.2970 73.9393 0.0000 0.0000 0.0000
# 4 0.0000 0.0000 0.0000 29.2257 0.0000 0.0000
# 5 0.0000 0.0000 0.0000 0.0000 50.2845 0.0000
# 6 0.0000 0.0000 0.0000 0.0000 0.0000 49.4858
#
#
#
# Elastic Compliance Matrix: (Units=1/GPa)
#
#
# Indices 1 2 3 4 5 6 
#
# 1 0.008156 -0.002643 -0.001294 0.000000 0.000000 0.000000
# 2 -0.002643 0.011234 -0.006079 0.000000 0.000000 0.000000
# 3 -0.001294 -0.006079 0.017799 0.000000 0.000000 0.000000
# 4 0.000000 0.000000 0.000000 0.034216 0.000000 0.000000
# 5 0.000000 0.000000 0.000000 0.000000 0.019887 0.000000
# 6 0.000000 0.000000 0.000000 0.000000 0.000000 0.020208
#
#
# Mechanical properties :
#
#
# Convention : Reuss Voigt Hill
#
# Bulk Modulus (GPa) = 58.28273 64.85072 61.56672
# Shear Modulus (GPa) = 36.42983 40.51186 38.47085
#
# Velocity S-wave (km/s) = 4.13583 4.36139 4.25011
# Velocity P-wave (km/s) = 7.08326 7.47074 7.27958
#
# Compressibility (1/GPa) = 0.01715774
#
# Stress axis : x y z
#
# Youngs Moduli (GPa) = 122.61189 89.01405 56.18358
#
# Poissons Ratio (x) = 0.23522 0.07271
# Poissons Ratio (y) = 0.32400 0.34153
# Poissons Ratio (z) = 0.15868 0.54111
#
# Static dielectric constant tensor:
#      x y z
#    x 4.025830 0.000000 0.000000 
#    y 0.000000 4.251680 0.000000 
#    z 0.000000 0.000000 3.728500 
# 
# 
# High freq. dielectric constant tensor:
#      x y z
#    x 1.847480 0.000000 0.000000 
#    y 0.000000 1.847570 0.000000 
#    z 0.000000 0.000000 1.830650 
# 
# From -- ./inp_files/31197.got.cif
#   From: 2010.03.12/outbox.cif.g09.slc.cpg/sg42_16_cif.got.tgz:31197.got - 2010.04.14 02:04:31.
