data_PCOD8186490
_publ_section_title
;
Structure prediction by ZEFSAII (Michael W. Deem and Ramdas Pophale) SiO2 
 PCOD8186490
Probable space group: F M M 2
;
_chemical_formula_sum "Si O2"
_cell_formula_units_Z 64
_cell_length_a 17.098062
_cell_length_b 21.988012
_cell_length_c 8.721250
_cell_angle_alpha 90.000000
_cell_angle_beta 90.000000
_cell_angle_gamma 90.000000
_cell_volume 3278.774803
_symmetry_space_group_name_H-M "F M M 2"
_symmetry_group_IT_number 42
_symmetry_cell_setting 'orthorhombic'
loop_
_space_group_symop_operation_xyz
x,y,z
-x,-y,z
-x,y,z
x,-y,z
x,1/2+y,1/2+z
-x,1/2-y,1/2+z
-x,1/2+y,1/2+z
x,1/2-y,1/2+z
1/2+x,y,1/2+z
1/2-x,-y,1/2+z
1/2-x,y,1/2+z
1/2+x,-y,1/2+z
1/2+x,1/2+y,z
1/2-x,1/2-y,z
1/2-x,1/2+y,z
1/2+x,1/2-y,z
loop_
_atom_site_type_symbol
_atom_site_label
_atom_site_fract_x
_atom_site_fract_y
_atom_site_fract_z
Si Si1 0.828607 0.068188 0.281950
Si Si2 0.410020 0.792262 0.286106
Si Si3 0.304161 0.380278 0.956897
Si Si4 0.149054 0.319469 0.958463
O O1 0.737671 0.074070 0.335997
O O2 0.879851 0.116675 0.380506
O O3 0.859507 0.000000 0.311787
O O4 0.834022 0.082594 0.102567
O O5 0.500000 0.782202 0.328464
O O6 0.379403 0.850609 0.378184
O O7 0.360819 0.732661 0.331085
O O8 0.402197 0.803369 0.105305
O O9 0.241054 0.327339 0.003926
#
# Coordination Sequence:
#
# PCOD8186490 Si02
#       4
#    16  16  16  16
#     4  10  20  37  66  91 118 157 212 259 294 353
#     4  12  23  39  62  92 129 161 198 253 316 369
#     4  10  20  37  62  94 120 153 208 251 304 356
#     4  10  22  38  59  92 122 159 206 249 300 364
#
# _framework density 19.519487000000002
#
# number of rings (size 3 to 8) (size 9 to 14) (size 15 to 20)
#    1.500    0.000    2.500    3.750    0.000    2.000 
#    0.000    1.250    0.000   12.000    0.000    0.000 
#    0.000    0.000    0.000    0.000    0.000    0.000 
#
# Total GULP energy -198317.669579 kJ/mol
# GULP energy per Si atom -12394.854349 kJ/mol
# Density = 1.947506 g / cm^3
# Si number density = 19.519487 Si / 1000 Ang^3
#
#
#
# Elastic Constant Matrix: (Units=GPa)
#
#
# Indices 1 2 3 4 5 6 
#
# 1 46.5826 8.6940 5.8957 0.0000 0.0000 0.0000
# 2 8.6940 137.1367 63.5499 0.0000 0.0000 0.0000
# 3 5.8957 63.5499 116.3293 0.0000 0.0000 0.0000
# 4 0.0000 0.0000 0.0000 33.5826 0.0000 0.0000
# 5 0.0000 0.0000 0.0000 0.0000 22.3187 0.0000
# 6 0.0000 0.0000 0.0000 0.0000 0.0000 9.6916
#
#
#
# Elastic Compliance Matrix: (Units=1/GPa)
#
#
# Indices 1 2 3 4 5 6 
#
# 1 0.021743 -0.001162 -0.000467 0.000000 0.000000 0.000000
# 2 -0.001162 0.009826 -0.005309 0.000000 0.000000 0.000000
# 3 -0.000467 -0.005309 0.011520 0.000000 0.000000 0.000000
# 4 0.000000 0.000000 0.000000 0.029777 0.000000 0.000000
# 5 0.000000 0.000000 0.000000 0.000000 0.044806 0.000000
# 6 0.000000 0.000000 0.000000 0.000000 0.000000 0.103182
#
#
# Mechanical properties :
#
#
# Convention : Reuss Voigt Hill
#
# Bulk Modulus (GPa) = 34.23114 50.70308 42.46711
# Shear Modulus (GPa) = 20.45257 27.91251 24.18254
#
# Velocity S-wave (km/s) = 3.24049 3.78561 3.52361
# Velocity P-wave (km/s) = 5.61925 6.71862 6.19338
#
# Compressibility (1/GPa) = 0.02921317
#
# Stress axis : x y z
#
# Youngs Moduli (GPa) = 45.99130 101.77258 86.80419
#
# Poissons Ratio (x) = 0.11825 0.04056
# Poissons Ratio (y) = 0.05344 0.46083
# Poissons Ratio (z) = 0.02149 0.54030
#
# Static dielectric constant tensor:
#      x y z
#    x 3.081810 0.000000 0.000000 
#    y 0.000000 3.434150 0.000000 
#    z 0.000000 0.000000 3.477480 
# 
# 
# High freq. dielectric constant tensor:
#      x y z
#    x 1.715590 0.000000 0.000000 
#    y 0.000000 1.754320 0.000000 
#    z 0.000000 0.000000 1.772080 
# 
# From -- ./inp_files/2681.got.cif
#   From: 2010.03.12/outbox.cif.g09.slc.cpg/sg42_2_cif.got.tgz:2681.got - 2010.04.14 02:04:31.
