data_PCOD8186140
_publ_section_title
;
Structure prediction by ZEFSAII (Michael W. Deem and Ramdas Pophale) SiO2 
 PCOD8186140
Probable space group: F M M 2
;
_chemical_formula_sum "Si O2"
_cell_formula_units_Z 96
_cell_length_a 22.873989
_cell_length_b 21.339881
_cell_length_c 9.509581
_cell_angle_alpha 90.000000
_cell_angle_beta 90.000000
_cell_angle_gamma 90.000000
_cell_volume 4641.894687
_symmetry_space_group_name_H-M "F M M 2"
_symmetry_group_IT_number 42
_symmetry_cell_setting 'orthorhombic'
loop_
_space_group_symop_operation_xyz
x,y,z
-x,-y,z
-x,y,z
x,-y,z
x,1/2+y,1/2+z
-x,1/2-y,1/2+z
-x,1/2+y,1/2+z
x,1/2-y,1/2+z
1/2+x,y,1/2+z
1/2-x,-y,1/2+z
1/2-x,y,1/2+z
1/2+x,-y,1/2+z
1/2+x,1/2+y,z
1/2-x,1/2-y,z
1/2-x,1/2+y,z
1/2+x,1/2-y,z
loop_
_atom_site_type_symbol
_atom_site_label
_atom_site_fract_x
_atom_site_fract_y
_atom_site_fract_z
Si Si1 0.433776 0.141390 0.394010
Si Si2 0.634736 0.860344 0.121697
Si Si3 0.191318 0.430344 0.894198
Si Si4 0.633941 0.362626 0.161474
Si Si5 0.249145 0.319450 0.520556
Si Si6 0.566000 0.789852 0.897117
O O1 0.500000 0.118060 0.368177
O O2 0.391196 0.117263 0.270191
O O3 0.411315 0.113903 0.542675
O O4 0.430184 0.215730 0.400935
O O5 0.644963 0.921517 0.022314
O O6 0.697701 0.824883 0.135128
O O7 0.588249 0.814331 0.047407
O O8 0.219009 0.500000 0.901106
O O9 0.240866 0.375405 0.905240
O O10 0.157951 0.423056 0.745512
O O11 0.686712 0.325897 0.090309
O O12 0.605124 0.314548 0.270240
O O13 0.250000 0.250000 0.450113
O O14 0.500000 0.813150 0.874145
#
# Coordination Sequence:
#
# PCOD8186140 Si02
#       6
#    16  16  16  16  16  16
#     4  11  21  34  57  91 127 161 204 262 321 367
#     4   9  21  36  60  87 122 164 207 257 301 379
#     4   9  23  44  62  87 121 174 215 244 307 391
#     4  11  23  35  60  91 127 158 201 264 313 377
#     4  10  21  36  62  95 125 153 202 259 318 365
#     4  10  19  35  56  86 128 172 205 242 308 388
#
# _framework density 20.68121
#
# number of rings (size 3 to 8) (size 9 to 14) (size 15 to 20)
#    1.000    1.000    0.000    4.000    2.333    4.000 
#    0.000    0.833    0.000   19.000    0.000    0.000 
#    0.000    0.000    0.000    0.000    0.000    0.000 
#
# Total GULP energy -297421.133324 kJ/mol
# GULP energy per Si atom -12392.547222 kJ/mol
# Density = 2.063414 g / cm^3
# Si number density = 20.681210 Si / 1000 Ang^3
#
#
#
# Elastic Constant Matrix: (Units=GPa)
#
#
# Indices 1 2 3 4 5 6 
#
# 1 104.5554 15.5833 13.9850 0.0005 0.0000 -0.0002
# 2 15.5833 98.8384 13.5472 0.0001 0.0001 -0.0002
# 3 13.9850 13.5472 94.8241 -0.0001 0.0003 -0.0004
# 4 0.0005 0.0001 -0.0001 6.2177 0.0003 0.0000
# 5 0.0000 0.0001 0.0003 0.0003 33.2726 0.0000
# 6 -0.0002 -0.0002 -0.0004 0.0000 0.0000 17.9206
#
#
#
# Elastic Compliance Matrix: (Units=1/GPa)
#
#
# Indices 1 2 3 4 5 6 
#
# 1 0.009942 -0.001394 -0.001267 -0.000001 0.000000 0.000000
# 2 -0.001394 0.010515 -0.001297 0.000000 0.000000 0.000000
# 3 -0.001267 -0.001297 0.010918 0.000000 0.000000 0.000000
# 4 -0.000001 0.000000 0.000000 0.160831 -0.000001 0.000000
# 5 0.000000 0.000000 0.000000 -0.000001 0.030055 0.000000
# 6 0.000000 0.000000 0.000000 0.000000 0.000000 0.055802
#
#
# Mechanical properties :
#
#
# Convention : Reuss Voigt Hill
#
# Bulk Modulus (GPa) = 42.62676 42.71653 42.67165
# Shear Modulus (GPa) = 17.01859 28.48903 22.75381
#
# Velocity S-wave (km/s) = 2.87174 3.71554 3.32055
# Velocity P-wave (km/s) = 5.62600 6.25352 5.94805
#
# Compressibility (1/GPa) = 0.02345944
#
# Stress axis : x y z
#
# Youngs Moduli (GPa) = 100.58823 95.10221 91.59217
#
# Poissons Ratio (x) = 0.13255 0.11606
# Poissons Ratio (y) = 0.14019 0.11877
# Poissons Ratio (z) = 0.12745 0.12332
#
# Static dielectric constant tensor:
#      x y z
#    x 3.914860 0.000000 0.000000 
#    y 0.000000 3.231800 0.000000 
#    z 0.000000 0.000000 3.823880 
# 
# 
# High freq. dielectric constant tensor:
#      x y z
#    x 1.814430 0.000000 0.000000 
#    y 0.000000 1.761920 0.000000 
#    z 0.000000 0.000000 1.810010 
# 
# From -- ./inp_files/4717.got.cif
#   From: 2010.03.12/outbox.cif.g09.slc.cpg/sg42_3_cif.got.tgz:4717.got - 2010.04.14 02:04:31.
