data_PCOD8186401
_publ_section_title
;
Structure prediction by ZEFSAII (Michael W. Deem and Ramdas Pophale) SiO2 
 PCOD8186401
Probable space group: F M M 2
;
_chemical_formula_sum "Si O2"
_cell_formula_units_Z 112
_cell_length_a 25.617002
_cell_length_b 15.140313
_cell_length_c 13.926639
_cell_angle_alpha 90.000000
_cell_angle_beta 90.000000
_cell_angle_gamma 90.000000
_cell_volume 5401.438976
_symmetry_space_group_name_H-M "F M M 2"
_symmetry_group_IT_number 42
_symmetry_cell_setting 'orthorhombic'
loop_
_space_group_symop_operation_xyz
x,y,z
-x,-y,z
-x,y,z
x,-y,z
x,1/2+y,1/2+z
-x,1/2-y,1/2+z
-x,1/2+y,1/2+z
x,1/2-y,1/2+z
1/2+x,y,1/2+z
1/2-x,-y,1/2+z
1/2-x,y,1/2+z
1/2+x,-y,1/2+z
1/2+x,1/2+y,z
1/2-x,1/2-y,z
1/2-x,1/2+y,z
1/2+x,1/2-y,z
loop_
_atom_site_type_symbol
_atom_site_label
_atom_site_fract_x
_atom_site_fract_y
_atom_site_fract_z
Si Si1 0.887149 0.163040 0.427420
Si Si2 0.205385 0.601647 0.812951
Si Si3 0.119627 0.850401 0.982419
Si Si4 0.681612 0.400596 0.808800
Si Si5 0.669890 0.098668 0.102796
Si Si6 0.437605 0.000000 0.601596
Si Si7 0.939187 0.500000 0.822839
Si Si8 0.277711 0.340541 0.105495
O O1 0.835039 0.168249 0.362874
O O2 0.910219 0.262552 0.441375
O O3 0.872980 0.142292 0.536211
O O4 0.924474 0.089907 0.379384
O O5 0.191093 0.500000 0.843243
O O6 0.262644 0.634883 0.847874
O O7 0.200197 0.609259 0.698412
O O8 0.135797 0.901918 0.886172
O O9 0.083252 0.911667 0.048478
O O10 0.173894 0.825098 0.034601
O O11 0.695436 0.500000 0.777087
O O12 0.666061 0.353392 0.708001
O O13 0.729555 0.102420 0.060662
O O14 0.650316 0.000000 0.109637
O O15 0.500000 0.000000 0.594852
O O16 0.417449 0.000000 0.712642
O O17 0.000000 0.500000 0.814200
O O18 0.250000 0.250000 0.135374
#
# Coordination Sequence:
#
# PCOD8186401 Si02
#       8
#    16  16  16  16  16   8   8  16
#     4  12  23  38  66  99 127 171 219 276 330 402
#     4  10  21  35  57  90 137 188 225 260 304 388
#     4  12  25  38  67  99 130 176 224 276 339 402
#     4   9  20  35  56  88 127 178 216 256 306 387
#     4  10  20  36  55  85 135 177 214 254 310 387
#     4  11  28  54  76  95 127 171 232 298 354 413
#     4  11  26  50  76  97 121 161 218 290 352 409
#     4  11  22  34  53  97 140 183 223 268 318 394
#
# _framework density 20.735215
#
# number of rings (size 3 to 8) (size 9 to 14) (size 15 to 20)
#    0.000    1.286    3.571    3.000    6.000    2.857 
#    0.000    0.000    0.000    1.714    0.000    0.000 
#    0.000    0.000    0.000    0.000    0.000    0.000 
#
# Total GULP energy -346869.644362 kJ/mol
# GULP energy per Si atom -12388.201584 kJ/mol
# Density = 2.068802 g / cm^3
# Si number density = 20.735215 Si / 1000 Ang^3
#
#
#
# Elastic Constant Matrix: (Units=GPa)
#
#
# Indices 1 2 3 4 5 6 
#
# 1 56.1284 25.4458 34.1883 0.0000 0.0000 0.0000
# 2 25.4458 109.7832 33.4863 0.0000 0.0000 0.0000
# 3 34.1883 33.4863 98.2777 0.0000 0.0000 0.0000
# 4 0.0000 0.0000 0.0000 25.8084 0.0000 0.0000
# 5 0.0000 0.0000 0.0000 0.0000 27.1125 0.0000
# 6 0.0000 0.0000 0.0000 0.0000 0.0000 21.5102
#
#
#
# Elastic Compliance Matrix: (Units=1/GPa)
#
#
# Indices 1 2 3 4 5 6 
#
# 1 0.023641 -0.003316 -0.007094 0.000000 0.000000 0.000000
# 2 -0.003316 0.010630 -0.002469 0.000000 0.000000 0.000000
# 3 -0.007094 -0.002469 0.013484 0.000000 0.000000 0.000000
# 4 0.000000 0.000000 0.000000 0.038747 0.000000 0.000000
# 5 0.000000 0.000000 0.000000 0.000000 0.036883 0.000000
# 6 0.000000 0.000000 0.000000 0.000000 0.000000 0.046490
#
#
# Mechanical properties :
#
#
# Convention : Reuss Voigt Hill
#
# Bulk Modulus (GPa) = 45.45816 50.04779 47.75298
# Shear Modulus (GPa) = 24.63479 26.29081 25.46280
#
# Velocity S-wave (km/s) = 3.45057 3.56466 3.50808
# Velocity P-wave (km/s) = 6.15191 6.41338 6.28401
#
# Compressibility (1/GPa) = 0.02199825
#
# Stress axis : x y z
#
# Youngs Moduli (GPa) = 42.30016 94.07021 74.16021
#
# Poissons Ratio (x) = 0.31190 0.52611
# Poissons Ratio (y) = 0.14025 0.18308
# Poissons Ratio (z) = 0.30009 0.23223
#
# Static dielectric constant tensor:
#      x y z
#    x 3.305710 0.000000 0.000000 
#    y 0.000000 3.854730 0.000000 
#    z 0.000000 0.000000 3.900320 
# 
# 
# High freq. dielectric constant tensor:
#      x y z
#    x 1.756490 0.000000 0.000000 
#    y 0.000000 1.819620 0.000000 
#    z 0.000000 0.000000 1.826860 
# 
# From -- ./inp_files/17097.got.cif
#   From: 2010.03.12/outbox.cif.g09.slc.cpg/sg42_9_cif.got.tgz:17097.got - 2010.04.14 02:04:31.
