data_PCOD8186882
_publ_section_title
;
Structure prediction by ZEFSAII (Michael W. Deem and Ramdas Pophale) SiO2 
 PCOD8186882
Probable space group: F M M 2
;
_chemical_formula_sum "Si O2"
_cell_formula_units_Z 64
_cell_length_a 14.423541
_cell_length_b 21.432803
_cell_length_c 7.000478
_cell_angle_alpha 90.000000
_cell_angle_beta 90.000000
_cell_angle_gamma 90.000000
_cell_volume 2164.106157
_symmetry_space_group_name_H-M "F M M 2"
_symmetry_group_IT_number 42
_symmetry_cell_setting 'orthorhombic'
loop_
_space_group_symop_operation_xyz
x,y,z
-x,-y,z
-x,y,z
x,-y,z
x,1/2+y,1/2+z
-x,1/2-y,1/2+z
-x,1/2+y,1/2+z
x,1/2-y,1/2+z
1/2+x,y,1/2+z
1/2-x,-y,1/2+z
1/2-x,y,1/2+z
1/2+x,-y,1/2+z
1/2+x,1/2+y,z
1/2-x,1/2-y,z
1/2-x,1/2+y,z
1/2+x,1/2-y,z
loop_
_atom_site_type_symbol
_atom_site_label
_atom_site_fract_x
_atom_site_fract_y
_atom_site_fract_z
Si Si1 0.643909 0.746260 0.358190
Si Si2 0.891694 0.365291 0.642252
Si Si3 0.598898 0.140187 0.134940
Si Si4 0.757639 0.572724 0.349415
O O1 0.750000 0.750000 0.415058
O O2 0.633344 0.710020 0.143783
O O3 0.603314 0.817077 0.335450
O O4 0.589243 0.695363 0.480660
O O5 0.838934 0.410123 0.495736
O O6 0.842114 0.389944 0.846187
O O7 0.000000 0.381304 0.647713
O O8 0.500000 0.103805 0.140264
O O9 0.689652 0.093868 0.145294
O O10 0.738441 0.500000 0.343866
#
# Coordination Sequence:
#
# PCOD8186882 Si02
#       4
#    16  16  16  16
#     4  12  25  46  75 112 155 196 254 324 398 465
#     4  12  27  51  82 116 155 206 262 323 395 461
#     4  12  25  44  75 114 156 203 258 320 392 467
#     4  12  28  50  79 114 156 210 266 321 381 462
#
# _framework density 29.573409000000002
#
# number of rings (size 3 to 8) (size 9 to 14) (size 15 to 20)
#    0.000    0.000    2.500    7.500    0.000    3.500 
#    0.000    2.500    0.000   12.000    0.000    0.000 
#    0.000    0.000    0.000    0.000    0.000    0.000 
#
# Total GULP energy -198326.974270 kJ/mol
# GULP energy per Si atom -12395.435892 kJ/mol
# Density = 2.950610 g / cm^3
# Si number density = 29.573409 Si / 1000 Ang^3
#
#
#
# Elastic Constant Matrix: (Units=GPa)
#
#
# Indices 1 2 3 4 5 6 
#
# 1 320.2305 81.0929 20.0865 0.0000 0.0001 0.0000
# 2 81.0929 211.7349 3.3148 0.0000 0.0000 0.0000
# 3 20.0865 3.3148 56.9363 0.0000 0.0003 0.0001
# 4 0.0000 0.0000 0.0000 32.0860 0.0000 0.0000
# 5 0.0001 0.0000 0.0003 0.0000 33.0311 -0.0001
# 6 0.0000 0.0000 0.0001 0.0000 -0.0001 27.4066
#
#
#
# Elastic Compliance Matrix: (Units=1/GPa)
#
#
# Indices 1 2 3 4 5 6 
#
# 1 0.003534 -0.001335 -0.001169 0.000000 0.000000 0.000000
# 2 -0.001335 0.005232 0.000166 0.000000 0.000000 0.000000
# 3 -0.001169 0.000166 0.017966 0.000000 0.000000 0.000000
# 4 0.000000 0.000000 0.000000 0.031166 0.000000 0.000000
# 5 0.000000 0.000000 0.000000 0.000000 0.030274 0.000000
# 6 0.000000 0.000000 0.000000 0.000000 0.000000 0.036488
#
#
# Mechanical properties :
#
#
# Convention : Reuss Voigt Hill
#
# Bulk Modulus (GPa) = 45.33836 88.65443 66.99640
# Shear Modulus (GPa) = 36.57958 50.79859 43.68908
#
# Velocity S-wave (km/s) = 3.52079 4.14902 3.84775
# Velocity P-wave (km/s) = 5.64730 7.27979 6.51488
#
# Compressibility (1/GPa) = 0.02205638
#
# Stress axis : x y z
#
# Youngs Moduli (GPa) = 282.94797 191.14314 55.65994
#
# Poissons Ratio (x) = 0.25523 0.06507
# Poissons Ratio (y) = 0.37781 -0.00927
# Poissons Ratio (z) = 0.33079 -0.03182
#
# Static dielectric constant tensor:
#      x y z
#    x 5.283490 0.000000 0.000000 
#    y 0.000000 5.182080 0.000000 
#    z 0.000000 0.000000 10.689540 
# 
# 
# High freq. dielectric constant tensor:
#      x y z
#    x 2.202770 0.000000 0.000000 
#    y 0.000000 2.173200 0.000000 
#    z 0.000000 0.000000 2.339720 
# 
# From -- ./inp_files/2684.got.cif
#   From: 2010.03.12/outbox.cif.g09.slc.cpg/sg42_2_cif.got.tgz:2684.got - 2010.04.14 02:04:31.
