data_PCOD8186381
_publ_section_title
;
Structure prediction by ZEFSAII (Michael W. Deem and Ramdas Pophale) SiO2 
 PCOD8186381
Probable space group: F M M 2
;
_chemical_formula_sum "Si O2"
_cell_formula_units_Z 112
_cell_length_a 29.292099
_cell_length_b 14.075933
_cell_length_c 14.006069
_cell_angle_alpha 90.000000
_cell_angle_beta 90.000000
_cell_angle_gamma 90.000000
_cell_volume 5774.893053
_symmetry_space_group_name_H-M "F M M 2"
_symmetry_group_IT_number 42
_symmetry_cell_setting 'orthorhombic'
loop_
_space_group_symop_operation_xyz
x,y,z
-x,-y,z
-x,y,z
x,-y,z
x,1/2+y,1/2+z
-x,1/2-y,1/2+z
-x,1/2+y,1/2+z
x,1/2-y,1/2+z
1/2+x,y,1/2+z
1/2-x,-y,1/2+z
1/2-x,y,1/2+z
1/2+x,-y,1/2+z
1/2+x,1/2+y,z
1/2-x,1/2-y,z
1/2-x,1/2+y,z
1/2+x,1/2-y,z
loop_
_atom_site_type_symbol
_atom_site_label
_atom_site_fract_x
_atom_site_fract_y
_atom_site_fract_z
Si Si1 0.815715 0.102204 0.812920
Si Si2 0.230584 0.851327 0.195987
Si Si3 0.675093 0.103278 0.522410
Si Si4 0.500000 0.889612 0.838603
Si Si5 0.000000 0.114433 0.122583
Si Si6 0.590912 0.216622 0.594338
Si Si7 0.088428 0.385528 0.957420
Si Si8 0.360721 0.705462 0.286914
O O1 0.770250 0.093054 0.749815
O O2 0.851858 0.181915 0.785297
O O3 0.840742 0.000000 0.803974
O O4 0.800694 0.123477 0.921499
O O5 0.250000 0.750000 0.169643
O O6 0.216820 0.898159 0.096546
O O7 0.185464 0.849115 0.260502
O O8 0.635053 0.178318 0.538828
O O9 0.651423 0.000000 0.524746
O O10 0.500000 0.846331 0.731873
O O11 0.542908 0.859070 0.900898
O O12 0.500000 0.000000 0.820153
O O13 0.955261 0.158371 0.070287
O O14 0.000000 0.000000 0.112716
O O15 0.587270 0.327148 0.558183
O O16 0.599710 0.198205 0.707062
O O17 0.094258 0.500000 0.975542
O O18 0.127040 0.342765 0.887650
#
# Coordination Sequence:
#
# PCOD8186381 Si02
#       8
#    16  16  16   8   8  16  16  16
#     4  10  20  37  57  80 116 157 195 244 302 357
#     4   9  20  35  55  81 112 152 196 247 294 352
#     4  10  20  35  58  84 115 153 193 241 299 355
#     4   9  19  36  60  88 116 152 198 243 289 347
#     4  11  21  36  63  94 120 156 199 245 300 355
#     4  11  22  38  61  91 123 152 196 250 298 355
#     4  11  22  39  62  89 120 159 201 245 297 357
#     4  10  21  38  58  85 118 154 196 247 300 358
#
# _framework density 19.394299
#
# number of rings (size 3 to 8) (size 9 to 14) (size 15 to 20)
#    0.000    1.857    2.857    1.286    0.000    5.143 
#    2.571    0.000    0.000    0.000    0.000    0.000 
#    0.000    0.000    0.000    0.000    0.000    0.000 
#
# Total GULP energy -346882.653552 kJ/mol
# GULP energy per Si atom -12388.666198 kJ/mol
# Density = 1.935016 g / cm^3
# Si number density = 19.394299 Si / 1000 Ang^3
#
#
#
# Elastic Constant Matrix: (Units=GPa)
#
#
# Indices 1 2 3 4 5 6 
#
# 1 86.4001 30.2844 19.3084 0.0000 0.0000 0.0000
# 2 30.2844 90.1829 25.8007 0.0000 0.0000 0.0000
# 3 19.3084 25.8007 61.0955 0.0000 0.0000 0.0000
# 4 0.0000 0.0000 0.0000 22.6313 0.0000 0.0000
# 5 0.0000 0.0000 0.0000 0.0000 22.9044 0.0000
# 6 0.0000 0.0000 0.0000 0.0000 0.0000 56.8688
#
#
#
# Elastic Compliance Matrix: (Units=1/GPa)
#
#
# Indices 1 2 3 4 5 6 
#
# 1 0.013491 -0.003766 -0.002674 0.000000 0.000000 0.000000
# 2 -0.003766 0.013663 -0.004580 0.000000 0.000000 0.000000
# 3 -0.002674 -0.004580 0.019147 0.000000 0.000000 0.000000
# 4 0.000000 0.000000 0.000000 0.044187 0.000000 0.000000
# 5 0.000000 0.000000 0.000000 0.000000 0.043660 0.000000
# 6 0.000000 0.000000 0.000000 0.000000 0.000000 0.017584
#
#
# Mechanical properties :
#
#
# Convention : Reuss Voigt Hill
#
# Bulk Modulus (GPa) = 41.21441 43.16282 42.18861
# Shear Modulus (GPa) = 27.49389 31.29991 29.39690
#
# Velocity S-wave (km/s) = 3.76922 4.02166 3.89749
# Velocity P-wave (km/s) = 6.34347 6.62335 6.48492
#
# Compressibility (1/GPa) = 0.02426336
#
# Stress axis : x y z
#
# Youngs Moduli (GPa) = 74.12098 73.18800 52.22784
#
# Poissons Ratio (x) = 0.27560 0.13963
# Poissons Ratio (y) = 0.27912 0.23920
# Poissons Ratio (z) = 0.19816 0.33520
#
# Static dielectric constant tensor:
#      x y z
#    x 3.410070 0.000000 0.000000 
#    y 0.000000 3.540620 0.000000 
#    z 0.000000 0.000000 3.579180 
# 
# 
# High freq. dielectric constant tensor:
#      x y z
#    x 1.747280 0.000000 0.000000 
#    y 0.000000 1.758310 0.000000 
#    z 0.000000 0.000000 1.751610 
# 
# From -- ./inp_files/17089.got.cif
#   From: 2010.03.12/outbox.cif.g09.slc.cpg/sg42_9_cif.got.tgz:17089.got - 2010.04.14 02:04:31.
