data_PCOD8186486
_publ_section_title
;
Structure prediction by ZEFSAII (Michael W. Deem and Ramdas Pophale) SiO2 
 PCOD8186486
Probable space group: F M M 2
;
_chemical_formula_sum "Si O2"
_cell_formula_units_Z 96
_cell_length_a 16.125099
_cell_length_b 10.742754
_cell_length_c 28.739189
_cell_angle_alpha 90.000000
_cell_angle_beta 90.000000
_cell_angle_gamma 90.000000
_cell_volume 4978.431421
_symmetry_space_group_name_H-M "F M M 2"
_symmetry_group_IT_number 42
_symmetry_cell_setting 'orthorhombic'
loop_
_space_group_symop_operation_xyz
x,y,z
-x,-y,z
-x,y,z
x,-y,z
x,1/2+y,1/2+z
-x,1/2-y,1/2+z
-x,1/2+y,1/2+z
x,1/2-y,1/2+z
1/2+x,y,1/2+z
1/2-x,-y,1/2+z
1/2-x,y,1/2+z
1/2+x,-y,1/2+z
1/2+x,1/2+y,z
1/2-x,1/2-y,z
1/2-x,1/2+y,z
1/2+x,1/2-y,z
loop_
_atom_site_type_symbol
_atom_site_label
_atom_site_fract_x
_atom_site_fract_y
_atom_site_fract_z
Si Si1 0.903856 0.000000 0.375000
Si Si2 0.905107 0.500000 0.068624
Si Si3 0.906126 0.140180 0.909869
Si Si4 0.180517 0.000000 0.475616
Si Si5 0.846521 0.245288 0.325504
Si Si6 0.250000 0.250000 0.957479
Si Si7 0.096222 0.143230 0.733421
Si Si8 0.689349 0.637460 0.639630
O O1 0.883548 0.884703 0.342176
O O2 0.850145 0.000000 0.422381
O O3 0.000000 0.000000 0.389422
O O4 0.867010 0.376676 0.093266
O O5 0.000000 0.500000 0.080367
O O6 0.892831 0.500000 0.013142
O O7 0.895282 0.146670 0.854006
O O8 0.836661 0.234659 0.929265
O O9 0.000000 0.181868 0.924054
O O10 0.889872 0.000000 0.927129
O O11 0.236795 0.877324 0.486188
O O12 0.750000 0.250000 0.337327
O O13 0.860872 0.266961 0.270993
O O14 0.134304 0.176142 0.683615
O O15 0.000000 0.174541 0.731026
O O16 0.112698 0.000000 0.746761
O O17 0.731988 0.500000 0.648858
O O18 0.750000 0.750000 0.628858
#
# Coordination Sequence:
#
# PCOD8186486 Si02
#       8
#     8   8  16   8  16   8  16  16
#     4  12  25  40  55  84 128 168 210 265 315 374
#     4  10  23  42  73 100 126 166 216 266 321 387
#     4  11  22  38  60  86 122 170 216 263 320 379
#     4  12  25  40  69  92 128 168 222 259 328 379
#     4  12  24  36  57  83 124 166 216 263 316 376
#     4  12  24  42  64  94 128 168 212 276 322 378
#     4  10  20  37  62  88 120 165 214 257 309 383
#     4   9  20  39  67  97 129 159 204 264 324 380
#
# _framework density 19.283183000000001
#
# number of rings (size 3 to 8) (size 9 to 14) (size 15 to 20)
#    0.500    0.667    3.333    3.250    3.500    2.000 
#    1.500    0.000    0.000    1.500    0.000    0.000 
#    0.000    0.000    0.000    0.000    0.000    0.000 
#
# Total GULP energy -297415.411809 kJ/mol
# GULP energy per Si atom -12392.308825 kJ/mol
# Density = 1.923929 g / cm^3
# Si number density = 19.283183 Si / 1000 Ang^3
#
#
#
# Elastic Constant Matrix: (Units=GPa)
#
#
# Indices 1 2 3 4 5 6 
#
# 1 125.7472 57.9439 24.8830 0.0000 0.0000 0.0000
# 2 57.9439 113.1199 34.6856 0.0000 0.0000 0.0000
# 3 24.8830 34.6856 86.5039 0.0000 0.0000 0.0000
# 4 0.0000 0.0000 0.0000 16.0779 0.0000 0.0000
# 5 0.0000 0.0000 0.0000 0.0000 28.1987 0.0000
# 6 0.0000 0.0000 0.0000 0.0000 0.0000 30.2154
#
#
#
# Elastic Compliance Matrix: (Units=1/GPa)
#
#
# Indices 1 2 3 4 5 6 
#
# 1 0.010482 -0.005068 -0.000983 0.000000 0.000000 0.000000
# 2 -0.005068 0.012530 -0.003566 0.000000 0.000000 0.000000
# 3 -0.000983 -0.003566 0.013273 0.000000 0.000000 0.000000
# 4 0.000000 0.000000 0.000000 0.062197 0.000000 0.000000
# 5 0.000000 0.000000 0.000000 0.000000 0.035463 0.000000
# 6 0.000000 0.000000 0.000000 0.000000 0.000000 0.033096
#
#
# Mechanical properties :
#
#
# Convention : Reuss Voigt Hill
#
# Bulk Modulus (GPa) = 58.65018 62.26622 60.45820
# Shear Modulus (GPa) = 26.04732 28.75564 27.40148
#
# Velocity S-wave (km/s) = 3.67928 3.86583 3.77371
# Velocity P-wave (km/s) = 6.96640 7.23096 7.09991
#
# Compressibility (1/GPa) = 0.01705025
#
# Stress axis : x y z
#
# Youngs Moduli (GPa) = 95.39893 79.81067 75.34126
#
# Poissons Ratio (x) = 0.40448 0.07407
# Poissons Ratio (y) = 0.48348 0.26868
# Poissons Ratio (z) = 0.09379 0.28462
#
# Static dielectric constant tensor:
#      x y z
#    x 3.581670 0.000000 0.000000 
#    y 0.000000 3.526560 0.000000 
#    z 0.000000 0.000000 3.352830 
# 
# 
# High freq. dielectric constant tensor:
#      x y z
#    x 1.752760 0.000000 0.000000 
#    y 0.000000 1.751350 0.000000 
#    z 0.000000 0.000000 1.733460 
# 
# From -- ./inp_files/34299.got.cif
#   From: 2010.03.12/outbox.cif.g09.slc.cpg/sg42_18_cif.got.tgz:34299.got - 2010.04.14 02:04:31.
