data_PCOD8186200
_publ_section_title
;
Structure prediction by ZEFSAII (Michael W. Deem and Ramdas Pophale) SiO2 
 PCOD8186200
Probable space group: F M M 2
;
_chemical_formula_sum "Si O2"
_cell_formula_units_Z 88
_cell_length_a 12.615222
_cell_length_b 17.930023
_cell_length_c 18.984184
_cell_angle_alpha 90.000000
_cell_angle_beta 90.000000
_cell_angle_gamma 90.000000
_cell_volume 4294.055751
_symmetry_space_group_name_H-M "F M M 2"
_symmetry_group_IT_number 42
_symmetry_cell_setting 'orthorhombic'
loop_
_space_group_symop_operation_xyz
x,y,z
-x,-y,z
-x,y,z
x,-y,z
x,1/2+y,1/2+z
-x,1/2-y,1/2+z
-x,1/2+y,1/2+z
x,1/2-y,1/2+z
1/2+x,y,1/2+z
1/2-x,-y,1/2+z
1/2-x,y,1/2+z
1/2+x,-y,1/2+z
1/2+x,1/2+y,z
1/2-x,1/2-y,z
1/2-x,1/2+y,z
1/2+x,1/2-y,z
loop_
_atom_site_type_symbol
_atom_site_label
_atom_site_fract_x
_atom_site_fract_y
_atom_site_fract_z
Si Si1 0.622673 0.086643 0.872450
Si Si2 0.500000 0.327216 0.996647
Si Si3 0.500000 0.819618 0.069587
Si Si4 0.313104 0.415562 0.616408
Si Si5 0.708605 0.666532 0.238088
Si Si6 0.000000 0.819230 0.152129
Si Si7 0.802506 0.083520 0.980301
O O1 0.500000 0.114067 0.882485
O O2 0.687609 0.131302 0.813662
O O3 0.621918 0.000000 0.851529
O O4 0.689755 0.101621 0.943311
O O5 0.500000 0.236323 0.000932
O O6 0.500000 0.360454 0.076277
O O7 0.605636 0.357923 0.957489
O O8 0.398420 0.871255 0.070688
O O9 0.500000 0.769857 0.140506
O O10 0.351632 0.500000 0.628632
O O11 0.294558 0.379506 0.692894
O O12 0.211280 0.411976 0.565068
O O13 0.750000 0.750000 0.247897
O O14 0.601091 0.658023 0.195875
O O15 0.839094 0.000000 0.958880
#
# Coordination Sequence:
#
# PCOD8186200 Si02
#       7
#    16   8   8  16  16   8  16
#     4  10  23  43  64  90 128 170 214 262 318 382
#     4  10  19  39  64  93 122 162 203 262 325 361
#     4  10  21  37  58  92 130 164 200 255 318 374
#     4  11  22  37  62  92 125 167 208 255 315 380
#     4  12  21  41  63  92 127 160 210 266 317 372
#     4  10  20  36  62  89 122 154 197 263 319 359
#     4  10  22  39  61  92 125 163 208 260 316 377
#
# _framework density 20.493447
#
# number of rings (size 3 to 8) (size 9 to 14) (size 15 to 20)
#    0.545    0.909    4.545    1.091    1.273    0.000 
#    3.273    1.818    0.000    2.182    0.000    0.000 
#    0.000    0.000    0.000    0.000    0.000    0.000 
#
# Total GULP energy -272640.018612 kJ/mol
# GULP energy per Si atom -12392.728119 kJ/mol
# Density = 2.044680 g / cm^3
# Si number density = 20.493447 Si / 1000 Ang^3
#
#
#
# Elastic Constant Matrix: (Units=GPa)
#
#
# Indices 1 2 3 4 5 6 
#
# 1 117.1454 57.7345 26.0465 0.0000 0.0000 0.0000
# 2 57.7345 130.1076 36.4310 0.0000 0.0000 0.0000
# 3 26.0465 36.4310 77.8734 0.0000 0.0000 0.0000
# 4 0.0000 0.0000 0.0000 31.1903 0.0000 0.0000
# 5 0.0000 0.0000 0.0000 0.0000 21.5931 0.0000
# 6 0.0000 0.0000 0.0000 0.0000 0.0000 8.6927
#
#
#
# Elastic Compliance Matrix: (Units=1/GPa)
#
#
# Indices 1 2 3 4 5 6 
#
# 1 0.011101 -0.004472 -0.001621 0.000000 0.000000 0.000000
# 2 -0.004472 0.010646 -0.003485 0.000000 0.000000 0.000000
# 3 -0.001621 -0.003485 0.015014 0.000000 0.000000 0.000000
# 4 0.000000 0.000000 0.000000 0.032061 0.000000 0.000000
# 5 0.000000 0.000000 0.000000 0.000000 0.046311 0.000000
# 6 0.000000 0.000000 0.000000 0.000000 0.000000 0.115040
#
#
# Mechanical properties :
#
#
# Convention : Reuss Voigt Hill
#
# Bulk Modulus (GPa) = 56.80047 62.83893 59.81970
# Shear Modulus (GPa) = 19.59275 25.95616 22.77446
#
# Velocity S-wave (km/s) = 3.09536 3.56274 3.33724
# Velocity P-wave (km/s) = 6.36801 6.90316 6.64098
#
# Compressibility (1/GPa) = 0.01760549
#
# Stress axis : x y z
#
# Youngs Moduli (GPa) = 90.08341 93.93058 66.60582
#
# Poissons Ratio (x) = 0.42007 0.10795
# Poissons Ratio (y) = 0.40286 0.23210
# Poissons Ratio (z) = 0.14600 0.32732
#
# Static dielectric constant tensor:
#      x y z
#    x 3.924460 0.000000 0.000000 
#    y 0.000000 3.666520 0.000000 
#    z 0.000000 0.000000 3.448450 
# 
# 
# High freq. dielectric constant tensor:
#      x y z
#    x 1.802570 0.000000 0.000000 
#    y 0.000000 1.801130 0.000000 
#    z 0.000000 0.000000 1.781740 
# 
# From -- ./inp_files/24346.got.cif
#   From: 2010.03.12/outbox.cif.g09.slc.cpg/sg42_13_cif.got.tgz:24346.got - 2010.04.14 02:04:31.
