data_PCOD8186583
_publ_section_title
;
Structure prediction by ZEFSAII (Michael W. Deem and Ramdas Pophale) SiO2 
 PCOD8186583
Probable space group: F M M 2
;
_chemical_formula_sum "Si O2"
_cell_formula_units_Z 128
_cell_length_a 19.125125
_cell_length_b 18.760739
_cell_length_c 19.595946
_cell_angle_alpha 90.000000
_cell_angle_beta 90.000000
_cell_angle_gamma 90.000000
_cell_volume 7031.054397
_symmetry_space_group_name_H-M "F M M 2"
_symmetry_group_IT_number 42
_symmetry_cell_setting 'orthorhombic'
loop_
_space_group_symop_operation_xyz
x,y,z
-x,-y,z
-x,y,z
x,-y,z
x,1/2+y,1/2+z
-x,1/2-y,1/2+z
-x,1/2+y,1/2+z
x,1/2-y,1/2+z
1/2+x,y,1/2+z
1/2-x,-y,1/2+z
1/2-x,y,1/2+z
1/2+x,-y,1/2+z
1/2+x,1/2+y,z
1/2-x,1/2-y,z
1/2-x,1/2+y,z
1/2+x,1/2-y,z
loop_
_atom_site_type_symbol
_atom_site_label
_atom_site_fract_x
_atom_site_fract_y
_atom_site_fract_z
Si Si1 0.790869 0.821795 0.411820
Si Si2 0.811149 0.583234 0.781309
Si Si3 0.798139 0.419183 0.163809
Si Si4 0.077921 0.276017 0.991829
Si Si5 0.273132 0.078692 0.523585
Si Si6 0.580921 0.684192 0.643909
Si Si7 0.423371 0.383377 0.040988
Si Si8 0.921916 0.162107 0.192849
O O1 0.750000 0.750000 0.391011
O O2 0.791711 0.877600 0.350797
O O3 0.869404 0.802207 0.433802
O O4 0.751983 0.859942 0.473788
O O5 0.827554 0.500000 0.795084
O O6 0.746047 0.592693 0.731547
O O7 0.877953 0.621445 0.749420
O O8 0.821769 0.500000 0.154996
O O9 0.869369 0.376028 0.173963
O O10 0.750910 0.396105 0.098996
O O11 0.091871 0.316637 0.062602
O O12 0.085981 0.192859 0.006075
O O13 0.000000 0.293330 0.965091
O O14 0.357383 0.069840 0.518320
O O15 0.242418 0.000000 0.505873
O O16 0.500000 0.668437 0.661826
O O17 0.605805 0.758152 0.678037
O O18 0.500000 0.415195 0.019523
O O19 0.421213 0.380701 0.122511
O O20 0.000000 0.166302 0.222296
#
# Coordination Sequence:
#
# PCOD8186583 Si02
#       8
#    16  16  16  16  16  16  16  16
#     4  12  24  38  59  86 110 156 199 235 284 344
#     4  11  25  41  55  82 123 155 186 236 293 345
#     4  10  21  36  58  84 113 152 193 236 289 342
#     4   9  18  35  57  84 116 145 184 237 286 335
#     4  11  21  36  58  87 116 147 190 239 286 340
#     4   9  18  34  59  89 115 141 186 245 288 335
#     4   9  17  33  57  87 116 143 182 235 288 336
#     4   9  19  35  59  86 112 147 189 232 284 342
#
# _framework density 18.204951000000001
#
# number of rings (size 3 to 8) (size 9 to 14) (size 15 to 20)
#    0.000    2.000    3.750    1.875    1.750    1.250 
#    0.000    1.250    0.000    1.875    0.000    1.750 
#    0.000    0.000    0.000    0.000    0.000    0.000 
#
# Total GULP energy -396697.827126 kJ/mol
# GULP energy per Si atom -12396.807098 kJ/mol
# Density = 1.816352 g / cm^3
# Si number density = 18.204951 Si / 1000 Ang^3
#
#
#
# Elastic Constant Matrix: (Units=GPa)
#
#
# Indices 1 2 3 4 5 6 
#
# 1 110.8562 49.4023 37.5923 0.0000 0.0000 0.0000
# 2 49.4023 83.1847 46.4072 0.0000 0.0000 0.0000
# 3 37.5923 46.4072 85.1631 0.0000 0.0000 0.0000
# 4 0.0000 0.0000 0.0000 27.2740 0.0000 0.0000
# 5 0.0000 0.0000 0.0000 0.0000 18.1810 0.0000
# 6 0.0000 0.0000 0.0000 0.0000 0.0000 31.6647
#
#
#
# Elastic Compliance Matrix: (Units=1/GPa)
#
#
# Indices 1 2 3 4 5 6 
#
# 1 0.012528 -0.006258 -0.002120 0.000000 0.000000 0.000000
# 2 -0.006258 0.020398 -0.008353 0.000000 0.000000 0.000000
# 3 -0.002120 -0.008353 0.017230 0.000000 0.000000 0.000000
# 4 0.000000 0.000000 0.000000 0.036665 0.000000 0.000000
# 5 0.000000 0.000000 0.000000 0.000000 0.055002 0.000000
# 6 0.000000 0.000000 0.000000 0.000000 0.000000 0.031581
#
#
# Mechanical properties :
#
#
# Convention : Reuss Voigt Hill
#
# Bulk Modulus (GPa) = 59.90109 60.66753 60.28431
# Shear Modulus (GPa) = 23.53712 25.14409 24.34061
#
# Velocity S-wave (km/s) = 3.59959 3.72044 3.66051
# Velocity P-wave (km/s) = 7.08881 7.20088 7.14506
#
# Compressibility (1/GPa) = 0.01669419
#
# Stress axis : x y z
#
# Youngs Moduli (GPa) = 79.81905 49.02527 58.03883
#
# Poissons Ratio (x) = 0.30678 0.12306
# Poissons Ratio (y) = 0.49947 0.48480
# Poissons Ratio (z) = 0.16924 0.40951
#
# Static dielectric constant tensor:
#      x y z
#    x 3.471700 0.000000 0.000000 
#    y 0.000000 3.294870 0.000000 
#    z 0.000000 0.000000 3.126480 
# 
# 
# High freq. dielectric constant tensor:
#      x y z
#    x 1.714880 0.000000 0.000000 
#    y 0.000000 1.705010 0.000000 
#    z 0.000000 0.000000 1.680670 
# 
# From -- ./inp_files/26614.got.cif
#   From: 2010.03.12/outbox.cif.g09.slc.cpg/sg42_14_cif.got.tgz:26614.got - 2010.04.14 02:04:31.
