data_PCOD8186648
_publ_section_title
;
Structure prediction by ZEFSAII (Michael W. Deem and Ramdas Pophale) SiO2 
 PCOD8186648
Probable space group: F M M 2
;
_chemical_formula_sum "Si O2"
_cell_formula_units_Z 88
_cell_length_a 11.806427
_cell_length_b 13.643634
_cell_length_c 24.031755
_cell_angle_alpha 90.000000
_cell_angle_beta 90.000000
_cell_angle_gamma 90.000000
_cell_volume 3871.096829
_symmetry_space_group_name_H-M "F M M 2"
_symmetry_group_IT_number 42
_symmetry_cell_setting 'orthorhombic'
loop_
_space_group_symop_operation_xyz
x,y,z
-x,-y,z
-x,y,z
x,-y,z
x,1/2+y,1/2+z
-x,1/2-y,1/2+z
-x,1/2+y,1/2+z
x,1/2-y,1/2+z
1/2+x,y,1/2+z
1/2-x,-y,1/2+z
1/2-x,y,1/2+z
1/2+x,-y,1/2+z
1/2+x,1/2+y,z
1/2-x,1/2-y,z
1/2-x,1/2+y,z
1/2+x,1/2-y,z
loop_
_atom_site_type_symbol
_atom_site_label
_atom_site_fract_x
_atom_site_fract_y
_atom_site_fract_z
Si Si1 0.750000 0.750000 0.552601
Si Si2 0.756982 0.385476 0.647517
Si Si3 0.869284 0.886126 0.968423
Si Si4 0.000000 0.115291 0.190217
Si Si5 0.000000 0.883112 0.316399
Si Si6 0.263111 0.615163 0.359065
Si Si7 0.626233 0.883167 0.255650
O O1 0.699932 0.666940 0.594050
O O2 0.844651 0.692425 0.516935
O O3 0.741482 0.500000 0.638609
O O4 0.691472 0.346359 0.701370
O O5 0.888811 0.354653 0.655160
O O6 0.787895 0.853037 0.918089
O O7 0.000000 0.876803 0.950424
O O8 0.844625 0.000000 0.986381
O O9 0.000000 0.159645 0.253170
O O10 0.000000 0.000000 0.198773
O O11 0.109047 0.845823 0.351137
O O12 0.000000 0.000000 0.313412
O O13 0.259532 0.500000 0.353378
O O14 0.186365 0.660872 0.310224
O O15 0.500000 0.840798 0.253776
O O16 0.626821 0.000000 0.257610
#
# Coordination Sequence:
#
# PCOD8186648 Si02
#       7
#     8  16  16   8   8  16  16
#     4  12  26  42  62  92 126 166 230 276 320 366
#     4  10  21  38  62  92 126 166 210 265 328 387
#     4  10  23  45  70  94 126 173 225 273 324 386
#     4   9  16  32  61  96 127 161 208 260 321 393
#     4   9  14  26  57  96 130 161 202 258 324 397
#     4   9  16  31  59  95 126 160 207 261 325 392
#     4   9  16  29  55  89 123 159 201 254 323 396
#
# _framework density 22.732575000000001
#
# number of rings (size 3 to 8) (size 9 to 14) (size 15 to 20)
#    0.000    2.364    1.818    1.091    1.273    2.909 
#    1.636    0.909    0.000    1.091    0.000    0.000 
#    0.000    0.000    0.000    0.000    0.000    0.000 
#
# Total GULP energy -272653.684613 kJ/mol
# GULP energy per Si atom -12393.349301 kJ/mol
# Density = 2.268084 g / cm^3
# Si number density = 22.732575 Si / 1000 Ang^3
#
#
#
# Elastic Constant Matrix: (Units=GPa)
#
#
# Indices 1 2 3 4 5 6 
#
# 1 162.6083 35.1230 80.3580 0.0000 0.0000 0.0000
# 2 35.1230 85.1507 46.8730 0.0000 0.0000 0.0000
# 3 80.3580 46.8730 164.9328 0.0000 0.0000 0.0000
# 4 0.0000 0.0000 0.0000 -46.2983 0.0000 0.0000
# 5 0.0000 0.0000 0.0000 0.0000 12.0185 0.0000
# 6 0.0000 0.0000 0.0000 0.0000 0.0000 10.1657
#
#
#
# Elastic Compliance Matrix: (Units=1/GPa)
#
#
# Indices 1 2 3 4 5 6 
#
# 1 0.008240 -0.001409 -0.003614 0.000000 0.000000 0.000000
# 2 -0.001409 0.014163 -0.003338 0.000000 0.000000 0.000000
# 3 -0.003614 -0.003338 0.008773 0.000000 0.000000 0.000000
# 4 0.000000 0.000000 0.000000 -0.021599 0.000000 0.000000
# 5 0.000000 0.000000 0.000000 0.000000 0.083205 0.000000
# 6 0.000000 0.000000 0.000000 0.000000 0.000000 0.098370
#
#
# Mechanical properties :
#
#
# Convention : Reuss Voigt Hill
#
# Bulk Modulus (GPa) = 69.19497 81.93331 75.56414
# Shear Modulus (GPa) = 23.50800 11.86637 17.68719
#
# Velocity S-wave (km/s) = 3.21925 2.28721 2.79239
# Velocity P-wave (km/s) = 6.65754 6.56472 6.61129
#
# Compressibility (1/GPa) = 0.01445192
#
# Stress axis : x y z
#
# Youngs Moduli (GPa) = 121.35519 70.60706 113.98957
#
# Poissons Ratio (x) = 0.09951 0.41199
# Poissons Ratio (y) = 0.17104 0.38053
# Poissons Ratio (z) = 0.43861 0.23571
#
# Static dielectric constant tensor:
#      x y z
#    x 4.298600 0.000000 0.000000 
#    y 0.000000 3.991920 0.000000 
#    z 0.000000 0.000000 4.153440 
# 
# 
# High freq. dielectric constant tensor:
#      x y z
#    x 1.886470 0.000000 0.000000 
#    y 0.000000 1.905920 0.000000 
#    z 0.000000 0.000000 1.889410 
# 
# From -- ./inp_files/28749.got.cif
#   From: 2010.03.12/outbox.cif.g09.slc.cpg/sg42_15_cif.got.tgz:28749.got - 2010.04.14 02:04:31.
