data_PCOD8186758
_publ_section_title
;
Structure prediction by ZEFSAII (Michael W. Deem and Ramdas Pophale) SiO2 
 PCOD8186758
Probable space group: F M M 2
;
_chemical_formula_sum "Si O2"
_cell_formula_units_Z 112
_cell_length_a 27.247268
_cell_length_b 14.007829
_cell_length_c 12.988841
_cell_angle_alpha 90.000000
_cell_angle_beta 90.000000
_cell_angle_gamma 90.000000
_cell_volume 4957.516809
_symmetry_space_group_name_H-M "F M M 2"
_symmetry_group_IT_number 42
_symmetry_cell_setting 'orthorhombic'
loop_
_space_group_symop_operation_xyz
x,y,z
-x,-y,z
-x,y,z
x,-y,z
x,1/2+y,1/2+z
-x,1/2-y,1/2+z
-x,1/2+y,1/2+z
x,1/2-y,1/2+z
1/2+x,y,1/2+z
1/2-x,-y,1/2+z
1/2-x,y,1/2+z
1/2+x,-y,1/2+z
1/2+x,1/2+y,z
1/2-x,1/2-y,z
1/2-x,1/2+y,z
1/2+x,1/2-y,z
loop_
_atom_site_type_symbol
_atom_site_label
_atom_site_fract_x
_atom_site_fract_y
_atom_site_fract_z
Si Si1 0.159840 0.388811 0.847340
Si Si2 0.556844 0.102574 0.314829
Si Si3 0.057826 0.392893 0.541455
Si Si4 0.053929 0.611373 0.919066
Si Si5 0.585714 0.706220 0.619866
Si Si6 0.189638 0.691175 0.056888
Si Si7 0.786830 0.111979 0.133064
O O1 0.163552 0.500000 0.867731
O O2 0.101616 0.357145 0.850570
O O3 0.187183 0.362358 0.741402
O O4 0.191032 0.338989 0.937670
O O5 0.500000 0.088407 0.334019
O O6 0.577604 0.132029 0.426600
O O7 0.565941 0.182985 0.232004
O O8 0.579151 0.000000 0.279775
O O9 0.073414 0.500000 0.573142
O O10 0.086205 0.321624 0.617175
O O11 0.000000 0.379253 0.553775
O O12 0.058038 0.500000 0.944130
O O13 0.000000 0.633060 0.866031
O O14 0.051906 0.666363 0.028109
O O15 0.638868 0.659920 0.608211
O O16 0.193241 0.807502 0.053961
O O17 0.228614 0.634999 0.129264
O O18 0.796534 0.000000 0.102707
#
# Coordination Sequence:
#
# PCOD8186758 Si02
#       7
#    16  16  16  16  16  16  16
#     4   9  19  38  63  89 122 160 195 244 305 355
#     4   9  18  33  54  82 116 155 201 249 292 340
#     4   9  19  35  53  77 115 162 206 244 288 351
#     4   9  17  30  53  87 122 157 198 240 289 354
#     4  11  20  32  56  86 119 155 196 249 305 354
#     4  10  23  38  60  91 120 148 195 253 305 360
#     4  10  22  42  64  84 113 155 199 244 300 363
#
# _framework density 22.591954999999999
#
# number of rings (size 3 to 8) (size 9 to 14) (size 15 to 20)
#    0.000    2.429    0.000    3.000    0.000    8.000 
#    0.000    0.000    0.000   10.286    0.000   10.000 
#    0.000    0.000    0.000    0.000    0.000    0.571 
#
# Total GULP energy -346874.650406 kJ/mol
# GULP energy per Si atom -12388.380372 kJ/mol
# Density = 2.254053 g / cm^3
# Si number density = 22.591955 Si / 1000 Ang^3
#
#
#
# Elastic Constant Matrix: (Units=GPa)
#
#
# Indices 1 2 3 4 5 6 
#
# 1 120.4211 21.8601 42.7379 0.0000 0.0000 0.0000
# 2 21.8601 114.6641 64.3826 0.0000 0.0000 0.0000
# 3 42.7379 64.3826 85.1425 0.0000 0.0000 0.0000
# 4 0.0000 0.0000 0.0000 33.8739 0.0000 0.0000
# 5 0.0000 0.0000 0.0000 0.0000 29.7358 0.0000
# 6 0.0000 0.0000 0.0000 0.0000 0.0000 21.3973
#
#
#
# Elastic Compliance Matrix: (Units=1/GPa)
#
#
# Indices 1 2 3 4 5 6 
#
# 1 0.010276 0.001629 -0.006390 0.000000 0.000000 0.000000
# 2 0.001629 0.015414 -0.012473 0.000000 0.000000 0.000000
# 3 -0.006390 -0.012473 0.024385 0.000000 0.000000 0.000000
# 4 0.000000 0.000000 0.000000 0.029521 0.000000 0.000000
# 5 0.000000 0.000000 0.000000 0.000000 0.033629 0.000000
# 6 0.000000 0.000000 0.000000 0.000000 0.000000 0.046735
#
#
# Mechanical properties :
#
#
# Convention : Reuss Voigt Hill
#
# Bulk Modulus (GPa) = 64.07799 64.24321 64.16060
# Shear Modulus (GPa) = 25.04608 29.75121 27.39864
#
# Velocity S-wave (km/s) = 3.33322 3.63284 3.48625
# Velocity P-wave (km/s) = 6.57560 6.78931 6.68331
#
# Compressibility (1/GPa) = 0.01560598
#
# Stress axis : x y z
#
# Youngs Moduli (GPa) = 97.31118 64.87466 41.00953
#
# Poissons Ratio (x) = -0.10566 0.26204
# Poissons Ratio (y) = -0.15849 0.51153
# Poissons Ratio (z) = 0.62180 0.80921
#
# Static dielectric constant tensor:
#      x y z
#    x 4.326310 0.000000 0.000000 
#    y 0.000000 4.244660 0.000000 
#    z 0.000000 0.000000 3.816110 
# 
# 
# High freq. dielectric constant tensor:
#      x y z
#    x 1.885780 0.000000 0.000000 
#    y 0.000000 1.904460 0.000000 
#    z 0.000000 0.000000 1.867090 
# 
# From -- ./inp_files/11102.got.cif
#   From: 2010.03.12/outbox.cif.g09.slc.cpg/sg42_6_cif.got.tgz:11102.got - 2010.04.14 02:04:31.
