data_PCOD8186987
_publ_section_title
;
Structure prediction by ZEFSAII (Michael W. Deem and Ramdas Pophale) SiO2 
 PCOD8186987
Probable space group: F D D 2
;
_chemical_formula_sum "Si O2"
_cell_formula_units_Z 112
_cell_length_a 12.379604
_cell_length_b 13.853697
_cell_length_c 28.988423
_cell_angle_alpha 90.000000
_cell_angle_beta 90.000000
_cell_angle_gamma 90.000000
_cell_volume 4971.609708
_symmetry_space_group_name_H-M "F D D 2"
_symmetry_group_IT_number 43
_symmetry_cell_setting 'orthorhombic'
loop_
_space_group_symop_operation_xyz
x,y,z
-x,-y,z
1/4-x,1/4+y,1/4+z
1/4+x,1/4-y,1/4+z
x,1/2+y,1/2+z
-x,1/2-y,1/2+z
1/4-x,3/4+y,3/4+z
1/4+x,3/4-y,3/4+z
1/2+x,y,1/2+z
1/2-x,-y,1/2+z
3/4-x,1/4+y,3/4+z
3/4+x,1/4-y,3/4+z
1/2+x,1/2+y,z
1/2-x,1/2-y,z
3/4-x,3/4+y,1/4+z
3/4+x,3/4-y,1/4+z
loop_
_atom_site_type_symbol
_atom_site_label
_atom_site_fract_x
_atom_site_fract_y
_atom_site_fract_z
Si Si1 0.341072 0.680694 0.747410
Si Si2 0.873236 0.735803 0.963042
Si Si3 0.241525 0.963987 0.358402
Si Si4 0.852778 0.186753 0.294995
Si Si5 0.072951 0.217810 0.710147
Si Si6 0.080522 0.579135 0.600969
Si Si7 0.316561 0.563837 0.618289
O O1 0.250000 0.750000 0.725798
O O2 0.307640 0.566935 0.740361
O O3 0.447002 0.700113 0.717782
O O4 0.360412 0.708114 0.800098
O O5 0.750000 0.750000 0.977555
O O6 0.898032 0.623989 0.976935
O O7 0.887697 0.745943 0.908434
O O8 0.167772 0.919225 0.316820
O O9 0.168547 0.974946 0.404874
O O10 0.354150 0.905719 0.364006
O O11 0.268465 0.071542 0.344087
O O12 0.750000 0.250000 0.306405
O O13 0.885368 0.189522 0.240112
O O14 0.943937 0.245934 0.323122
O O15 0.192265 0.594819 0.629242
O O16 0.000000 0.500000 0.624620
#
# Coordination Sequence:
#
# PCOD8186987 Si02
#       7
#    16  16  16  16  16  16  16
#     4  10  22  37  61  92 129 174 224 281 333 402
#     4  10  19  35  63 101 130 164 217 294 344 399
#     4  11  23  41  70 101 133 178 236 290 345 420
#     4  10  22  40  65 101 137 173 225 290 354 417
#     4  11  21  40  67 100 138 171 229 286 353 414
#     4  11  26  44  62  94 139 182 231 283 349 420
#     4  11  19  39  69  98 130 174 229 287 342 406
#
# _framework density 22.527913999999999
#
# number of rings (size 3 to 8) (size 9 to 14) (size 15 to 20)
#    0.000    1.429    5.714    0.857    6.000    1.143 
#    2.571    0.714    0.000    0.000    0.000    0.000 
#    0.000    0.000    0.000    0.000    0.000    0.000 
#
# Total GULP energy -346868.826663 kJ/mol
# GULP energy per Si atom -12388.172381 kJ/mol
# Density = 2.247664 g / cm^3
# Si number density = 22.527914 Si / 1000 Ang^3
#
#
#
# Elastic Constant Matrix: (Units=GPa)
#
#
# Indices 1 2 3 4 5 6 
#
# 1 67.4486 54.0594 21.5330 0.0000 0.0000 0.0000
# 2 54.0594 124.0741 35.5344 0.0000 0.0000 0.0000
# 3 21.5330 35.5344 76.0966 0.0000 0.0000 0.0000
# 4 0.0000 0.0000 0.0000 29.5304 0.0000 0.0000
# 5 0.0000 0.0000 0.0000 0.0000 24.6982 0.0000
# 6 0.0000 0.0000 0.0000 0.0000 0.0000 34.9893
#
#
#
# Elastic Compliance Matrix: (Units=1/GPa)
#
#
# Indices 1 2 3 4 5 6 
#
# 1 0.023074 -0.009447 -0.002118 0.000000 0.000000 0.000000
# 2 -0.009447 0.013172 -0.003478 0.000000 0.000000 0.000000
# 3 -0.002118 -0.003478 0.015364 0.000000 0.000000 0.000000
# 4 0.000000 0.000000 0.000000 0.033863 0.000000 0.000000
# 5 0.000000 0.000000 0.000000 0.000000 0.040489 0.000000
# 6 0.000000 0.000000 0.000000 0.000000 0.000000 0.028580
#
#
# Mechanical properties :
#
#
# Convention : Reuss Voigt Hill
#
# Bulk Modulus (GPa) = 46.45666 54.43032 50.44349
# Shear Modulus (GPa) = 26.06863 28.27641 27.17252
#
# Velocity S-wave (km/s) = 3.40541 3.54668 3.47677
# Velocity P-wave (km/s) = 6.01074 6.40201 6.20946
#
# Compressibility (1/GPa) = 0.02152544
#
# Stress axis : x y z
#
# Youngs Moduli (GPa) = 43.33941 75.92083 65.08559
#
# Poissons Ratio (x) = 0.71720 0.13784
# Poissons Ratio (y) = 0.40942 0.22634
# Poissons Ratio (z) = 0.09179 0.26402
#
# Static dielectric constant tensor:
#      x y z
#    x 3.891790 0.000000 0.000000 
#    y 0.000000 4.191670 0.000000 
#    z 0.000000 0.000000 4.033080 
# 
# 
# High freq. dielectric constant tensor:
#      x y z
#    x 1.865670 0.000000 0.000000 
#    y 0.000000 1.874880 0.000000 
#    z 0.000000 0.000000 1.883410 
# 
# From -- ./inp_files/28613.got.cif
#   From: 2010.06.25/outbox.cif.g09.slc.cpg/sg43_15_cif.got.tgz:28613.got - 2010.06.26 16:48:59.
