data_PCOD8186378
_publ_section_title
;
Structure prediction by ZEFSAII (Michael W. Deem and Ramdas Pophale) SiO2 
 PCOD8186378
Probable space group: F M M 2
;
_chemical_formula_sum "Si O2"
_cell_formula_units_Z 96
_cell_length_a 8.835128
_cell_length_b 17.599935
_cell_length_c 30.799459
_cell_angle_alpha 90.000000
_cell_angle_beta 90.000000
_cell_angle_gamma 90.000000
_cell_volume 4789.244374
_symmetry_space_group_name_H-M "F M M 2"
_symmetry_group_IT_number 42
_symmetry_cell_setting 'orthorhombic'
loop_
_space_group_symop_operation_xyz
x,y,z
-x,-y,z
-x,y,z
x,-y,z
x,1/2+y,1/2+z
-x,1/2-y,1/2+z
-x,1/2+y,1/2+z
x,1/2-y,1/2+z
1/2+x,y,1/2+z
1/2-x,-y,1/2+z
1/2-x,y,1/2+z
1/2+x,-y,1/2+z
1/2+x,1/2+y,z
1/2-x,1/2-y,z
1/2-x,1/2+y,z
1/2+x,1/2-y,z
loop_
_atom_site_type_symbol
_atom_site_label
_atom_site_fract_x
_atom_site_fract_y
_atom_site_fract_z
Si Si1 0.670082 0.909786 0.996240
Si Si2 0.678574 0.168519 0.161104
Si Si3 0.322501 0.588318 0.907530
Si Si4 0.325277 0.587873 0.748968
Si Si5 0.321529 0.330873 0.326973
Si Si6 0.669855 0.089964 0.582145
O O1 0.500000 0.876995 0.992939
O O2 0.766147 0.884144 0.954524
O O3 0.665654 0.000000 0.999044
O O4 0.750277 0.876148 0.039125
O O5 0.500000 0.174375 0.157950
O O6 0.750000 0.250000 0.153804
O O7 0.729278 0.135899 0.207565
O O8 0.735655 0.112195 0.124180
O O9 0.500000 0.603245 0.903794
O O10 0.283248 0.500000 0.899543
O O11 0.236714 0.639079 0.872779
O O12 0.500000 0.604494 0.760412
O O13 0.299769 0.500000 0.738002
O O14 0.223447 0.609814 0.789796
O O15 0.500000 0.322267 0.328900
O O16 0.250000 0.250000 0.315552
O O17 0.500000 0.123197 0.584987
O O18 0.665281 0.000000 0.579240
#
# Coordination Sequence:
#
# PCOD8186378 Si02
#       6
#    16  16  16  16  16  16
#     4   9  17  31  54  84 116 150 191 237 283 333
#     4  11  23  39  59  84 116 153 191 233 285 341
#     4  10  20  36  59  86 117 152 191 236 285 337
#     4  10  22  41  64  89 116 147 186 233 284 338
#     4  12  25  40  59  84 116 153 192 234 284 340
#     4  10  20  35  57  85 116 151 193 239 286 337
#
# _framework density 20.044915
#
# number of rings (size 3 to 8) (size 9 to 14) (size 15 to 20)
#    0.000    1.667    0.000    5.000    0.000    9.667 
#    0.000    0.833    0.000    0.000    0.000    0.000 
#    0.000    0.000    0.000    0.000    0.000    0.000 
#
# Total GULP energy -297721.991063 kJ/mol
# GULP energy per Si atom -12405.082961 kJ/mol
# Density = 1.999929 g / cm^3
# Si number density = 20.044915 Si / 1000 Ang^3
#
#
#
# Elastic Constant Matrix: (Units=GPa)
#
#
# Indices 1 2 3 4 5 6 
#
# 1 118.2220 24.4847 50.3297 0.0000 0.0000 0.0000
# 2 24.4847 38.7536 12.8120 0.0000 0.0000 0.0000
# 3 50.3297 12.8120 125.3808 0.0000 0.0000 0.0000
# 4 0.0000 0.0000 0.0000 9.6289 0.0000 0.0000
# 5 0.0000 0.0000 0.0000 0.0000 40.4122 0.0000
# 6 0.0000 0.0000 0.0000 0.0000 0.0000 29.0938
#
#
#
# Elastic Compliance Matrix: (Units=1/GPa)
#
#
# Indices 1 2 3 4 5 6 
#
# 1 0.011360 -0.005868 -0.003960 0.000000 0.000000 0.000000
# 2 -0.005868 0.029737 -0.000683 0.000000 0.000000 0.000000
# 3 -0.003960 -0.000683 0.009635 0.000000 0.000000 0.000000
# 4 0.000000 0.000000 0.000000 0.103854 0.000000 0.000000
# 5 0.000000 0.000000 0.000000 0.000000 0.024745 0.000000
# 6 0.000000 0.000000 0.000000 0.000000 0.000000 0.034372
#
#
# Mechanical properties :
#
#
# Convention : Reuss Voigt Hill
#
# Bulk Modulus (GPa) = 33.65944 50.84547 42.25245
# Shear Modulus (GPa) = 20.43905 28.80897 24.62401
#
# Velocity S-wave (km/s) = 3.19668 3.79518 3.50872
# Velocity P-wave (km/s) = 5.51847 6.68022 6.12694
#
# Compressibility (1/GPa) = 0.02970935
#
# Stress axis : x y z
#
# Youngs Moduli (GPa) = 88.02793 33.62777 103.78496
#
# Poissons Ratio (x) = 0.19733 0.41104
# Poissons Ratio (y) = 0.51655 0.07091
# Poissons Ratio (z) = 0.34863 0.02297
#
# Static dielectric constant tensor:
#      x y z
#    x 3.828660 0.000000 0.000000 
#    y 0.000000 3.405400 0.000000 
#    z 0.000000 0.000000 3.780710 
# 
# 
# High freq. dielectric constant tensor:
#      x y z
#    x 1.794940 0.000000 0.000000 
#    y 0.000000 1.761810 0.000000 
#    z 0.000000 0.000000 1.799220 
# 
# From -- ./inp_files/31458.got.cif
#   From: 2010.03.12/outbox.cif.g09.slc.cpg/sg42_16_cif.got.tgz:31458.got - 2010.04.14 02:04:31.
