data_PCOD8186555
_publ_section_title
;
Structure prediction by ZEFSAII (Michael W. Deem and Ramdas Pophale) SiO2 
 PCOD8186555
Probable space group: F M M 2
;
_chemical_formula_sum "Si O2"
_cell_formula_units_Z 80
_cell_length_a 7.577692
_cell_length_b 26.236653
_cell_length_c 20.358512
_cell_angle_alpha 90.000000
_cell_angle_beta 90.000000
_cell_angle_gamma 90.000000
_cell_volume 4047.542456
_symmetry_space_group_name_H-M "F M M 2"
_symmetry_group_IT_number 42
_symmetry_cell_setting 'orthorhombic'
loop_
_space_group_symop_operation_xyz
x,y,z
-x,-y,z
-x,y,z
x,-y,z
x,1/2+y,1/2+z
-x,1/2-y,1/2+z
-x,1/2+y,1/2+z
x,1/2-y,1/2+z
1/2+x,y,1/2+z
1/2-x,-y,1/2+z
1/2-x,y,1/2+z
1/2+x,-y,1/2+z
1/2+x,1/2+y,z
1/2-x,1/2-y,z
1/2-x,1/2+y,z
1/2+x,1/2-y,z
loop_
_atom_site_type_symbol
_atom_site_label
_atom_site_fract_x
_atom_site_fract_y
_atom_site_fract_z
Si Si1 0.704370 0.190412 0.401940
Si Si2 0.799975 0.628497 0.778040
Si Si3 0.708707 0.368534 0.034069
Si Si4 0.500000 0.559807 0.738069
Si Si5 0.000000 0.439933 0.083005
Si Si6 0.704766 0.307931 0.158339
O O1 0.500000 0.184704 0.387392
O O2 0.750000 0.250000 0.408124
O O3 0.805735 0.162471 0.343470
O O4 0.758957 0.160135 0.467276
O O5 0.672354 0.579613 0.777884
O O6 0.714589 0.662969 0.720452
O O7 0.000000 0.609924 0.764112
O O8 0.500000 0.382098 0.037605
O O9 0.775214 0.329654 0.090006
O O10 0.824464 0.419198 0.045819
O O11 0.500000 0.500000 0.746496
O O12 0.500000 0.574421 0.660497
O O13 0.000000 0.500000 0.073036
O O14 0.500000 0.316979 0.161660
O O15 0.750000 0.250000 0.164683
#
# Coordination Sequence:
#
# PCOD8186555 Si02
#       6
#    16  16  16   8   8  16
#     4  11  23  39  63  95 134 175 209 251 314 381
#     4  11  23  41  62  91 129 164 208 261 310 377
#     4  10  23  41  60  91 130 162 206 260 307 374
#     4  11  24  44  69  94 120 161 214 271 325 371
#     4  11  24  42  71  94 116 163 212 267 325 371
#     4  10  21  34  56  88 121 160 200 244 304 365
#
# _framework density 19.765080999999999
#
# number of rings (size 3 to 8) (size 9 to 14) (size 15 to 20)
#    0.000    1.400    3.000    1.800    5.600    2.400 
#    0.000    3.000    0.000    0.000    0.000    0.000 
#    0.000    0.000    0.000    0.000    0.000    0.000 
#
# Total GULP energy -247944.628983 kJ/mol
# GULP energy per Si atom -12397.231449 kJ/mol
# Density = 1.972010 g / cm^3
# Si number density = 19.765081 Si / 1000 Ang^3
#
#
#
# Elastic Constant Matrix: (Units=GPa)
#
#
# Indices 1 2 3 4 5 6 
#
# 1 100.9077 54.5365 35.8525 0.0000 0.0000 0.0000
# 2 54.5365 127.5175 50.0108 0.0000 0.0000 0.0000
# 3 35.8525 50.0108 125.0149 0.0000 0.0000 0.0000
# 4 0.0000 0.0000 0.0000 30.1299 0.0000 0.0000
# 5 0.0000 0.0000 0.0000 0.0000 28.4070 0.0000
# 6 0.0000 0.0000 0.0000 0.0000 0.0000 29.1779
#
#
#
# Elastic Compliance Matrix: (Units=1/GPa)
#
#
# Indices 1 2 3 4 5 6 
#
# 1 0.013228 -0.004945 -0.001815 0.000000 0.000000 0.000000
# 2 -0.004945 0.011150 -0.003042 0.000000 0.000000 0.000000
# 3 -0.001815 -0.003042 0.009737 0.000000 0.000000 0.000000
# 4 0.000000 0.000000 0.000000 0.033190 0.000000 0.000000
# 5 0.000000 0.000000 0.000000 0.000000 0.035203 0.000000
# 6 0.000000 0.000000 0.000000 0.000000 0.000000 0.034273
#
#
# Mechanical properties :
#
#
# Convention : Reuss Voigt Hill
#
# Bulk Modulus (GPa) = 68.92272 70.47107 69.69689
# Shear Modulus (GPa) = 31.01327 31.74564 31.37946
#
# Velocity S-wave (km/s) = 3.96548 4.01202 3.98882
# Velocity P-wave (km/s) = 7.47752 7.56264 7.52020
#
# Compressibility (1/GPa) = 0.01450900
#
# Stress axis : x y z
#
# Youngs Moduli (GPa) = 75.59875 89.68446 102.70480
#
# Poissons Ratio (x) = 0.44352 0.18643
# Poissons Ratio (y) = 0.37386 0.31245
# Poissons Ratio (z) = 0.13723 0.27284
#
# Static dielectric constant tensor:
#      x y z
#    x 2.912260 0.000000 0.000000 
#    y 0.000000 3.365200 0.000000 
#    z 0.000000 0.000000 3.856510 
# 
# 
# High freq. dielectric constant tensor:
#      x y z
#    x 1.782300 0.000000 0.000000 
#    y 0.000000 1.756380 0.000000 
#    z 0.000000 0.000000 1.778880 
# 
# From -- ./inp_files/23453.got.cif
#   From: 2010.03.12/outbox.cif.g09.slc.cpg/sg42_12_cif.got.tgz:23453.got - 2010.04.14 02:04:31.
