data_PCOD8186697
_publ_section_title
;
Structure prediction by ZEFSAII (Michael W. Deem and Ramdas Pophale) SiO2 
 PCOD8186697
Probable space group: F M M 2
;
_chemical_formula_sum "Si O2"
_cell_formula_units_Z 60
_cell_length_a 9.851522
_cell_length_b 18.739810
_cell_length_c 14.742327
_cell_angle_alpha 90.000000
_cell_angle_beta 90.000000
_cell_angle_gamma 90.000000
_cell_volume 2721.664289
_symmetry_space_group_name_H-M "F M M 2"
_symmetry_group_IT_number 42
_symmetry_cell_setting 'orthorhombic'
loop_
_space_group_symop_operation_xyz
x,y,z
-x,-y,z
-x,y,z
x,-y,z
x,1/2+y,1/2+z
-x,1/2-y,1/2+z
-x,1/2+y,1/2+z
x,1/2-y,1/2+z
1/2+x,y,1/2+z
1/2-x,-y,1/2+z
1/2-x,y,1/2+z
1/2+x,-y,1/2+z
1/2+x,1/2+y,z
1/2-x,1/2-y,z
1/2-x,1/2+y,z
1/2+x,1/2-y,z
loop_
_atom_site_type_symbol
_atom_site_label
_atom_site_fract_x
_atom_site_fract_y
_atom_site_fract_z
Si Si1 0.500000 0.147626 0.190570
Si Si2 0.266026 0.873037 0.803463
Si Si3 0.500000 0.917367 0.671523
Si Si4 0.155303 0.000000 0.410432
Si Si5 0.000000 0.500000 0.082269
Si Si6 0.000000 0.781807 0.050974
Si Si7 0.750000 0.250000 0.427562
O O1 0.372276 0.150905 0.256456
O O2 0.500000 0.215815 0.122980
O O3 0.500000 0.071833 0.139994
O O4 0.366039 0.901492 0.727869
O O5 0.252820 0.934123 0.879234
O O6 0.321679 0.807114 0.861576
O O7 0.500000 0.860891 0.591009
O O8 0.500000 0.000000 0.637683
O O9 0.000000 0.000000 0.366425
O O10 0.135982 0.000000 0.519602
O O11 0.866534 0.780967 0.990568
#
# Coordination Sequence:
#
# PCOD8186697 Si02
#       7
#     8  16   8   8   4   8   8
#     4  12  25  41  72 105 136 177 224 296 332 412
#     4  12  22  45  68 102 130 182 233 265 343 402
#     4  12  24  46  71  97 137 185 230 282 334 412
#     4  10  21  42  69  98 129 185 216 274 331 406
#     4  10  22  40  66 102 134 180 214 280 346 392
#     4  12  26  47  64 106 140 176 230 281 359 384
#     4  12  26  44  72  98 138 182 224 288 336 418
#
# _framework density 22.045335000000001
#
# number of rings (size 3 to 8) (size 9 to 14) (size 15 to 20)
#    0.400    0.000    2.667    7.200    0.000    0.000 
#    2.400    0.000    0.000    0.000    0.000    0.000 
#    0.000    0.000    0.000    0.000    0.000    0.000 
#
# Total GULP energy -185914.563203 kJ/mol
# GULP energy per Si atom -12394.304214 kJ/mol
# Density = 2.199516 g / cm^3
# Si number density = 22.045335 Si / 1000 Ang^3
#
#
#
# Elastic Constant Matrix: (Units=GPa)
#
#
# Indices 1 2 3 4 5 6 
#
# 1 94.7147 26.2889 32.5882 0.0000 0.0000 0.0000
# 2 26.2889 199.0121 73.6069 0.0000 0.0000 0.0000
# 3 32.5882 73.6069 110.3263 0.0000 0.0000 0.0000
# 4 0.0000 0.0000 0.0000 44.9494 0.0000 0.0000
# 5 0.0000 0.0000 0.0000 0.0000 47.1750 0.0000
# 6 0.0000 0.0000 0.0000 0.0000 0.0000 38.1884
#
#
#
# Elastic Compliance Matrix: (Units=1/GPa)
#
#
# Indices 1 2 3 4 5 6 
#
# 1 0.011772 -0.000357 -0.003239 0.000000 0.000000 0.000000
# 2 -0.000357 0.006682 -0.004352 0.000000 0.000000 0.000000
# 3 -0.003239 -0.004352 0.012925 0.000000 0.000000 0.000000
# 4 0.000000 0.000000 0.000000 0.022247 0.000000 0.000000
# 5 0.000000 0.000000 0.000000 0.000000 0.021198 0.000000
# 6 0.000000 0.000000 0.000000 0.000000 0.000000 0.026186
#
#
# Mechanical properties :
#
#
# Convention : Reuss Voigt Hill
#
# Bulk Modulus (GPa) = 64.59473 74.33569 69.46521
# Shear Modulus (GPa) = 40.96151 44.16717 42.56434
#
# Velocity S-wave (km/s) = 4.31520 4.48087 4.39881
# Velocity P-wave (km/s) = 7.36155 7.78226 7.57483
#
# Compressibility (1/GPa) = 0.01548114
#
# Stress axis : x y z
#
# Youngs Moduli (GPa) = 84.95088 149.66051 77.37210
#
# Poissons Ratio (x) = 0.05344 0.25060
# Poissons Ratio (y) = 0.03033 0.33676
# Poissons Ratio (z) = 0.27514 0.65139
#
# Static dielectric constant tensor:
#      x y z
#    x 2.840060 0.000000 0.000000 
#    y 0.000000 4.589950 0.000000 
#    z 0.000000 0.000000 4.210230 
# 
# 
# High freq. dielectric constant tensor:
#      x y z
#    x 1.859150 0.000000 0.000000 
#    y 0.000000 1.889760 0.000000 
#    z 0.000000 0.000000 1.879200 
# 
# From -- ./inp_files/17823.got.cif
#   From: 2010.03.12/outbox.cif.g09.slc.cpg/sg42_9_cif.got.tgz:17823.got - 2010.04.14 02:04:31.
