data_PCOD8186159
_publ_section_title
;
Structure prediction by ZEFSAII (Michael W. Deem and Ramdas Pophale) SiO2 
 PCOD8186159
Probable space group: F M M 2
;
_chemical_formula_sum "Si O2"
_cell_formula_units_Z 96
_cell_length_a 10.837702
_cell_length_b 15.088890
_cell_length_c 28.464143
_cell_angle_alpha 90.000000
_cell_angle_beta 90.000000
_cell_angle_gamma 90.000000
_cell_volume 4654.709804
_symmetry_space_group_name_H-M "F M M 2"
_symmetry_group_IT_number 42
_symmetry_cell_setting 'orthorhombic'
loop_
_space_group_symop_operation_xyz
x,y,z
-x,-y,z
-x,y,z
x,-y,z
x,1/2+y,1/2+z
-x,1/2-y,1/2+z
-x,1/2+y,1/2+z
x,1/2-y,1/2+z
1/2+x,y,1/2+z
1/2-x,-y,1/2+z
1/2-x,y,1/2+z
1/2+x,-y,1/2+z
1/2+x,1/2+y,z
1/2-x,1/2-y,z
1/2-x,1/2+y,z
1/2+x,1/2-y,z
loop_
_atom_site_type_symbol
_atom_site_label
_atom_site_fract_x
_atom_site_fract_y
_atom_site_fract_z
Si Si1 0.358995 0.597863 0.060820
Si Si2 0.851515 0.000000 0.410642
Si Si3 0.729056 0.345416 0.475010
Si Si4 0.234359 0.895051 0.158550
Si Si5 0.500000 0.606145 0.534903
Si Si6 0.144880 0.177979 0.250860
Si Si7 0.644573 0.000000 0.802806
Si Si8 0.000000 0.396590 0.140049
O O1 0.500000 0.593879 0.074905
O O2 0.300700 0.500000 0.054721
O O3 0.291395 0.641293 0.105890
O O4 0.345272 0.643462 0.010053
O O5 0.786791 0.914520 0.433059
O O6 0.812396 0.000000 0.356655
O O7 0.000000 0.000000 0.418702
O O8 0.750000 0.250000 0.450720
O O9 0.616069 0.350550 0.510320
O O10 0.150349 0.841945 0.195229
O O11 0.377977 0.871240 0.169618
O O12 0.205932 0.000000 0.162255
O O13 0.500000 0.500000 0.528995
O O14 0.500000 0.643973 0.587733
O O15 0.250000 0.250000 0.265101
O O16 0.191049 0.089305 0.277645
O O17 0.000000 0.203851 0.262916
O O18 0.500000 0.000000 0.799831
O O19 0.000000 0.500000 0.129997
#
# Coordination Sequence:
#
# PCOD8186159 Si02
#       8
#    16   8  16  16   8  16   8   8
#     4  10  20  34  53  81 123 173 214 250 301 366
#     4  11  22  44  72  93 117 160 213 262 317 386
#     4  12  23  35  60  92 124 160 207 259 309 363
#     4  10  19  35  60  90 125 172 217 262 309 370
#     4  11  18  40  62  81 120 166 220 255 299 351
#     4  11  24  43  68  99 131 166 212 266 320 387
#     4   9  22  46  74  95 119 160 208 263 330 393
#     4   9  18  30  58  90 122 168 224 268 307 358
#
# _framework density 20.624272999999999
#
# number of rings (size 3 to 8) (size 9 to 14) (size 15 to 20)
#    0.000    1.500    5.000    0.500    2.333    2.000 
#    0.000    0.417    0.000    2.000    0.000    0.000 
#    0.000    0.000    0.000    0.000    0.000    0.000 
#
# Total GULP energy -297410.033347 kJ/mol
# GULP energy per Si atom -12392.084723 kJ/mol
# Density = 2.057733 g / cm^3
# Si number density = 20.624273 Si / 1000 Ang^3
#
#
#
# Elastic Constant Matrix: (Units=GPa)
#
#
# Indices 1 2 3 4 5 6 
#
# 1 94.2094 36.9739 20.6216 0.0000 0.0000 0.0000
# 2 36.9739 122.4056 49.2279 0.0000 0.0000 0.0000
# 3 20.6216 49.2279 109.1319 0.0000 0.0000 0.0000
# 4 0.0000 0.0000 0.0000 8.3880 0.0000 0.0000
# 5 0.0000 0.0000 0.0000 0.0000 22.4199 0.0000
# 6 0.0000 0.0000 0.0000 0.0000 0.0000 31.2197
#
#
#
# Elastic Compliance Matrix: (Units=1/GPa)
#
#
# Indices 1 2 3 4 5 6 
#
# 1 0.012096 -0.003341 -0.000779 0.000000 0.000000 0.000000
# 2 -0.003341 0.010903 -0.004287 0.000000 0.000000 0.000000
# 3 -0.000779 -0.004287 0.011244 0.000000 0.000000 0.000000
# 4 0.000000 0.000000 0.000000 0.119218 0.000000 0.000000
# 5 0.000000 0.000000 0.000000 0.000000 0.044603 0.000000
# 6 0.000000 0.000000 0.000000 0.000000 0.000000 0.032031
#
#
# Mechanical properties :
#
#
# Convention : Reuss Voigt Hill
#
# Bulk Modulus (GPa) = 57.37045 59.93262 58.65153
# Shear Modulus (GPa) = 19.78491 27.00042 23.39267
#
# Velocity S-wave (km/s) = 3.10062 3.62215 3.37149
# Velocity P-wave (km/s) = 6.37933 6.82757 6.60725
#
# Compressibility (1/GPa) = 0.01743058
#
# Stress axis : x y z
#
# Youngs Moduli (GPa) = 82.67073 91.72097 88.93553
#
# Poissons Ratio (x) = 0.30640 0.06926
# Poissons Ratio (y) = 0.27617 0.38125
# Poissons Ratio (z) = 0.06438 0.39319
#
# Static dielectric constant tensor:
#      x y z
#    x 3.504430 0.000000 0.000000 
#    y 0.000000 3.784840 0.000000 
#    z 0.000000 0.000000 3.656020 
# 
# 
# High freq. dielectric constant tensor:
#      x y z
#    x 1.806000 0.000000 0.000000 
#    y 0.000000 1.799600 0.000000 
#    z 0.000000 0.000000 1.782660 
# 
# From -- ./inp_files/34141.got.cif
#   From: 2010.03.12/outbox.cif.g09.slc.cpg/sg42_18_cif.got.tgz:34141.got - 2010.04.14 02:04:31.
