data_PCOD8186357
_publ_section_title
;
Structure prediction by ZEFSAII (Michael W. Deem and Ramdas Pophale) SiO2 
 PCOD8186357
Probable space group: F M M 2
;
_chemical_formula_sum "Si O2"
_cell_formula_units_Z 80
_cell_length_a 17.337906
_cell_length_b 24.526355
_cell_length_c 10.137695
_cell_angle_alpha 90.000000
_cell_angle_beta 90.000000
_cell_angle_gamma 90.000000
_cell_volume 4310.909196
_symmetry_space_group_name_H-M "F M M 2"
_symmetry_group_IT_number 42
_symmetry_cell_setting 'orthorhombic'
loop_
_space_group_symop_operation_xyz
x,y,z
-x,-y,z
-x,y,z
x,-y,z
x,1/2+y,1/2+z
-x,1/2-y,1/2+z
-x,1/2+y,1/2+z
x,1/2-y,1/2+z
1/2+x,y,1/2+z
1/2-x,-y,1/2+z
1/2-x,y,1/2+z
1/2+x,-y,1/2+z
1/2+x,1/2+y,z
1/2-x,1/2-y,z
1/2-x,1/2+y,z
1/2+x,1/2-y,z
loop_
_atom_site_type_symbol
_atom_site_label
_atom_site_fract_x
_atom_site_fract_y
_atom_site_fract_z
Si Si1 0.915379 0.500000 0.607450
Si Si2 0.913832 0.000000 0.795416
Si Si3 0.677684 0.897685 0.601135
Si Si4 0.337023 0.771636 0.319844
Si Si5 0.185686 0.104276 0.803481
Si Si6 0.910068 0.287001 0.583496
O O1 0.921894 0.500000 0.450944
O O2 0.869813 0.552033 0.658200
O O3 0.000000 0.500000 0.671730
O O4 0.869685 0.944496 0.750968
O O5 0.000000 0.000000 0.732326
O O6 0.744090 0.888277 0.705186
O O7 0.712153 0.908824 0.454119
O O8 0.618462 0.848390 0.597123
O O9 0.250000 0.750000 0.296899
O O10 0.352702 0.836147 0.301598
O O11 0.394813 0.743599 0.219200
O O12 0.363180 0.755864 0.467698
O O13 0.000000 0.287110 0.549760
#
# Coordination Sequence:
#
# PCOD8186357 Si02
#       6
#     8   8  16  16  16  16
#     4   9  17  32  55  79 108 141 178 230 284 327
#     4   9  19  36  57  85 114 143 188 242 288 335
#     4  10  20  35  56  82 110 143 190 232 280 342
#     4  11  22  38  59  83 116 156 194 233 287 346
#     4  10  21  35  60  82 109 147 188 233 283 344
#     4  11  23  37  57  85 116 150 193 241 287 338
#
# _framework density 18.557570999999999
#
# number of rings (size 3 to 8) (size 9 to 14) (size 15 to 20)
#    0.000    1.800    2.000    2.400    2.800    5.600 
#    0.000    0.000    0.000    3.600    0.000    0.000 
#    0.000    0.000    0.000    0.000    0.000    0.000 
#
# Total GULP energy -247936.600035 kJ/mol
# GULP energy per Si atom -12396.830002 kJ/mol
# Density = 1.851533 g / cm^3
# Si number density = 18.557571 Si / 1000 Ang^3
#
#
#
# Elastic Constant Matrix: (Units=GPa)
#
#
# Indices 1 2 3 4 5 6 
#
# 1 91.2880 23.6508 25.9628 0.0000 0.0000 0.0000
# 2 23.6508 105.3284 28.8486 0.0000 0.0000 0.0000
# 3 25.9628 28.8486 71.3345 0.0001 0.0000 0.0000
# 4 0.0000 0.0000 0.0001 -129.0724 0.0000 0.0000
# 5 0.0000 0.0000 0.0000 0.0000 20.5359 0.0000
# 6 0.0000 0.0000 0.0000 0.0000 0.0000 26.2249
#
#
#
# Elastic Compliance Matrix: (Units=1/GPa)
#
#
# Indices 1 2 3 4 5 6 
#
# 1 0.012501 -0.001755 -0.003840 0.000000 0.000000 0.000000
# 2 -0.001755 0.010923 -0.003779 0.000000 0.000000 0.000000
# 3 -0.003840 -0.003779 0.016944 0.000000 0.000000 0.000000
# 4 0.000000 0.000000 0.000000 -0.007748 0.000000 0.000000
# 5 0.000000 0.000000 0.000000 0.000000 0.048695 0.000000
# 6 0.000000 0.000000 0.000000 0.000000 0.000000 0.038132
#
#
# Mechanical properties :
#
#
# Convention : Reuss Voigt Hill
#
# Bulk Modulus (GPa) = 46.25206 47.20837 46.73021
# Shear Modulus (GPa) = 34.38722 -3.82975 15.27874
#
# Velocity S-wave (km/s) = 4.30932 -1.43812 2.87246
# Velocity P-wave (km/s) = 7.05252 4.76828 6.01974
#
# Compressibility (1/GPa) = 0.02162066
#
# Stress axis : x y z
#
# Youngs Moduli (GPa) = 79.99210 91.54830 59.01723
#
# Poissons Ratio (x) = 0.16070 0.22663
# Poissons Ratio (y) = 0.14041 0.22300
# Poissons Ratio (z) = 0.30717 0.34593
#
# Static dielectric constant tensor:
#      x y z
#    x 3.383830 0.000000 0.000000 
#    y 0.000000 4.670470 0.000000 
#    z 0.000000 0.000000 3.392660 
# 
# 
# High freq. dielectric constant tensor:
#      x y z
#    x 1.714690 0.000000 0.000000 
#    y 0.000000 1.734530 0.000000 
#    z 0.000000 0.000000 1.706680 
# 
# From -- ./inp_files/3514.got.cif
#   From: 2010.03.12/outbox.cif.g09.slc.cpg/sg42_2_cif.got.tgz:3514.got - 2010.04.14 02:04:31.
