data_PCOD8186709
_publ_section_title
;
Structure prediction by ZEFSAII (Michael W. Deem and Ramdas Pophale) SiO2 
 PCOD8186709
Probable space group: F M M 2
;
_chemical_formula_sum "Si O2"
_cell_formula_units_Z 96
_cell_length_a 16.639751
_cell_length_b 17.363081
_cell_length_c 17.026808
_cell_angle_alpha 90.000000
_cell_angle_beta 90.000000
_cell_angle_gamma 90.000000
_cell_volume 4919.340152
_symmetry_space_group_name_H-M "F M M 2"
_symmetry_group_IT_number 42
_symmetry_cell_setting 'orthorhombic'
loop_
_space_group_symop_operation_xyz
x,y,z
-x,-y,z
-x,y,z
x,-y,z
x,1/2+y,1/2+z
-x,1/2-y,1/2+z
-x,1/2+y,1/2+z
x,1/2-y,1/2+z
1/2+x,y,1/2+z
1/2-x,-y,1/2+z
1/2-x,y,1/2+z
1/2+x,-y,1/2+z
1/2+x,1/2+y,z
1/2-x,1/2-y,z
1/2-x,1/2+y,z
1/2+x,1/2-y,z
loop_
_atom_site_type_symbol
_atom_site_label
_atom_site_fract_x
_atom_site_fract_y
_atom_site_fract_z
Si Si1 0.351268 0.164591 0.210590
Si Si2 0.905978 0.588875 0.889188
Si Si3 0.000000 0.591572 0.298831
Si Si4 0.646445 0.910366 0.576106
Si Si5 0.000000 0.908415 0.978687
Si Si6 0.331631 0.342477 0.236244
Si Si7 0.175282 0.408574 0.051066
O O1 0.419247 0.127083 0.263929
O O2 0.354381 0.256141 0.213144
O O3 0.263381 0.138888 0.241143
O O4 0.368411 0.135214 0.122339
O O5 0.885723 0.500000 0.872696
O O6 0.870199 0.639214 0.819538
O O7 0.000000 0.603759 0.895625
O O8 0.866483 0.616258 0.970423
O O9 0.000000 0.500000 0.286591
O O10 0.000000 0.616777 0.389058
O O11 0.578062 0.872316 0.521689
O O12 0.629506 0.894322 0.667848
O O13 0.732938 0.878229 0.549048
O O14 0.645188 0.000000 0.561238
O O15 0.000000 0.000000 0.987207
O O16 0.169009 0.500000 0.065721
#
# Coordination Sequence:
#
# PCOD8186709 Si02
#       7
#    16  16   8  16   8  16  16
#     4  10  23  41  59  87 118 159 201 241 302 358
#     4  10  22  37  60  90 118 152 198 249 297 352
#     4  11  24  39  62  89 120 159 206 257 296 347
#     4   9  18  35  60  85 114 153 195 243 295 352
#     4   9  20  35  54  85 113 143 196 243 287 343
#     4  10  22  41  59  86 122 158 197 241 300 366
#     4   9  19  38  61  85 115 152 197 247 298 353
#
# _framework density 19.514813
#
# number of rings (size 3 to 8) (size 9 to 14) (size 15 to 20)
#    0.000    2.333    0.000    1.000    5.833    2.000 
#    3.000    1.667    0.000    0.000    0.000    0.000 
#    0.000    0.000    0.000    0.000    0.000    0.000 
#
# Total GULP energy -297612.043704 kJ/mol
# GULP energy per Si atom -12400.501821 kJ/mol
# Density = 1.947040 g / cm^3
# Si number density = 19.514813 Si / 1000 Ang^3
#
#
#
# Elastic Constant Matrix: (Units=GPa)
#
#
# Indices 1 2 3 4 5 6 
#
# 1 115.1870 32.8373 83.0737 0.0000 0.0000 0.0000
# 2 32.8373 36.4004 32.6370 0.0000 0.0000 0.0000
# 3 83.0737 32.6370 170.5534 0.0000 0.0000 0.0000
# 4 0.0000 0.0000 0.0000 16.1186 0.0000 0.0000
# 5 0.0000 0.0000 0.0000 0.0000 39.6983 0.0000
# 6 0.0000 0.0000 0.0000 0.0000 0.0000 23.7047
#
#
#
# Elastic Compliance Matrix: (Units=1/GPa)
#
#
# Indices 1 2 3 4 5 6 
#
# 1 0.015336 -0.008615 -0.005821 0.000000 0.000000 0.000000
# 2 -0.008615 0.038002 -0.003076 0.000000 0.000000 0.000000
# 3 -0.005821 -0.003076 0.009287 0.000000 0.000000 0.000000
# 4 0.000000 0.000000 0.000000 0.062040 0.000000 0.000000
# 5 0.000000 0.000000 0.000000 0.000000 0.025190 0.000000
# 6 0.000000 0.000000 0.000000 0.000000 0.000000 0.042186
#
#
# Mechanical properties :
#
#
# Convention : Reuss Voigt Hill
#
# Bulk Modulus (GPa) = 36.23103 68.80407 52.51755
# Shear Modulus (GPa) = 21.16262 27.47718 24.31990
#
# Velocity S-wave (km/s) = 3.29665 3.75643 3.53402
# Velocity P-wave (km/s) = 5.75298 7.35855 6.60473
#
# Compressibility (1/GPa) = 0.02760065
#
# Stress axis : x y z
#
# Youngs Moduli (GPa) = 65.20650 26.31444 107.67470
#
# Poissons Ratio (x) = 0.22671 0.62680
# Poissons Ratio (y) = 0.56178 0.33117
# Poissons Ratio (z) = 0.37958 0.08093
#
# Static dielectric constant tensor:
#      x y z
#    x 3.846880 0.000000 0.000000 
#    y 0.000000 3.364410 0.000000 
#    z 0.000000 0.000000 3.625990 
# 
# 
# High freq. dielectric constant tensor:
#      x y z
#    x 1.769910 0.000000 0.000000 
#    y 0.000000 1.742270 0.000000 
#    z 0.000000 0.000000 1.768060 
# 
# From -- ./inp_files/14058.got.cif
#   From: 2010.03.12/outbox.cif.g09.slc.cpg/sg42_8_cif.got.tgz:14058.got - 2010.04.14 02:04:31.
