data_PCOD8186210
_publ_section_title
;
Structure prediction by ZEFSAII (Michael W. Deem and Ramdas Pophale) SiO2 
 PCOD8186210
Probable space group: F M M 2
;
_chemical_formula_sum "Si O2"
_cell_formula_units_Z 96
_cell_length_a 15.602999
_cell_length_b 27.065745
_cell_length_c 11.739069
_cell_angle_alpha 90.000000
_cell_angle_beta 90.000000
_cell_angle_gamma 90.000000
_cell_volume 4957.488572
_symmetry_space_group_name_H-M "F M M 2"
_symmetry_group_IT_number 42
_symmetry_cell_setting 'orthorhombic'
loop_
_space_group_symop_operation_xyz
x,y,z
-x,-y,z
-x,y,z
x,-y,z
x,1/2+y,1/2+z
-x,1/2-y,1/2+z
-x,1/2+y,1/2+z
x,1/2-y,1/2+z
1/2+x,y,1/2+z
1/2-x,-y,1/2+z
1/2-x,y,1/2+z
1/2+x,-y,1/2+z
1/2+x,1/2+y,z
1/2-x,1/2-y,z
1/2-x,1/2+y,z
1/2+x,1/2-y,z
loop_
_atom_site_type_symbol
_atom_site_label
_atom_site_fract_x
_atom_site_fract_y
_atom_site_fract_z
Si Si1 0.901902 0.821269 0.393180
Si Si2 0.162539 0.134532 0.806034
Si Si3 0.275961 0.105484 0.996164
Si Si4 0.596878 0.713814 0.972607
Si Si5 0.095892 0.054674 0.636685
Si Si6 0.189907 0.666775 0.668863
O O1 0.840926 0.847949 0.484174
O O2 0.881630 0.763060 0.402642
O O3 0.883779 0.839309 0.263912
O O4 0.000000 0.833496 0.423279
O O5 0.106956 0.097969 0.729253
O O6 0.219002 0.174534 0.733902
O O7 0.226483 0.098085 0.877340
O O8 0.103659 0.166750 0.888935
O O9 0.334985 0.059451 0.033798
O O10 0.205615 0.116749 0.095005
O O11 0.500000 0.715143 0.020069
O O12 0.661895 0.709517 0.079911
O O13 0.000000 0.059703 0.586633
O O14 0.108191 0.000000 0.690861
#
# Coordination Sequence:
#
# PCOD8186210 Si02
#       6
#    16  16  16  16  16  16
#     4  10  20  32  48  71  99 132 167 203 244 290
#     4   9  19  34  52  72  96 128 165 205 247 292
#     4   9  19  34  52  72  96 128 165 205 247 292
#     4  10  20  32  48  71  99 132 167 203 244 290
#     4  10  20  34  53  76 101 129 161 203 255 304
#     4   9  19  33  47  66  94 126 163 201 241 285
#
# _framework density 19.364643999999998
#
# number of rings (size 3 to 8) (size 9 to 14) (size 15 to 20)
#    0.000    2.500    0.000    1.500    0.000   10.667 
#    0.000    3.333    0.000    0.000    0.000    0.000 
#    0.000   32.000    0.000    0.000    0.000    0.000 
#
# Total GULP energy -297319.814471 kJ/mol
# GULP energy per Si atom -12388.325603 kJ/mol
# Density = 1.932057 g / cm^3
# Si number density = 19.364644 Si / 1000 Ang^3
#
#
#
# Elastic Constant Matrix: (Units=GPa)
#
#
# Indices 1 2 3 4 5 6 
#
# 1 82.4731 34.5006 29.6851 0.0000 0.0000 0.0000
# 2 34.5006 75.2713 23.2395 0.0000 0.0000 0.0000
# 3 29.6851 23.2395 85.6625 0.0000 0.0000 0.0000
# 4 0.0000 0.0000 0.0000 20.6548 0.0000 0.0000
# 5 0.0000 0.0000 0.0000 0.0000 31.4134 0.0000
# 6 0.0000 0.0000 0.0000 0.0000 0.0000 23.5992
#
#
#
# Elastic Compliance Matrix: (Units=1/GPa)
#
#
# Indices 1 2 3 4 5 6 
#
# 1 0.016118 -0.006181 -0.003909 0.000000 0.000000 0.000000
# 2 -0.006181 0.016870 -0.002435 0.000000 0.000000 0.000000
# 3 -0.003909 -0.002435 0.013689 0.000000 0.000000 0.000000
# 4 0.000000 0.000000 0.000000 0.048415 0.000000 0.000000
# 5 0.000000 0.000000 0.000000 0.000000 0.031834 0.000000
# 6 0.000000 0.000000 0.000000 0.000000 0.000000 0.042374
#
#
# Mechanical properties :
#
#
# Convention : Reuss Voigt Hill
#
# Bulk Modulus (GPa) = 46.23628 46.47302 46.35465
# Shear Modulus (GPa) = 24.80695 25.53227 25.16961
#
# Velocity S-wave (km/s) = 3.58305 3.63505 3.60915
# Velocity P-wave (km/s) = 6.40673 6.45517 6.43099
#
# Compressibility (1/GPa) = 0.02162804
#
# Stress axis : x y z
#
# Youngs Moduli (GPa) = 62.04421 59.27695 73.05292
#
# Poissons Ratio (x) = 0.36638 0.28553
# Poissons Ratio (y) = 0.38348 0.17787
# Poissons Ratio (z) = 0.24250 0.14433
#
# Static dielectric constant tensor:
#      x y z
#    x 3.618660 0.000000 0.000000 
#    y 0.000000 3.189900 0.000000 
#    z 0.000000 0.000000 3.643270 
# 
# 
# High freq. dielectric constant tensor:
#      x y z
#    x 1.761860 0.000000 0.000000 
#    y 0.000000 1.710910 0.000000 
#    z 0.000000 0.000000 1.757350 
# 
# From -- ./inp_files/8803.got.cif
#   From: 2010.03.12/outbox.cif.g09.slc.cpg/sg42_5_cif.got.tgz:8803.got - 2010.04.14 02:04:31.
