data_PCOD8186032
_publ_section_title
;
Structure prediction by ZEFSAII (Michael W. Deem and Ramdas Pophale) SiO2 
 PCOD8186032
Probable space group: F M M 2
;
_chemical_formula_sum "Si O2"
_cell_formula_units_Z 104
_cell_length_a 21.728546
_cell_length_b 13.416629
_cell_length_c 19.422962
_cell_angle_alpha 90.000000
_cell_angle_beta 90.000000
_cell_angle_gamma 90.000000
_cell_volume 5662.256474
_symmetry_space_group_name_H-M "F M M 2"
_symmetry_group_IT_number 42
_symmetry_cell_setting 'orthorhombic'
loop_
_space_group_symop_operation_xyz
x,y,z
-x,-y,z
-x,y,z
x,-y,z
x,1/2+y,1/2+z
-x,1/2-y,1/2+z
-x,1/2+y,1/2+z
x,1/2-y,1/2+z
1/2+x,y,1/2+z
1/2-x,-y,1/2+z
1/2-x,y,1/2+z
1/2+x,-y,1/2+z
1/2+x,1/2+y,z
1/2-x,1/2-y,z
1/2-x,1/2+y,z
1/2+x,1/2-y,z
loop_
_atom_site_type_symbol
_atom_site_label
_atom_site_fract_x
_atom_site_fract_y
_atom_site_fract_z
Si Si1 0.929519 0.287225 0.737830
Si Si2 0.571076 0.388190 0.639045
Si Si3 0.250000 0.750000 0.563602
Si Si4 0.368552 0.692182 0.500773
Si Si5 0.154983 0.890637 0.137502
Si Si6 0.068956 0.610805 0.875608
Si Si7 0.928163 0.609631 0.509344
O O1 0.918373 0.174533 0.709723
O O2 0.875642 0.355541 0.707837
O O3 0.919440 0.301511 0.819720
O O4 0.000000 0.320414 0.719545
O O5 0.500000 0.394764 0.620591
O O6 0.598019 0.500000 0.649748
O O7 0.602416 0.333229 0.574930
O O8 0.295318 0.690067 0.512525
O O9 0.211016 0.677552 0.612319
O O10 0.385135 0.615696 0.440670
O O11 0.392207 0.800207 0.472086
O O12 0.097403 0.892089 0.086267
O O13 0.183557 0.000000 0.147718
O O14 0.077233 0.500000 0.842748
O O15 0.000000 0.622968 0.905017
O O16 0.916511 0.500000 0.474684
O O17 0.000000 0.634638 0.511235
#
# Coordination Sequence:
#
# PCOD8186032 Si02
#       7
#    16  16   8  16  16  16  16
#     4  10  19  35  56  83 115 140 173 227 289 342
#     4  10  19  32  56  86 112 143 183 227 283 342
#     4  10  22  36  50  80 106 150 194 228 272 310
#     4  11  20  35  54  77 114 148 183 236 267 324
#     4  10  19  32  51  76 105 137 182 228 268 319
#     4  10  21  35  56  86 113 142 178 222 287 350
#     4   9  16  27  48  77 103 131 171 221 279 324
#
# _framework density 18.367235000000001
#
# number of rings (size 3 to 8) (size 9 to 14) (size 15 to 20)
#    0.000    2.000    3.077    2.769    0.000    4.000 
#    0.000    1.538    0.000    2.769    0.000    0.000 
#    0.000    0.000    0.000    0.000    0.000    0.000 
#
# Total GULP energy -322135.890206 kJ/mol
# GULP energy per Si atom -12389.841931 kJ/mol
# Density = 1.832543 g / cm^3
# Si number density = 18.367235 Si / 1000 Ang^3
#
#
#
# Elastic Constant Matrix: (Units=GPa)
#
#
# Indices 1 2 3 4 5 6 
#
# 1 97.6374 37.0642 38.9991 0.0000 0.0000 0.0000
# 2 37.0642 106.5175 37.4367 0.0000 0.0000 0.0000
# 3 38.9991 37.4367 83.8286 0.0000 0.0000 0.0000
# 4 0.0000 0.0000 0.0000 25.4503 0.0000 0.0000
# 5 0.0000 0.0000 0.0000 0.0000 20.1570 0.0000
# 6 0.0000 0.0000 0.0000 0.0000 0.0000 21.8518
#
#
#
# Elastic Compliance Matrix: (Units=1/GPa)
#
#
# Indices 1 2 3 4 5 6 
#
# 1 0.013299 -0.002910 -0.004887 0.000000 0.000000 0.000000
# 2 -0.002910 0.011773 -0.003904 0.000000 0.000000 0.000000
# 3 -0.004887 -0.003904 0.015946 0.000000 0.000000 0.000000
# 4 0.000000 0.000000 0.000000 0.039292 0.000000 0.000000
# 5 0.000000 0.000000 0.000000 0.000000 0.049610 0.000000
# 6 0.000000 0.000000 0.000000 0.000000 0.000000 0.045763
#
#
# Mechanical properties :
#
#
# Convention : Reuss Voigt Hill
#
# Bulk Modulus (GPa) = 56.76777 57.22039 56.99408
# Shear Modulus (GPa) = 24.39534 25.12405 24.75969
#
# Velocity S-wave (km/s) = 3.64840 3.70249 3.67554
# Velocity P-wave (km/s) = 6.98011 7.03556 7.00789
#
# Compressibility (1/GPa) = 0.01761563
#
# Stress axis : x y z
#
# Youngs Moduli (GPa) = 75.19517 84.94263 62.71063
#
# Poissons Ratio (x) = 0.24716 0.30650
# Poissons Ratio (y) = 0.21880 0.24481
# Poissons Ratio (z) = 0.36751 0.33160
#
# Static dielectric constant tensor:
#      x y z
#    x 3.289580 0.000000 0.000000 
#    y 0.000000 3.900450 0.000000 
#    z 0.000000 0.000000 3.015320 
# 
# 
# High freq. dielectric constant tensor:
#      x y z
#    x 1.696310 0.000000 0.000000 
#    y 0.000000 1.725050 0.000000 
#    z 0.000000 0.000000 1.676820 
# 
# From -- ./inp_files/26514.got.cif
#   From: 2010.03.12/outbox.cif.g09.slc.cpg/sg42_14_cif.got.tgz:26514.got - 2010.04.14 02:04:31.
