data_PCOD8186625
_publ_section_title
;
Structure prediction by ZEFSAII (Michael W. Deem and Ramdas Pophale) SiO2 
 PCOD8186625
Probable space group: F M M 2
;
_chemical_formula_sum "Si O2"
_cell_formula_units_Z 80
_cell_length_a 8.840432
_cell_length_b 25.990124
_cell_length_c 18.517887
_cell_angle_alpha 90.000000
_cell_angle_beta 90.000000
_cell_angle_gamma 90.000000
_cell_volume 4254.742379
_symmetry_space_group_name_H-M "F M M 2"
_symmetry_group_IT_number 42
_symmetry_cell_setting 'orthorhombic'
loop_
_space_group_symop_operation_xyz
x,y,z
-x,-y,z
-x,y,z
x,-y,z
x,1/2+y,1/2+z
-x,1/2-y,1/2+z
-x,1/2+y,1/2+z
x,1/2-y,1/2+z
1/2+x,y,1/2+z
1/2-x,-y,1/2+z
1/2-x,y,1/2+z
1/2+x,-y,1/2+z
1/2+x,1/2+y,z
1/2-x,1/2-y,z
1/2-x,1/2+y,z
1/2+x,1/2-y,z
loop_
_atom_site_type_symbol
_atom_site_label
_atom_site_fract_x
_atom_site_fract_y
_atom_site_fract_z
Si Si1 0.679891 0.408026 0.898630
Si Si2 0.335196 0.798414 0.733695
Si Si3 0.824830 0.500000 0.637568
Si Si4 0.331018 0.300453 0.404542
Si Si5 0.321562 0.090582 0.746061
Si Si6 0.821331 0.500000 0.986036
O O1 0.500000 0.409229 0.902088
O O2 0.736430 0.351643 0.922687
O O3 0.733835 0.424005 0.818785
O O4 0.747427 0.449063 0.953575
O O5 0.500000 0.796465 0.698582
O O6 0.250000 0.750000 0.698444
O O7 0.342281 0.792676 0.819353
O O8 0.261759 0.854115 0.716225
O O9 0.786657 0.549583 0.685083
O O10 0.712445 0.500000 0.570863
O O11 0.000000 0.500000 0.612788
O O12 0.500000 0.305495 0.437211
O O13 0.250000 0.250000 0.438521
O O14 0.500000 0.093962 0.765276
O O15 0.000000 0.500000 0.971768
#
# Coordination Sequence:
#
# PCOD8186625 Si02
#       6
#    16  16   8  16  16   8
#     4  11  21  34  55  82 109 139 179 221 262 314
#     4   8  14  24  41  69 102 134 165 199 244 297
#     4  10  21  38  57  75  99 133 173 218 269 320
#     4   9  16  28  47  75 109 141 173 212 262 311
#     4   9  18  33  54  79 107 137 170 213 264 313
#     4  12  25  40  55  73 103 139 177 224 275 322
#
# _framework density 18.802548000000002
#
# number of rings (size 3 to 8) (size 9 to 14) (size 15 to 20)
#    0.000    2.400    0.000    5.100    0.000    6.400 
#    0.000    0.000    0.000    1.200    0.000    5.600 
#    0.000    0.000    0.000    0.000    0.000    0.000 
#
# Total GULP energy -247919.225143 kJ/mol
# GULP energy per Si atom -12395.961257 kJ/mol
# Density = 1.875975 g / cm^3
# Si number density = 18.802548 Si / 1000 Ang^3
#
#
#
# Elastic Constant Matrix: (Units=GPa)
#
#
# Indices 1 2 3 4 5 6 
#
# 1 132.8193 64.3059 41.2302 0.0000 0.0000 0.0000
# 2 64.3059 163.2667 56.5450 0.0000 0.0000 0.0000
# 3 41.2302 56.5450 60.2334 0.0000 0.0000 0.0000
# 4 0.0000 0.0000 0.0000 -4.7013 0.0000 0.0000
# 5 0.0000 0.0000 0.0000 0.0000 22.2446 0.0000
# 6 0.0000 0.0000 0.0000 0.0000 0.0000 32.0255
#
#
#
# Elastic Compliance Matrix: (Units=1/GPa)
#
#
# Indices 1 2 3 4 5 6 
#
# 1 0.010137 -0.002355 -0.004728 0.000000 0.000000 0.000000
# 2 -0.002355 0.009623 -0.007421 0.000000 0.000000 0.000000
# 3 -0.004728 -0.007421 0.026805 0.000000 0.000000 0.000000
# 4 0.000000 0.000000 0.000000 -0.212706 0.000000 0.000000
# 5 0.000000 0.000000 0.000000 0.000000 0.044955 0.000000
# 6 0.000000 0.000000 0.000000 0.000000 0.000000 0.031225
#
#
# Mechanical properties :
#
#
# Convention : Reuss Voigt Hill
#
# Bulk Modulus (GPa) = 56.96007 75.60908 66.28457
# Shear Modulus (GPa) = -90.74402 22.86297 -33.94053
#
# Velocity S-wave (km/s) = -6.95459 3.49083 -4.25326
# Velocity P-wave (km/s) = 5.84199 7.51979 3.34802
#
# Compressibility (1/GPa) = 0.01755616
#
# Stress axis : x y z
#
# Youngs Moduli (GPa) = 98.64875 103.91851 37.30598
#
# Poissons Ratio (x) = 0.24475 0.17638
# Poissons Ratio (y) = 0.23234 0.27687
# Poissons Ratio (z) = 0.46639 0.77123
#
# Static dielectric constant tensor:
#      x y z
#    x 3.603200 0.000000 0.000000 
#    y 0.000000 3.959020 0.000000 
#    z 0.000000 0.000000 2.905710 
# 
# 
# High freq. dielectric constant tensor:
#      x y z
#    x 1.732560 0.000000 0.000000 
#    y 0.000000 1.757070 0.000000 
#    z 0.000000 0.000000 1.670780 
# 
# From -- ./inp_files/18235.got.cif
#   From: 2010.03.12/outbox.cif.g09.slc.cpg/sg42_10_cif.got.tgz:18235.got - 2010.04.14 02:04:31.
