data_PCOD8186390
_publ_section_title
;
Structure prediction by ZEFSAII (Michael W. Deem and Ramdas Pophale) SiO2 
 PCOD8186390
Probable space group: F M M 2
;
_chemical_formula_sum "Si O2"
_cell_formula_units_Z 96
_cell_length_a 16.514644
_cell_length_b 19.516710
_cell_length_c 14.497376
_cell_angle_alpha 90.000000
_cell_angle_beta 90.000000
_cell_angle_gamma 90.000000
_cell_volume 4672.671261
_symmetry_space_group_name_H-M "F M M 2"
_symmetry_group_IT_number 42
_symmetry_cell_setting 'orthorhombic'
loop_
_space_group_symop_operation_xyz
x,y,z
-x,-y,z
-x,y,z
x,-y,z
x,1/2+y,1/2+z
-x,1/2-y,1/2+z
-x,1/2+y,1/2+z
x,1/2-y,1/2+z
1/2+x,y,1/2+z
1/2-x,-y,1/2+z
1/2-x,y,1/2+z
1/2+x,-y,1/2+z
1/2+x,1/2+y,z
1/2-x,1/2-y,z
1/2-x,1/2+y,z
1/2+x,1/2-y,z
loop_
_atom_site_type_symbol
_atom_site_label
_atom_site_fract_x
_atom_site_fract_y
_atom_site_fract_z
Si Si1 0.323493 0.078952 0.790210
Si Si2 0.408571 0.184282 0.462557
Si Si3 0.807805 0.310610 0.285780
Si Si4 0.904148 0.577245 0.602766
Si Si5 0.095209 0.079638 0.481320
Si Si6 0.168716 0.794049 0.574651
O O1 0.238932 0.118203 0.795556
O O2 0.368655 0.104886 0.698684
O O3 0.384226 0.093215 0.874413
O O4 0.300069 0.000000 0.784064
O O5 0.500000 0.162602 0.452780
O O6 0.379519 0.189443 0.358388
O O7 0.365584 0.123584 0.521548
O O8 0.402190 0.254198 0.521159
O O9 0.750000 0.250000 0.317460
O O10 0.843309 0.296150 0.184356
O O11 0.876849 0.500000 0.582676
O O12 0.000000 0.584045 0.610114
O O13 0.157932 0.127271 0.539879
O O14 0.000000 0.096922 0.498375
O O15 0.112059 0.000000 0.507584
O O16 0.250000 0.750000 0.548169
#
# Coordination Sequence:
#
# PCOD8186390 Si02
#       6
#    16  16  16  16  16  16
#     4  10  20  35  59  88 116 150 191 235 286 342
#     4  11  23  38  59  84 111 150 193 236 293 351
#     4  11  24  40  57  82 115 148 187 237 289 346
#     4   9  18  34  56  84 117 150 189 236 282 335
#     4  10  21  38  62  91 121 155 196 244 296 347
#     4  11  23  40  60  83 116 154 194 242 292 348
#
# _framework density 20.544992000000001
#
# number of rings (size 3 to 8) (size 9 to 14) (size 15 to 20)
#    0.000    1.667    0.000    5.500    0.000    4.667 
#    0.000    6.667    0.000    2.000    0.000    0.000 
#    0.000    0.000    0.000    0.000    0.000    0.000 
#
# Total GULP energy -297502.568181 kJ/mol
# GULP energy per Si atom -12395.940341 kJ/mol
# Density = 2.049823 g / cm^3
# Si number density = 20.544992 Si / 1000 Ang^3
#
#
#
# Elastic Constant Matrix: (Units=GPa)
#
#
# Indices 1 2 3 4 5 6 
#
# 1 60.5854 41.4745 47.2368 0.0000 0.0000 0.0000
# 2 41.4745 108.5127 61.8251 0.0000 0.0000 0.0000
# 3 47.2368 61.8251 142.0736 0.0000 0.0000 0.0000
# 4 0.0000 0.0000 0.0000 31.9245 0.0000 0.0000
# 5 0.0000 0.0000 0.0000 0.0000 8.6871 0.0000
# 6 0.0000 0.0000 0.0000 0.0000 0.0000 31.7308
#
#
#
# Elastic Compliance Matrix: (Units=1/GPa)
#
#
# Indices 1 2 3 4 5 6 
#
# 1 0.025305 -0.006486 -0.005591 0.000000 0.000000 0.000000
# 2 -0.006486 0.013916 -0.003899 0.000000 0.000000 0.000000
# 3 -0.005591 -0.003899 0.010594 0.000000 0.000000 0.000000
# 4 0.000000 0.000000 0.000000 0.031324 0.000000 0.000000
# 5 0.000000 0.000000 0.000000 0.000000 0.115114 0.000000
# 6 0.000000 0.000000 0.000000 0.000000 0.000000 0.031515
#
#
# Mechanical properties :
#
#
# Convention : Reuss Voigt Hill
#
# Bulk Modulus (GPa) = 55.98286 68.02715 62.00500
# Shear Modulus (GPa) = 18.81996 25.17749 21.99873
#
# Velocity S-wave (km/s) = 3.02989 3.50448 3.27579
# Velocity P-wave (km/s) = 6.28875 7.03977 6.67483
#
# Compressibility (1/GPa) = 0.01786261
#
# Stress axis : x y z
#
# Youngs Moduli (GPa) = 39.51794 71.85839 94.39108
#
# Poissons Ratio (x) = 0.46610 0.52772
# Poissons Ratio (y) = 0.25633 0.36805
# Poissons Ratio (z) = 0.22094 0.28019
#
# Static dielectric constant tensor:
#      x y z
#    x 3.470210 0.000000 0.000000 
#    y 0.000000 4.023500 0.000000 
#    z 0.000000 0.000000 3.814800 
# 
# 
# High freq. dielectric constant tensor:
#      x y z
#    x 1.787120 0.000000 0.000000 
#    y 0.000000 1.817220 0.000000 
#    z 0.000000 0.000000 1.809890 
# 
# From -- ./inp_files/14002.got.cif
#   From: 2010.03.12/outbox.cif.g09.slc.cpg/sg42_8_cif.got.tgz:14002.got - 2010.04.14 02:04:31.
