data_PCOD8186666
_publ_section_title
;
Structure prediction by ZEFSAII (Michael W. Deem and Ramdas Pophale) SiO2 
 PCOD8186666
Probable space group: F M M 2
;
_chemical_formula_sum "Si O2"
_cell_formula_units_Z 112
_cell_length_a 14.104076
_cell_length_b 30.932970
_cell_length_c 12.313457
_cell_angle_alpha 90.000000
_cell_angle_beta 90.000000
_cell_angle_gamma 90.000000
_cell_volume 5372.126838
_symmetry_space_group_name_H-M "F M M 2"
_symmetry_group_IT_number 42
_symmetry_cell_setting 'orthorhombic'
loop_
_space_group_symop_operation_xyz
x,y,z
-x,-y,z
-x,y,z
x,-y,z
x,1/2+y,1/2+z
-x,1/2-y,1/2+z
-x,1/2+y,1/2+z
x,1/2-y,1/2+z
1/2+x,y,1/2+z
1/2-x,-y,1/2+z
1/2-x,y,1/2+z
1/2+x,-y,1/2+z
1/2+x,1/2+y,z
1/2-x,1/2-y,z
1/2-x,1/2+y,z
1/2+x,1/2-y,z
loop_
_atom_site_type_symbol
_atom_site_label
_atom_site_fract_x
_atom_site_fract_y
_atom_site_fract_z
Si Si1 0.644073 0.255183 0.619320
Si Si2 0.895859 0.307578 0.324187
Si Si3 0.759088 0.112488 0.056495
Si Si4 0.799693 0.306556 0.922261
Si Si5 0.108587 0.049590 0.657257
Si Si6 0.605476 0.833692 0.700908
Si Si7 0.393816 0.095099 0.372099
O O1 0.750000 0.250000 0.663055
O O2 0.595208 0.287900 0.703550
O O3 0.641962 0.272665 0.496072
O O4 0.598227 0.207331 0.619361
O O5 0.806450 0.288137 0.392307
O O6 0.874507 0.358728 0.313739
O O7 0.000000 0.300097 0.379986
O O8 0.679045 0.079166 0.090032
O O9 0.821135 0.130428 0.157616
O O10 0.708023 0.151218 0.995509
O O11 0.827196 0.086987 0.974556
O O12 0.861460 0.315701 0.816706
O O13 0.124911 0.057662 0.784969
O O14 0.000000 0.061075 0.625873
O O15 0.131659 0.000000 0.631429
O O16 0.500000 0.853985 0.710661
O O17 0.500000 0.093249 0.417684
#
# Coordination Sequence:
#
# PCOD8186666 Si02
#       7
#    16  16  16  16  16  16  16
#     4  12  23  39  58  81 122 162 210 261 309 358
#     4  10  21  39  62  87 117 158 209 261 308 355
#     4  11  21  40  65  91 124 160 195 250 307 365
#     4  11  23  40  61  84 120 163 207 256 307 368
#     4  10  22  41  66  98 128 154 193 242 295 368
#     4  12  27  42  60  88 121 161 211 264 308 354
#     4   9  19  36  63  92 120 160 205 246 298 362
#
# _framework density 20.848352999999999
#
# number of rings (size 3 to 8) (size 9 to 14) (size 15 to 20)
#    0.000    1.286    2.857    3.429    2.000    2.857 
#    0.000    0.000    0.000    1.286    0.000    0.000 
#    0.000    0.000    0.000    0.000    0.000    0.000 
#
# Total GULP energy -347121.063578 kJ/mol
# GULP energy per Si atom -12397.180842 kJ/mol
# Density = 2.080090 g / cm^3
# Si number density = 20.848353 Si / 1000 Ang^3
#
#
#
# Elastic Constant Matrix: (Units=GPa)
#
#
# Indices 1 2 3 4 5 6 
#
# 1 124.5073 49.8809 53.3389 0.0000 0.0000 0.0000
# 2 49.8809 72.8343 48.4400 0.0000 0.0000 0.0000
# 3 53.3389 48.4400 99.0906 0.0000 0.0000 0.0000
# 4 0.0000 0.0000 0.0000 25.2475 0.0000 0.0000
# 5 0.0000 0.0000 0.0000 0.0000 29.8477 0.0000
# 6 0.0000 0.0000 0.0000 0.0000 0.0000 27.4041
#
#
#
# Elastic Compliance Matrix: (Units=1/GPa)
#
#
# Indices 1 2 3 4 5 6 
#
# 1 0.011867 -0.005747 -0.003578 0.000000 0.000000 0.000000
# 2 -0.005747 0.023128 -0.008212 0.000000 0.000000 0.000000
# 3 -0.003578 -0.008212 0.016032 0.000000 0.000000 0.000000
# 4 0.000000 0.000000 0.000000 0.039608 0.000000 0.000000
# 5 0.000000 0.000000 0.000000 0.000000 0.033503 0.000000
# 6 0.000000 0.000000 0.000000 0.000000 0.000000 0.036491
#
#
# Mechanical properties :
#
#
# Convention : Reuss Voigt Hill
#
# Bulk Modulus (GPa) = 62.69013 66.63910 64.66461
# Shear Modulus (GPa) = 24.87290 26.15136 25.51213
#
# Velocity S-wave (km/s) = 3.45779 3.54554 3.50194
# Velocity P-wave (km/s) = 6.78797 6.98529 6.88734
#
# Compressibility (1/GPa) = 0.01595148
#
# Stress axis : x y z
#
# Youngs Moduli (GPa) = 84.26603 43.23846 62.37397
#
# Poissons Ratio (x) = 0.24851 0.22319
# Poissons Ratio (y) = 0.48432 0.51222
# Poissons Ratio (z) = 0.30153 0.35508
#
# Static dielectric constant tensor:
#      x y z
#    x 3.939080 0.000000 0.000000 
#    y 0.000000 3.585910 0.000000 
#    z 0.000000 0.000000 3.727800 
# 
# 
# High freq. dielectric constant tensor:
#      x y z
#    x 1.826970 0.000000 0.000000 
#    y 0.000000 1.787700 0.000000 
#    z 0.000000 0.000000 1.816590 
# 
# From -- ./inp_files/8119.got.cif
#   From: 2010.03.12/outbox.cif.g09.slc.cpg/sg42_5_cif.got.tgz:8119.got - 2010.04.14 02:04:31.
