data_PCOD8186309
_publ_section_title
;
Structure prediction by ZEFSAII (Michael W. Deem and Ramdas Pophale) SiO2 
 PCOD8186309
Probable space group: F M M 2
;
_chemical_formula_sum "Si O2"
_cell_formula_units_Z 80
_cell_length_a 17.948002
_cell_length_b 28.991296
_cell_length_c 8.907311
_cell_angle_alpha 90.000000
_cell_angle_beta 90.000000
_cell_angle_gamma 90.000000
_cell_volume 4634.793139
_symmetry_space_group_name_H-M "F M M 2"
_symmetry_group_IT_number 42
_symmetry_cell_setting 'orthorhombic'
loop_
_space_group_symop_operation_xyz
x,y,z
-x,-y,z
-x,y,z
x,-y,z
x,1/2+y,1/2+z
-x,1/2-y,1/2+z
-x,1/2+y,1/2+z
x,1/2-y,1/2+z
1/2+x,y,1/2+z
1/2-x,-y,1/2+z
1/2-x,y,1/2+z
1/2+x,-y,1/2+z
1/2+x,1/2+y,z
1/2-x,1/2-y,z
1/2-x,1/2+y,z
1/2+x,1/2-y,z
loop_
_atom_site_type_symbol
_atom_site_label
_atom_site_fract_x
_atom_site_fract_y
_atom_site_fract_z
Si Si1 0.175356 0.622933 0.510480
Si Si2 0.175356 0.877067 0.677065
Si Si3 0.085350 0.202676 0.520507
Si Si4 0.585350 0.202676 0.667038
Si Si5 0.412141 0.446842 0.843773
O O1 0.193873 0.642846 0.343772
O O2 0.250000 0.607101 0.593772
O O3 0.134916 0.661275 0.607940
O O4 0.122214 0.577858 0.492342
O O5 0.134916 0.838725 0.579606
O O6 0.122214 0.922142 0.695203
O O7 0.094642 0.206816 0.343772
O O8 0.114119 0.250000 0.593772
O O9 0.000000 0.193356 0.567639
O O10 0.500000 0.193356 0.619906
O O11 0.500000 0.440105 0.843774
O O12 0.388779 0.500000 0.843773
#
# Coordination Sequence:
#
# PCOD8186309 Si02
#       5
#    16  16  16  16  16
#     4  10  21  35  56  82 116 148 189 234 288 337
#     4  10  21  35  56  82 116 148 189 234 288 337
#     4  10  20  34  55  82 115 156 197 235 280 338
#     4  10  20  34  55  82 115 156 197 235 280 338
#     4   9  20  38  62  85 109 149 195 238 287 344
#
# _framework density 17.260749000000001
#
# number of rings (size 3 to 8) (size 9 to 14) (size 15 to 20)
#    1.200    1.000    0.000    3.600    0.000    3.200 
#    0.000    4.000    0.000    0.000    0.000    8.400 
#    0.000    0.000    0.000    0.000    0.000    0.000 
#
# Total GULP energy -247920.707764 kJ/mol
# GULP energy per Si atom -12396.035388 kJ/mol
# Density = 1.722146 g / cm^3
# Si number density = 17.260749 Si / 1000 Ang^3
#
#
#
# Elastic Constant Matrix: (Units=GPa)
#
#
# Indices 1 2 3 4 5 6 
#
# 1 106.6799 73.3917 39.7734 0.0000 0.0000 0.0000
# 2 73.3917 140.6859 39.9916 0.0000 0.0000 0.0000
# 3 39.7734 39.9916 79.5964 0.0000 -0.0001 0.0000
# 4 0.0000 0.0000 0.0000 23.2182 0.0000 0.0000
# 5 0.0000 0.0000 -0.0001 0.0000 36.4673 0.0000
# 6 0.0000 0.0000 0.0000 0.0000 0.0000 0.1266
#
#
#
# Elastic Compliance Matrix: (Units=1/GPa)
#
#
# Indices 1 2 3 4 5 6 
#
# 1 0.015835 -0.007013 -0.004389 0.000000 0.000000 0.000000
# 2 -0.007013 0.011398 -0.002223 0.000000 0.000000 -0.000001
# 3 -0.004389 -0.002223 0.015873 0.000000 0.000000 0.000002
# 4 0.000000 0.000000 0.000000 0.043070 0.000000 -0.000001
# 5 0.000000 0.000000 0.000000 0.000000 0.027422 -0.000003
# 6 0.000000 -0.000001 0.000002 -0.000001 -0.000003 7.898256
#
#
# Mechanical properties :
#
#
# Convention : Reuss Voigt Hill
#
# Bulk Modulus (GPa) = 63.06224 70.36397 66.71310
# Shear Modulus (GPa) = 0.62155 23.54947 12.08551
#
# Velocity S-wave (km/s) = 0.60073 3.69770 2.64895
# Velocity P-wave (km/s) = 6.09061 7.68664 6.93469
#
# Compressibility (1/GPa) = 0.01585735
#
# Stress axis : x y z
#
# Youngs Moduli (GPa) = 63.15204 87.73263 62.99947
#
# Poissons Ratio (x) = 0.61526 0.27650
# Poissons Ratio (y) = 0.44288 0.14002
# Poissons Ratio (z) = 0.27717 0.19499
#
# Static dielectric constant tensor:
#      x y z
#    x 3.228220 0.000000 0.000000 
#    y 0.000000 3.090470 0.000000 
#    z 0.000000 0.000000 3.198250 
# 
# 
# High freq. dielectric constant tensor:
#      x y z
#    x 1.672480 0.000000 0.000000 
#    y 0.000000 1.658040 0.000000 
#    z 0.000000 0.000000 1.665060 
# 
# From -- ./inp_files/3577.got.cif
#   From: 2010.03.12/outbox.cif.g09.slc.cpg/sg42_2_cif.got.tgz:3577.got - 2010.04.14 02:04:31.
