data_PCOD8186288
_publ_section_title
;
Structure prediction by ZEFSAII (Michael W. Deem and Ramdas Pophale) SiO2 
 PCOD8186288
Probable space group: F M M 2
;
_chemical_formula_sum "Si O2"
_cell_formula_units_Z 96
_cell_length_a 31.105762
_cell_length_b 8.723383
_cell_length_c 19.165979
_cell_angle_alpha 90.000000
_cell_angle_beta 90.000000
_cell_angle_gamma 90.000000
_cell_volume 5200.640016
_symmetry_space_group_name_H-M "F M M 2"
_symmetry_group_IT_number 42
_symmetry_cell_setting 'orthorhombic'
loop_
_space_group_symop_operation_xyz
x,y,z
-x,-y,z
-x,y,z
x,-y,z
x,1/2+y,1/2+z
-x,1/2-y,1/2+z
-x,1/2+y,1/2+z
x,1/2-y,1/2+z
1/2+x,y,1/2+z
1/2-x,-y,1/2+z
1/2-x,y,1/2+z
1/2+x,-y,1/2+z
1/2+x,1/2+y,z
1/2-x,1/2-y,z
1/2-x,1/2+y,z
1/2+x,1/2-y,z
loop_
_atom_site_type_symbol
_atom_site_label
_atom_site_fract_x
_atom_site_fract_y
_atom_site_fract_z
Si Si1 0.704518 0.180308 0.737540
Si Si2 0.205027 0.179180 0.884543
Si Si3 0.452907 0.177373 0.642025
Si Si4 0.362353 0.673096 0.479712
Si Si5 0.633579 0.824745 0.144954
Si Si6 0.545873 0.174088 0.997128
O O1 0.750000 0.250000 0.713924
O O2 0.689853 0.246881 0.812023
O O3 0.669354 0.219582 0.680000
O O4 0.709688 0.000000 0.744291
O O5 0.250000 0.250000 0.910058
O O6 0.169488 0.208897 0.943354
O O7 0.211168 0.000000 0.873654
O O8 0.500000 0.221627 0.674428
O O9 0.413620 0.275928 0.673801
O O10 0.455068 0.205696 0.559557
O O11 0.442943 0.000000 0.655744
O O12 0.347444 0.500000 0.462428
O O13 0.362873 0.702210 0.562369
O O14 0.411285 0.703409 0.450795
O O15 0.641813 0.000000 0.165770
O O16 0.500000 0.189360 0.955409
O O17 0.550138 0.000000 0.027838
#
# Coordination Sequence:
#
# PCOD8186288 Si02
#       6
#    16  16  16  16  16  16
#     4  11  22  38  58  77 101 132 169 210 255 310
#     4  11  22  37  56  75  99 132 171 210 252 306
#     4   9  16  26  43  70 103 136 170 208 251 299
#     4   9  18  32  51  77 107 135 167 209 253 296
#     4  10  20  34  53  78 107 137 172 213 256 300
#     4   8  14  26  45  69  99 135 170 204 246 297
#
# _framework density 18.459268000000002
#
# number of rings (size 3 to 8) (size 9 to 14) (size 15 to 20)
#    0.000    2.333    0.000    6.000    0.000    5.000 
#    0.000    0.000    0.000    1.000    0.000    2.333 
#    0.000    0.000    0.000    0.000    0.000    0.000 
#
# Total GULP energy -297424.239334 kJ/mol
# GULP energy per Si atom -12392.676639 kJ/mol
# Density = 1.841725 g / cm^3
# Si number density = 18.459268 Si / 1000 Ang^3
#
#
#
# Elastic Constant Matrix: (Units=GPa)
#
#
# Indices 1 2 3 4 5 6 
#
# 1 148.5216 52.0716 47.5225 0.0000 0.0000 0.0000
# 2 52.0716 116.1676 26.7916 0.0000 0.0000 0.0000
# 3 47.5225 26.7916 38.4918 0.0000 0.0000 0.0000
# 4 0.0000 0.0000 0.0000 22.3999 0.0000 0.0000
# 5 0.0000 0.0000 0.0000 0.0000 -0.6564 0.0000
# 6 0.0000 0.0000 0.0000 0.0000 0.0000 32.6704
#
#
#
# Elastic Compliance Matrix: (Units=1/GPa)
#
#
# Indices 1 2 3 4 5 6 
#
# 1 0.011608 -0.002261 -0.012757 0.000000 0.000000 0.000000
# 2 -0.002261 0.010695 -0.004653 0.000000 0.000000 0.000000
# 3 -0.012757 -0.004653 0.044968 0.000000 0.000000 0.000000
# 4 0.000000 0.000000 0.000000 0.044643 0.000001 0.000000
# 5 0.000000 0.000000 0.000000 0.000001 -1.523381 0.000000
# 6 0.000000 0.000000 0.000000 0.000000 0.000000 0.030609
#
#
# Mechanical properties :
#
#
# Convention : Reuss Voigt Hill
#
# Bulk Modulus (GPa) = 35.80493 61.77248 48.78870
# Shear Modulus (GPa) = -3.75317 22.66913 9.45798
#
# Velocity S-wave (km/s) = -1.42746 3.50817 2.26602
# Velocity P-wave (km/s) = 4.08925 7.06729 5.77358
#
# Compressibility (1/GPa) = 0.02792912
#
# Stress axis : x y z
#
# Youngs Moduli (GPa) = 86.14998 93.50431 22.23787
#
# Poissons Ratio (x) = 0.21140 0.28370
# Poissons Ratio (y) = 0.19477 0.10346
# Poissons Ratio (z) = 1.09905 0.43504
#
# Static dielectric constant tensor:
#      x y z
#    x 3.842270 0.000000 0.000000 
#    y 0.000000 3.428790 0.000000 
#    z 0.000000 0.000000 2.867790 
# 
# 
# High freq. dielectric constant tensor:
#      x y z
#    x 1.742260 0.000000 0.000000 
#    y 0.000000 1.725580 0.000000 
#    z 0.000000 0.000000 1.654010 
# 
# From -- ./inp_files/23730.got.cif
#   From: 2010.03.12/outbox.cif.g09.slc.cpg/sg42_12_cif.got.tgz:23730.got - 2010.04.14 02:04:31.
