data_PCOD8186953
_publ_section_title
;
Structure prediction by ZEFSAII (Michael W. Deem and Ramdas Pophale) SiO2 
 PCOD8186953
Probable space group: F D D 2
;
_chemical_formula_sum "Si O2"
_cell_formula_units_Z 104
_cell_length_a 24.377456
_cell_length_b 16.230192
_cell_length_c 11.879312
_cell_angle_alpha 90.000000
_cell_angle_beta 90.000000
_cell_angle_gamma 90.000000
_cell_volume 4700.059194
_symmetry_space_group_name_H-M "F D D 2"
_symmetry_group_IT_number 43
_symmetry_cell_setting 'orthorhombic'
loop_
_space_group_symop_operation_xyz
x,y,z
-x,-y,z
1/4-x,1/4+y,1/4+z
1/4+x,1/4-y,1/4+z
x,1/2+y,1/2+z
-x,1/2-y,1/2+z
1/4-x,3/4+y,3/4+z
1/4+x,3/4-y,3/4+z
1/2+x,y,1/2+z
1/2-x,-y,1/2+z
3/4-x,1/4+y,3/4+z
3/4+x,1/4-y,3/4+z
1/2+x,1/2+y,z
1/2-x,1/2-y,z
3/4-x,3/4+y,1/4+z
3/4+x,3/4-y,1/4+z
loop_
_atom_site_type_symbol
_atom_site_label
_atom_site_fract_x
_atom_site_fract_y
_atom_site_fract_z
Si Si1 0.464903 0.222525 0.289690
Si Si2 0.582933 0.187740 0.346968
Si Si3 0.501649 0.390892 0.392857
Si Si4 0.831117 0.946201 0.800611
Si Si5 0.000000 0.500000 0.698737
Si Si6 0.637000 0.318207 0.179884
Si Si7 0.882781 0.990747 0.183593
O O1 0.518761 0.168473 0.320086
O O2 0.472693 0.310047 0.346427
O O3 0.455051 0.226027 0.156098
O O4 0.408200 0.193402 0.347987
O O5 0.613110 0.100033 0.336841
O O6 0.592359 0.224477 0.472316
O O7 0.603065 0.258001 0.260582
O O8 0.547619 0.373558 0.484260
O O9 0.527062 0.431294 0.281186
O O10 0.452880 0.447956 0.446154
O O11 0.945004 0.472122 0.632549
O O12 0.624753 0.412711 0.206171
O O13 0.621223 0.303937 0.050925
#
# Coordination Sequence:
#
# PCOD8186953 Si02
#       7
#    16  16  16  16   8  16  16
#     4  10  24  41  60  90 133 172 208 254 330 389
#     4  11  24  40  66  95 124 173 213 266 328 379
#     4   9  20  39  64  95 118 160 203 268 320 366
#     4  11  24  42  64  92 131 168 216 262 321 399
#     4  10  18  38  64  96 120 144 222 264 306 368
#     4  10  20  37  67  92 124 150 218 259 324 373
#     4  10  21  38  62  95 121 167 201 272 314 380
#
# _framework density 22.127379999999999
#
# number of rings (size 3 to 8) (size 9 to 14) (size 15 to 20)
#    0.000    1.846    0.000    4.615    8.615    3.692 
#    2.769    0.000    0.000    0.000    0.000    0.000 
#    0.000    0.000    0.000    0.000    0.000    0.000 
#
# Total GULP energy -322142.264182 kJ/mol
# GULP energy per Si atom -12390.087084 kJ/mol
# Density = 2.207702 g / cm^3
# Si number density = 22.127380 Si / 1000 Ang^3
#
#
#
# Elastic Constant Matrix: (Units=GPa)
#
#
# Indices 1 2 3 4 5 6 
#
# 1 164.5918 17.7488 51.7819 0.0000 0.0000 0.0000
# 2 17.7488 15.6696 10.3334 0.0000 0.0000 0.0000
# 3 51.7819 10.3334 94.5047 0.0000 0.0000 0.0000
# 4 0.0000 0.0000 0.0000 4.6365 0.0000 0.0000
# 5 0.0000 0.0000 0.0000 0.0000 34.0531 0.0000
# 6 0.0000 0.0000 0.0000 0.0000 0.0000 24.4106
#
#
#
# Elastic Compliance Matrix: (Units=1/GPa)
#
#
# Indices 1 2 3 4 5 6 
#
# 1 0.007926 -0.006589 -0.003622 0.000000 0.000000 0.000000
# 2 -0.006589 0.074254 -0.004509 0.000000 0.000000 0.000000
# 3 -0.003622 -0.004509 0.013059 0.000000 0.000000 0.000000
# 4 0.000000 0.000000 0.000000 0.215682 0.000000 0.000000
# 5 0.000000 0.000000 0.000000 0.000000 0.029366 0.000000
# 6 0.000000 0.000000 0.000000 0.000000 0.000000 0.040966
#
#
# Mechanical properties :
#
#
# Convention : Reuss Voigt Hill
#
# Bulk Modulus (GPa) = 15.19771 48.27713 31.73742
# Shear Modulus (GPa) = 11.55732 25.61350 18.58541
#
# Velocity S-wave (km/s) = 2.28789 3.40597 2.90130
# Velocity P-wave (km/s) = 3.72323 6.11005 5.05940
#
# Compressibility (1/GPa) = 0.06579939
#
# Stress axis : x y z
#
# Youngs Moduli (GPa) = 126.17114 13.46720 76.57380
#
# Poissons Ratio (x) = 0.08873 0.27737
# Poissons Ratio (y) = 0.83130 0.34528
# Poissons Ratio (z) = 0.45703 0.06072
#
# Static dielectric constant tensor:
#      x y z
#    x 4.870950 0.000000 0.000000 
#    y 0.000000 3.876060 0.000000 
#    z 0.000000 0.000000 3.869490 
# 
# 
# High freq. dielectric constant tensor:
#      x y z
#    x 1.895540 0.000000 0.000000 
#    y 0.000000 1.854360 0.000000 
#    z 0.000000 0.000000 1.854840 
# 
# From -- ./inp_files/7944.got.cif
#   From: 2010.06.25/outbox.cif.g09.slc.cpg/sg43_4_cif.got.tgz:7944.got - 2010.06.26 16:48:59.
