data_PCOD8186103
_publ_section_title
;
Structure prediction by ZEFSAII (Michael W. Deem and Ramdas Pophale) SiO2 
 PCOD8186103
Probable space group: F M M 2
;
_chemical_formula_sum "Si O2"
_cell_formula_units_Z 96
_cell_length_a 27.833682
_cell_length_b 8.740668
_cell_length_c 20.254979
_cell_angle_alpha 90.000000
_cell_angle_beta 90.000000
_cell_angle_gamma 90.000000
_cell_volume 4927.732031
_symmetry_space_group_name_H-M "F M M 2"
_symmetry_group_IT_number 42
_symmetry_cell_setting 'orthorhombic'
loop_
_space_group_symop_operation_xyz
x,y,z
-x,-y,z
-x,y,z
x,-y,z
x,1/2+y,1/2+z
-x,1/2-y,1/2+z
-x,1/2+y,1/2+z
x,1/2-y,1/2+z
1/2+x,y,1/2+z
1/2-x,-y,1/2+z
1/2-x,y,1/2+z
1/2+x,-y,1/2+z
1/2+x,1/2+y,z
1/2-x,1/2-y,z
1/2-x,1/2+y,z
1/2+x,1/2-y,z
loop_
_atom_site_type_symbol
_atom_site_label
_atom_site_fract_x
_atom_site_fract_y
_atom_site_fract_z
Si Si1 0.555378 0.823081 0.433180
Si Si2 0.056212 0.325169 0.673571
Si Si3 0.601260 0.676555 0.796464
Si Si4 0.700200 0.180445 0.594578
Si Si5 0.607235 0.677876 0.553220
Si Si6 0.798609 0.177979 0.736395
O O1 0.500000 0.787438 0.417190
O O2 0.587294 0.775765 0.370376
O O3 0.571575 0.722578 0.494754
O O4 0.562695 0.000000 0.451771
O O5 0.071492 0.500000 0.659776
O O6 0.070561 0.280661 0.747511
O O7 0.083013 0.215341 0.622932
O O8 0.000000 0.302658 0.664135
O O9 0.587859 0.500000 0.783053
O O10 0.658181 0.705055 0.787622
O O11 0.750000 0.250000 0.568027
O O12 0.657527 0.232000 0.545912
O O13 0.688318 0.240423 0.667854
O O14 0.704484 0.000000 0.595592
O O15 0.618619 0.500000 0.550626
O O16 0.750000 0.250000 0.766999
O O17 0.790046 0.000000 0.721715
#
# Coordination Sequence:
#
# PCOD8186103 Si02
#       6
#    16  16  16  16  16  16
#     4  10  22  41  62  84 116 160 204 248 303 359
#     4  11  23  37  57  86 117 150 194 249 302 354
#     4  10  21  38  61  87 117 155 199 244 296 358
#     4  11  21  36  60  89 121 155 193 242 298 353
#     4  12  24  39  59  86 118 156 201 247 298 354
#     4  10  19  33  56  88 121 155 194 238 291 352
#
# _framework density 19.481579
#
# number of rings (size 3 to 8) (size 9 to 14) (size 15 to 20)
#    0.000    1.333    1.667    6.000    0.000    5.667 
#    0.000    0.833    0.000    2.000    0.000    0.000 
#    0.000    0.000    0.000    0.000    0.000    0.000 
#
# Total GULP energy -297733.963698 kJ/mol
# GULP energy per Si atom -12405.581821 kJ/mol
# Density = 1.943724 g / cm^3
# Si number density = 19.481579 Si / 1000 Ang^3
#
#
#
# Elastic Constant Matrix: (Units=GPa)
#
#
# Indices 1 2 3 4 5 6 
#
# 1 107.9495 51.0935 31.8298 0.0000 0.0000 0.0000
# 2 51.0935 123.3517 28.8337 0.0000 0.0000 0.0000
# 3 31.8298 28.8337 68.0270 0.0000 0.0000 0.0000
# 4 0.0000 0.0000 0.0000 28.8868 0.0000 0.0000
# 5 0.0000 0.0000 0.0000 0.0000 35.0203 0.0000
# 6 0.0000 0.0000 0.0000 0.0000 0.0000 31.1530
#
#
#
# Elastic Compliance Matrix: (Units=1/GPa)
#
#
# Indices 1 2 3 4 5 6 
#
# 1 0.012448 -0.004212 -0.004039 0.000000 0.000000 0.000000
# 2 -0.004212 0.010424 -0.002447 0.000000 0.000000 0.000000
# 3 -0.004039 -0.002447 0.017627 0.000000 0.000000 0.000000
# 4 0.000000 0.000000 0.000000 0.034618 0.000000 0.000000
# 5 0.000000 0.000000 0.000000 0.000000 0.028555 0.000000
# 6 0.000000 0.000000 0.000000 0.000000 0.000000 0.032100
#
#
# Mechanical properties :
#
#
# Convention : Reuss Voigt Hill
#
# Bulk Modulus (GPa) = 52.35045 58.09358 55.22202
# Shear Modulus (GPa) = 30.57434 31.51677 31.04555
#
# Velocity S-wave (km/s) = 3.96586 4.02652 3.99630
# Velocity P-wave (km/s) = 6.92104 7.17646 7.04991
#
# Compressibility (1/GPa) = 0.01910203
#
# Stress axis : x y z
#
# Youngs Moduli (GPa) = 80.33315 95.93604 56.73020
#
# Poissons Ratio (x) = 0.40408 0.22915
# Poissons Ratio (y) = 0.33836 0.13884
# Poissons Ratio (z) = 0.32448 0.23479
#
# Static dielectric constant tensor:
#      x y z
#    x 3.886240 0.000000 0.000000 
#    y 0.000000 3.598870 0.000000 
#    z 0.000000 0.000000 3.302580 
# 
# 
# High freq. dielectric constant tensor:
#      x y z
#    x 1.778110 0.000000 0.000000 
#    y 0.000000 1.766560 0.000000 
#    z 0.000000 0.000000 1.733470 
# 
# From -- ./inp_files/23705.got.cif
#   From: 2010.03.12/outbox.cif.g09.slc.cpg/sg42_12_cif.got.tgz:23705.got - 2010.04.14 02:04:31.
