data_PCOD8186311
_publ_section_title
;
Structure prediction by ZEFSAII (Michael W. Deem and Ramdas Pophale) SiO2 
 PCOD8186311
Probable space group: F M M 2
;
_chemical_formula_sum "Si O2"
_cell_formula_units_Z 104
_cell_length_a 18.644498
_cell_length_b 16.648636
_cell_length_c 15.648227
_cell_angle_alpha 90.000000
_cell_angle_beta 90.000000
_cell_angle_gamma 90.000000
_cell_volume 4857.295110
_symmetry_space_group_name_H-M "F M M 2"
_symmetry_group_IT_number 42
_symmetry_cell_setting 'orthorhombic'
loop_
_space_group_symop_operation_xyz
x,y,z
-x,-y,z
-x,y,z
x,-y,z
x,1/2+y,1/2+z
-x,1/2-y,1/2+z
-x,1/2+y,1/2+z
x,1/2-y,1/2+z
1/2+x,y,1/2+z
1/2-x,-y,1/2+z
1/2-x,y,1/2+z
1/2+x,-y,1/2+z
1/2+x,1/2+y,z
1/2-x,1/2-y,z
1/2-x,1/2+y,z
1/2+x,1/2-y,z
loop_
_atom_site_type_symbol
_atom_site_label
_atom_site_fract_x
_atom_site_fract_y
_atom_site_fract_z
Si Si1 0.298698 0.909811 0.818870
Si Si2 0.169261 0.143707 0.713696
Si Si3 0.250000 0.250000 0.101031
Si Si4 0.580627 0.143489 0.385937
Si Si5 0.919875 0.826613 0.400562
Si Si6 0.421100 0.088738 0.066673
Si Si7 0.208703 0.908442 0.989064
O O1 0.247527 0.889242 0.739562
O O2 0.368031 0.851405 0.822039
O O3 0.256104 0.896803 0.905769
O O4 0.326875 0.000000 0.808307
O O5 0.182786 0.227695 0.663278
O O6 0.116221 0.148140 0.792976
O O7 0.131693 0.084742 0.646764
O O8 0.227717 0.168076 0.049693
O O9 0.500000 0.106928 0.379398
O O10 0.577660 0.233411 0.418565
O O11 0.626294 0.094017 0.455520
O O12 0.887359 0.861256 0.488811
O O13 0.000000 0.860180 0.382250
O O14 0.500000 0.122927 0.092606
O O15 0.428907 0.000000 0.030077
O O16 0.220681 0.000000 0.028095
#
# Coordination Sequence:
#
# PCOD8186311 Si02
#       7
#    16  16   8  16  16  16  16
#     4  10  20  35  56  83 117 154 198 249 296 355
#     4  11  22  36  56  85 117 155 195 237 297 356
#     4  12  24  38  60  86 124 162 196 252 304 358
#     4  10  21  39  61  84 114 153 199 247 291 345
#     4  10  20  35  57  84 114 152 197 242 294 353
#     4  10  20  34  55  84 114 142 180 238 302 355
#     4  10  22  39  61  89 118 157 206 248 296 358
#
# _framework density 21.411093000000001
#
# number of rings (size 3 to 8) (size 9 to 14) (size 15 to 20)
#    0.000    1.692    0.000    5.077    0.000    6.769 
#    0.000    0.769    0.000    0.923    0.000    2.154 
#    0.000    0.000    0.000    0.000    0.000    0.000 
#
# Total GULP energy -322119.224146 kJ/mol
# GULP energy per Si atom -12389.200929 kJ/mol
# Density = 2.136236 g / cm^3
# Si number density = 21.411093 Si / 1000 Ang^3
#
#
#
# Elastic Constant Matrix: (Units=GPa)
#
#
# Indices 1 2 3 4 5 6 
#
# 1 116.9741 22.1043 39.1466 0.0000 0.0000 0.0000
# 2 22.1043 93.4773 18.4263 0.0000 0.0000 0.0000
# 3 39.1466 18.4263 66.1646 0.0000 0.0000 0.0000
# 4 0.0000 0.0000 0.0000 25.9527 0.0000 0.0000
# 5 0.0000 0.0000 0.0000 0.0000 36.7635 0.0000
# 6 0.0000 0.0000 0.0000 0.0000 0.0000 -11.8827
#
#
#
# Elastic Compliance Matrix: (Units=1/GPa)
#
#
# Indices 1 2 3 4 5 6 
#
# 1 0.010823 -0.001372 -0.006021 0.000000 0.000000 0.000000
# 2 -0.001372 0.011493 -0.002389 0.000000 0.000000 0.000000
# 3 -0.006021 -0.002389 0.019342 0.000000 0.000000 0.000000
# 4 0.000000 0.000000 0.000000 0.038532 0.000000 0.000000
# 5 0.000000 0.000000 0.000000 0.000000 0.027201 0.000000
# 6 0.000000 0.000000 0.000000 0.000000 0.000000 -0.084156
#
#
# Mechanical properties :
#
#
# Convention : Reuss Voigt Hill
#
# Bulk Modulus (GPa) = 45.26333 48.44116 46.85224
# Shear Modulus (GPa) = 99.67249 23.29596 61.48423
#
# Velocity S-wave (km/s) = 6.83029 3.30211 5.36455
# Velocity P-wave (km/s) = 9.13180 6.10017 7.76537
#
# Compressibility (1/GPa) = 0.02209294
#
# Stress axis : x y z
#
# Youngs Moduli (GPa) = 92.39243 87.00809 51.70176
#
# Poissons Ratio (x) = 0.11941 0.31132
# Poissons Ratio (y) = 0.12680 0.12350
# Poissons Ratio (z) = 0.55634 0.20784
#
# Static dielectric constant tensor:
#      x y z
#    x 4.354400 0.000000 0.000000 
#    y 0.000000 3.974550 0.000000 
#    z 0.000000 0.000000 3.805970 
# 
# 
# High freq. dielectric constant tensor:
#      x y z
#    x 1.849860 0.000000 0.000000 
#    y 0.000000 1.839850 0.000000 
#    z 0.000000 0.000000 1.824210 
# 
# From -- ./inp_files/16001.got.cif
#   From: 2010.03.12/outbox.cif.g09.slc.cpg/sg42_9_cif.got.tgz:16001.got - 2010.04.14 02:04:31.
