data_PCOD8186168
_publ_section_title
;
Structure prediction by ZEFSAII (Michael W. Deem and Ramdas Pophale) SiO2 
 PCOD8186168
Probable space group: F M M 2
;
_chemical_formula_sum "Si O2"
_cell_formula_units_Z 96
_cell_length_a 14.554727
_cell_length_b 22.232825
_cell_length_c 13.915981
_cell_angle_alpha 90.000000
_cell_angle_beta 90.000000
_cell_angle_gamma 90.000000
_cell_volume 4503.109841
_symmetry_space_group_name_H-M "F M M 2"
_symmetry_group_IT_number 42
_symmetry_cell_setting 'orthorhombic'
loop_
_space_group_symop_operation_xyz
x,y,z
-x,-y,z
-x,y,z
x,-y,z
x,1/2+y,1/2+z
-x,1/2-y,1/2+z
-x,1/2+y,1/2+z
x,1/2-y,1/2+z
1/2+x,y,1/2+z
1/2-x,-y,1/2+z
1/2-x,y,1/2+z
1/2+x,-y,1/2+z
1/2+x,1/2+y,z
1/2-x,1/2-y,z
1/2-x,1/2+y,z
1/2+x,1/2-y,z
loop_
_atom_site_type_symbol
_atom_site_label
_atom_site_fract_x
_atom_site_fract_y
_atom_site_fract_z
Si Si1 0.323727 0.432804 0.933660
Si Si2 0.000000 0.693861 0.614038
Si Si3 0.500000 0.564181 0.063179
Si Si4 0.000000 0.433140 0.908913
Si Si5 0.844493 0.609252 0.038831
Si Si6 0.000000 0.699867 0.834074
Si Si7 0.141205 0.738504 0.987075
Si Si8 0.897611 0.070311 0.737937
O O1 0.281823 0.500000 0.923089
O O2 0.345545 0.402308 0.830344
O O3 0.414973 0.434397 0.993380
O O4 0.253492 0.389529 0.987293
O O5 0.000000 0.621804 0.631875
O O6 0.000000 0.720286 0.722293
O O7 0.091192 0.711159 0.552698
O O8 0.500000 0.500000 0.121351
O O9 0.000000 0.500000 0.857159
O O10 0.000000 0.373933 0.840358
O O11 0.087860 0.432211 0.977842
O O12 0.878003 0.677623 0.046364
O O13 0.835393 0.583149 0.145622
O O14 0.090759 0.728973 0.883948
O O15 0.250000 0.750000 0.972473
O O16 0.000000 0.098189 0.724976
O O17 0.906786 0.000000 0.757276
#
# Coordination Sequence:
#
# PCOD8186168 Si02
#       8
#    16   8   8   8  16   8  16  16
#     4  10  20  37  59  92 131 164 205 258 311 372
#     4  11  23  45  67  94 124 163 212 261 307 373
#     4  10  21  40  65  90 129 168 198 252 321 376
#     4  10  19  36  63  92 131 168 194 250 317 372
#     4  11  21  38  61  92 126 165 212 259 309 370
#     4   9  23  43  67  94 124 159 214 257 303 377
#     4  10  23  46  64  88 126 166 211 263 312 360
#     4  10  19  35  62  92 125 167 213 258 308 365
#
# _framework density 21.318601999999998
#
# number of rings (size 3 to 8) (size 9 to 14) (size 15 to 20)
#    0.000    1.833    1.667    3.000    0.000    1.000 
#   21.000    0.000    0.000    0.000    0.000    0.000 
#    0.000    0.000    0.000    0.000    0.000    0.000 
#
# Total GULP energy -297462.848159 kJ/mol
# GULP energy per Si atom -12394.285340 kJ/mol
# Density = 2.127008 g / cm^3
# Si number density = 21.318602 Si / 1000 Ang^3
#
#
#
# Elastic Constant Matrix: (Units=GPa)
#
#
# Indices 1 2 3 4 5 6 
#
# 1 143.9808 24.7821 57.7443 0.0000 0.0000 0.0000
# 2 24.7821 91.1398 22.1806 0.0000 0.0000 0.0000
# 3 57.7443 22.1806 134.1400 0.0000 0.0000 0.0000
# 4 0.0000 0.0000 0.0000 16.2328 0.0000 0.0000
# 5 0.0000 0.0000 0.0000 0.0000 71.4163 0.0000
# 6 0.0000 0.0000 0.0000 0.0000 0.0000 25.6511
#
#
#
# Elastic Compliance Matrix: (Units=1/GPa)
#
#
# Indices 1 2 3 4 5 6 
#
# 1 0.008586 -0.001495 -0.003449 0.000000 0.000000 0.000000
# 2 -0.001495 0.011693 -0.001290 0.000000 0.000000 0.000000
# 3 -0.003449 -0.001290 0.009153 0.000000 0.000000 0.000000
# 4 0.000000 0.000000 0.000000 0.061604 0.000000 0.000000
# 5 0.000000 0.000000 0.000000 0.000000 0.014002 0.000000
# 6 0.000000 0.000000 0.000000 0.000000 0.000000 0.038985
#
#
# Mechanical properties :
#
#
# Convention : Reuss Voigt Hill
#
# Bulk Modulus (GPa) = 58.94945 64.29718 61.62331
# Shear Modulus (GPa) = 30.83673 40.29693 35.56683
#
# Velocity S-wave (km/s) = 3.80738 4.35239 4.08897
# Velocity P-wave (km/s) = 6.85856 7.44871 7.15972
#
# Compressibility (1/GPa) = 0.01696369
#
# Stress axis : x y z
#
# Youngs Moduli (GPa) = 116.47004 85.52397 109.25636
#
# Poissons Ratio (x) = 0.12788 0.37680
# Poissons Ratio (y) = 0.17416 0.14091
# Poissons Ratio (z) = 0.40168 0.11030
#
# Static dielectric constant tensor:
#      x y z
#    x 3.628020 0.000000 0.000000 
#    y 0.000000 4.046230 0.000000 
#    z 0.000000 0.000000 3.607970 
# 
# 
# High freq. dielectric constant tensor:
#      x y z
#    x 1.838010 0.000000 0.000000 
#    y 0.000000 1.835780 0.000000 
#    z 0.000000 0.000000 1.817650 
# 
# From -- ./inp_files/14072.got.cif
#   From: 2010.03.12/outbox.cif.g09.slc.cpg/sg42_8_cif.got.tgz:14072.got - 2010.04.14 02:04:31.
