data_PCOD8186284
_publ_section_title
;
Structure prediction by ZEFSAII (Michael W. Deem and Ramdas Pophale) SiO2 
 PCOD8186284
Probable space group: F M M 2
;
_chemical_formula_sum "Si O2"
_cell_formula_units_Z 96
_cell_length_a 8.885268
_cell_length_b 28.052539
_cell_length_c 20.486262
_cell_angle_alpha 90.000000
_cell_angle_beta 90.000000
_cell_angle_gamma 90.000000
_cell_volume 5106.289450
_symmetry_space_group_name_H-M "F M M 2"
_symmetry_group_IT_number 42
_symmetry_cell_setting 'orthorhombic'
loop_
_space_group_symop_operation_xyz
x,y,z
-x,-y,z
-x,y,z
x,-y,z
x,1/2+y,1/2+z
-x,1/2-y,1/2+z
-x,1/2+y,1/2+z
x,1/2-y,1/2+z
1/2+x,y,1/2+z
1/2-x,-y,1/2+z
1/2-x,y,1/2+z
1/2+x,-y,1/2+z
1/2+x,1/2+y,z
1/2-x,1/2-y,z
1/2-x,1/2+y,z
1/2+x,1/2-y,z
loop_
_atom_site_type_symbol
_atom_site_label
_atom_site_fract_x
_atom_site_fract_y
_atom_site_fract_z
Si Si1 0.174216 0.946843 0.837600
Si Si2 0.825521 0.554152 0.975454
Si Si3 0.822237 0.647563 0.272671
Si Si4 0.679027 0.698155 0.643134
Si Si5 0.674061 0.200792 0.398873
Si Si6 0.674202 0.641891 0.027276
O O1 0.272147 0.938636 0.901586
O O2 0.223091 0.908045 0.783093
O O3 0.000000 0.939205 0.857704
O O4 0.200292 0.000000 0.808766
O O5 0.796743 0.500000 0.998229
O O6 0.000000 0.567795 0.979122
O O7 0.733797 0.587687 0.025237
O O8 0.759231 0.667096 0.204275
O O9 0.756252 0.679075 0.332290
O O10 0.000000 0.652473 0.272783
O O11 0.500000 0.702967 0.643094
O O12 0.750000 0.750000 0.647582
O O13 0.730425 0.672348 0.577881
O O14 0.500000 0.211511 0.389515
O O15 0.750000 0.250000 0.418052
O O16 0.702692 0.163262 0.455982
O O17 0.500000 0.642903 0.047627
#
# Coordination Sequence:
#
# PCOD8186284 Si02
#       6
#    16  16  16  16  16  16
#     4   9  16  31  57  84 111 146 186 228 280 339
#     4  10  20  34  55  86 119 147 181 230 286 338
#     4   9  18  35  55  80 111 145 187 232 278 334
#     4  11  23  39  58  79 113 153 192 237 285 341
#     4  10  20  34  53  78 106 138 182 233 279 327
#     4  11  22  38  59  81 111 149 191 234 281 340
#
# _framework density 18.800345
#
# number of rings (size 3 to 8) (size 9 to 14) (size 15 to 20)
#    0.000    2.000    1.667    2.500    0.000    3.667 
#    0.000    3.333    0.000    3.000    0.000    0.000 
#    0.000    0.000    0.000    0.000    0.000    0.000 
#
# Total GULP energy -297602.482462 kJ/mol
# GULP energy per Si atom -12400.103436 kJ/mol
# Density = 1.875755 g / cm^3
# Si number density = 18.800345 Si / 1000 Ang^3
#
#
#
# Elastic Constant Matrix: (Units=GPa)
#
#
# Indices 1 2 3 4 5 6 
#
# 1 63.5946 48.7445 38.3230 0.0000 0.0000 0.0000
# 2 48.7445 142.5266 36.4393 0.0000 0.0000 0.0000
# 3 38.3230 36.4393 66.5334 0.0000 0.0000 0.0000
# 4 0.0000 0.0000 0.0000 33.7884 0.0000 0.0000
# 5 0.0000 0.0000 0.0000 0.0000 17.3659 0.0000
# 6 0.0000 0.0000 0.0000 0.0000 0.0000 28.6649
#
#
#
# Elastic Compliance Matrix: (Units=1/GPa)
#
#
# Indices 1 2 3 4 5 6 
#
# 1 0.028380 -0.006427 -0.012827 0.000000 0.000000 0.000000
# 2 -0.006427 0.009614 -0.001564 0.000000 0.000000 0.000000
# 3 -0.012827 -0.001564 0.023275 0.000000 0.000000 0.000000
# 4 0.000000 0.000000 0.000000 0.029596 0.000000 0.000000
# 5 0.000000 0.000000 0.000000 0.000000 0.057584 0.000000
# 6 0.000000 0.000000 0.000000 0.000000 0.000000 0.034886
#
#
# Mechanical properties :
#
#
# Convention : Reuss Voigt Hill
#
# Bulk Modulus (GPa) = 50.93179 57.74091 54.33635
# Shear Modulus (GPa) = 21.59685 25.90702 23.75193
#
# Velocity S-wave (km/s) = 3.39299 3.71618 3.55826
# Velocity P-wave (km/s) = 6.51917 7.01375 6.77098
#
# Compressibility (1/GPa) = 0.01963410
#
# Stress axis : x y z
#
# Youngs Moduli (GPa) = 35.23549 104.01541 42.96480
#
# Poissons Ratio (x) = 0.66848 0.55112
# Poissons Ratio (y) = 0.22645 0.06718
# Poissons Ratio (z) = 0.45197 0.16264
#
# Static dielectric constant tensor:
#      x y z
#    x 3.356730 0.000000 0.000000 
#    y 0.000000 3.745780 0.000000 
#    z 0.000000 0.000000 3.450690 
# 
# 
# High freq. dielectric constant tensor:
#      x y z
#    x 1.718350 0.000000 0.000000 
#    y 0.000000 1.749050 0.000000 
#    z 0.000000 0.000000 1.711810 
# 
# From -- ./inp_files/23680.got.cif
#   From: 2010.03.12/outbox.cif.g09.slc.cpg/sg42_12_cif.got.tgz:23680.got - 2010.04.14 02:04:31.
