data_PCOD8186208
_publ_section_title
;
Structure prediction by ZEFSAII (Michael W. Deem and Ramdas Pophale) SiO2 
 PCOD8186208
Probable space group: F M M 2
;
_chemical_formula_sum "Si O2"
_cell_formula_units_Z 128
_cell_length_a 17.561526
_cell_length_b 21.886142
_cell_length_c 19.052069
_cell_angle_alpha 90.000000
_cell_angle_beta 90.000000
_cell_angle_gamma 90.000000
_cell_volume 7322.739915
_symmetry_space_group_name_H-M "F M M 2"
_symmetry_group_IT_number 42
_symmetry_cell_setting 'orthorhombic'
loop_
_space_group_symop_operation_xyz
x,y,z
-x,-y,z
-x,y,z
x,-y,z
x,1/2+y,1/2+z
-x,1/2-y,1/2+z
-x,1/2+y,1/2+z
x,1/2-y,1/2+z
1/2+x,y,1/2+z
1/2-x,-y,1/2+z
1/2-x,y,1/2+z
1/2+x,-y,1/2+z
1/2+x,1/2+y,z
1/2-x,1/2-y,z
1/2-x,1/2+y,z
1/2+x,1/2-y,z
loop_
_atom_site_type_symbol
_atom_site_label
_atom_site_fract_x
_atom_site_fract_y
_atom_site_fract_z
Si Si1 0.835286 0.229019 0.332610
Si Si2 0.914994 0.430804 0.607381
Si Si3 0.584365 0.429127 0.867431
Si Si4 0.202852 0.927604 0.985308
Si Si5 0.805847 0.692163 0.984822
Si Si6 0.913640 0.672497 0.707672
Si Si7 0.087093 0.835525 0.759326
Si Si8 0.911745 0.711945 0.116733
O O1 0.750000 0.250000 0.321235
O O2 0.847985 0.200126 0.409760
O O3 0.856940 0.179744 0.273150
O O4 0.885714 0.288813 0.319503
O O5 0.911350 0.500000 0.631336
O O6 0.851046 0.416383 0.551038
O O7 0.897653 0.394312 0.678069
O O8 0.000000 0.414904 0.577574
O O9 0.500000 0.406933 0.893599
O O10 0.583404 0.500000 0.856965
O O11 0.601675 0.402417 0.790192
O O12 0.651176 0.409740 0.919144
O O13 0.230527 0.000000 0.982369
O O14 0.268880 0.876237 0.987440
O O15 0.750000 0.750000 0.994582
O O16 0.866745 0.695744 0.046640
O O17 0.898547 0.718679 0.642650
O O18 0.000000 0.680459 0.734909
O O19 0.122907 0.828989 0.681445
O O20 0.000000 0.818844 0.746603
O O21 0.000000 0.698517 0.100045
#
# Coordination Sequence:
#
# PCOD8186208 Si02
#       8
#    16  16  16  16  16  16  16  16
#     4  10  20  32  48  70  97 128 161 199 241 284
#     4   9  17  30  50  75 101 129 161 196 238 294
#     4   9  16  28  50  76 100 129 161 193 238 297
#     4  10  20  34  49  71 106 137 161 198 247 293
#     4  11  22  35  52  75 100 129 169 206 241 288
#     4   9  18  33  51  73  99 125 156 198 248 291
#     4   9  18  33  50  72 100 125 155 199 248 290
#     4   9  19  34  52  73  98 127 161 205 248 288
#
# _framework density 17.479796
#
# number of rings (size 3 to 8) (size 9 to 14) (size 15 to 20)
#    0.000    2.500    0.000    3.750    0.000    6.500 
#    0.000    4.375    0.000    4.875    0.000    0.000 
#    0.000    0.000    0.000    0.000    0.000    0.000 
#
# Total GULP energy -396434.151432 kJ/mol
# GULP energy per Si atom -12388.567232 kJ/mol
# Density = 1.744001 g / cm^3
# Si number density = 17.479796 Si / 1000 Ang^3
#
#
#
# Elastic Constant Matrix: (Units=GPa)
#
#
# Indices 1 2 3 4 5 6 
#
# 1 58.7952 36.9055 66.6913 0.0000 0.0000 0.0000
# 2 36.9055 45.4430 55.9289 0.0000 0.0000 0.0000
# 3 66.6913 55.9289 145.3353 0.0000 0.0000 0.0000
# 4 0.0000 0.0000 0.0000 27.1793 0.0000 0.0000
# 5 0.0000 0.0000 0.0000 0.0000 36.0757 0.0000
# 6 0.0000 0.0000 0.0000 0.0000 0.0000 27.2141
#
#
#
# Elastic Compliance Matrix: (Units=1/GPa)
#
#
# Indices 1 2 3 4 5 6 
#
# 1 0.043650 -0.020513 -0.012136 0.000000 0.000000 0.000000
# 2 -0.020513 0.051446 -0.010385 0.000000 0.000000 0.000000
# 3 -0.012136 -0.010385 0.016446 0.000000 0.000000 0.000000
# 4 0.000000 0.000000 0.000000 0.036793 0.000000 0.000000
# 5 0.000000 0.000000 0.000000 0.000000 0.027719 0.000000
# 6 0.000000 0.000000 0.000000 0.000000 0.000000 0.036746
#
#
# Mechanical properties :
#
#
# Convention : Reuss Voigt Hill
#
# Bulk Modulus (GPa) = 39.25539 63.18054 51.21796
# Shear Modulus (GPa) = 16.26762 24.09700 20.18231
#
# Velocity S-wave (km/s) = 3.05397 3.71693 3.40164
# Velocity P-wave (km/s) = 5.91117 7.39217 6.69276
#
# Compressibility (1/GPa) = 0.02547421
#
# Stress axis : x y z
#
# Youngs Moduli (GPa) = 22.90941 19.43796 60.80485
#
# Poissons Ratio (x) = 0.39873 0.73794
# Poissons Ratio (y) = 0.46994 0.63145
# Poissons Ratio (z) = 0.27803 0.20186
#
# Static dielectric constant tensor:
#      x y z
#    x 3.068980 0.000000 0.000000 
#    y 0.000000 3.419910 0.000000 
#    z 0.000000 0.000000 3.322270 
# 
# 
# High freq. dielectric constant tensor:
#      x y z
#    x 1.662260 0.000000 0.000000 
#    y 0.000000 1.672780 0.000000 
#    z 0.000000 0.000000 1.675280 
# 
# From -- ./inp_files/21214.got.cif
#   From: 2010.03.12/outbox.cif.g09.slc.cpg/sg42_11_cif.got.tgz:21214.got - 2010.04.14 02:04:31.
