data_PCOD8186664
_publ_section_title
;
Structure prediction by ZEFSAII (Michael W. Deem and Ramdas Pophale) SiO2 
 PCOD8186664
Probable space group: F M M 2
;
_chemical_formula_sum "Si O2"
_cell_formula_units_Z 96
_cell_length_a 28.055068
_cell_length_b 7.966545
_cell_length_c 22.082904
_cell_angle_alpha 90.000000
_cell_angle_beta 90.000000
_cell_angle_gamma 90.000000
_cell_volume 4935.572364
_symmetry_space_group_name_H-M "F M M 2"
_symmetry_group_IT_number 42
_symmetry_cell_setting 'orthorhombic'
loop_
_space_group_symop_operation_xyz
x,y,z
-x,-y,z
-x,y,z
x,-y,z
x,1/2+y,1/2+z
-x,1/2-y,1/2+z
-x,1/2+y,1/2+z
x,1/2-y,1/2+z
1/2+x,y,1/2+z
1/2-x,-y,1/2+z
1/2-x,y,1/2+z
1/2+x,-y,1/2+z
1/2+x,1/2+y,z
1/2-x,1/2-y,z
1/2-x,1/2+y,z
1/2+x,1/2-y,z
loop_
_atom_site_type_symbol
_atom_site_label
_atom_site_fract_x
_atom_site_fract_y
_atom_site_fract_z
Si Si1 0.800915 0.194640 0.871670
Si Si2 0.944496 0.305848 0.183467
Si Si3 0.300969 0.804964 0.506207
Si Si4 0.551215 0.500000 0.509805
Si Si5 0.602652 0.194070 0.312123
Si Si6 0.102991 0.691263 0.565350
Si Si7 0.051313 0.000000 0.369317
O O1 0.750000 0.250000 0.844634
O O2 0.810027 0.277521 0.938863
O O3 0.841484 0.238261 0.822055
O O4 0.799815 0.000000 0.882338
O O5 0.942844 0.500000 0.164365
O O6 0.914995 0.273567 0.244351
O O7 0.914978 0.200623 0.134311
O O8 0.000000 0.247141 0.189619
O O9 0.250000 0.750000 0.533041
O O10 0.341473 0.757942 0.555569
O O11 0.300273 0.000000 0.496507
O O12 0.500000 0.500000 0.543206
O O13 0.575421 0.325452 0.525911
O O14 0.544381 0.500000 0.439598
O O15 0.576325 0.325476 0.354217
O O16 0.591605 0.000000 0.331028
O O17 0.093980 0.500000 0.542288
O O18 0.000000 0.000000 0.336410
#
# Coordination Sequence:
#
# PCOD8186664 Si02
#       7
#    16  16  16   8  16  16   8
#     4   9  18  34  57  85 116 152 194 241 298 359
#     4  10  21  39  62  85 115 159 209 252 296 354
#     4   9  19  34  56  86 115 151 196 241 298 361
#     4  11  24  40  58  88 123 156 199 249 309 370
#     4  10  22  40  60  86 122 159 198 249 301 355
#     4  11  23  39  60  87 120 158 201 251 301 355
#     4  11  24  38  60  90 119 156 201 249 307 370
#
# _framework density 19.450631999999999
#
# number of rings (size 3 to 8) (size 9 to 14) (size 15 to 20)
#    0.000    2.000    0.833    2.000    3.500    4.333 
#    0.000    2.500    0.000    4.000    0.000    0.000 
#    0.000    0.000    0.000    0.000    0.000    0.000 
#
# Total GULP energy -297346.580030 kJ/mol
# GULP energy per Si atom -12389.440835 kJ/mol
# Density = 1.940636 g / cm^3
# Si number density = 19.450632 Si / 1000 Ang^3
#
#
#
# Elastic Constant Matrix: (Units=GPa)
#
#
# Indices 1 2 3 4 5 6 
#
# 1 200.3002 56.8984 76.6685 -0.0001 0.0000 0.0001
# 2 56.8984 86.0389 34.7754 -0.0001 0.0001 0.0001
# 3 76.6685 34.7754 83.2943 0.0000 0.0000 0.0000
# 4 -0.0001 -0.0001 0.0000 3.7883 0.0001 0.0001
# 5 0.0000 0.0001 0.0000 0.0001 28.0958 -0.0001
# 6 0.0001 0.0001 0.0000 0.0001 -0.0001 20.6858
#
#
#
# Elastic Compliance Matrix: (Units=1/GPa)
#
#
# Indices 1 2 3 4 5 6 
#
# 1 0.008260 -0.002874 -0.006403 0.000000 0.000000 0.000000
# 2 -0.002874 0.014982 -0.003609 0.000001 0.000000 0.000000
# 3 -0.006403 -0.003609 0.019406 0.000000 0.000000 0.000000
# 4 0.000000 0.000001 0.000000 0.263973 -0.000001 -0.000002
# 5 0.000000 0.000000 0.000000 -0.000001 0.035592 0.000000
# 6 0.000000 0.000000 0.000000 -0.000002 0.000000 0.048342
#
#
# Mechanical properties :
#
#
# Convention : Reuss Voigt Hill
#
# Bulk Modulus (GPa) = 59.25880 78.47978 68.86929
# Shear Modulus (GPa) = 11.84963 23.93338 17.89150
#
# Velocity S-wave (km/s) = 2.47091 3.51161 3.03618
# Velocity P-wave (km/s) = 6.21875 7.54173 6.91197
#
# Compressibility (1/GPa) = 0.01687513
#
# Stress axis : x y z
#
# Youngs Moduli (GPa) = 121.06881 66.74504 51.53075
#
# Poissons Ratio (x) = 0.19185 0.32993
# Poissons Ratio (y) = 0.34800 0.18599
# Poissons Ratio (z) = 0.77516 0.24091
#
# Static dielectric constant tensor:
#      x y z
#    x 1.866320 0.000000 0.000000 
#    y 0.000000 3.695030 0.000000 
#    z 0.000000 0.000000 3.506470 
# 
# 
# High freq. dielectric constant tensor:
#      x y z
#    x 1.767960 0.000000 0.000000 
#    y 0.000000 1.761840 0.000000 
#    z 0.000000 0.000000 1.738490 
# 
# From -- ./inp_files/30634.got.cif
#   From: 2010.03.12/outbox.cif.g09.slc.cpg/sg42_16_cif.got.tgz:30634.got - 2010.04.14 02:04:31.
