data_PCOD8186928
_publ_section_title
;
Structure prediction by ZEFSAII (Michael W. Deem and Ramdas Pophale) SiO2 
 PCOD8186928
Probable space group: F D D 2
;
_chemical_formula_sum "Si O2"
_cell_formula_units_Z 104
_cell_length_a 27.548191
_cell_length_b 27.242426
_cell_length_c 7.338554
_cell_angle_alpha 90.000000
_cell_angle_beta 90.000000
_cell_angle_gamma 90.000000
_cell_volume 5507.434738
_symmetry_space_group_name_H-M "F D D 2"
_symmetry_group_IT_number 43
_symmetry_cell_setting 'orthorhombic'
loop_
_space_group_symop_operation_xyz
x,y,z
-x,-y,z
1/4-x,1/4+y,1/4+z
1/4+x,1/4-y,1/4+z
x,1/2+y,1/2+z
-x,1/2-y,1/2+z
1/4-x,3/4+y,3/4+z
1/4+x,3/4-y,3/4+z
1/2+x,y,1/2+z
1/2-x,-y,1/2+z
3/4-x,1/4+y,3/4+z
3/4+x,1/4-y,3/4+z
1/2+x,1/2+y,z
1/2-x,1/2-y,z
3/4-x,3/4+y,1/4+z
3/4+x,3/4-y,1/4+z
loop_
_atom_site_type_symbol
_atom_site_label
_atom_site_fract_x
_atom_site_fract_y
_atom_site_fract_z
Si Si1 0.561350 0.119376 0.971510
Si Si2 0.139185 0.308072 0.434343
Si Si3 0.455239 0.088073 0.968276
Si Si4 0.794718 0.161922 0.607917
Si Si5 0.188591 0.130703 0.104913
Si Si6 0.500000 0.000000 0.162875
Si Si7 0.610868 0.941973 0.642061
O O1 0.588069 0.072721 0.878236
O O2 0.504605 0.117406 0.918217
O O3 0.584388 0.170762 0.904006
O O4 0.569919 0.115707 0.188678
O O5 0.170582 0.335962 0.280675
O O6 0.084456 0.329318 0.422355
O O7 0.138385 0.250019 0.413335
O O8 0.420522 0.086014 0.795536
O O9 0.430034 0.115593 0.137739
O O10 0.467192 0.032872 0.030952
O O11 0.745334 0.132655 0.658222
O O12 0.782792 0.217086 0.544711
O O13 0.161867 0.177363 0.198110
#
# Coordination Sequence:
#
# PCOD8186928 Si02
#       7
#    16  16  16  16  16   8  16
#     4   9  21  34  51  79 106 136 178 217 265 331
#     4  11  20  33  56  79 106 137 181 226 267 310
#     4  10  18  34  54  73 111 139 172 220 274 305
#     4  10  18  34  54  73 111 139 172 220 274 305
#     4   9  21  34  51  79 106 136 178 217 265 331
#     4   8  16  28  50  84  92 126 184 216 250 328
#     4  11  20  33  56  79 106 137 181 226 267 310
#
# _framework density 18.883565000000001
#
# number of rings (size 3 to 8) (size 9 to 14) (size 15 to 20)
#    0.000    2.462    0.000    5.538    0.000    1.231 
#    0.000    0.000   27.077    0.000    0.000    0.000 
#    0.000    0.000    0.000    0.000    0.000    0.000 
#
# Total GULP energy -322309.348231 kJ/mol
# GULP energy per Si atom -12396.513393 kJ/mol
# Density = 1.884059 g / cm^3
# Si number density = 18.883565 Si / 1000 Ang^3
#
#
#
# Elastic Constant Matrix: (Units=GPa)
#
#
# Indices 1 2 3 4 5 6 
#
# 1 102.3429 50.8162 50.9695 -0.0619 0.0307 0.0429
# 2 50.8162 83.6748 29.4091 -0.0465 0.0436 0.0369
# 3 50.9695 29.4091 74.9828 -0.2006 0.2117 0.0693
# 4 -0.0619 -0.0465 -0.2006 15.7349 0.1097 0.0522
# 5 0.0307 0.0436 0.2117 0.1097 29.0657 -0.0494
# 6 0.0429 0.0369 0.0693 0.0522 -0.0494 27.5382
#
#
#
# Elastic Compliance Matrix: (Units=1/GPa)
#
#
# Indices 1 2 3 4 5 6 
#
# 1 0.018341 -0.007837 -0.009394 -0.000071 0.000061 0.000006
# 2 -0.007837 0.017211 -0.001423 0.000002 -0.000007 -0.000007
# 3 -0.009394 -0.001423 0.020281 0.000218 -0.000137 -0.000035
# 4 -0.000071 0.000002 0.000218 0.063557 -0.000242 -0.000121
# 5 0.000061 -0.000007 -0.000137 -0.000242 0.034407 0.000062
# 6 0.000006 -0.000007 -0.000035 -0.000121 0.000062 0.036314
#
#
# Mechanical properties :
#
#
# Convention : Reuss Voigt Hill
#
# Bulk Modulus (GPa) = 53.98143 58.15446 56.06794
# Shear Modulus (GPa) = 21.40486 23.12147 22.26317
#
# Velocity S-wave (km/s) = 3.37043 3.50297 3.43734
# Velocity P-wave (km/s) = 6.61777 6.87199 6.74608
#
# Compressibility (1/GPa) = 0.01852489
#
# Stress axis : x y z
#
# Youngs Moduli (GPa) = 54.52412 58.10396 49.30753
#
# Poissons Ratio (x) = 0.45535 0.46318
# Poissons Ratio (y) = 0.42729 0.07017
# Poissons Ratio (z) = 0.51218 0.08269
#
# Static dielectric constant tensor:
#      x y z
#    x 3.411150 0.000030 0.000070 
#    y 0.000030 3.179420 -0.000090 
#    z 0.000070 -0.000090 3.579430 
# 
# 
# High freq. dielectric constant tensor:
#      x y z
#    x 1.729560 0.000000 0.000010 
#    y 0.000000 1.709310 -0.000010 
#    z 0.000010 -0.000010 1.746580 
# 
# From -- ./inp_files/4388.got.cif
#   From: 2010.06.25/outbox.cif.g09.slc.cpg/sg43_3_cif.got.tgz:4388.got - 2010.06.26 16:48:59.
