data_PCOD8186685
_publ_section_title
;
Structure prediction by ZEFSAII (Michael W. Deem and Ramdas Pophale) SiO2 
 PCOD8186685
Probable space group: F M M 2
;
_chemical_formula_sum "Si O2"
_cell_formula_units_Z 112
_cell_length_a 25.365796
_cell_length_b 14.400765
_cell_length_c 14.387569
_cell_angle_alpha 90.000000
_cell_angle_beta 90.000000
_cell_angle_gamma 90.000000
_cell_volume 5255.590007
_symmetry_space_group_name_H-M "F M M 2"
_symmetry_group_IT_number 42
_symmetry_cell_setting 'orthorhombic'
loop_
_space_group_symop_operation_xyz
x,y,z
-x,-y,z
-x,y,z
x,-y,z
x,1/2+y,1/2+z
-x,1/2-y,1/2+z
-x,1/2+y,1/2+z
x,1/2-y,1/2+z
1/2+x,y,1/2+z
1/2-x,-y,1/2+z
1/2-x,y,1/2+z
1/2+x,-y,1/2+z
1/2+x,1/2+y,z
1/2-x,1/2-y,z
1/2-x,1/2+y,z
1/2+x,1/2-y,z
loop_
_atom_site_type_symbol
_atom_site_label
_atom_site_fract_x
_atom_site_fract_y
_atom_site_fract_z
Si Si1 0.130590 0.756278 0.383900
Si Si2 0.270201 0.108669 0.102377
Si Si3 0.294417 0.896725 0.778237
Si Si4 0.116553 0.321051 0.086586
Si Si5 0.708521 0.102251 0.426478
Si Si6 0.937422 0.000000 0.317031
Si Si7 0.938211 0.803670 0.232426
Si Si8 0.562326 0.500000 0.532117
O O1 0.169152 0.818519 0.320893
O O2 0.114401 0.806487 0.476910
O O3 0.155651 0.659114 0.411675
O O4 0.078641 0.739403 0.320457
O O5 0.223140 0.130220 0.174255
O O6 0.323907 0.164236 0.123849
O O7 0.284646 0.000000 0.098180
O O8 0.247628 0.145156 0.003974
O O9 0.238950 0.901076 0.830303
O O10 0.321552 0.000000 0.782983
O O11 0.091442 0.233518 0.140662
O O12 0.081755 0.413561 0.094780
O O13 0.690645 0.000000 0.459117
O O14 0.919251 0.908686 0.258726
O O15 0.915693 0.000000 0.424228
O O16 0.000000 0.000000 0.323395
O O17 0.000000 0.797175 0.215074
O O18 0.500000 0.500000 0.529224
#
# Coordination Sequence:
#
# PCOD8186685 Si02
#       8
#    16  16  16  16  16   8  16   8
#     4  12  25  41  68  98 128 183 227 283 338 417
#     4  10  21  40  65  97 135 177 218 272 338 418
#     4  10  22  38  63  93 133 172 214 271 335 406
#     4  12  24  40  72 105 136 173 230 288 349 408
#     4  10  22  42  62  90 136 177 218 268 332 411
#     4   9  20  44  72  94 130 180 232 291 348 401
#     4  11  26  46  69 100 137 177 231 295 350 408
#     4  11  22  42  74 102 134 182 238 291 343 403
#
# _framework density 21.310642000000001
#
# number of rings (size 3 to 8) (size 9 to 14) (size 15 to 20)
#    0.000    1.286    3.571    1.714    4.000    0.571 
#    2.571    0.000    0.000    0.000    0.000    0.000 
#    0.000    0.000    0.000    0.000    0.000    0.000 
#
# Total GULP energy -347154.576231 kJ/mol
# GULP energy per Si atom -12398.377723 kJ/mol
# Density = 2.126214 g / cm^3
# Si number density = 21.310642 Si / 1000 Ang^3
#
#
#
# Elastic Constant Matrix: (Units=GPa)
#
#
# Indices 1 2 3 4 5 6 
#
# 1 66.2312 53.3113 28.5689 0.0000 0.0000 0.0000
# 2 53.3113 98.0139 27.9635 0.0000 0.0000 0.0000
# 3 28.5689 27.9635 86.3133 0.0000 0.0000 0.0000
# 4 0.0000 0.0000 0.0000 36.4921 0.0000 0.0000
# 5 0.0000 0.0000 0.0000 0.0000 35.8280 0.0000
# 6 0.0000 0.0000 0.0000 0.0000 0.0000 38.1869
#
#
#
# Elastic Compliance Matrix: (Units=1/GPa)
#
#
# Indices 1 2 3 4 5 6 
#
# 1 0.028607 -0.014168 -0.004879 0.000000 0.000000 0.000000
# 2 -0.014168 0.018259 -0.001226 0.000000 0.000000 0.000000
# 3 -0.004879 -0.001226 0.013598 0.000000 0.000000 0.000000
# 4 0.000000 0.000000 0.000000 0.027403 0.000000 0.000000
# 5 0.000000 0.000000 0.000000 0.000000 0.027911 0.000000
# 6 0.000000 0.000000 0.000000 0.000000 0.000000 0.026187
#
#
# Mechanical properties :
#
#
# Convention : Reuss Voigt Hill
#
# Bulk Modulus (GPa) = 50.20480 52.24954 51.22717
# Shear Modulus (GPa) = 26.43413 31.48240 28.95826
#
# Velocity S-wave (km/s) = 3.52578 3.84775 3.69028
# Velocity P-wave (km/s) = 6.33913 6.65669 6.49985
#
# Compressibility (1/GPa) = 0.01991842
#
# Stress axis : x y z
#
# Youngs Moduli (GPa) = 34.95609 54.76866 73.54229
#
# Poissons Ratio (x) = 0.77597 0.35878
# Poissons Ratio (y) = 0.49526 0.09015
# Poissons Ratio (z) = 0.17054 0.06714
#
# Static dielectric constant tensor:
#      x y z
#    x 3.784010 0.000000 0.000000 
#    y 0.000000 4.005910 0.000000 
#    z 0.000000 0.000000 3.920930 
# 
# 
# High freq. dielectric constant tensor:
#      x y z
#    x 1.828270 0.000000 0.000000 
#    y 0.000000 1.837380 0.000000 
#    z 0.000000 0.000000 1.837700 
# 
# From -- ./inp_files/17095.got.cif
#   From: 2010.03.12/outbox.cif.g09.slc.cpg/sg42_9_cif.got.tgz:17095.got - 2010.04.14 02:04:31.
