data_PCOD8186792
_publ_section_title
;
Structure prediction by ZEFSAII (Michael W. Deem and Ramdas Pophale) SiO2 
 PCOD8186792
Probable space group: F M M 2
;
_chemical_formula_sum "Si O2"
_cell_formula_units_Z 80
_cell_length_a 15.614802
_cell_length_b 8.591675
_cell_length_c 28.574646
_cell_angle_alpha 90.000000
_cell_angle_beta 90.000000
_cell_angle_gamma 90.000000
_cell_volume 3833.497469
_symmetry_space_group_name_H-M "F M M 2"
_symmetry_group_IT_number 42
_symmetry_cell_setting 'orthorhombic'
loop_
_space_group_symop_operation_xyz
x,y,z
-x,-y,z
-x,y,z
x,-y,z
x,1/2+y,1/2+z
-x,1/2-y,1/2+z
-x,1/2+y,1/2+z
x,1/2-y,1/2+z
1/2+x,y,1/2+z
1/2-x,-y,1/2+z
1/2-x,y,1/2+z
1/2+x,-y,1/2+z
1/2+x,1/2+y,z
1/2-x,1/2-y,z
1/2-x,1/2+y,z
1/2+x,1/2-y,z
loop_
_atom_site_type_symbol
_atom_site_label
_atom_site_fract_x
_atom_site_fract_y
_atom_site_fract_z
Si Si1 0.000000 0.683370 0.951500
Si Si2 0.841562 0.817144 0.694449
Si Si3 0.162919 0.682923 0.012616
Si Si4 0.596212 0.675526 0.104110
Si Si5 0.844149 0.315751 0.793293
Si Si6 0.000000 0.317683 0.350419
O O1 0.000000 0.500000 0.939696
O O2 0.000000 0.785511 0.905255
O O3 0.083595 0.732761 0.980574
O O4 0.750000 0.750000 0.680223
O O5 0.903254 0.776408 0.651555
O O6 0.874866 0.737462 0.741931
O O7 0.837235 0.000000 0.703305
O O8 0.168594 0.500000 0.017211
O O9 0.250000 0.750000 0.989680
O O10 0.156178 0.752555 0.064565
O O11 0.500000 0.678920 0.084647
O O12 0.626788 0.500000 0.115043
O O13 0.839347 0.500000 0.795505
O O14 0.750000 0.250000 0.805479
O O15 0.913777 0.256674 0.829959
O O16 0.000000 0.500000 0.339940
#
# Coordination Sequence:
#
# PCOD8186792 Si02
#       6
#     8  16  16  16  16   8
#     4  10  24  46  67  92 127 164 208 265 321 381
#     4  11  22  38  60  88 126 167 213 259 310 373
#     4  11  23  42  67  94 127 166 210 258 317 376
#     4  11  23  38  59  89 127 168 214 261 312 372
#     4  11  23  43  68  96 132 170 215 266 319 380
#     4  12  26  44  69  98 129 168 212 263 325 387
#
# _framework density 20.868672
#
# number of rings (size 3 to 8) (size 9 to 14) (size 15 to 20)
#    0.000    1.000    1.000    7.500    1.400    3.600 
#    0.000    2.000    0.000    0.000    0.000    0.000 
#    0.000    0.000    0.000    0.000    0.000    0.000 
#
# Total GULP energy -248100.468276 kJ/mol
# GULP energy per Si atom -12405.023414 kJ/mol
# Density = 2.082117 g / cm^3
# Si number density = 20.868672 Si / 1000 Ang^3
#
#
#
# Elastic Constant Matrix: (Units=GPa)
#
#
# Indices 1 2 3 4 5 6 
#
# 1 135.5197 56.7576 62.3473 0.0000 0.0000 0.0000
# 2 56.7576 164.4452 54.8285 0.0000 0.0000 0.0000
# 3 62.3473 54.8285 119.8202 0.0000 0.0000 0.0000
# 4 0.0000 0.0000 0.0000 37.9855 0.0000 0.0000
# 5 0.0000 0.0000 0.0000 0.0000 29.5168 0.0000
# 6 0.0000 0.0000 0.0000 0.0000 0.0000 32.7926
#
#
#
# Elastic Compliance Matrix: (Units=1/GPa)
#
#
# Indices 1 2 3 4 5 6 
#
# 1 0.010271 -0.002081 -0.004392 0.000000 0.000000 0.000000
# 2 -0.002081 0.007597 -0.002394 0.000000 0.000000 0.000000
# 3 -0.004392 -0.002394 0.011727 0.000000 0.000000 0.000000
# 4 0.000000 0.000000 0.000000 0.026326 0.000000 0.000000
# 5 0.000000 0.000000 0.000000 0.000000 0.033879 0.000000
# 6 0.000000 0.000000 0.000000 0.000000 0.000000 0.030495
#
#
# Mechanical properties :
#
#
# Convention : Reuss Voigt Hill
#
# Bulk Modulus (GPa) = 84.30597 85.29463 84.80030
# Shear Modulus (GPa) = 35.21564 36.44909 35.83237
#
# Velocity S-wave (km/s) = 4.11236 4.18376 4.14821
# Velocity P-wave (km/s) = 7.93944 8.01868 7.97916
#
# Compressibility (1/GPa) = 0.01186156
#
# Stress axis : x y z
#
# Youngs Moduli (GPa) = 97.36003 131.62590 85.27463
#
# Poissons Ratio (x) = 0.27385 0.37457
# Poissons Ratio (y) = 0.20256 0.20414
# Poissons Ratio (z) = 0.42765 0.31509
#
# Static dielectric constant tensor:
#      x y z
#    x 3.813080 0.000000 0.000000 
#    y 0.000000 3.868920 0.000000 
#    z 0.000000 0.000000 3.662060 
# 
# 
# High freq. dielectric constant tensor:
#      x y z
#    x 1.827260 0.000000 0.000000 
#    y 0.000000 1.832270 0.000000 
#    z 0.000000 0.000000 1.812060 
# 
# From -- ./inp_files/32776.got.cif
#   From: 2010.03.12/outbox.cif.g09.slc.cpg/sg42_17_cif.got.tgz:32776.got - 2010.04.14 02:04:31.
