data_PCOD8186752
_publ_section_title
;
Structure prediction by ZEFSAII (Michael W. Deem and Ramdas Pophale) SiO2 
 PCOD8186752
Probable space group: F M M 2
;
_chemical_formula_sum "Si O2"
_cell_formula_units_Z 64
_cell_length_a 8.776780
_cell_length_b 17.356898
_cell_length_c 20.173458
_cell_angle_alpha 90.000000
_cell_angle_beta 90.000000
_cell_angle_gamma 90.000000
_cell_volume 3073.177693
_symmetry_space_group_name_H-M "F M M 2"
_symmetry_group_IT_number 42
_symmetry_cell_setting 'orthorhombic'
loop_
_space_group_symop_operation_xyz
x,y,z
-x,-y,z
-x,y,z
x,-y,z
x,1/2+y,1/2+z
-x,1/2-y,1/2+z
-x,1/2+y,1/2+z
x,1/2-y,1/2+z
1/2+x,y,1/2+z
1/2-x,-y,1/2+z
1/2-x,y,1/2+z
1/2+x,-y,1/2+z
1/2+x,1/2+y,z
1/2-x,1/2-y,z
1/2-x,1/2+y,z
1/2+x,1/2-y,z
loop_
_atom_site_type_symbol
_atom_site_label
_atom_site_fract_x
_atom_site_fract_y
_atom_site_fract_z
Si Si1 0.677424 0.911272 0.082580
Si Si2 0.174977 0.088349 0.825635
Si Si3 0.320213 0.332796 0.961260
Si Si4 0.179102 0.831196 0.206641
O O1 0.500000 0.891305 0.080242
O O2 0.755609 0.857453 0.136564
O O3 0.706097 0.000000 0.101179
O O4 0.750629 0.894674 0.011485
O O5 0.223991 0.140909 0.887434
O O6 0.280266 0.107389 0.763200
O O7 0.000000 0.103707 0.805552
O O8 0.200222 0.000000 0.845917
O O9 0.500000 0.329754 0.971298
O O10 0.250000 0.250000 0.976148
O O11 0.250000 0.750000 0.227709
O O12 0.000000 0.822882 0.200164
#
# Coordination Sequence:
#
# PCOD8186752 Si02
#       4
#    16  16  16  16
#     4  11  24  42  64  90 122 159 200 249 303 359
#     4  10  22  41  64  91 124 160 199 247 302 358
#     4  11  23  40  63  91 124 161 202 248 299 356
#     4  12  25  41  63  90 122 160 203 250 300 357
#
# _framework density 20.825348999999999
#
# number of rings (size 3 to 8) (size 9 to 14) (size 15 to 20)
#    0.000    1.000    0.000    6.750    0.000   10.500 
#    0.000    0.000    0.000    0.000    0.000    0.000 
#    0.000    0.000    0.000    0.000    0.000    0.000 
#
# Total GULP energy -198546.945850 kJ/mol
# GULP energy per Si atom -12409.184116 kJ/mol
# Density = 2.077795 g / cm^3
# Si number density = 20.825349 Si / 1000 Ang^3
#
#
#
# Elastic Constant Matrix: (Units=GPa)
#
#
# Indices 1 2 3 4 5 6 
#
# 1 132.5561 38.3841 53.4898 0.0000 0.0000 0.0000
# 2 38.3841 79.0037 21.8469 0.0000 0.0000 0.0000
# 3 53.4898 21.8469 101.9909 0.0000 0.0000 0.0000
# 4 0.0000 0.0000 0.0000 42.5207 0.0000 0.0000
# 5 0.0000 0.0000 0.0000 0.0000 40.2250 0.0000
# 6 0.0000 0.0000 0.0000 0.0000 0.0000 33.1149
#
#
#
# Elastic Compliance Matrix: (Units=1/GPa)
#
#
# Indices 1 2 3 4 5 6 
#
# 1 0.010554 -0.003824 -0.004716 0.000000 0.000000 0.000000
# 2 -0.003824 0.014840 -0.001173 0.000000 0.000000 0.000000
# 3 -0.004716 -0.001173 0.012530 0.000000 0.000000 0.000000
# 4 0.000000 0.000000 0.000000 0.023518 0.000000 0.000000
# 5 0.000000 0.000000 0.000000 0.000000 0.024860 0.000000
# 6 0.000000 0.000000 0.000000 0.000000 0.000000 0.030198
#
#
# Mechanical properties :
#
#
# Convention : Reuss Voigt Hill
#
# Bulk Modulus (GPa) = 54.06239 60.11026 57.08632
# Shear Modulus (GPa) = 35.18844 36.49410 35.84127
#
# Velocity S-wave (km/s) = 4.11505 4.19070 4.15304
# Velocity P-wave (km/s) = 6.97097 7.23481 7.10412
#
# Compressibility (1/GPa) = 0.01849715
#
# Stress axis : x y z
#
# Youngs Moduli (GPa) = 94.74810 67.38616 79.81097
#
# Poissons Ratio (x) = 0.25766 0.37641
# Poissons Ratio (y) = 0.36228 0.09365
# Poissons Ratio (z) = 0.44685 0.07907
#
# Static dielectric constant tensor:
#      x y z
#    x 3.831770 0.000000 0.000000 
#    y 0.000000 3.780630 0.000000 
#    z 0.000000 0.000000 3.743830 
# 
# 
# High freq. dielectric constant tensor:
#      x y z
#    x 1.822480 0.000000 0.000000 
#    y 0.000000 1.828240 0.000000 
#    z 0.000000 0.000000 1.827600 
# 
# From -- ./inp_files/17874.got.cif
#   From: 2010.03.12/outbox.cif.g09.slc.cpg/sg42_9_cif.got.tgz:17874.got - 2010.04.14 02:04:31.
