data_PCOD8186676
_publ_section_title
;
Structure prediction by ZEFSAII (Michael W. Deem and Ramdas Pophale) SiO2 
 PCOD8186676
Probable space group: F M M 2
;
_chemical_formula_sum "Si O2"
_cell_formula_units_Z 96
_cell_length_a 17.466602
_cell_length_b 17.578944
_cell_length_c 14.986557
_cell_angle_alpha 90.000000
_cell_angle_beta 90.000000
_cell_angle_gamma 90.000000
_cell_volume 4601.538678
_symmetry_space_group_name_H-M "F M M 2"
_symmetry_group_IT_number 42
_symmetry_cell_setting 'orthorhombic'
loop_
_space_group_symop_operation_xyz
x,y,z
-x,-y,z
-x,y,z
x,-y,z
x,1/2+y,1/2+z
-x,1/2-y,1/2+z
-x,1/2+y,1/2+z
x,1/2-y,1/2+z
1/2+x,y,1/2+z
1/2-x,-y,1/2+z
1/2-x,y,1/2+z
1/2+x,-y,1/2+z
1/2+x,1/2+y,z
1/2-x,1/2-y,z
1/2-x,1/2+y,z
1/2+x,1/2-y,z
loop_
_atom_site_type_symbol
_atom_site_label
_atom_site_fract_x
_atom_site_fract_y
_atom_site_fract_z
Si Si1 0.139781 0.584114 0.159250
Si Si2 0.677605 0.806801 0.843304
Si Si3 0.588195 0.588936 0.010190
Si Si4 0.311171 0.414119 0.173944
Si Si5 0.911885 0.334158 0.330647
Si Si6 0.586751 0.910466 0.971191
O O1 0.111677 0.500000 0.186272
O O2 0.228021 0.583456 0.129318
O O3 0.133022 0.635553 0.245733
O O4 0.090623 0.613510 0.075383
O O5 0.750000 0.750000 0.863521
O O6 0.690466 0.856518 0.755838
O O7 0.601982 0.755677 0.831739
O O8 0.654485 0.864511 0.922075
O O9 0.500000 0.610892 0.023796
O O10 0.600837 0.500000 0.996230
O O11 0.621448 0.629612 0.921919
O O12 0.631750 0.617709 0.098294
O O13 0.335603 0.500000 0.204535
O O14 0.000000 0.354935 0.320176
O O15 0.500000 0.892268 0.937182
O O16 0.604730 0.000000 0.960276
#
# Coordination Sequence:
#
# PCOD8186676 Si02
#       6
#    16  16  16  16  16  16
#     4  10  21  39  66  95 124 163 209 262 315 368
#     4  12  25  42  60  93 130 172 206 256 318 385
#     4   9  20  39  64  93 125 165 212 263 315 370
#     4  10  22  41  65  93 123 161 214 263 310 372
#     4  11  23  40  62  93 130 166 206 255 314 379
#     4  10  23  44  69  95 124 166 220 270 316 372
#
# _framework density 20.862587000000001
#
# number of rings (size 3 to 8) (size 9 to 14) (size 15 to 20)
#    0.000    1.667    1.667    2.000    2.333    4.333 
#    0.000    3.333    0.000    0.000    0.000    0.000 
#    0.000    0.000    0.000    0.000    0.000    0.000 
#
# Total GULP energy -297529.689102 kJ/mol
# GULP energy per Si atom -12397.070379 kJ/mol
# Density = 2.081510 g / cm^3
# Si number density = 20.862587 Si / 1000 Ang^3
#
#
#
# Elastic Constant Matrix: (Units=GPa)
#
#
# Indices 1 2 3 4 5 6 
#
# 1 83.2606 39.2041 54.8653 0.0000 0.0000 0.0000
# 2 39.2041 92.1325 63.5580 0.0000 0.0000 0.0000
# 3 54.8653 63.5580 128.5843 0.0000 0.0000 0.0000
# 4 0.0000 0.0000 0.0000 -10.6803 0.0000 0.0000
# 5 0.0000 0.0000 0.0000 0.0000 34.1043 0.0000
# 6 0.0000 0.0000 0.0000 0.0000 0.0000 35.8239
#
#
#
# Elastic Compliance Matrix: (Units=1/GPa)
#
#
# Indices 1 2 3 4 5 6 
#
# 1 0.017408 -0.003465 -0.005715 0.000000 0.000000 0.000000
# 2 -0.003465 0.017160 -0.007003 0.000000 0.000000 0.000000
# 3 -0.005715 -0.007003 0.013677 0.000000 0.000000 0.000000
# 4 0.000000 0.000000 0.000000 -0.093631 0.000000 0.000000
# 5 0.000000 0.000000 0.000000 0.000000 0.029322 0.000000
# 6 0.000000 0.000000 0.000000 0.000000 0.000000 0.027914
#
#
# Mechanical properties :
#
#
# Convention : Reuss Voigt Hill
#
# Bulk Modulus (GPa) = 62.97975 68.80358 65.89166
# Shear Modulus (GPa) = 100.98969 21.60625 61.29797
#
# Velocity S-wave (km/s) = 6.96507 3.22164 5.42638
# Velocity P-wave (km/s) = 9.74353 6.84760 8.42098
#
# Compressibility (1/GPa) = 0.01587812
#
# Stress axis : x y z
#
# Youngs Moduli (GPa) = 57.44497 58.27624 73.11379
#
# Poissons Ratio (x) = 0.20192 0.41785
# Poissons Ratio (y) = 0.19904 0.51205
# Poissons Ratio (z) = 0.32831 0.40814
#
# Static dielectric constant tensor:
#      x y z
#    x 3.797370 0.000000 0.000000 
#    y 0.000000 3.856130 0.000000 
#    z 0.000000 0.000000 3.691300 
# 
# 
# High freq. dielectric constant tensor:
#      x y z
#    x 1.822550 0.000000 0.000000 
#    y 0.000000 1.814460 0.000000 
#    z 0.000000 0.000000 1.815480 
# 
# From -- ./inp_files/15825.got.cif
#   From: 2010.03.12/outbox.cif.g09.slc.cpg/sg42_8_cif.got.tgz:15825.got - 2010.04.14 02:04:31.
