data_PCOD8186637
_publ_section_title
;
Structure prediction by ZEFSAII (Michael W. Deem and Ramdas Pophale) SiO2 
 PCOD8186637
Probable space group: F M M 2
;
_chemical_formula_sum "Si O2"
_cell_formula_units_Z 96
_cell_length_a 16.179806
_cell_length_b 25.441654
_cell_length_c 11.245422
_cell_angle_alpha 90.000000
_cell_angle_beta 90.000000
_cell_angle_gamma 90.000000
_cell_volume 4629.077050
_symmetry_space_group_name_H-M "F M M 2"
_symmetry_group_IT_number 42
_symmetry_cell_setting 'orthorhombic'
loop_
_space_group_symop_operation_xyz
x,y,z
-x,-y,z
-x,y,z
x,-y,z
x,1/2+y,1/2+z
-x,1/2-y,1/2+z
-x,1/2+y,1/2+z
x,1/2-y,1/2+z
1/2+x,y,1/2+z
1/2-x,-y,1/2+z
1/2-x,y,1/2+z
1/2+x,-y,1/2+z
1/2+x,1/2+y,z
1/2-x,1/2-y,z
1/2-x,1/2+y,z
1/2+x,1/2-y,z
loop_
_atom_site_type_symbol
_atom_site_label
_atom_site_fract_x
_atom_site_fract_y
_atom_site_fract_z
Si Si1 0.909215 0.411985 0.699840
Si Si2 0.092062 0.180007 0.027241
Si Si3 0.732548 0.559100 0.633622
Si Si4 0.845132 0.125781 0.430219
Si Si5 0.689632 0.351171 0.805578
Si Si6 0.404470 0.791400 0.109194
O O1 0.904078 0.353247 0.647576
O O2 0.832393 0.444741 0.647405
O O3 0.903714 0.407730 0.843112
O O4 0.000000 0.437013 0.669131
O O5 0.136103 0.147013 0.924593
O O6 0.000000 0.189806 0.981556
O O7 0.131353 0.237010 0.055819
O O8 0.697058 0.500000 0.637958
O O9 0.709356 0.585643 0.508683
O O10 0.689662 0.592142 0.739895
O O11 0.783351 0.160530 0.347301
O O12 0.900822 0.163819 0.509255
O O13 0.654661 0.306106 0.719204
O O14 0.500000 0.785706 0.151410
#
# Coordination Sequence:
#
# PCOD8186637 Si02
#       6
#    16  16  16  16  16  16
#     4  10  21  39  60  87 121 153 197 248 298 360
#     4  10  21  38  60  88 124 163 198 243 300 360
#     4  10  22  42  65  87 117 159 205 254 314 362
#     4  10  21  39  59  92 119 157 198 254 297 355
#     4  10  21  40  59  91 123 158 203 251 300 354
#     4  10  22  38  60  86 121 167 201 237 295 362
#
# _framework density 20.738475999999999
#
# number of rings (size 3 to 8) (size 9 to 14) (size 15 to 20)
#    0.000    2.000    1.667    1.000    2.333    3.667 
#    3.000    0.000    0.000   17.500    0.000    0.000 
#    0.000    0.000    0.000    0.000    0.000    0.000 
#
# Total GULP energy -297475.452730 kJ/mol
# GULP energy per Si atom -12394.810530 kJ/mol
# Density = 2.069127 g / cm^3
# Si number density = 20.738476 Si / 1000 Ang^3
#
#
#
# Elastic Constant Matrix: (Units=GPa)
#
#
# Indices 1 2 3 4 5 6 
#
# 1 86.5979 36.5938 40.3186 0.0000 0.0000 0.0000
# 2 36.5938 98.4095 34.4632 0.0000 0.0000 0.0000
# 3 40.3186 34.4632 106.3011 0.0000 0.0000 0.0000
# 4 0.0000 0.0000 0.0000 17.1470 0.0000 0.0000
# 5 0.0000 0.0000 0.0000 0.0000 30.9261 0.0000
# 6 0.0000 0.0000 0.0000 0.0000 0.0000 18.0212
#
#
#
# Elastic Compliance Matrix: (Units=1/GPa)
#
#
# Indices 1 2 3 4 5 6 
#
# 1 0.015393 -0.004151 -0.004493 0.000000 0.000000 0.000000
# 2 -0.004151 0.012582 -0.002505 0.000000 0.000000 0.000000
# 3 -0.004493 -0.002505 0.011923 0.000000 0.000000 0.000000
# 4 0.000000 0.000000 0.000000 0.058319 0.000000 0.000000
# 5 0.000000 0.000000 0.000000 0.000000 0.032335 0.000000
# 6 0.000000 0.000000 0.000000 0.000000 0.000000 0.055490
#
#
# Mechanical properties :
#
#
# Convention : Reuss Voigt Hill
#
# Bulk Modulus (GPa) = 56.81106 57.11776 56.96441
# Shear Modulus (GPa) = 23.34180 25.21438 24.27809
#
# Velocity S-wave (km/s) = 3.35853 3.49065 3.42523
# Velocity P-wave (km/s) = 6.51868 6.62178 6.57043
#
# Compressibility (1/GPa) = 0.01760221
#
# Stress axis : x y z
#
# Youngs Moduli (GPa) = 64.96309 79.47682 83.86859
#
# Poissons Ratio (x) = 0.32988 0.37681
# Poissons Ratio (y) = 0.26964 0.21009
# Poissons Ratio (z) = 0.29187 0.19908
#
# Static dielectric constant tensor:
#      x y z
#    x 3.911500 0.000000 0.000000 
#    y 0.000000 3.458540 0.000000 
#    z 0.000000 0.000000 3.865190 
# 
# 
# High freq. dielectric constant tensor:
#      x y z
#    x 1.812000 0.000000 0.000000 
#    y 0.000000 1.786190 0.000000 
#    z 0.000000 0.000000 1.820830 
# 
# From -- ./inp_files/8810.got.cif
#   From: 2010.03.12/outbox.cif.g09.slc.cpg/sg42_5_cif.got.tgz:8810.got - 2010.04.14 02:04:31.
