data_PCOD8186136
_publ_section_title
;
Structure prediction by ZEFSAII (Michael W. Deem and Ramdas Pophale) SiO2 
 PCOD8186136
Probable space group: F M M 2
;
_chemical_formula_sum "Si O2"
_cell_formula_units_Z 96
_cell_length_a 17.555050
_cell_length_b 15.503209
_cell_length_c 18.121099
_cell_angle_alpha 90.000000
_cell_angle_beta 90.000000
_cell_angle_gamma 90.000000
_cell_volume 4931.831221
_symmetry_space_group_name_H-M "F M M 2"
_symmetry_group_IT_number 42
_symmetry_cell_setting 'orthorhombic'
loop_
_space_group_symop_operation_xyz
x,y,z
-x,-y,z
-x,y,z
x,-y,z
x,1/2+y,1/2+z
-x,1/2-y,1/2+z
-x,1/2+y,1/2+z
x,1/2-y,1/2+z
1/2+x,y,1/2+z
1/2-x,-y,1/2+z
1/2-x,y,1/2+z
1/2+x,-y,1/2+z
1/2+x,1/2+y,z
1/2-x,1/2-y,z
1/2-x,1/2+y,z
1/2+x,1/2-y,z
loop_
_atom_site_type_symbol
_atom_site_label
_atom_site_fract_x
_atom_site_fract_y
_atom_site_fract_z
Si Si1 0.320772 0.198462 0.033490
Si Si2 0.844155 0.401922 0.174530
Si Si3 0.586311 0.189332 0.430720
Si Si4 0.264735 0.596918 0.909639
Si Si5 0.585955 0.251326 0.768563
Si Si6 0.805783 0.903643 0.253968
O O1 0.250000 0.250000 0.071193
O O2 0.357594 0.132601 0.091673
O O3 0.389865 0.257310 0.003626
O O4 0.286351 0.154858 0.961371
O O5 0.876313 0.500000 0.181865
O O6 0.885156 0.340919 0.233804
O O7 0.753344 0.402071 0.186625
O O8 0.500000 0.154691 0.441414
O O9 0.644962 0.110476 0.421257
O O10 0.591547 0.247598 0.357112
O O11 0.244902 0.500000 0.929937
O O12 0.242992 0.620109 0.826223
O O13 0.500000 0.238012 0.742158
O O14 0.631146 0.168381 0.738149
O O15 0.842478 0.000000 0.260677
#
# Coordination Sequence:
#
# PCOD8186136 Si02
#       6
#    16  16  16  16  16  16
#     4  10  20  36  59  85 115 156 199 245 292 346
#     4  11  23  38  61  91 120 156 200 249 298 353
#     4  10  21  35  55  83 117 158 196 233 289 354
#     4  10  19  34  58  85 114 151 194 244 293 347
#     4  11  22  37  58  84 120 160 197 240 296 358
#     4  10  20  36  60  87 115 152 200 247 296 350
#
# _framework density 19.465385999999999
#
# number of rings (size 3 to 8) (size 9 to 14) (size 15 to 20)
#    0.000    1.667    3.333    2.000    0.000    1.667 
#    0.000    1.667    0.000    1.500    0.000    4.667 
#    0.000    0.000    0.000    0.000    0.000    0.000 
#
# Total GULP energy -297553.374908 kJ/mol
# GULP energy per Si atom -12398.057288 kJ/mol
# Density = 1.942108 g / cm^3
# Si number density = 19.465386 Si / 1000 Ang^3
#
#
#
# Elastic Constant Matrix: (Units=GPa)
#
#
# Indices 1 2 3 4 5 6 
#
# 1 92.1736 39.0783 13.7839 0.0000 0.0000 0.0000
# 2 39.0783 113.0805 31.5895 0.0000 0.0000 0.0000
# 3 13.7839 31.5895 71.5359 0.0000 0.0000 0.0000
# 4 0.0000 0.0000 0.0000 31.3424 0.0000 0.0000
# 5 0.0000 0.0000 0.0000 0.0000 12.7220 0.0000
# 6 0.0000 0.0000 0.0000 0.0000 0.0000 19.2986
#
#
#
# Elastic Compliance Matrix: (Units=1/GPa)
#
#
# Indices 1 2 3 4 5 6 
#
# 1 0.012733 -0.004238 -0.000582 0.000000 0.000000 0.000000
# 2 -0.004238 0.011498 -0.004261 0.000000 0.000000 0.000000
# 3 -0.000582 -0.004261 0.015973 0.000000 0.000000 0.000000
# 4 0.000000 0.000000 0.000000 0.031906 0.000000 0.000000
# 5 0.000000 0.000000 0.000000 0.000000 0.078604 0.000000
# 6 0.000000 0.000000 0.000000 0.000000 0.000000 0.051817
#
#
# Mechanical properties :
#
#
# Convention : Reuss Voigt Hill
#
# Bulk Modulus (GPa) = 45.36736 49.52148 47.44442
# Shear Modulus (GPa) = 21.92607 25.49514 23.71061
#
# Velocity S-wave (km/s) = 3.35985 3.62300 3.49390
# Velocity P-wave (km/s) = 6.19748 6.55725 6.37990
#
# Compressibility (1/GPa) = 0.02204228
#
# Stress axis : x y z
#
# Youngs Moduli (GPa) = 78.53792 86.97203 62.60672
#
# Poissons Ratio (x) = 0.36855 0.03645
# Poissons Ratio (y) = 0.33281 0.26676
# Poissons Ratio (z) = 0.04572 0.37058
#
# Static dielectric constant tensor:
#      x y z
#    x 3.470530 0.000000 0.000000 
#    y 0.000000 3.591450 0.000000 
#    z 0.000000 0.000000 3.420970 
# 
# 
# High freq. dielectric constant tensor:
#      x y z
#    x 1.742420 0.000000 0.000000 
#    y 0.000000 1.756790 0.000000 
#    z 0.000000 0.000000 1.755570 
# 
# From -- ./inp_files/25105.got.cif
#   From: 2010.03.12/outbox.cif.g09.slc.cpg/sg42_13_cif.got.tgz:25105.got - 2010.04.14 02:04:31.
