data_PCOD8186286
_publ_section_title
;
Structure prediction by ZEFSAII (Michael W. Deem and Ramdas Pophale) SiO2 
 PCOD8186286
Probable space group: F M M 2
;
_chemical_formula_sum "Si O2"
_cell_formula_units_Z 80
_cell_length_a 8.936118
_cell_length_b 18.004276
_cell_length_c 26.285997
_cell_angle_alpha 90.000000
_cell_angle_beta 90.000000
_cell_angle_gamma 90.000000
_cell_volume 4229.110287
_symmetry_space_group_name_H-M "F M M 2"
_symmetry_group_IT_number 42
_symmetry_cell_setting 'orthorhombic'
loop_
_space_group_symop_operation_xyz
x,y,z
-x,-y,z
-x,y,z
x,-y,z
x,1/2+y,1/2+z
-x,1/2-y,1/2+z
-x,1/2+y,1/2+z
x,1/2-y,1/2+z
1/2+x,y,1/2+z
1/2-x,-y,1/2+z
1/2-x,y,1/2+z
1/2+x,-y,1/2+z
1/2+x,1/2+y,z
1/2-x,1/2-y,z
1/2-x,1/2+y,z
1/2+x,1/2-y,z
loop_
_atom_site_type_symbol
_atom_site_label
_atom_site_fract_x
_atom_site_fract_y
_atom_site_fract_z
Si Si1 0.667843 0.588646 0.248600
Si Si2 0.827729 0.912564 0.849066
Si Si3 0.175892 0.170480 0.440426
Si Si4 0.829440 0.911344 0.030069
Si Si5 0.322787 0.918812 0.640030
O O1 0.500000 0.616703 0.261255
O O2 0.668127 0.500000 0.244177
O O3 0.778356 0.615361 0.293117
O O4 0.724505 0.621441 0.193397
O O5 0.728998 0.870849 0.890047
O O6 0.000000 0.891773 0.857312
O O7 0.799581 0.000000 0.855244
O O8 0.250000 0.250000 0.444877
O O9 0.217175 0.122331 0.489491
O O10 0.000000 0.180460 0.437755
O O11 0.781877 0.879149 0.086282
O O12 0.000000 0.888057 0.016728
O O13 0.816045 0.000000 0.029643
O O14 0.500000 0.928523 0.641756
O O15 0.246721 0.000000 0.638909
#
# Coordination Sequence:
#
# PCOD8186286 Si02
#       5
#    16  16  16  16  16
#     4   8  13  24  45  74 105 135 168 204 243 290
#     4  10  20  34  53  78 107 137 169 207 252 301
#     4  12  25  39  54  72  98 133 173 216 262 308
#     4   9  17  32  55  81 108 137 169 206 249 298
#     4   7  11  22  44  74 105 135 165 199 242 291
#
# _framework density 18.916506999999999
#
# number of rings (size 3 to 8) (size 9 to 14) (size 15 to 20)
#    0.000    2.800    0.000    5.400    0.000    4.000 
#    0.000    1.000    0.000    4.800    0.000    5.600 
#    0.000    0.000    0.000    0.000    0.000    0.000 
#
# Total GULP energy -247772.512245 kJ/mol
# GULP energy per Si atom -12388.625612 kJ/mol
# Density = 1.887345 g / cm^3
# Si number density = 18.916507 Si / 1000 Ang^3
#
#
#
# Elastic Constant Matrix: (Units=GPa)
#
#
# Indices 1 2 3 4 5 6 
#
# 1 90.4565 26.3684 47.3422 0.0000 0.0000 0.0000
# 2 26.3684 33.0281 32.5434 0.0000 0.0000 0.0000
# 3 47.3422 32.5434 170.1132 0.0000 0.0000 0.0000
# 4 0.0000 0.0000 0.0000 -6.0695 0.0000 0.0000
# 5 0.0000 0.0000 0.0000 0.0000 31.9204 0.0000
# 6 0.0000 0.0000 0.0000 0.0000 0.0000 19.2128
#
#
#
# Elastic Compliance Matrix: (Units=1/GPa)
#
#
# Indices 1 2 3 4 5 6 
#
# 1 0.015129 -0.009772 -0.002341 0.000000 0.000000 0.000000
# 2 -0.009772 0.043621 -0.005626 0.000000 0.000000 0.000000
# 3 -0.002341 -0.005626 0.007606 0.000000 0.000000 0.000000
# 4 0.000000 0.000000 0.000000 -0.164759 0.000000 0.000000
# 5 0.000000 0.000000 0.000000 0.000000 0.031328 0.000000
# 6 0.000000 0.000000 0.000000 0.000000 0.000000 0.052049
#
#
# Mechanical properties :
#
#
# Convention : Reuss Voigt Hill
#
# Bulk Modulus (GPa) = 32.38332 56.23400 44.30866
# Shear Modulus (GPa) = 162.63809 21.50233 92.07021
#
# Velocity S-wave (km/s) = 9.28243 3.37515 6.98409
# Velocity P-wave (km/s) = 11.49090 6.70678 9.40802
#
# Compressibility (1/GPa) = 0.03088009
#
# Stress axis : x y z
#
# Youngs Moduli (GPa) = 66.09971 22.92448 131.47320
#
# Poissons Ratio (x) = 0.22401 0.30777
# Poissons Ratio (y) = 0.64590 0.73961
# Poissons Ratio (z) = 0.15473 0.12896
#
# Static dielectric constant tensor:
#      x y z
#    x 3.282740 0.000000 0.000000 
#    y 0.000000 3.011820 0.000000 
#    z 0.000000 0.000000 4.160990 
# 
# 
# High freq. dielectric constant tensor:
#      x y z
#    x 1.713300 0.000000 0.000000 
#    y 0.000000 1.676350 0.000000 
#    z 0.000000 0.000000 1.768830 
# 
# From -- ./inp_files/31262.got.cif
#   From: 2010.03.12/outbox.cif.g09.slc.cpg/sg42_16_cif.got.tgz:31262.got - 2010.04.14 02:04:31.
