data_PCOD8186338
_publ_section_title
;
Structure prediction by ZEFSAII (Michael W. Deem and Ramdas Pophale) SiO2 
 PCOD8186338
Probable space group: F M M 2
;
_chemical_formula_sum "Si O2"
_cell_formula_units_Z 104
_cell_length_a 24.248283
_cell_length_b 13.973463
_cell_length_c 16.593660
_cell_angle_alpha 90.000000
_cell_angle_beta 90.000000
_cell_angle_gamma 90.000000
_cell_volume 5622.471058
_symmetry_space_group_name_H-M "F M M 2"
_symmetry_group_IT_number 42
_symmetry_cell_setting 'orthorhombic'
loop_
_space_group_symop_operation_xyz
x,y,z
-x,-y,z
-x,y,z
x,-y,z
x,1/2+y,1/2+z
-x,1/2-y,1/2+z
-x,1/2+y,1/2+z
x,1/2-y,1/2+z
1/2+x,y,1/2+z
1/2-x,-y,1/2+z
1/2-x,y,1/2+z
1/2+x,-y,1/2+z
1/2+x,1/2+y,z
1/2-x,1/2-y,z
1/2-x,1/2+y,z
1/2+x,1/2-y,z
loop_
_atom_site_type_symbol
_atom_site_label
_atom_site_fract_x
_atom_site_fract_y
_atom_site_fract_z
Si Si1 0.500000 0.387088 0.138790
Si Si2 0.000000 0.112274 0.493608
Si Si3 0.311149 0.256652 0.147416
Si Si4 0.000000 0.305591 0.813588
Si Si5 0.192953 0.891927 0.784029
Si Si6 0.915835 0.258872 0.545009
Si Si7 0.682260 0.889325 0.793087
Si Si8 0.609081 0.230519 0.365747
O O1 0.500000 0.500000 0.119645
O O2 0.500000 0.373980 0.235510
O O3 0.446518 0.337593 0.099400
O O4 0.000000 0.133908 0.397299
O O5 0.052673 0.157227 0.539908
O O6 0.000000 0.000000 0.508010
O O7 0.250000 0.250000 0.109225
O O8 0.318381 0.166425 0.204194
O O9 0.322238 0.352111 0.200732
O O10 0.354084 0.246071 0.075943
O O11 0.945265 0.239358 0.809305
O O12 0.254159 0.875143 0.820334
O O13 0.146985 0.860341 0.847410
O O14 0.183726 0.000000 0.759714
O O15 0.911963 0.294201 0.454054
O O16 0.644052 0.829193 0.854418
O O17 0.663641 0.000000 0.795990
#
# Coordination Sequence:
#
# PCOD8186338 Si02
#       8
#     8   8  16   8  16  16  16  16
#     4  11  22  37  57  77 102 135 172 218 262 303
#     4   9  20  39  57  75 104 137 172 218 258 297
#     4   9  18  33  53  77 108 140 170 211 256 301
#     4  10  21  36  57  80  98 130 183 218 251 304
#     4   9  18  34  55  77 102 138 179 212 248 301
#     4  10  22  35  51  80 109 135 170 208 261 321
#     4   9  18  34  57  80 100 132 180 221 252 293
#     4  10  20  35  53  76 107 136 167 216 261 303
#
# _framework density 18.497205000000001
#
# number of rings (size 3 to 8) (size 9 to 14) (size 15 to 20)
#    0.000    2.462    0.000    3.923    0.000    7.385 
#    0.000    0.385    0.000    3.692    0.000    0.000 
#    0.000    0.000    0.000    0.000    0.000    0.000 
#
# Total GULP energy -322240.459476 kJ/mol
# GULP energy per Si atom -12393.863826 kJ/mol
# Density = 1.845510 g / cm^3
# Si number density = 18.497205 Si / 1000 Ang^3
#
#
#
# Elastic Constant Matrix: (Units=GPa)
#
#
# Indices 1 2 3 4 5 6 
#
# 1 118.3670 26.2755 36.9183 0.0000 0.0000 0.0000
# 2 26.2755 77.1658 25.2712 0.0000 0.0000 0.0000
# 3 36.9183 25.2712 70.2955 0.0000 0.0000 0.0000
# 4 0.0000 0.0000 0.0000 11.5997 0.0000 0.0000
# 5 0.0000 0.0000 0.0000 0.0000 33.6700 0.0000
# 6 0.0000 0.0000 0.0000 0.0000 0.0000 17.9662
#
#
#
# Elastic Compliance Matrix: (Units=1/GPa)
#
#
# Indices 1 2 3 4 5 6 
#
# 1 0.010363 -0.001979 -0.004731 0.000000 0.000000 0.000000
# 2 -0.001979 0.015066 -0.004377 0.000000 0.000000 0.000000
# 3 -0.004731 -0.004377 0.018284 0.000000 0.000000 0.000000
# 4 0.000000 0.000000 0.000000 0.086209 0.000000 0.000000
# 5 0.000000 0.000000 0.000000 0.000000 0.029700 0.000000
# 6 0.000000 0.000000 0.000000 0.000000 0.000000 0.055660
#
#
# Mechanical properties :
#
#
# Convention : Reuss Voigt Hill
#
# Bulk Modulus (GPa) = 46.42744 49.19538 47.81141
# Shear Modulus (GPa) = 20.43846 24.47142 22.45494
#
# Velocity S-wave (km/s) = 3.32768 3.64122 3.48798
# Velocity P-wave (km/s) = 6.31813 6.65822 6.49040
#
# Compressibility (1/GPa) = 0.02153899
#
# Stress axis : x y z
#
# Youngs Moduli (GPa) = 96.49442 66.37248 54.69311
#
# Poissons Ratio (x) = 0.13138 0.25876
# Poissons Ratio (y) = 0.19100 0.23938
# Poissons Ratio (z) = 0.45652 0.29050
#
# Static dielectric constant tensor:
#      x y z
#    x 3.923580 0.000000 0.000000 
#    y 0.000000 3.469890 0.000000 
#    z 0.000000 0.000000 3.214150 
# 
# 
# High freq. dielectric constant tensor:
#      x y z
#    x 1.739430 0.000000 0.000000 
#    y 0.000000 1.704840 0.000000 
#    z 0.000000 0.000000 1.697480 
# 
# From -- ./inp_files/22246.got.cif
#   From: 2010.03.12/outbox.cif.g09.slc.cpg/sg42_12_cif.got.tgz:22246.got - 2010.04.14 02:04:31.
