data_PCOD8186155
_publ_section_title
;
Structure prediction by ZEFSAII (Michael W. Deem and Ramdas Pophale) SiO2 
 PCOD8186155
Probable space group: F M M 2
;
_chemical_formula_sum "Si O2"
_cell_formula_units_Z 68
_cell_length_a 16.134274
_cell_length_b 7.696896
_cell_length_c 26.946051
_cell_angle_alpha 90.000000
_cell_angle_beta 90.000000
_cell_angle_gamma 90.000000
_cell_volume 3346.263790
_symmetry_space_group_name_H-M "F M M 2"
_symmetry_group_IT_number 42
_symmetry_cell_setting 'orthorhombic'
loop_
_space_group_symop_operation_xyz
x,y,z
-x,-y,z
-x,y,z
x,-y,z
x,1/2+y,1/2+z
-x,1/2-y,1/2+z
-x,1/2+y,1/2+z
x,1/2-y,1/2+z
1/2+x,y,1/2+z
1/2-x,-y,1/2+z
1/2-x,y,1/2+z
1/2+x,-y,1/2+z
1/2+x,1/2+y,z
1/2-x,1/2-y,z
1/2-x,1/2+y,z
1/2+x,1/2-y,z
loop_
_atom_site_type_symbol
_atom_site_label
_atom_site_fract_x
_atom_site_fract_y
_atom_site_fract_z
Si Si1 0.160732 0.806272 0.418270
Si Si2 0.500000 0.000000 0.262556
Si Si3 0.000000 0.291929 0.682537
Si Si4 0.658249 0.796724 0.618917
Si Si5 0.094341 0.303496 0.517297
Si Si6 0.590566 0.500000 0.858089
O O1 0.250000 0.750000 0.438161
O O2 0.103064 0.805046 0.466865
O O3 0.135936 0.675403 0.374577
O O4 0.159294 0.000000 0.395498
O O5 0.500000 0.820272 0.232551
O O6 0.581642 0.000000 0.298246
O O7 0.083860 0.230479 0.654147
O O8 0.000000 0.500000 0.693722
O O9 0.750000 0.750000 0.639738
O O10 0.647180 0.721347 0.562989
O O11 0.646968 0.000000 0.614889
O O12 0.122740 0.500000 0.505126
O O13 0.000000 0.298572 0.535543
O O14 0.500000 0.500000 0.884173
#
# Coordination Sequence:
#
# PCOD8186155 Si02
#       6
#    16   4   8  16  16   8
#     4  12  23  39  65  95 136 174 214 268 326 386
#     4  10  26  46  76  90 122 164 220 270 346 384
#     4  10  22  46  69  93 129 171 212 274 334 389
#     4  10  21  37  62  95 133 175 218 261 321 382
#     4  10  19  35  58  92 137 183 213 256 310 385
#     4  10  24  46  66  95 122 169 214 272 334 397
#
# _framework density 20.321173000000002
#
# number of rings (size 3 to 8) (size 9 to 14) (size 15 to 20)
#    0.353    1.176    3.529    1.412    1.647    5.647 
#    0.000    1.176    0.000    0.000    0.000    0.000 
#    0.000    0.000    0.000    0.000    0.000    0.000 
#
# Total GULP energy -210719.129950 kJ/mol
# GULP energy per Si atom -12395.242938 kJ/mol
# Density = 2.027492 g / cm^3
# Si number density = 20.321173 Si / 1000 Ang^3
#
#
#
# Elastic Constant Matrix: (Units=GPa)
#
#
# Indices 1 2 3 4 5 6 
#
# 1 121.0610 25.5139 44.5191 0.0000 0.0000 0.0000
# 2 25.5139 120.7766 50.0271 0.0000 0.0000 0.0000
# 3 44.5191 50.0271 128.6201 0.0000 0.0000 0.0000
# 4 0.0000 0.0000 0.0000 16.6198 0.0000 0.0000
# 5 0.0000 0.0000 0.0000 0.0000 23.7079 0.0000
# 6 0.0000 0.0000 0.0000 0.0000 0.0000 29.1955
#
#
#
# Elastic Compliance Matrix: (Units=1/GPa)
#
#
# Indices 1 2 3 4 5 6 
#
# 1 0.009525 -0.000771 -0.002997 0.000000 0.000000 0.000000
# 2 -0.000771 0.009932 -0.003596 0.000000 0.000000 0.000000
# 3 -0.002997 -0.003596 0.010211 0.000000 0.000000 0.000000
# 4 0.000000 0.000000 0.000000 0.060169 0.000000 0.000000
# 5 0.000000 0.000000 0.000000 0.000000 0.042180 0.000000
# 6 0.000000 0.000000 0.000000 0.000000 0.000000 0.034252
#
#
# Mechanical properties :
#
#
# Convention : Reuss Voigt Hill
#
# Bulk Modulus (GPa) = 66.93530 67.84200 67.38865
# Shear Modulus (GPa) = 26.88497 30.59782 28.74140
#
# Velocity S-wave (km/s) = 3.64126 3.88456 3.76487
# Velocity P-wave (km/s) = 7.11959 7.31964 7.22031
#
# Compressibility (1/GPa) = 0.01493980
#
# Stress axis : x y z
#
# Youngs Moduli (GPa) = 104.98829 100.68234 97.93328
#
# Poissons Ratio (x) = 0.07760 0.29351
# Poissons Ratio (y) = 0.08091 0.35221
# Poissons Ratio (z) = 0.31466 0.36209
#
# Static dielectric constant tensor:
#      x y z
#    x 3.975250 0.000000 0.000000 
#    y 0.000000 3.600120 0.000000 
#    z 0.000000 0.000000 3.373260 
# 
# 
# High freq. dielectric constant tensor:
#      x y z
#    x 1.800710 0.000000 0.000000 
#    y 0.000000 1.791740 0.000000 
#    z 0.000000 0.000000 1.765210 
# 
# From -- ./inp_files/29797.got.cif
#   From: 2010.03.12/outbox.cif.g09.slc.cpg/sg42_15_cif.got.tgz:29797.got - 2010.04.14 02:04:31.
