data_PCOD8186828
_publ_section_title
;
Structure prediction by ZEFSAII (Michael W. Deem and Ramdas Pophale) SiO2 
 PCOD8186828
Probable space group: F M M 2
;
_chemical_formula_sum "Si O2"
_cell_formula_units_Z 64
_cell_length_a 8.916341
_cell_length_b 27.186403
_cell_length_c 15.146463
_cell_angle_alpha 90.000000
_cell_angle_beta 90.000000
_cell_angle_gamma 90.000000
_cell_volume 3671.551701
_symmetry_space_group_name_H-M "F M M 2"
_symmetry_group_IT_number 42
_symmetry_cell_setting 'orthorhombic'
loop_
_space_group_symop_operation_xyz
x,y,z
-x,-y,z
-x,y,z
x,-y,z
x,1/2+y,1/2+z
-x,1/2-y,1/2+z
-x,1/2+y,1/2+z
x,1/2-y,1/2+z
1/2+x,y,1/2+z
1/2-x,-y,1/2+z
1/2-x,y,1/2+z
1/2+x,-y,1/2+z
1/2+x,1/2+y,z
1/2-x,1/2-y,z
1/2-x,1/2+y,z
1/2+x,1/2-y,z
loop_
_atom_site_type_symbol
_atom_site_label
_atom_site_fract_x
_atom_site_fract_y
_atom_site_fract_z
Si Si1 0.169428 0.858658 0.220790
Si Si2 0.669156 0.371641 0.028200
Si Si3 0.676730 0.056149 0.139803
Si Si4 0.177919 0.197948 0.872465
O O1 0.244220 0.913451 0.219894
O O2 0.266646 0.821313 0.278203
O O3 0.000000 0.861811 0.257934
O O4 0.170300 0.839235 0.119043
O O5 0.500000 0.388885 0.006433
O O6 0.734067 0.339687 0.947966
O O7 0.770747 0.420344 0.045498
O O8 0.500000 0.060962 0.149655
O O9 0.730412 0.000000 0.144681
O O10 0.250000 0.250000 0.894036
O O11 0.000000 0.203472 0.871751
#
# Coordination Sequence:
#
# PCOD8186828 Si02
#       4
#    16  16  16  16
#     4   9  19  36  55  79 108 140 178 219 263 314
#     4   8  19  36  54  77 108 140 177 217 263 315
#     4   9  17  32  56  82 107 138 176 219 267 315
#     4  11  22  37  55  79 108 141 178 220 266 315
#
# _framework density 17.431321000000001
#
# number of rings (size 3 to 8) (size 9 to 14) (size 15 to 20)
#    1.500    1.250    0.000    1.500    0.000    5.000 
#    0.000    3.750    0.000    1.500    0.000    0.000 
#    0.000    0.000    0.000    0.000    0.000    0.000 
#
# Total GULP energy -198222.386506 kJ/mol
# GULP energy per Si atom -12388.899157 kJ/mol
# Density = 1.739165 g / cm^3
# Si number density = 17.431321 Si / 1000 Ang^3
#
#
#
# Elastic Constant Matrix: (Units=GPa)
#
#
# Indices 1 2 3 4 5 6 
#
# 1 80.0727 37.8790 19.8908 0.0000 0.0000 0.0000
# 2 37.8790 82.5160 12.9985 0.0000 0.0000 0.0000
# 3 19.8908 12.9985 48.1582 0.0000 0.0000 0.0000
# 4 0.0000 0.0000 0.0000 31.5384 0.0000 0.0000
# 5 0.0000 0.0000 0.0000 0.0000 14.6550 0.0000
# 6 0.0000 0.0000 0.0000 0.0000 0.0000 30.2431
#
#
#
# Elastic Compliance Matrix: (Units=1/GPa)
#
#
# Indices 1 2 3 4 5 6 
#
# 1 0.017100 -0.007036 -0.005164 0.000000 0.000000 0.000000
# 2 -0.007036 0.015552 -0.001292 0.000000 0.000000 0.000000
# 3 -0.005164 -0.001292 0.023246 0.000000 0.000000 0.000000
# 4 0.000000 0.000000 0.000000 0.031707 0.000000 0.000000
# 5 0.000000 0.000000 0.000000 0.000000 0.068236 0.000000
# 6 0.000000 0.000000 0.000000 0.000000 0.000000 0.033065
#
#
# Mechanical properties :
#
#
# Convention : Reuss Voigt Hill
#
# Bulk Modulus (GPa) = 34.58348 39.14261 36.86304
# Shear Modulus (GPa) = 22.17011 24.61921 23.39466
#
# Velocity S-wave (km/s) = 3.57018 3.76221 3.66745
# Velocity P-wave (km/s) = 6.07271 6.43245 6.25516
#
# Compressibility (1/GPa) = 0.02891554
#
# Stress axis : x y z
#
# Youngs Moduli (GPa) = 58.47976 64.29894 43.01780
#
# Poissons Ratio (x) = 0.45243 0.22213
# Poissons Ratio (y) = 0.41148 0.05556
# Poissons Ratio (z) = 0.30196 0.08305
#
# Static dielectric constant tensor:
#      x y z
#    x 3.239290 0.000000 0.000000 
#    y 0.000000 3.091190 0.000000 
#    z 0.000000 0.000000 3.071510 
# 
# 
# High freq. dielectric constant tensor:
#      x y z
#    x 1.685960 0.000000 0.000000 
#    y 0.000000 1.656100 0.000000 
#    z 0.000000 0.000000 1.654240 
# 
# From -- ./inp_files/9920.got.cif
#   From: 2010.03.12/outbox.cif.g09.slc.cpg/sg42_5_cif.got.tgz:9920.got - 2010.04.14 02:04:31.
