data_PCOD8186733
_publ_section_title
;
Structure prediction by ZEFSAII (Michael W. Deem and Ramdas Pophale) SiO2 
 PCOD8186733
Probable space group: F M M 2
;
_chemical_formula_sum "Si O2"
_cell_formula_units_Z 64
_cell_length_a 34.991902
_cell_length_b 8.971369
_cell_length_c 9.945793
_cell_angle_alpha 90.000000
_cell_angle_beta 90.000000
_cell_angle_gamma 90.000000
_cell_volume 3122.235702
_symmetry_space_group_name_H-M "F M M 2"
_symmetry_group_IT_number 42
_symmetry_cell_setting 'orthorhombic'
loop_
_space_group_symop_operation_xyz
x,y,z
-x,-y,z
-x,y,z
x,-y,z
x,1/2+y,1/2+z
-x,1/2-y,1/2+z
-x,1/2+y,1/2+z
x,1/2-y,1/2+z
1/2+x,y,1/2+z
1/2-x,-y,1/2+z
1/2-x,y,1/2+z
1/2+x,-y,1/2+z
1/2+x,1/2+y,z
1/2-x,1/2-y,z
1/2-x,1/2+y,z
1/2+x,1/2-y,z
loop_
_atom_site_type_symbol
_atom_site_label
_atom_site_fract_x
_atom_site_fract_y
_atom_site_fract_z
Si Si1 0.333337 0.172273 0.920270
Si Si2 0.456254 0.171154 0.640811
Si Si3 0.412529 0.328707 0.871863
Si Si4 0.211025 0.672360 0.188112
O O1 0.375705 0.233615 0.907668
O O2 0.303955 0.257884 0.825565
O O3 0.332964 0.000000 0.878646
O O4 0.320621 0.196287 0.073581
O O5 0.500000 0.222316 0.653365
O O6 0.430252 0.275292 0.732310
O O7 0.444032 0.192999 0.486869
O O8 0.451014 0.000000 0.685924
O O9 0.400012 0.500000 0.856100
O O10 0.219637 0.500000 0.213722
O O11 0.250000 0.750000 0.141955
#
# Coordination Sequence:
#
# PCOD8186733 Si02
#       4
#    16  16  16  16
#     4  11  24  41  62  89 121 158 199 243 294 351
#     4  10  22  40  61  87 120 157 197 243 296 353
#     4  11  23  39  61  89 120 155 198 246 295 350
#     4  11  24  41  63  91 121 156 198 243 294 351
#
# _framework density 20.498134
#
# number of rings (size 3 to 8) (size 9 to 14) (size 15 to 20)
#    0.000    1.250    0.000    5.250    0.000   13.500 
#    0.000    0.000    0.000    0.000    0.000    0.000 
#    0.000    0.000    0.000    0.000    0.000    0.000 
#
# Total GULP energy -198534.574512 kJ/mol
# GULP energy per Si atom -12408.410907 kJ/mol
# Density = 2.045148 g / cm^3
# Si number density = 20.498134 Si / 1000 Ang^3
#
#
#
# Elastic Constant Matrix: (Units=GPa)
#
#
# Indices 1 2 3 4 5 6 
#
# 1 98.2130 37.2237 2.0749 0.0000 0.0000 0.0000
# 2 37.2237 116.2592 43.3009 0.0000 0.0000 0.0000
# 3 2.0749 43.3009 65.0067 0.0000 0.0000 0.0000
# 4 0.0000 0.0000 0.0000 34.1969 0.0000 0.0000
# 5 0.0000 0.0000 0.0000 0.0000 38.9674 0.0000
# 6 0.0000 0.0000 0.0000 0.0000 0.0000 38.6722
#
#
#
# Elastic Compliance Matrix: (Units=1/GPa)
#
#
# Indices 1 2 3 4 5 6 
#
# 1 0.011983 -0.004913 0.002890 0.000000 0.000000 0.000000
# 2 -0.004913 0.013454 -0.008805 0.000000 0.000000 0.000000
# 3 0.002890 -0.008805 0.021156 0.000000 0.000000 0.000000
# 4 0.000000 0.000000 0.000000 0.029242 0.000000 0.000000
# 5 0.000000 0.000000 0.000000 0.000000 0.025662 0.000000
# 6 0.000000 0.000000 0.000000 0.000000 0.000000 0.025858
#
#
# Mechanical properties :
#
#
# Convention : Reuss Voigt Hill
#
# Bulk Modulus (GPa) = 40.10108 49.40867 44.75487
# Shear Modulus (GPa) = 31.78159 35.49260 33.63709
#
# Velocity S-wave (km/s) = 3.94186 4.16565 4.05530
# Velocity P-wave (km/s) = 6.35008 6.87700 6.61878
#
# Compressibility (1/GPa) = 0.02493698
#
# Stress axis : x y z
#
# Youngs Moduli (GPa) = 83.45146 74.32778 47.26865
#
# Poissons Ratio (x) = 0.36518 -0.13661
# Poissons Ratio (y) = 0.41001 0.41619
# Poissons Ratio (z) = -0.24119 0.65444
#
# Static dielectric constant tensor:
#      x y z
#    x 3.890480 0.000000 0.000000 
#    y 0.000000 3.896060 0.000000 
#    z 0.000000 0.000000 3.717090 
# 
# 
# High freq. dielectric constant tensor:
#      x y z
#    x 1.815590 0.000000 0.000000 
#    y 0.000000 1.812410 0.000000 
#    z 0.000000 0.000000 1.810010 
# 
# From -- ./inp_files/6219.got.cif
#   From: 2010.03.12/outbox.cif.g09.slc.cpg/sg42_4_cif.got.tgz:6219.got - 2010.04.14 02:04:31.
