data_PCOD8186614
_publ_section_title
;
Structure prediction by ZEFSAII (Michael W. Deem and Ramdas Pophale) SiO2 
 PCOD8186614
Probable space group: F M M 2
;
_chemical_formula_sum "Si O2"
_cell_formula_units_Z 64
_cell_length_a 17.822457
_cell_length_b 7.821720
_cell_length_c 23.546713
_cell_angle_alpha 90.000000
_cell_angle_beta 90.000000
_cell_angle_gamma 90.000000
_cell_volume 3282.465205
_symmetry_space_group_name_H-M "F M M 2"
_symmetry_group_IT_number 42
_symmetry_cell_setting 'orthorhombic'
loop_
_space_group_symop_operation_xyz
x,y,z
-x,-y,z
-x,y,z
x,-y,z
x,1/2+y,1/2+z
-x,1/2-y,1/2+z
-x,1/2+y,1/2+z
x,1/2-y,1/2+z
1/2+x,y,1/2+z
1/2-x,-y,1/2+z
1/2-x,y,1/2+z
1/2+x,-y,1/2+z
1/2+x,1/2+y,z
1/2-x,1/2-y,z
1/2-x,1/2+y,z
1/2+x,1/2-y,z
loop_
_atom_site_type_symbol
_atom_site_label
_atom_site_fract_x
_atom_site_fract_y
_atom_site_fract_z
Si Si1 0.667690 0.313361 0.702860
Si Si2 0.088214 0.000000 0.793492
Si Si3 0.164530 0.193968 0.490125
Si Si4 0.584684 0.306616 0.097837
Si Si5 0.911366 0.000000 0.924240
O O1 0.673381 0.500000 0.673362
O O2 0.750000 0.250000 0.718161
O O3 0.621918 0.330548 0.762348
O O4 0.624547 0.191983 0.659128
O O5 0.112362 0.000000 0.858647
O O6 0.000000 0.000000 0.785844
O O7 0.250000 0.250000 0.494544
O O8 0.129738 0.192797 0.553091
O O9 0.120421 0.325344 0.450290
O O10 0.158410 0.000000 0.465959
O O11 0.500000 0.235938 0.104098
O O12 0.584033 0.500000 0.074676
O O13 0.000000 0.000000 0.933332
#
# Coordination Sequence:
#
# PCOD8186614 Si02
#       5
#    16   8  16  16   8
#     4  10  21  37  60  90 123 161 212 255 316 377
#     4   9  22  42  65  86 125 173 211 264 320 382
#     4  12  24  42  66  97 132 173 215 270 329 385
#     4  11  22  37  61  93 134 169 209 264 321 395
#     4  11  24  46  67  96 133 169 223 274 320 392
#
# _framework density 19.497540000000001
#
# number of rings (size 3 to 8) (size 9 to 14) (size 15 to 20)
#    0.750    0.500    2.500    3.750    0.000    4.000 
#    0.000    1.250    0.000    3.000    0.000    0.000 
#    0.000    0.000    0.000    0.000    0.000    0.000 
#
# Total GULP energy -198363.499425 kJ/mol
# GULP energy per Si atom -12397.718714 kJ/mol
# Density = 1.945316 g / cm^3
# Si number density = 19.497540 Si / 1000 Ang^3
#
#
#
# Elastic Constant Matrix: (Units=GPa)
#
#
# Indices 1 2 3 4 5 6 
#
# 1 147.8625 43.4289 73.1354 0.0000 0.0000 0.0000
# 2 43.4289 117.1648 40.4124 0.0000 0.0000 0.0000
# 3 73.1354 40.4124 137.5516 0.0000 0.0000 0.0000
# 4 0.0000 0.0000 0.0000 24.3328 0.0000 0.0000
# 5 0.0000 0.0000 0.0000 0.0000 21.2959 0.0000
# 6 0.0000 0.0000 0.0000 0.0000 0.0000 30.4576
#
#
#
# Elastic Compliance Matrix: (Units=1/GPa)
#
#
# Indices 1 2 3 4 5 6 
#
# 1 0.009578 -0.001996 -0.004506 0.000000 0.000000 0.000000
# 2 -0.001996 0.009913 -0.001851 0.000000 0.000000 0.000000
# 3 -0.004506 -0.001851 0.010210 0.000000 0.000000 0.000000
# 4 0.000000 0.000000 0.000000 0.041097 0.000000 0.000000
# 5 0.000000 0.000000 0.000000 0.000000 0.046957 0.000000
# 6 0.000000 0.000000 0.000000 0.000000 0.000000 0.032833
#
#
# Mechanical properties :
#
#
# Convention : Reuss Voigt Hill
#
# Bulk Modulus (GPa) = 76.95644 79.61472 78.28558
# Shear Modulus (GPa) = 29.13301 31.59073 30.36187
#
# Velocity S-wave (km/s) = 3.86967 4.02959 3.95044
# Velocity P-wave (km/s) = 7.71500 7.91025 7.81323
#
# Compressibility (1/GPa) = 0.01299436
#
# Stress axis : x y z
#
# Youngs Moduli (GPa) = 104.40432 100.87384 97.94482
#
# Poissons Ratio (x) = 0.20134 0.44136
# Poissons Ratio (y) = 0.20839 0.18132
# Poissons Ratio (z) = 0.47047 0.18674
#
# Static dielectric constant tensor:
#      x y z
#    x 3.694640 0.000000 0.000000 
#    y 0.000000 3.568930 0.000000 
#    z 0.000000 0.000000 3.407040 
# 
# 
# High freq. dielectric constant tensor:
#      x y z
#    x 1.778290 0.000000 0.000000 
#    y 0.000000 1.755680 0.000000 
#    z 0.000000 0.000000 1.747290 
# 
# From -- ./inp_files/29729.got.cif
#   From: 2010.03.12/outbox.cif.g09.slc.cpg/sg42_15_cif.got.tgz:29729.got - 2010.04.14 02:04:31.
