data_PCOD8186283
_publ_section_title
;
Structure prediction by ZEFSAII (Michael W. Deem and Ramdas Pophale) SiO2 
 PCOD8186283
Probable space group: F M M 2
;
_chemical_formula_sum "Si O2"
_cell_formula_units_Z 96
_cell_length_a 8.905647
_cell_length_b 18.105997
_cell_length_c 31.110194
_cell_angle_alpha 90.000000
_cell_angle_beta 90.000000
_cell_angle_gamma 90.000000
_cell_volume 5016.382453
_symmetry_space_group_name_H-M "F M M 2"
_symmetry_group_IT_number 42
_symmetry_cell_setting 'orthorhombic'
loop_
_space_group_symop_operation_xyz
x,y,z
-x,-y,z
-x,y,z
x,-y,z
x,1/2+y,1/2+z
-x,1/2-y,1/2+z
-x,1/2+y,1/2+z
x,1/2-y,1/2+z
1/2+x,y,1/2+z
1/2-x,-y,1/2+z
1/2-x,y,1/2+z
1/2+x,-y,1/2+z
1/2+x,1/2+y,z
1/2-x,1/2-y,z
1/2-x,1/2+y,z
1/2+x,1/2-y,z
loop_
_atom_site_type_symbol
_atom_site_label
_atom_site_fract_x
_atom_site_fract_y
_atom_site_fract_z
Si Si1 0.322044 0.670525 0.267990
Si Si2 0.172195 0.087472 0.524321
Si Si3 0.822099 0.170193 0.101600
Si Si4 0.321505 0.417114 0.185011
Si Si5 0.324257 0.914806 0.852581
Si Si6 0.169083 0.087812 0.938492
O O1 0.500000 0.678207 0.266428
O O2 0.250000 0.750000 0.264939
O O3 0.262423 0.622256 0.228067
O O4 0.268740 0.631046 0.311559
O O5 0.273455 0.123668 0.560563
O O6 0.232213 0.116398 0.478403
O O7 0.000000 0.112377 0.529334
O O8 0.189801 0.000000 0.528139
O O9 0.750000 0.250000 0.100242
O O10 0.762783 0.128179 0.143941
O O11 0.000000 0.178148 0.101737
O O12 0.500000 0.420372 0.185029
O O13 0.255161 0.500000 0.183170
O O14 0.500000 0.905413 0.860845
O O15 0.239391 0.882309 0.894153
O O16 0.283080 0.000000 0.844154
O O17 0.000000 0.118080 0.943130
O O18 0.171899 0.000000 0.937644
#
# Coordination Sequence:
#
# PCOD8186283 Si02
#       6
#    16  16  16  16  16  16
#     4  10  20  34  53  77 107 141 175 214 261 314
#     4  10  20  35  56  81 109 141 180 225 270 319
#     4  11  22  36  55  79 110 145 180 220 268 322
#     4   9  18  34  57  82 105 135 178 222 262 310
#     4   9  17  31  52  76 102 136 179 222 262 308
#     4   9  17  30  51  79 108 137 173 220 271 318
#
# _framework density 19.137295999999999
#
# number of rings (size 3 to 8) (size 9 to 14) (size 15 to 20)
#    0.000    2.333    0.000    3.000    0.000    6.333 
#    0.000    1.667    0.000    5.500    0.000    0.000 
#    0.000    0.000    0.000    0.000    0.000    0.000 
#
# Total GULP energy -297648.066829 kJ/mol
# GULP energy per Si atom -12402.002785 kJ/mol
# Density = 1.909374 g / cm^3
# Si number density = 19.137296 Si / 1000 Ang^3
#
#
#
# Elastic Constant Matrix: (Units=GPa)
#
#
# Indices 1 2 3 4 5 6 
#
# 1 62.6138 29.5300 43.8366 0.0000 0.0000 0.0000
# 2 29.5300 62.3148 47.7620 0.0000 0.0000 0.0000
# 3 43.8366 47.7620 171.3674 0.0000 0.0000 0.0000
# 4 0.0000 0.0000 0.0000 6.6698 0.0000 0.0000
# 5 0.0000 0.0000 0.0000 0.0000 27.6039 0.0000
# 6 0.0000 0.0000 0.0000 0.0000 0.0000 26.4801
#
#
#
# Elastic Compliance Matrix: (Units=1/GPa)
#
#
# Indices 1 2 3 4 5 6 
#
# 1 0.022083 -0.007802 -0.003475 0.000000 0.000000 0.000000
# 2 -0.007802 0.023163 -0.004460 0.000000 0.000000 0.000000
# 3 -0.003475 -0.004460 0.007967 0.000000 0.000000 0.000000
# 4 0.000000 0.000000 0.000000 0.149929 0.000000 0.000000
# 5 0.000000 0.000000 0.000000 0.000000 0.036227 0.000000
# 6 0.000000 0.000000 0.000000 0.000000 0.000000 0.037764
#
#
# Mechanical properties :
#
#
# Convention : Reuss Voigt Hill
#
# Bulk Modulus (GPa) = 45.99653 59.83924 52.91789
# Shear Modulus (GPa) = 15.83017 23.82860 19.82939
#
# Velocity S-wave (km/s) = 2.87921 3.53248 3.22244
# Velocity P-wave (km/s) = 5.92793 6.92634 6.44649
#
# Compressibility (1/GPa) = 0.02174077
#
# Stress axis : x y z
#
# Youngs Moduli (GPa) = 45.28394 43.17206 125.51315
#
# Poissons Ratio (x) = 0.33681 0.43610
# Poissons Ratio (y) = 0.35329 0.55980
# Poissons Ratio (z) = 0.15734 0.19255
#
# Static dielectric constant tensor:
#      x y z
#    x 3.373720 0.000000 0.000000 
#    y 0.000000 3.356870 0.000000 
#    z 0.000000 0.000000 3.793240 
# 
# 
# High freq. dielectric constant tensor:
#      x y z
#    x 1.729920 0.000000 0.000000 
#    y 0.000000 1.728020 0.000000 
#    z 0.000000 0.000000 1.764650 
# 
# From -- ./inp_files/31438.got.cif
#   From: 2010.03.12/outbox.cif.g09.slc.cpg/sg42_16_cif.got.tgz:31438.got - 2010.04.14 02:04:31.
