data_PCOD8186314
_publ_section_title
;
Structure prediction by ZEFSAII (Michael W. Deem and Ramdas Pophale) SiO2 
 PCOD8186314
Probable space group: F M M 2
;
_chemical_formula_sum "Si O2"
_cell_formula_units_Z 80
_cell_length_a 17.371786
_cell_length_b 24.145657
_cell_length_c 9.473685
_cell_angle_alpha 90.000000
_cell_angle_beta 90.000000
_cell_angle_gamma 90.000000
_cell_volume 3973.767359
_symmetry_space_group_name_H-M "F M M 2"
_symmetry_group_IT_number 42
_symmetry_cell_setting 'orthorhombic'
loop_
_space_group_symop_operation_xyz
x,y,z
-x,-y,z
-x,y,z
x,-y,z
x,1/2+y,1/2+z
-x,1/2-y,1/2+z
-x,1/2+y,1/2+z
x,1/2-y,1/2+z
1/2+x,y,1/2+z
1/2-x,-y,1/2+z
1/2-x,y,1/2+z
1/2+x,-y,1/2+z
1/2+x,1/2+y,z
1/2-x,1/2-y,z
1/2-x,1/2+y,z
1/2+x,1/2-y,z
loop_
_atom_site_type_symbol
_atom_site_label
_atom_site_fract_x
_atom_site_fract_y
_atom_site_fract_z
Si Si1 0.701946 0.000000 0.375000
Si Si2 0.750000 0.250000 0.450259
Si Si3 0.199387 0.322673 0.199849
Si Si4 0.415228 0.619175 0.536820
Si Si5 0.917803 0.500000 0.139059
Si Si6 0.092892 0.000000 0.137527
Si Si7 0.184116 0.592251 0.797060
O O1 0.755232 0.945581 0.384303
O O2 0.660407 0.000000 0.225240
O O3 0.633502 0.000000 0.486334
O O4 0.802503 0.287799 0.345583
O O5 0.801482 0.214332 0.557740
O O6 0.120094 0.357315 0.183893
O O7 0.270948 0.365478 0.194384
O O8 0.500000 0.644635 0.516599
O O9 0.417645 0.552738 0.537866
O O10 0.361063 0.632985 0.403679
O O11 0.000000 0.500000 0.225683
O O12 0.122372 0.055444 0.213407
O O13 0.000000 0.000000 0.125797
#
# Coordination Sequence:
#
# PCOD8186314 Si02
#       7
#     8   8  16  16   8   8  16
#     4  11  21  33  56  91 121 163 211 245 280 363
#     4  10  24  40  68  94 118 146 218 270 314 348
#     4  11  21  42  67  94 116 161 206 264 307 366
#     4  11  22  38  61  93 127 163 199 248 308 372
#     4  10  20  34  55  89 132 163 197 247 300 362
#     4  11  24  37  54  90 135 164 190 242 301 361
#     4  11  22  36  64  87 123 162 211 241 299 364
#
# _framework density 20.132028999999999
#
# number of rings (size 3 to 8) (size 9 to 14) (size 15 to 20)
#    0.000    1.200    4.000    3.300    2.800    0.800 
#    0.000    1.000    0.000    0.000    0.000    0.000 
#    0.000    0.000    0.000    0.000    0.000    0.000 
#
# Total GULP energy -247853.383365 kJ/mol
# GULP energy per Si atom -12392.669168 kJ/mol
# Density = 2.008621 g / cm^3
# Si number density = 20.132029 Si / 1000 Ang^3
#
#
#
# Elastic Constant Matrix: (Units=GPa)
#
#
# Indices 1 2 3 4 5 6 
#
# 1 152.3820 31.7212 43.2005 0.0000 0.0000 0.0000
# 2 31.7212 79.2441 27.3424 0.0000 0.0000 0.0000
# 3 43.2005 27.3424 93.5952 0.0000 0.0000 0.0000
# 4 0.0000 0.0000 0.0000 37.0520 0.0000 0.0000
# 5 0.0000 0.0000 0.0000 0.0000 31.7735 0.0000
# 6 0.0000 0.0000 0.0000 0.0000 0.0000 1.2037
#
#
#
# Elastic Compliance Matrix: (Units=1/GPa)
#
#
# Indices 1 2 3 4 5 6 
#
# 1 0.007854 -0.002105 -0.003010 0.000000 0.000000 0.000000
# 2 -0.002105 0.014598 -0.003293 0.000000 0.000000 0.000000
# 3 -0.003010 -0.003293 0.013036 0.000000 0.000000 0.000000
# 4 0.000000 0.000000 0.000000 0.026989 0.000000 0.000000
# 5 0.000000 0.000000 0.000000 0.000000 0.031473 0.000000
# 6 0.000000 0.000000 0.000000 0.000000 0.000000 0.830795
#
#
# Mechanical properties :
#
#
# Convention : Reuss Voigt Hill
#
# Bulk Modulus (GPa) = 53.55846 58.86106 56.20976
# Shear Modulus (GPa) = 5.27546 28.86964 17.07255
#
# Velocity S-wave (km/s) = 1.62053 3.79095 2.91525
# Velocity P-wave (km/s) = 5.49207 6.96152 6.26999
#
# Compressibility (1/GPa) = 0.01867119
#
# Stress axis : x y z
#
# Youngs Moduli (GPa) = 127.32197 68.50174 76.71265
#
# Poissons Ratio (x) = 0.14422 0.23092
# Poissons Ratio (y) = 0.26806 0.25260
# Poissons Ratio (z) = 0.38326 0.22557
#
# Static dielectric constant tensor:
#      x y z
#    x 3.801690 0.000000 0.000000 
#    y 0.000000 3.858670 0.000000 
#    z 0.000000 0.000000 3.559240 
# 
# 
# High freq. dielectric constant tensor:
#      x y z
#    x 1.779030 0.000000 0.000000 
#    y 0.000000 1.785580 0.000000 
#    z 0.000000 0.000000 1.779880 
# 
# From -- ./inp_files/3559.got.cif
#   From: 2010.03.12/outbox.cif.g09.slc.cpg/sg42_2_cif.got.tgz:3559.got - 2010.04.14 02:04:31.
