data_PCOD8186255
_publ_section_title
;
Structure prediction by ZEFSAII (Michael W. Deem and Ramdas Pophale) SiO2 
 PCOD8186255
Probable space group: F M M 2
;
_chemical_formula_sum "Si O2"
_cell_formula_units_Z 96
_cell_length_a 27.777424
_cell_length_b 9.204490
_cell_length_c 20.337825
_cell_angle_alpha 90.000000
_cell_angle_beta 90.000000
_cell_angle_gamma 90.000000
_cell_volume 5199.914518
_symmetry_space_group_name_H-M "F M M 2"
_symmetry_group_IT_number 42
_symmetry_cell_setting 'orthorhombic'
loop_
_space_group_symop_operation_xyz
x,y,z
-x,-y,z
-x,y,z
x,-y,z
x,1/2+y,1/2+z
-x,1/2-y,1/2+z
-x,1/2+y,1/2+z
x,1/2-y,1/2+z
1/2+x,y,1/2+z
1/2-x,-y,1/2+z
1/2-x,y,1/2+z
1/2+x,-y,1/2+z
1/2+x,1/2+y,z
1/2-x,1/2-y,z
1/2-x,1/2+y,z
1/2+x,1/2-y,z
loop_
_atom_site_type_symbol
_atom_site_label
_atom_site_fract_x
_atom_site_fract_y
_atom_site_fract_z
Si Si1 0.554112 0.334070 0.156140
Si Si2 0.640033 0.669201 0.973146
Si Si3 0.300922 0.828363 0.345117
Si Si4 0.853085 0.667992 0.731426
Si Si5 0.054740 0.669195 0.022207
Si Si6 0.299070 0.331805 0.098109
O O1 0.500000 0.310930 0.183263
O O2 0.562519 0.500000 0.132327
O O3 0.591011 0.298344 0.214999
O O4 0.564534 0.232905 0.094301
O O5 0.627744 0.500000 0.969846
O O6 0.675636 0.714043 0.914542
O O7 0.589748 0.756409 0.968658
O O8 0.664349 0.716235 0.041379
O O9 0.250000 0.750000 0.337722
O O10 0.337301 0.773383 0.289481
O O11 0.293063 0.000000 0.337519
O O12 0.845893 0.500000 0.751941
O O13 0.821396 0.707421 0.668119
O O14 0.066091 0.500000 0.025057
O O15 0.000000 0.700222 0.000054
O O16 0.287364 0.500000 0.091575
O O17 0.250000 0.250000 0.087321
#
# Coordination Sequence:
#
# PCOD8186255 Si02
#       6
#    16  16  16  16  16  16
#     4   9  17  33  58  84 112 149 187 225 276 333
#     4  10  21  39  58  79 109 148 191 228 274 335
#     4  11  24  40  59  81 111 151 190 231 281 335
#     4  10  20  36  57  82 113 147 187 231 276 332
#     4  10  20  33  54  87 119 145 179 228 282 330
#     4  10  20  34  53  79 106 138 182 231 277 325
#
# _framework density 18.461842000000001
#
# number of rings (size 3 to 8) (size 9 to 14) (size 15 to 20)
#    0.000    2.000    1.667    2.000    0.000    5.667 
#    0.000    0.833    0.000    3.000    0.000    0.000 
#    0.000    0.000    0.000    0.000    0.000    0.000 
#
# Total GULP energy -297656.825267 kJ/mol
# GULP energy per Si atom -12402.367719 kJ/mol
# Density = 1.841982 g / cm^3
# Si number density = 18.461842 Si / 1000 Ang^3
#
#
#
# Elastic Constant Matrix: (Units=GPa)
#
#
# Indices 1 2 3 4 5 6 
#
# 1 122.1040 58.1548 27.3159 0.0000 0.0000 0.0000
# 2 58.1548 72.1386 39.9769 0.0000 0.0000 0.0000
# 3 27.3159 39.9769 63.5640 0.0000 0.0000 0.0000
# 4 0.0000 0.0000 0.0000 25.1947 0.0000 0.0000
# 5 0.0000 0.0000 0.0000 0.0000 33.3899 0.0000
# 6 0.0000 0.0000 0.0000 0.0000 0.0000 34.3505
#
#
#
# Elastic Compliance Matrix: (Units=1/GPa)
#
#
# Indices 1 2 3 4 5 6 
#
# 1 0.013398 -0.011681 0.001589 0.000000 0.000000 0.000000
# 2 -0.011681 0.031463 -0.014768 0.000000 0.000000 0.000000
# 3 0.001589 -0.014768 0.024337 0.000000 0.000000 0.000000
# 4 0.000000 0.000000 0.000000 0.039691 0.000000 0.000000
# 5 0.000000 0.000000 0.000000 0.000000 0.029949 0.000000
# 6 0.000000 0.000000 0.000000 0.000000 0.000000 0.029112
#
#
# Mechanical properties :
#
#
# Convention : Reuss Voigt Hill
#
# Bulk Modulus (GPa) = 51.34071 56.52242 53.93156
# Shear Modulus (GPa) = 22.30531 27.41097 24.85814
#
# Velocity S-wave (km/s) = 3.47967 3.85741 3.67340
# Velocity P-wave (km/s) = 6.63427 7.10786 6.87515
#
# Compressibility (1/GPa) = 0.01947772
#
# Stress axis : x y z
#
# Youngs Moduli (GPa) = 74.63981 31.78349 41.08946
#
# Poissons Ratio (x) = 0.37127 -0.06529
# Poissons Ratio (y) = 0.87188 0.60680
# Poissons Ratio (z) = -0.11861 0.46937
#
# Static dielectric constant tensor:
#      x y z
#    x 3.522530 0.000000 0.000000 
#    y 0.000000 3.399890 0.000000 
#    z 0.000000 0.000000 3.262220 
# 
# 
# High freq. dielectric constant tensor:
#      x y z
#    x 1.733130 0.000000 0.000000 
#    y 0.000000 1.715710 0.000000 
#    z 0.000000 0.000000 1.697010 
# 
# From -- ./inp_files/23684.got.cif
#   From: 2010.03.12/outbox.cif.g09.slc.cpg/sg42_12_cif.got.tgz:23684.got - 2010.04.14 02:04:31.
