data_PCOD8186202
_publ_section_title
;
Structure prediction by ZEFSAII (Michael W. Deem and Ramdas Pophale) SiO2 
 PCOD8186202
Probable space group: F M M 2
;
_chemical_formula_sum "Si O2"
_cell_formula_units_Z 120
_cell_length_a 16.271014
_cell_length_b 27.075742
_cell_length_c 14.826366
_cell_angle_alpha 90.000000
_cell_angle_beta 90.000000
_cell_angle_gamma 90.000000
_cell_volume 6531.752237
_symmetry_space_group_name_H-M "F M M 2"
_symmetry_group_IT_number 42
_symmetry_cell_setting 'orthorhombic'
loop_
_space_group_symop_operation_xyz
x,y,z
-x,-y,z
-x,y,z
x,-y,z
x,1/2+y,1/2+z
-x,1/2-y,1/2+z
-x,1/2+y,1/2+z
x,1/2-y,1/2+z
1/2+x,y,1/2+z
1/2-x,-y,1/2+z
1/2-x,y,1/2+z
1/2+x,-y,1/2+z
1/2+x,1/2+y,z
1/2-x,1/2-y,z
1/2-x,1/2+y,z
1/2+x,1/2-y,z
loop_
_atom_site_type_symbol
_atom_site_label
_atom_site_fract_x
_atom_site_fract_y
_atom_site_fract_z
Si Si1 0.859067 0.129187 0.361780
Si Si2 0.903773 0.869223 0.072225
Si Si3 0.903480 0.294057 0.718942
Si Si4 0.750000 0.750000 0.465760
Si Si5 0.593213 0.318066 0.725120
Si Si6 0.594833 0.945675 0.717203
Si Si7 0.313878 0.150725 0.391474
Si Si8 0.093344 0.188534 0.526876
O O1 0.856290 0.176686 0.296522
O O2 0.898156 0.081730 0.313802
O O3 0.765444 0.115809 0.385843
O O4 0.906565 0.145271 0.452315
O O5 0.882186 0.817111 0.120671
O O6 0.866745 0.912875 0.136072
O O7 0.000000 0.876243 0.061387
O O8 0.866457 0.870955 0.973239
O O9 0.873237 0.238091 0.722193
O O10 0.000000 0.300419 0.738215
O O11 0.710584 0.792496 0.405501
O O12 0.829475 0.773274 0.518985
O O13 0.500000 0.317375 0.758347
O O14 0.639976 0.352586 0.795901
O O15 0.603171 0.338744 0.623625
O O16 0.500000 0.952369 0.696280
O O17 0.637040 0.000000 0.720881
O O18 0.000000 0.213747 0.524405
#
# Coordination Sequence:
#
# PCOD8186202 Si02
#       8
#    16  16  16   8  16  16  16  16
#     4  10  20  32  49  73 101 129 156 198 257 302
#     4   9  18  33  52  73  97 125 160 207 255 289
#     4   9  17  30  48  68  92 127 172 218 251 268
#     4  10  22  32  48  72  96 140 186 218 248 278
#     4  10  20  31  46  68  98 143 185 208 231 275
#     4   9  18  36  62  83  92 107 147 202 256 306
#     4  11  21  31  44  69 105 139 170 201 235 285
#     4  10  20  33  47  68 101 138 176 214 248 284
#
# _framework density 18.371794000000001
#
# number of rings (size 3 to 8) (size 9 to 14) (size 15 to 20)
#    0.000    2.267    0.000    4.800    0.000    9.067 
#    0.000    0.667    0.000    0.000    0.000    0.933 
#    0.000    3.200    0.000    0.000    0.000    0.267 
#
# Total GULP energy -371712.894368 kJ/mol
# GULP energy per Si atom -12390.429812 kJ/mol
# Density = 1.832998 g / cm^3
# Si number density = 18.371794 Si / 1000 Ang^3
#
#
#
# Elastic Constant Matrix: (Units=GPa)
#
#
# Indices 1 2 3 4 5 6 
#
# 1 72.1253 13.9126 38.8919 0.0000 0.0000 0.0000
# 2 13.9126 66.1745 32.6190 0.0000 0.0000 0.0000
# 3 38.8919 32.6190 134.6226 0.0000 0.0000 0.0000
# 4 0.0000 0.0000 0.0000 8.6659 0.0000 0.0000
# 5 0.0000 0.0000 0.0000 0.0000 -8.9453 0.0000
# 6 0.0000 0.0000 0.0000 0.0000 0.0000 10.9620
#
#
#
# Elastic Compliance Matrix: (Units=1/GPa)
#
#
# Indices 1 2 3 4 5 6 
#
# 1 0.016517 -0.001272 -0.004463 0.000000 0.000000 0.000000
# 2 -0.001272 0.017259 -0.003814 0.000000 0.000000 0.000000
# 3 -0.004463 -0.003814 0.009642 0.000000 0.000000 0.000000
# 4 0.000000 0.000000 0.000000 0.115394 0.000000 0.000000
# 5 0.000000 0.000000 0.000000 0.000000 -0.111791 0.000000
# 6 0.000000 0.000000 0.000000 0.000000 0.000000 0.091224
#
#
# Mechanical properties :
#
#
# Convention : Reuss Voigt Hill
#
# Bulk Modulus (GPa) = 41.12214 49.30771 45.21493
# Shear Modulus (GPa) = 30.22026 14.63645 22.42835
#
# Velocity S-wave (km/s) = 4.06017 2.82562 3.49779
# Velocity P-wave (km/s) = 6.66422 6.12720 6.40134
#
# Compressibility (1/GPa) = 0.02431780
#
# Stress axis : x y z
#
# Youngs Moduli (GPa) = 60.54377 57.93991 103.71474
#
# Poissons Ratio (x) = 0.07373 0.46292
# Poissons Ratio (y) = 0.07704 0.39560
# Poissons Ratio (z) = 0.27023 0.22100
#
# Static dielectric constant tensor:
#      x y z
#    x 3.480490 0.000000 0.000000 
#    y 0.000000 3.141160 0.000000 
#    z 0.000000 0.000000 3.482870 
# 
# 
# High freq. dielectric constant tensor:
#      x y z
#    x 1.711740 0.000000 0.000000 
#    y 0.000000 1.653200 0.000000 
#    z 0.000000 0.000000 1.724000 
# 
# From -- ./inp_files/14547.got.cif
#   From: 2010.03.12/outbox.cif.g09.slc.cpg/sg42_8_cif.got.tgz:14547.got - 2010.04.14 02:04:31.
