data_PCOD8186055
_publ_section_title
;
Structure prediction by ZEFSAII (Michael W. Deem and Ramdas Pophale) SiO2 
 PCOD8186055
Probable space group: F M M 2
;
_chemical_formula_sum "Si O2"
_cell_formula_units_Z 80
_cell_length_a 15.659139
_cell_length_b 8.495802
_cell_length_c 29.302293
_cell_angle_alpha 90.000000
_cell_angle_beta 90.000000
_cell_angle_gamma 90.000000
_cell_volume 3898.287526
_symmetry_space_group_name_H-M "F M M 2"
_symmetry_group_IT_number 42
_symmetry_cell_setting 'orthorhombic'
loop_
_space_group_symop_operation_xyz
x,y,z
-x,-y,z
-x,y,z
x,-y,z
x,1/2+y,1/2+z
-x,1/2-y,1/2+z
-x,1/2+y,1/2+z
x,1/2-y,1/2+z
1/2+x,y,1/2+z
1/2-x,-y,1/2+z
1/2-x,y,1/2+z
1/2+x,-y,1/2+z
1/2+x,1/2+y,z
1/2-x,1/2-y,z
1/2-x,1/2+y,z
1/2+x,1/2-y,z
loop_
_atom_site_type_symbol
_atom_site_label
_atom_site_fract_x
_atom_site_fract_y
_atom_site_fract_z
Si Si1 0.838855 0.313347 0.596310
Si Si2 0.844168 0.187332 0.907252
Si Si3 0.096944 0.179875 0.002728
Si Si4 0.154305 0.185679 0.312354
Si Si5 0.000000 0.686954 0.655638
Si Si6 0.000000 0.184076 0.755345
O O1 0.838737 0.500000 0.594209
O O2 0.750000 0.250000 0.616812
O O3 0.849793 0.243965 0.544557
O O4 0.916194 0.257550 0.628132
O O5 0.750000 0.250000 0.910747
O O6 0.889846 0.256727 0.952747
O O7 0.884221 0.258125 0.861103
O O8 0.849587 0.000000 0.903624
O O9 0.000000 0.195305 0.018213
O O10 0.125327 0.000000 0.997144
O O11 0.250000 0.250000 0.302920
O O12 0.087118 0.241755 0.274735
O O13 0.160729 0.000000 0.311332
O O14 0.000000 0.500000 0.664657
O O15 0.000000 0.783014 0.701974
O O16 0.000000 0.000000 0.765708
#
# Coordination Sequence:
#
# PCOD8186055 Si02
#       6
#    16  16  16  16   8   8
#     4  10  20  37  62  87 118 157 200 244 296 354
#     4  10  19  32  54  83 119 160 203 247 293 350
#     4   9  17  31  53  83 117 159 205 243 285 348
#     4  11  23  42  65  92 126 162 205 253 304 365
#     4  10  22  42  63  86 117 155 198 247 303 368
#     4  12  26  44  67  92 121 157 200 255 315 372
#
# _framework density 20.521833000000001
#
# number of rings (size 3 to 8) (size 9 to 14) (size 15 to 20)
#    0.000    1.800    1.000    5.100    1.400    1.600 
#    0.000    3.000    0.000    2.400    0.000    0.000 
#    0.000    0.000    0.000    0.000    0.000    0.000 
#
# Total GULP energy -247895.602322 kJ/mol
# GULP energy per Si atom -12394.780116 kJ/mol
# Density = 2.047512 g / cm^3
# Si number density = 20.521833 Si / 1000 Ang^3
#
#
#
# Elastic Constant Matrix: (Units=GPa)
#
#
# Indices 1 2 3 4 5 6 
#
# 1 117.5964 30.1943 75.3139 0.0000 0.0000 0.0000
# 2 30.1943 91.1253 39.1856 0.0000 0.0000 0.0000
# 3 75.3139 39.1856 151.0716 0.0000 0.0000 0.0000
# 4 0.0000 0.0000 0.0000 28.3887 0.0000 0.0000
# 5 0.0000 0.0000 0.0000 0.0000 33.2075 0.0000
# 6 0.0000 0.0000 0.0000 0.0000 0.0000 24.9036
#
#
#
# Elastic Compliance Matrix: (Units=1/GPa)
#
#
# Indices 1 2 3 4 5 6 
#
# 1 0.012715 -0.001674 -0.005905 0.000000 0.000000 0.000000
# 2 -0.001674 0.012572 -0.002426 0.000000 0.000000 0.000000
# 3 -0.005905 -0.002426 0.010192 0.000000 0.000000 0.000000
# 4 0.000000 0.000000 0.000000 0.035225 0.000000 0.000000
# 5 0.000000 0.000000 0.000000 0.000000 0.030114 0.000000
# 6 0.000000 0.000000 0.000000 0.000000 0.000000 0.040155
#
#
# Mechanical properties :
#
#
# Convention : Reuss Voigt Hill
#
# Bulk Modulus (GPa) = 64.64420 72.13120 68.38770
# Shear Modulus (GPa) = 30.09509 31.63991 30.86750
#
# Velocity S-wave (km/s) = 3.83363 3.93080 3.88252
# Velocity P-wave (km/s) = 7.15292 7.47170 7.31405
#
# Compressibility (1/GPa) = 0.01546929
#
# Stress axis : x y z
#
# Youngs Moduli (GPa) = 78.64670 79.54192 98.11220
#
# Poissons Ratio (x) = 0.13315 0.57932
# Poissons Ratio (y) = 0.13166 0.23806
# Poissons Ratio (z) = 0.46438 0.19300
#
# Static dielectric constant tensor:
#      x y z
#    x 3.465230 0.000000 0.000000 
#    y 0.000000 3.479500 0.000000 
#    z 0.000000 0.000000 4.197520 
# 
# 
# High freq. dielectric constant tensor:
#      x y z
#    x 1.807240 0.000000 0.000000 
#    y 0.000000 1.779520 0.000000 
#    z 0.000000 0.000000 1.814340 
# 
# From -- ./inp_files/32772.got.cif
#   From: 2010.03.12/outbox.cif.g09.slc.cpg/sg42_17_cif.got.tgz:32772.got - 2010.04.14 02:04:31.
