data_PCOD8186513
_publ_section_title
;
Structure prediction by ZEFSAII (Michael W. Deem and Ramdas Pophale) SiO2 
 PCOD8186513
Probable space group: F M M 2
;
_chemical_formula_sum "Si O2"
_cell_formula_units_Z 96
_cell_length_a 10.925539
_cell_length_b 17.222302
_cell_length_c 25.223991
_cell_angle_alpha 90.000000
_cell_angle_beta 90.000000
_cell_angle_gamma 90.000000
_cell_volume 4746.220108
_symmetry_space_group_name_H-M "F M M 2"
_symmetry_group_IT_number 42
_symmetry_cell_setting 'orthorhombic'
loop_
_space_group_symop_operation_xyz
x,y,z
-x,-y,z
-x,y,z
x,-y,z
x,1/2+y,1/2+z
-x,1/2-y,1/2+z
-x,1/2+y,1/2+z
x,1/2-y,1/2+z
1/2+x,y,1/2+z
1/2-x,-y,1/2+z
1/2-x,y,1/2+z
1/2+x,-y,1/2+z
1/2+x,1/2+y,z
1/2-x,1/2-y,z
1/2-x,1/2+y,z
1/2+x,1/2-y,z
loop_
_atom_site_type_symbol
_atom_site_label
_atom_site_fract_x
_atom_site_fract_y
_atom_site_fract_z
Si Si1 0.000000 0.408789 0.487010
Si Si2 0.736963 0.592025 0.508990
Si Si3 0.266442 0.159834 0.307900
Si Si4 0.000000 0.593621 0.366268
Si Si5 0.359897 0.088970 0.205488
Si Si6 0.639692 0.585869 0.398305
Si Si7 0.359877 0.811310 0.101596
O O1 0.121261 0.382936 0.519274
O O2 0.000000 0.378366 0.426933
O O3 0.000000 0.500000 0.481450
O O4 0.714946 0.500000 0.514117
O O5 0.708883 0.621080 0.449259
O O6 0.648896 0.634430 0.550084
O O7 0.250000 0.250000 0.296474
O O8 0.384170 0.134115 0.340397
O O9 0.267567 0.117780 0.251010
O O10 0.152507 0.135243 0.344569
O O11 0.000000 0.500000 0.357706
O O12 0.500000 0.099411 0.225269
O O13 0.335038 0.137320 0.153001
O O14 0.330779 0.000000 0.192238
O O15 0.500000 0.581730 0.414691
O O16 0.693735 0.500000 0.386916
O O17 0.500000 0.776873 0.102920
O O18 0.250000 0.750000 0.099220
#
# Coordination Sequence:
#
# PCOD8186513 Si02
#       7
#     8  16  16   8  16  16  16
#     4   9  18  34  62  93 120 161 219 271 310 368
#     4  10  20  38  64  92 122 163 216 266 312 375
#     4  12  24  36  60  94 130 161 200 264 325 371
#     4  11  20  40  66  89 117 169 225 259 303 382
#     4  10  21  41  69  93 115 158 219 265 307 382
#     4  10  21  37  58  85 124 171 213 253 305 379
#     4  11  25  43  64  93 127 166 206 265 328 388
#
# _framework density 20.226621999999999
#
# number of rings (size 3 to 8) (size 9 to 14) (size 15 to 20)
#    0.000    1.500    2.500    3.000    2.333    2.333 
#    0.000    0.833    0.000    1.000    0.000    0.000 
#    0.000    0.000    0.000    0.000    0.000    0.000 
#
# Total GULP energy -297509.564190 kJ/mol
# GULP energy per Si atom -12396.231841 kJ/mol
# Density = 2.018059 g / cm^3
# Si number density = 20.226622 Si / 1000 Ang^3
#
#
#
# Elastic Constant Matrix: (Units=GPa)
#
#
# Indices 1 2 3 4 5 6 
#
# 1 99.3816 38.2672 35.3941 0.0000 0.0000 0.0000
# 2 38.2672 80.9941 40.4863 0.0000 0.0000 0.0000
# 3 35.3941 40.4863 119.7996 0.0000 0.0000 0.0000
# 4 0.0000 0.0000 0.0000 -2.2990 0.0000 0.0000
# 5 0.0000 0.0000 0.0000 0.0000 33.3193 0.0000
# 6 0.0000 0.0000 0.0000 0.0000 0.0000 25.8844
#
#
#
# Elastic Compliance Matrix: (Units=1/GPa)
#
#
# Indices 1 2 3 4 5 6 
#
# 1 0.012716 -0.004969 -0.002077 0.000000 0.000000 0.000000
# 2 -0.004969 0.016798 -0.004209 0.000000 0.000000 0.000000
# 3 -0.002077 -0.004209 0.010383 0.000000 0.000000 0.000000
# 4 0.000000 0.000000 0.000000 -0.434979 0.000000 0.000000
# 5 0.000000 0.000000 0.000000 0.000000 0.030013 0.000000
# 6 0.000000 0.000000 0.000000 0.000000 0.000000 0.038633
#
#
# Mechanical properties :
#
#
# Convention : Reuss Voigt Hill
#
# Bulk Modulus (GPa) = 57.51680 58.71895 58.11787
# Shear Modulus (GPa) = -16.77122 23.78278 3.50578
#
# Velocity S-wave (km/s) = -2.88265 3.43274 1.31796
# Velocity P-wave (km/s) = 4.17353 6.69366 5.57779
#
# Compressibility (1/GPa) = 0.01738623
#
# Stress axis : x y z
#
# Youngs Moduli (GPa) = 78.64415 59.52987 96.30762
#
# Poissons Ratio (x) = 0.29582 0.20006
# Poissons Ratio (y) = 0.39081 0.40534
# Poissons Ratio (z) = 0.16337 0.25055
#
# Static dielectric constant tensor:
#      x y z
#    x -0.202180 0.000000 0.000000 
#    y 0.000000 3.575330 0.000000 
#    z 0.000000 0.000000 3.746180 
# 
# 
# High freq. dielectric constant tensor:
#      x y z
#    x 1.792540 0.000000 0.000000 
#    y 0.000000 1.774550 0.000000 
#    z 0.000000 0.000000 1.795930 
# 
# From -- ./inp_files/28864.got.cif
#   From: 2010.03.12/outbox.cif.g09.slc.cpg/sg42_15_cif.got.tgz:28864.got - 2010.04.14 02:04:31.
