data_PCOD8186831
_publ_section_title
;
Structure prediction by ZEFSAII (Michael W. Deem and Ramdas Pophale) SiO2 
 PCOD8186831
Probable space group: F M M 2
;
_chemical_formula_sum "Si O2"
_cell_formula_units_Z 96
_cell_length_a 17.781158
_cell_length_b 18.969373
_cell_length_c 15.027650
_cell_angle_alpha 90.000000
_cell_angle_beta 90.000000
_cell_angle_gamma 90.000000
_cell_volume 5068.787551
_symmetry_space_group_name_H-M "F M M 2"
_symmetry_group_IT_number 42
_symmetry_cell_setting 'orthorhombic'
loop_
_space_group_symop_operation_xyz
x,y,z
-x,-y,z
-x,y,z
x,-y,z
x,1/2+y,1/2+z
-x,1/2-y,1/2+z
-x,1/2+y,1/2+z
x,1/2-y,1/2+z
1/2+x,y,1/2+z
1/2-x,-y,1/2+z
1/2-x,y,1/2+z
1/2+x,-y,1/2+z
1/2+x,1/2+y,z
1/2-x,1/2-y,z
1/2-x,1/2+y,z
1/2+x,1/2-y,z
loop_
_atom_site_type_symbol
_atom_site_label
_atom_site_fract_x
_atom_site_fract_y
_atom_site_fract_z
Si Si1 0.585878 0.703173 0.175210
Si Si2 0.832793 0.723463 0.330738
Si Si3 0.687029 0.577982 0.910558
Si Si4 0.324294 0.579105 0.107765
Si Si5 0.325038 0.421660 0.522551
Si Si6 0.914452 0.212280 0.495868
O O1 0.500000 0.681909 0.192884
O O2 0.611549 0.756384 0.251668
O O3 0.635749 0.632306 0.175724
O O4 0.596778 0.739822 0.081223
O O5 0.750000 0.750000 0.306677
O O6 0.837081 0.638640 0.341740
O O7 0.857965 0.760071 0.421702
O O8 0.668524 0.500000 0.870589
O O9 0.643921 0.586721 0.006064
O O10 0.776759 0.583443 0.930630
O O11 0.339735 0.500000 0.142820
O O12 0.233824 0.593469 0.104079
O O13 0.359427 0.500000 0.532399
O O14 0.393315 0.367321 0.522410
O O15 0.000000 0.213657 0.461258
#
# Coordination Sequence:
#
# PCOD8186831 Si02
#       6
#    16  16  16  16  16  16
#     4  11  25  38  55  89 125 155 194 247 306 365
#     4  12  22  36  63  90 115 158 202 245 296 359
#     4   8  16  34  61  89 113 142 197 256 295 332
#     4   8  16  35  63  86 113 152 197 250 296 346
#     4   8  16  33  59  88 113 147 202 247 289 359
#     4  11  22  38  58  82 123 162 192 248 304 361
#
# _framework density 18.939440999999999
#
# number of rings (size 3 to 8) (size 9 to 14) (size 15 to 20)
#    1.000    1.333    3.333    0.500    2.333    0.667 
#    0.000    2.500    0.000    5.000    0.000    0.000 
#    0.000    0.000    0.000    0.000    0.000    0.000 
#
# Total GULP energy -297420.104543 kJ/mol
# GULP energy per Si atom -12392.504356 kJ/mol
# Density = 1.889633 g / cm^3
# Si number density = 18.939441 Si / 1000 Ang^3
#
#
#
# Elastic Constant Matrix: (Units=GPa)
#
#
# Indices 1 2 3 4 5 6 
#
# 1 40.8017 34.7151 27.4000 0.0000 0.0000 0.0000
# 2 34.7151 131.4035 12.1261 0.0000 0.0000 0.0000
# 3 27.4000 12.1261 36.3886 0.0000 0.0000 0.0000
# 4 0.0000 0.0000 0.0000 30.0321 0.0000 0.0000
# 5 0.0000 0.0000 0.0000 0.0000 24.5190 0.0000
# 6 0.0000 0.0000 0.0000 0.0000 0.0000 23.6542
#
#
#
# Elastic Compliance Matrix: (Units=1/GPa)
#
#
# Indices 1 2 3 4 5 6 
#
# 1 0.066531 -0.013365 -0.045643 0.000000 0.000000 0.000000
# 2 -0.013365 0.010536 0.006552 0.000000 0.000000 0.000000
# 3 -0.045643 0.006552 0.059666 0.000000 0.000000 0.000000
# 4 0.000000 0.000000 0.000000 0.033298 0.000000 0.000000
# 5 0.000000 0.000000 0.000000 0.000000 0.040785 0.000000
# 6 0.000000 0.000000 0.000000 0.000000 0.000000 0.042276
#
#
# Mechanical properties :
#
#
# Convention : Reuss Voigt Hill
#
# Bulk Modulus (GPa) = 31.42435 39.67513 35.54974
# Shear Modulus (GPa) = 13.56445 24.59790 19.08117
#
# Velocity S-wave (km/s) = 2.67910 3.60775 3.17753
# Velocity P-wave (km/s) = 5.11841 6.19261 5.68095
#
# Compressibility (1/GPa) = 0.03182245
#
# Stress axis : x y z
#
# Youngs Moduli (GPa) = 15.03056 94.91028 16.75988
#
# Poissons Ratio (x) = 1.26844 0.76498
# Poissons Ratio (y) = 0.20088 -0.10982
# Poissons Ratio (z) = 0.68604 -0.62188
#
# Static dielectric constant tensor:
#      x y z
#    x 3.221350 0.000000 0.000000 
#    y 0.000000 3.482670 0.000000 
#    z 0.000000 0.000000 3.142110 
# 
# 
# High freq. dielectric constant tensor:
#      x y z
#    x 1.709070 0.000000 0.000000 
#    y 0.000000 1.749490 0.000000 
#    z 0.000000 0.000000 1.705900 
# 
# From -- ./inp_files/14010.got.cif
#   From: 2010.03.12/outbox.cif.g09.slc.cpg/sg42_8_cif.got.tgz:14010.got - 2010.04.14 02:04:31.
