data_PCOD8186081
_publ_section_title
;
Structure prediction by ZEFSAII (Michael W. Deem and Ramdas Pophale) SiO2 
 PCOD8186081
Probable space group: F M M 2
;
_chemical_formula_sum "Si O2"
_cell_formula_units_Z 92
_cell_length_a 7.645785
_cell_length_b 24.826014
_cell_length_c 26.803051
_cell_angle_alpha 90.000000
_cell_angle_beta 90.000000
_cell_angle_gamma 90.000000
_cell_volume 5087.604118
_symmetry_space_group_name_H-M "F M M 2"
_symmetry_group_IT_number 42
_symmetry_cell_setting 'orthorhombic'
loop_
_space_group_symop_operation_xyz
x,y,z
-x,-y,z
-x,y,z
x,-y,z
x,1/2+y,1/2+z
-x,1/2-y,1/2+z
-x,1/2+y,1/2+z
x,1/2-y,1/2+z
1/2+x,y,1/2+z
1/2-x,-y,1/2+z
1/2-x,y,1/2+z
1/2+x,-y,1/2+z
1/2+x,1/2+y,z
1/2-x,1/2-y,z
1/2-x,1/2+y,z
1/2+x,1/2-y,z
loop_
_atom_site_type_symbol
_atom_site_label
_atom_site_fract_x
_atom_site_fract_y
_atom_site_fract_z
Si Si1 0.000000 0.500000 0.364816
Si Si2 0.201701 0.307787 0.447964
Si Si3 0.796425 0.907030 0.012496
Si Si4 0.802256 0.936824 0.120877
Si Si5 0.689451 0.500000 0.442477
Si Si6 0.500000 0.389052 0.803189
Si Si7 0.000000 0.436651 0.195653
Si Si8 0.196307 0.688832 0.838232
O O1 0.170107 0.500000 0.398954
O O2 0.000000 0.445552 0.332618
O O3 0.250000 0.250000 0.470401
O O4 0.250053 0.348294 0.492005
O O5 0.309378 0.319153 0.397827
O O6 0.000000 0.312095 0.432241
O O7 0.736298 0.908782 0.069949
O O8 0.000000 0.921533 0.009031
O O9 0.696992 0.948547 0.977839
O O10 0.673263 0.920030 0.165168
O O11 0.000000 0.919023 0.135092
O O12 0.793369 0.000000 0.110728
O O13 0.500000 0.500000 0.415983
O O14 0.500000 0.401558 0.744992
O O15 0.672910 0.354531 0.814524
O O16 0.000000 0.500000 0.208239
O O17 0.250000 0.750000 0.824539
O O18 0.000000 0.677915 0.818035
#
# Coordination Sequence:
#
# PCOD8186081 Si02
#       8
#     4  16  16  16   8   8   8  16
#     4  12  26  42  52  84 142 170 180 244 312 362
#     4  10  19  33  53  82 119 158 192 230 281 343
#     4  10  19  34  55  82 117 159 191 233 291 337
#     4   9  18  34  57  83 114 147 197 246 279 342
#     4  12  24  34  55  85 121 161 200 228 284 359
#     4  12  24  42  64  87 121 163 198 249 315 358
#     4  10  22  40  60  85 114 153 195 238 300 358
#     4  11  21  39  64  91 117 155 209 253 292 353
#
# _framework density 18.083167
#
# number of rings (size 3 to 8) (size 9 to 14) (size 15 to 20)
#    0.000    1.565    3.913    2.609    1.217    4.174 
#    0.000    0.000    0.000    1.043    0.000    0.000 
#    0.000    0.000    0.000    0.000    0.000    0.000 
#
# Total GULP energy -285202.207340 kJ/mol
# GULP energy per Si atom -12400.095971 kJ/mol
# Density = 1.804201 g / cm^3
# Si number density = 18.083167 Si / 1000 Ang^3
#
#
#
# Elastic Constant Matrix: (Units=GPa)
#
#
# Indices 1 2 3 4 5 6 
#
# 1 131.6261 55.4948 59.8552 0.0000 0.0000 0.0000
# 2 55.4948 113.2320 70.5279 0.0000 0.0000 0.0000
# 3 59.8552 70.5279 124.4141 0.0000 0.0000 0.0000
# 4 0.0000 0.0000 0.0000 22.0564 0.0000 0.0000
# 5 0.0000 0.0000 0.0000 0.0000 -196.4882 0.0000
# 6 0.0000 0.0000 0.0000 0.0000 0.0000 30.6263
#
#
#
# Elastic Compliance Matrix: (Units=1/GPa)
#
#
# Indices 1 2 3 4 5 6 
#
# 1 0.010365 -0.003051 -0.003257 0.000000 0.000000 0.000000
# 2 -0.003051 0.014550 -0.006780 0.000000 0.000000 0.000000
# 3 -0.003257 -0.006780 0.013448 0.000000 0.000000 0.000000
# 4 0.000000 0.000000 0.000000 0.045338 0.000000 0.000000
# 5 0.000000 0.000000 0.000000 0.000000 -0.005089 0.000000
# 6 0.000000 0.000000 0.000000 0.000000 0.000000 0.032652
#
#
# Mechanical properties :
#
#
# Convention : Reuss Voigt Hill
#
# Bulk Modulus (GPa) = 82.05854 82.33644 82.19749
# Shear Modulus (GPa) = 35.33534 -16.53480 9.40027
#
# Velocity S-wave (km/s) = 4.42525 -3.02714 2.28246
# Velocity P-wave (km/s) = 8.46094 5.78038 7.24570
#
# Compressibility (1/GPa) = 0.01218642
#
# Stress axis : x y z
#
# Youngs Moduli (GPa) = 96.48186 68.72903 74.36056
#
# Poissons Ratio (x) = 0.20971 0.24217
# Poissons Ratio (y) = 0.29439 0.50417
# Poissons Ratio (z) = 0.31422 0.46599
#
# Static dielectric constant tensor:
#      x y z
#    x 4.271220 0.000000 0.000000 
#    y 0.000000 3.368250 0.000000 
#    z 0.000000 0.000000 3.158850 
# 
# 
# High freq. dielectric constant tensor:
#      x y z
#    x 1.715630 0.000000 0.000000 
#    y 0.000000 1.692450 0.000000 
#    z 0.000000 0.000000 1.677240 
# 
# From -- ./inp_files/28150.got.cif
#   From: 2010.03.12/outbox.cif.g09.slc.cpg/sg42_15_cif.got.tgz:28150.got - 2010.04.14 02:04:31.
