data_PCOD8186822
_publ_section_title
;
Structure prediction by ZEFSAII (Michael W. Deem and Ramdas Pophale) SiO2 
 PCOD8186822
Probable space group: F M M 2
;
_chemical_formula_sum "Si O2"
_cell_formula_units_Z 72
_cell_length_a 22.960988
_cell_length_b 10.166947
_cell_length_c 16.443583
_cell_angle_alpha 90.000000
_cell_angle_beta 90.000000
_cell_angle_gamma 90.000000
_cell_volume 3838.641781
_symmetry_space_group_name_H-M "F M M 2"
_symmetry_group_IT_number 42
_symmetry_cell_setting 'orthorhombic'
loop_
_space_group_symop_operation_xyz
x,y,z
-x,-y,z
-x,y,z
x,-y,z
x,1/2+y,1/2+z
-x,1/2-y,1/2+z
-x,1/2+y,1/2+z
x,1/2-y,1/2+z
1/2+x,y,1/2+z
1/2-x,-y,1/2+z
1/2-x,y,1/2+z
1/2+x,-y,1/2+z
1/2+x,1/2+y,z
1/2-x,1/2-y,z
1/2-x,1/2+y,z
1/2+x,1/2-y,z
loop_
_atom_site_type_symbol
_atom_site_label
_atom_site_fract_x
_atom_site_fract_y
_atom_site_fract_z
Si Si1 0.563922 0.145518 0.947700
Si Si2 0.151679 0.225821 0.572968
Si Si3 0.174510 0.500000 0.651687
Si Si4 0.865192 0.500000 0.826282
Si Si5 0.729004 0.000000 0.359631
Si Si6 0.188458 0.500000 0.185252
Si Si7 0.250000 0.750000 0.456793
O O1 0.500000 0.205165 0.925552
O O2 0.604268 0.131114 0.865681
O O3 0.556304 0.000000 0.984324
O O4 0.591963 0.226422 0.021736
O O5 0.160489 0.373936 0.598983
O O6 0.155308 0.128241 0.650224
O O7 0.202446 0.176865 0.512426
O O8 0.130449 0.500000 0.728785
O O9 0.242720 0.500000 0.669713
O O10 0.797061 0.500000 0.841575
O O11 0.684887 0.000000 0.283085
O O12 0.716451 0.136427 0.406457
#
# Coordination Sequence:
#
# PCOD8186822 Si02
#       7
#    16  16   8   8   8   8   8
#     4   9  18  37  63  81 100 151 209 239 267 337
#     4  12  21  37  57  86 118 151 190 238 288 344
#     4  11  23  32  55  88 126 147 176 241 306 338
#     4   9  18  36  54  81 109 149 195 230 273 347
#     4  11  24  31  54  83 116 147 186 229 285 345
#     4  11  22  35  52  82 120 155 184 228 288 350
#     4  12  20  36  52  80 116 150 186 224 286 350
#
# _framework density 18.756634999999999
#
# number of rings (size 3 to 8) (size 9 to 14) (size 15 to 20)
#    0.667    0.667    5.556    1.333    6.222    0.000 
#    0.000    2.778    0.000    0.000    0.000    0.000 
#    0.000    0.000    0.000    0.000    0.000    0.000 
#
# Total GULP energy -223007.429464 kJ/mol
# GULP energy per Si atom -12389.301637 kJ/mol
# Density = 1.871394 g / cm^3
# Si number density = 18.756635 Si / 1000 Ang^3
#
#
#
# Elastic Constant Matrix: (Units=GPa)
#
#
# Indices 1 2 3 4 5 6 
#
# 1 71.8445 -6.3516 24.2530 0.0000 0.0000 0.0000
# 2 -6.3516 95.1593 31.1839 0.0000 0.0000 0.0000
# 3 24.2530 31.1839 107.3192 0.0000 0.0000 0.0000
# 4 0.0000 0.0000 0.0000 18.5978 0.0000 0.0000
# 5 0.0000 0.0000 0.0000 0.0000 25.1722 0.0000
# 6 0.0000 0.0000 0.0000 0.0000 0.0000 -35.6951
#
#
#
# Elastic Compliance Matrix: (Units=1/GPa)
#
#
# Indices 1 2 3 4 5 6 
#
# 1 0.015557 0.002421 -0.004219 0.000000 0.000000 0.000000
# 2 0.002421 0.011991 -0.004031 0.000000 0.000000 0.000000
# 3 -0.004219 -0.004031 0.011443 0.000000 0.000000 0.000000
# 4 0.000000 0.000000 0.000000 0.053770 0.000000 0.000000
# 5 0.000000 0.000000 0.000000 0.000000 0.039726 0.000000
# 6 0.000000 0.000000 0.000000 0.000000 0.000000 -0.028015
#
#
# Mechanical properties :
#
#
# Convention : Reuss Voigt Hill
#
# Bulk Modulus (GPa) = 36.58680 41.38819 38.98750
# Shear Modulus (GPa) = 39.92236 16.63082 28.27659
#
# Velocity S-wave (km/s) = 4.61851 2.98092 3.88693
# Velocity P-wave (km/s) = 6.92742 5.82766 6.40120
#
# Compressibility (1/GPa) = 0.02733226
#
# Stress axis : x y z
#
# Youngs Moduli (GPa) = 64.27842 83.39297 87.39009
#
# Poissons Ratio (x) = -0.20190 0.36872
# Poissons Ratio (y) = -0.15562 0.35231
# Poissons Ratio (z) = 0.27121 0.33620
#
# Static dielectric constant tensor:
#      x y z
#    x 3.381010 0.000000 0.000000 
#    y 0.000000 3.297390 0.000000 
#    z 0.000000 0.000000 3.671710 
# 
# 
# High freq. dielectric constant tensor:
#      x y z
#    x 1.699250 0.000000 0.000000 
#    y 0.000000 1.711610 0.000000 
#    z 0.000000 0.000000 1.730580 
# 
# From -- ./inp_files/16350.got.cif
#   From: 2010.03.12/outbox.cif.g09.slc.cpg/sg42_9_cif.got.tgz:16350.got - 2010.04.14 02:04:31.
