data_PCOD8186959
_publ_section_title
;
Structure prediction by ZEFSAII (Michael W. Deem and Ramdas Pophale) SiO2 
 PCOD8186959
Probable space group: F D D 2
;
_chemical_formula_sum "Si O2"
_cell_formula_units_Z 120
_cell_length_a 20.414761
_cell_length_b 23.639502
_cell_length_c 13.459678
_cell_angle_alpha 90.000000
_cell_angle_beta 90.000000
_cell_angle_gamma 90.000000
_cell_volume 6495.570390
_symmetry_space_group_name_H-M "F D D 2"
_symmetry_group_IT_number 43
_symmetry_cell_setting 'orthorhombic'
loop_
_space_group_symop_operation_xyz
x,y,z
-x,-y,z
1/4-x,1/4+y,1/4+z
1/4+x,1/4-y,1/4+z
x,1/2+y,1/2+z
-x,1/2-y,1/2+z
1/4-x,3/4+y,3/4+z
1/4+x,3/4-y,3/4+z
1/2+x,y,1/2+z
1/2-x,-y,1/2+z
3/4-x,1/4+y,3/4+z
3/4+x,1/4-y,3/4+z
1/2+x,1/2+y,z
1/2-x,1/2-y,z
3/4-x,3/4+y,1/4+z
3/4+x,3/4-y,1/4+z
loop_
_atom_site_type_symbol
_atom_site_label
_atom_site_fract_x
_atom_site_fract_y
_atom_site_fract_z
Si Si1 0.750000 0.250000 0.102831
Si Si2 0.958642 0.664630 0.591228
Si Si3 0.029560 0.556166 0.662893
Si Si4 0.879957 0.991252 0.478336
Si Si5 0.948189 0.346061 0.305207
Si Si6 0.682850 0.286027 0.437593
Si Si7 0.588590 0.354076 0.878504
Si Si8 0.408936 0.806207 0.511665
O O1 0.810160 0.270672 0.170196
O O2 0.721199 0.299911 0.032946
O O3 0.908668 0.696260 0.662556
O O4 0.922415 0.640376 0.495360
O O5 0.986314 0.610837 0.647280
O O6 0.019142 0.704994 0.557981
O O7 0.101508 0.560459 0.614500
O O8 0.000000 0.500000 0.611294
O O9 0.911178 0.958056 0.572578
O O10 0.830970 0.042205 0.500053
O O11 0.938609 0.403359 0.241768
O O12 0.914694 0.347881 0.414682
O O13 0.025319 0.333411 0.318099
O O14 0.750000 0.250000 0.446785
O O15 0.622248 0.254155 0.488515
O O16 0.610353 0.415219 0.839978
#
# Coordination Sequence:
#
# PCOD8186959 Si02
#       8
#     8  16  16  16  16  16  16  16
#     4  10  20  40  58  84 124 160 202 258 298 364
#     4  10  20  39  59  90 122 157 199 259 301 366
#     4   9  20  37  60  86 120 159 202 241 309 359
#     4  11  23  40  62  91 125 162 207 255 309 365
#     4  10  23  38  63  88 122 163 202 254 304 364
#     4  11  21  40  63  91 120 163 208 250 312 369
#     4  10  18  40  60  84 126 149 198 254 300 361
#     4   9  21  39  59  89 121 155 201 251 304 364
#
# _framework density 18.474128
#
# number of rings (size 3 to 8) (size 9 to 14) (size 15 to 20)
#    0.400    1.600    3.333    0.000    1.867    1.067 
#   12.000    0.000    0.000    0.000    0.000    0.000 
#    0.000    0.000    0.000    0.000    0.000    0.000 
#
# Total GULP energy -371740.287519 kJ/mol
# GULP energy per Si atom -12391.342917 kJ/mol
# Density = 1.843208 g / cm^3
# Si number density = 18.474128 Si / 1000 Ang^3
#
#
#
# Elastic Constant Matrix: (Units=GPa)
#
#
# Indices 1 2 3 4 5 6 
#
# 1 122.7089 59.7298 52.2032 0.0000 0.0000 0.0000
# 2 59.7298 84.2757 61.7732 0.0000 0.0000 0.0000
# 3 52.2032 61.7732 93.2770 0.0000 0.0000 0.0000
# 4 0.0000 0.0000 0.0000 26.6391 0.0000 0.0000
# 5 0.0000 0.0000 0.0000 0.0000 37.4367 0.0000
# 6 0.0000 0.0000 0.0000 0.0000 0.0000 23.0834
#
#
#
# Elastic Compliance Matrix: (Units=1/GPa)
#
#
# Indices 1 2 3 4 5 6 
#
# 1 0.012675 -0.007353 -0.002224 0.000000 0.000000 0.000000
# 2 -0.007353 0.027325 -0.013981 0.000000 0.000000 0.000000
# 3 -0.002224 -0.013981 0.021224 0.000000 0.000000 0.000000
# 4 0.000000 0.000000 0.000000 0.037539 0.000000 0.000000
# 5 0.000000 0.000000 0.000000 0.000000 0.026712 0.000000
# 6 0.000000 0.000000 0.000000 0.000000 0.000000 0.043321
#
#
# Mechanical properties :
#
#
# Convention : Reuss Voigt Hill
#
# Bulk Modulus (GPa) = 70.88027 71.96377 71.42202
# Shear Modulus (GPa) = 22.66395 25.86885 24.26640
#
# Velocity S-wave (km/s) = 3.50636 3.74608 3.62820
# Velocity P-wave (km/s) = 7.40563 7.59929 7.50309
#
# Compressibility (1/GPa) = 0.01410830
#
# Stress axis : x y z
#
# Youngs Moduli (GPa) = 78.89804 36.59634 47.11553
#
# Poissons Ratio (x) = 0.26909 0.10478
# Poissons Ratio (y) = 0.58013 0.65873
# Poissons Ratio (z) = 0.17546 0.51166
#
# Static dielectric constant tensor:
#      x y z
#    x 3.412980 0.000000 0.000000 
#    y 0.000000 3.093960 0.000000 
#    z 0.000000 0.000000 3.551390 
# 
# 
# High freq. dielectric constant tensor:
#      x y z
#    x 1.737930 0.000000 0.000000 
#    y 0.000000 1.689440 0.000000 
#    z 0.000000 0.000000 1.724680 
# 
# From -- ./inp_files/11016.got.cif
#   From: 2010.06.25/outbox.cif.g09.slc.cpg/sg43_6_cif.got.tgz:11016.got - 2010.06.26 16:48:59.
