data_PCOD8186628
_publ_section_title
;
Structure prediction by ZEFSAII (Michael W. Deem and Ramdas Pophale) SiO2 
 PCOD8186628
Probable space group: F M M 2
;
_chemical_formula_sum "Si O2"
_cell_formula_units_Z 96
_cell_length_a 23.650195
_cell_length_b 8.746853
_cell_length_c 24.840062
_cell_angle_alpha 90.000000
_cell_angle_beta 90.000000
_cell_angle_gamma 90.000000
_cell_volume 5138.533938
_symmetry_space_group_name_H-M "F M M 2"
_symmetry_group_IT_number 42
_symmetry_cell_setting 'orthorhombic'
loop_
_space_group_symop_operation_xyz
x,y,z
-x,-y,z
-x,y,z
x,-y,z
x,1/2+y,1/2+z
-x,1/2-y,1/2+z
-x,1/2+y,1/2+z
x,1/2-y,1/2+z
1/2+x,y,1/2+z
1/2-x,-y,1/2+z
1/2-x,y,1/2+z
1/2+x,-y,1/2+z
1/2+x,1/2+y,z
1/2-x,1/2-y,z
1/2-x,1/2+y,z
1/2+x,1/2-y,z
loop_
_atom_site_type_symbol
_atom_site_label
_atom_site_fract_x
_atom_site_fract_y
_atom_site_fract_z
Si Si1 0.886295 0.179706 0.237980
Si Si2 0.690797 0.678059 0.651501
Si Si3 0.120168 0.818547 0.936788
Si Si4 0.688998 0.180400 0.839703
Si Si5 0.809376 0.322117 0.026259
Si Si6 0.500000 0.818733 0.395725
Si Si7 0.000000 0.680934 0.274283
O O1 0.858743 0.238339 0.183124
O O2 0.848549 0.227741 0.288786
O O3 0.946177 0.260600 0.242191
O O4 0.895105 0.000000 0.234799
O O5 0.691966 0.500000 0.665788
O O6 0.750000 0.750000 0.669789
O O7 0.679462 0.708161 0.588842
O O8 0.162186 0.751300 0.892763
O O9 0.056107 0.760111 0.926353
O O10 0.123543 0.000000 0.934852
O O11 0.139285 0.758059 0.994919
O O12 0.750000 0.250000 0.829523
O O13 0.693657 0.000000 0.846972
O O14 0.807556 0.500000 0.012084
O O15 0.750000 0.250000 0.007738
O O16 0.500000 0.752218 0.335094
O O17 0.500000 0.000000 0.393204
O O18 0.000000 0.500000 0.275292
#
# Coordination Sequence:
#
# PCOD8186628 Si02
#       7
#    16  16  16  16  16   8   8
#     4  11  23  38  58  86 117 150 194 239 286 343
#     4  10  21  38  61  86 116 153 193 238 291 348
#     4  11  21  37  59  83 112 148 192 236 284 341
#     4  11  23  36  53  81 115 148 183 231 286 342
#     4  10  21  38  59  86 116 151 191 234 288 343
#     4   9  20  37  58  83 110 149 192 232 281 337
#     4  11  21  39  62  83 114 155 196 238 287 343
#
# _framework density 18.682372000000001
#
# number of rings (size 3 to 8) (size 9 to 14) (size 15 to 20)
#    0.000    1.500    1.667    3.750    0.000    5.333 
#    0.000    2.500    0.000    4.000    0.000    0.000 
#    0.000    0.000    0.000    0.000    0.000    0.000 
#
# Total GULP energy -297743.249583 kJ/mol
# GULP energy per Si atom -12405.968733 kJ/mol
# Density = 1.863985 g / cm^3
# Si number density = 18.682372 Si / 1000 Ang^3
#
#
#
# Elastic Constant Matrix: (Units=GPa)
#
#
# Indices 1 2 3 4 5 6 
#
# 1 160.9756 53.7423 62.5302 0.0000 0.0000 0.0000
# 2 53.7423 82.4035 37.6768 0.0000 0.0000 0.0000
# 3 62.5302 37.6768 83.8554 0.0000 0.0000 0.0000
# 4 0.0000 0.0000 0.0000 32.5093 0.0000 0.0000
# 5 0.0000 0.0000 0.0000 0.0000 34.0382 0.0000
# 6 0.0000 0.0000 0.0000 0.0000 0.0000 27.5471
#
#
#
# Elastic Compliance Matrix: (Units=1/GPa)
#
#
# Indices 1 2 3 4 5 6 
#
# 1 0.009588 -0.003756 -0.005462 0.000000 0.000000 0.000000
# 2 -0.003756 0.016744 -0.004723 0.000000 0.000000 0.000000
# 3 -0.005462 -0.004723 0.018120 0.000000 0.000000 0.000000
# 4 0.000000 0.000000 0.000000 0.030760 0.000000 0.000000
# 5 0.000000 0.000000 0.000000 0.000000 0.029379 0.000000
# 6 0.000000 0.000000 0.000000 0.000000 0.000000 0.036301
#
#
# Mechanical properties :
#
#
# Convention : Reuss Voigt Hill
#
# Bulk Modulus (GPa) = 60.34527 70.57035 65.45781
# Shear Modulus (GPa) = 28.68670 30.37129 29.52899
#
# Velocity S-wave (km/s) = 3.92279 4.03633 3.97996
# Velocity P-wave (km/s) = 7.27245 7.71870 7.49889
#
# Compressibility (1/GPa) = 0.01657131
#
# Stress axis : x y z
#
# Youngs Moduli (GPa) = 104.30129 59.72270 55.18698
#
# Poissons Ratio (x) = 0.22429 0.30143
# Poissons Ratio (y) = 0.39171 0.26063
# Poissons Ratio (z) = 0.56969 0.28206
#
# Static dielectric constant tensor:
#      x y z
#    x 3.540900 0.000000 0.000000 
#    y 0.000000 3.503430 0.000000 
#    z 0.000000 0.000000 3.447290 
# 
# 
# High freq. dielectric constant tensor:
#      x y z
#    x 1.729930 0.000000 0.000000 
#    y 0.000000 1.735410 0.000000 
#    z 0.000000 0.000000 1.726210 
# 
# From -- ./inp_files/30451.got.cif
#   From: 2010.03.12/outbox.cif.g09.slc.cpg/sg42_16_cif.got.tgz:30451.got - 2010.04.14 02:04:31.
