data_PCOD8186835
_publ_section_title
;
Structure prediction by ZEFSAII (Michael W. Deem and Ramdas Pophale) SiO2 
 PCOD8186835
Probable space group: F M M 2
;
_chemical_formula_sum "Si O2"
_cell_formula_units_Z 96
_cell_length_a 21.603205
_cell_length_b 14.019937
_cell_length_c 14.860175
_cell_angle_alpha 90.000000
_cell_angle_beta 90.000000
_cell_angle_gamma 90.000000
_cell_volume 4500.784019
_symmetry_space_group_name_H-M "F M M 2"
_symmetry_group_IT_number 42
_symmetry_cell_setting 'orthorhombic'
loop_
_space_group_symop_operation_xyz
x,y,z
-x,-y,z
-x,y,z
x,-y,z
x,1/2+y,1/2+z
-x,1/2-y,1/2+z
-x,1/2+y,1/2+z
x,1/2-y,1/2+z
1/2+x,y,1/2+z
1/2-x,-y,1/2+z
1/2-x,y,1/2+z
1/2+x,-y,1/2+z
1/2+x,1/2+y,z
1/2-x,1/2-y,z
1/2-x,1/2+y,z
1/2+x,1/2-y,z
loop_
_atom_site_type_symbol
_atom_site_label
_atom_site_fract_x
_atom_site_fract_y
_atom_site_fract_z
Si Si1 0.718429 0.898215 0.582580
Si Si2 0.500000 0.116316 0.544868
Si Si3 0.250427 0.358918 0.277749
Si Si4 0.885247 0.751412 0.065937
Si Si5 0.882682 0.391370 0.231856
Si Si6 0.500000 0.388514 0.838337
Si Si7 0.331073 0.106005 0.954923
O O1 0.722433 0.910129 0.690199
O O2 0.675813 0.813075 0.551578
O O3 0.785976 0.881980 0.540550
O O4 0.692025 0.000000 0.546753
O O5 0.559422 0.173152 0.582746
O O6 0.500000 0.140634 0.440911
O O7 0.500000 0.000000 0.566065
O O8 0.250000 0.250000 0.252745
O O9 0.179547 0.392286 0.292885
O O10 0.293116 0.378447 0.363476
O O11 0.878874 0.680642 0.149362
O O12 0.885955 0.683792 0.975190
O O13 0.895712 0.500000 0.198294
O O14 0.938016 0.349153 0.292309
O O15 0.500000 0.500000 0.828194
O O16 0.360250 0.000000 0.951855
#
# Coordination Sequence:
#
# PCOD8186835 Si02
#       7
#    16   8  16  16  16   8  16
#     4  11  22  39  60  91 133 169 212 265 323 391
#     4  11  27  46  65  95 125 165 224 277 332 393
#     4  12  22  38  63  97 135 175 215 264 331 395
#     4  12  23  42  64  92 127 174 218 268 327 393
#     4  11  22  41  66  94 129 169 219 274 320 382
#     4   9  23  42  62  89 117 161 219 269 321 375
#     4  11  24  39  61  96 134 171 211 264 329 391
#
# _framework density 21.329616000000001
#
# number of rings (size 3 to 8) (size 9 to 14) (size 15 to 20)
#    0.000    0.833    3.333    4.500    4.667    0.000 
#    0.000    1.250    0.000    0.000    0.000    0.000 
#    0.000    0.000    0.000    0.000    0.000    0.000 
#
# Total GULP energy -297370.596198 kJ/mol
# GULP energy per Si atom -12390.441508 kJ/mol
# Density = 2.128107 g / cm^3
# Si number density = 21.329616 Si / 1000 Ang^3
#
#
#
# Elastic Constant Matrix: (Units=GPa)
#
#
# Indices 1 2 3 4 5 6 
#
# 1 56.8454 24.4033 -5.5358 0.0000 0.0000 0.0000
# 2 24.4033 139.0243 10.5366 0.0000 0.0000 0.0000
# 3 -5.5358 10.5366 73.8850 0.0000 0.0000 0.0000
# 4 0.0000 0.0000 0.0000 24.3767 0.0000 0.0000
# 5 0.0000 0.0000 0.0000 0.0000 27.0655 0.0000
# 6 0.0000 0.0000 0.0000 0.0000 0.0000 35.2223
#
#
#
# Elastic Compliance Matrix: (Units=1/GPa)
#
#
# Indices 1 2 3 4 5 6 
#
# 1 0.019299 -0.003535 0.001950 0.000000 0.000000 0.000000
# 2 -0.003535 0.007919 -0.001394 0.000000 0.000000 0.000000
# 3 0.001950 -0.001394 0.013879 0.000000 0.000000 0.000000
# 4 0.000000 0.000000 0.000000 0.041023 0.000000 0.000000
# 5 0.000000 0.000000 0.000000 0.000000 0.036947 0.000000
# 6 0.000000 0.000000 0.000000 0.000000 0.000000 0.028391
#
#
# Mechanical properties :
#
#
# Convention : Reuss Voigt Hill
#
# Bulk Modulus (GPa) = 28.45849 36.50701 32.48275
# Shear Modulus (GPa) = 30.27894 33.35627 31.81760
#
# Velocity S-wave (km/s) = 3.77181 3.95884 3.86646
# Velocity P-wave (km/s) = 5.68682 6.16842 5.93251
#
# Compressibility (1/GPa) = 0.03513890
#
# Stress axis : x y z
#
# Youngs Moduli (GPa) = 51.81556 126.27473 72.04877
#
# Poissons Ratio (x) = 0.44644 -0.14051
# Poissons Ratio (y) = 0.18319 0.10045
# Poissons Ratio (z) = -0.10105 0.17606
#
# Static dielectric constant tensor:
#      x y z
#    x 4.228790 0.000000 0.000000 
#    y 0.000000 4.332920 0.000000 
#    z 0.000000 0.000000 3.795460 
# 
# 
# High freq. dielectric constant tensor:
#      x y z
#    x 1.811500 0.000000 0.000000 
#    y 0.000000 1.865210 0.000000 
#    z 0.000000 0.000000 1.828190 
# 
# From -- ./inp_files/14038.got.cif
#   From: 2010.03.12/outbox.cif.g09.slc.cpg/sg42_8_cif.got.tgz:14038.got - 2010.04.14 02:04:31.
