data_PCOD8186590
_publ_section_title
;
Structure prediction by ZEFSAII (Michael W. Deem and Ramdas Pophale) SiO2 
 PCOD8186590
Probable space group: F M M 2
;
_chemical_formula_sum "Si O2"
_cell_formula_units_Z 112
_cell_length_a 22.654939
_cell_length_b 21.292121
_cell_length_c 11.662343
_cell_angle_alpha 90.000000
_cell_angle_beta 90.000000
_cell_angle_gamma 90.000000
_cell_volume 5625.584247
_symmetry_space_group_name_H-M "F M M 2"
_symmetry_group_IT_number 42
_symmetry_cell_setting 'orthorhombic'
loop_
_space_group_symop_operation_xyz
x,y,z
-x,-y,z
-x,y,z
x,-y,z
x,1/2+y,1/2+z
-x,1/2-y,1/2+z
-x,1/2+y,1/2+z
x,1/2-y,1/2+z
1/2+x,y,1/2+z
1/2-x,-y,1/2+z
1/2-x,y,1/2+z
1/2+x,-y,1/2+z
1/2+x,1/2+y,z
1/2-x,1/2-y,z
1/2-x,1/2+y,z
1/2+x,1/2-y,z
loop_
_atom_site_type_symbol
_atom_site_label
_atom_site_fract_x
_atom_site_fract_y
_atom_site_fract_z
Si Si1 0.568345 0.350685 0.845710
Si Si2 0.369648 0.354365 0.078313
Si Si3 0.796222 0.071664 0.237778
Si Si4 0.068967 0.791987 0.282503
Si Si5 0.433315 0.427842 0.633602
Si Si6 0.754087 0.819680 0.608895
Si Si7 0.148644 0.127653 0.449712
O O1 0.500000 0.364330 0.860406
O O2 0.581769 0.279489 0.813513
O O3 0.594183 0.391654 0.742040
O O4 0.596838 0.373653 0.964003
O O5 0.354386 0.415350 0.158180
O O6 0.408931 0.305728 0.153310
O O7 0.307583 0.323610 0.038572
O O8 0.745859 0.123343 0.203055
O O9 0.811614 0.082192 0.370953
O O10 0.774106 0.000000 0.219791
O O11 0.105998 0.830360 0.373935
O O12 0.000000 0.808919 0.291944
O O13 0.500000 0.403883 0.606427
O O14 0.433950 0.500000 0.666267
O O15 0.391997 0.416985 0.525329
O O16 0.750000 0.750000 0.666855
O O17 0.809725 0.827203 0.525427
#
# Coordination Sequence:
#
# PCOD8186590 Si02
#       7
#    16  16  16  16  16  16  16
#     4  10  21  36  62  91 123 161 202 254 312 374
#     4   9  21  40  59  88 126 161 204 255 306 371
#     4   9  22  41  60  88 122 163 212 254 301 373
#     4  10  21  37  63  93 122 160 208 260 312 366
#     4  10  23  40  59  89 124 161 207 255 311 376
#     4  10  23  39  60  90 124 162 201 259 311 374
#     4  11  22  39  65  88 124 162 207 259 313 368
#
# _framework density 19.909044000000002
#
# number of rings (size 3 to 8) (size 9 to 14) (size 15 to 20)
#    0.857    1.286    0.000    2.143    4.000    3.429 
#    0.000    0.000    0.000    8.143    0.000    0.000 
#    0.000    0.000    0.000    0.000    0.000    0.000 
#
# Total GULP energy -346998.537295 kJ/mol
# GULP energy per Si atom -12392.804903 kJ/mol
# Density = 1.986373 g / cm^3
# Si number density = 19.909044 Si / 1000 Ang^3
#
#
#
# Elastic Constant Matrix: (Units=GPa)
#
#
# Indices 1 2 3 4 5 6 
#
# 1 68.5869 27.0446 31.3002 0.0000 0.0000 0.0000
# 2 27.0446 112.7858 33.7307 0.0000 0.0000 0.0000
# 3 31.3002 33.7307 110.4500 0.0000 0.0000 0.0000
# 4 0.0000 0.0000 0.0000 20.0173 0.0000 0.0000
# 5 0.0000 0.0000 0.0000 0.0000 28.3196 0.0000
# 6 0.0000 0.0000 0.0000 0.0000 0.0000 -7.2249
#
#
#
# Elastic Compliance Matrix: (Units=1/GPa)
#
#
# Indices 1 2 3 4 5 6 
#
# 1 0.017626 -0.003007 -0.004077 0.000000 0.000000 0.000000
# 2 -0.003007 0.010271 -0.002284 0.000000 0.000000 0.000000
# 3 -0.004077 -0.002284 0.010907 0.000000 0.000000 0.000000
# 4 0.000000 0.000000 0.000000 0.049957 0.000000 0.000000
# 5 0.000000 0.000000 0.000000 0.000000 0.035311 0.000000
# 6 0.000000 0.000000 0.000000 0.000000 0.000000 -0.138411
#
#
# Mechanical properties :
#
#
# Convention : Reuss Voigt Hill
#
# Bulk Modulus (GPa) = 49.83302 52.88596 51.35949
# Shear Modulus (GPa) = 450.99518 21.53888 236.26703
#
# Velocity S-wave (km/s) = 15.06717 3.29274 10.90554
# Velocity P-wave (km/s) = 18.10462 6.40918 13.58041
#
# Compressibility (1/GPa) = 0.02006702
#
# Stress axis : x y z
#
# Youngs Moduli (GPa) = 56.73343 97.36471 91.68615
#
# Poissons Ratio (x) = 0.29281 0.37377
# Poissons Ratio (y) = 0.17062 0.20944
# Poissons Ratio (z) = 0.23128 0.22241
#
# Static dielectric constant tensor:
#      x y z
#    x 3.633750 0.000000 0.000000 
#    y 0.000000 3.482060 0.000000 
#    z 0.000000 0.000000 3.653850 
# 
# 
# High freq. dielectric constant tensor:
#      x y z
#    x 1.776580 0.000000 0.000000 
#    y 0.000000 1.768120 0.000000 
#    z 0.000000 0.000000 1.773340 
# 
# From -- ./inp_files/10249.got.cif
#   From: 2010.03.12/outbox.cif.g09.slc.cpg/sg42_6_cif.got.tgz:10249.got - 2010.04.14 02:04:31.
