data_PCOD8186884
_publ_section_title
;
Structure prediction by ZEFSAII (Michael W. Deem and Ramdas Pophale) SiO2 
 PCOD8186884
Probable space group: F M M 2
;
_chemical_formula_sum "Si O2"
_cell_formula_units_Z 128
_cell_length_a 28.632194
_cell_length_b 9.708193
_cell_length_c 31.185414
_cell_angle_alpha 90.000000
_cell_angle_beta 90.000000
_cell_angle_gamma 90.000000
_cell_volume 8668.511775
_symmetry_space_group_name_H-M "F M M 2"
_symmetry_group_IT_number 42
_symmetry_cell_setting 'orthorhombic'
loop_
_space_group_symop_operation_xyz
x,y,z
-x,-y,z
-x,y,z
x,-y,z
x,1/2+y,1/2+z
-x,1/2-y,1/2+z
-x,1/2+y,1/2+z
x,1/2-y,1/2+z
1/2+x,y,1/2+z
1/2-x,-y,1/2+z
1/2-x,y,1/2+z
1/2+x,-y,1/2+z
1/2+x,1/2+y,z
1/2-x,1/2-y,z
1/2-x,1/2+y,z
1/2+x,1/2-y,z
loop_
_atom_site_type_symbol
_atom_site_label
_atom_site_fract_x
_atom_site_fract_y
_atom_site_fract_z
Si Si1 0.392974 0.663138 0.263620
Si Si2 0.552277 0.836041 0.007674
Si Si3 0.555491 0.846751 0.101889
Si Si4 0.793338 0.158820 0.394109
Si Si5 0.947318 0.835473 0.345505
Si Si6 0.108256 0.163699 0.427050
Si Si7 0.793426 0.841326 0.294102
Si Si8 0.054559 0.839502 0.179524
O O1 0.397563 0.500000 0.265440
O O2 0.421472 0.725286 0.303687
O O3 0.338683 0.706330 0.267025
O O4 0.415723 0.717591 0.219648
O O5 0.500000 0.777329 0.999416
O O6 0.571354 0.792758 0.054793
O O7 0.550085 0.000000 0.005456
O O8 0.587444 0.777025 0.971572
O O9 0.500000 0.853395 0.101770
O O10 0.573376 0.741899 0.138034
O O11 0.575600 0.000000 0.111139
O O12 0.750000 0.250000 0.409481
O O13 0.837967 0.208777 0.421517
O O14 0.804744 0.181902 0.344102
O O15 0.781211 0.000000 0.403105
O O16 0.922083 0.776783 0.387786
O O17 0.000000 0.780365 0.345305
O O18 0.945807 0.000000 0.345211
O O19 0.105058 0.000000 0.426240
O O20 0.750000 0.750000 0.278624
O O21 0.780991 0.000000 0.285111
O O22 0.000000 0.811165 0.188639
O O23 0.063713 0.000000 0.171180
#
# Coordination Sequence:
#
# PCOD8186884 Si02
#       8
#    16  16  16  16  16  16  16  16
#     4   9  15  24  36  54  80 107 130 157 195 232
#     4   8  13  21  35  56  81 106 130 158 194 233
#     4   8  14  25  39  55  78 106 132 161 196 228
#     4   9  16  26  40  57  78 103 131 163 196 229
#     4   9  14  19  30  51  81 110 130 151 185 229
#     4   9  14  21  34  56  81 104 130 160 193 229
#     4   9  16  27  41  56  77 103 131 163 197 230
#     4   9  16  25  39  59  81 105 133 161 190 230
#
# _framework density 14.766087000000001
#
# number of rings (size 3 to 8) (size 9 to 14) (size 15 to 20)
#    0.000    3.250    1.250    1.500    0.000    3.000 
#    0.000    0.625    0.000    0.750    0.000    0.875 
#    0.000    8.500    0.000    0.500    0.000    0.000 
#
# Total GULP energy -396622.938637 kJ/mol
# GULP energy per Si atom -12394.466832 kJ/mol
# Density = 1.473248 g / cm^3
# Si number density = 14.766087 Si / 1000 Ang^3
#
#
#
# Elastic Constant Matrix: (Units=GPa)
#
#
# Indices 1 2 3 4 5 6 
#
# 1 108.2656 32.5823 67.8391 0.0000 0.0000 0.0001
# 2 32.5823 29.5881 32.6691 0.0001 0.0000 0.0001
# 3 67.8391 32.6691 130.9114 0.0000 0.0000 0.0000
# 4 0.0000 0.0001 0.0000 15.7409 0.0000 0.0000
# 5 0.0000 0.0000 0.0000 0.0000 14.2703 0.0000
# 6 0.0001 0.0001 0.0000 0.0000 0.0000 15.7498
#
#
#
# Elastic Compliance Matrix: (Units=1/GPa)
#
#
# Indices 1 2 3 4 5 6 
#
# 1 0.016213 -0.011839 -0.005447 0.000000 0.000000 0.000000
# 2 -0.011839 0.055297 -0.007664 0.000000 0.000000 0.000000
# 3 -0.005447 -0.007664 0.012374 0.000000 0.000000 0.000000
# 4 0.000000 0.000000 0.000000 0.063529 0.000000 0.000000
# 5 0.000000 0.000000 0.000000 0.000000 0.070076 0.000000
# 6 0.000000 0.000000 0.000000 0.000000 0.000000 0.063493
#
#
# Mechanical properties :
#
#
# Convention : Reuss Voigt Hill
#
# Bulk Modulus (GPa) = 29.42665 59.43844 44.43255
# Shear Modulus (GPa) = 14.61093 18.19715 16.40404
#
# Velocity S-wave (km/s) = 3.14903 3.51431 3.33667
# Velocity P-wave (km/s) = 5.76140 7.53710 6.70826
#
# Compressibility (1/GPa) = 0.03398280
#
# Stress axis : x y z
#
# Youngs Moduli (GPa) = 61.68049 18.08419 80.81408
#
# Poissons Ratio (x) = 0.21410 0.44020
# Poissons Ratio (y) = 0.73024 0.61939
# Poissons Ratio (z) = 0.33598 0.13860
#
# Static dielectric constant tensor:
#      x y z
#    x 2.847020 0.000000 0.000000 
#    y 0.000000 2.487880 0.000000 
#    z 0.000000 0.000000 3.089420 
# 
# 
# High freq. dielectric constant tensor:
#      x y z
#    x 1.550910 0.000000 0.000000 
#    y 0.000000 1.515300 0.000000 
#    z 0.000000 0.000000 1.559800 
# 
# From -- ./inp_files/29105.got.cif
#   From: 2010.03.12/outbox.cif.g09.slc.cpg/sg42_15_cif.got.tgz:29105.got - 2010.04.14 02:04:31.
