data_PCOD8186060
_publ_section_title
;
Structure prediction by ZEFSAII (Michael W. Deem and Ramdas Pophale) SiO2 
 PCOD8186060
Probable space group: F M M 2
;
_chemical_formula_sum "Si O2"
_cell_formula_units_Z 128
_cell_length_a 29.067434
_cell_length_b 24.526292
_cell_length_c 10.052016
_cell_angle_alpha 90.000000
_cell_angle_beta 90.000000
_cell_angle_gamma 90.000000
_cell_volume 7166.246798
_symmetry_space_group_name_H-M "F M M 2"
_symmetry_group_IT_number 42
_symmetry_cell_setting 'orthorhombic'
loop_
_space_group_symop_operation_xyz
x,y,z
-x,-y,z
-x,y,z
x,-y,z
x,1/2+y,1/2+z
-x,1/2-y,1/2+z
-x,1/2+y,1/2+z
x,1/2-y,1/2+z
1/2+x,y,1/2+z
1/2-x,-y,1/2+z
1/2-x,y,1/2+z
1/2+x,-y,1/2+z
1/2+x,1/2+y,z
1/2-x,1/2-y,z
1/2-x,1/2+y,z
1/2+x,1/2-y,z
loop_
_atom_site_type_symbol
_atom_site_label
_atom_site_fract_x
_atom_site_fract_y
_atom_site_fract_z
Si Si1 0.551245 0.061040 0.910000
Si Si2 0.875250 0.641415 0.215192
Si Si3 0.370468 0.140421 0.910155
Si Si4 0.289972 0.215016 0.515606
Si Si5 0.344291 0.742029 0.274567
Si Si6 0.765792 0.892864 0.449378
Si Si7 0.448693 0.939904 0.226411
Si Si8 0.208641 0.061432 0.721247
O O1 0.500000 0.083349 0.870162
O O2 0.593592 0.096283 0.849389
O O3 0.557167 0.000000 0.853285
O O4 0.555171 0.059441 0.068188
O O5 0.872307 0.701552 0.274323
O O6 0.916221 0.607486 0.285309
O O7 0.829563 0.607210 0.242793
O O8 0.884945 0.649512 0.060876
O O9 0.378620 0.196228 0.830556
O O10 0.316304 0.126072 0.901232
O O11 0.250000 0.250000 0.583423
O O12 0.303503 0.246793 0.380187
O O13 0.328797 0.218740 0.630294
O O14 0.270658 0.155081 0.483129
O O15 0.768826 0.931115 0.577358
O O16 0.747330 0.930319 0.331544
O O17 0.500000 0.926504 0.274268
O O18 0.433907 0.000000 0.279127
O O19 0.188361 0.000000 0.730422
#
# Coordination Sequence:
#
# PCOD8186060 Si02
#       8
#    16  16  16  16  16  16  16  16
#     4   8  15  30  53  79 106 135 170 216 270 323
#     4  10  19  33  49  74 104 137 174 217 270 316
#     4  10  20  32  51  78 104 137 173 220 264 311
#     4  12  22  34  54  73 104 143 186 222 257 307
#     4  12  21  35  51  79 105 142 184 219 264 313
#     4  11  22  35  50  74 104 141 179 221 265 309
#     4   8  14  27  50  77 102 130 169 218 268 320
#     4  11  22  35  50  71 104 142 177 217 267 320
#
# _framework density 17.861511
#
# number of rings (size 3 to 8) (size 9 to 14) (size 15 to 20)
#    0.000    1.750    3.750    3.375    0.000    3.500 
#    0.000    0.625    0.000    0.000    0.000    0.000 
#    0.000    2.000    0.000    0.000    0.000    0.000 
#
# Total GULP energy -396505.961180 kJ/mol
# GULP energy per Si atom -12390.811287 kJ/mol
# Density = 1.782086 g / cm^3
# Si number density = 17.861511 Si / 1000 Ang^3
#
#
#
# Elastic Constant Matrix: (Units=GPa)
#
#
# Indices 1 2 3 4 5 6 
#
# 1 91.2339 66.5416 33.8375 0.0007 -0.0009 -0.0002
# 2 66.5416 139.7569 30.7043 -0.0033 0.0017 0.0008
# 3 33.8375 30.7043 50.1465 -0.0084 0.0058 0.0019
# 4 0.0007 -0.0033 -0.0084 20.0188 0.0021 0.0011
# 5 -0.0009 0.0017 0.0058 0.0021 2.1230 -0.0002
# 6 -0.0002 0.0008 0.0019 0.0011 -0.0002 36.1015
#
#
#
# Elastic Compliance Matrix: (Units=1/GPa)
#
#
# Indices 1 2 3 4 5 6 
#
# 1 0.019592 -0.007422 -0.008676 -0.000006 0.000038 0.000001
# 2 -0.007422 0.011079 -0.001775 0.000001 -0.000007 0.000000
# 3 -0.008676 -0.001775 0.026883 0.000011 -0.000076 -0.000001
# 4 -0.000006 0.000001 0.000011 0.049953 -0.000050 -0.000001
# 5 0.000038 -0.000007 -0.000076 -0.000050 0.471030 0.000003
# 6 0.000001 0.000000 -0.000001 -0.000001 0.000003 0.027700
#
#
# Mechanical properties :
#
#
# Convention : Reuss Voigt Hill
#
# Bulk Modulus (GPa) = 45.85585 60.36716 53.11150
# Shear Modulus (GPa) = 7.70118 21.65226 14.67672
#
# Velocity S-wave (km/s) = 2.07869 3.48549 2.86963
# Velocity P-wave (km/s) = 5.61160 7.07594 6.38588
#
# Compressibility (1/GPa) = 0.02180747
#
# Stress axis : x y z
#
# Youngs Moduli (GPa) = 51.04164 90.25915 37.19869
#
# Poissons Ratio (x) = 0.66992 0.32272
# Poissons Ratio (y) = 0.37884 0.06604
# Poissons Ratio (z) = 0.44281 0.16025
#
# Static dielectric constant tensor:
#      x y z
#    x 3.390180 0.000000 0.000000 
#    y 0.000000 3.559030 0.000000 
#    z 0.000000 0.000000 3.051880 
# 
# 
# High freq. dielectric constant tensor:
#      x y z
#    x 1.674150 0.000000 0.000000 
#    y 0.000000 1.701700 0.000000 
#    z 0.000000 0.000000 1.658290 
# 
# From -- ./inp_files/10805.got.cif
#   From: 2010.03.12/outbox.cif.g09.slc.cpg/sg42_6_cif.got.tgz:10805.got - 2010.04.14 02:04:31.
