data_PCOD8186659
_publ_section_title
;
Structure prediction by ZEFSAII (Michael W. Deem and Ramdas Pophale) SiO2 
 PCOD8186659
Probable space group: F M M 2
;
_chemical_formula_sum "Si O2"
_cell_formula_units_Z 104
_cell_length_a 25.242025
_cell_length_b 22.047448
_cell_length_c 9.606656
_cell_angle_alpha 90.000000
_cell_angle_beta 90.000000
_cell_angle_gamma 90.000000
_cell_volume 5346.317655
_symmetry_space_group_name_H-M "F M M 2"
_symmetry_group_IT_number 42
_symmetry_cell_setting 'orthorhombic'
loop_
_space_group_symop_operation_xyz
x,y,z
-x,-y,z
-x,y,z
x,-y,z
x,1/2+y,1/2+z
-x,1/2-y,1/2+z
-x,1/2+y,1/2+z
x,1/2-y,1/2+z
1/2+x,y,1/2+z
1/2-x,-y,1/2+z
1/2-x,y,1/2+z
1/2+x,-y,1/2+z
1/2+x,1/2+y,z
1/2-x,1/2-y,z
1/2-x,1/2+y,z
1/2+x,1/2-y,z
loop_
_atom_site_type_symbol
_atom_site_label
_atom_site_fract_x
_atom_site_fract_y
_atom_site_fract_z
Si Si1 0.839902 0.161158 0.552730
Si Si2 0.201561 0.432395 0.268564
Si Si3 0.750000 0.750000 0.139977
Si Si4 0.560407 0.823794 0.507124
Si Si5 0.301913 0.136539 0.771966
Si Si6 0.135400 0.431538 0.539771
Si Si7 0.062053 0.284659 0.202146
O O1 0.817473 0.104276 0.635359
O O2 0.796224 0.215702 0.553092
O O3 0.846533 0.142184 0.391426
O O4 0.898433 0.174592 0.610815
O O5 0.215337 0.500000 0.217782
O O6 0.252902 0.400905 0.335677
O O7 0.156765 0.433548 0.384358
O O8 0.717464 0.703412 0.233466
O O9 0.500000 0.837344 0.483650
O O10 0.584119 0.889559 0.534369
O O11 0.571302 0.783322 0.644147
O O12 0.579913 0.789855 0.364442
O O13 0.322278 0.099497 0.640000
O O14 0.121411 0.500000 0.590197
O O15 0.000000 0.303369 0.178900
#
# Coordination Sequence:
#
# PCOD8186659 Si02
#       7
#    16  16   8  16  16  16  16
#     4  11  22  37  59  86 123 154 199 247 304 360
#     4  10  21  39  59  81 114 158 204 242 290 359
#     4  10  22  36  56  90 120 162 202 242 312 358
#     4  10  22  41  64  91 117 153 198 247 305 358
#     4  11  23  35  56  87 120 159 196 249 298 359
#     4  11  23  40  60  86 119 160 204 244 295 358
#     4  10  22  39  64  92 120 154 196 248 307 366
#
# _framework density 19.452641
#
# number of rings (size 3 to 8) (size 9 to 14) (size 15 to 20)
#    0.000    1.538    1.538    3.692    4.308    4.000 
#    0.000    0.000    0.000    0.462    0.000    0.000 
#    0.000    0.000    0.000    0.000    0.000    0.000 
#
# Total GULP energy -322279.680879 kJ/mol
# GULP energy per Si atom -12395.372341 kJ/mol
# Density = 1.940837 g / cm^3
# Si number density = 19.452641 Si / 1000 Ang^3
#
#
#
# Elastic Constant Matrix: (Units=GPa)
#
#
# Indices 1 2 3 4 5 6 
#
# 1 47.9473 36.0943 23.8844 -0.0033 0.0014 0.0010
# 2 36.0943 151.2703 47.7347 -0.0028 0.0015 0.0013
# 3 23.8844 47.7347 80.0594 -0.0099 0.0048 0.0038
# 4 -0.0033 -0.0028 -0.0099 15.8728 0.0032 0.0026
# 5 0.0014 0.0015 0.0048 0.0032 23.9652 -0.0009
# 6 0.0010 0.0013 0.0038 0.0026 -0.0009 19.5664
#
#
#
# Elastic Compliance Matrix: (Units=1/GPa)
#
#
# Indices 1 2 3 4 5 6 
#
# 1 0.027076 -0.004818 -0.005205 0.000001 0.000000 0.000000
# 2 -0.004818 0.009000 -0.003929 -0.000002 0.000001 0.000000
# 3 -0.005205 -0.003929 0.016386 0.000008 -0.000003 -0.000003
# 4 0.000001 -0.000002 0.000008 0.063001 -0.000008 -0.000008
# 5 0.000000 0.000001 -0.000003 -0.000008 0.041727 0.000002
# 6 0.000000 0.000000 -0.000003 -0.000008 0.000002 0.051108
#
#
# Mechanical properties :
#
#
# Convention : Reuss Voigt Hill
#
# Bulk Modulus (GPa) = 40.71918 54.96710 47.84314
# Shear Modulus (GPa) = 20.45927 23.31846 21.88887
#
# Velocity S-wave (km/s) = 3.24658 3.46602 3.35810
# Velocity P-wave (km/s) = 5.91875 6.65853 6.29951
#
# Compressibility (1/GPa) = 0.02455845
#
# Stress axis : x y z
#
# Youngs Moduli (GPa) = 36.93303 111.11003 61.02745
#
# Poissons Ratio (x) = 0.53534 0.31765
# Poissons Ratio (y) = 0.17795 0.23977
# Poissons Ratio (z) = 0.19224 0.43653
#
# Static dielectric constant tensor:
#      x y z
#    x 3.573580 0.000000 0.000000 
#    y 0.000000 3.773900 0.000000 
#    z 0.000000 0.000000 3.592200 
# 
# 
# High freq. dielectric constant tensor:
#      x y z
#    x 1.751930 0.000000 0.000000 
#    y 0.000000 1.757530 0.000000 
#    z 0.000000 0.000000 1.761960 
# 
# From -- ./inp_files/5218.got.cif
#   From: 2010.03.12/outbox.cif.g09.slc.cpg/sg42_3_cif.got.tgz:5218.got - 2010.04.14 02:04:31.
