data_PCOD8186775
_publ_section_title
;
Structure prediction by ZEFSAII (Michael W. Deem and Ramdas Pophale) SiO2 
 PCOD8186775
Probable space group: F M M 2
;
_chemical_formula_sum "Si O2"
_cell_formula_units_Z 96
_cell_length_a 22.725163
_cell_length_b 22.436266
_cell_length_c 9.111058
_cell_angle_alpha 90.000000
_cell_angle_beta 90.000000
_cell_angle_gamma 90.000000
_cell_volume 4645.435116
_symmetry_space_group_name_H-M "F M M 2"
_symmetry_group_IT_number 42
_symmetry_cell_setting 'orthorhombic'
loop_
_space_group_symop_operation_xyz
x,y,z
-x,-y,z
-x,y,z
x,-y,z
x,1/2+y,1/2+z
-x,1/2-y,1/2+z
-x,1/2+y,1/2+z
x,1/2-y,1/2+z
1/2+x,y,1/2+z
1/2-x,-y,1/2+z
1/2-x,y,1/2+z
1/2+x,-y,1/2+z
1/2+x,1/2+y,z
1/2-x,1/2-y,z
1/2-x,1/2+y,z
1/2+x,1/2-y,z
loop_
_atom_site_type_symbol
_atom_site_label
_atom_site_fract_x
_atom_site_fract_y
_atom_site_fract_z
Si Si1 0.839951 0.254709 0.651640
Si Si2 0.348604 0.355785 0.477490
Si Si3 0.070263 0.149276 0.229300
Si Si4 0.778176 0.176395 0.894387
Si Si5 0.166710 0.432340 0.251123
Si Si6 0.434240 0.933368 0.461839
O O1 0.872381 0.201548 0.564646
O O2 0.896348 0.287646 0.720609
O O3 0.798952 0.223345 0.773014
O O4 0.799645 0.299375 0.553074
O O5 0.400192 0.381504 0.372449
O O6 0.292546 0.329317 0.388391
O O7 0.329198 0.409203 0.584938
O O8 0.088152 0.111315 0.087000
O O9 0.000000 0.156305 0.247894
O O10 0.798054 0.108921 0.864493
O O11 0.191203 0.500000 0.257331
O O12 0.100053 0.428408 0.308965
O O13 0.500000 0.916428 0.418342
O O14 0.429243 0.000000 0.527790
#
# Coordination Sequence:
#
# PCOD8186775 Si02
#       6
#    16  16  16  16  16  16
#     4  11  23  40  62  93 124 165 211 260 311 382
#     4  11  26  39  63  93 127 172 212 260 320 388
#     4  11  24  41  61  93 131 167 213 270 327 373
#     4  11  24  40  67  93 127 167 216 259 317 391
#     4  10  23  42  64  96 130 164 212 270 328 377
#     4   9  19  39  66  91 122 170 218 260 317 390
#
# _framework density 20.665448999999999
#
# number of rings (size 3 to 8) (size 9 to 14) (size 15 to 20)
#    0.000    1.500    3.333    0.500    7.000    2.667 
#    0.000    4.167    0.000    0.000    0.000    0.000 
#    0.000    0.000    0.000    0.000    0.000    0.000 
#
# Total GULP energy -297463.668106 kJ/mol
# GULP energy per Si atom -12394.319504 kJ/mol
# Density = 2.061841 g / cm^3
# Si number density = 20.665449 Si / 1000 Ang^3
#
#
#
# Elastic Constant Matrix: (Units=GPa)
#
#
# Indices 1 2 3 4 5 6 
#
# 1 102.1280 36.5824 43.1937 -0.0001 0.0003 0.0000
# 2 36.5824 133.8312 40.1582 0.0001 -0.0003 0.0000
# 3 43.1937 40.1582 99.9997 0.0005 -0.0018 -0.0003
# 4 -0.0001 0.0001 0.0005 28.9208 -0.0005 0.0000
# 5 0.0003 -0.0003 -0.0018 -0.0005 31.9658 0.0004
# 6 0.0000 0.0000 -0.0003 0.0000 0.0004 28.7697
#
#
#
# Elastic Compliance Matrix: (Units=1/GPa)
#
#
# Indices 1 2 3 4 5 6 
#
# 1 0.012449 -0.002035 -0.004560 0.000000 0.000000 0.000000
# 2 -0.002035 0.008828 -0.002667 0.000000 0.000000 0.000000
# 3 -0.004560 -0.002667 0.013041 0.000000 0.000001 0.000000
# 4 0.000000 0.000000 0.000000 0.034577 0.000001 0.000000
# 5 0.000000 0.000000 0.000001 0.000001 0.031283 0.000000
# 6 0.000000 0.000000 0.000000 0.000000 0.000000 0.034759
#
#
# Mechanical properties :
#
#
# Convention : Reuss Voigt Hill
#
# Bulk Modulus (GPa) = 63.30921 63.98084 63.64503
# Shear Modulus (GPa) = 31.50099 32.33291 31.91695
#
# Velocity S-wave (km/s) = 3.90850 3.95978 3.93422
# Velocity P-wave (km/s) = 7.14635 7.20652 7.17650
#
# Compressibility (1/GPa) = 0.01579549
#
# Stress axis : x y z
#
# Youngs Moduli (GPa) = 80.32720 113.27117 76.68367
#
# Poissons Ratio (x) = 0.23046 0.34969
# Poissons Ratio (y) = 0.16343 0.20448
# Poissons Ratio (z) = 0.36631 0.30204
#
# Static dielectric constant tensor:
#      x y z
#    x 3.676970 0.000000 0.000000 
#    y 0.000000 3.968400 0.000000 
#    z 0.000000 0.000000 3.888460 
# 
# 
# High freq. dielectric constant tensor:
#      x y z
#    x 1.798390 0.000000 0.000000 
#    y 0.000000 1.812350 0.000000 
#    z 0.000000 0.000000 1.814770 
# 
# From -- ./inp_files/4732.got.cif
#   From: 2010.03.12/outbox.cif.g09.slc.cpg/sg42_3_cif.got.tgz:4732.got - 2010.04.14 02:04:31.
