data_PCOD8186764
_publ_section_title
;
Structure prediction by ZEFSAII (Michael W. Deem and Ramdas Pophale) SiO2 
 PCOD8186764
Probable space group: F M M 2
;
_chemical_formula_sum "Si O2"
_cell_formula_units_Z 64
_cell_length_a 18.824779
_cell_length_b 14.451073
_cell_length_c 10.226250
_cell_angle_alpha 90.000000
_cell_angle_beta 90.000000
_cell_angle_gamma 90.000000
_cell_volume 2781.931211
_symmetry_space_group_name_H-M "F M M 2"
_symmetry_group_IT_number 42
_symmetry_cell_setting 'orthorhombic'
loop_
_space_group_symop_operation_xyz
x,y,z
-x,-y,z
-x,y,z
x,-y,z
x,1/2+y,1/2+z
-x,1/2-y,1/2+z
-x,1/2+y,1/2+z
x,1/2-y,1/2+z
1/2+x,y,1/2+z
1/2-x,-y,1/2+z
1/2-x,y,1/2+z
1/2+x,-y,1/2+z
1/2+x,1/2+y,z
1/2-x,1/2-y,z
1/2-x,1/2+y,z
1/2+x,1/2-y,z
loop_
_atom_site_type_symbol
_atom_site_label
_atom_site_fract_x
_atom_site_fract_y
_atom_site_fract_z
Si Si1 0.920721 0.148859 0.285800
Si Si2 0.667690 0.500000 0.402073
Si Si3 0.078368 0.398087 0.499596
Si Si4 0.677112 0.808160 0.312503
Si Si5 0.215182 0.500000 0.190241
O O1 0.920856 0.089009 0.154925
O O2 0.880836 0.242918 0.245467
O O3 0.000000 0.169571 0.336373
O O4 0.880582 0.092212 0.401064
O O5 0.710405 0.500000 0.265377
O O6 0.718705 0.500000 0.530607
O O7 0.089519 0.500000 0.438008
O O8 0.143563 0.332943 0.454223
O O9 0.000000 0.359524 0.456991
O O10 0.750000 0.750000 0.329864
O O11 0.679048 0.902720 0.229462
#
# Coordination Sequence:
#
# PCOD8186764 Si02
#       5
#    16   8  16  16   8
#     4  11  25  46  73 106 145 196 245 292 361 433
#     4  12  27  50  75 105 146 190 243 308 361 431
#     4  10  22  44  74 103 143 193 239 292 354 431
#     4  12  26  45  72 106 145 188 240 304 358 427
#     4  12  30  48  71 109 147 184 241 306 368 423
#
# _framework density 23.005600000000001
#
# number of rings (size 3 to 8) (size 9 to 14) (size 15 to 20)
#    0.000    0.750    5.000    1.125    7.000    1.000 
#    0.000    3.750    0.000    0.000    0.000    0.000 
#    0.000    0.000    0.000    0.000    0.000    0.000 
#
# Total GULP energy -198217.081237 kJ/mol
# GULP energy per Si atom -12388.567577 kJ/mol
# Density = 2.295324 g / cm^3
# Si number density = 23.005600 Si / 1000 Ang^3
#
#
#
# Elastic Constant Matrix: (Units=GPa)
#
#
# Indices 1 2 3 4 5 6 
#
# 1 167.5963 77.8675 60.0037 0.0000 0.0000 0.0000
# 2 77.8675 159.0699 29.8904 0.0000 0.0000 0.0000
# 3 60.0037 29.8904 87.9520 0.0000 0.0000 0.0000
# 4 0.0000 0.0000 0.0000 27.6189 0.0000 0.0000
# 5 0.0000 0.0000 0.0000 0.0000 30.0956 0.0000
# 6 0.0000 0.0000 0.0000 0.0000 0.0000 35.1204
#
#
#
# Elastic Compliance Matrix: (Units=1/GPa)
#
#
# Indices 1 2 3 4 5 6 
#
# 1 0.009572 -0.003694 -0.005275 0.000000 0.000000 0.000000
# 2 -0.003694 0.008141 -0.000246 0.000000 0.000000 0.000000
# 3 -0.005275 -0.000246 0.015052 0.000000 0.000000 0.000000
# 4 0.000000 0.000000 0.000000 0.036207 0.000000 0.000000
# 5 0.000000 0.000000 0.000000 0.000000 0.033227 0.000000
# 6 0.000000 0.000000 0.000000 0.000000 0.000000 0.028473
#
#
# Mechanical properties :
#
#
# Convention : Reuss Voigt Hill
#
# Bulk Modulus (GPa) = 69.76247 83.34904 76.55576
# Shear Modulus (GPa) = 32.49255 35.02410 33.75832
#
# Velocity S-wave (km/s) = 3.76224 3.90605 3.83482
# Velocity P-wave (km/s) = 7.01873 7.52672 7.27716
#
# Compressibility (1/GPa) = 0.01433435
#
# Stress axis : x y z
#
# Youngs Moduli (GPa) = 104.47613 122.83068 66.43624
#
# Poissons Ratio (x) = 0.45378 0.35042
# Poissons Ratio (y) = 0.38597 0.01637
# Poissons Ratio (z) = 0.55106 0.03027
#
# Static dielectric constant tensor:
#      x y z
#    x 4.298300 0.000000 0.000000 
#    y 0.000000 4.334190 0.000000 
#    z 0.000000 0.000000 3.694530 
# 
# 
# High freq. dielectric constant tensor:
#      x y z
#    x 1.919960 0.000000 0.000000 
#    y 0.000000 1.930260 0.000000 
#    z 0.000000 0.000000 1.873200 
# 
# From -- ./inp_files/7513.got.cif
#   From: 2010.03.12/outbox.cif.g09.slc.cpg/sg42_4_cif.got.tgz:7513.got - 2010.04.14 02:04:31.
