data_PCOD8186553
_publ_section_title
;
Structure prediction by ZEFSAII (Michael W. Deem and Ramdas Pophale) SiO2 
 PCOD8186553
Probable space group: F M M 2
;
_chemical_formula_sum "Si O2"
_cell_formula_units_Z 80
_cell_length_a 19.230627
_cell_length_b 7.663343
_cell_length_c 29.081464
_cell_angle_alpha 90.000000
_cell_angle_beta 90.000000
_cell_angle_gamma 90.000000
_cell_volume 4285.761256
_symmetry_space_group_name_H-M "F M M 2"
_symmetry_group_IT_number 42
_symmetry_cell_setting 'orthorhombic'
loop_
_space_group_symop_operation_xyz
x,y,z
-x,-y,z
-x,y,z
x,-y,z
x,1/2+y,1/2+z
-x,1/2-y,1/2+z
-x,1/2+y,1/2+z
x,1/2-y,1/2+z
1/2+x,y,1/2+z
1/2-x,-y,1/2+z
1/2-x,y,1/2+z
1/2+x,-y,1/2+z
1/2+x,1/2+y,z
1/2-x,1/2-y,z
1/2-x,1/2+y,z
1/2+x,1/2-y,z
loop_
_atom_site_type_symbol
_atom_site_label
_atom_site_fract_x
_atom_site_fract_y
_atom_site_fract_z
Si Si1 0.583352 0.500000 0.195240
Si Si2 0.425365 0.301208 0.963124
Si Si3 0.082365 0.500000 0.800979
Si Si4 0.173644 0.701465 0.041951
Si Si5 0.916914 0.195029 0.864385
Si Si6 0.671319 0.706014 0.647274
O O1 0.500000 0.500000 0.187552
O O2 0.605247 0.500000 0.248281
O O3 0.615743 0.322890 0.174373
O O4 0.500000 0.210400 0.974244
O O5 0.439561 0.500000 0.950992
O O6 0.393122 0.229567 0.914937
O O7 0.378105 0.295132 0.007745
O O8 0.112626 0.673436 0.825700
O O9 0.000000 0.500000 0.805067
O O10 0.159435 0.500000 0.037016
O O11 0.250000 0.750000 0.025252
O O12 0.161990 0.762634 0.094181
O O13 0.000000 0.192334 0.863493
O O14 0.887583 0.000000 0.854005
O O15 0.656135 0.500000 0.655010
O O16 0.750000 0.750000 0.663096
#
# Coordination Sequence:
#
# PCOD8186553 Si02
#       6
#     8  16   8  16  16  16
#     4  11  24  38  60  95 121 147 193 250 305 339
#     4   9  18  31  50  79 111 145 181 222 275 323
#     4   9  18  32  52  79 110 143 181 230 286 337
#     4  10  21  34  53  79 106 145 191 225 267 333
#     4   8  15  29  49  74 107 145 183 223 272 335
#     4  10  21  40  63  84 113 158 203 237 286 361
#
# _framework density 18.666461999999999
#
# number of rings (size 3 to 8) (size 9 to 14) (size 15 to 20)
#    0.000    2.600    1.000    1.800    4.200    2.400 
#    0.000    4.000    0.000    1.200    0.000    0.000 
#    0.000    0.000    0.000    0.000    0.000    0.000 
#
# Total GULP energy -247816.116065 kJ/mol
# GULP energy per Si atom -12390.805803 kJ/mol
# Density = 1.862398 g / cm^3
# Si number density = 18.666462 Si / 1000 Ang^3
#
#
#
# Elastic Constant Matrix: (Units=GPa)
#
#
# Indices 1 2 3 4 5 6 
#
# 1 79.2075 35.4281 61.3550 0.0000 0.0000 -0.0001
# 2 35.4281 98.1219 55.6915 0.0000 0.0000 -0.0001
# 3 61.3550 55.6915 131.1689 0.0000 0.0000 0.0000
# 4 0.0000 0.0000 0.0000 32.8142 0.0000 0.0000
# 5 0.0000 0.0000 0.0000 0.0000 -1.7928 0.0000
# 6 -0.0001 -0.0001 0.0000 0.0000 0.0000 24.1829
#
#
#
# Elastic Compliance Matrix: (Units=1/GPa)
#
#
# Indices 1 2 3 4 5 6 
#
# 1 0.020273 -0.002553 -0.008399 0.000000 0.000000 0.000000
# 2 -0.002553 0.013749 -0.004643 0.000000 0.000000 0.000000
# 3 -0.008399 -0.004643 0.013524 0.000000 0.000000 0.000000
# 4 0.000000 0.000000 0.000000 0.030475 0.000000 0.000000
# 5 0.000000 0.000000 0.000000 0.000000 -0.557778 0.000000
# 6 0.000000 0.000000 0.000000 0.000000 0.000000 0.041352
#
#
# Mechanical properties :
#
#
# Convention : Reuss Voigt Hill
#
# Bulk Modulus (GPa) = 61.14218 68.16083 64.65151
# Shear Modulus (GPa) = -12.44508 21.44242 4.49867
#
# Velocity S-wave (km/s) = -2.58487 3.39294 1.55411
# Velocity P-wave (km/s) = 4.89055 7.20721 6.15879
#
# Compressibility (1/GPa) = 0.01635532
#
# Stress axis : x y z
#
# Youngs Moduli (GPa) = 49.32736 72.73520 73.94375
#
# Poissons Ratio (x) = 0.18568 0.62104
# Poissons Ratio (y) = 0.12592 0.34334
# Poissons Ratio (z) = 0.41429 0.33773
#
# Static dielectric constant tensor:
#      x y z
#    x 3.073270 0.000000 0.000000 
#    y 0.000000 3.559350 0.000000 
#    z 0.000000 0.000000 3.616050 
# 
# 
# High freq. dielectric constant tensor:
#      x y z
#    x 1.683930 0.000000 0.000000 
#    y 0.000000 1.734970 0.000000 
#    z 0.000000 0.000000 1.727290 
# 
# From -- ./inp_files/31289.got.cif
#   From: 2010.03.12/outbox.cif.g09.slc.cpg/sg42_16_cif.got.tgz:31289.got - 2010.04.14 02:04:31.
