data_PCOD8186068
_publ_section_title
;
Structure prediction by ZEFSAII (Michael W. Deem and Ramdas Pophale) SiO2 
 PCOD8186068
Probable space group: F M M 2
;
_chemical_formula_sum "Si O2"
_cell_formula_units_Z 80
_cell_length_a 16.318384
_cell_length_b 9.596245
_cell_length_c 26.153098
_cell_angle_alpha 90.000000
_cell_angle_beta 90.000000
_cell_angle_gamma 90.000000
_cell_volume 4095.449896
_symmetry_space_group_name_H-M "F M M 2"
_symmetry_group_IT_number 42
_symmetry_cell_setting 'orthorhombic'
loop_
_space_group_symop_operation_xyz
x,y,z
-x,-y,z
-x,y,z
x,-y,z
x,1/2+y,1/2+z
-x,1/2-y,1/2+z
-x,1/2+y,1/2+z
x,1/2-y,1/2+z
1/2+x,y,1/2+z
1/2-x,-y,1/2+z
1/2-x,y,1/2+z
1/2+x,-y,1/2+z
1/2+x,1/2+y,z
1/2-x,1/2-y,z
1/2-x,1/2+y,z
1/2+x,1/2-y,z
loop_
_atom_site_type_symbol
_atom_site_label
_atom_site_fract_x
_atom_site_fract_y
_atom_site_fract_z
Si Si1 0.316951 0.500000 0.929111
Si Si2 0.638065 0.000000 0.784884
Si Si3 0.595791 0.000000 0.160063
Si Si4 0.844735 0.223650 0.737191
Si Si5 0.874466 0.000000 0.399268
Si Si6 0.402486 0.500000 0.546040
Si Si7 0.671313 0.000000 0.314538
Si Si8 0.092224 0.737880 0.970933
O O1 0.221260 0.500000 0.915822
O O2 0.358374 0.500000 0.873024
O O3 0.344952 0.635200 0.961215
O O4 0.612171 0.129138 0.748772
O O5 0.596812 0.000000 0.840287
O O6 0.732749 0.000000 0.801596
O O7 0.621564 0.142040 0.188178
O O8 0.634537 0.000000 0.103204
O O9 0.500000 0.000000 0.154347
O O10 0.750000 0.250000 0.726627
O O11 0.864750 0.137357 0.788355
O O12 0.913844 0.140048 0.421322
O O13 0.500000 0.500000 0.544532
O O14 0.372912 0.358593 0.517352
O O15 0.000000 0.794941 0.982374
#
# Coordination Sequence:
#
# PCOD8186068 Si02
#       8
#     8   8   8  16   8   8   8  16
#     4  11  19  31  54  82 104 129 173 220 244 280
#     4   9  16  29  50  74 104 139 171 200 244 306
#     4  10  20  38  58  75  97 134 177 219 265 316
#     4   9  17  32  53  77 103 135 172 208 249 307
#     4  10  19  33  52  74 106 146 171 193 244 313
#     4   8  18  38  58  69  96 144 177 199 264 344
#     4   8  16  29  48  74 108 144 167 189 246 319
#     4  10  20  35  52  74 102 137 173 209 254 309
#
# _framework density 19.533874999999998
#
# number of rings (size 3 to 8) (size 9 to 14) (size 15 to 20)
#    0.000    2.600    0.000    3.600    0.000    3.200 
#    0.000   15.500    0.000    2.400    0.000    0.000 
#    0.000    0.000    0.000    0.000    0.000    0.000 
#
# Total GULP energy -247793.606135 kJ/mol
# GULP energy per Si atom -12389.680307 kJ/mol
# Density = 1.948941 g / cm^3
# Si number density = 19.533875 Si / 1000 Ang^3
#
#
#
# Elastic Constant Matrix: (Units=GPa)
#
#
# Indices 1 2 3 4 5 6 
#
# 1 44.1472 17.6261 16.0468 0.0000 0.0000 0.0000
# 2 17.6261 147.1069 70.3874 0.0000 0.0000 0.0000
# 3 16.0468 70.3874 159.7290 0.0000 0.0000 0.0000
# 4 0.0000 0.0000 0.0000 22.0204 0.0000 0.0000
# 5 0.0000 0.0000 0.0000 0.0000 21.9511 0.0000
# 6 0.0000 0.0000 0.0000 0.0000 0.0000 16.7766
#
#
#
# Elastic Compliance Matrix: (Units=1/GPa)
#
#
# Indices 1 2 3 4 5 6 
#
# 1 0.024053 -0.002187 -0.001453 0.000000 0.000000 0.000000
# 2 -0.002187 0.008813 -0.003664 0.000000 0.000000 0.000000
# 3 -0.001453 -0.003664 0.008021 0.000000 0.000000 0.000000
# 4 0.000000 0.000000 0.000000 0.045412 0.000000 0.000000
# 5 0.000000 0.000000 0.000000 0.000000 0.045556 0.000000
# 6 0.000000 0.000000 0.000000 0.000000 0.000000 0.059607
#
#
# Mechanical properties :
#
#
# Convention : Reuss Voigt Hill
#
# Bulk Modulus (GPa) = 38.05212 62.12264 50.08738
# Shear Modulus (GPa) = 23.27440 28.61115 25.94278
#
# Velocity S-wave (km/s) = 3.45554 3.83128 3.64825
# Velocity P-wave (km/s) = 5.95343 7.17239 6.59115
#
# Compressibility (1/GPa) = 0.02627975
#
# Stress axis : x y z
#
# Youngs Moduli (GPa) = 41.57551 113.47034 124.67139
#
# Poissons Ratio (x) = 0.24814 0.18111
# Poissons Ratio (y) = 0.09092 0.45678
# Poissons Ratio (z) = 0.06040 0.41574
#
# Static dielectric constant tensor:
#      x y z
#    x 3.318200 0.000000 0.000000 
#    y 0.000000 3.615220 0.000000 
#    z 0.000000 0.000000 3.675910 
# 
# 
# High freq. dielectric constant tensor:
#      x y z
#    x 1.734850 0.000000 0.000000 
#    y 0.000000 1.768530 0.000000 
#    z 0.000000 0.000000 1.745490 
# 
# From -- ./inp_files/32805.got.cif
#   From: 2010.03.12/outbox.cif.g09.slc.cpg/sg42_17_cif.got.tgz:32805.got - 2010.04.14 02:04:31.
