data_PCOD8186613
_publ_section_title
;
Structure prediction by ZEFSAII (Michael W. Deem and Ramdas Pophale) SiO2 
 PCOD8186613
Probable space group: F M M 2
;
_chemical_formula_sum "Si O2"
_cell_formula_units_Z 96
_cell_length_a 14.107966
_cell_length_b 14.726169
_cell_length_c 22.498318
_cell_angle_alpha 90.000000
_cell_angle_beta 90.000000
_cell_angle_gamma 90.000000
_cell_volume 4674.167114
_symmetry_space_group_name_H-M "F M M 2"
_symmetry_group_IT_number 42
_symmetry_cell_setting 'orthorhombic'
loop_
_space_group_symop_operation_xyz
x,y,z
-x,-y,z
-x,y,z
x,-y,z
x,1/2+y,1/2+z
-x,1/2-y,1/2+z
-x,1/2+y,1/2+z
x,1/2-y,1/2+z
1/2+x,y,1/2+z
1/2-x,-y,1/2+z
1/2-x,y,1/2+z
1/2+x,-y,1/2+z
1/2+x,1/2+y,z
1/2-x,1/2-y,z
1/2-x,1/2+y,z
1/2+x,1/2-y,z
loop_
_atom_site_type_symbol
_atom_site_label
_atom_site_fract_x
_atom_site_fract_y
_atom_site_fract_z
Si Si1 0.743985 0.103205 0.397050
Si Si2 0.612057 0.000000 0.725080
Si Si3 0.385714 0.500000 0.089748
Si Si4 0.111584 0.500000 0.195754
Si Si5 0.891580 0.341103 0.808122
Si Si6 0.886109 0.500000 0.061548
Si Si7 0.241326 0.146032 0.027594
Si Si8 0.108557 0.862036 0.791066
O O1 0.834457 0.154652 0.369502
O O2 0.714517 0.151953 0.457996
O O3 0.657858 0.106277 0.351193
O O4 0.772454 0.000000 0.411049
O O5 0.650058 0.087631 0.760614
O O6 0.500000 0.000000 0.723485
O O7 0.649639 0.000000 0.658100
O O8 0.500000 0.500000 0.083298
O O9 0.343254 0.408646 0.060312
O O10 0.151702 0.500000 0.129457
O O11 0.148313 0.412570 0.232546
O O12 0.000000 0.500000 0.188945
O O13 0.877072 0.243774 0.778241
O O14 0.000000 0.361794 0.824011
O O15 0.841361 0.591796 0.033599
O O16 0.000000 0.500000 0.053140
O O17 0.250000 0.250000 0.051953
O O18 0.000000 0.888658 0.800703
#
# Coordination Sequence:
#
# PCOD8186613 Si02
#       8
#    16   8   8   8  16   8  16  16
#     4  12  22  39  62  84 119 158 194 242 300 355
#     4   9  19  37  60  87 121 154 194 242 291 353
#     4  10  23  43  65  90 121 163 209 252 302 356
#     4   9  19  37  60  87 121 154 194 242 291 353
#     4  10  21  37  60  90 120 152 191 238 296 358
#     4  10  23  43  65  90 121 163 209 252 302 356
#     4  11  25  44  62  89 124 160 209 259 300 356
#     4  10  21  37  60  90 120 152 191 238 296 358
#
# _framework density 20.538418
#
# number of rings (size 3 to 8) (size 9 to 14) (size 15 to 20)
#    0.000    1.667    3.333    1.500    0.000    6.000 
#    0.000    3.333    0.000    0.000    0.000    0.000 
#    0.000    0.000    0.000    0.000    0.000    0.000 
#
# Total GULP energy -297565.474514 kJ/mol
# GULP energy per Si atom -12398.561438 kJ/mol
# Density = 2.049167 g / cm^3
# Si number density = 20.538418 Si / 1000 Ang^3
#
#
#
# Elastic Constant Matrix: (Units=GPa)
#
#
# Indices 1 2 3 4 5 6 
#
# 1 73.7279 16.2928 8.9887 0.0000 0.0000 0.0000
# 2 16.2928 142.5031 28.0186 0.0000 0.0000 0.0000
# 3 8.9887 28.0186 124.5934 0.0000 0.0000 0.0000
# 4 0.0000 0.0000 0.0000 16.8284 0.0000 0.0000
# 5 0.0000 0.0000 0.0000 0.0000 28.5018 0.0000
# 6 0.0000 0.0000 0.0000 0.0000 0.0000 22.8139
#
#
#
# Elastic Compliance Matrix: (Units=1/GPa)
#
#
# Indices 1 2 3 4 5 6 
#
# 1 0.013970 -0.001464 -0.000679 0.000000 0.000000 0.000000
# 2 -0.001464 0.007495 -0.001580 0.000000 0.000000 0.000000
# 3 -0.000679 -0.001580 0.008430 0.000000 0.000000 0.000000
# 4 0.000000 0.000000 0.000000 0.059423 0.000000 0.000000
# 5 0.000000 0.000000 0.000000 0.000000 0.035085 0.000000
# 6 0.000000 0.000000 0.000000 0.000000 0.000000 0.043833
#
#
# Mechanical properties :
#
#
# Convention : Reuss Voigt Hill
#
# Bulk Modulus (GPa) = 44.54222 49.71385 47.12803
# Shear Modulus (GPa) = 27.29773 32.79712 30.04742
#
# Velocity S-wave (km/s) = 3.64965 4.00042 3.82905
# Velocity P-wave (km/s) = 6.28444 6.75245 6.52265
#
# Compressibility (1/GPa) = 0.02245061
#
# Stress axis : x y z
#
# Youngs Moduli (GPa) = 71.58407 133.41530 118.61878
#
# Poissons Ratio (x) = 0.19529 0.08050
# Poissons Ratio (y) = 0.10478 0.18741
# Poissons Ratio (z) = 0.04858 0.21079
#
# Static dielectric constant tensor:
#      x y z
#    x 3.691650 0.000000 0.000000 
#    y 0.000000 3.888120 0.000000 
#    z 0.000000 0.000000 3.861510 
# 
# 
# High freq. dielectric constant tensor:
#      x y z
#    x 1.805460 0.000000 0.000000 
#    y 0.000000 1.812150 0.000000 
#    z 0.000000 0.000000 1.800750 
# 
# From -- ./inp_files/25174.got.cif
#   From: 2010.03.12/outbox.cif.g09.slc.cpg/sg42_13_cif.got.tgz:25174.got - 2010.04.14 02:04:31.
