data_PCOD8186749
_publ_section_title
;
Structure prediction by ZEFSAII (Michael W. Deem and Ramdas Pophale) SiO2 
 PCOD8186749
Probable space group: F M M 2
;
_chemical_formula_sum "Si O2"
_cell_formula_units_Z 96
_cell_length_a 13.992463
_cell_length_b 27.157824
_cell_length_c 12.888276
_cell_angle_alpha 90.000000
_cell_angle_beta 90.000000
_cell_angle_gamma 90.000000
_cell_volume 4897.607356
_symmetry_space_group_name_H-M "F M M 2"
_symmetry_group_IT_number 42
_symmetry_cell_setting 'orthorhombic'
loop_
_space_group_symop_operation_xyz
x,y,z
-x,-y,z
-x,y,z
x,-y,z
x,1/2+y,1/2+z
-x,1/2-y,1/2+z
-x,1/2+y,1/2+z
x,1/2-y,1/2+z
1/2+x,y,1/2+z
1/2-x,-y,1/2+z
1/2-x,y,1/2+z
1/2+x,-y,1/2+z
1/2+x,1/2+y,z
1/2-x,1/2-y,z
1/2-x,1/2+y,z
1/2+x,1/2-y,z
loop_
_atom_site_type_symbol
_atom_site_label
_atom_site_fract_x
_atom_site_fract_y
_atom_site_fract_z
Si Si1 0.610004 0.556561 0.186180
Si Si2 0.798865 0.200010 0.721513
Si Si3 0.219186 0.615410 0.847634
Si Si4 0.386674 0.174711 0.012532
Si Si5 0.890134 0.276484 0.431241
Si Si6 0.387828 0.882671 0.483857
O O1 0.500000 0.566699 0.213358
O O2 0.628507 0.500000 0.157410
O O3 0.671472 0.570296 0.286876
O O4 0.640841 0.589009 0.087669
O O5 0.750000 0.250000 0.679692
O O6 0.722297 0.162245 0.770356
O O7 0.856194 0.171462 0.632167
O O8 0.874174 0.215215 0.809862
O O9 0.156627 0.629258 0.948446
O O10 0.324268 0.597628 0.887103
O O11 0.500000 0.171750 0.002235
O O12 0.340465 0.225870 0.968096
O O13 0.857614 0.324831 0.497307
O O14 0.000000 0.268330 0.454200
O O15 0.500000 0.888851 0.456040
#
# Coordination Sequence:
#
# PCOD8186749 Si02
#       6
#    16  16  16  16  16  16
#     4  10  22  41  63  88 115 148 197 253 300 343
#     4  11  22  33  53  77 116 152 195 236 281 343
#     4  11  22  38  59  86 116 156 192 245 288 354
#     4  11  23  35  52  80 115 157 199 235 285 347
#     4   9  19  35  52  77 112 153 195 235 282 340
#     4   9  20  37  59  85 115 151 192 238 294 350
#
# _framework density 19.601409
#
# number of rings (size 3 to 8) (size 9 to 14) (size 15 to 20)
#    0.000    1.833    1.667    2.000    7.000    1.333 
#    0.000    0.000    0.000    0.000    0.000    0.000 
#    0.000    0.000    0.000    0.000    0.000    0.000 
#
# Total GULP energy -297578.620811 kJ/mol
# GULP energy per Si atom -12399.109200 kJ/mol
# Density = 1.955680 g / cm^3
# Si number density = 19.601409 Si / 1000 Ang^3
#
#
#
# Elastic Constant Matrix: (Units=GPa)
#
#
# Indices 1 2 3 4 5 6 
#
# 1 64.1566 33.3990 39.3521 0.0000 0.0000 0.0000
# 2 33.3990 72.9682 46.1279 0.0000 0.0000 0.0000
# 3 39.3521 46.1279 115.2680 0.0000 0.0000 0.0000
# 4 0.0000 0.0000 0.0000 27.7184 0.0000 0.0000
# 5 0.0000 0.0000 0.0000 0.0000 36.8878 0.0000
# 6 0.0000 0.0000 0.0000 0.0000 0.0000 22.5953
#
#
#
# Elastic Compliance Matrix: (Units=1/GPa)
#
#
# Indices 1 2 3 4 5 6 
#
# 1 0.022219 -0.007195 -0.004706 0.000000 0.000000 0.000000
# 2 -0.007195 0.020676 -0.005818 0.000000 0.000000 0.000000
# 3 -0.004706 -0.005818 0.012610 0.000000 0.000000 0.000000
# 4 0.000000 0.000000 0.000000 0.036077 0.000000 0.000000
# 5 0.000000 0.000000 0.000000 0.000000 0.027109 0.000000
# 6 0.000000 0.000000 0.000000 0.000000 0.000000 0.044257
#
#
# Mechanical properties :
#
#
# Convention : Reuss Voigt Hill
#
# Bulk Modulus (GPa) = 49.83248 54.46120 52.14684
# Shear Modulus (GPa) = 24.38129 26.34121 25.36125
#
# Velocity S-wave (km/s) = 3.53066 3.66982 3.60091
# Velocity P-wave (km/s) = 6.48836 6.76768 6.62949
#
# Compressibility (1/GPa) = 0.02006723
#
# Stress axis : x y z
#
# Youngs Moduli (GPa) = 45.00607 48.36619 79.30089
#
# Poissons Ratio (x) = 0.34800 0.37321
# Poissons Ratio (y) = 0.32382 0.46134
# Poissons Ratio (z) = 0.21181 0.28137
#
# Static dielectric constant tensor:
#      x y z
#    x 3.598610 0.000000 0.000000 
#    y 0.000000 3.407660 0.000000 
#    z 0.000000 0.000000 3.503180 
# 
# 
# High freq. dielectric constant tensor:
#      x y z
#    x 1.769210 0.000000 0.000000 
#    y 0.000000 1.735860 0.000000 
#    z 0.000000 0.000000 1.763620 
# 
# From -- ./inp_files/8802.got.cif
#   From: 2010.03.12/outbox.cif.g09.slc.cpg/sg42_5_cif.got.tgz:8802.got - 2010.04.14 02:04:31.
