data_PCOD8186266
_publ_section_title
;
Structure prediction by ZEFSAII (Michael W. Deem and Ramdas Pophale) SiO2 
 PCOD8186266
Probable space group: F M M 2
;
_chemical_formula_sum "Si O2"
_cell_formula_units_Z 104
_cell_length_a 9.803679
_cell_length_b 24.474271
_cell_length_c 23.782120
_cell_angle_alpha 90.000000
_cell_angle_beta 90.000000
_cell_angle_gamma 90.000000
_cell_volume 5706.231851
_symmetry_space_group_name_H-M "F M M 2"
_symmetry_group_IT_number 42
_symmetry_cell_setting 'orthorhombic'
loop_
_space_group_symop_operation_xyz
x,y,z
-x,-y,z
-x,y,z
x,-y,z
x,1/2+y,1/2+z
-x,1/2-y,1/2+z
-x,1/2+y,1/2+z
x,1/2-y,1/2+z
1/2+x,y,1/2+z
1/2-x,-y,1/2+z
1/2-x,y,1/2+z
1/2+x,-y,1/2+z
1/2+x,1/2+y,z
1/2-x,1/2-y,z
1/2-x,1/2+y,z
1/2+x,1/2-y,z
loop_
_atom_site_type_symbol
_atom_site_label
_atom_site_fract_x
_atom_site_fract_y
_atom_site_fract_z
Si Si1 0.153026 0.440673 0.677410
Si Si2 0.652702 0.436415 0.987775
Si Si3 0.158602 0.136217 0.278971
Si Si4 0.158132 0.062770 0.857310
Si Si5 0.660060 0.592295 0.584513
Si Si6 0.250000 0.750000 0.737484
Si Si7 0.145647 0.709844 0.127939
O O1 0.156079 0.500000 0.708365
O O2 0.195334 0.392692 0.719993
O O3 0.257664 0.447864 0.625509
O O4 0.000000 0.428866 0.654281
O O5 0.500000 0.415357 0.003065
O O6 0.663019 0.500000 0.001607
O O7 0.682475 0.425541 0.922722
O O8 0.770123 0.406013 0.023290
O O9 0.249898 0.107116 0.325839
O O10 0.188159 0.201459 0.275978
O O11 0.000000 0.127382 0.294031
O O12 0.000000 0.071972 0.841138
O O13 0.199459 0.000000 0.842774
O O14 0.500000 0.576632 0.579473
O O15 0.687253 0.648802 0.615621
O O16 0.139751 0.778140 0.695388
O O17 0.250000 0.750000 0.096460
O O18 0.000000 0.722511 0.101049
#
# Coordination Sequence:
#
# PCOD8186266 Si02
#       7
#    16  16  16  16  16   8  16
#     4  10  20  34  51  76 113 152 184 216 267 337
#     4   9  19  37  58  79 107 147 186 217 265 335
#     4  11  22  36  58  84 110 146 190 234 278 330
#     4   9  20  39  61  84 112 147 186 229 281 338
#     4  11  21  32  51  82 113 141 180 231 278 320
#     4  10  20  36  58  74 108 148 192 222 274 324
#     4   9  19  34  52  74 104 141 181 222 267 321
#
# _framework density 18.225687000000001
#
# number of rings (size 3 to 8) (size 9 to 14) (size 15 to 20)
#    0.462    1.692    1.538    2.769    0.000    7.077 
#    0.000    1.538    1.692    0.000    0.000    0.000 
#    0.000    0.000    0.000    0.000    0.000    0.000 
#
# Total GULP energy -322128.561011 kJ/mol
# GULP energy per Si atom -12389.560039 kJ/mol
# Density = 1.818420 g / cm^3
# Si number density = 18.225687 Si / 1000 Ang^3
#
#
#
# Elastic Constant Matrix: (Units=GPa)
#
#
# Indices 1 2 3 4 5 6 
#
# 1 110.6699 52.3373 62.2086 0.0000 0.0000 0.0000
# 2 52.3373 105.8087 45.2235 0.0000 0.0000 0.0000
# 3 62.2086 45.2235 86.8705 0.0000 0.0000 0.0000
# 4 0.0000 0.0000 0.0000 18.5904 0.0000 0.0000
# 5 0.0000 0.0000 0.0000 0.0000 25.8140 0.0000
# 6 0.0000 0.0000 0.0000 0.0000 0.0000 21.2131
#
#
#
# Elastic Compliance Matrix: (Units=1/GPa)
#
#
# Indices 1 2 3 4 5 6 
#
# 1 0.016318 -0.003958 -0.009625 0.000000 0.000000 0.000000
# 2 -0.003958 0.013116 -0.003994 0.000000 0.000000 0.000000
# 3 -0.009625 -0.003994 0.020483 0.000000 0.000000 0.000000
# 4 0.000000 0.000000 0.000000 0.053791 0.000000 0.000000
# 5 0.000000 0.000000 0.000000 0.000000 0.038739 0.000000
# 6 0.000000 0.000000 0.000000 0.000000 0.000000 0.047141
#
#
# Mechanical properties :
#
#
# Convention : Reuss Voigt Hill
#
# Bulk Modulus (GPa) = 67.73372 69.20975 68.47173
# Shear Modulus (GPa) = 21.77124 22.69549 22.23337
#
# Velocity S-wave (km/s) = 3.45996 3.53263 3.49648
# Velocity P-wave (km/s) = 7.29426 7.39564 7.34513
#
# Compressibility (1/GPa) = 0.01476370
#
# Stress axis : x y z
#
# Youngs Moduli (GPa) = 61.28278 76.24539 48.82107
#
# Poissons Ratio (x) = 0.30175 0.46990
# Poissons Ratio (y) = 0.24254 0.19497
# Poissons Ratio (z) = 0.58985 0.30450
#
# Static dielectric constant tensor:
#      x y z
#    x 3.377560 0.000000 0.000000 
#    y 0.000000 3.359780 0.000000 
#    z 0.000000 0.000000 3.094190 
# 
# 
# High freq. dielectric constant tensor:
#      x y z
#    x 1.713660 0.000000 0.000000 
#    y 0.000000 1.703840 0.000000 
#    z 0.000000 0.000000 1.677340 
# 
# From -- ./inp_files/28269.got.cif
#   From: 2010.03.12/outbox.cif.g09.slc.cpg/sg42_15_cif.got.tgz:28269.got - 2010.04.14 02:04:31.
