data_PCOD8186465
_publ_section_title
;
Structure prediction by ZEFSAII (Michael W. Deem and Ramdas Pophale) SiO2 
 PCOD8186465
Probable space group: F M M 2
;
_chemical_formula_sum "Si O2"
_cell_formula_units_Z 96
_cell_length_a 8.620568
_cell_length_b 28.503026
_cell_length_c 20.357969
_cell_angle_alpha 90.000000
_cell_angle_beta 90.000000
_cell_angle_gamma 90.000000
_cell_volume 5002.202854
_symmetry_space_group_name_H-M "F M M 2"
_symmetry_group_IT_number 42
_symmetry_cell_setting 'orthorhombic'
loop_
_space_group_symop_operation_xyz
x,y,z
-x,-y,z
-x,y,z
x,-y,z
x,1/2+y,1/2+z
-x,1/2-y,1/2+z
-x,1/2+y,1/2+z
x,1/2-y,1/2+z
1/2+x,y,1/2+z
1/2-x,-y,1/2+z
1/2-x,y,1/2+z
1/2+x,-y,1/2+z
1/2+x,1/2+y,z
1/2-x,1/2-y,z
1/2-x,1/2+y,z
1/2+x,1/2-y,z
loop_
_atom_site_type_symbol
_atom_site_label
_atom_site_fract_x
_atom_site_fract_y
_atom_site_fract_z
Si Si1 0.683361 0.147918 0.224880
Si Si2 0.683912 0.551111 0.669738
Si Si3 0.183896 0.449146 0.022313
Si Si4 0.183401 0.698812 0.603038
Si Si5 0.317329 0.851339 0.979720
Si Si6 0.681158 0.199310 0.355618
O O1 0.500000 0.153389 0.211818
O O2 0.740682 0.093992 0.215675
O O3 0.774934 0.181573 0.175669
O O4 0.729630 0.163472 0.298114
O O5 0.500000 0.551365 0.667641
O O6 0.741424 0.500000 0.696751
O O7 0.749845 0.558424 0.596029
O O8 0.241896 0.500000 0.994812
O O9 0.000000 0.449115 0.027232
O O10 0.235457 0.406272 0.975077
O O11 0.250000 0.750000 0.591439
O O12 0.265841 0.665146 0.551225
O O13 0.000000 0.698881 0.592351
O O14 0.500000 0.845280 0.971815
O O15 0.236306 0.821064 0.924381
O O16 0.500000 0.205971 0.359394
O O17 0.750000 0.250000 0.340983
#
# Coordination Sequence:
#
# PCOD8186465 Si02
#       6
#    16  16  16  16  16  16
#     4  10  20  37  59  84 113 147 188 231 276 330
#     4   8  13  26  53  86 114 142 181 224 268 325
#     4   8  14  27  53  86 113 141 181 225 269 326
#     4  12  24  37  56  82 112 142 183 236 285 335
#     4  11  21  37  60  83 112 147 189 232 277 331
#     4  11  24  40  57  79 112 151 192 234 283 337
#
# _framework density 19.191545999999999
#
# number of rings (size 3 to 8) (size 9 to 14) (size 15 to 20)
#    0.000    2.000    1.667    4.500    0.000    2.667 
#    0.000    0.833    0.000    4.500    0.000    0.000 
#    0.000    0.000    0.000    0.000    0.000    0.000 
#
# Total GULP energy -297489.731514 kJ/mol
# GULP energy per Si atom -12395.405480 kJ/mol
# Density = 1.914786 g / cm^3
# Si number density = 19.191546 Si / 1000 Ang^3
#
#
#
# Elastic Constant Matrix: (Units=GPa)
#
#
# Indices 1 2 3 4 5 6 
#
# 1 29.4363 34.2436 24.7070 0.0000 0.0000 0.0000
# 2 34.2436 140.6556 23.0808 0.0000 0.0000 0.0000
# 3 24.7070 23.0808 61.4929 0.0000 0.0000 0.0000
# 4 0.0000 0.0000 0.0000 33.7794 0.0000 0.0000
# 5 0.0000 0.0000 0.0000 0.0000 20.6263 0.0000
# 6 0.0000 0.0000 0.0000 0.0000 0.0000 11.3338
#
#
#
# Elastic Compliance Matrix: (Units=1/GPa)
#
#
# Indices 1 2 3 4 5 6 
#
# 1 0.067633 -0.012795 -0.022372 0.000000 0.000000 0.000000
# 2 -0.012795 0.009997 0.001389 0.000000 0.000000 0.000000
# 3 -0.022372 0.001389 0.024730 0.000000 0.000000 0.000000
# 4 0.000000 0.000000 0.000000 0.029604 0.000000 0.000000
# 5 0.000000 0.000000 0.000000 0.000000 0.048482 0.000000
# 6 0.000000 0.000000 0.000000 0.000000 0.000000 0.088232
#
#
# Mechanical properties :
#
#
# Convention : Reuss Voigt Hill
#
# Bulk Modulus (GPa) = 28.73256 43.96085 36.34671
# Shear Modulus (GPa) = 14.37466 23.11811 18.74638
#
# Velocity S-wave (km/s) = 2.73977 3.47450 3.12878
# Velocity P-wave (km/s) = 5.00124 6.24918 5.65971
#
# Compressibility (1/GPa) = 0.03480372
#
# Stress axis : x y z
#
# Youngs Moduli (GPa) = 14.78557 100.03329 40.43740
#
# Poissons Ratio (x) = 1.27990 0.90466
# Poissons Ratio (y) = 0.18918 -0.05615
# Poissons Ratio (z) = 0.33078 -0.13891
#
# Static dielectric constant tensor:
#      x y z
#    x 3.229500 0.000000 0.000000 
#    y 0.000000 4.283800 0.000000 
#    z 0.000000 0.000000 3.379360 
# 
# 
# High freq. dielectric constant tensor:
#      x y z
#    x 1.718840 0.000000 0.000000 
#    y 0.000000 1.772950 0.000000 
#    z 0.000000 0.000000 1.724730 
# 
# From -- ./inp_files/23682.got.cif
#   From: 2010.03.12/outbox.cif.g09.slc.cpg/sg42_12_cif.got.tgz:23682.got - 2010.04.14 02:04:31.
