data_PCOD8186089
_publ_section_title
;
Structure prediction by ZEFSAII (Michael W. Deem and Ramdas Pophale) SiO2 
 PCOD8186089
Probable space group: F M M 2
;
_chemical_formula_sum "Si O2"
_cell_formula_units_Z 80
_cell_length_a 17.189269
_cell_length_b 13.637728
_cell_length_c 18.499855
_cell_angle_alpha 90.000000
_cell_angle_beta 90.000000
_cell_angle_gamma 90.000000
_cell_volume 4336.783649
_symmetry_space_group_name_H-M "F M M 2"
_symmetry_group_IT_number 42
_symmetry_cell_setting 'orthorhombic'
loop_
_space_group_symop_operation_xyz
x,y,z
-x,-y,z
-x,y,z
x,-y,z
x,1/2+y,1/2+z
-x,1/2-y,1/2+z
-x,1/2+y,1/2+z
x,1/2-y,1/2+z
1/2+x,y,1/2+z
1/2-x,-y,1/2+z
1/2-x,y,1/2+z
1/2+x,-y,1/2+z
1/2+x,1/2+y,z
1/2-x,1/2-y,z
1/2-x,1/2+y,z
1/2+x,1/2-y,z
loop_
_atom_site_type_symbol
_atom_site_label
_atom_site_fract_x
_atom_site_fract_y
_atom_site_fract_z
Si Si1 0.338219 0.283509 0.171420
Si Si2 0.909511 0.297371 0.386025
Si Si3 0.408418 0.107349 0.241295
Si Si4 0.091097 0.884479 0.034430
Si Si5 0.590064 0.110989 0.803615
O O1 0.250000 0.250000 0.172436
O O2 0.387899 0.183726 0.178346
O O3 0.358927 0.338255 0.098121
O O4 0.356037 0.358148 0.236760
O O5 0.872807 0.356234 0.318060
O O6 0.874371 0.334339 0.461621
O O7 0.894156 0.181218 0.372794
O O8 0.000000 0.321992 0.389418
O O9 0.500000 0.101868 0.248039
O O10 0.373764 0.000000 0.222993
O O11 0.000000 0.861611 0.046598
O O12 0.106113 0.000000 0.030264
O O13 0.500000 0.121982 0.778795
O O14 0.609447 0.000000 0.826827
#
# Coordination Sequence:
#
# PCOD8186089 Si02
#       5
#    16  16  16  16  16
#     4  11  22  33  47  71 106 138 169 207 247 295
#     4   8  15  29  52  81 103 120 157 212 260 300
#     4   9  17  32  53  73  94 124 164 209 255 301
#     4  10  19  33  55  78 100 131 171 213 254 297
#     4   9  17  33  58  82 102 128 165 210 256 301
#
# _framework density 18.446850000000001
#
# number of rings (size 3 to 8) (size 9 to 14) (size 15 to 20)
#    0.000    2.600    0.000    4.200    0.000    5.600 
#    0.000    5.000    0.000    8.400    0.000    0.000 
#    0.000    0.000    0.000    0.000    0.000    0.000 
#
# Total GULP energy -247906.404737 kJ/mol
# GULP energy per Si atom -12395.320237 kJ/mol
# Density = 1.840486 g / cm^3
# Si number density = 18.446850 Si / 1000 Ang^3
#
#
#
# Elastic Constant Matrix: (Units=GPa)
#
#
# Indices 1 2 3 4 5 6 
#
# 1 49.1328 34.5518 32.6858 0.0000 0.0000 0.0000
# 2 34.5518 167.0724 64.1480 0.0000 0.0000 0.0000
# 3 32.6858 64.1480 114.8177 0.0000 0.0000 0.0000
# 4 0.0000 0.0000 0.0000-1068.7834 0.0000 0.0000
# 5 0.0000 0.0000 0.0000 0.0000 -3.9170 0.0000
# 6 0.0000 0.0000 0.0000 0.0000 0.0000 18.7288
#
#
#
# Elastic Compliance Matrix: (Units=1/GPa)
#
#
# Indices 1 2 3 4 5 6 
#
# 1 0.026451 -0.003283 -0.005696 0.000000 0.000000 0.000000
# 2 -0.003283 0.008028 -0.003550 0.000000 0.000000 0.000000
# 3 -0.005696 -0.003550 0.012314 0.000000 0.000000 0.000000
# 4 0.000000 0.000000 0.000000 -0.000936 0.000000 0.000000
# 5 0.000000 0.000000 0.000000 0.000000 -0.255298 0.000000
# 6 0.000000 0.000000 0.000000 0.000000 0.000000 0.053394
#
#
# Mechanical properties :
#
#
# Convention : Reuss Voigt Hill
#
# Bulk Modulus (GPa) = 46.00981 65.97714 55.99348
# Shear Modulus (GPa) = -40.40604 -197.48518 -118.94561
#
# Velocity S-wave (km/s) = -4.68525 -10.35803 -8.03867
# Velocity P-wave (km/s) = 2.06708 10.35413 7.46595
#
# Compressibility (1/GPa) = 0.02173449
#
# Stress axis : x y z
#
# Youngs Moduli (GPa) = 37.80578 124.57017 81.20611
#
# Poissons Ratio (x) = 0.40902 0.46251
# Poissons Ratio (y) = 0.12413 0.28830
# Poissons Ratio (z) = 0.21532 0.44226
#
# Static dielectric constant tensor:
#      x y z
#    x 3.080810 0.000000 0.000000 
#    y 0.000000 103.658900 0.000000 
#    z 0.000000 0.000000 3.389020 
# 
# 
# High freq. dielectric constant tensor:
#      x y z
#    x 1.677150 0.000000 0.000000 
#    y 0.000000 1.732870 0.000000 
#    z 0.000000 0.000000 1.700860 
# 
# From -- ./inp_files/13824.got.cif
#   From: 2010.03.12/outbox.cif.g09.slc.cpg/sg42_7_cif.got.tgz:13824.got - 2010.04.14 02:04:31.
