data_PCOD8186934
_publ_section_title
;
Structure prediction by ZEFSAII (Michael W. Deem and Ramdas Pophale) SiO2 
 PCOD8186934
Probable space group: F D D 2
;
_chemical_formula_sum "Si O2"
_cell_formula_units_Z 80
_cell_length_a 16.254014
_cell_length_b 31.170859
_cell_length_c 7.458940
_cell_angle_alpha 90.000000
_cell_angle_beta 90.000000
_cell_angle_gamma 90.000000
_cell_volume 3779.083726
_symmetry_space_group_name_H-M "F D D 2"
_symmetry_group_IT_number 43
_symmetry_cell_setting 'orthorhombic'
loop_
_space_group_symop_operation_xyz
x,y,z
-x,-y,z
1/4-x,1/4+y,1/4+z
1/4+x,1/4-y,1/4+z
x,1/2+y,1/2+z
-x,1/2-y,1/2+z
1/4-x,3/4+y,3/4+z
1/4+x,3/4-y,3/4+z
1/2+x,y,1/2+z
1/2-x,-y,1/2+z
3/4-x,1/4+y,3/4+z
3/4+x,1/4-y,3/4+z
1/2+x,1/2+y,z
1/2-x,1/2-y,z
3/4-x,3/4+y,1/4+z
3/4+x,3/4-y,1/4+z
loop_
_atom_site_type_symbol
_atom_site_label
_atom_site_fract_x
_atom_site_fract_y
_atom_site_fract_z
Si Si1 0.351960 0.317122 0.418640
Si Si2 0.506602 0.119308 0.906661
Si Si3 0.110601 0.566690 0.151972
Si Si4 0.182950 0.008228 0.340802
Si Si5 0.362758 0.490985 0.960367
O O1 0.413928 0.353647 0.346699
O O2 0.268124 0.338235 0.491116
O O3 0.395946 0.290329 0.581203
O O4 0.332879 0.283763 0.256322
O O5 0.430572 0.149461 0.957253
O O6 0.529641 0.090919 0.081033
O O7 0.086384 0.540519 0.330957
O O8 0.143130 0.534682 0.000234
O O9 0.280696 0.006074 0.357922
O O10 0.162575 0.031497 0.149622
#
# Coordination Sequence:
#
# PCOD8186934 Si02
#       5
#    16  16  16  16  16
#     4   9  20  35  63  92 129 164 222 246 339 367
#     4  10  20  35  64  97 124 170 199 291 319 365
#     4  11  20  39  65  87 135 166 217 262 332 371
#     4  10  18  34  63  90 119 176 214 248 309 407
#     4  10  18  35  62  93 118 180 216 251 305 417
#
# _framework density 21.169152
#
# number of rings (size 3 to 8) (size 9 to 14) (size 15 to 20)
#    1.200    0.800    6.000    0.000    0.000    0.800 
#    0.000    2.000   26.400    0.000    0.000    0.000 
#    0.000    0.000    0.000    0.000    0.000    0.000 
#
# Total GULP energy -247812.703402 kJ/mol
# GULP energy per Si atom -12390.635170 kJ/mol
# Density = 2.112097 g / cm^3
# Si number density = 21.169152 Si / 1000 Ang^3
#
#
#
# Elastic Constant Matrix: (Units=GPa)
#
#
# Indices 1 2 3 4 5 6 
#
# 1 68.1039 37.8936 32.4498 -0.0002 -0.0010 0.0001
# 2 37.8936 114.9293 57.7081 0.0000 0.0001 0.0001
# 3 32.4498 57.7081 120.8120 -0.0006 -0.0026 0.0005
# 4 -0.0002 0.0000 -0.0006 47.3595 0.0003 -0.0001
# 5 -0.0010 0.0001 -0.0026 0.0003 28.9900 -0.0002
# 6 0.0001 0.0001 0.0005 -0.0001 -0.0002 1.2082
#
#
#
# Elastic Compliance Matrix: (Units=1/GPa)
#
#
# Indices 1 2 3 4 5 6 
#
# 1 0.018640 -0.004778 -0.002724 0.000000 0.000000 0.000000
# 2 -0.004778 0.012671 -0.004769 0.000000 -0.000001 0.000002
# 3 -0.002724 -0.004769 0.011287 0.000000 0.000001 -0.000004
# 4 0.000000 0.000000 0.000000 0.021115 0.000000 0.000001
# 5 0.000000 -0.000001 0.000001 0.000000 0.034495 0.000005
# 6 0.000000 0.000002 -0.000004 0.000001 0.000005 0.827655
#
#
# Mechanical properties :
#
#
# Convention : Reuss Voigt Hill
#
# Bulk Modulus (GPa) = 55.38563 62.21646 58.80105
# Shear Modulus (GPa) = 5.22781 27.23111 16.22946
#
# Velocity S-wave (km/s) = 1.57318 3.59047 2.77186
# Velocity P-wave (km/s) = 5.43323 6.82954 6.17101
#
# Compressibility (1/GPa) = 0.01805522
#
# Stress axis : x y z
#
# Youngs Moduli (GPa) = 53.64800 78.92010 88.59584
#
# Poissons Ratio (x) = 0.37707 0.24137
# Poissons Ratio (y) = 0.25632 0.42253
# Poissons Ratio (z) = 0.14616 0.37639
#
# Static dielectric constant tensor:
#      x y z
#    x 3.600580 0.000000 0.000000 
#    y 0.000000 4.085760 0.000000 
#    z 0.000000 0.000000 3.779090 
# 
# 
# High freq. dielectric constant tensor:
#      x y z
#    x 1.812890 0.000000 0.000000 
#    y 0.000000 1.832130 0.000000 
#    z 0.000000 0.000000 1.811110 
# 
# From -- ./inp_files/2859.got.cif
#   From: 2010.06.25/outbox.cif.g09.slc.cpg/sg43_2_cif.got.tgz:2859.got - 2010.06.26 16:48:59.
