data_PCOD8186936
_publ_section_title
;
Structure prediction by ZEFSAII (Michael W. Deem and Ramdas Pophale) SiO2 
 PCOD8186936
Probable space group: F D D 2
;
_chemical_formula_sum "Si O2"
_cell_formula_units_Z 120
_cell_length_a 21.551182
_cell_length_b 22.602232
_cell_length_c 12.972162
_cell_angle_alpha 90.000000
_cell_angle_beta 90.000000
_cell_angle_gamma 90.000000
_cell_volume 6318.802577
_symmetry_space_group_name_H-M "F D D 2"
_symmetry_group_IT_number 43
_symmetry_cell_setting 'orthorhombic'
loop_
_space_group_symop_operation_xyz
x,y,z
-x,-y,z
1/4-x,1/4+y,1/4+z
1/4+x,1/4-y,1/4+z
x,1/2+y,1/2+z
-x,1/2-y,1/2+z
1/4-x,3/4+y,3/4+z
1/4+x,3/4-y,3/4+z
1/2+x,y,1/2+z
1/2-x,-y,1/2+z
3/4-x,1/4+y,3/4+z
3/4+x,1/4-y,3/4+z
1/2+x,1/2+y,z
1/2-x,1/2-y,z
3/4-x,3/4+y,1/4+z
3/4+x,3/4-y,1/4+z
loop_
_atom_site_type_symbol
_atom_site_label
_atom_site_fract_x
_atom_site_fract_y
_atom_site_fract_z
Si Si1 0.159019 0.895912 0.475000
Si Si2 0.302419 0.154036 0.772047
Si Si3 0.221523 0.957290 0.809685
Si Si4 0.500000 0.000000 0.171341
Si Si5 0.415113 0.518389 0.862583
Si Si6 0.917724 0.218787 0.220567
Si Si7 0.043439 0.323562 0.936761
Si Si8 0.772824 0.652879 0.161213
O O1 0.170701 0.893784 0.352613
O O2 0.100944 0.852465 0.500154
O O3 0.215457 0.874975 0.547806
O O4 0.148308 0.964578 0.499165
O O5 0.262069 0.195831 0.846003
O O6 0.352397 0.186533 0.698868
O O7 0.261507 0.120481 0.689243
O O8 0.157257 0.965852 0.871781
O O9 0.281867 0.960633 0.881496
O O10 0.218363 0.894715 0.751236
O O11 0.227442 0.010954 0.731186
O O12 0.439157 0.010177 0.243737
O O13 0.429836 0.458257 0.926606
O O14 0.452468 0.573069 0.913179
O O15 0.943608 0.184872 0.318319
#
# Coordination Sequence:
#
# PCOD8186936 Si02
#       8
#    16  16  16   8  16  16  16  16
#     4  11  19  36  61  94 121 149 210 260 306 362
#     4  11  21  37  59  86 127 160 194 254 312 370
#     4  12  23  38  64  91 126 165 208 257 310 380
#     4  10  18  34  64  98 118 158 204 268 320 350
#     4  10  21  38  61  94 127 157 204 262 324 363
#     4  11  25  39  57  91 126 165 206 252 310 381
#     4  11  23  37  63  90 119 165 205 261 312 365
#     4  10  21  36  60  92 128 154 199 257 322 368
#
# _framework density 18.990939999999998
#
# number of rings (size 3 to 8) (size 9 to 14) (size 15 to 20)
#    0.000    1.333    6.667    1.600    1.867    2.133 
#    0.000    0.000    0.000    3.200    0.000    0.000 
#    0.000    0.000    0.000    0.000    0.000    0.000 
#
# Total GULP energy -371803.474809 kJ/mol
# GULP energy per Si atom -12393.449160 kJ/mol
# Density = 1.894772 g / cm^3
# Si number density = 18.990940 Si / 1000 Ang^3
#
#
#
# Elastic Constant Matrix: (Units=GPa)
#
#
# Indices 1 2 3 4 5 6 
#
# 1 76.2705 49.7455 23.5806 0.0000 0.0000 0.0000
# 2 49.7455 131.3395 39.3682 0.0000 0.0000 0.0000
# 3 23.5806 39.3682 43.4874 0.0000 0.0000 0.0000
# 4 0.0000 0.0000 0.0000 30.9415 0.0000 0.0000
# 5 0.0000 0.0000 0.0000 0.0000 29.0922 0.0000
# 6 0.0000 0.0000 0.0000 0.0000 0.0000 33.6620
#
#
#
# Elastic Compliance Matrix: (Units=1/GPa)
#
#
# Indices 1 2 3 4 5 6 
#
# 1 0.018163 -0.005390 -0.004969 0.000000 0.000000 0.000000
# 2 -0.005390 0.012049 -0.007985 0.000000 0.000000 0.000000
# 3 -0.004969 -0.007985 0.032918 0.000000 0.000000 0.000000
# 4 0.000000 0.000000 0.000000 0.032319 0.000000 0.000000
# 5 0.000000 0.000000 0.000000 0.000000 0.034373 0.000000
# 6 0.000000 0.000000 0.000000 0.000000 0.000000 0.029707
#
#
# Mechanical properties :
#
#
# Convention : Reuss Voigt Hill
#
# Bulk Modulus (GPa) = 37.81886 52.94290 45.38088
# Shear Modulus (GPa) = 24.38648 27.96601 26.17625
#
# Velocity S-wave (km/s) = 3.58734 3.84161 3.71665
# Velocity P-wave (km/s) = 6.09229 6.90042 6.50891
#
# Compressibility (1/GPa) = 0.02644184
#
# Stress axis : x y z
#
# Youngs Moduli (GPa) = 55.05708 82.99677 30.37819
#
# Poissons Ratio (x) = 0.44733 0.15096
# Poissons Ratio (y) = 0.29674 0.24257
# Poissons Ratio (z) = 0.27360 0.66272
#
# Static dielectric constant tensor:
#      x y z
#    x 3.614310 0.000000 0.000000 
#    y 0.000000 3.728070 0.000000 
#    z 0.000000 0.000000 3.152970 
# 
# 
# High freq. dielectric constant tensor:
#      x y z
#    x 1.737350 0.000000 0.000000 
#    y 0.000000 1.756570 0.000000 
#    z 0.000000 0.000000 1.700910 
# 
# From -- ./inp_files/7615.got.cif
#   From: 2010.06.25/outbox.cif.g09.slc.cpg/sg43_4_cif.got.tgz:7615.got - 2010.06.26 16:48:59.
