data_PCOD8186239
_publ_section_title
;
Structure prediction by ZEFSAII (Michael W. Deem and Ramdas Pophale) SiO2 
 PCOD8186239
Probable space group: F M M 2
;
_chemical_formula_sum "Si O2"
_cell_formula_units_Z 80
_cell_length_a 8.939431
_cell_length_b 18.324482
_cell_length_c 25.715639
_cell_angle_alpha 90.000000
_cell_angle_beta 90.000000
_cell_angle_gamma 90.000000
_cell_volume 4212.490202
_symmetry_space_group_name_H-M "F M M 2"
_symmetry_group_IT_number 42
_symmetry_cell_setting 'orthorhombic'
loop_
_space_group_symop_operation_xyz
x,y,z
-x,-y,z
-x,y,z
x,-y,z
x,1/2+y,1/2+z
-x,1/2-y,1/2+z
-x,1/2+y,1/2+z
x,1/2-y,1/2+z
1/2+x,y,1/2+z
1/2-x,-y,1/2+z
1/2-x,y,1/2+z
1/2+x,-y,1/2+z
1/2+x,1/2+y,z
1/2-x,1/2-y,z
1/2-x,1/2+y,z
1/2+x,1/2-y,z
loop_
_atom_site_type_symbol
_atom_site_label
_atom_site_fract_x
_atom_site_fract_y
_atom_site_fract_z
Si Si1 0.677859 0.418259 0.063830
Si Si2 0.823080 0.172178 0.275994
Si Si3 0.824834 0.326823 0.468075
Si Si4 0.327895 0.085247 0.365567
Si Si5 0.177580 0.418396 0.679103
O O1 0.500000 0.419894 0.060075
O O2 0.738769 0.500000 0.053177
O O3 0.729060 0.392450 0.121530
O O4 0.742420 0.362877 0.020737
O O5 0.750000 0.250000 0.285249
O O6 0.779649 0.118714 0.322431
O O7 0.760685 0.137738 0.222105
O O8 0.000000 0.181637 0.274930
O O9 0.750000 0.250000 0.457123
O O10 0.786760 0.380399 0.420907
O O11 0.000000 0.313817 0.473756
O O12 0.500000 0.101329 0.350805
O O13 0.295264 0.000000 0.369515
O O14 0.239855 0.500000 0.690359
O O15 0.000000 0.420992 0.681954
#
# Coordination Sequence:
#
# PCOD8186239 Si02
#       5
#    16  16  16  16  16
#     4   8  14  28  51  75  98 128 168 210 249 293
#     4  11  22  35  52  76 106 138 172 210 254 304
#     4  10  20  33  51  76 104 133 165 204 251 302
#     4  10  21  37  56  77 101 131 170 214 258 306
#     4   8  15  29  50  75 100 128 167 212 253 297
#
# _framework density 18.991143000000001
#
# number of rings (size 3 to 8) (size 9 to 14) (size 15 to 20)
#    0.000    2.600    0.000    3.600    0.000    6.800 
#    0.000    0.000    0.000    3.000    0.000    5.600 
#    0.000    0.000    0.000    0.000    0.000    0.000 
#
# Total GULP energy -247963.877303 kJ/mol
# GULP energy per Si atom -12398.193865 kJ/mol
# Density = 1.894792 g / cm^3
# Si number density = 18.991143 Si / 1000 Ang^3
#
#
#
# Elastic Constant Matrix: (Units=GPa)
#
#
# Indices 1 2 3 4 5 6 
#
# 1 34.2089 33.2232 38.0661 0.0000 0.0000 0.0000
# 2 33.2232 132.0322 74.4462 0.0000 0.0000 0.0000
# 3 38.0661 74.4462 144.7634 0.0000 0.0000 0.0000
# 4 0.0000 0.0000 0.0000 11.4564 0.0000 0.0000
# 5 0.0000 0.0000 0.0000 0.0000 21.1130 0.0000
# 6 0.0000 0.0000 0.0000 0.0000 0.0000 18.0928
#
#
#
# Elastic Compliance Matrix: (Units=1/GPa)
#
#
# Indices 1 2 3 4 5 6 
#
# 1 0.045020 -0.006554 -0.008468 0.000000 0.000000 0.000000
# 2 -0.006554 0.011621 -0.004253 0.000000 0.000000 0.000000
# 3 -0.008468 -0.004253 0.011322 0.000000 0.000000 0.000000
# 4 0.000000 0.000000 0.000000 0.087287 0.000000 0.000000
# 5 0.000000 0.000000 0.000000 0.000000 0.047364 0.000000
# 6 0.000000 0.000000 0.000000 0.000000 0.000000 0.055271
#
#
# Mechanical properties :
#
#
# Convention : Reuss Voigt Hill
#
# Bulk Modulus (GPa) = 33.99818 66.94175 50.46996
# Shear Modulus (GPa) = 16.32720 21.15038 18.73879
#
# Velocity S-wave (km/s) = 2.93529 3.34083 3.14461
# Velocity P-wave (km/s) = 5.42484 7.08569 6.31015
#
# Compressibility (1/GPa) = 0.02941334
#
# Stress axis : x y z
#
# Youngs Moduli (GPa) = 22.21259 86.05097 88.32706
#
# Poissons Ratio (x) = 0.56395 0.74793
# Poissons Ratio (y) = 0.14558 0.37565
# Poissons Ratio (z) = 0.18809 0.36597
#
# Static dielectric constant tensor:
#      x y z
#    x 3.043250 0.000000 0.000000 
#    y 0.000000 3.575990 0.000000 
#    z 0.000000 0.000000 3.866320 
# 
# 
# High freq. dielectric constant tensor:
#      x y z
#    x 1.691050 0.000000 0.000000 
#    y 0.000000 1.743940 0.000000 
#    z 0.000000 0.000000 1.756920 
# 
# From -- ./inp_files/31246.got.cif
#   From: 2010.03.12/outbox.cif.g09.slc.cpg/sg42_16_cif.got.tgz:31246.got - 2010.04.14 02:04:31.
