data_PCOD8186325
_publ_section_title
;
Structure prediction by ZEFSAII (Michael W. Deem and Ramdas Pophale) SiO2 
 PCOD8186325
Probable space group: F M M 2
;
_chemical_formula_sum "Si O2"
_cell_formula_units_Z 72
_cell_length_a 13.424893
_cell_length_b 17.851179
_cell_length_c 17.499155
_cell_angle_alpha 90.000000
_cell_angle_beta 90.000000
_cell_angle_gamma 90.000000
_cell_volume 4193.675436
_symmetry_space_group_name_H-M "F M M 2"
_symmetry_group_IT_number 42
_symmetry_cell_setting 'orthorhombic'
loop_
_space_group_symop_operation_xyz
x,y,z
-x,-y,z
-x,y,z
x,-y,z
x,1/2+y,1/2+z
-x,1/2-y,1/2+z
-x,1/2+y,1/2+z
x,1/2-y,1/2+z
1/2+x,y,1/2+z
1/2-x,-y,1/2+z
1/2-x,y,1/2+z
1/2+x,-y,1/2+z
1/2+x,1/2+y,z
1/2-x,1/2-y,z
1/2-x,1/2+y,z
1/2+x,1/2-y,z
loop_
_atom_site_type_symbol
_atom_site_label
_atom_site_fract_x
_atom_site_fract_y
_atom_site_fract_z
Si Si1 0.750000 0.250000 0.150780
Si Si2 0.387385 0.684819 0.400779
Si Si3 0.114750 0.809353 0.024810
Si Si4 0.614748 0.190645 0.276748
Si Si5 0.800017 0.411653 0.400780
O O1 0.819173 0.195337 0.100702
O O2 0.680833 0.195333 0.200860
O O3 0.500000 0.654504 0.400783
O O4 0.365881 0.734769 0.475231
O O5 0.365889 0.734768 0.326324
O O6 0.314893 0.614142 0.400777
O O7 0.000000 0.816361 0.048877
O O8 0.144232 0.882183 0.976207
O O9 0.500000 0.183635 0.252675
O O10 0.644227 0.117817 0.325355
O O11 0.804140 0.500000 0.400780
#
# Coordination Sequence:
#
# PCOD8186325 Si02
#       5
#     8  16  16  16  16
#     4  12  18  34  58  82 112 130 172 228 264 312
#     4   9  17  35  57  77 103 138 188 225 245 299
#     4  10  20  34  57  82 103 138 181 220 261 306
#     4  10  20  34  57  82 103 138 181 220 261 306
#     4  11  20  36  57  78 109 140 176 222 260 310
#
# _framework density 17.168710000000001
#
# number of rings (size 3 to 8) (size 9 to 14) (size 15 to 20)
#    0.000    1.778    4.444    4.000    0.000    2.222 
#    0.000    1.111    0.000    0.000    0.000    0.000 
#    0.000    0.000    0.000    0.000    0.000    0.000 
#
# Total GULP energy -223260.337165 kJ/mol
# GULP energy per Si atom -12403.352065 kJ/mol
# Density = 1.712963 g / cm^3
# Si number density = 17.168710 Si / 1000 Ang^3
#
#
#
# Elastic Constant Matrix: (Units=GPa)
#
#
# Indices 1 2 3 4 5 6 
#
# 1 145.3431 57.6455 70.0167 0.0000 0.0000 0.0000
# 2 57.6455 113.9372 46.7463 0.0000 0.0000 0.0000
# 3 70.0167 46.7463 117.2867 0.0000 0.0000 0.0000
# 4 0.0000 0.0000 0.0000 4.9631 0.0000 0.0000
# 5 0.0000 0.0000 0.0000 0.0000 31.9182 0.0000
# 6 0.0000 0.0000 0.0000 0.0000 0.0000 18.8623
#
#
#
# Elastic Compliance Matrix: (Units=1/GPa)
#
#
# Indices 1 2 3 4 5 6 
#
# 1 0.010608 -0.003310 -0.005014 0.000000 0.000000 0.000000
# 2 -0.003310 0.011525 -0.002618 0.000000 0.000000 0.000000
# 3 -0.005014 -0.002618 0.012562 0.000000 0.000000 0.000000
# 4 0.000000 0.000000 0.000000 0.201489 0.000000 0.000000
# 5 0.000000 0.000000 0.000000 0.000000 0.031330 0.000000
# 6 0.000000 0.000000 0.000000 0.000000 0.000000 0.053016
#
#
# Mechanical properties :
#
#
# Convention : Reuss Voigt Hill
#
# Bulk Modulus (GPa) = 78.04249 80.59822 79.32036
# Shear Modulus (GPa) = 14.42234 24.62594 19.52414
#
# Velocity S-wave (km/s) = 2.90148 3.79139 3.37589
# Velocity P-wave (km/s) = 7.53523 8.13713 7.84196
#
# Compressibility (1/GPa) = 0.01281353
#
# Stress axis : x y z
#
# Youngs Moduli (GPa) = 94.26523 86.76433 79.60321
#
# Poissons Ratio (x) = 0.28721 0.39909
# Poissons Ratio (y) = 0.31204 0.20836
# Poissons Ratio (z) = 0.47260 0.22711
#
# Static dielectric constant tensor:
#      x y z
#    x 3.493060 0.000000 0.000000 
#    y 0.000000 2.731750 0.000000 
#    z 0.000000 0.000000 3.195040 
# 
# 
# High freq. dielectric constant tensor:
#      x y z
#    x 1.694120 0.000000 0.000000 
#    y 0.000000 1.616910 0.000000 
#    z 0.000000 0.000000 1.657870 
# 
# From -- ./inp_files/14878.got.cif
#   From: 2010.03.12/outbox.cif.g09.slc.cpg/sg42_8_cif.got.tgz:14878.got - 2010.04.14 02:04:31.
