data_PCOD8186104
_publ_section_title
;
Structure prediction by ZEFSAII (Michael W. Deem and Ramdas Pophale) SiO2 
 PCOD8186104
Probable space group: F M M 2
;
_chemical_formula_sum "Si O2"
_cell_formula_units_Z 112
_cell_length_a 14.837826
_cell_length_b 28.057323
_cell_length_c 14.514693
_cell_angle_alpha 90.000000
_cell_angle_beta 90.000000
_cell_angle_gamma 90.000000
_cell_volume 6042.607150
_symmetry_space_group_name_H-M "F M M 2"
_symmetry_group_IT_number 42
_symmetry_cell_setting 'orthorhombic'
loop_
_space_group_symop_operation_xyz
x,y,z
-x,-y,z
-x,y,z
x,-y,z
x,1/2+y,1/2+z
-x,1/2-y,1/2+z
-x,1/2+y,1/2+z
x,1/2-y,1/2+z
1/2+x,y,1/2+z
1/2-x,-y,1/2+z
1/2-x,y,1/2+z
1/2+x,-y,1/2+z
1/2+x,1/2+y,z
1/2-x,1/2-y,z
1/2-x,1/2+y,z
1/2+x,1/2-y,z
loop_
_atom_site_type_symbol
_atom_site_label
_atom_site_fract_x
_atom_site_fract_y
_atom_site_fract_z
Si Si1 0.196192 0.945352 0.501190
Si Si2 0.188665 0.588833 0.664953
Si Si3 0.000000 0.944795 0.243407
Si Si4 0.000000 0.444550 0.949871
Si Si5 0.747258 0.628461 0.347559
Si Si6 0.602618 0.181897 0.607907
Si Si7 0.401552 0.195700 0.404855
Si Si8 0.658076 0.278563 0.292511
O O1 0.249285 0.943075 0.598030
O O2 0.239552 0.907236 0.432589
O O3 0.089901 0.930892 0.507958
O O4 0.205433 0.000000 0.464765
O O5 0.246810 0.595336 0.757419
O O6 0.173567 0.639356 0.616732
O O7 0.090195 0.567548 0.686832
O O8 0.000000 0.920505 0.346367
O O9 0.000000 0.000000 0.259185
O O10 0.000000 0.500000 0.932327
O O11 0.840162 0.656950 0.354570
O O12 0.668419 0.668608 0.337521
O O13 0.500000 0.162873 0.611427
O O14 0.626680 0.206251 0.510609
O O15 0.616268 0.219182 0.690561
O O16 0.500000 0.172447 0.401674
O O17 0.406090 0.247233 0.356774
O O18 0.750000 0.250000 0.286139
#
# Coordination Sequence:
#
# PCOD8186104 Si02
#       8
#    16  16   8   8  16  16  16  16
#     4  11  22  39  62  88 121 158 198 248 302 356
#     4  11  21  36  58  90 120 153 198 248 301 352
#     4  11  20  34  60  91 116 152 206 260 298 347
#     4   9  20  38  60  83 114 156 202 248 298 351
#     4  10  21  38  59  86 117 157 196 251 302 352
#     4  10  19  33  57  81 111 147 187 235 293 351
#     4  10  20  38  57  81 119 156 192 238 302 363
#     4   9  20  35  55  82 113 151 194 243 290 352
#
# _framework density 18.535046000000001
#
# number of rings (size 3 to 8) (size 9 to 14) (size 15 to 20)
#    0.000    1.857    3.571    0.857    0.000    2.286 
#    5.143    0.000    0.000    0.000    0.000    0.000 
#    0.000    0.000    0.000    0.000    0.000    0.000 
#
# Total GULP energy -346998.914607 kJ/mol
# GULP energy per Si atom -12392.818379 kJ/mol
# Density = 1.849286 g / cm^3
# Si number density = 18.535046 Si / 1000 Ang^3
#
#
#
# Elastic Constant Matrix: (Units=GPa)
#
#
# Indices 1 2 3 4 5 6 
#
# 1 90.0654 22.2693 51.9171 0.0000 0.0000 0.0000
# 2 22.2693 77.1105 37.7857 0.0000 0.0000 0.0000
# 3 51.9171 37.7857 113.2961 0.0000 0.0000 0.0000
# 4 0.0000 0.0000 0.0000 32.5896 0.0000 0.0000
# 5 0.0000 0.0000 0.0000 0.0000 35.5049 0.0000
# 6 0.0000 0.0000 0.0000 0.0000 0.0000 10.2330
#
#
#
# Elastic Compliance Matrix: (Units=1/GPa)
#
#
# Indices 1 2 3 4 5 6 
#
# 1 0.015176 -0.001166 -0.006565 0.000000 0.000000 0.000000
# 2 -0.001166 0.015591 -0.004666 0.000000 0.000000 0.000000
# 3 -0.006565 -0.004666 0.013391 0.000000 0.000000 0.000000
# 4 0.000000 0.000000 0.000000 0.030685 0.000000 0.000000
# 5 0.000000 0.000000 0.000000 0.000000 0.028165 0.000000
# 6 0.000000 0.000000 0.000000 0.000000 0.000000 0.097723
#
#
# Mechanical properties :
#
#
# Convention : Reuss Voigt Hill
#
# Bulk Modulus (GPa) = 51.64052 56.04623 53.84337
# Shear Modulus (GPa) = 21.55364 26.89884 24.22624
#
# Velocity S-wave (km/s) = 3.41377 3.81365 3.61924
# Velocity P-wave (km/s) = 6.59242 7.04951 6.82479
#
# Compressibility (1/GPa) = 0.01936464
#
# Stress axis : x y z
#
# Youngs Moduli (GPa) = 65.89431 64.13813 74.67631
#
# Poissons Ratio (x) = 0.07475 0.49029
# Poissons Ratio (y) = 0.07680 0.34843
# Poissons Ratio (z) = 0.43263 0.29926
#
# Static dielectric constant tensor:
#      x y z
#    x 3.407670 0.000000 0.000000 
#    y 0.000000 3.395970 0.000000 
#    z 0.000000 0.000000 3.518750 
# 
# 
# High freq. dielectric constant tensor:
#      x y z
#    x 1.718330 0.000000 0.000000 
#    y 0.000000 1.710670 0.000000 
#    z 0.000000 0.000000 1.719190 
# 
# From -- ./inp_files/14446.got.cif
#   From: 2010.03.12/outbox.cif.g09.slc.cpg/sg42_8_cif.got.tgz:14446.got - 2010.04.14 02:04:31.
