data_PCOD8186295
_publ_section_title
;
Structure prediction by ZEFSAII (Michael W. Deem and Ramdas Pophale) SiO2 
 PCOD8186295
Probable space group: F M M 2
;
_chemical_formula_sum "Si O2"
_cell_formula_units_Z 120
_cell_length_a 33.845665
_cell_length_b 10.067561
_cell_length_c 19.300759
_cell_angle_alpha 90.000000
_cell_angle_beta 90.000000
_cell_angle_gamma 90.000000
_cell_volume 6576.604256
_symmetry_space_group_name_H-M "F M M 2"
_symmetry_group_IT_number 42
_symmetry_cell_setting 'orthorhombic'
loop_
_space_group_symop_operation_xyz
x,y,z
-x,-y,z
-x,y,z
x,-y,z
x,1/2+y,1/2+z
-x,1/2-y,1/2+z
-x,1/2+y,1/2+z
x,1/2-y,1/2+z
1/2+x,y,1/2+z
1/2-x,-y,1/2+z
1/2-x,y,1/2+z
1/2+x,-y,1/2+z
1/2+x,1/2+y,z
1/2-x,1/2-y,z
1/2-x,1/2+y,z
1/2+x,1/2-y,z
loop_
_atom_site_type_symbol
_atom_site_label
_atom_site_fract_x
_atom_site_fract_y
_atom_site_fract_z
Si Si1 0.955130 0.346087 0.030350
Si Si2 0.250000 0.250000 0.333997
Si Si3 0.889892 0.346889 0.766588
Si Si4 0.680325 0.852794 0.241139
Si Si5 0.455226 0.348136 0.155939
Si Si6 0.893750 0.654446 0.919646
Si Si7 0.808404 0.347236 0.948966
Si Si8 0.782262 0.849691 0.598032
O O1 0.946448 0.500000 0.049404
O O2 0.946479 0.254689 0.095623
O O3 0.000000 0.329831 0.004292
O O4 0.926658 0.287330 0.971010
O O5 0.278679 0.165726 0.283873
O O6 0.222890 0.164848 0.386542
O O7 0.876483 0.500000 0.757757
O O8 0.850982 0.259222 0.759222
O O9 0.924772 0.307464 0.715305
O O10 0.908348 0.320427 0.841896
O O11 0.684709 0.847336 0.157729
O O12 0.664650 0.000000 0.260937
O O13 0.500000 0.331707 0.183784
O O14 0.448277 0.500000 0.130929
O O15 0.890195 0.500000 0.935609
O O16 0.850381 0.721345 0.929785
O O17 0.816142 0.500000 0.962415
O O18 0.795570 0.288566 0.023685
O O19 0.750000 0.750000 0.627917
O O20 0.765776 0.000000 0.589022
#
# Coordination Sequence:
#
# PCOD8186295 Si02
#       8
#    16   8  16  16  16  16  16  16
#     4   9  18  33  57  86 112 142 181 223 271 326
#     4  12  20  36  60  74 110 146 186 222 274 336
#     4  10  21  37  57  80 109 146 184 226 277 329
#     4  11  24  37  55  83 111 143 182 232 280 327
#     4   9  19  36  57  82 112 146 184 224 274 333
#     4   9  18  33  54  79 107 139 179 223 266 317
#     4  10  20  34  54  77 103 141 180 222 271 320
#     4  10  21  37  54  76 103 137 181 224 272 323
#
# _framework density 18.246499
#
# number of rings (size 3 to 8) (size 9 to 14) (size 15 to 20)
#    0.000    2.133    2.667    0.400    1.867    2.133 
#    0.000    3.333    0.000    0.000    0.000    3.733 
#    0.000    0.000    0.000    0.000    0.000    0.000 
#
# Total GULP energy -371762.350137 kJ/mol
# GULP energy per Si atom -12392.078338 kJ/mol
# Density = 1.820497 g / cm^3
# Si number density = 18.246499 Si / 1000 Ang^3
#
#
#
# Elastic Constant Matrix: (Units=GPa)
#
#
# Indices 1 2 3 4 5 6 
#
# 1 122.8908 46.6415 70.0831 0.0000 0.0000 0.0000
# 2 46.6415 69.0930 40.5997 0.0000 0.0000 0.0000
# 3 70.0831 40.5997 124.3403 0.0000 0.0000 0.0000
# 4 0.0000 0.0000 0.0000 19.5874 0.0000 0.0000
# 5 0.0000 0.0000 0.0000 0.0000 35.0752 0.0000
# 6 0.0000 0.0000 0.0000 0.0000 0.0000 24.4054
#
#
#
# Elastic Compliance Matrix: (Units=1/GPa)
#
#
# Indices 1 2 3 4 5 6 
#
# 1 0.013646 -0.005806 -0.005796 0.000000 0.000000 0.000000
# 2 -0.005806 0.020380 -0.003382 0.000000 0.000000 0.000000
# 3 -0.005796 -0.003382 0.012413 0.000000 0.000000 0.000000
# 4 0.000000 0.000000 0.000000 0.051053 0.000000 0.000000
# 5 0.000000 0.000000 0.000000 0.000000 0.028510 0.000000
# 6 0.000000 0.000000 0.000000 0.000000 0.000000 0.040975
#
#
# Mechanical properties :
#
#
# Convention : Reuss Voigt Hill
#
# Bulk Modulus (GPa) = 60.70930 70.10808 65.40869
# Shear Modulus (GPa) = 24.69919 26.41358 25.55639
#
# Velocity S-wave (km/s) = 3.68318 3.80886 3.74654
# Velocity P-wave (km/s) = 7.17159 7.60588 7.39192
#
# Compressibility (1/GPa) = 0.01647194
#
# Stress axis : x y z
#
# Youngs Moduli (GPa) = 73.28039 49.06767 80.55847
#
# Poissons Ratio (x) = 0.28490 0.46689
# Poissons Ratio (y) = 0.42549 0.27243
# Poissons Ratio (z) = 0.42471 0.16594
#
# Static dielectric constant tensor:
#      x y z
#    x 3.498660 0.000000 0.000000 
#    y 0.000000 3.193590 0.000000 
#    z 0.000000 0.000000 3.514020 
# 
# 
# High freq. dielectric constant tensor:
#      x y z
#    x 1.704640 0.000000 0.000000 
#    y 0.000000 1.685500 0.000000 
#    z 0.000000 0.000000 1.719080 
# 
# From -- ./inp_files/27422.got.cif
#   From: 2010.03.12/outbox.cif.g09.slc.cpg/sg42_14_cif.got.tgz:27422.got - 2010.04.14 02:04:31.
