data_PCOD8186117
_publ_section_title
;
Structure prediction by ZEFSAII (Michael W. Deem and Ramdas Pophale) SiO2 
 PCOD8186117
Probable space group: F M M 2
;
_chemical_formula_sum "Si O2"
_cell_formula_units_Z 96
_cell_length_a 18.762799
_cell_length_b 8.738161
_cell_length_c 30.470061
_cell_angle_alpha 90.000000
_cell_angle_beta 90.000000
_cell_angle_gamma 90.000000
_cell_volume 4995.638364
_symmetry_space_group_name_H-M "F M M 2"
_symmetry_group_IT_number 42
_symmetry_cell_setting 'orthorhombic'
loop_
_space_group_symop_operation_xyz
x,y,z
-x,-y,z
-x,y,z
x,-y,z
x,1/2+y,1/2+z
-x,1/2-y,1/2+z
-x,1/2+y,1/2+z
x,1/2-y,1/2+z
1/2+x,y,1/2+z
1/2-x,-y,1/2+z
1/2-x,y,1/2+z
1/2+x,-y,1/2+z
1/2+x,1/2+y,z
1/2-x,1/2-y,z
1/2-x,1/2+y,z
1/2+x,1/2-y,z
loop_
_atom_site_type_symbol
_atom_site_label
_atom_site_fract_x
_atom_site_fract_y
_atom_site_fract_z
Si Si1 0.080044 0.818143 0.194160
Si Si2 0.174612 0.178791 0.866555
Si Si3 0.673066 0.318325 0.275618
Si Si4 0.918585 0.321415 0.038262
Si Si5 0.583308 0.172273 0.937944
Si Si6 0.327795 0.180237 0.612793
O O1 0.117725 0.762524 0.238756
O O2 0.124348 0.754827 0.152702
O O3 0.000000 0.750264 0.192550
O O4 0.077300 0.000000 0.192487
O O5 0.250000 0.250000 0.879694
O O6 0.144849 0.256382 0.822199
O O7 0.121001 0.207482 0.906311
O O8 0.183571 0.000000 0.858156
O O9 0.679143 0.500000 0.277398
O O10 0.750000 0.250000 0.264165
O O11 0.907755 0.500000 0.047995
O O12 0.865030 0.223417 0.067309
O O13 0.000000 0.273394 0.048483
O O14 0.899461 0.283686 0.988004
O O15 0.500000 0.182813 0.929136
O O16 0.610356 0.000000 0.928077
O O17 0.250000 0.250000 0.615974
O O18 0.320013 0.000000 0.615807
#
# Coordination Sequence:
#
# PCOD8186117 Si02
#       6
#    16  16  16  16  16  16
#     4   9  19  35  55  80 107 138 178 221 267 322
#     4  11  22  36  55  80 111 144 182 226 270 319
#     4  10  19  34  56  78 105 141 179 221 269 321
#     4   9  19  37  59  82 109 141 179 223 270 322
#     4   9  19  37  59  81 108 143 180 220 270 325
#     4  11  22  36  56  81 111 145 182 224 268 318
#
# _framework density 19.216764000000001
#
# number of rings (size 3 to 8) (size 9 to 14) (size 15 to 20)
#    0.000    2.167    0.000    5.500    0.000    3.333 
#    0.000    5.833    0.000    5.500    0.000    0.000 
#    0.000    0.000    0.000    0.000    0.000    0.000 
#
# Total GULP energy -297653.394817 kJ/mol
# GULP energy per Si atom -12402.224784 kJ/mol
# Density = 1.917303 g / cm^3
# Si number density = 19.216764 Si / 1000 Ang^3
#
#
#
# Elastic Constant Matrix: (Units=GPa)
#
#
# Indices 1 2 3 4 5 6 
#
# 1 127.6895 40.6888 87.8233 0.0000 0.0000 0.0000
# 2 40.6888 78.6388 43.1524 0.0000 0.0000 0.0000
# 3 87.8233 43.1524 138.1104 0.0000 0.0000 0.0000
# 4 0.0000 0.0000 0.0000 19.7051 0.0000 0.0000
# 5 0.0000 0.0000 0.0000 0.0000 42.2581 0.0000
# 6 0.0000 0.0000 0.0000 0.0000 0.0000 24.0843
#
#
#
# Elastic Compliance Matrix: (Units=1/GPa)
#
#
# Indices 1 2 3 4 5 6 
#
# 1 0.014461 -0.002941 -0.008277 0.000000 0.000000 0.000000
# 2 -0.002941 0.015946 -0.003112 0.000000 0.000000 0.000000
# 3 -0.008277 -0.003112 0.013476 0.000000 0.000000 0.000000
# 4 0.000000 0.000000 0.000000 0.050748 0.000000 0.000000
# 5 0.000000 0.000000 0.000000 0.000000 0.023664 0.000000
# 6 0.000000 0.000000 0.000000 0.000000 0.000000 0.041521
#
#
# Mechanical properties :
#
#
# Convention : Reuss Voigt Hill
#
# Bulk Modulus (GPa) = 65.68796 76.41864 71.05330
# Shear Modulus (GPa) = 25.83295 28.72779 27.28037
#
# Velocity S-wave (km/s) = 3.67044 3.87063 3.77186
# Velocity P-wave (km/s) = 7.22632 7.73490 7.48493
#
# Compressibility (1/GPa) = 0.01522349
#
# Stress axis : x y z
#
# Youngs Moduli (GPa) = 69.14944 62.71279 74.20374
#
# Poissons Ratio (x) = 0.18441 0.61420
# Poissons Ratio (y) = 0.20334 0.23095
# Poissons Ratio (z) = 0.57236 0.19518
#
# Static dielectric constant tensor:
#      x y z
#    x 3.518280 0.000000 0.000000 
#    y 0.000000 3.344450 0.000000 
#    z 0.000000 0.000000 3.637430 
# 
# 
# High freq. dielectric constant tensor:
#      x y z
#    x 1.747890 0.000000 0.000000 
#    y 0.000000 1.734980 0.000000 
#    z 0.000000 0.000000 1.760160 
# 
# From -- ./inp_files/32999.got.cif
#   From: 2010.03.12/outbox.cif.g09.slc.cpg/sg42_17_cif.got.tgz:32999.got - 2010.04.14 02:04:31.
