data_PCOD8186924
_publ_section_title
;
Structure prediction by ZEFSAII (Michael W. Deem and Ramdas Pophale) SiO2 
 PCOD8186924
Probable space group: F D D 2
;
_chemical_formula_sum "Si O2"
_cell_formula_units_Z 96
_cell_length_a 17.753606
_cell_length_b 10.287799
_cell_length_c 28.225853
_cell_angle_alpha 90.000000
_cell_angle_beta 90.000000
_cell_angle_gamma 90.000000
_cell_volume 5155.325882
_symmetry_space_group_name_H-M "F D D 2"
_symmetry_group_IT_number 43
_symmetry_cell_setting 'orthorhombic'
loop_
_space_group_symop_operation_xyz
x,y,z
-x,-y,z
1/4-x,1/4+y,1/4+z
1/4+x,1/4-y,1/4+z
x,1/2+y,1/2+z
-x,1/2-y,1/2+z
1/4-x,3/4+y,3/4+z
1/4+x,3/4-y,3/4+z
1/2+x,y,1/2+z
1/2-x,-y,1/2+z
3/4-x,1/4+y,3/4+z
3/4+x,1/4-y,3/4+z
1/2+x,1/2+y,z
1/2-x,1/2-y,z
3/4-x,3/4+y,1/4+z
3/4+x,3/4-y,1/4+z
loop_
_atom_site_type_symbol
_atom_site_label
_atom_site_fract_x
_atom_site_fract_y
_atom_site_fract_z
Si Si1 0.662817 0.095975 0.146710
Si Si2 0.840923 0.103835 0.140881
Si Si3 0.590356 0.238783 0.788752
Si Si4 0.910334 0.995619 0.741705
Si Si5 0.410758 0.004832 0.732357
Si Si6 0.911774 0.240865 0.294830
O O1 0.752455 0.089157 0.149253
O O2 0.635210 0.245300 0.145365
O O3 0.627057 0.017672 0.190239
O O4 0.634519 0.025225 0.098858
O O5 0.869499 0.043882 0.091326
O O6 0.883999 0.017559 0.178928
O O7 0.619493 0.376139 0.768619
O O8 0.500975 0.235956 0.791192
O O9 0.621832 0.128796 0.753451
O O10 0.882313 0.876866 0.774322
O O11 0.000000 0.000000 0.735013
O O12 0.378149 0.124057 0.763340
O O13 0.500000 0.000000 0.734442
#
# Coordination Sequence:
#
# PCOD8186924 Si02
#       6
#    16  16  16  16  16  16
#     4  10  19  34  57  82 104 136 183 222 259 313
#     4  10  19  34  57  81 104 139 182 220 259 313
#     4   9  19  33  53  78 106 141 177 212 260 321
#     4  10  20  35  54  81 111 138 174 220 267 315
#     4  10  18  33  55  78 103 139 179 213 257 314
#     4   9  17  33  56  76 104 143 177 211 258 322
#
# _framework density 18.62152
#
# number of rings (size 3 to 8) (size 9 to 14) (size 15 to 20)
#    0.000    2.333    3.333    0.000    0.000    1.333 
#    0.000    5.833    0.000    0.000    0.000    0.000 
#    0.000    0.000    0.000    0.000    0.000    0.000 
#
# Total GULP energy -297569.758740 kJ/mol
# GULP energy per Si atom -12398.739947 kJ/mol
# Density = 1.857914 g / cm^3
# Si number density = 18.621520 Si / 1000 Ang^3
#
#
#
# Elastic Constant Matrix: (Units=GPa)
#
#
# Indices 1 2 3 4 5 6 
#
# 1 12.9860 21.8175 20.6301 0.0000 0.0000 0.0000
# 2 21.8175 169.5771 98.5187 0.0000 0.0000 0.0000
# 3 20.6301 98.5187 180.1269 0.0000 0.0000 0.0000
# 4 0.0000 0.0000 0.0000 50.3996 0.0000 0.0000
# 5 0.0000 0.0000 0.0000 0.0000 32.8797 0.0000
# 6 0.0000 0.0000 0.0000 0.0000 0.0000 11.8047
#
#
#
# Elastic Compliance Matrix: (Units=1/GPa)
#
#
# Indices 1 2 3 4 5 6 
#
# 1 0.103476 -0.009422 -0.006698 0.000000 0.000000 0.000000
# 2 -0.009422 0.009501 -0.004118 0.000000 0.000000 0.000000
# 3 -0.006698 -0.004118 0.008571 0.000000 0.000000 0.000000
# 4 0.000000 0.000000 0.000000 0.019841 0.000000 0.000000
# 5 0.000000 0.000000 0.000000 0.000000 0.030414 0.000000
# 6 0.000000 0.000000 0.000000 0.000000 0.000000 0.084712
#
#
# Mechanical properties :
#
#
# Convention : Reuss Voigt Hill
#
# Bulk Modulus (GPa) = 12.33449 71.62473 41.97961
# Shear Modulus (GPa) = 15.43139 33.79837 24.61488
#
# Velocity S-wave (km/s) = 2.88181 4.26492 3.63967
# Velocity P-wave (km/s) = 4.20848 7.92463 6.34472
#
# Compressibility (1/GPa) = 0.08107349
#
# Stress axis : x y z
#
# Youngs Moduli (GPa) = 9.66407 105.24748 116.67415
#
# Poissons Ratio (x) = 0.99161 0.78149
# Poissons Ratio (y) = 0.09105 0.48042
# Poissons Ratio (z) = 0.06473 0.43337
#
# Static dielectric constant tensor:
#      x y z
#    x 2.917310 0.000000 0.000000 
#    y 0.000000 3.646750 0.000000 
#    z 0.000000 0.000000 3.582760 
# 
# 
# High freq. dielectric constant tensor:
#      x y z
#    x 1.674010 0.000000 0.000000 
#    y 0.000000 1.731360 0.000000 
#    z 0.000000 0.000000 1.738450 
# 
# From -- ./inp_files/17196.got.cif
#   From: 2010.06.25/outbox.cif.g09.slc.cpg/sg43_9_cif.got.tgz:17196.got - 2010.06.26 16:48:59.
