data_PCOD8186478
_publ_section_title
;
Structure prediction by ZEFSAII (Michael W. Deem and Ramdas Pophale) SiO2 
 PCOD8186478
Probable space group: F M M 2
;
_chemical_formula_sum "Si O2"
_cell_formula_units_Z 64
_cell_length_a 10.217933
_cell_length_b 14.481415
_cell_length_c 21.447669
_cell_angle_alpha 90.000000
_cell_angle_beta 90.000000
_cell_angle_gamma 90.000000
_cell_volume 3173.614332
_symmetry_space_group_name_H-M "F M M 2"
_symmetry_group_IT_number 42
_symmetry_cell_setting 'orthorhombic'
loop_
_space_group_symop_operation_xyz
x,y,z
-x,-y,z
-x,y,z
x,-y,z
x,1/2+y,1/2+z
-x,1/2-y,1/2+z
-x,1/2+y,1/2+z
x,1/2-y,1/2+z
1/2+x,y,1/2+z
1/2-x,-y,1/2+z
1/2-x,y,1/2+z
1/2+x,-y,1/2+z
1/2+x,1/2+y,z
1/2-x,1/2-y,z
1/2-x,1/2+y,z
1/2+x,1/2-y,z
loop_
_atom_site_type_symbol
_atom_site_label
_atom_site_fract_x
_atom_site_fract_y
_atom_site_fract_z
Si Si1 0.250000 0.250000 0.029431
Si Si2 0.000000 0.890337 0.331447
Si Si3 0.500000 0.609320 0.839494
Si Si4 0.000000 0.247911 0.943226
Si Si5 0.846219 0.891047 0.625776
Si Si6 0.259648 0.391297 0.760270
O O1 0.235290 0.341133 0.071684
O O2 0.125183 0.246268 0.986204
O O3 0.000000 0.836436 0.396992
O O4 0.122719 0.859830 0.289396
O O5 0.000000 0.000000 0.346309
O O6 0.500000 0.500000 0.846041
O O7 0.500000 0.651313 0.907686
O O8 0.626080 0.648681 0.803608
O O9 0.780830 0.855411 0.690127
O O10 0.000000 0.864595 0.624545
O O11 0.828234 0.000000 0.616482
O O12 0.273193 0.500000 0.759087
#
# Coordination Sequence:
#
# PCOD8186478 Si02
#       6
#     8   8   8   8  16  16
#     4  12  26  42  60  92 124 170 226 256 286 372
#     4  10  22  39  61  93 127 158 199 260 316 368
#     4  10  20  37  61  85 117 158 199 254 314 370
#     4  12  26  40  58  86 128 170 214 254 298 364
#     4  10  21  42  69  92 125 167 204 259 325 375
#     4   9  18  37  65  93 118 151 201 255 319 381
#
# _framework density 20.166281000000001
#
# number of rings (size 3 to 8) (size 9 to 14) (size 15 to 20)
#    0.000    1.750    2.500    1.500    0.000    5.000 
#    0.000    1.250    0.000    0.000    0.000    0.000 
#    0.000    0.000    0.000    0.000    0.000    0.000 
#
# Total GULP energy -198384.119886 kJ/mol
# GULP energy per Si atom -12399.007493 kJ/mol
# Density = 2.012038 g / cm^3
# Si number density = 20.166281 Si / 1000 Ang^3
#
#
#
# Elastic Constant Matrix: (Units=GPa)
#
#
# Indices 1 2 3 4 5 6 
#
# 1 184.1338 45.8654 101.1066 0.0000 0.0000 0.0000
# 2 45.8654 81.6252 61.3556 0.0000 0.0000 0.0000
# 3 101.1066 61.3556 185.8915 0.0000 0.0000 0.0000
# 4 0.0000 0.0000 0.0000 39.3626 0.0000 0.0000
# 5 0.0000 0.0000 0.0000 0.0000 49.2832 0.0000
# 6 0.0000 0.0000 0.0000 0.0000 0.0000 10.5392
#
#
#
# Elastic Compliance Matrix: (Units=1/GPa)
#
#
# Indices 1 2 3 4 5 6 
#
# 1 0.007899 -0.001608 -0.003766 0.000000 0.000000 0.000000
# 2 -0.001608 0.016621 -0.004611 0.000000 0.000000 0.000000
# 3 -0.003766 -0.004611 0.008950 0.000000 0.000000 0.000000
# 4 0.000000 0.000000 0.000000 0.025405 0.000000 0.000000
# 5 0.000000 0.000000 0.000000 0.000000 0.020291 0.000000
# 6 0.000000 0.000000 0.000000 0.000000 0.000000 0.094884
#
#
# Mechanical properties :
#
#
# Convention : Reuss Voigt Hill
#
# Bulk Modulus (GPa) = 74.07551 96.47841 85.27696
# Shear Modulus (GPa) = 25.18659 36.05853 30.62256
#
# Velocity S-wave (km/s) = 3.53788 4.23313 3.90102
# Velocity P-wave (km/s) = 7.31443 8.47572 7.91640
#
# Compressibility (1/GPa) = 0.01349974
#
# Stress axis : x y z
#
# Youngs Moduli (GPa) = 126.59830 60.16533 111.73717
#
# Poissons Ratio (x) = 0.09675 0.42075
# Poissons Ratio (y) = 0.20357 0.51525
# Poissons Ratio (z) = 0.47671 0.27744
#
# Static dielectric constant tensor:
#      x y z
#    x 3.906030 0.000000 0.000000 
#    y 0.000000 3.540820 0.000000 
#    z 0.000000 0.000000 3.864870 
# 
# 
# High freq. dielectric constant tensor:
#      x y z
#    x 1.798950 0.000000 0.000000 
#    y 0.000000 1.787090 0.000000 
#    z 0.000000 0.000000 1.795680 
# 
# From -- ./inp_files/18689.got.cif
#   From: 2010.03.12/outbox.cif.g09.slc.cpg/sg42_10_cif.got.tgz:18689.got - 2010.04.14 02:04:31.
