data_PCOD8186312
_publ_section_title
;
Structure prediction by ZEFSAII (Michael W. Deem and Ramdas Pophale) SiO2 
 PCOD8186312
Probable space group: F M M 2
;
_chemical_formula_sum "Si O2"
_cell_formula_units_Z 80
_cell_length_a 8.895774
_cell_length_b 15.715939
_cell_length_c 28.463531
_cell_angle_alpha 90.000000
_cell_angle_beta 90.000000
_cell_angle_gamma 90.000000
_cell_volume 3979.356519
_symmetry_space_group_name_H-M "F M M 2"
_symmetry_group_IT_number 42
_symmetry_cell_setting 'orthorhombic'
loop_
_space_group_symop_operation_xyz
x,y,z
-x,-y,z
-x,y,z
x,-y,z
x,1/2+y,1/2+z
-x,1/2-y,1/2+z
-x,1/2+y,1/2+z
x,1/2-y,1/2+z
1/2+x,y,1/2+z
1/2-x,-y,1/2+z
1/2-x,y,1/2+z
1/2+x,-y,1/2+z
1/2+x,1/2+y,z
1/2-x,1/2-y,z
1/2-x,1/2+y,z
1/2+x,1/2-y,z
loop_
_atom_site_type_symbol
_atom_site_label
_atom_site_fract_x
_atom_site_fract_y
_atom_site_fract_z
Si Si1 0.333059 0.405079 0.588850
Si Si2 0.321094 0.500000 0.940335
Si Si3 0.677875 0.500000 0.340052
Si Si4 0.321155 0.161877 0.990563
Si Si5 0.823309 0.161899 0.278526
Si Si6 0.824072 0.836681 0.172971
O O1 0.500000 0.378744 0.605471
O O2 0.332081 0.500000 0.568096
O O3 0.280507 0.345672 0.545868
O O4 0.225040 0.404887 0.634160
O O5 0.500000 0.500000 0.946713
O O6 0.277842 0.500000 0.885984
O O7 0.252718 0.415317 0.962671
O O8 0.500000 0.500000 0.351320
O O9 0.725159 0.416259 0.311035
O O10 0.500000 0.160800 0.982063
O O11 0.250000 0.250000 0.971921
O O12 0.750000 0.250000 0.296334
O O13 0.768789 0.139503 0.225455
O O14 0.000000 0.175737 0.279822
O O15 0.750000 0.750000 0.155526
O O16 0.000000 0.826926 0.172419
#
# Coordination Sequence:
#
# PCOD8186312 Si02
#       6
#    16   8   8  16  16  16
#     4  10  21  37  57  86 123 161 201 246 296 351
#     4  12  26  44  65  94 123 155 204 255 309 374
#     4  10  22  42  65  86 117 159 196 249 313 364
#     4  11  23  43  67  92 124 163 204 252 306 364
#     4   9  20  38  61  87 120 158 201 246 297 355
#     4  10  20  34  55  84 119 159 202 245 290 349
#
# _framework density 20.103752
#
# number of rings (size 3 to 8) (size 9 to 14) (size 15 to 20)
#    0.000    1.800    1.000    2.700    1.400    6.000 
#    0.000    2.000    0.000    0.000    0.000    0.000 
#    0.000    0.000    0.000    0.000    0.000    0.000 
#
# Total GULP energy -247989.060478 kJ/mol
# GULP energy per Si atom -12399.453024 kJ/mol
# Density = 2.005800 g / cm^3
# Si number density = 20.103752 Si / 1000 Ang^3
#
#
#
# Elastic Constant Matrix: (Units=GPa)
#
#
# Indices 1 2 3 4 5 6 
#
# 1 87.9502 55.7091 55.9603 0.0000 0.0000 0.0000
# 2 55.7091 152.2306 69.5961 0.0000 0.0000 0.0000
# 3 55.9603 69.5961 114.3832 0.0000 0.0000 0.0000
# 4 0.0000 0.0000 0.0000 21.0771 0.0000 0.0000
# 5 0.0000 0.0000 0.0000 0.0000 33.0492 0.0000
# 6 0.0000 0.0000 0.0000 0.0000 0.0000 32.4719
#
#
#
# Elastic Compliance Matrix: (Units=1/GPa)
#
#
# Indices 1 2 3 4 5 6 
#
# 1 0.017761 -0.003501 -0.006559 0.000000 0.000000 0.000000
# 2 -0.003501 0.009791 -0.004244 0.000000 0.000000 0.000000
# 3 -0.006559 -0.004244 0.014534 0.000000 0.000000 0.000000
# 4 0.000000 0.000000 0.000000 0.047445 0.000000 0.000000
# 5 0.000000 0.000000 0.000000 0.000000 0.030258 0.000000
# 6 0.000000 0.000000 0.000000 0.000000 0.000000 0.030796
#
#
# Mechanical properties :
#
#
# Convention : Reuss Voigt Hill
#
# Bulk Modulus (GPa) = 74.20191 79.67724 76.93957
# Shear Modulus (GPa) = 27.22050 28.87289 28.04669
#
# Velocity S-wave (km/s) = 3.68367 3.79383 3.73915
# Velocity P-wave (km/s) = 7.42173 7.67528 7.54957
#
# Compressibility (1/GPa) = 0.01347674
#
# Stress axis : x y z
#
# Youngs Moduli (GPa) = 56.30279 102.13956 68.80467
#
# Poissons Ratio (x) = 0.35759 0.45130
# Poissons Ratio (y) = 0.19712 0.29202
# Poissons Ratio (z) = 0.36930 0.43350
#
# Static dielectric constant tensor:
#      x y z
#    x 3.603390 0.000000 0.000000 
#    y 0.000000 3.699000 0.000000 
#    z 0.000000 0.000000 3.686300 
# 
# 
# High freq. dielectric constant tensor:
#      x y z
#    x 1.781720 0.000000 0.000000 
#    y 0.000000 1.791990 0.000000 
#    z 0.000000 0.000000 1.784170 
# 
# From -- ./inp_files/31286.got.cif
#   From: 2010.03.12/outbox.cif.g09.slc.cpg/sg42_16_cif.got.tgz:31286.got - 2010.04.14 02:04:31.
