data_PCOD8186146
_publ_section_title
;
Structure prediction by ZEFSAII (Michael W. Deem and Ramdas Pophale) SiO2 
 PCOD8186146
Probable space group: F M M 2
;
_chemical_formula_sum "Si O2"
_cell_formula_units_Z 88
_cell_length_a 12.272115
_cell_length_b 18.254095
_cell_length_c 19.934308
_cell_angle_alpha 90.000000
_cell_angle_beta 90.000000
_cell_angle_gamma 90.000000
_cell_volume 4465.610979
_symmetry_space_group_name_H-M "F M M 2"
_symmetry_group_IT_number 42
_symmetry_cell_setting 'orthorhombic'
loop_
_space_group_symop_operation_xyz
x,y,z
-x,-y,z
-x,y,z
x,-y,z
x,1/2+y,1/2+z
-x,1/2-y,1/2+z
-x,1/2+y,1/2+z
x,1/2-y,1/2+z
1/2+x,y,1/2+z
1/2-x,-y,1/2+z
1/2-x,y,1/2+z
1/2+x,-y,1/2+z
1/2+x,1/2+y,z
1/2-x,1/2-y,z
1/2-x,1/2+y,z
1/2+x,1/2-y,z
loop_
_atom_site_type_symbol
_atom_site_label
_atom_site_fract_x
_atom_site_fract_y
_atom_site_fract_z
Si Si1 0.235261 0.667231 0.375000
Si Si2 0.623486 0.586838 0.483682
Si Si3 0.786591 0.413131 0.595027
Si Si4 0.774114 0.164948 0.723154
Si Si5 0.000000 0.888305 0.882666
Si Si6 0.000000 0.916581 0.735433
Si Si7 0.500000 0.420635 0.029437
O O1 0.250000 0.750000 0.396256
O O2 0.308339 0.615201 0.420504
O O3 0.269171 0.649567 0.298142
O O4 0.106840 0.660703 0.384579
O O5 0.500000 0.617473 0.482463
O O6 0.624617 0.500000 0.477858
O O7 0.679389 0.612242 0.553521
O O8 0.787773 0.500000 0.600056
O O9 0.794394 0.380588 0.669306
O O10 0.890404 0.380503 0.554263
O O11 0.750000 0.250000 0.706567
O O12 0.897822 0.134543 0.715106
O O13 0.000000 0.935464 0.814699
O O14 0.000000 0.935899 0.949903
O O15 0.000000 0.000000 0.701962
O O16 0.500000 0.500000 0.064349
#
# Coordination Sequence:
#
# PCOD8186146 Si02
#       7
#    16  16  16  16   8   8   8
#     4  10  22  39  60  87 120 158 199 248 302 363
#     4  10  22  39  61  89 120 158 200 250 307 361
#     4  10  21  38  60  86 118 156 203 251 305 368
#     4  10  23  41  58  88 124 162 201 254 313 363
#     4  10  19  36  60  90 115 152 201 257 306 346
#     4  10  21  37  67  95 114 160 220 264 302 361
#     4  10  19  35  57  83 115 148 187 249 308 359
#
# _framework density 19.706150999999998
#
# number of rings (size 3 to 8) (size 9 to 14) (size 15 to 20)
#    0.000    2.000    1.818    0.818    2.545    5.091 
#    3.273    0.000    0.000    0.000    0.000    0.000 
#    0.000    0.000    0.000    0.000    0.000    0.000 
#
# Total GULP energy -272568.922891 kJ/mol
# GULP energy per Si atom -12389.496495 kJ/mol
# Density = 1.966130 g / cm^3
# Si number density = 19.706151 Si / 1000 Ang^3
#
#
#
# Elastic Constant Matrix: (Units=GPa)
#
#
# Indices 1 2 3 4 5 6 
#
# 1 133.5531 46.8219 42.3462 0.0000 0.0000 0.0000
# 2 46.8219 67.1655 24.5739 0.0000 0.0000 0.0000
# 3 42.3462 24.5739 111.0140 0.0000 0.0000 0.0000
# 4 0.0000 0.0000 0.0000 -3.6538 0.0000 0.0000
# 5 0.0000 0.0000 0.0000 0.0000 26.2493 0.0000
# 6 0.0000 0.0000 0.0000 0.0000 0.0000 9.8291
#
#
#
# Elastic Compliance Matrix: (Units=1/GPa)
#
#
# Indices 1 2 3 4 5 6 
#
# 1 0.010562 -0.006408 -0.002610 0.000000 0.000000 0.000000
# 2 -0.006408 0.020088 -0.002002 0.000000 0.000000 0.000000
# 3 -0.002610 -0.002002 0.010447 0.000000 0.000000 0.000000
# 4 0.000000 0.000000 0.000000 -0.273685 0.000000 0.000000
# 5 0.000000 0.000000 0.000000 0.000000 0.038096 0.000000
# 6 0.000000 0.000000 0.000000 0.000000 0.000000 0.101739
#
#
# Mechanical properties :
#
#
# Convention : Reuss Voigt Hill
#
# Bulk Modulus (GPa) = 52.47778 59.91295 56.19537
# Shear Modulus (GPa) = -77.68817 19.68428 -29.00194
#
# Velocity S-wave (km/s) = -6.28561 3.16395 -3.84046
# Velocity P-wave (km/s) = 5.09809 6.61941 2.98547
#
# Compressibility (1/GPa) = 0.01905568
#
# Stress axis : x y z
#
# Youngs Moduli (GPa) = 94.68085 49.78067 95.72247
#
# Poissons Ratio (x) = 0.31898 0.24987
# Poissons Ratio (y) = 0.60669 0.19168
# Poissons Ratio (z) = 0.24715 0.09968
#
# Static dielectric constant tensor:
#      x y z
#    x 3.896100 0.000000 0.000000 
#    y 0.000000 3.404470 0.000000 
#    z 0.000000 0.000000 3.719980 
# 
# 
# High freq. dielectric constant tensor:
#      x y z
#    x 1.773950 0.000000 0.000000 
#    y 0.000000 1.749790 0.000000 
#    z 0.000000 0.000000 1.776450 
# 
# From -- ./inp_files/21557.got.cif
#   From: 2010.03.12/outbox.cif.g09.slc.cpg/sg42_11_cif.got.tgz:21557.got - 2010.04.14 02:04:31.
