data_PCOD8186034
_publ_section_title
;
Structure prediction by ZEFSAII (Michael W. Deem and Ramdas Pophale) SiO2 
 PCOD8186034
Probable space group: F M M 2
;
_chemical_formula_sum "Si O2"
_cell_formula_units_Z 80
_cell_length_a 15.289784
_cell_length_b 17.583458
_cell_length_c 18.261470
_cell_angle_alpha 90.000000
_cell_angle_beta 90.000000
_cell_angle_gamma 90.000000
_cell_volume 4909.546443
_symmetry_space_group_name_H-M "F M M 2"
_symmetry_group_IT_number 42
_symmetry_cell_setting 'orthorhombic'
loop_
_space_group_symop_operation_xyz
x,y,z
-x,-y,z
-x,y,z
x,-y,z
x,1/2+y,1/2+z
-x,1/2-y,1/2+z
-x,1/2+y,1/2+z
x,1/2-y,1/2+z
1/2+x,y,1/2+z
1/2-x,-y,1/2+z
1/2-x,y,1/2+z
1/2+x,-y,1/2+z
1/2+x,1/2+y,z
1/2-x,1/2-y,z
1/2-x,1/2+y,z
1/2+x,1/2-y,z
loop_
_atom_site_type_symbol
_atom_site_label
_atom_site_fract_x
_atom_site_fract_y
_atom_site_fract_z
Si Si1 0.743717 0.914155 0.610880
Si Si2 0.900350 0.696557 0.595245
Si Si3 0.900610 0.642446 0.025504
Si Si4 0.693407 0.820017 0.737824
Si Si5 0.100880 0.912643 0.364071
O O1 0.666572 0.868842 0.567088
O O2 0.835683 0.912314 0.569190
O O3 0.755647 0.877069 0.691370
O O4 0.711772 0.000000 0.619252
O O5 0.880825 0.770783 0.547044
O O6 0.881305 0.711988 0.681855
O O7 0.000000 0.669253 0.585181
O O8 0.883920 0.630826 0.939941
O O9 0.000000 0.619759 0.046207
O O10 0.750000 0.750000 0.768963
O O11 0.654141 0.866514 0.804326
O O12 0.000000 0.911411 0.341077
O O13 0.133800 0.000000 0.369459
#
# Coordination Sequence:
#
# PCOD8186034 Si02
#       5
#    16  16  16  16  16
#     4  10  19  32  51  77 108 139 178 221 265 318
#     4   9  18  33  53  75 105 141 178 218 264 319
#     4  10  19  35  55  74 108 145 179 220 261 317
#     4  10  19  34  50  76 108 140 169 214 270 326
#     4  10  21  35  54  82 108 137 180 227 274 313
#
# _framework density 16.294784
#
# number of rings (size 3 to 8) (size 9 to 14) (size 15 to 20)
#    1.200    1.000    2.000    2.400    0.000    3.200 
#    0.000    0.000    0.000    0.000    0.000    0.000 
#    0.000    4.800    0.000    0.000    0.000    0.000 
#
# Total GULP energy -247855.880603 kJ/mol
# GULP energy per Si atom -12392.794030 kJ/mol
# Density = 1.625770 g / cm^3
# Si number density = 16.294784 Si / 1000 Ang^3
#
#
#
# Elastic Constant Matrix: (Units=GPa)
#
#
# Indices 1 2 3 4 5 6 
#
# 1 82.6822 50.2420 43.4856 0.0000 0.0000 0.0000
# 2 50.2420 126.2049 52.3571 0.0000 0.0000 0.0000
# 3 43.4856 52.3571 93.6248 0.0000 0.0000 0.0000
# 4 0.0000 0.0000 0.0000 19.0515 0.0000 0.0000
# 5 0.0000 0.0000 0.0000 0.0000 25.1009 0.0000
# 6 0.0000 0.0000 0.0000 0.0000 0.0000 22.2067
#
#
#
# Elastic Compliance Matrix: (Units=1/GPa)
#
#
# Indices 1 2 3 4 5 6 
#
# 1 0.018001 -0.004815 -0.005669 0.000000 0.000000 0.000000
# 2 -0.004815 0.011605 -0.004253 0.000000 0.000000 0.000000
# 3 -0.005669 -0.004253 0.015692 0.000000 0.000000 0.000000
# 4 0.000000 0.000000 0.000000 0.052489 0.000000 0.000000
# 5 0.000000 0.000000 0.000000 0.000000 0.039839 0.000000
# 6 0.000000 0.000000 0.000000 0.000000 0.000000 0.045031
#
#
# Mechanical properties :
#
#
# Convention : Reuss Voigt Hill
#
# Bulk Modulus (GPa) = 63.18989 66.07571 64.63280
# Shear Modulus (GPa) = 22.99830 23.70031 23.34931
#
# Velocity S-wave (km/s) = 3.76092 3.81789 3.78951
# Velocity P-wave (km/s) = 7.59755 7.75070 7.67451
#
# Compressibility (1/GPa) = 0.01582532
#
# Stress axis : x y z
#
# Youngs Moduli (GPa) = 55.55093 86.17019 63.72493
#
# Poissons Ratio (x) = 0.41488 0.36123
# Poissons Ratio (y) = 0.26746 0.27105
# Poissons Ratio (z) = 0.31490 0.36652
#
# Static dielectric constant tensor:
#      x y z
#    x 3.055600 0.000000 0.000000 
#    y 0.000000 3.029590 0.000000 
#    z 0.000000 0.000000 2.888560 
# 
# 
# High freq. dielectric constant tensor:
#      x y z
#    x 1.622490 0.000000 0.000000 
#    y 0.000000 1.630870 0.000000 
#    z 0.000000 0.000000 1.609580 
# 
# From -- ./inp_files/19815.got.cif
#   From: 2010.03.12/outbox.cif.g09.slc.cpg/sg42_10_cif.got.tgz:19815.got - 2010.04.14 02:04:31.
