data_PCOD8186573
_publ_section_title
;
Structure prediction by ZEFSAII (Michael W. Deem and Ramdas Pophale) SiO2 
 PCOD8186573
Probable space group: F M M 2
;
_chemical_formula_sum "Si O2"
_cell_formula_units_Z 96
_cell_length_a 8.717775
_cell_length_b 30.129086
_cell_length_c 19.052514
_cell_angle_alpha 90.000000
_cell_angle_beta 90.000000
_cell_angle_gamma 90.000000
_cell_volume 5004.306515
_symmetry_space_group_name_H-M "F M M 2"
_symmetry_group_IT_number 42
_symmetry_cell_setting 'orthorhombic'
loop_
_space_group_symop_operation_xyz
x,y,z
-x,-y,z
-x,y,z
x,-y,z
x,1/2+y,1/2+z
-x,1/2-y,1/2+z
-x,1/2+y,1/2+z
x,1/2-y,1/2+z
1/2+x,y,1/2+z
1/2-x,-y,1/2+z
1/2-x,y,1/2+z
1/2+x,-y,1/2+z
1/2+x,1/2+y,z
1/2-x,1/2-y,z
1/2-x,1/2+y,z
1/2+x,1/2-y,z
loop_
_atom_site_type_symbol
_atom_site_label
_atom_site_fract_x
_atom_site_fract_y
_atom_site_fract_z
Si Si1 0.318920 0.702432 0.745860
Si Si2 0.318862 0.702421 0.392973
Si Si3 0.320775 0.870506 0.650690
Si Si4 0.179487 0.629397 0.488091
Si Si5 0.680567 0.049528 0.392445
Si Si6 0.819824 0.549650 0.746799
O O1 0.500000 0.706693 0.753596
O O2 0.250000 0.750000 0.725795
O O3 0.249827 0.685032 0.819372
O O4 0.277152 0.668755 0.684291
O O5 0.500000 0.706560 0.385484
O O6 0.250000 0.750000 0.412864
O O7 0.276339 0.668918 0.454642
O O8 0.500000 0.860847 0.662983
O O9 0.278708 0.873285 0.569407
O O10 0.271035 0.917349 0.684650
O O11 0.231371 0.582781 0.453942
O O12 0.000000 0.638511 0.475565
O O13 0.500000 0.048629 0.384673
O O14 0.747557 0.067022 0.319122
O O15 0.743043 0.000000 0.409974
O O16 0.760254 0.500000 0.728321
O O17 0.000000 0.549477 0.757323
#
# Coordination Sequence:
#
# PCOD8186573 Si02
#       6
#    16  16  16  16  16  16
#     4  11  22  38  60  83 108 139 179 224 270 321
#     4  11  22  38  60  83 108 139 179 224 270 321
#     4  10  21  36  54  79 112 147 182 222 269 320
#     4  10  21  36  54  79 112 147 182 222 269 320
#     4   9  18  33  54  79 106 140 182 225 268 315
#     4   9  18  33  54  79 106 140 182 225 268 315
#
# _framework density 19.183478000000001
#
# number of rings (size 3 to 8) (size 9 to 14) (size 15 to 20)
#    0.000    2.000    0.000    5.000    0.000    6.000 
#    0.000    3.333    0.000    0.000    0.000    7.000 
#    0.000    0.000    0.000    0.000    0.000    0.000 
#
# Total GULP energy -297674.715751 kJ/mol
# GULP energy per Si atom -12403.113156 kJ/mol
# Density = 1.913982 g / cm^3
# Si number density = 19.183478 Si / 1000 Ang^3
#
#
#
# Elastic Constant Matrix: (Units=GPa)
#
#
# Indices 1 2 3 4 5 6 
#
# 1 99.1211 53.6318 61.9669 0.0000 0.0000 0.0000
# 2 53.6318 123.8316 93.0152 0.0000 0.0000 0.0000
# 3 61.9669 93.0152 158.3268 0.0000 0.0000 0.0000
# 4 0.0000 0.0000 0.0000 -101.2436 0.0000 0.0000
# 5 0.0000 0.0000 0.0000 0.0000 29.0686 0.0000
# 6 0.0000 0.0000 0.0000 0.0000 0.0000 26.5132
#
#
#
# Elastic Compliance Matrix: (Units=1/GPa)
#
#
# Indices 1 2 3 4 5 6 
#
# 1 0.014169 -0.003528 -0.003473 0.000000 0.000000 0.000000
# 2 -0.003528 0.015332 -0.007627 0.000000 0.000000 0.000000
# 3 -0.003473 -0.007627 0.012156 0.000000 0.000000 0.000000
# 4 0.000000 0.000000 0.000000 -0.009877 0.000000 0.000000
# 5 0.000000 0.000000 0.000000 0.000000 0.034401 0.000000
# 6 0.000000 0.000000 0.000000 0.000000 0.000000 0.037717
#
#
# Mechanical properties :
#
#
# Convention : Reuss Voigt Hill
#
# Bulk Modulus (GPa) = 80.63325 88.72303 84.67814
# Shear Modulus (GPa) = 36.42015 2.37868 19.39942
#
# Velocity S-wave (km/s) = 4.36192 1.11474 3.18348
# Velocity P-wave (km/s) = 8.21538 6.92871 7.59932
#
# Compressibility (1/GPa) = 0.01240183
#
# Stress axis : x y z
#
# Youngs Moduli (GPa) = 70.57866 65.22235 82.26482
#
# Poissons Ratio (x) = 0.23010 0.28569
# Poissons Ratio (y) = 0.24899 0.62741
# Poissons Ratio (z) = 0.24511 0.49743
#
# Static dielectric constant tensor:
#      x y z
#    x 3.434020 0.000000 0.000000 
#    y 0.000000 3.788680 0.000000 
#    z 0.000000 0.000000 3.131410 
# 
# 
# High freq. dielectric constant tensor:
#      x y z
#    x 1.741230 0.000000 0.000000 
#    y 0.000000 1.758890 0.000000 
#    z 0.000000 0.000000 1.741080 
# 
# From -- ./inp_files/4191.got.cif
#   From: 2010.03.12/outbox.cif.g09.slc.cpg/sg42_3_cif.got.tgz:4191.got - 2010.04.14 02:04:31.
