data_PCOD8186970
_publ_section_title
;
Structure prediction by ZEFSAII (Michael W. Deem and Ramdas Pophale) SiO2 
 PCOD8186970
Probable space group: F D D 2
;
_chemical_formula_sum "Si O2"
_cell_formula_units_Z 88
_cell_length_a 13.145593
_cell_length_b 22.829853
_cell_length_c 15.013729
_cell_angle_alpha 90.000000
_cell_angle_beta 90.000000
_cell_angle_gamma 90.000000
_cell_volume 4505.799574
_symmetry_space_group_name_H-M "F D D 2"
_symmetry_group_IT_number 43
_symmetry_cell_setting 'orthorhombic'
loop_
_space_group_symop_operation_xyz
x,y,z
-x,-y,z
1/4-x,1/4+y,1/4+z
1/4+x,1/4-y,1/4+z
x,1/2+y,1/2+z
-x,1/2-y,1/2+z
1/4-x,3/4+y,3/4+z
1/4+x,3/4-y,3/4+z
1/2+x,y,1/2+z
1/2-x,-y,1/2+z
3/4-x,1/4+y,3/4+z
3/4+x,1/4-y,3/4+z
1/2+x,1/2+y,z
1/2-x,1/2-y,z
3/4-x,3/4+y,1/4+z
3/4+x,3/4-y,1/4+z
loop_
_atom_site_type_symbol
_atom_site_label
_atom_site_fract_x
_atom_site_fract_y
_atom_site_fract_z
Si Si1 0.423879 0.896041 0.451040
Si Si2 0.350286 0.220096 0.632701
Si Si3 0.404842 0.095026 0.589326
Si Si4 0.563661 0.734449 0.203748
Si Si5 0.953245 0.560276 0.298833
Si Si6 0.250000 0.250000 0.463397
O O1 0.517860 0.881305 0.514870
O O2 0.340306 0.845036 0.463723
O O3 0.460360 0.900359 0.348386
O O4 0.375750 0.957889 0.480007
O O5 0.250000 0.250000 0.678092
O O6 0.354699 0.149277 0.642974
O O7 0.447885 0.249491 0.678937
O O8 0.346552 0.233675 0.526504
O O9 0.316869 0.057253 0.540792
O O10 0.469964 0.056245 0.656904
O O11 0.615132 0.702223 0.120312
O O12 0.000000 0.500000 0.261877
#
# Coordination Sequence:
#
# PCOD8186970 Si02
#       6
#    16  16  16  16  16   8
#     4  10  19  32  61  87 115 148 194 247 295 340
#     4  10  23  35  56  88 127 156 192 248 309 348
#     4  11  18  36  62  91 113 150 212 250 284 350
#     4  10  19  35  57  88 121 148 191 253 294 344
#     4   9  19  33  55  88 114 148 191 245 293 341
#     4  10  22  36  60  96 108 154 210 236 294 350
#
# _framework density 19.530384999999999
#
# number of rings (size 3 to 8) (size 9 to 14) (size 15 to 20)
#    0.545    1.455    3.636    2.182    2.545    0.000 
#    0.000    3.636    0.000    0.000    0.000    0.000 
#    0.000    0.000    0.000    0.000    0.000    0.000 
#
# Total GULP energy -272674.485181 kJ/mol
# GULP energy per Si atom -12394.294781 kJ/mol
# Density = 1.948593 g / cm^3
# Si number density = 19.530385 Si / 1000 Ang^3
#
#
#
# Elastic Constant Matrix: (Units=GPa)
#
#
# Indices 1 2 3 4 5 6 
#
# 1 112.9736 45.2501 31.0071 0.0000 0.0000 0.0000
# 2 45.2501 101.0815 19.5136 0.0000 0.0000 0.0000
# 3 31.0071 19.5136 37.9822 0.0000 0.0000 0.0000
# 4 0.0000 0.0000 0.0000 14.2153 0.0000 0.0000
# 5 0.0000 0.0000 0.0000 0.0000 26.1928 0.0000
# 6 0.0000 0.0000 0.0000 0.0000 0.0000 39.1679
#
#
#
# Elastic Compliance Matrix: (Units=1/GPa)
#
#
# Indices 1 2 3 4 5 6 
#
# 1 0.012785 -0.004117 -0.008322 0.000000 0.000000 0.000000
# 2 -0.004117 0.012308 -0.002963 0.000000 0.000000 0.000000
# 3 -0.008322 -0.002963 0.034644 0.000000 0.000000 0.000000
# 4 0.000000 0.000000 0.000000 0.070347 0.000000 0.000000
# 5 0.000000 0.000000 0.000000 0.000000 0.038178 0.000000
# 6 0.000000 0.000000 0.000000 0.000000 0.000000 0.025531
#
#
# Mechanical properties :
#
#
# Convention : Reuss Voigt Hill
#
# Bulk Modulus (GPa) = 34.56135 49.28654 41.92394
# Shear Modulus (GPa) = 21.34572 26.33295 23.83933
#
# Velocity S-wave (km/s) = 3.30956 3.67591 3.49754
# Velocity P-wave (km/s) = 5.68673 6.58081 6.15004
#
# Compressibility (1/GPa) = 0.02893406
#
# Stress axis : x y z
#
# Youngs Moduli (GPa) = 78.21959 81.24959 28.86522
#
# Poissons Ratio (x) = 0.33447 0.24021
# Poissons Ratio (y) = 0.32200 0.08551
# Poissons Ratio (z) = 0.65093 0.24071
#
# Static dielectric constant tensor:
#      x y z
#    x 3.519800 0.000000 0.000000 
#    y 0.000000 3.595360 0.000000 
#    z 0.000000 0.000000 3.225480 
# 
# 
# High freq. dielectric constant tensor:
#      x y z
#    x 1.747310 0.000000 0.000000 
#    y 0.000000 1.765000 0.000000 
#    z 0.000000 0.000000 1.721460 
# 
# From -- ./inp_files/9667.got.cif
#   From: 2010.06.25/outbox.cif.g09.slc.cpg/sg43_5_cif.got.tgz:9667.got - 2010.06.26 16:48:59.
