data_PCOD8186902
_publ_section_title
;
Structure prediction by ZEFSAII (Michael W. Deem and Ramdas Pophale) SiO2 
 PCOD8186902
Probable space group: F D D 2
;
_chemical_formula_sum "Si O2"
_cell_formula_units_Z 72
_cell_length_a 25.537256
_cell_length_b 16.332620
_cell_length_c 10.028556
_cell_angle_alpha 90.000000
_cell_angle_beta 90.000000
_cell_angle_gamma 90.000000
_cell_volume 4182.813411
_symmetry_space_group_name_H-M "F D D 2"
_symmetry_group_IT_number 43
_symmetry_cell_setting 'orthorhombic'
loop_
_space_group_symop_operation_xyz
x,y,z
-x,-y,z
1/4-x,1/4+y,1/4+z
1/4+x,1/4-y,1/4+z
x,1/2+y,1/2+z
-x,1/2-y,1/2+z
1/4-x,3/4+y,3/4+z
1/4+x,3/4-y,3/4+z
1/2+x,y,1/2+z
1/2-x,-y,1/2+z
3/4-x,1/4+y,3/4+z
3/4+x,1/4-y,3/4+z
1/2+x,1/2+y,z
1/2-x,1/2-y,z
3/4-x,3/4+y,1/4+z
3/4+x,3/4-y,1/4+z
loop_
_atom_site_type_symbol
_atom_site_label
_atom_site_fract_x
_atom_site_fract_y
_atom_site_fract_z
Si Si1 0.000000 0.500000 0.141150
Si Si2 0.616305 0.403037 0.343412
Si Si3 0.817344 0.191131 0.160160
Si Si4 0.977374 0.327186 0.202626
Si Si5 0.265517 0.437719 0.659705
O O1 0.996616 0.582890 0.229713
O O2 0.050642 0.510287 0.045572
O O3 0.636097 0.370716 0.200542
O O4 0.588637 0.490255 0.309637
O O5 0.664258 0.416036 0.446835
O O6 0.576057 0.337877 0.406314
O O7 0.768829 0.138837 0.101705
O O8 0.995084 0.267656 0.320596
O O9 0.998037 0.292834 0.060536
#
# Coordination Sequence:
#
# PCOD8186902 Si02
#       5
#     8  16  16  16  16
#     4   8  16  30  50  76  96 134 174 210 244 314
#     4  10  16  30  54  77 100 134 185 208 254 316
#     4  10  17  29  54  76  97 140 178 215 248 315
#     4  10  20  32  59  77 105 139 178 219 267 309
#     4  10  19  32  55  80 107 134 178 220 260 315
#
# _framework density 17.213294999999999
#
# number of rings (size 3 to 8) (size 9 to 14) (size 15 to 20)
#    0.000    2.667    6.667    0.000    0.000    0.000 
#    0.000    0.000   34.222    0.000    0.000    0.000 
#    0.000    0.000    0.000    0.000    0.000    0.000 
#
# Total GULP energy -223009.412968 kJ/mol
# GULP energy per Si atom -12389.411832 kJ/mol
# Density = 1.717412 g / cm^3
# Si number density = 17.213295 Si / 1000 Ang^3
#
#
#
# Elastic Constant Matrix: (Units=GPa)
#
#
# Indices 1 2 3 4 5 6 
#
# 1 93.0821 40.8745 27.7447 0.0000 0.0000 0.0000
# 2 40.8745 138.3392 48.7710 0.0000 0.0000 0.0000
# 3 27.7447 48.7710 56.6852 0.0000 0.0000 0.0000
# 4 0.0000 0.0000 0.0000 31.7551 0.0000 0.0000
# 5 0.0000 0.0000 0.0000 0.0000 14.8368 0.0000
# 6 0.0000 0.0000 0.0000 0.0000 0.0000 25.3000
#
#
#
# Elastic Compliance Matrix: (Units=1/GPa)
#
#
# Indices 1 2 3 4 5 6 
#
# 1 0.013071 -0.002306 -0.004414 0.000000 0.000000 0.000000
# 2 -0.002306 0.010783 -0.008149 0.000000 0.000000 0.000000
# 3 -0.004414 -0.008149 0.026812 0.000000 0.000000 0.000000
# 4 0.000000 0.000000 0.000000 0.031491 0.000000 0.000000
# 5 0.000000 0.000000 0.000000 0.000000 0.067400 0.000000
# 6 0.000000 0.000000 0.000000 0.000000 0.000000 0.039526
#
#
# Mechanical properties :
#
#
# Convention : Reuss Voigt Hill
#
# Bulk Modulus (GPa) = 47.77856 58.09854 52.93855
# Shear Modulus (GPa) = 22.14380 25.75946 23.95163
#
# Velocity S-wave (km/s) = 3.59058 3.87264 3.73428
# Velocity P-wave (km/s) = 6.70871 7.33634 7.02953
#
# Compressibility (1/GPa) = 0.02092989
#
# Stress axis : x y z
#
# Youngs Moduli (GPa) = 76.50253 92.74087 37.29610
#
# Poissons Ratio (x) = 0.21387 0.16461
# Poissons Ratio (y) = 0.17642 0.30391
# Poissons Ratio (z) = 0.33766 0.75570
#
# Static dielectric constant tensor:
#      x y z
#    x 3.366370 0.000000 0.000000 
#    y 0.000000 3.595830 0.000000 
#    z 0.000000 0.000000 2.682220 
# 
# 
# High freq. dielectric constant tensor:
#      x y z
#    x 1.675900 0.000000 0.000000 
#    y 0.000000 1.680340 0.000000 
#    z 0.000000 0.000000 1.593570 
# 
# From -- ./inp_files/2723.got.cif
#   From: 2010.06.25/outbox.cif.g09.slc.cpg/sg43_2_cif.got.tgz:2723.got - 2010.06.26 16:48:59.
