data_PCOD8186981
_publ_section_title
;
Structure prediction by ZEFSAII (Michael W. Deem and Ramdas Pophale) SiO2 
 PCOD8186981
Probable space group: F D D 2
;
_chemical_formula_sum "Si O2"
_cell_formula_units_Z 112
_cell_length_a 14.141602
_cell_length_b 28.495529
_cell_length_c 11.797563
_cell_angle_alpha 90.000000
_cell_angle_beta 90.000000
_cell_angle_gamma 90.000000
_cell_volume 4754.092629
_symmetry_space_group_name_H-M "F D D 2"
_symmetry_group_IT_number 43
_symmetry_cell_setting 'orthorhombic'
loop_
_space_group_symop_operation_xyz
x,y,z
-x,-y,z
1/4-x,1/4+y,1/4+z
1/4+x,1/4-y,1/4+z
x,1/2+y,1/2+z
-x,1/2-y,1/2+z
1/4-x,3/4+y,3/4+z
1/4+x,3/4-y,3/4+z
1/2+x,y,1/2+z
1/2-x,-y,1/2+z
3/4-x,1/4+y,3/4+z
3/4+x,1/4-y,3/4+z
1/2+x,1/2+y,z
1/2-x,1/2-y,z
3/4-x,3/4+y,1/4+z
3/4+x,3/4-y,1/4+z
loop_
_atom_site_type_symbol
_atom_site_label
_atom_site_fract_x
_atom_site_fract_y
_atom_site_fract_z
Si Si1 0.173260 0.692121 0.753650
Si Si2 0.335367 0.806985 0.487645
Si Si3 0.380443 0.709919 0.458100
Si Si4 0.379996 0.636952 0.289065
Si Si5 0.573808 0.095786 0.797874
Si Si6 0.123483 0.787349 0.845138
Si Si7 0.293713 0.905188 0.416461
O O1 0.155729 0.699527 0.621524
O O2 0.136843 0.641158 0.781783
O O3 0.116209 0.731134 0.829347
O O4 0.283900 0.695019 0.778099
O O5 0.405817 0.765421 0.441864
O O6 0.231115 0.796107 0.443770
O O7 0.359537 0.858836 0.440234
O O8 0.429779 0.679054 0.360121
O O9 0.407721 0.690171 0.579641
O O10 0.465897 0.602435 0.254200
O O11 0.326926 0.661885 0.183548
O O12 0.309773 0.608320 0.371205
O O13 0.618286 0.051955 0.728204
O O14 0.037045 0.815730 0.785001
#
# Coordination Sequence:
#
# PCOD8186981 Si02
#       7
#    16  16  16  16  16  16  16
#     4  11  21  39  69 103 139 169 225 289 342 394
#     4  10  19  34  66 100 129 167 225 286 331 392
#     4  10  19  39  62  93 134 168 222 275 341 392
#     4  11  25  43  66  92 140 185 214 278 341 415
#     4  12  24  45  67  98 139 182 222 270 353 406
#     4  11  22  40  70 104 129 175 230 285 333 403
#     4  11  20  37  71  97 131 176 228 273 340 397
#
# _framework density 23.55865
#
# number of rings (size 3 to 8) (size 9 to 14) (size 15 to 20)
#    0.000    1.143    7.143    0.857    0.000    0.000 
#    0.000   14.286    3.143    0.000    0.000    0.000 
#    0.000    0.000    0.000    0.000    0.000    0.000 
#
# Total GULP energy -347006.619177 kJ/mol
# GULP energy per Si atom -12393.093542 kJ/mol
# Density = 2.350503 g / cm^3
# Si number density = 23.558650 Si / 1000 Ang^3
#
#
#
# Elastic Constant Matrix: (Units=GPa)
#
#
# Indices 1 2 3 4 5 6 
#
# 1 22.1950 -5.0215 5.8827 0.0000 0.0000 0.0000
# 2 -5.0215 101.9884 1.0374 0.0000 0.0000 0.0000
# 3 5.8827 1.0374 91.5019 0.0000 0.0000 0.0000
# 4 0.0000 0.0000 0.0000 75.3293 0.0000 0.0000
# 5 0.0000 0.0000 0.0000 0.0000 11.2692 0.0000
# 6 0.0000 0.0000 0.0000 0.0000 0.0000 25.7947
#
#
#
# Elastic Compliance Matrix: (Units=1/GPa)
#
#
# Indices 1 2 3 4 5 6 
#
# 1 0.046376 0.002314 -0.003008 0.000000 0.000000 0.000000
# 2 0.002314 0.009922 -0.000261 0.000000 0.000000 0.000000
# 3 -0.003008 -0.000261 0.011125 0.000000 0.000000 0.000000
# 4 0.000000 0.000000 0.000000 0.013275 0.000000 0.000000
# 5 0.000000 0.000000 0.000000 0.000000 0.088737 0.000000
# 6 0.000000 0.000000 0.000000 0.000000 0.000000 0.038768
#
#
# Mechanical properties :
#
#
# Convention : Reuss Voigt Hill
#
# Bulk Modulus (GPa) = 15.26426 24.38695 19.82560
# Shear Modulus (GPa) = 21.55633 36.73108 29.14371
#
# Velocity S-wave (km/s) = 3.02819 3.95287 3.52102
# Velocity P-wave (km/s) = 4.32665 5.58638 4.99638
#
# Compressibility (1/GPa) = 0.06551251
#
# Stress axis : x y z
#
# Youngs Moduli (GPa) = 21.56290 100.79001 89.88712
#
# Poissons Ratio (x) = -0.23322 0.27036
# Poissons Ratio (y) = -0.04990 0.02348
# Poissons Ratio (z) = 0.06486 0.02633
#
# Static dielectric constant tensor:
#      x y z
#    x 4.149900 0.000000 0.000000 
#    y 0.000000 2.955370 0.000000 
#    z 0.000000 0.000000 4.835240 
# 
# 
# High freq. dielectric constant tensor:
#      x y z
#    x 1.907500 0.000000 0.000000 
#    y 0.000000 1.937870 0.000000 
#    z 0.000000 0.000000 1.936940 
# 
# From -- ./inp_files/6307.got.cif
#   From: 2010.06.25/outbox.cif.g09.slc.cpg/sg43_4_cif.got.tgz:6307.got - 2010.06.26 16:48:59.
