data_PCOD8186506
_publ_section_title
;
Structure prediction by ZEFSAII (Michael W. Deem and Ramdas Pophale) SiO2 
 PCOD8186506
Probable space group: F M M 2
;
_chemical_formula_sum "Si O2"
_cell_formula_units_Z 128
_cell_length_a 25.435183
_cell_length_b 22.975090
_cell_length_c 10.924781
_cell_angle_alpha 90.000000
_cell_angle_beta 90.000000
_cell_angle_gamma 90.000000
_cell_volume 6384.175655
_symmetry_space_group_name_H-M "F M M 2"
_symmetry_group_IT_number 42
_symmetry_cell_setting 'orthorhombic'
loop_
_space_group_symop_operation_xyz
x,y,z
-x,-y,z
-x,y,z
x,-y,z
x,1/2+y,1/2+z
-x,1/2-y,1/2+z
-x,1/2+y,1/2+z
x,1/2-y,1/2+z
1/2+x,y,1/2+z
1/2-x,-y,1/2+z
1/2-x,y,1/2+z
1/2+x,-y,1/2+z
1/2+x,1/2+y,z
1/2-x,1/2-y,z
1/2-x,1/2+y,z
1/2+x,1/2-y,z
loop_
_atom_site_type_symbol
_atom_site_label
_atom_site_fract_x
_atom_site_fract_y
_atom_site_fract_z
Si Si1 0.879374 0.146458 0.093180
Si Si2 0.941328 0.865297 0.743757
Si Si3 0.940793 0.356569 0.961392
Si Si4 0.252584 0.118377 0.843297
Si Si5 0.439070 0.729836 0.936627
Si Si6 0.141847 0.933772 0.868570
Si Si7 0.736497 0.816493 0.597108
Si Si8 0.132225 0.068747 0.316598
O O1 0.920232 0.197543 0.060956
O O2 0.825256 0.179486 0.110741
O O3 0.894573 0.108129 0.210890
O O4 0.876873 0.100796 0.985252
O O5 0.943526 0.847182 0.605019
O O6 0.897244 0.915214 0.758844
O O7 0.000000 0.885765 0.787655
O O8 0.923406 0.808298 0.819307
O O9 0.916189 0.294991 0.913483
O O10 0.000000 0.369716 0.910994
O O11 0.901042 0.409944 0.933858
O O12 0.203331 0.074960 0.841094
O O13 0.240565 0.159523 0.725859
O O14 0.305642 0.081135 0.826511
O O15 0.256845 0.150991 0.974213
O O16 0.500000 0.739111 0.955368
O O17 0.132231 0.000000 0.898505
O O18 0.750000 0.750000 0.580456
O O19 0.124065 0.000000 0.294997
#
# Coordination Sequence:
#
# PCOD8186506 Si02
#       8
#    16  16  16  16  16  16  16  16
#     4   9  21  38  59  87 117 154 193 251 300 349
#     4   9  20  38  58  89 121 148 196 254 304 356
#     4  10  23  39  59  88 121 158 197 247 307 363
#     4  10  23  39  58  89 119 162 209 246 302 363
#     4   9  19  37  62  88 116 151 197 247 301 365
#     4  10  20  38  62  84 114 160 206 250 294 351
#     4  10  21  38  58  86 122 153 195 251 306 363
#     4  11  24  41  59  86 124 164 204 249 298 360
#
# _framework density 20.049574
#
# number of rings (size 3 to 8) (size 9 to 14) (size 15 to 20)
#    0.000    2.250    0.000    1.125    5.250    1.500 
#    4.500    2.500    0.000    2.250    0.000    0.000 
#    0.000    0.000    0.000    0.000    0.000    0.000 
#
# Total GULP energy -396601.153048 kJ/mol
# GULP energy per Si atom -12393.786033 kJ/mol
# Density = 2.000394 g / cm^3
# Si number density = 20.049574 Si / 1000 Ang^3
#
#
#
# Elastic Constant Matrix: (Units=GPa)
#
#
# Indices 1 2 3 4 5 6 
#
# 1 66.3328 43.4138 13.3515 0.0003 -0.0002 -0.0001
# 2 43.4138 120.2655 16.8930 0.0006 -0.0004 -0.0001
# 3 13.3515 16.8930 82.7355 0.0011 -0.0008 -0.0002
# 4 0.0003 0.0006 0.0011 14.2023 -0.0003 -0.0001
# 5 -0.0002 -0.0004 -0.0008 -0.0003 32.0059 0.0001
# 6 -0.0001 -0.0001 -0.0002 -0.0001 0.0001 23.6093
#
#
#
# Elastic Compliance Matrix: (Units=1/GPa)
#
#
# Indices 1 2 3 4 5 6 
#
# 1 0.019997 -0.006965 -0.001805 0.000000 0.000000 0.000000
# 2 -0.006965 0.010986 -0.001119 0.000000 0.000000 0.000000
# 3 -0.001805 -0.001119 0.012607 -0.000001 0.000000 0.000000
# 4 0.000000 0.000000 -0.000001 0.070411 0.000001 0.000000
# 5 0.000000 0.000000 0.000000 0.000001 0.031244 0.000000
# 6 0.000000 0.000000 0.000000 0.000000 0.000000 0.042356
#
#
# Mechanical properties :
#
#
# Convention : Reuss Voigt Hill
#
# Bulk Modulus (GPa) = 41.99617 46.29448 44.14532
# Shear Modulus (GPa) = 23.22151 27.00855 25.11503
#
# Velocity S-wave (km/s) = 3.40693 3.67425 3.54311
# Velocity P-wave (km/s) = 6.03887 6.41407 6.22929
#
# Compressibility (1/GPa) = 0.02381170
#
# Stress axis : x y z
#
# Youngs Moduli (GPa) = 50.00652 91.02106 79.32410
#
# Poissons Ratio (x) = 0.63398 0.14317
# Poissons Ratio (y) = 0.34831 0.08878
# Poissons Ratio (z) = 0.09026 0.10187
#
# Static dielectric constant tensor:
#      x y z
#    x 2.448220 0.000000 0.000000 
#    y 0.000000 3.608770 0.000000 
#    z 0.000000 0.000000 3.781620 
# 
# 
# High freq. dielectric constant tensor:
#      x y z
#    x 1.783940 0.000000 0.000000 
#    y 0.000000 1.778920 0.000000 
#    z 0.000000 0.000000 1.786130 
# 
# From -- ./inp_files/10368.got.cif
#   From: 2010.03.12/outbox.cif.g09.slc.cpg/sg42_6_cif.got.tgz:10368.got - 2010.04.14 02:04:31.
