data_PCOD8186588
_publ_section_title
;
Structure prediction by ZEFSAII (Michael W. Deem and Ramdas Pophale) SiO2 
 PCOD8186588
Probable space group: F M M 2
;
_chemical_formula_sum "Si O2"
_cell_formula_units_Z 96
_cell_length_a 22.298076
_cell_length_b 21.675198
_cell_length_c 9.163404
_cell_angle_alpha 90.000000
_cell_angle_beta 90.000000
_cell_angle_gamma 90.000000
_cell_volume 4428.812550
_symmetry_space_group_name_H-M "F M M 2"
_symmetry_group_IT_number 42
_symmetry_cell_setting 'orthorhombic'
loop_
_space_group_symop_operation_xyz
x,y,z
-x,-y,z
-x,y,z
x,-y,z
x,1/2+y,1/2+z
-x,1/2-y,1/2+z
-x,1/2+y,1/2+z
x,1/2-y,1/2+z
1/2+x,y,1/2+z
1/2-x,-y,1/2+z
1/2-x,y,1/2+z
1/2+x,-y,1/2+z
1/2+x,1/2+y,z
1/2-x,1/2-y,z
1/2-x,1/2+y,z
1/2+x,1/2-y,z
loop_
_atom_site_type_symbol
_atom_site_label
_atom_site_fract_x
_atom_site_fract_y
_atom_site_fract_z
Si Si1 0.230266 0.433659 0.021460
Si Si2 0.367766 0.568721 0.990954
Si Si3 0.880144 0.186268 0.826924
Si Si4 0.855126 0.383402 0.805374
Si Si5 0.429445 0.799339 0.003235
Si Si6 0.257568 0.684305 0.708580
O O1 0.223525 0.500000 0.105790
O O2 0.216813 0.372936 0.115538
O O3 0.296912 0.429179 0.957637
O O4 0.182145 0.435793 0.890777
O O5 0.393487 0.500000 0.960972
O O6 0.399204 0.617984 0.883901
O O7 0.381307 0.586985 0.158559
O O8 0.900705 0.195568 0.661878
O O9 0.911145 0.234334 0.934487
O O10 0.807619 0.193682 0.835409
O O11 0.908939 0.355710 0.900459
O O12 0.807885 0.328800 0.772994
O O13 0.500000 0.803104 0.019637
O O14 0.250000 0.750000 0.623113
#
# Coordination Sequence:
#
# PCOD8186588 Si02
#       6
#    16  16  16  16  16  16
#     4  10  21  36  61 100 145 182 213 264 341 425
#     4  10  23  40  64 102 139 179 220 270 350 422
#     4  12  24  43  68  97 137 174 221 291 342 412
#     4  11  21  40  68  99 141 177 220 283 334 417
#     4  12  27  46  69  97 131 181 235 285 345 402
#     4  11  22  36  63 102 140 172 219 274 351 402
#
# _framework density 21.676238000000001
#
# number of rings (size 3 to 8) (size 9 to 14) (size 15 to 20)
#    0.000    1.000    5.000    2.000    2.333    2.000 
#    0.000    0.833    0.000    8.000    0.000    0.000 
#    0.000    0.000    0.000    0.000    0.000    0.000 
#
# Total GULP energy -297473.562196 kJ/mol
# GULP energy per Si atom -12394.731758 kJ/mol
# Density = 2.162690 g / cm^3
# Si number density = 21.676238 Si / 1000 Ang^3
#
#
#
# Elastic Constant Matrix: (Units=GPa)
#
#
# Indices 1 2 3 4 5 6 
#
# 1 38.2768 19.1785 17.2636 -0.0001 0.0001 0.0000
# 2 19.1785 183.8804 55.3801 0.0001 0.0000 0.0000
# 3 17.2636 55.3801 96.2527 0.0000 0.0004 0.0002
# 4 -0.0001 0.0001 0.0000 31.0036 0.0002 0.0001
# 5 0.0001 0.0000 0.0004 0.0002 12.9373 -0.0001
# 6 0.0000 0.0000 0.0002 0.0001 -0.0001 13.6344
#
#
#
# Elastic Compliance Matrix: (Units=1/GPa)
#
#
# Indices 1 2 3 4 5 6 
#
# 1 0.028887 -0.001757 -0.004170 0.000000 0.000000 0.000000
# 2 -0.001757 0.006685 -0.003531 0.000000 0.000000 0.000000
# 3 -0.004170 -0.003531 0.013169 0.000000 0.000000 0.000000
# 4 0.000000 0.000000 0.000000 0.032254 0.000000 0.000000
# 5 0.000000 0.000000 0.000000 0.000000 0.077296 0.000001
# 6 0.000000 0.000000 0.000000 0.000000 0.000001 0.073344
#
#
# Mechanical properties :
#
#
# Convention : Reuss Voigt Hill
#
# Bulk Modulus (GPa) = 33.52992 55.78381 44.65686
# Shear Modulus (GPa) = 19.19440 26.62090 22.90765
#
# Velocity S-wave (km/s) = 2.97897 3.50825 3.25439
# Velocity P-wave (km/s) = 5.22824 6.49625 5.89643
#
# Compressibility (1/GPa) = 0.02982411
#
# Stress axis : x y z
#
# Youngs Moduli (GPa) = 34.61812 149.58691 75.93589
#
# Poissons Ratio (x) = 0.26281 0.31667
# Poissons Ratio (y) = 0.06082 0.26815
# Poissons Ratio (z) = 0.14436 0.52823
#
# Static dielectric constant tensor:
#      x y z
#    x 3.579940 0.000000 0.000000 
#    y 0.000000 4.284240 0.000000 
#    z 0.000000 0.000000 3.885470 
# 
# 
# High freq. dielectric constant tensor:
#      x y z
#    x 1.808080 0.000000 0.000000 
#    y 0.000000 1.872350 0.000000 
#    z 0.000000 0.000000 1.848300 
# 
# From -- ./inp_files/4733.got.cif
#   From: 2010.03.12/outbox.cif.g09.slc.cpg/sg42_3_cif.got.tgz:4733.got - 2010.04.14 02:04:31.
