data_PCOD8186455
_publ_section_title
;
Structure prediction by ZEFSAII (Michael W. Deem and Ramdas Pophale) SiO2 
 PCOD8186455
Probable space group: F M M 2
;
_chemical_formula_sum "Si O2"
_cell_formula_units_Z 96
_cell_length_a 28.770820
_cell_length_b 17.944410
_cell_length_c 9.204451
_cell_angle_alpha 90.000000
_cell_angle_beta 90.000000
_cell_angle_gamma 90.000000
_cell_volume 4752.031531
_symmetry_space_group_name_H-M "F M M 2"
_symmetry_group_IT_number 42
_symmetry_cell_setting 'orthorhombic'
loop_
_space_group_symop_operation_xyz
x,y,z
-x,-y,z
-x,y,z
x,-y,z
x,1/2+y,1/2+z
-x,1/2-y,1/2+z
-x,1/2+y,1/2+z
x,1/2-y,1/2+z
1/2+x,y,1/2+z
1/2-x,-y,1/2+z
1/2-x,y,1/2+z
1/2+x,-y,1/2+z
1/2+x,1/2+y,z
1/2-x,1/2-y,z
1/2-x,1/2+y,z
1/2+x,1/2-y,z
loop_
_atom_site_type_symbol
_atom_site_label
_atom_site_fract_x
_atom_site_fract_y
_atom_site_fract_z
Si Si1 0.408160 0.285387 0.943830
Si Si2 0.593518 0.915802 0.253759
Si Si3 0.372904 0.666288 0.248959
Si Si4 0.301243 0.587143 0.818526
Si Si5 0.286311 0.411312 0.143662
Si Si6 0.447504 0.134177 0.958143
O O1 0.431583 0.355111 0.857740
O O2 0.369917 0.243511 0.840594
O O3 0.446930 0.223954 0.989067
O O4 0.383178 0.317749 0.082559
O O5 0.647997 0.894092 0.255769
O O6 0.585716 0.000000 0.312359
O O7 0.573036 0.910903 0.093319
O O8 0.324916 0.621488 0.253982
O O9 0.414879 0.616379 0.318655
O O10 0.293741 0.500000 0.832078
O O11 0.263202 0.617810 0.704387
O O12 0.293498 0.620328 0.980420
O O13 0.290895 0.500000 0.147845
O O14 0.500000 0.107951 0.927566
#
# Coordination Sequence:
#
# PCOD8186455 Si02
#       6
#    16  16  16  16  16  16
#     4  10  20  39  63  90 125 163 214 254 324 390
#     4  11  22  40  67  95 131 168 215 272 319 377
#     4  10  21  38  63  87 126 167 214 261 315 386
#     4   9  20  35  58  92 126 166 209 255 322 385
#     4  10  20  36  61  91 124 166 214 259 314 385
#     4  10  23  42  64  90 122 168 215 262 326 389
#
# _framework density 20.201885999999998
#
# number of rings (size 3 to 8) (size 9 to 14) (size 15 to 20)
#    1.000    1.000    3.333    0.000    2.333    3.667 
#    0.000    0.833    3.667    0.000    0.000    0.000 
#    0.000    0.000    0.000    0.000    0.000    0.000 
#
# Total GULP energy -297383.991552 kJ/mol
# GULP energy per Si atom -12390.999648 kJ/mol
# Density = 2.015591 g / cm^3
# Si number density = 20.201886 Si / 1000 Ang^3
#
#
#
# Elastic Constant Matrix: (Units=GPa)
#
#
# Indices 1 2 3 4 5 6 
#
# 1 98.4355 8.9398 27.5244 0.0000 0.0000 0.0000
# 2 8.9398 59.5851 18.2168 0.0000 0.0000 0.0000
# 3 27.5244 18.2168 92.1932 0.0001 0.0000 0.0000
# 4 0.0000 0.0000 0.0001 29.4383 0.0000 0.0000
# 5 0.0000 0.0000 0.0000 0.0000 30.5575 0.0000
# 6 0.0000 0.0000 0.0000 0.0000 0.0000 17.4941
#
#
#
# Elastic Compliance Matrix: (Units=1/GPa)
#
#
# Indices 1 2 3 4 5 6 
#
# 1 0.011111 -0.000695 -0.003180 0.000000 0.000000 0.000000
# 2 -0.000695 0.017905 -0.003330 0.000000 0.000000 0.000000
# 3 -0.003180 -0.003330 0.012454 0.000000 0.000000 0.000000
# 4 0.000000 0.000000 0.000000 0.033969 0.000000 0.000000
# 5 0.000000 0.000000 0.000000 0.000000 0.032725 0.000000
# 6 0.000000 0.000000 0.000000 0.000000 0.000000 0.057162
#
#
# Mechanical properties :
#
#
# Convention : Reuss Voigt Hill
#
# Bulk Modulus (GPa) = 36.95491 39.95288 38.45389
# Shear Modulus (GPa) = 26.48895 28.53350 27.51123
#
# Velocity S-wave (km/s) = 3.62499 3.76229 3.69428
# Velocity P-wave (km/s) = 5.98776 6.22036 6.10517
#
# Compressibility (1/GPa) = 0.02706000
#
# Stress axis : x y z
#
# Youngs Moduli (GPa) = 89.99913 55.84972 80.29380
#
# Poissons Ratio (x) = 0.03881 0.25533
# Poissons Ratio (y) = 0.06254 0.26742
# Poissons Ratio (z) = 0.28619 0.18601
#
# Static dielectric constant tensor:
#      x y z
#    x 3.489920 0.000000 0.000000 
#    y 0.000000 3.571260 0.000000 
#    z 0.000000 0.000000 3.685630 
# 
# 
# High freq. dielectric constant tensor:
#      x y z
#    x 1.768680 0.000000 0.000000 
#    y 0.000000 1.773760 0.000000 
#    z 0.000000 0.000000 1.791110 
# 
# From -- ./inp_files/5182.got.cif
#   From: 2010.03.12/outbox.cif.g09.slc.cpg/sg42_3_cif.got.tgz:5182.got - 2010.04.14 02:04:31.
