data_PCOD8186890
_publ_section_title
;
Structure prediction by ZEFSAII (Michael W. Deem and Ramdas Pophale) SiO2 
 PCOD8186890
Probable space group: F M M 2
;
_chemical_formula_sum "Si O2"
_cell_formula_units_Z 96
_cell_length_a 27.283163
_cell_length_b 9.123336
_cell_length_c 26.068428
_cell_angle_alpha 90.000000
_cell_angle_beta 90.000000
_cell_angle_gamma 90.000000
_cell_volume 6488.782693
_symmetry_space_group_name_H-M "F M M 2"
_symmetry_group_IT_number 42
_symmetry_cell_setting 'orthorhombic'
loop_
_space_group_symop_operation_xyz
x,y,z
-x,-y,z
-x,y,z
x,-y,z
x,1/2+y,1/2+z
-x,1/2-y,1/2+z
-x,1/2+y,1/2+z
x,1/2-y,1/2+z
1/2+x,y,1/2+z
1/2-x,-y,1/2+z
1/2-x,y,1/2+z
1/2+x,-y,1/2+z
1/2+x,1/2+y,z
1/2-x,1/2-y,z
1/2-x,1/2+y,z
1/2+x,1/2-y,z
loop_
_atom_site_type_symbol
_atom_site_label
_atom_site_fract_x
_atom_site_fract_y
_atom_site_fract_z
Si Si1 0.556383 0.672857 0.979390
Si Si2 0.055635 0.327656 0.191501
Si Si3 0.700567 0.166164 0.833742
Si Si4 0.558220 0.162051 0.593007
Si Si5 0.884076 0.825379 0.790010
Si Si6 0.893979 0.165847 0.388097
O O1 0.500000 0.717006 0.969558
O O2 0.563353 0.500000 0.971762
O O3 0.590738 0.759906 0.940772
O O4 0.573713 0.719879 0.036636
O O5 0.057283 0.500000 0.186495
O O6 0.078056 0.264479 0.138618
O O7 0.088254 0.273606 0.238895
O O8 0.000000 0.272556 0.200363
O O9 0.750000 0.250000 0.847622
O O10 0.670653 0.253989 0.789065
O O11 0.665671 0.164714 0.884375
O O12 0.711835 0.000000 0.815561
O O13 0.500000 0.156172 0.593746
O O14 0.579812 0.000000 0.602125
O O15 0.913971 0.759769 0.839133
O O16 0.880938 0.000000 0.794739
O O17 0.914640 0.000000 0.385339
#
# Coordination Sequence:
#
# PCOD8186890 Si02
#       6
#    16  16  16  16  16  16
#     4   9  17  29  44  62  87 120 153 181 213 255
#     4   9  17  28  42  62  88 119 152 181 211 250
#     4   9  18  31  47  66  87 110 141 178 218 265
#     4   8  15  27  42  60  82 113 152 186 215 248
#     4   9  17  29  44  63  90 118 146 178 216 259
#     4   9  19  30  42  65  90 112 145 180 217 262
#
# _framework density 14.794763
#
# number of rings (size 3 to 8) (size 9 to 14) (size 15 to 20)
#    1.000    2.167    0.000    2.000    0.000    3.000 
#    0.000    3.333    0.000    0.000    0.000    1.167 
#    0.000    5.333    0.000    0.000    0.000    0.000 
#
# Total GULP energy -297319.788814 kJ/mol
# GULP energy per Si atom -12388.324534 kJ/mol
# Density = 1.476109 g / cm^3
# Si number density = 14.794763 Si / 1000 Ang^3
#
#
#
# Elastic Constant Matrix: (Units=GPa)
#
#
# Indices 1 2 3 4 5 6 
#
# 1 56.1134 34.3449 44.1225 0.0000 0.0000 -0.0001
# 2 34.3449 75.7769 54.5667 0.0000 0.0000 -0.0001
# 3 44.1225 54.5667 126.1524 0.0000 0.0000 0.0000
# 4 0.0000 0.0000 0.0000 29.0804 0.0000 0.0000
# 5 0.0000 0.0000 0.0000 0.0000 2.3009 0.0000
# 6 -0.0001 -0.0001 0.0000 0.0000 0.0000 21.5645
#
#
#
# Elastic Compliance Matrix: (Units=1/GPa)
#
#
# Indices 1 2 3 4 5 6 
#
# 1 0.027610 -0.008075 -0.006164 0.000000 0.000000 0.000000
# 2 -0.008075 0.021528 -0.006488 0.000000 0.000000 0.000000
# 3 -0.006164 -0.006488 0.012889 0.000000 0.000000 0.000000
# 4 0.000000 0.000000 0.000000 0.034387 0.000000 0.000000
# 5 0.000000 0.000000 0.000000 0.000000 0.434604 0.000000
# 6 0.000000 0.000000 0.000000 0.000000 0.000000 0.046372
#
#
# Mechanical properties :
#
#
# Convention : Reuss Voigt Hill
#
# Bulk Modulus (GPa) = 48.60524 58.23454 53.41989
# Shear Modulus (GPa) = 7.99100 18.92309 13.45705
#
# Velocity S-wave (km/s) = 2.32658 3.58025 3.01920
# Velocity P-wave (km/s) = 6.33574 7.51917 6.95268
#
# Compressibility (1/GPa) = 0.02057391
#
# Stress axis : x y z
#
# Youngs Moduli (GPa) = 36.21815 46.45022 77.58586
#
# Poissons Ratio (x) = 0.37511 0.47823
# Poissons Ratio (y) = 0.29248 0.50334
# Poissons Ratio (z) = 0.22324 0.30135
#
# Static dielectric constant tensor:
#      x y z
#    x 2.554920 0.000000 0.000000 
#    y 0.000000 2.922150 0.000000 
#    z 0.000000 0.000000 2.911010 
# 
# 
# High freq. dielectric constant tensor:
#      x y z
#    x 1.524410 0.000000 0.000000 
#    y 0.000000 1.576980 0.000000 
#    z 0.000000 0.000000 1.558550 
# 
# From -- ./inp_files/30433.got.cif
#   From: 2010.03.12/outbox.cif.g09.slc.cpg/sg42_16_cif.got.tgz:30433.got - 2010.04.14 02:04:31.
