data_PCOD8186819
_publ_section_title
;
Structure prediction by ZEFSAII (Michael W. Deem and Ramdas Pophale) SiO2 
 PCOD8186819
Probable space group: F M M 2
;
_chemical_formula_sum "Si O2"
_cell_formula_units_Z 64
_cell_length_a 15.428462
_cell_length_b 7.518819
_cell_length_c 27.507669
_cell_angle_alpha 90.000000
_cell_angle_beta 90.000000
_cell_angle_gamma 90.000000
_cell_volume 3190.994497
_symmetry_space_group_name_H-M "F M M 2"
_symmetry_group_IT_number 42
_symmetry_cell_setting 'orthorhombic'
loop_
_space_group_symop_operation_xyz
x,y,z
-x,-y,z
-x,y,z
x,-y,z
x,1/2+y,1/2+z
-x,1/2-y,1/2+z
-x,1/2+y,1/2+z
x,1/2-y,1/2+z
1/2+x,y,1/2+z
1/2-x,-y,1/2+z
1/2-x,y,1/2+z
1/2+x,-y,1/2+z
1/2+x,1/2+y,z
1/2-x,1/2-y,z
1/2-x,1/2+y,z
1/2+x,1/2-y,z
loop_
_atom_site_type_symbol
_atom_site_label
_atom_site_fract_x
_atom_site_fract_y
_atom_site_fract_z
Si Si1 0.843551 0.799475 0.579110
Si Si2 0.500000 0.789312 0.646983
Si Si3 0.654763 0.708078 0.324094
Si Si4 0.102161 0.500000 0.508018
Si Si5 0.000000 0.709700 0.755826
Si Si6 0.897594 0.000000 0.896593
O O1 0.750000 0.750000 0.601825
O O2 0.861129 0.676314 0.532874
O O3 0.914010 0.779927 0.621168
O O4 0.844178 0.000000 0.559405
O O5 0.500000 0.710783 0.701588
O O6 0.500000 0.000000 0.645415
O O7 0.642730 0.500000 0.336587
O O8 0.750000 0.750000 0.302889
O O9 0.585701 0.774412 0.284088
O O10 0.641247 0.821532 0.372929
O O11 0.131617 0.500000 0.452367
O O12 0.000000 0.500000 0.514542
O O13 0.000000 0.500000 0.752033
O O14 0.000000 0.000000 0.890840
#
# Coordination Sequence:
#
# PCOD8186819 Si02
#       6
#    16   8  16   8   8   8
#     4  12  23  42  65  92 130 168 207 263 315 372
#     4  11  21  43  67  93 129 165 211 264 315 380
#     4  11  22  42  64  93 132 166 208 264 311 373
#     4  11  24  44  66  92 128 168 210 263 316 373
#     4   9  22  40  66  93 126 168 211 261 316 374
#     4  11  24  42  68  92 124 174 210 257 322 369
#
# _framework density 20.056443999999999
#
# number of rings (size 3 to 8) (size 9 to 14) (size 15 to 20)
#    0.000    1.000    6.250    0.375    0.000    3.000 
#    4.500    5.000    0.000    0.000    0.000    0.000 
#    0.000    0.000    0.000    0.000    0.000    0.000 
#
# Total GULP energy -198451.197301 kJ/mol
# GULP energy per Si atom -12403.199831 kJ/mol
# Density = 2.001079 g / cm^3
# Si number density = 20.056444 Si / 1000 Ang^3
#
#
#
# Elastic Constant Matrix: (Units=GPa)
#
#
# Indices 1 2 3 4 5 6 
#
# 1 178.9557 39.9005 86.3432 0.0000 0.0000 0.0000
# 2 39.9005 150.6000 61.6603 0.0000 0.0000 0.0000
# 3 86.3432 61.6603 158.1576 0.0000 0.0000 0.0000
# 4 0.0000 0.0000 0.0000 50.0576 0.0000 0.0000
# 5 0.0000 0.0000 0.0000 0.0000 17.2084 0.0000
# 6 0.0000 0.0000 0.0000 0.0000 0.0000 29.8363
#
#
#
# Elastic Compliance Matrix: (Units=1/GPa)
#
#
# Indices 1 2 3 4 5 6 
#
# 1 0.007604 -0.000375 -0.004005 0.000000 0.000000 0.000000
# 2 -0.000375 0.007920 -0.002883 0.000000 0.000000 0.000000
# 3 -0.004005 -0.002883 0.009633 0.000000 0.000000 0.000000
# 4 0.000000 0.000000 0.000000 0.019977 0.000000 0.000000
# 5 0.000000 0.000000 0.000000 0.000000 0.058111 0.000000
# 6 0.000000 0.000000 0.000000 0.000000 0.000000 0.033516
#
#
# Mechanical properties :
#
#
# Convention : Reuss Voigt Hill
#
# Bulk Modulus (GPa) = 94.06312 95.94683 95.00498
# Shear Modulus (GPa) = 32.29325 39.40775 35.85050
#
# Velocity S-wave (km/s) = 4.01698 4.43746 4.23245
# Velocity P-wave (km/s) = 8.27743 8.61377 8.44727
#
# Compressibility (1/GPa) = 0.01063116
#
# Stress axis : x y z
#
# Youngs Moduli (GPa) = 131.51077 126.26553 103.80633
#
# Poissons Ratio (x) = 0.04732 0.41576
# Poissons Ratio (y) = 0.04929 0.29928
# Poissons Ratio (z) = 0.52671 0.36403
#
# Static dielectric constant tensor:
#      x y z
#    x 3.971800 0.000000 0.000000 
#    y 0.000000 3.631850 0.000000 
#    z 0.000000 0.000000 3.692860 
# 
# 
# High freq. dielectric constant tensor:
#      x y z
#    x 1.802340 0.000000 0.000000 
#    y 0.000000 1.796120 0.000000 
#    z 0.000000 0.000000 1.766450 
# 
# From -- ./inp_files/29201.got.cif
#   From: 2010.03.12/outbox.cif.g09.slc.cpg/sg42_15_cif.got.tgz:29201.got - 2010.04.14 02:04:31.
