data_PCOD8186330
_publ_section_title
;
Structure prediction by ZEFSAII (Michael W. Deem and Ramdas Pophale) SiO2 
 PCOD8186330
Probable space group: F M M 2
;
_chemical_formula_sum "Si O2"
_cell_formula_units_Z 112
_cell_length_a 26.660439
_cell_length_b 14.000126
_cell_length_c 12.646713
_cell_angle_alpha 90.000000
_cell_angle_beta 90.000000
_cell_angle_gamma 90.000000
_cell_volume 4720.379370
_symmetry_space_group_name_H-M "F M M 2"
_symmetry_group_IT_number 42
_symmetry_cell_setting 'orthorhombic'
loop_
_space_group_symop_operation_xyz
x,y,z
-x,-y,z
-x,y,z
x,-y,z
x,1/2+y,1/2+z
-x,1/2-y,1/2+z
-x,1/2+y,1/2+z
x,1/2-y,1/2+z
1/2+x,y,1/2+z
1/2-x,-y,1/2+z
1/2-x,y,1/2+z
1/2+x,-y,1/2+z
1/2+x,1/2+y,z
1/2-x,1/2-y,z
1/2-x,1/2+y,z
1/2+x,1/2-y,z
loop_
_atom_site_type_symbol
_atom_site_label
_atom_site_fract_x
_atom_site_fract_y
_atom_site_fract_z
Si Si1 0.624934 0.890831 0.182490
Si Si2 0.819281 0.893073 0.887230
Si Si3 0.942308 0.262530 0.077532
Si Si4 0.876753 0.391807 0.676624
Si Si5 0.210479 0.387998 0.820019
Si Si6 0.306115 0.273265 0.526793
Si Si7 0.943031 0.893550 0.382517
O O1 0.634494 0.884717 0.307424
O O2 0.569982 0.844650 0.165071
O O3 0.664176 0.823993 0.120100
O O4 0.628658 0.000000 0.142894
O O5 0.769757 0.862493 0.817997
O O6 0.812047 0.000000 0.930202
O O7 0.828784 0.830385 0.992155
O O8 0.904150 0.173831 0.089513
O O9 0.000000 0.230463 0.087276
O O10 0.929039 0.312017 0.966420
O O11 0.876944 0.500000 0.633358
O O12 0.820024 0.357008 0.712212
O O13 0.908202 0.380629 0.782869
O O14 0.200807 0.500000 0.833210
O O15 0.188066 0.338302 0.923205
O O16 0.250000 0.250000 0.563833
O O17 0.000000 0.879687 0.344257
O O18 0.935885 0.000000 0.432026
#
# Coordination Sequence:
#
# PCOD8186330 Si02
#       7
#    16  16  16  16  16  16  16
#     4  11  23  39  60  85 113 151 197 240 286 343
#     4   9  20  38  58  83 119 155 186 228 283 343
#     4  11  23  37  57  86 116 147 192 250 302 344
#     4  10  20  36  61  88 116 153 194 235 285 350
#     4   9  17  32  55  84 117 152 189 231 279 334
#     4  10  20  34  58  87 118 152 190 232 280 339
#     4   9  18  34  56  81 109 145 192 243 291 342
#
# _framework density 23.726907000000001
#
# number of rings (size 3 to 8) (size 9 to 14) (size 15 to 20)
#    0.000    2.143    0.000    3.000    0.000    6.286 
#    0.000    0.714    0.000    3.429    0.000    4.000 
#    0.000    0.000    0.000    0.000    0.000    0.000 
#
# Total GULP energy -347019.976206 kJ/mol
# GULP energy per Si atom -12393.570579 kJ/mol
# Density = 2.367290 g / cm^3
# Si number density = 23.726907 Si / 1000 Ang^3
#
#
#
# Elastic Constant Matrix: (Units=GPa)
#
#
# Indices 1 2 3 4 5 6 
#
# 1 79.1996 23.8181 13.9558 0.0000 0.0000 0.0000
# 2 23.8181 115.9523 19.3604 0.0000 0.0000 0.0000
# 3 13.9558 19.3604 36.2802 0.0000 0.0000 0.0000
# 4 0.0000 0.0000 0.0000 39.5789 0.0000 0.0000
# 5 0.0000 0.0000 0.0000 0.0000 28.7635 0.0000
# 6 0.0000 0.0000 0.0000 0.0000 0.0000 38.5302
#
#
#
# Elastic Compliance Matrix: (Units=1/GPa)
#
#
# Indices 1 2 3 4 5 6 
#
# 1 0.014026 -0.002174 -0.004235 0.000000 0.000000 0.000000
# 2 -0.002174 0.009805 -0.004396 0.000000 0.000000 0.000000
# 3 -0.004235 -0.004396 0.031538 0.000000 0.000000 0.000000
# 4 0.000000 0.000000 0.000000 0.025266 0.000000 0.000000
# 5 0.000000 0.000000 0.000000 0.000000 0.034766 0.000000
# 6 0.000000 0.000000 0.000000 0.000000 0.000000 0.025954
#
#
# Mechanical properties :
#
#
# Convention : Reuss Voigt Hill
#
# Bulk Modulus (GPa) = 29.62186 38.41122 34.01654
# Shear Modulus (GPa) = 28.69951 32.99438 30.84694
#
# Velocity S-wave (km/s) = 3.48167 3.73311 3.60958
# Velocity P-wave (km/s) = 5.35484 5.89962 5.63382
#
# Compressibility (1/GPa) = 0.03375885
#
# Stress axis : x y z
#
# Youngs Moduli (GPa) = 71.29383 101.99095 31.70753
#
# Poissons Ratio (x) = 0.22173 0.13429
# Poissons Ratio (y) = 0.15500 0.13938
# Poissons Ratio (z) = 0.30196 0.44834
#
# Static dielectric constant tensor:
#      x y z
#    x 4.583210 0.000000 0.000000 
#    y 0.000000 4.689800 0.000000 
#    z 0.000000 0.000000 4.009950 
# 
# 
# High freq. dielectric constant tensor:
#      x y z
#    x 1.940560 0.000000 0.000000 
#    y 0.000000 1.956520 0.000000 
#    z 0.000000 0.000000 1.926070 
# 
# From -- ./inp_files/17064.got.cif
#   From: 2010.03.12/outbox.cif.g09.slc.cpg/sg42_9_cif.got.tgz:17064.got - 2010.04.14 02:04:31.
