data_PCOD8186950
_publ_section_title
;
Structure prediction by ZEFSAII (Michael W. Deem and Ramdas Pophale) SiO2 
 PCOD8186950
Probable space group: F D D 2
;
_chemical_formula_sum "Si O2"
_cell_formula_units_Z 88
_cell_length_a 29.011223
_cell_length_b 8.877350
_cell_length_c 17.646217
_cell_angle_alpha 90.000000
_cell_angle_beta 90.000000
_cell_angle_gamma 90.000000
_cell_volume 4544.655791
_symmetry_space_group_name_H-M "F D D 2"
_symmetry_group_IT_number 43
_symmetry_cell_setting 'orthorhombic'
loop_
_space_group_symop_operation_xyz
x,y,z
-x,-y,z
1/4-x,1/4+y,1/4+z
1/4+x,1/4-y,1/4+z
x,1/2+y,1/2+z
-x,1/2-y,1/2+z
1/4-x,3/4+y,3/4+z
1/4+x,3/4-y,3/4+z
1/2+x,y,1/2+z
1/2-x,-y,1/2+z
3/4-x,1/4+y,3/4+z
3/4+x,1/4-y,3/4+z
1/2+x,1/2+y,z
1/2-x,1/2-y,z
3/4-x,3/4+y,1/4+z
3/4+x,3/4-y,1/4+z
loop_
_atom_site_type_symbol
_atom_site_label
_atom_site_fract_x
_atom_site_fract_y
_atom_site_fract_z
Si Si1 0.489509 0.757744 0.939480
Si Si2 0.751327 0.581407 0.022352
Si Si3 0.824120 0.288683 0.189110
Si Si4 0.250000 0.750000 0.801809
Si Si5 0.344471 0.908961 0.026390
Si Si6 0.955048 0.920311 0.196585
O O1 0.494613 0.668089 0.862023
O O2 0.536397 0.840423 0.966390
O O3 0.449447 0.877792 0.924639
O O4 0.477245 0.633749 0.002855
O O5 0.750000 0.750000 0.991238
O O6 0.800842 0.510451 0.004457
O O7 0.709020 0.499951 0.977565
O O8 0.861440 0.260124 0.254925
O O9 0.847700 0.355014 0.113272
O O10 0.290760 0.681806 0.855091
O O11 0.340880 0.756328 0.975087
O O12 0.000000 0.000000 0.235878
#
# Coordination Sequence:
#
# PCOD8186950 Si02
#       6
#    16  16  16   8  16  16
#     4  10  20  39  60  85 117 160 200 235 306 352
#     4  10  18  37  64  82 113 160 199 237 295 363
#     4  10  22  37  61  83 120 159 197 243 295 362
#     4  10  20  36  62  88 114 148 202 252 282 356
#     4  10  20  38  57  87 118 156 200 243 297 352
#     4   8  18  35  56  81 113 151 191 235 293 351
#
# _framework density 19.363403000000002
#
# number of rings (size 3 to 8) (size 9 to 14) (size 15 to 20)
#    0.545    1.818    2.727    0.000    2.545    0.000 
#    6.545    3.636    0.000    0.000    0.000    0.000 
#    0.000    0.000    0.000    0.000    0.000    0.000 
#
# Total GULP energy -272609.092469 kJ/mol
# GULP energy per Si atom -12391.322385 kJ/mol
# Density = 1.931933 g / cm^3
# Si number density = 19.363403 Si / 1000 Ang^3
#
#
#
# Elastic Constant Matrix: (Units=GPa)
#
#
# Indices 1 2 3 4 5 6 
#
# 1 62.8899 25.1673 33.1252 0.0000 0.0000 0.0000
# 2 25.1673 126.0719 48.7297 0.0000 0.0000 0.0000
# 3 33.1252 48.7297 89.9921 0.0000 0.0000 0.0000
# 4 0.0000 0.0000 0.0000 31.2197 0.0000 0.0000
# 5 0.0000 0.0000 0.0000 0.0000 20.1809 0.0000
# 6 0.0000 0.0000 0.0000 0.0000 0.0000 17.3722
#
#
#
# Elastic Compliance Matrix: (Units=1/GPa)
#
#
# Indices 1 2 3 4 5 6 
#
# 1 0.019931 -0.001446 -0.006554 0.000000 0.000000 0.000000
# 2 -0.001446 0.010136 -0.004957 0.000000 0.000000 0.000000
# 3 -0.006554 -0.004957 0.016208 0.000000 0.000000 0.000000
# 4 0.000000 0.000000 0.000000 0.032031 0.000000 0.000000
# 5 0.000000 0.000000 0.000000 0.000000 0.049552 0.000000
# 6 0.000000 0.000000 0.000000 0.000000 0.000000 0.057563
#
#
# Mechanical properties :
#
#
# Convention : Reuss Voigt Hill
#
# Bulk Modulus (GPa) = 49.10597 54.77759 51.94178
# Shear Modulus (GPa) = 22.92295 25.21669 24.06982
#
# Velocity S-wave (km/s) = 3.44441 3.61264 3.52953
# Velocity P-wave (km/s) = 6.42136 6.76403 6.59492
#
# Compressibility (1/GPa) = 0.02036412
#
# Stress axis : x y z
#
# Youngs Moduli (GPa) = 50.17243 98.65415 61.69644
#
# Poissons Ratio (x) = 0.14262 0.40434
# Poissons Ratio (y) = 0.07253 0.30581
# Poissons Ratio (z) = 0.32882 0.48899
#
# Static dielectric constant tensor:
#      x y z
#    x 3.254330 0.000000 0.000000 
#    y 0.000000 3.579230 0.000000 
#    z 0.000000 0.000000 3.335810 
# 
# 
# High freq. dielectric constant tensor:
#      x y z
#    x 1.715600 0.000000 0.000000 
#    y 0.000000 1.758270 0.000000 
#    z 0.000000 0.000000 1.747480 
# 
# From -- ./inp_files/15219.got.cif
#   From: 2010.06.25/outbox.cif.g09.slc.cpg/sg43_8_cif.got.tgz:15219.got - 2010.06.26 16:48:59.
