data_PCOD8186906
_publ_section_title
;
Structure prediction by ZEFSAII (Michael W. Deem and Ramdas Pophale) SiO2 
 PCOD8186906
Probable space group: F D D 2
;
_chemical_formula_sum "Si O2"
_cell_formula_units_Z 88
_cell_length_a 9.256535
_cell_length_b 23.015171
_cell_length_c 16.202258
_cell_angle_alpha 90.000000
_cell_angle_beta 90.000000
_cell_angle_gamma 90.000000
_cell_volume 3451.740967
_symmetry_space_group_name_H-M "F D D 2"
_symmetry_group_IT_number 43
_symmetry_cell_setting 'orthorhombic'
loop_
_space_group_symop_operation_xyz
x,y,z
-x,-y,z
1/4-x,1/4+y,1/4+z
1/4+x,1/4-y,1/4+z
x,1/2+y,1/2+z
-x,1/2-y,1/2+z
1/4-x,3/4+y,3/4+z
1/4+x,3/4-y,3/4+z
1/2+x,y,1/2+z
1/2-x,-y,1/2+z
3/4-x,1/4+y,3/4+z
3/4+x,1/4-y,3/4+z
1/2+x,1/2+y,z
1/2-x,1/2-y,z
3/4-x,3/4+y,1/4+z
3/4+x,3/4-y,1/4+z
loop_
_atom_site_type_symbol
_atom_site_label
_atom_site_fract_x
_atom_site_fract_y
_atom_site_fract_z
Si Si1 0.609300 0.106795 0.027460
Si Si2 0.176220 0.183490 0.918087
Si Si3 0.533916 0.228408 0.983038
Si Si4 0.750000 0.250000 0.844799
Si Si5 0.869323 0.919285 0.345929
Si Si6 0.585698 0.355864 0.812434
O O1 0.544677 0.062596 0.095733
O O2 0.773452 0.124124 0.050100
O O3 0.512871 0.165957 0.026021
O O4 0.591034 0.071849 0.941926
O O5 0.126544 0.246749 0.956740
O O6 0.025788 0.156763 0.885372
O O7 0.237708 0.137234 0.984370
O O8 0.634016 0.216755 0.903047
O O9 0.618936 0.270203 0.046440
O O10 0.664112 0.295243 0.787014
O O11 0.706064 0.897816 0.348499
#
# Coordination Sequence:
#
# PCOD8186906 Si02
#       6
#    16  16  16   8  16  16
#     4  12  22  42  66  96 135 166 215 284 327 375
#     4  10  23  40  62  95 135 163 211 274 330 388
#     4  10  20  41  67  91 129 178 215 261 323 401
#     4  10  16  38  68  86 116 174 222 258 298 406
#     4  11  21  39  70  94 122 175 227 260 317 401
#     4  10  20  40  62  89 125 169 214 260 318 397
#
# _framework density 25.494381000000001
#
# number of rings (size 3 to 8) (size 9 to 14) (size 15 to 20)
#    0.000    1.455    3.636    3.273    0.000    0.000 
#    9.818    8.182    0.000    0.000    0.000    0.000 
#    0.000    0.000    0.000    0.000    0.000    0.000 
#
# Total GULP energy -272781.628607 kJ/mol
# GULP energy per Si atom -12399.164937 kJ/mol
# Density = 2.543635 g / cm^3
# Si number density = 25.494381 Si / 1000 Ang^3
#
#
#
# Elastic Constant Matrix: (Units=GPa)
#
#
# Indices 1 2 3 4 5 6 
#
# 1 90.3688 -4.0053 6.9518 0.0000 0.0000 0.0000
# 2 -4.0053 81.3805 32.5234 0.0000 0.0000 0.0000
# 3 6.9518 32.5234 118.6904 0.0000 0.0000 0.0000
# 4 0.0000 0.0000 0.0000 40.0253 0.0000 0.0000
# 5 0.0000 0.0000 0.0000 0.0000 37.2389 0.0000
# 6 0.0000 0.0000 0.0000 0.0000 0.0000 24.4932
#
#
#
# Elastic Compliance Matrix: (Units=1/GPa)
#
#
# Indices 1 2 3 4 5 6 
#
# 1 0.011176 0.000911 -0.000904 0.000000 0.000000 0.000000
# 2 0.000911 0.013873 -0.003855 0.000000 0.000000 0.000000
# 3 -0.000904 -0.003855 0.009535 0.000000 0.000000 0.000000
# 4 0.000000 0.000000 0.000000 0.024984 0.000000 0.000000
# 5 0.000000 0.000000 0.000000 0.000000 0.026854 0.000000
# 6 0.000000 0.000000 0.000000 0.000000 0.000000 0.040828
#
#
# Mechanical properties :
#
#
# Convention : Reuss Voigt Hill
#
# Bulk Modulus (GPa) = 37.19124 40.15328 38.67226
# Shear Modulus (GPa) = 34.74451 37.34947 36.04699
#
# Velocity S-wave (km/s) = 3.69566 3.83169 3.76429
# Velocity P-wave (km/s) = 5.72976 5.94642 5.83910
#
# Compressibility (1/GPa) = 0.02688805
#
# Stress axis : x y z
#
# Youngs Moduli (GPa) = 89.47959 72.08021 104.88136
#
# Poissons Ratio (x) = -0.06570 0.09485
# Poissons Ratio (y) = -0.08156 0.40431
# Poissons Ratio (z) = 0.08092 0.27787
#
# Static dielectric constant tensor:
#      x y z
#    x 4.731800 0.000000 0.000000 
#    y 0.000000 4.710970 0.000000 
#    z 0.000000 0.000000 4.675680 
# 
# 
# High freq. dielectric constant tensor:
#      x y z
#    x 2.042290 0.000000 0.000000 
#    y 0.000000 2.014840 0.000000 
#    z 0.000000 0.000000 2.002100 
# 
# From -- ./inp_files/9661.got.cif
#   From: 2010.06.25/outbox.cif.g09.slc.cpg/sg43_5_cif.got.tgz:9661.got - 2010.06.26 16:48:59.
