data_PCOD8186610
_publ_section_title
;
Structure prediction by ZEFSAII (Michael W. Deem and Ramdas Pophale) SiO2 
 PCOD8186610
Probable space group: F M M 2
;
_chemical_formula_sum "Si O2"
_cell_formula_units_Z 80
_cell_length_a 18.160414
_cell_length_b 8.944673
_cell_length_c 25.416369
_cell_angle_alpha 90.000000
_cell_angle_beta 90.000000
_cell_angle_gamma 90.000000
_cell_volume 4128.608669
_symmetry_space_group_name_H-M "F M M 2"
_symmetry_group_IT_number 42
_symmetry_cell_setting 'orthorhombic'
loop_
_space_group_symop_operation_xyz
x,y,z
-x,-y,z
-x,y,z
x,-y,z
x,1/2+y,1/2+z
-x,1/2-y,1/2+z
-x,1/2+y,1/2+z
x,1/2-y,1/2+z
1/2+x,y,1/2+z
1/2-x,-y,1/2+z
1/2-x,y,1/2+z
1/2+x,-y,1/2+z
1/2+x,1/2+y,z
1/2-x,1/2-y,z
1/2-x,1/2+y,z
1/2+x,1/2-y,z
loop_
_atom_site_type_symbol
_atom_site_label
_atom_site_fract_x
_atom_site_fract_y
_atom_site_fract_z
Si Si1 0.584610 0.173091 0.631030
Si Si2 0.085738 0.172023 0.825766
Si Si3 0.828633 0.175921 0.233972
Si Si4 0.084950 0.675057 0.023230
Si Si5 0.172167 0.675265 0.430475
O O1 0.500000 0.201454 0.646895
O O2 0.634680 0.226960 0.679345
O O3 0.607732 0.272545 0.581388
O O4 0.597918 0.000000 0.617068
O O5 0.119179 0.276383 0.781331
O O6 0.120304 0.214601 0.881627
O O7 0.000000 0.206391 0.830006
O O8 0.101681 0.000000 0.811306
O O9 0.750000 0.250000 0.240547
O O10 0.818645 0.000000 0.236140
O O11 0.099578 0.500000 0.018224
O O12 0.000000 0.716315 0.012148
O O13 0.135942 0.761081 0.982806
O O14 0.183393 0.500000 0.437831
O O15 0.250000 0.750000 0.419611
#
# Coordination Sequence:
#
# PCOD8186610 Si02
#       5
#    16  16  16  16  16
#     4   9  19  37  59  82 111 150 194 237 283 336
#     4  10  22  40  62  87 114 147 188 233 283 339
#     4  11  23  38  58  85 117 153 191 233 283 336
#     4  10  21  37  59  87 116 149 191 236 282 334
#     4  11  23  39  59  84 116 152 189 232 284 339
#
# _framework density 19.376988000000001
#
# number of rings (size 3 to 8) (size 9 to 14) (size 15 to 20)
#    0.000    1.800    0.000    3.600    0.000    8.800 
#    0.000    4.000    0.000    0.000    0.000    0.000 
#    0.000    0.000    0.000    0.000    0.000    0.000 
#
# Total GULP energy -248120.090342 kJ/mol
# GULP energy per Si atom -12406.004517 kJ/mol
# Density = 1.933289 g / cm^3
# Si number density = 19.376988 Si / 1000 Ang^3
#
#
#
# Elastic Constant Matrix: (Units=GPa)
#
#
# Indices 1 2 3 4 5 6 
#
# 1 124.3928 52.4734 72.2971 0.0000 0.0000 0.0000
# 2 52.4734 84.0489 60.0715 0.0000 0.0000 0.0000
# 3 72.2971 60.0715 125.1821 0.0000 0.0000 0.0000
# 4 0.0000 0.0000 0.0000 36.4267 0.0000 0.0000
# 5 0.0000 0.0000 0.0000 0.0000 -133.7300 0.0000
# 6 0.0000 0.0000 0.0000 0.0000 0.0000 30.8715
#
#
#
# Elastic Compliance Matrix: (Units=1/GPa)
#
#
# Indices 1 2 3 4 5 6 
#
# 1 0.013002 -0.004186 -0.005500 0.000000 0.000000 0.000000
# 2 -0.004186 0.019456 -0.006919 0.000000 0.000000 0.000000
# 3 -0.005500 -0.006919 0.014485 0.000000 0.000000 0.000000
# 4 0.000000 0.000000 0.000000 0.027452 0.000000 0.000000
# 5 0.000000 0.000000 0.000000 0.000000 -0.007478 0.000000
# 6 0.000000 0.000000 0.000000 0.000000 0.000000 0.032392
#
#
# Mechanical properties :
#
#
# Convention : Reuss Voigt Hill
#
# Bulk Modulus (GPa) = 72.81861 78.14531 75.48196
# Shear Modulus (GPa) = 36.47026 -3.36758 16.55134
#
# Velocity S-wave (km/s) = 4.34307 -1.31974 2.92580
# Velocity P-wave (km/s) = 7.92535 6.17205 7.10301
#
# Compressibility (1/GPa) = 0.01373275
#
# Stress axis : x y z
#
# Youngs Moduli (GPa) = 76.91401 51.39675 69.03667
#
# Poissons Ratio (x) = 0.21515 0.37970
# Poissons Ratio (y) = 0.32197 0.47766
# Poissons Ratio (z) = 0.42303 0.35561
#
# Static dielectric constant tensor:
#      x y z
#    x 3.817250 0.000000 0.000000 
#    y 0.000000 3.567380 0.000000 
#    z 0.000000 0.000000 3.609690 
# 
# 
# High freq. dielectric constant tensor:
#      x y z
#    x 1.762170 0.000000 0.000000 
#    y 0.000000 1.760010 0.000000 
#    z 0.000000 0.000000 1.766860 
# 
# From -- ./inp_files/31261.got.cif
#   From: 2010.03.12/outbox.cif.g09.slc.cpg/sg42_16_cif.got.tgz:31261.got - 2010.04.14 02:04:31.
