data_PCOD8186830
_publ_section_title
;
Structure prediction by ZEFSAII (Michael W. Deem and Ramdas Pophale) SiO2 
 PCOD8186830
Probable space group: F M M 2
;
_chemical_formula_sum "Si O2"
_cell_formula_units_Z 96
_cell_length_a 28.715849
_cell_length_b 16.844758
_cell_length_c 9.919998
_cell_angle_alpha 90.000000
_cell_angle_beta 90.000000
_cell_angle_gamma 90.000000
_cell_volume 4798.417382
_symmetry_space_group_name_H-M "F M M 2"
_symmetry_group_IT_number 42
_symmetry_cell_setting 'orthorhombic'
loop_
_space_group_symop_operation_xyz
x,y,z
-x,-y,z
-x,y,z
x,-y,z
x,1/2+y,1/2+z
-x,1/2-y,1/2+z
-x,1/2+y,1/2+z
x,1/2-y,1/2+z
1/2+x,y,1/2+z
1/2-x,-y,1/2+z
1/2-x,y,1/2+z
1/2+x,-y,1/2+z
1/2+x,1/2+y,z
1/2-x,1/2-y,z
1/2-x,1/2+y,z
1/2+x,1/2-y,z
loop_
_atom_site_type_symbol
_atom_site_label
_atom_site_fract_x
_atom_site_fract_y
_atom_site_fract_z
Si Si1 0.852706 0.152352 0.937630
Si Si2 0.705857 0.093420 0.194326
Si Si3 0.852648 0.661772 0.960672
Si Si4 0.549979 0.326537 0.854313
Si Si5 0.949755 0.676190 0.045153
Si Si6 0.687148 0.909644 0.703867
O O1 0.819712 0.142558 0.809553
O O2 0.852064 0.243819 0.984640
O O3 0.904959 0.122361 0.898096
O O4 0.834969 0.096940 0.056661
O O5 0.759599 0.118599 0.197998
O O6 0.698870 0.000000 0.216351
O O7 0.686332 0.118706 0.049315
O O8 0.842109 0.644708 0.805167
O O9 0.904019 0.626448 0.999745
O O10 0.500000 0.372875 0.868037
O O11 0.556854 0.297531 0.700472
O O12 0.547991 0.251653 0.950338
O O13 0.000000 0.630245 0.029905
O O14 0.684080 0.000000 0.753193
#
# Coordination Sequence:
#
# PCOD8186830 Si02
#       6
#    16  16  16  16  16  16
#     4  11  22  37  61  91 116 147 192 247 289 328
#     4  11  23  41  60  81 114 160 199 231 288 355
#     4  11  22  37  61  91 116 147 192 247 289 328
#     4   9  18  33  56  87 119 150 186 233 289 345
#     4   9  18  33  56  87 119 150 186 233 289 345
#     4  11  25  41  58  81 118 160 195 233 290 357
#
# _framework density 20.006596999999999
#
# number of rings (size 3 to 8) (size 9 to 14) (size 15 to 20)
#    0.000    1.667    1.667    3.000    7.000    6.667 
#    0.000    0.000    0.000    6.000    0.000    0.000 
#    0.000    0.000    0.000    0.000    0.000    0.000 
#
# Total GULP energy -297472.610918 kJ/mol
# GULP energy per Si atom -12394.692122 kJ/mol
# Density = 1.996106 g / cm^3
# Si number density = 20.006597 Si / 1000 Ang^3
#
#
#
# Elastic Constant Matrix: (Units=GPa)
#
#
# Indices 1 2 3 4 5 6 
#
# 1 200.3718 29.4879 63.2091 0.0000 0.0000 0.0000
# 2 29.4879 36.7002 3.7774 0.0000 0.0000 0.0000
# 3 63.2091 3.7774 102.9981 0.0000 0.0000 0.0000
# 4 0.0000 0.0000 0.0000 24.9106 0.0000 0.0000
# 5 0.0000 0.0000 0.0000 0.0000 36.5653 0.0000
# 6 0.0000 0.0000 0.0000 0.0000 0.0000 1.5756
#
#
#
# Elastic Compliance Matrix: (Units=1/GPa)
#
#
# Indices 1 2 3 4 5 6 
#
# 1 0.007073 -0.005256 -0.004148 0.000000 0.000000 0.000000
# 2 -0.005256 0.031257 0.002079 0.000000 0.000000 0.000000
# 3 -0.004148 0.002079 0.012178 0.000000 0.000000 0.000000
# 4 0.000000 0.000000 0.000000 0.040144 0.000000 0.000000
# 5 0.000000 0.000000 0.000000 0.000000 0.027348 0.000000
# 6 0.000000 0.000000 0.000000 0.000000 0.000000 0.634679
#
#
# Mechanical properties :
#
#
# Convention : Reuss Voigt Hill
#
# Bulk Modulus (GPa) = 27.88720 59.22432 43.55576
# Shear Modulus (GPa) = 6.41618 28.85002 17.63310
#
# Velocity S-wave (km/s) = 1.79276 3.80152 2.97200
# Velocity P-wave (km/s) = 4.27254 6.99538 5.79612
#
# Compressibility (1/GPa) = 0.03585874
#
# Stress axis : x y z
#
# Youngs Moduli (GPa) = 141.39045 31.99310 82.11495
#
# Poissons Ratio (x) = 0.16815 0.34058
# Poissons Ratio (y) = 0.74312 -0.17073
# Poissons Ratio (z) = 0.58644 -0.06652
#
# Static dielectric constant tensor:
#      x y z
#    x 4.635530 0.000000 0.000000 
#    y 0.000000 3.111820 0.000000 
#    z 0.000000 0.000000 3.725410 
# 
# 
# High freq. dielectric constant tensor:
#      x y z
#    x 1.812640 0.000000 0.000000 
#    y 0.000000 1.727550 0.000000 
#    z 0.000000 0.000000 1.799570 
# 
# From -- ./inp_files/4185.got.cif
#   From: 2010.03.12/outbox.cif.g09.slc.cpg/sg42_3_cif.got.tgz:4185.got - 2010.04.14 02:04:31.
