data_PCOD8186857
_publ_section_title
;
Structure prediction by ZEFSAII (Michael W. Deem and Ramdas Pophale) SiO2 
 PCOD8186857
Probable space group: F M M 2
;
_chemical_formula_sum "Si O2"
_cell_formula_units_Z 112
_cell_length_a 24.661633
_cell_length_b 14.880848
_cell_length_c 14.253021
_cell_angle_alpha 90.000000
_cell_angle_beta 90.000000
_cell_angle_gamma 90.000000
_cell_volume 5230.659337
_symmetry_space_group_name_H-M "F M M 2"
_symmetry_group_IT_number 42
_symmetry_cell_setting 'orthorhombic'
loop_
_space_group_symop_operation_xyz
x,y,z
-x,-y,z
-x,y,z
x,-y,z
x,1/2+y,1/2+z
-x,1/2-y,1/2+z
-x,1/2+y,1/2+z
x,1/2-y,1/2+z
1/2+x,y,1/2+z
1/2-x,-y,1/2+z
1/2-x,y,1/2+z
1/2+x,-y,1/2+z
1/2+x,1/2+y,z
1/2-x,1/2-y,z
1/2-x,1/2+y,z
1/2+x,1/2-y,z
loop_
_atom_site_type_symbol
_atom_site_label
_atom_site_fract_x
_atom_site_fract_y
_atom_site_fract_z
Si Si1 0.130732 0.753496 0.378370
Si Si2 0.258311 0.151019 0.108595
Si Si3 0.302575 0.903876 0.777589
Si Si4 0.120454 0.330919 0.083018
Si Si5 0.706572 0.098942 0.418146
Si Si6 0.064890 0.000000 0.293603
Si Si7 0.937174 0.803359 0.225842
Si Si8 0.563278 0.500000 0.509615
O O1 0.164204 0.816797 0.306616
O O2 0.130271 0.789864 0.481738
O O3 0.154694 0.654063 0.382615
O O4 0.071910 0.753376 0.327067
O O5 0.250000 0.250000 0.147741
O O6 0.217459 0.091666 0.170068
O O7 0.322269 0.128305 0.119166
O O8 0.239168 0.145924 0.001655
O O9 0.246971 0.906078 0.832867
O O10 0.334801 0.000000 0.795510
O O11 0.097008 0.250710 0.147450
O O12 0.079959 0.413596 0.070951
O O13 0.686382 0.000000 0.448000
O O14 0.082843 0.091614 0.237235
O O15 0.086851 0.000000 0.402679
O O16 0.000000 0.000000 0.298523
O O17 0.000000 0.798962 0.198401
O O18 0.500000 0.500000 0.502508
#
# Coordination Sequence:
#
# PCOD8186857 Si02
#       8
#    16  16  16  16  16   8  16   8
#     4  12  24  44  67  98 132 185 227 289 344 420
#     4  12  22  41  62  98 137 177 219 279 343 424
#     4  11  24  38  63  94 136 178 216 271 345 417
#     4  12  25  41  72 102 138 179 232 289 356 414
#     4  11  23  41  63  92 137 180 223 270 334 416
#     4   9  20  42  72 100 132 174 232 297 352 409
#     4  11  25  46  71 101 137 178 231 298 358 411
#     4  11  24  44  72 102 134 184 250 303 343 407
#
# _framework density 21.412213999999999
#
# number of rings (size 3 to 8) (size 9 to 14) (size 15 to 20)
#    0.000    0.714    4.286    3.857    4.000    0.571 
#    2.571    0.000    0.000    0.000    0.000    0.000 
#    0.000    0.000    0.000    0.000    0.000    0.000 
#
# Total GULP energy -347036.318659 kJ/mol
# GULP energy per Si atom -12394.154238 kJ/mol
# Density = 2.136348 g / cm^3
# Si number density = 21.412214 Si / 1000 Ang^3
#
#
#
# Elastic Constant Matrix: (Units=GPa)
#
#
# Indices 1 2 3 4 5 6 
#
# 1 70.7912 47.2842 26.8152 0.0000 0.0000 0.0000
# 2 47.2842 131.0291 52.3870 0.0000 0.0000 0.0000
# 3 26.8152 52.3870 62.7546 0.0000 0.0000 0.0000
# 4 0.0000 0.0000 0.0000 222.1064 0.0000 0.0000
# 5 0.0000 0.0000 0.0000 0.0000 25.2679 0.0000
# 6 0.0000 0.0000 0.0000 0.0000 0.0000 32.2485
#
#
#
# Elastic Compliance Matrix: (Units=1/GPa)
#
#
# Indices 1 2 3 4 5 6 
#
# 1 0.019146 -0.005461 -0.003622 0.000000 0.000000 0.000000
# 2 -0.005461 0.013013 -0.008529 0.000000 0.000000 0.000000
# 3 -0.003622 -0.008529 0.024603 0.000000 0.000000 0.000000
# 4 0.000000 0.000000 0.000000 0.004502 0.000000 0.000000
# 5 0.000000 0.000000 0.000000 0.000000 0.039576 0.000000
# 6 0.000000 0.000000 0.000000 0.000000 0.000000 0.031009
#
#
# Mechanical properties :
#
#
# Convention : Reuss Voigt Hill
#
# Bulk Modulus (GPa) = 46.43313 57.50531 51.96922
# Shear Modulus (GPa) = 28.69389 65.13046 46.91217
#
# Velocity S-wave (km/s) = 3.66467 5.52118 4.68579
# Velocity P-wave (km/s) = 6.29594 8.21944 7.32114
#
# Compressibility (1/GPa) = 0.02153635
#
# Stress axis : x y z
#
# Youngs Moduli (GPa) = 52.23123 76.84800 40.64503
#
# Poissons Ratio (x) = 0.41965 0.14723
# Poissons Ratio (y) = 0.28522 0.34668
# Poissons Ratio (z) = 0.18920 0.65547
#
# Static dielectric constant tensor:
#      x y z
#    x 4.083530 0.000000 0.000000 
#    y 0.000000 -2.825760 0.000000 
#    z 0.000000 0.000000 3.912990 
# 
# 
# High freq. dielectric constant tensor:
#      x y z
#    x 1.840310 0.000000 0.000000 
#    y 0.000000 1.848950 0.000000 
#    z 0.000000 0.000000 1.841460 
# 
# From -- ./inp_files/17094.got.cif
#   From: 2010.03.12/outbox.cif.g09.slc.cpg/sg42_9_cif.got.tgz:17094.got - 2010.04.14 02:04:31.
