data_PCOD8186019
_publ_section_title
;
Structure prediction by ZEFSAII (Michael W. Deem and Ramdas Pophale) SiO2 
 PCOD8186019
Probable space group: F M M 2
;
_chemical_formula_sum "Si O2"
_cell_formula_units_Z 128
_cell_length_a 21.444931
_cell_length_b 30.733482
_cell_length_c 11.502248
_cell_angle_alpha 90.000000
_cell_angle_beta 90.000000
_cell_angle_gamma 90.000000
_cell_volume 7580.871716
_symmetry_space_group_name_H-M "F M M 2"
_symmetry_group_IT_number 42
_symmetry_cell_setting 'orthorhombic'
loop_
_space_group_symop_operation_xyz
x,y,z
-x,-y,z
-x,y,z
x,-y,z
x,1/2+y,1/2+z
-x,1/2-y,1/2+z
-x,1/2+y,1/2+z
x,1/2-y,1/2+z
1/2+x,y,1/2+z
1/2-x,-y,1/2+z
1/2-x,y,1/2+z
1/2+x,-y,1/2+z
1/2+x,1/2+y,z
1/2-x,1/2-y,z
1/2-x,1/2+y,z
1/2+x,1/2-y,z
loop_
_atom_site_type_symbol
_atom_site_label
_atom_site_fract_x
_atom_site_fract_y
_atom_site_fract_z
Si Si1 0.361120 0.839558 0.623890
Si Si2 0.925286 0.122477 0.673996
Si Si3 0.888499 0.183707 0.474358
Si Si4 0.224275 0.799096 0.310910
Si Si5 0.569219 0.278930 0.976122
Si Si6 0.426572 0.548216 0.501979
Si Si7 0.346918 0.157819 0.369098
Si Si8 0.570472 0.612172 0.308265
O O1 0.310462 0.810488 0.691396
O O2 0.417116 0.805632 0.595431
O O3 0.335452 0.859138 0.501770
O O4 0.385672 0.881001 0.696675
O O5 0.889567 0.158553 0.596665
O O6 0.911754 0.075081 0.618882
O O7 0.890181 0.123698 0.798231
O O8 0.000000 0.131027 0.683669
O O9 0.819012 0.192518 0.424297
O O10 0.923040 0.228410 0.498637
O O11 0.929173 0.156575 0.382407
O O12 0.250000 0.750000 0.310209
O O13 0.280460 0.833694 0.311825
O O14 0.500000 0.289337 0.934104
O O15 0.615825 0.295965 0.875123
O O16 0.500000 0.544915 0.486268
O O17 0.396543 0.500000 0.510570
O O18 0.400981 0.573289 0.387425
O O19 0.500000 0.601964 0.268878
#
# Coordination Sequence:
#
# PCOD8186019 Si02
#       8
#    16  16  16  16  16  16  16  16
#     4   9  22  32  48  70  95 140 175 214 252 292
#     4  10  20  33  52  78 108 133 164 213 260 307
#     4  10  20  32  48  73  97 134 177 221 253 285
#     4  11  21  37  50  66  97 137 188 230 252 285
#     4  10  19  32  46  68  98 136 174 204 252 302
#     4   8  15  30  54  82 106 130 160 198 255 319
#     4  10  23  33  49  69  99 142 176 212 251 301
#     4   9  16  30  50  74 105 129 161 212 256 302
#
# _framework density 16.884601
#
# number of rings (size 3 to 8) (size 9 to 14) (size 15 to 20)
#    0.750    1.625    1.250    2.625    3.500    0.500 
#    0.000    2.500    0.000    0.750    0.000   11.375 
#    0.000    0.000    0.000    0.000    0.000    0.000 
#
# Total GULP energy -396490.903097 kJ/mol
# GULP energy per Si atom -12390.340722 kJ/mol
# Density = 1.684617 g / cm^3
# Si number density = 16.884601 Si / 1000 Ang^3
#
#
#
# Elastic Constant Matrix: (Units=GPa)
#
#
# Indices 1 2 3 4 5 6 
#
# 1 82.8204 21.8290 30.7817 0.0000 0.0000 0.0000
# 2 21.8290 93.8624 37.1428 0.0000 0.0000 0.0000
# 3 30.7817 37.1428 92.6462 0.0000 0.0000 0.0000
# 4 0.0000 0.0000 0.0000 12.5096 0.0000 0.0000
# 5 0.0000 0.0000 0.0000 0.0000 29.7430 0.0000
# 6 0.0000 0.0000 0.0000 0.0000 0.0000 11.0864
#
#
#
# Elastic Compliance Matrix: (Units=1/GPa)
#
#
# Indices 1 2 3 4 5 6 
#
# 1 0.013995 -0.001681 -0.003976 0.000000 0.000000 0.000000
# 2 -0.001681 0.012865 -0.004599 0.000000 0.000000 0.000000
# 3 -0.003976 -0.004599 0.013958 0.000000 0.000000 0.000000
# 4 0.000000 0.000000 0.000000 0.079939 0.000000 0.000000
# 5 0.000000 0.000000 0.000000 0.000000 0.033621 0.000000
# 6 0.000000 0.000000 0.000000 0.000000 0.000000 0.090201
#
#
# Mechanical properties :
#
#
# Convention : Reuss Voigt Hill
#
# Bulk Modulus (GPa) = 49.24647 49.87065 49.55856
# Shear Modulus (GPa) = 18.39179 22.63951 20.51565
#
# Velocity S-wave (km/s) = 3.30398 3.66572 3.48954
# Velocity P-wave (km/s) = 6.61701 6.89325 6.75655
#
# Compressibility (1/GPa) = 0.02030603
#
# Stress axis : x y z
#
# Youngs Moduli (GPa) = 71.45316 77.73135 71.64115
#
# Poissons Ratio (x) = 0.13071 0.28483
# Poissons Ratio (y) = 0.12015 0.32947
# Poissons Ratio (z) = 0.28408 0.35748
#
# Static dielectric constant tensor:
#      x y z
#    x 3.068050 0.000000 0.000000 
#    y 0.000000 3.091630 0.000000 
#    z 0.000000 0.000000 3.166680 
# 
# 
# High freq. dielectric constant tensor:
#      x y z
#    x 1.641940 0.000000 0.000000 
#    y 0.000000 1.614710 0.000000 
#    z 0.000000 0.000000 1.648530 
# 
# From -- ./inp_files/10422.got.cif
#   From: 2010.03.12/outbox.cif.g09.slc.cpg/sg42_6_cif.got.tgz:10422.got - 2010.04.14 02:04:31.
