data_PCOD8186517
_publ_section_title
;
Structure prediction by ZEFSAII (Michael W. Deem and Ramdas Pophale) SiO2 
 PCOD8186517
Probable space group: F M M 2
;
_chemical_formula_sum "Si O2"
_cell_formula_units_Z 112
_cell_length_a 18.731037
_cell_length_b 23.109231
_cell_length_c 12.366458
_cell_angle_alpha 90.000000
_cell_angle_beta 90.000000
_cell_angle_gamma 90.000000
_cell_volume 5352.943290
_symmetry_space_group_name_H-M "F M M 2"
_symmetry_group_IT_number 42
_symmetry_cell_setting 'orthorhombic'
loop_
_space_group_symop_operation_xyz
x,y,z
-x,-y,z
-x,y,z
x,-y,z
x,1/2+y,1/2+z
-x,1/2-y,1/2+z
-x,1/2+y,1/2+z
x,1/2-y,1/2+z
1/2+x,y,1/2+z
1/2-x,-y,1/2+z
1/2-x,y,1/2+z
1/2+x,-y,1/2+z
1/2+x,1/2+y,z
1/2-x,1/2-y,z
1/2-x,1/2+y,z
1/2+x,1/2-y,z
loop_
_atom_site_type_symbol
_atom_site_label
_atom_site_fract_x
_atom_site_fract_y
_atom_site_fract_z
Si Si1 0.917980 0.867214 0.016990
Si Si2 0.343041 0.065186 0.326355
Si Si3 0.175148 0.861457 0.618557
Si Si4 0.420103 0.435641 0.221356
Si Si5 0.203579 0.197654 0.245634
Si Si6 0.309101 0.906491 0.890020
Si Si7 0.582922 0.749970 0.613662
O O1 0.886581 0.892415 0.131210
O O2 0.910934 0.797058 0.015509
O O3 0.000000 0.886896 0.009786
O O4 0.877844 0.895155 0.917576
O O5 0.356034 0.099345 0.215024
O O6 0.259894 0.057725 0.353504
O O7 0.375749 0.000000 0.320548
O O8 0.252315 0.834034 0.648391
O O9 0.183814 0.905609 0.519071
O O10 0.118657 0.811388 0.584995
O O11 0.500000 0.415903 0.250527
O O12 0.418627 0.500000 0.171583
O O13 0.376883 0.435544 0.333066
O O14 0.250000 0.250000 0.289379
O O15 0.195745 0.159213 0.351018
O O16 0.125677 0.220733 0.212257
O O17 0.500000 0.740878 0.646051
#
# Coordination Sequence:
#
# PCOD8186517 Si02
#       7
#    16  16  16  16  16  16  16
#     4  10  21  41  67  94 122 160 213 269 316 362
#     4  11  25  42  64  93 127 170 219 264 313 379
#     4  10  24  40  58  91 132 167 202 250 325 387
#     4  10  21  38  62  91 120 155 206 264 319 367
#     4   9  19  36  58  86 123 163 201 257 308 368
#     4  11  22  38  61  89 123 166 207 257 314 376
#     4  10  20  38  65  94 123 160 211 263 311 375
#
# _framework density 20.923068000000001
#
# number of rings (size 3 to 8) (size 9 to 14) (size 15 to 20)
#    0.000    1.857    1.429    1.714    2.000    8.286 
#    0.000    1.429    0.000    0.000    0.000    0.000 
#    0.000    0.000    0.000    0.000    0.000    0.000 
#
# Total GULP energy -347123.106406 kJ/mol
# GULP energy per Si atom -12397.253800 kJ/mol
# Density = 2.087545 g / cm^3
# Si number density = 20.923068 Si / 1000 Ang^3
#
#
#
# Elastic Constant Matrix: (Units=GPa)
#
#
# Indices 1 2 3 4 5 6 
#
# 1 100.4192 26.2580 27.0358 0.0000 0.0000 0.0000
# 2 26.2580 113.2288 32.2955 0.0000 0.0000 0.0000
# 3 27.0358 32.2955 112.0606 0.0000 0.0000 0.0000
# 4 0.0000 0.0000 0.0000 16.0964 0.0000 0.0000
# 5 0.0000 0.0000 0.0000 0.0000 26.3194 0.0000
# 6 0.0000 0.0000 0.0000 0.0000 0.0000 26.2478
#
#
#
# Elastic Compliance Matrix: (Units=1/GPa)
#
#
# Indices 1 2 3 4 5 6 
#
# 1 0.011036 -0.001961 -0.002097 0.000000 0.000000 0.000000
# 2 -0.001961 0.009971 -0.002401 0.000000 0.000000 0.000000
# 3 -0.002097 -0.002401 0.010122 0.000000 0.000000 0.000000
# 4 0.000000 0.000000 0.000000 0.062126 0.000000 0.000000
# 5 0.000000 0.000000 0.000000 0.000000 0.037995 0.000000
# 6 0.000000 0.000000 0.000000 0.000000 0.000000 0.038098
#
#
# Mechanical properties :
#
#
# Convention : Reuss Voigt Hill
#
# Bulk Modulus (GPa) = 54.91283 55.20967 55.06125
# Shear Modulus (GPa) = 26.54841 29.74068 28.14455
#
# Velocity S-wave (km/s) = 3.56597 3.77428 3.67160
# Velocity P-wave (km/s) = 6.57700 6.74076 6.65938
#
# Compressibility (1/GPa) = 0.01821068
#
# Stress axis : x y z
#
# Youngs Moduli (GPa) = 90.61517 100.28961 98.79891
#
# Poissons Ratio (x) = 0.19667 0.20721
# Poissons Ratio (y) = 0.17770 0.23717
# Poissons Ratio (z) = 0.19005 0.24075
#
# Static dielectric constant tensor:
#      x y z
#    x 3.890960 0.000000 0.000000 
#    y 0.000000 3.916520 0.000000 
#    z 0.000000 0.000000 3.449640 
# 
# 
# High freq. dielectric constant tensor:
#      x y z
#    x 1.819870 0.000000 0.000000 
#    y 0.000000 1.831970 0.000000 
#    z 0.000000 0.000000 1.794340 
# 
# From -- ./inp_files/9676.got.cif
#   From: 2010.03.12/outbox.cif.g09.slc.cpg/sg42_5_cif.got.tgz:9676.got - 2010.04.14 02:04:31.
