data_PCOD8186528
_publ_section_title
;
Structure prediction by ZEFSAII (Michael W. Deem and Ramdas Pophale) SiO2 
 PCOD8186528
Probable space group: F M M 2
;
_chemical_formula_sum "Si O2"
_cell_formula_units_Z 64
_cell_length_a 10.331824
_cell_length_b 20.772540
_cell_length_c 14.419686
_cell_angle_alpha 90.000000
_cell_angle_beta 90.000000
_cell_angle_gamma 90.000000
_cell_volume 3094.727448
_symmetry_space_group_name_H-M "F M M 2"
_symmetry_group_IT_number 42
_symmetry_cell_setting 'orthorhombic'
loop_
_space_group_symop_operation_xyz
x,y,z
-x,-y,z
-x,y,z
x,-y,z
x,1/2+y,1/2+z
-x,1/2-y,1/2+z
-x,1/2+y,1/2+z
x,1/2-y,1/2+z
1/2+x,y,1/2+z
1/2-x,-y,1/2+z
1/2-x,y,1/2+z
1/2+x,-y,1/2+z
1/2+x,1/2+y,z
1/2-x,1/2-y,z
1/2-x,1/2+y,z
1/2+x,1/2-y,z
loop_
_atom_site_type_symbol
_atom_site_label
_atom_site_fract_x
_atom_site_fract_y
_atom_site_fract_z
Si Si1 0.802063 0.500000 0.630291
Si Si2 0.000000 0.254429 0.805801
Si Si3 0.000000 0.000000 0.291451
Si Si4 0.500000 0.137574 0.444628
Si Si5 0.762524 0.370371 0.058010
Si Si6 0.250000 0.250000 0.182868
Si Si7 0.500000 0.621553 0.424514
Si Si8 0.000000 0.500000 0.466505
O O1 0.875873 0.500000 0.726600
O O2 0.727038 0.567634 0.626121
O O3 0.878298 0.500000 0.533761
O O4 0.000000 0.185474 0.857629
O O5 0.872790 0.266515 0.745584
O O6 0.000000 0.307997 0.883173
O O7 0.000000 0.064467 0.350784
O O8 0.375302 0.145170 0.510444
O O9 0.500000 0.064345 0.403236
O O10 0.795615 0.309319 0.120433
O O11 0.869924 0.383904 0.982180
#
# Coordination Sequence:
#
# PCOD8186528 Si02
#       8
#     8   8   4   8  16   8   8   4
#     4   9  19  37  62  88 117 154 196 238 293 354
#     4  12  24  39  59  92 123 154 200 256 302 343
#     4  11  22  40  64  93 122 154 196 255 302 344
#     4  10  20  39  63  87 117 157 205 249 292 354
#     4  11  22  41  63  87 119 164 203 239 295 368
#     4  12  24  40  60  86 122 162 200 248 302 356
#     4  12  24  39  62  93 122 155 200 251 298 352
#     4   7  16  34  60  85 112 154 194 227 284 358
#
# _framework density 20.680334999999999
#
# number of rings (size 3 to 8) (size 9 to 14) (size 15 to 20)
#    0.000    1.250    0.000    7.500    0.000    0.000 
#    0.000    1.250    0.000    1.500    0.000    0.000 
#    0.000    0.000    0.000    0.000    0.000    0.000 
#
# Total GULP energy -198340.838329 kJ/mol
# GULP energy per Si atom -12396.302396 kJ/mol
# Density = 2.063327 g / cm^3
# Si number density = 20.680335 Si / 1000 Ang^3
#
#
#
# Elastic Constant Matrix: (Units=GPa)
#
#
# Indices 1 2 3 4 5 6 
#
# 1 123.6312 10.7705 45.5594 0.0000 0.0000 0.0000
# 2 10.7705 169.6903 61.2154 0.0000 0.0000 0.0000
# 3 45.5594 61.2154 107.6675 0.0000 0.0000 0.0000
# 4 0.0000 0.0000 0.0000 36.6262 0.0000 0.0000
# 5 0.0000 0.0000 0.0000 0.0000 58.1810 0.0000
# 6 0.0000 0.0000 0.0000 0.0000 0.0000 26.4008
#
#
#
# Elastic Compliance Matrix: (Units=1/GPa)
#
#
# Indices 1 2 3 4 5 6 
#
# 1 0.009741 0.001093 -0.004743 0.000000 0.000000 0.000000
# 2 0.001093 0.007536 -0.004747 0.000000 0.000000 0.000000
# 3 -0.004743 -0.004747 0.013994 0.000000 0.000000 0.000000
# 4 0.000000 0.000000 0.000000 0.027303 0.000000 0.000000
# 5 0.000000 0.000000 0.000000 0.000000 0.017188 0.000000
# 6 0.000000 0.000000 0.000000 0.000000 0.000000 0.037878
#
#
# Mechanical properties :
#
#
# Convention : Reuss Voigt Hill
#
# Bulk Modulus (GPa) = 69.07912 70.67551 69.87732
# Shear Modulus (GPa) = 36.96558 43.13786 40.05172
#
# Velocity S-wave (km/s) = 4.23244 4.57216 4.40558
# Velocity P-wave (km/s) = 7.57367 7.88177 7.72926
#
# Compressibility (1/GPa) = 0.01447615
#
# Stress axis : x y z
#
# Youngs Moduli (GPa) = 102.65516 132.69133 71.45860
#
# Poissons Ratio (x) = -0.14501 0.33896
# Poissons Ratio (y) = -0.11219 0.33923
# Poissons Ratio (z) = 0.48693 0.62992
#
# Static dielectric constant tensor:
#      x y z
#    x 3.574750 0.000000 0.000000 
#    y 0.000000 4.275000 0.000000 
#    z 0.000000 0.000000 3.599440 
# 
# 
# High freq. dielectric constant tensor:
#      x y z
#    x 1.810270 0.000000 0.000000 
#    y 0.000000 1.839160 0.000000 
#    z 0.000000 0.000000 1.801840 
# 
# From -- ./inp_files/11939.got.cif
#   From: 2010.03.12/outbox.cif.g09.slc.cpg/sg42_6_cif.got.tgz:11939.got - 2010.04.14 02:04:31.
