data_PCOD8186931
_publ_section_title
;
Structure prediction by ZEFSAII (Michael W. Deem and Ramdas Pophale) SiO2 
 PCOD8186931
Probable space group: F D D 2
;
_chemical_formula_sum "Si O2"
_cell_formula_units_Z 56
_cell_length_a 7.595229
_cell_length_b 21.579565
_cell_length_c 17.698437
_cell_angle_alpha 90.000000
_cell_angle_beta 90.000000
_cell_angle_gamma 90.000000
_cell_volume 2900.804582
_symmetry_space_group_name_H-M "F D D 2"
_symmetry_group_IT_number 43
_symmetry_cell_setting 'orthorhombic'
loop_
_space_group_symop_operation_xyz
x,y,z
-x,-y,z
1/4-x,1/4+y,1/4+z
1/4+x,1/4-y,1/4+z
x,1/2+y,1/2+z
-x,1/2-y,1/2+z
1/4-x,3/4+y,3/4+z
1/4+x,3/4-y,3/4+z
1/2+x,y,1/2+z
1/2-x,-y,1/2+z
3/4-x,1/4+y,3/4+z
3/4+x,1/4-y,3/4+z
1/2+x,1/2+y,z
1/2-x,1/2-y,z
3/4-x,3/4+y,1/4+z
3/4+x,3/4-y,1/4+z
loop_
_atom_site_type_symbol
_atom_site_label
_atom_site_fract_x
_atom_site_fract_y
_atom_site_fract_z
Si Si1 0.500000 0.500000 0.019910
Si Si2 0.958374 0.760568 0.888505
Si Si3 0.887575 0.639310 0.179514
Si Si4 0.618539 0.806499 0.025575
O O1 0.325470 0.511386 0.069121
O O2 0.485578 0.439484 0.968900
O O3 0.750000 0.750000 0.871683
O O4 0.786024 0.634198 0.986963
O O5 0.016514 0.720433 0.962668
O O6 0.759748 0.583101 0.154740
O O7 0.972307 0.669751 0.102853
O O8 0.750000 0.750000 0.045351
#
# Coordination Sequence:
#
# PCOD8186931 Si02
#       4
#     8  16  16  16
#     4  12  20  36  66  86 108 156 204 226 290 346
#     4   9  22  40  55  84 121 149 191 241 285 339
#     4  10  18  34  59  83 112 152 189 234 287 342
#     4   9  18  35  56  76 119 150 180 237 292 326
#
# _framework density 19.304988999999999
#
# number of rings (size 3 to 8) (size 9 to 14) (size 15 to 20)
#    0.000    2.857    4.286    0.000    0.000    0.000 
#   10.286    0.000    3.143    0.000    0.000    0.000 
#    0.000    0.000    0.000    0.000    0.000    0.000 
#
# Total GULP energy -173440.827065 kJ/mol
# GULP energy per Si atom -12388.630505 kJ/mol
# Density = 1.926105 g / cm^3
# Si number density = 19.304989 Si / 1000 Ang^3
#
#
#
# Elastic Constant Matrix: (Units=GPa)
#
#
# Indices 1 2 3 4 5 6 
#
# 1 51.2122 30.0029 40.5671 0.0000 0.0000 0.0000
# 2 30.0029 141.4422 68.4419 0.0000 0.0000 0.0000
# 3 40.5671 68.4419 147.2177 0.0000 0.0000 0.0000
# 4 0.0000 0.0000 0.0000 21.7743 0.0000 0.0000
# 5 0.0000 0.0000 0.0000 0.0000 22.0692 0.0000
# 6 0.0000 0.0000 0.0000 0.0000 0.0000 18.2158
#
#
#
# Elastic Compliance Matrix: (Units=1/GPa)
#
#
# Indices 1 2 3 4 5 6 
#
# 1 0.025706 -0.002613 -0.005869 0.000000 0.000000 0.000000
# 2 -0.002613 0.009388 -0.003644 0.000000 0.000000 0.000000
# 3 -0.005869 -0.003644 0.010104 0.000000 0.000000 0.000000
# 4 0.000000 0.000000 0.000000 0.045926 0.000000 0.000000
# 5 0.000000 0.000000 0.000000 0.000000 0.045312 0.000000
# 6 0.000000 0.000000 0.000000 0.000000 0.000000 0.054897
#
#
# Mechanical properties :
#
#
# Convention : Reuss Voigt Hill
#
# Bulk Modulus (GPa) = 47.74209 68.65510 58.19859
# Shear Modulus (GPa) = 22.46508 25.80254 24.13381
#
# Velocity S-wave (km/s) = 3.41500 3.65988 3.53956
# Velocity P-wave (km/s) = 6.35088 7.31439 6.84960
#
# Compressibility (1/GPa) = 0.02094588
#
# Stress axis : x y z
#
# Youngs Moduli (GPa) = 38.90088 106.52174 98.96944
#
# Poissons Ratio (x) = 0.27834 0.58083
# Poissons Ratio (y) = 0.10165 0.36068
# Poissons Ratio (z) = 0.22830 0.38820
#
# Static dielectric constant tensor:
#      x y z
#    x 2.845470 0.000000 0.000000 
#    y 0.000000 3.821120 0.000000 
#    z 0.000000 0.000000 3.813360 
# 
# 
# High freq. dielectric constant tensor:
#      x y z
#    x 1.678440 0.000000 0.000000 
#    y 0.000000 1.773230 0.000000 
#    z 0.000000 0.000000 1.773990 
# 
# From -- ./inp_files/12418.got.cif
#   From: 2010.06.25/outbox.cif.g09.slc.cpg/sg43_7_cif.got.tgz:12418.got - 2010.06.26 16:48:59.
