data_PCOD8186445
_publ_section_title
;
Structure prediction by ZEFSAII (Michael W. Deem and Ramdas Pophale) SiO2 
 PCOD8186445
Probable space group: F M M 2
;
_chemical_formula_sum "Si O2"
_cell_formula_units_Z 72
_cell_length_a 10.771045
_cell_length_b 24.158610
_cell_length_c 14.296375
_cell_angle_alpha 90.000000
_cell_angle_beta 90.000000
_cell_angle_gamma 90.000000
_cell_volume 3720.109425
_symmetry_space_group_name_H-M "F M M 2"
_symmetry_group_IT_number 42
_symmetry_cell_setting 'orthorhombic'
loop_
_space_group_symop_operation_xyz
x,y,z
-x,-y,z
-x,y,z
x,-y,z
x,1/2+y,1/2+z
-x,1/2-y,1/2+z
-x,1/2+y,1/2+z
x,1/2-y,1/2+z
1/2+x,y,1/2+z
1/2-x,-y,1/2+z
1/2-x,y,1/2+z
1/2+x,-y,1/2+z
1/2+x,1/2+y,z
1/2-x,1/2-y,z
1/2-x,1/2+y,z
1/2+x,1/2-y,z
loop_
_atom_site_type_symbol
_atom_site_label
_atom_site_fract_x
_atom_site_fract_y
_atom_site_fract_z
Si Si1 0.757206 0.371665 0.479330
Si Si2 0.500000 0.852554 0.235669
Si Si3 0.201516 0.062205 0.800155
Si Si4 0.000000 0.303074 0.431773
Si Si5 0.362734 0.062087 0.634304
Si Si6 0.000000 0.682711 0.019869
O O1 0.767229 0.420813 0.404918
O O2 0.872679 0.330759 0.465989
O O3 0.765660 0.399599 0.580401
O O4 0.623291 0.343238 0.474347
O O5 0.383994 0.893018 0.248757
O O6 0.500000 0.804862 0.317191
O O7 0.500000 0.822688 0.133687
O O8 0.330106 0.062187 0.743639
O O9 0.142714 0.000000 0.800058
O O10 0.000000 0.244524 0.482016
O O11 0.500000 0.086649 0.620864
O O12 0.355875 0.000000 0.593961
#
# Coordination Sequence:
#
# PCOD8186445 Si02
#       6
#    16   8  16   8  16   8
#     4  11  22  41  63  89 126 158 207 256 306 361
#     4  10  21  42  66  88 122 160 207 262 306 367
#     4  10  21  38  61  92 126 163 198 244 307 377
#     4  10  24  45  63  85 118 169 215 248 311 377
#     4  10  20  36  59  89 124 164 200 238 302 378
#     4  12  24  43  63  95 122 157 213 272 311 348
#
# _framework density 19.354268000000001
#
# number of rings (size 3 to 8) (size 9 to 14) (size 15 to 20)
#    0.000    1.556    3.333    1.667    1.556    0.000 
#    4.000    3.889    0.000    0.000    0.000    0.000 
#    0.000    0.000    0.000    0.000    0.000    0.000 
#
# Total GULP energy -223046.722646 kJ/mol
# GULP energy per Si atom -12391.484591 kJ/mol
# Density = 1.931022 g / cm^3
# Si number density = 19.354268 Si / 1000 Ang^3
#
#
#
# Elastic Constant Matrix: (Units=GPa)
#
#
# Indices 1 2 3 4 5 6 
#
# 1 131.3337 48.7711 33.5027 0.0000 0.0000 0.0000
# 2 48.7711 117.4950 61.9992 0.0000 0.0000 0.0000
# 3 33.5027 61.9992 103.2071 0.0000 0.0000 0.0000
# 4 0.0000 0.0000 0.0000 36.0183 0.0000 0.0000
# 5 0.0000 0.0000 0.0000 0.0000 21.0533 0.0000
# 6 0.0000 0.0000 0.0000 0.0000 0.0000 17.2182
#
#
#
# Elastic Compliance Matrix: (Units=1/GPa)
#
#
# Indices 1 2 3 4 5 6 
#
# 1 0.009072 -0.003238 -0.001000 0.000000 0.000000 0.000000
# 2 -0.003238 0.013617 -0.007129 0.000000 0.000000 0.000000
# 3 -0.001000 -0.007129 0.014296 0.000000 0.000000 0.000000
# 4 0.000000 0.000000 0.000000 0.027764 0.000000 0.000000
# 5 0.000000 0.000000 0.000000 0.000000 0.047499 0.000000
# 6 0.000000 0.000000 0.000000 0.000000 0.000000 0.058078
#
#
# Mechanical properties :
#
#
# Convention : Reuss Voigt Hill
#
# Bulk Modulus (GPa) = 70.16742 71.17575 70.67159
# Shear Modulus (GPa) = 25.27694 28.70879 26.99287
#
# Velocity S-wave (km/s) = 3.61780 3.85558 3.73858
# Velocity P-wave (km/s) = 7.33378 7.52833 7.43169
#
# Compressibility (1/GPa) = 0.01425163
#
# Stress axis : x y z
#
# Youngs Moduli (GPa) = 110.23329 73.43858 69.94860
#
# Poissons Ratio (x) = 0.23780 0.06992
# Poissons Ratio (y) = 0.35695 0.49865
# Poissons Ratio (z) = 0.11019 0.52353
#
# Static dielectric constant tensor:
#      x y z
#    x 3.847290 0.000000 0.000000 
#    y 0.000000 3.438780 0.000000 
#    z 0.000000 0.000000 3.546650 
# 
# 
# High freq. dielectric constant tensor:
#      x y z
#    x 1.760690 0.000000 0.000000 
#    y 0.000000 1.745590 0.000000 
#    z 0.000000 0.000000 1.760080 
# 
# From -- ./inp_files/6877.got.cif
#   From: 2010.03.12/outbox.cif.g09.slc.cpg/sg42_4_cif.got.tgz:6877.got - 2010.04.14 02:04:31.
