data_PCOD8186650
_publ_section_title
;
Structure prediction by ZEFSAII (Michael W. Deem and Ramdas Pophale) SiO2 
 PCOD8186650
Probable space group: F M M 2
;
_chemical_formula_sum "Si O2"
_cell_formula_units_Z 64
_cell_length_a 10.084467
_cell_length_b 15.966179
_cell_length_c 20.778986
_cell_angle_alpha 90.000000
_cell_angle_beta 90.000000
_cell_angle_gamma 90.000000
_cell_volume 3345.632956
_symmetry_space_group_name_H-M "F M M 2"
_symmetry_group_IT_number 42
_symmetry_cell_setting 'orthorhombic'
loop_
_space_group_symop_operation_xyz
x,y,z
-x,-y,z
-x,y,z
x,-y,z
x,1/2+y,1/2+z
-x,1/2-y,1/2+z
-x,1/2+y,1/2+z
x,1/2-y,1/2+z
1/2+x,y,1/2+z
1/2-x,-y,1/2+z
1/2-x,y,1/2+z
1/2+x,-y,1/2+z
1/2+x,1/2+y,z
1/2-x,1/2-y,z
1/2-x,1/2+y,z
1/2+x,1/2-y,z
loop_
_atom_site_type_symbol
_atom_site_label
_atom_site_fract_x
_atom_site_fract_y
_atom_site_fract_z
Si Si1 0.255667 0.409139 0.167570
Si Si2 0.156710 0.402387 0.027224
Si Si3 0.750000 0.250000 0.942262
Si Si4 0.500000 0.689493 0.222481
Si Si5 0.000000 0.266753 0.352863
Si Si6 0.500000 0.371626 0.736096
O O1 0.322699 0.500000 0.160807
O O2 0.202703 0.378967 0.098824
O O3 0.365790 0.348884 0.195770
O O4 0.132705 0.419855 0.216485
O O5 0.191729 0.500000 0.010077
O O6 0.000000 0.388451 0.020791
O O7 0.232717 0.335600 0.982717
O O8 0.873918 0.236782 0.897210
O O9 0.500000 0.689442 0.301026
O O10 0.500000 0.784116 0.196735
O O11 0.000000 0.354278 0.313006
#
# Coordination Sequence:
#
# PCOD8186650 Si02
#       6
#    16  16   8   8   8   8
#     4  11  21  38  62  95 125 154 198 257 323 373
#     4  10  23  41  64  95 128 162 209 260 313 381
#     4  12  22  42  68  88 120 182 208 252 312 358
#     4  10  23  38  61  86 129 156 196 262 304 362
#     4  10  24  40  60  90 124 160 220 254 286 380
#     4  10  21  38  63  82 123 160 200 258 304 362
#
# _framework density 19.129414000000001
#
# number of rings (size 3 to 8) (size 9 to 14) (size 15 to 20)
#    0.750    0.750    2.500    3.000    3.500    1.000 
#    0.000    9.375    0.000    0.000    0.000    0.000 
#    0.000    0.000    0.000    0.000    0.000    0.000 
#
# Total GULP energy -198274.381819 kJ/mol
# GULP energy per Si atom -12392.148864 kJ/mol
# Density = 1.908587 g / cm^3
# Si number density = 19.129414 Si / 1000 Ang^3
#
#
#
# Elastic Constant Matrix: (Units=GPa)
#
#
# Indices 1 2 3 4 5 6 
#
# 1 124.9753 44.1988 50.6821 0.0000 0.0000 0.0000
# 2 44.1988 108.4159 56.6474 0.0000 0.0000 0.0000
# 3 50.6821 56.6474 122.7649 0.0000 0.0000 0.0000
# 4 0.0000 0.0000 0.0000 16.8677 0.0000 0.0000
# 5 0.0000 0.0000 0.0000 0.0000 45.8995 0.0000
# 6 0.0000 0.0000 0.0000 0.0000 0.0000 20.5913
#
#
#
# Elastic Compliance Matrix: (Units=1/GPa)
#
#
# Indices 1 2 3 4 5 6 
#
# 1 0.010123 -0.002561 -0.002998 0.000000 0.000000 0.000000
# 2 -0.002561 0.012802 -0.004850 0.000000 0.000000 0.000000
# 3 -0.002998 -0.004850 0.011621 0.000000 0.000000 0.000000
# 4 0.000000 0.000000 0.000000 0.059285 0.000000 0.000000
# 5 0.000000 0.000000 0.000000 0.000000 0.021787 0.000000
# 6 0.000000 0.000000 0.000000 0.000000 0.000000 0.048564
#
#
# Mechanical properties :
#
#
# Convention : Reuss Voigt Hill
#
# Bulk Modulus (GPa) = 72.83672 73.24585 73.04129
# Shear Modulus (GPa) = 26.37487 30.31353 28.34420
#
# Velocity S-wave (km/s) = 3.71719 3.98509 3.85347
# Velocity P-wave (km/s) = 7.52209 7.71669 7.62001
#
# Compressibility (1/GPa) = 0.01372934
#
# Stress axis : x y z
#
# Youngs Moduli (GPa) = 98.78705 78.11414 86.05045
#
# Poissons Ratio (x) = 0.20002 0.25794
# Poissons Ratio (y) = 0.25296 0.41734
# Poissons Ratio (z) = 0.29612 0.37885
#
# Static dielectric constant tensor:
#      x y z
#    x 3.492090 0.000000 0.000000 
#    y 0.000000 3.546250 0.000000 
#    z 0.000000 0.000000 3.500350 
# 
# 
# High freq. dielectric constant tensor:
#      x y z
#    x 1.751910 0.000000 0.000000 
#    y 0.000000 1.747490 0.000000 
#    z 0.000000 0.000000 1.740790 
# 
# From -- ./inp_files/23210.got.cif
#   From: 2010.03.12/outbox.cif.g09.slc.cpg/sg42_12_cif.got.tgz:23210.got - 2010.04.14 02:04:31.
