data_PCOD8186854
_publ_section_title
;
Structure prediction by ZEFSAII (Michael W. Deem and Ramdas Pophale) SiO2 
 PCOD8186854
Probable space group: F M M 2
;
_chemical_formula_sum "Si O2"
_cell_formula_units_Z 64
_cell_length_a 17.760321
_cell_length_b 7.645758
_cell_length_c 24.273161
_cell_angle_alpha 90.000000
_cell_angle_beta 90.000000
_cell_angle_gamma 90.000000
_cell_volume 3296.079630
_symmetry_space_group_name_H-M "F M M 2"
_symmetry_group_IT_number 42
_symmetry_cell_setting 'orthorhombic'
loop_
_space_group_symop_operation_xyz
x,y,z
-x,-y,z
-x,y,z
x,-y,z
x,1/2+y,1/2+z
-x,1/2-y,1/2+z
-x,1/2+y,1/2+z
x,1/2-y,1/2+z
1/2+x,y,1/2+z
1/2-x,-y,1/2+z
1/2-x,y,1/2+z
1/2+x,-y,1/2+z
1/2+x,1/2+y,z
1/2-x,1/2-y,z
1/2-x,1/2+y,z
1/2+x,1/2-y,z
loop_
_atom_site_type_symbol
_atom_site_label
_atom_site_fract_x
_atom_site_fract_y
_atom_site_fract_z
Si Si1 0.911126 0.307367 0.308790
Si Si2 0.584475 0.794480 0.690907
Si Si3 0.089215 0.000000 0.508648
Si Si4 0.410127 0.000000 0.884138
Si Si5 0.663282 0.705182 0.079296
O O1 0.890185 0.500000 0.330600
O O2 0.879337 0.283647 0.246804
O O3 0.877426 0.169445 0.352188
O O4 0.000000 0.277726 0.304542
O O5 0.500000 0.721401 0.680086
O O6 0.637022 0.739073 0.640245
O O7 0.581300 0.000000 0.698325
O O8 0.120298 0.000000 0.446200
O O9 0.117689 0.821402 0.536081
O O10 0.000000 0.000000 0.510739
O O11 0.500000 0.000000 0.884358
O O12 0.647344 0.500000 0.067645
O O13 0.750000 0.750000 0.073171
#
# Coordination Sequence:
#
# PCOD8186854 Si02
#       5
#    16  16   8   8  16
#     4   9  16  27  49  81 114 148 184 233 295 346
#     4   9  17  31  54  85 120 149 185 241 293 348
#     4  11  24  40  63  90 119 157 203 254 293 346
#     4   9  18  34  51  78 116 147 187 240 290 338
#     4  11  23  40  60  87 119 163 200 243 301 360
#
# _framework density 19.417006000000001
#
# number of rings (size 3 to 8) (size 9 to 14) (size 15 to 20)
#    0.000    2.250    2.500    0.750    1.750    2.500 
#    0.000    2.500    0.000    1.500    0.000    0.000 
#    0.000    0.000    0.000    0.000    0.000    0.000 
#
# Total GULP energy -198371.071015 kJ/mol
# GULP energy per Si atom -12398.191938 kJ/mol
# Density = 1.937281 g / cm^3
# Si number density = 19.417006 Si / 1000 Ang^3
#
#
#
# Elastic Constant Matrix: (Units=GPa)
#
#
# Indices 1 2 3 4 5 6 
#
# 1 56.5006 25.0077 35.2258 0.0001 0.0000 -0.0002
# 2 25.0077 141.9630 93.7833 0.0001 0.0000 -0.0005
# 3 35.2258 93.7833 170.6488 0.0000 0.0000 0.0000
# 4 0.0001 0.0001 0.0000 24.9527 0.0000 -0.0001
# 5 0.0000 0.0000 0.0000 0.0000 -0.0317 0.0000
# 6 -0.0002 -0.0005 0.0000 -0.0001 0.0000 15.6772
#
#
#
# Elastic Compliance Matrix: (Units=1/GPa)
#
#
# Indices 1 2 3 4 5 6 
#
# 1 0.020460 -0.001278 -0.003521 0.000000 -0.000008 0.000000
# 2 -0.001278 0.011139 -0.005858 0.000000 -0.000003 0.000000
# 3 -0.003521 -0.005858 0.009806 0.000000 0.000003 0.000000
# 4 0.000000 0.000000 0.000000 0.040076 -0.000002 0.000000
# 5 -0.000008 -0.000003 0.000003 -0.000002-31.515551 0.000025
# 6 0.000000 0.000000 0.000000 0.000000 0.000025 0.063787
#
#
# Mechanical properties :
#
#
# Convention : Reuss Voigt Hill
#
# Bulk Modulus (GPa) = 49.77333 75.23846 62.50590
# Shear Modulus (GPa) = -0.15953 22.45934 11.14990
#
# Velocity S-wave (km/s) = -0.28695 3.40470 2.39892
# Velocity P-wave (km/s) = 5.05764 7.36809 6.31936
#
# Compressibility (1/GPa) = 0.02009108
#
# Stress axis : x y z
#
# Youngs Moduli (GPa) = 48.87635 89.77451 101.97763
#
# Poissons Ratio (x) = 0.11474 0.35906
# Poissons Ratio (y) = 0.06247 0.59737
# Poissons Ratio (z) = 0.17209 0.52588
#
# Static dielectric constant tensor:
#      x y z
#    x 3.163940 0.000000 0.000000 
#    y 0.000000 3.757770 0.000000 
#    z 0.000000 0.000000 3.727320 
# 
# 
# High freq. dielectric constant tensor:
#      x y z
#    x 1.708310 0.000000 0.000000 
#    y 0.000000 1.769830 0.000000 
#    z 0.000000 0.000000 1.758630 
# 
# From -- ./inp_files/23163.got.cif
#   From: 2010.03.12/outbox.cif.g09.slc.cpg/sg42_12_cif.got.tgz:23163.got - 2010.04.14 02:04:31.
