data_PCOD8186336
_publ_section_title
;
Structure prediction by ZEFSAII (Michael W. Deem and Ramdas Pophale) SiO2 
 PCOD8186336
Probable space group: F M M 2
;
_chemical_formula_sum "Si O2"
_cell_formula_units_Z 96
_cell_length_a 8.775087
_cell_length_b 19.377380
_cell_length_c 31.385711
_cell_angle_alpha 90.000000
_cell_angle_beta 90.000000
_cell_angle_gamma 90.000000
_cell_volume 5336.769658
_symmetry_space_group_name_H-M "F M M 2"
_symmetry_group_IT_number 42
_symmetry_cell_setting 'orthorhombic'
loop_
_space_group_symop_operation_xyz
x,y,z
-x,-y,z
-x,y,z
x,-y,z
x,1/2+y,1/2+z
-x,1/2-y,1/2+z
-x,1/2+y,1/2+z
x,1/2-y,1/2+z
1/2+x,y,1/2+z
1/2-x,-y,1/2+z
1/2-x,y,1/2+z
1/2+x,-y,1/2+z
1/2+x,1/2+y,z
1/2-x,1/2-y,z
1/2-x,1/2+y,z
1/2+x,1/2-y,z
loop_
_atom_site_type_symbol
_atom_site_label
_atom_site_fract_x
_atom_site_fract_y
_atom_site_fract_z
Si Si1 0.179657 0.323165 0.049150
Si Si2 0.318235 0.676415 0.959708
Si Si3 0.319371 0.075620 0.709855
Si Si4 0.828852 0.082466 0.300466
Si Si5 0.675706 0.417922 0.117290
Si Si6 0.679480 0.577245 0.885392
O O1 0.250000 0.250000 0.063314
O O2 0.214259 0.380718 0.084215
O O3 0.000000 0.314525 0.043225
O O4 0.253734 0.348578 0.004989
O O5 0.500000 0.680539 0.961963
O O6 0.250000 0.750000 0.947232
O O7 0.258767 0.623245 0.924091
O O8 0.500000 0.067345 0.712598
O O9 0.267282 0.112566 0.754436
O O10 0.278884 0.111687 0.664651
O O11 0.243746 0.000000 0.708225
O O12 0.728569 0.109589 0.339903
O O13 0.000000 0.108077 0.309108
O O14 0.821675 0.000000 0.297176
O O15 0.500000 0.400106 0.106905
O O16 0.701312 0.500000 0.114888
O O17 0.500000 0.575078 0.886654
O O18 0.747292 0.500000 0.890684
#
# Coordination Sequence:
#
# PCOD8186336 Si02
#       6
#    16  16  16  16  16  16
#     4  11  22  36  53  72  96 126 163 203 244 294
#     4  10  20  35  53  70  91 123 161 197 237 289
#     4   7  11  22  42  68  96 126 158 189 225 275
#     4   8  13  23  42  68  96 125 157 191 227 271
#     4   9  17  31  52  76 102 131 162 198 242 288
#     4   9  18  31  47  70  98 125 154 191 236 282
#
# _framework density 17.988409999999998
#
# number of rings (size 3 to 8) (size 9 to 14) (size 15 to 20)
#    0.000    3.000    0.000    5.000    0.000    2.333 
#    0.000    2.500    0.000    4.000    0.000    2.333 
#    0.000    0.000    0.000    0.000    0.000    0.000 
#
# Total GULP energy -297320.091454 kJ/mol
# GULP energy per Si atom -12388.337144 kJ/mol
# Density = 1.794747 g / cm^3
# Si number density = 17.988410 Si / 1000 Ang^3
#
#
#
# Elastic Constant Matrix: (Units=GPa)
#
#
# Indices 1 2 3 4 5 6 
#
# 1 55.6925 21.6163 39.3327 0.0000 0.0000 0.0000
# 2 21.6163 46.6948 62.1746 0.0000 0.0000 0.0000
# 3 39.3327 62.1746 175.1948 0.0000 0.0000 0.0000
# 4 0.0000 0.0000 0.0000 3.4292 0.0000 0.0000
# 5 0.0000 0.0000 0.0000 0.0000 28.7579 0.0000
# 6 0.0000 0.0000 0.0000 0.0000 0.0000 20.9704
#
#
#
# Elastic Compliance Matrix: (Units=1/GPa)
#
#
# Indices 1 2 3 4 5 6 
#
# 1 0.022481 -0.006990 -0.002567 0.000000 0.000000 0.000000
# 2 -0.006990 0.042774 -0.013611 0.000000 0.000000 0.000000
# 3 -0.002567 -0.013611 0.011115 0.000000 0.000000 0.000000
# 4 0.000000 0.000000 0.000000 0.291609 0.000000 0.000000
# 5 0.000000 0.000000 0.000000 0.000000 0.034773 0.000000
# 6 0.000000 0.000000 0.000000 0.000000 0.000000 0.047686
#
#
# Mechanical properties :
#
#
# Convention : Reuss Voigt Hill
#
# Bulk Modulus (GPa) = 33.29355 58.20324 45.74839
# Shear Modulus (GPa) = 9.86611 20.92875 15.39743
#
# Velocity S-wave (km/s) = 2.34449 3.41465 2.92886
# Velocity P-wave (km/s) = 5.08698 6.92623 6.07659
#
# Compressibility (1/GPa) = 0.03003585
#
# Stress axis : x y z
#
# Youngs Moduli (GPa) = 44.48124 23.37843 89.97219
#
# Poissons Ratio (x) = 0.16341 0.23093
# Poissons Ratio (y) = 0.31091 1.22461
# Poissons Ratio (z) = 0.11417 0.31820
#
# Static dielectric constant tensor:
#      x y z
#    x 3.114670 0.000000 0.000000 
#    y 0.000000 3.001770 0.000000 
#    z 0.000000 0.000000 3.843560 
# 
# 
# High freq. dielectric constant tensor:
#      x y z
#    x 1.677300 0.000000 0.000000 
#    y 0.000000 1.645770 0.000000 
#    z 0.000000 0.000000 1.722670 
# 
# From -- ./inp_files/31625.got.cif
#   From: 2010.03.12/outbox.cif.g09.slc.cpg/sg42_16_cif.got.tgz:31625.got - 2010.04.14 02:04:31.
