data_PCOD8186180
_publ_section_title
;
Structure prediction by ZEFSAII (Michael W. Deem and Ramdas Pophale) SiO2 
 PCOD8186180
Probable space group: F M M 2
;
_chemical_formula_sum "Si O2"
_cell_formula_units_Z 128
_cell_length_a 22.972900
_cell_length_b 24.287861
_cell_length_c 11.427508
_cell_angle_alpha 90.000000
_cell_angle_beta 90.000000
_cell_angle_gamma 90.000000
_cell_volume 6376.122098
_symmetry_space_group_name_H-M "F M M 2"
_symmetry_group_IT_number 42
_symmetry_cell_setting 'orthorhombic'
loop_
_space_group_symop_operation_xyz
x,y,z
-x,-y,z
-x,y,z
x,-y,z
x,1/2+y,1/2+z
-x,1/2-y,1/2+z
-x,1/2+y,1/2+z
x,1/2-y,1/2+z
1/2+x,y,1/2+z
1/2-x,-y,1/2+z
1/2-x,y,1/2+z
1/2+x,-y,1/2+z
1/2+x,1/2+y,z
1/2-x,1/2-y,z
1/2-x,1/2+y,z
1/2+x,1/2-y,z
loop_
_atom_site_type_symbol
_atom_site_label
_atom_site_fract_x
_atom_site_fract_y
_atom_site_fract_z
Si Si1 0.564570 0.670031 0.788610
Si Si2 0.062375 0.270673 0.633333
Si Si3 0.650384 0.559533 0.416469
Si Si4 0.274532 0.847143 0.573648
Si Si5 0.784007 0.061321 0.889504
Si Si6 0.341007 0.108168 0.156303
Si Si7 0.857555 0.164028 0.279212
Si Si8 0.352340 0.732749 0.943449
O O1 0.500000 0.645103 0.822934
O O2 0.551801 0.729928 0.739277
O O3 0.596632 0.633588 0.690278
O O4 0.610331 0.680151 0.894089
O O5 0.090076 0.325532 0.688842
O O6 0.106055 0.241707 0.542630
O O7 0.000000 0.285259 0.574107
O O8 0.622179 0.500000 0.381615
O O9 0.715513 0.560651 0.367767
O O10 0.647068 0.562658 0.557337
O O11 0.620220 0.613092 0.358601
O O12 0.297170 0.899551 0.499862
O O13 0.204465 0.847741 0.595958
O O14 0.301118 0.850414 0.703147
O O15 0.293192 0.792090 0.501298
O O16 0.813744 0.080830 0.770419
O O17 0.806950 0.000000 0.920290
O O18 0.838708 0.218698 0.352326
#
# Coordination Sequence:
#
# PCOD8186180 Si02
#       8
#    16  16  16  16  16  16  16  16
#     4  10  20  35  57  83 114 156 199 240 282 340
#     4   9  19  35  56  83 115 154 201 243 287 353
#     4  10  21  36  57  84 116 155 198 249 301 363
#     4  10  21  37  57  86 122 154 195 245 314 364
#     4  10  20  36  60  85 114 156 204 249 297 362
#     4  11  20  37  58  86 119 157 198 248 298 365
#     4  10  20  36  57  87 120 155 195 245 306 367
#     4  10  19  36  58  86 119 159 196 242 302 361
#
# _framework density 20.074898000000001
#
# number of rings (size 3 to 8) (size 9 to 14) (size 15 to 20)
#    0.000    2.000    2.500    1.500    0.000    1.500 
#    0.000   22.500    0.000    2.625    0.000    0.000 
#    0.000    0.000    0.000    0.000    0.000    0.000 
#
# Total GULP energy -396449.925150 kJ/mol
# GULP energy per Si atom -12389.060161 kJ/mol
# Density = 2.002921 g / cm^3
# Si number density = 20.074898 Si / 1000 Ang^3
#
#
#
# Elastic Constant Matrix: (Units=GPa)
#
#
# Indices 1 2 3 4 5 6 
#
# 1 65.8860 22.2707 12.5759 0.0000 0.0000 0.0000
# 2 22.2707 89.1300 32.2338 0.0000 0.0000 0.0000
# 3 12.5759 32.2338 91.9474 0.0000 0.0000 0.0000
# 4 0.0000 0.0000 0.0000 28.0134 0.0000 0.0000
# 5 0.0000 0.0000 0.0000 0.0000 19.9073 0.0000
# 6 0.0000 0.0000 0.0000 0.0000 0.0000 10.1152
#
#
#
# Elastic Compliance Matrix: (Units=1/GPa)
#
#
# Indices 1 2 3 4 5 6 
#
# 1 0.016648 -0.003821 -0.000938 0.000000 0.000000 0.000000
# 2 -0.003821 0.013725 -0.004289 0.000000 0.000000 0.000000
# 3 -0.000938 -0.004289 0.012508 0.000000 0.000000 0.000000
# 4 0.000000 0.000000 0.000000 0.035697 0.000000 0.000000
# 5 0.000000 0.000000 0.000000 0.000000 0.050233 0.000000
# 6 0.000000 0.000000 0.000000 0.000000 0.000000 0.098861
#
#
# Mechanical properties :
#
#
# Convention : Reuss Voigt Hill
#
# Bulk Modulus (GPa) = 40.34483 42.34712 41.34598
# Shear Modulus (GPa) = 19.68278 23.59938 21.64108
#
# Velocity S-wave (km/s) = 3.13464 3.43237 3.28688
# Velocity P-wave (km/s) = 5.76559 6.07031 5.91991
#
# Compressibility (1/GPa) = 0.02478632
#
# Stress axis : x y z
#
# Youngs Moduli (GPa) = 60.06665 72.85756 79.95115
#
# Poissons Ratio (x) = 0.27837 0.07496
# Poissons Ratio (y) = 0.22950 0.34292
# Poissons Ratio (z) = 0.05632 0.31249
#
# Static dielectric constant tensor:
#      x y z
#    x 3.827500 0.000000 0.000000 
#    y 0.000000 3.620250 0.000000 
#    z 0.000000 0.000000 3.759130 
# 
# 
# High freq. dielectric constant tensor:
#      x y z
#    x 1.758310 0.000000 0.000000 
#    y 0.000000 1.762820 0.000000 
#    z 0.000000 0.000000 1.796020 
# 
# From -- ./inp_files/10343.got.cif
#   From: 2010.03.12/outbox.cif.g09.slc.cpg/sg42_6_cif.got.tgz:10343.got - 2010.04.14 02:04:31.
