data_PCOD8186313
_publ_section_title
;
Structure prediction by ZEFSAII (Michael W. Deem and Ramdas Pophale) SiO2 
 PCOD8186313
Probable space group: F M M 2
;
_chemical_formula_sum "Si O2"
_cell_formula_units_Z 112
_cell_length_a 17.367235
_cell_length_b 23.588229
_cell_length_c 13.472907
_cell_angle_alpha 90.000000
_cell_angle_beta 90.000000
_cell_angle_gamma 90.000000
_cell_volume 5519.342289
_symmetry_space_group_name_H-M "F M M 2"
_symmetry_group_IT_number 42
_symmetry_cell_setting 'orthorhombic'
loop_
_space_group_symop_operation_xyz
x,y,z
-x,-y,z
-x,y,z
x,-y,z
x,1/2+y,1/2+z
-x,1/2-y,1/2+z
-x,1/2+y,1/2+z
x,1/2-y,1/2+z
1/2+x,y,1/2+z
1/2-x,-y,1/2+z
1/2-x,y,1/2+z
1/2+x,-y,1/2+z
1/2+x,1/2+y,z
1/2-x,1/2-y,z
1/2-x,1/2+y,z
1/2+x,1/2-y,z
loop_
_atom_site_type_symbol
_atom_site_label
_atom_site_fract_x
_atom_site_fract_y
_atom_site_fract_z
Si Si1 0.164179 0.165921 0.463180
Si Si2 0.411739 0.765897 0.358547
Si Si3 0.590794 0.840775 0.171737
Si Si4 0.339208 0.637877 0.971726
Si Si5 0.913174 0.563772 0.627506
Si Si6 0.651004 0.436742 0.330568
Si Si7 0.323748 0.934987 0.284584
O O1 0.142581 0.212318 0.380159
O O2 0.119999 0.180070 0.564815
O O3 0.255531 0.166443 0.478572
O O4 0.137518 0.104826 0.422689
O O5 0.500000 0.746121 0.360739
O O6 0.388938 0.791692 0.251278
O O7 0.399323 0.813178 0.443249
O O8 0.500000 0.852549 0.169631
O O9 0.634279 0.898911 0.199250
O O10 0.347271 0.587155 0.892938
O O11 0.359717 0.610843 0.077097
O O12 0.882939 0.500000 0.604279
O O13 0.912513 0.573827 0.745990
O O14 0.000000 0.571106 0.589013
O O15 0.645889 0.500000 0.375404
O O16 0.732252 0.427590 0.274259
O O17 0.350057 0.000000 0.273399
#
# Coordination Sequence:
#
# PCOD8186313 Si02
#       7
#    16  16  16  16  16  16  16
#     4  11  22  38  61  84 112 151 190 233 286 340
#     4  10  22  40  58  79 111 146 186 238 289 339
#     4  10  22  38  57  85 117 148 189 238 285 340
#     4  10  20  36  58  87 113 145 190 236 282 334
#     4  10  20  34  55  85 120 155 190 231 280 333
#     4   9  20  37  56  82 115 152 194 235 276 330
#     4   9  18  35  58  82 113 150 187 233 284 333
#
# _framework density 20.292273999999999
#
# number of rings (size 3 to 8) (size 9 to 14) (size 15 to 20)
#    0.000    2.143    0.000    2.571    0.000    4.286 
#    0.000    5.714    0.000    0.000    0.000    0.000 
#    0.000    0.000    0.000    0.000    0.000    0.000 
#
# Total GULP energy -347269.046045 kJ/mol
# GULP energy per Si atom -12402.465930 kJ/mol
# Density = 2.024609 g / cm^3
# Si number density = 20.292274 Si / 1000 Ang^3
#
#
#
# Elastic Constant Matrix: (Units=GPa)
#
#
# Indices 1 2 3 4 5 6 
#
# 1 80.7866 45.8583 34.1056 0.0000 0.0000 0.0000
# 2 45.8583 112.4284 51.1275 0.0000 0.0000 0.0000
# 3 34.1056 51.1275 94.3755 0.0000 0.0000 0.0000
# 4 0.0000 0.0000 0.0000 32.6703 0.0000 0.0000
# 5 0.0000 0.0000 0.0000 0.0000 29.0837 0.0000
# 6 0.0000 0.0000 0.0000 0.0000 0.0000 33.6818
#
#
#
# Elastic Compliance Matrix: (Units=1/GPa)
#
#
# Indices 1 2 3 4 5 6 
#
# 1 0.016775 -0.005421 -0.003125 0.000000 0.000000 0.000000
# 2 -0.005421 0.013554 -0.005384 0.000000 0.000000 0.000000
# 3 -0.003125 -0.005384 0.014642 0.000000 0.000000 0.000000
# 4 0.000000 0.000000 0.000000 0.030609 0.000000 0.000000
# 5 0.000000 0.000000 0.000000 0.000000 0.034383 0.000000
# 6 0.000000 0.000000 0.000000 0.000000 0.000000 0.029690
#
#
# Mechanical properties :
#
#
# Convention : Reuss Voigt Hill
#
# Bulk Modulus (GPa) = 58.44290 61.08594 59.76442
# Shear Modulus (GPa) = 28.86555 29.52044 29.19299
#
# Velocity S-wave (km/s) = 3.77568 3.81827 3.79704
# Velocity P-wave (km/s) = 6.91887 7.04325 6.98134
#
# Compressibility (1/GPa) = 0.01711072
#
# Stress axis : x y z
#
# Youngs Moduli (GPa) = 59.61265 73.77875 68.29644
#
# Poissons Ratio (x) = 0.39996 0.21345
# Poissons Ratio (y) = 0.32316 0.36769
# Poissons Ratio (z) = 0.18631 0.39721
#
# Static dielectric constant tensor:
#      x y z
#    x 3.644880 0.000000 0.000000 
#    y 0.000000 3.710560 0.000000 
#    z 0.000000 0.000000 3.516280 
# 
# 
# High freq. dielectric constant tensor:
#      x y z
#    x 1.792460 0.000000 0.000000 
#    y 0.000000 1.795340 0.000000 
#    z 0.000000 0.000000 1.781960 
# 
# From -- ./inp_files/14269.got.cif
#   From: 2010.03.12/outbox.cif.g09.slc.cpg/sg42_8_cif.got.tgz:14269.got - 2010.04.14 02:04:31.
