data_PCOD8186850
_publ_section_title
;
Structure prediction by ZEFSAII (Michael W. Deem and Ramdas Pophale) SiO2 
 PCOD8186850
Probable space group: F M M 2
;
_chemical_formula_sum "Si O2"
_cell_formula_units_Z 96
_cell_length_a 17.726084
_cell_length_b 28.557819
_cell_length_c 9.516004
_cell_angle_alpha 90.000000
_cell_angle_beta 90.000000
_cell_angle_gamma 90.000000
_cell_volume 4817.175353
_symmetry_space_group_name_H-M "F M M 2"
_symmetry_group_IT_number 42
_symmetry_cell_setting 'orthorhombic'
loop_
_space_group_symop_operation_xyz
x,y,z
-x,-y,z
-x,y,z
x,-y,z
x,1/2+y,1/2+z
-x,1/2-y,1/2+z
-x,1/2+y,1/2+z
x,1/2-y,1/2+z
1/2+x,y,1/2+z
1/2-x,-y,1/2+z
1/2-x,y,1/2+z
1/2+x,-y,1/2+z
1/2+x,1/2+y,z
1/2-x,1/2-y,z
1/2-x,1/2+y,z
1/2+x,1/2-y,z
loop_
_atom_site_type_symbol
_atom_site_label
_atom_site_fract_x
_atom_site_fract_y
_atom_site_fract_z
Si Si1 0.083162 0.554869 0.492340
Si Si2 0.910709 0.946595 0.677430
Si Si3 0.818010 0.627458 0.002268
Si Si4 0.412559 0.789317 0.676905
Si Si5 0.164282 0.267018 0.949730
Si Si6 0.327528 0.617747 0.183232
O O1 0.077099 0.500000 0.503770
O O2 0.112705 0.568123 0.336016
O O3 0.139627 0.570849 0.614308
O O4 0.000000 0.576915 0.515261
O O5 0.874034 0.909965 0.570889
O O6 0.000000 0.943763 0.659220
O O7 0.883517 0.000000 0.645108
O O8 0.851796 0.679755 0.999389
O O9 0.801799 0.609491 0.843761
O O10 0.742845 0.633302 0.091188
O O11 0.500000 0.782999 0.715092
O O12 0.393957 0.766564 0.527953
O O13 0.358445 0.762756 0.787126
O O14 0.393391 0.844047 0.672784
O O15 0.250000 0.250000 0.970098
#
# Coordination Sequence:
#
# PCOD8186850 Si02
#       6
#    16  16  16  16  16  16
#     4   9  19  38  63  88 120 162 203 250 312 376
#     4   9  20  40  64  92 127 165 209 261 318 379
#     4  11  24  38  63  88 121 165 208 254 314 383
#     4  11  24  40  63  92 123 160 211 264 313 376
#     4  11  23  42  64  87 125 168 208 257 319 382
#     4  11  23  39  58  88 123 158 208 260 315 370
#
# _framework density 19.928692000000002
#
# number of rings (size 3 to 8) (size 9 to 14) (size 15 to 20)
#    0.000    1.667    1.667    3.500    2.333    6.667 
#    0.000    3.333    0.000    0.000    0.000    0.000 
#    0.000    0.000    0.000    0.000    0.000    0.000 
#
# Total GULP energy -297575.934179 kJ/mol
# GULP energy per Si atom -12398.997257 kJ/mol
# Density = 1.988333 g / cm^3
# Si number density = 19.928692 Si / 1000 Ang^3
#
#
#
# Elastic Constant Matrix: (Units=GPa)
#
#
# Indices 1 2 3 4 5 6 
#
# 1 83.3969 28.2228 35.1323 0.0000 0.0000 0.0000
# 2 28.2228 60.9544 40.4768 0.0000 0.0000 0.0000
# 3 35.1323 40.4768 123.5812 0.0000 0.0000 0.0000
# 4 0.0000 0.0000 0.0000 36.5430 0.0000 0.0000
# 5 0.0000 0.0000 0.0000 0.0000 36.6565 0.0000
# 6 0.0000 0.0000 0.0000 0.0000 0.0000 35.1305
#
#
#
# Elastic Compliance Matrix: (Units=1/GPa)
#
#
# Indices 1 2 3 4 5 6 
#
# 1 0.014804 -0.005188 -0.002509 0.000000 0.000000 0.000000
# 2 -0.005188 0.022784 -0.005988 0.000000 0.000000 0.000000
# 3 -0.002509 -0.005988 0.010766 0.000000 0.000000 0.000000
# 4 0.000000 0.000000 0.000000 0.027365 0.000000 0.000000
# 5 0.000000 0.000000 0.000000 0.000000 0.027280 0.000000
# 6 0.000000 0.000000 0.000000 0.000000 0.000000 0.028465
#
#
# Mechanical properties :
#
#
# Convention : Reuss Voigt Hill
#
# Bulk Modulus (GPa) = 47.65498 52.84402 50.24950
# Shear Modulus (GPa) = 30.15157 32.60604 31.37881
#
# Velocity S-wave (km/s) = 3.89392 4.04931 3.97237
# Velocity P-wave (km/s) = 6.64691 6.95964 6.80507
#
# Compressibility (1/GPa) = 0.02098416
#
# Stress axis : x y z
#
# Youngs Moduli (GPa) = 67.55107 43.89056 92.88247
#
# Poissons Ratio (x) = 0.22771 0.23306
# Poissons Ratio (y) = 0.35046 0.55614
# Poissons Ratio (z) = 0.16950 0.26280
#
# Static dielectric constant tensor:
#      x y z
#    x 3.526160 0.000000 0.000000 
#    y 0.000000 3.582340 0.000000 
#    z 0.000000 0.000000 3.826210 
# 
# 
# High freq. dielectric constant tensor:
#      x y z
#    x 1.774320 0.000000 0.000000 
#    y 0.000000 1.777030 0.000000 
#    z 0.000000 0.000000 1.786810 
# 
# From -- ./inp_files/4187.got.cif
#   From: 2010.03.12/outbox.cif.g09.slc.cpg/sg42_3_cif.got.tgz:4187.got - 2010.04.14 02:04:31.
