data_PCOD8186901
_publ_section_title
;
Structure prediction by ZEFSAII (Michael W. Deem and Ramdas Pophale) SiO2 
 PCOD8186901
Probable space group: F D D 2
;
_chemical_formula_sum "Si O2"
_cell_formula_units_Z 72
_cell_length_a 12.158198
_cell_length_b 7.789512
_cell_length_c 29.279953
_cell_angle_alpha 90.000000
_cell_angle_beta 90.000000
_cell_angle_gamma 90.000000
_cell_volume 2772.999796
_symmetry_space_group_name_H-M "F D D 2"
_symmetry_group_IT_number 43
_symmetry_cell_setting 'orthorhombic'
loop_
_space_group_symop_operation_xyz
x,y,z
-x,-y,z
1/4-x,1/4+y,1/4+z
1/4+x,1/4-y,1/4+z
x,1/2+y,1/2+z
-x,1/2-y,1/2+z
1/4-x,3/4+y,3/4+z
1/4+x,3/4-y,3/4+z
1/2+x,y,1/2+z
1/2-x,-y,1/2+z
3/4-x,1/4+y,3/4+z
3/4+x,1/4-y,3/4+z
1/2+x,1/2+y,z
1/2-x,1/2-y,z
3/4-x,3/4+y,1/4+z
3/4+x,3/4-y,1/4+z
loop_
_atom_site_type_symbol
_atom_site_label
_atom_site_fract_x
_atom_site_fract_y
_atom_site_fract_z
Si Si1 0.341378 0.395961 0.271860
Si Si2 0.891336 0.337171 0.870401
Si Si3 0.500000 0.000000 0.999593
Si Si4 0.874234 0.903796 0.670219
Si Si5 0.629934 0.966725 0.425673
O O1 0.250000 0.250000 0.272371
O O2 0.414129 0.358163 0.316658
O O3 0.297480 0.591089 0.278816
O O4 0.409426 0.374580 0.224451
O O5 0.818712 0.495698 0.892345
O O6 0.832709 0.156447 0.883484
O O7 0.008575 0.322301 0.894628
O O8 0.598925 0.913150 0.970898
O O9 0.936981 0.092150 0.672125
O O10 0.500000 0.000000 0.425208
#
# Coordination Sequence:
#
# PCOD8186901 Si02
#       5
#    16  16   8  16  16
#     4  11  19  30  51  79  98 129 168 208 252 303
#     4   9  18  29  51  77  96 124 168 210 250 283
#     4  10  16  30  52  72  98 128 170 208 238 300
#     4   9  16  34  53  71  93 132 169 207 241 296
#     4   9  15  31  52  71  96 126 166 204 242 296
#
# _framework density 25.964659999999999
#
# number of rings (size 3 to 8) (size 9 to 14) (size 15 to 20)
#    0.000    2.667    8.889    0.000    0.000    1.778 
#    0.000    0.000    4.889    0.000    0.000    0.000 
#    0.000    0.000    0.000    0.000    0.000    0.000 
#
# Total GULP energy -223006.217450 kJ/mol
# GULP energy per Si atom -12389.234303 kJ/mol
# Density = 2.590556 g / cm^3
# Si number density = 25.964660 Si / 1000 Ang^3
#
#
#
# Elastic Constant Matrix: (Units=GPa)
#
#
# Indices 1 2 3 4 5 6 
#
# 1 46.8983 56.6674 1.4040 0.0000 0.0000 0.0000
# 2 56.6674 266.4383 77.1696 0.0000 0.0000 0.0000
# 3 1.4040 77.1696 171.1738 0.0000 0.0000 0.0000
# 4 0.0000 0.0000 0.0000 31.8978 0.0000 0.0000
# 5 0.0000 0.0000 0.0000 0.0000 15.1290 0.0000
# 6 0.0000 0.0000 0.0000 0.0000 0.0000 48.0512
#
#
#
# Elastic Compliance Matrix: (Units=1/GPa)
#
#
# Indices 1 2 3 4 5 6 
#
# 1 0.030001 -0.007257 0.003026 0.000000 0.000000 0.000000
# 2 -0.007257 0.006072 -0.002678 0.000000 0.000000 0.000000
# 3 0.003026 -0.002678 0.007025 0.000000 0.000000 0.000000
# 4 0.000000 0.000000 0.000000 0.031350 0.000000 0.000000
# 5 0.000000 0.000000 0.000000 0.000000 0.066098 0.000000
# 6 0.000000 0.000000 0.000000 0.000000 0.000000 0.020811
#
#
# Mechanical properties :
#
#
# Convention : Reuss Voigt Hill
#
# Bulk Modulus (GPa) = 34.15449 83.88805 59.02127
# Shear Modulus (GPa) = 27.03642 42.30023 34.66833
#
# Velocity S-wave (km/s) = 3.23038 4.04065 3.65802
# Velocity P-wave (km/s) = 5.20544 7.35852 6.37356
#
# Compressibility (1/GPa) = 0.02927873
#
# Stress axis : x y z
#
# Youngs Moduli (GPa) = 33.33239 164.68143 142.35828
#
# Poissons Ratio (x) = 1.19510 -0.43072
# Poissons Ratio (y) = 0.24189 0.38124
# Poissons Ratio (z) = -0.10085 0.44102
#
# Static dielectric constant tensor:
#      x y z
#    x 4.058330 0.000000 0.000000 
#    y 0.000000 7.116650 0.000000 
#    z 0.000000 0.000000 4.828470 
# 
# 
# High freq. dielectric constant tensor:
#      x y z
#    x 2.059100 0.000000 0.000000 
#    y 0.000000 2.091670 0.000000 
#    z 0.000000 0.000000 2.006400 
# 
# From -- ./inp_files/18515.got.cif
#   From: 2010.06.25/outbox.cif.g09.slc.cpg/sg43_10_cif.got.tgz:18515.got - 2010.06.26 16:48:59.
