data_PCOD8186768
_publ_section_title
;
Structure prediction by ZEFSAII (Michael W. Deem and Ramdas Pophale) SiO2 
 PCOD8186768
Probable space group: F M M 2
;
_chemical_formula_sum "Si O2"
_cell_formula_units_Z 112
_cell_length_a 29.492077
_cell_length_b 17.248169
_cell_length_c 10.468954
_cell_angle_alpha 90.000000
_cell_angle_beta 90.000000
_cell_angle_gamma 90.000000
_cell_volume 5325.392833
_symmetry_space_group_name_H-M "F M M 2"
_symmetry_group_IT_number 42
_symmetry_cell_setting 'orthorhombic'
loop_
_space_group_symop_operation_xyz
x,y,z
-x,-y,z
-x,y,z
x,-y,z
x,1/2+y,1/2+z
-x,1/2-y,1/2+z
-x,1/2+y,1/2+z
x,1/2-y,1/2+z
1/2+x,y,1/2+z
1/2-x,-y,1/2+z
1/2-x,y,1/2+z
1/2+x,-y,1/2+z
1/2+x,1/2+y,z
1/2-x,1/2-y,z
1/2-x,1/2+y,z
1/2+x,1/2-y,z
loop_
_atom_site_type_symbol
_atom_site_label
_atom_site_fract_x
_atom_site_fract_y
_atom_site_fract_z
Si Si1 0.892007 0.086903 0.113560
Si Si2 0.951664 0.325373 0.022614
Si Si3 0.794421 0.091307 0.750547
Si Si4 0.641033 0.314289 0.908806
Si Si5 0.148527 0.155201 0.518909
Si Si6 0.807695 0.413858 0.775118
Si Si7 0.427211 0.772584 0.755960
O O1 0.838620 0.086035 0.149384
O O2 0.919147 0.138084 0.216167
O O3 0.912560 0.000000 0.113599
O O4 0.893862 0.123699 0.971729
O O5 0.904442 0.374499 0.027572
O O6 0.952411 0.274258 0.892604
O O7 0.000000 0.373015 0.024870
O O8 0.955044 0.268922 0.144937
O O9 0.813338 0.140997 0.869088
O O10 0.821231 0.114065 0.623440
O O11 0.742112 0.115506 0.734536
O O12 0.800870 0.000000 0.776203
O O13 0.648779 0.249625 0.021009
O O14 0.619196 0.276789 0.780557
O O15 0.169440 0.139081 0.381026
O O16 0.803724 0.500000 0.833684
#
# Coordination Sequence:
#
# PCOD8186768 Si02
#       7
#    16  16  16  16  16  16  16
#     4  11  21  38  62  89 128 170 209 256 319 387
#     4  11  22  39  69  99 127 169 219 272 327 388
#     4  11  24  41  61  87 123 172 210 250 322 391
#     4  11  21  39  60  92 126 163 210 262 315 377
#     4  11  22  41  64  91 128 157 212 272 311 370
#     4  10  23  40  60  88 125 168 211 257 317 385
#     4  11  20  42  65  98 130 163 212 271 326 381
#
# _framework density 21.031313000000001
#
# number of rings (size 3 to 8) (size 9 to 14) (size 15 to 20)
#    0.000    1.143    7.143    1.286    2.000    0.571 
#    0.000    0.000    0.000    5.143    0.000    4.000 
#    0.000    0.000    0.000    0.000    0.000    0.000 
#
# Total GULP energy -346939.259670 kJ/mol
# GULP energy per Si atom -12390.687845 kJ/mol
# Density = 2.098344 g / cm^3
# Si number density = 21.031313 Si / 1000 Ang^3
#
#
#
# Elastic Constant Matrix: (Units=GPa)
#
#
# Indices 1 2 3 4 5 6 
#
# 1 133.4129 24.4187 19.3396 0.0000 0.0000 0.0000
# 2 24.4187 89.3381 17.6047 0.0000 0.0000 0.0000
# 3 19.3396 17.6047 87.0637 0.0000 0.0000 0.0000
# 4 0.0000 0.0000 0.0000 30.8658 0.0000 0.0000
# 5 0.0000 0.0000 0.0000 0.0000 -21.1457 0.0000
# 6 0.0000 0.0000 0.0000 0.0000 0.0000 14.4399
#
#
#
# Elastic Compliance Matrix: (Units=1/GPa)
#
#
# Indices 1 2 3 4 5 6 
#
# 1 0.008051 -0.001925 -0.001399 0.000000 0.000000 0.000000
# 2 -0.001925 0.012118 -0.002023 0.000000 0.000000 0.000000
# 3 -0.001399 -0.002023 0.012206 0.000000 0.000000 0.000000
# 4 0.000000 0.000000 0.000000 0.032398 0.000000 0.000000
# 5 0.000000 0.000000 0.000000 0.000000 -0.047291 0.000000
# 6 0.000000 0.000000 0.000000 0.000000 0.000000 0.069252
#
#
# Mechanical properties :
#
#
# Convention : Reuss Voigt Hill
#
# Bulk Modulus (GPa) = 46.12318 48.06010 47.09164
# Shear Modulus (GPa) = 47.77618 21.39545 34.58581
#
# Velocity S-wave (km/s) = 4.77137 3.19300 4.05963
# Velocity P-wave (km/s) = 7.23416 6.04110 6.66438
#
# Compressibility (1/GPa) = 0.02168107
#
# Stress axis : x y z
#
# Youngs Moduli (GPa) = 124.21383 82.52100 81.92932
#
# Poissons Ratio (x) = 0.15883 0.11463
# Poissons Ratio (y) = 0.23908 0.16573
# Poissons Ratio (z) = 0.17379 0.16692
#
# Static dielectric constant tensor:
#      x y z
#    x 3.819370 0.000000 0.000000 
#    y 0.000000 3.757490 0.000000 
#    z 0.000000 0.000000 3.806120 
# 
# 
# High freq. dielectric constant tensor:
#      x y z
#    x 1.811470 0.000000 0.000000 
#    y 0.000000 1.802210 0.000000 
#    z 0.000000 0.000000 1.836660 
# 
# From -- ./inp_files/11121.got.cif
#   From: 2010.03.12/outbox.cif.g09.slc.cpg/sg42_6_cif.got.tgz:11121.got - 2010.04.14 02:04:31.
