data_PCOD8186427
_publ_section_title
;
Structure prediction by ZEFSAII (Michael W. Deem and Ramdas Pophale) SiO2 
 PCOD8186427
Probable space group: F M M 2
;
_chemical_formula_sum "Si O2"
_cell_formula_units_Z 80
_cell_length_a 8.765308
_cell_length_b 15.699565
_cell_length_c 28.804358
_cell_angle_alpha 90.000000
_cell_angle_beta 90.000000
_cell_angle_gamma 90.000000
_cell_volume 3963.811565
_symmetry_space_group_name_H-M "F M M 2"
_symmetry_group_IT_number 42
_symmetry_cell_setting 'orthorhombic'
loop_
_space_group_symop_operation_xyz
x,y,z
-x,-y,z
-x,y,z
x,-y,z
x,1/2+y,1/2+z
-x,1/2-y,1/2+z
-x,1/2+y,1/2+z
x,1/2-y,1/2+z
1/2+x,y,1/2+z
1/2-x,-y,1/2+z
1/2-x,y,1/2+z
1/2+x,-y,1/2+z
1/2+x,1/2+y,z
1/2-x,1/2-y,z
1/2-x,1/2+y,z
1/2+x,1/2-y,z
loop_
_atom_site_type_symbol
_atom_site_label
_atom_site_fract_x
_atom_site_fract_y
_atom_site_fract_z
Si Si1 0.829608 0.904049 0.478670
Si Si2 0.819703 0.841402 0.294968
Si Si3 0.178807 0.500000 0.731240
Si Si4 0.320893 0.660418 0.891942
Si Si5 0.319241 0.837588 0.075582
Si Si6 0.180634 0.000000 0.631150
O O1 0.717033 0.901304 0.434683
O O2 0.768842 0.848269 0.521790
O O3 0.000000 0.874546 0.463643
O O4 0.835070 0.000000 0.497456
O O5 0.750000 0.750000 0.279961
O O6 0.755086 0.872232 0.344496
O O7 0.000000 0.830673 0.299094
O O8 0.773833 0.914585 0.258776
O O9 0.271206 0.500000 0.684200
O O10 0.000000 0.500000 0.720888
O O11 0.500000 0.667092 0.883940
O O12 0.250000 0.750000 0.906605
O O13 0.500000 0.834226 0.079537
O O14 0.250000 0.750000 0.095164
O O15 0.253539 0.915397 0.106265
O O16 0.000000 0.000000 0.627587
#
# Coordination Sequence:
#
# PCOD8186427 Si02
#       6
#    16  16   8  16  16   8
#     4  10  20  36  58  83 119 161 198 238 289 346
#     4  10  21  40  62  87 118 156 197 241 292 350
#     4  10  24  42  63  88 117 151 192 241 301 356
#     4  11  22  36  55  84 119 155 198 242 287 344
#     4  10  21  39  62  88 117 156 197 239 289 348
#     4  10  22  42  63  86 117 151 194 241 295 354
#
# _framework density 20.182594999999999
#
# number of rings (size 3 to 8) (size 9 to 14) (size 15 to 20)
#    0.000    1.800    1.000    4.200    1.400    6.000 
#    0.000    4.000    0.000    0.000    0.000    0.000 
#    0.000    0.000    0.000    0.000    0.000    0.000 
#
# Total GULP energy -248016.689899 kJ/mol
# GULP energy per Si atom -12400.834495 kJ/mol
# Density = 2.013666 g / cm^3
# Si number density = 20.182595 Si / 1000 Ang^3
#
#
#
# Elastic Constant Matrix: (Units=GPa)
#
#
# Indices 1 2 3 4 5 6 
#
# 1 79.3525 41.4739 46.0518 0.0000 0.0000 0.0000
# 2 41.4739 141.7559 73.4132 0.0000 0.0000 0.0000
# 3 46.0518 73.4132 124.8854 0.0000 0.0000 0.0000
# 4 0.0000 0.0000 0.0000 29.4560 0.0000 0.0000
# 5 0.0000 0.0000 0.0000 0.0000 32.2340 0.0000
# 6 0.0000 0.0000 0.0000 0.0000 0.0000 31.3910
#
#
#
# Elastic Compliance Matrix: (Units=1/GPa)
#
#
# Indices 1 2 3 4 5 6 
#
# 1 0.016593 -0.002424 -0.004694 0.000000 0.000000 0.000000
# 2 -0.002424 0.010496 -0.005276 0.000000 0.000000 0.000000
# 3 -0.004694 -0.005276 0.012840 0.000000 0.000000 0.000000
# 4 0.000000 0.000000 0.000000 0.033949 0.000000 0.000000
# 5 0.000000 0.000000 0.000000 0.000000 0.031023 0.000000
# 6 0.000000 0.000000 0.000000 0.000000 0.000000 0.031856
#
#
# Mechanical properties :
#
#
# Convention : Reuss Voigt Hill
#
# Bulk Modulus (GPa) = 66.04606 74.20795 70.12700
# Shear Modulus (GPa) = 30.01349 30.95319 30.48334
#
# Velocity S-wave (km/s) = 3.86047 3.92044 3.89057
# Velocity P-wave (km/s) = 7.25716 7.57240 7.41645
#
# Compressibility (1/GPa) = 0.01514095
#
# Stress axis : x y z
#
# Youngs Moduli (GPa) = 60.26697 95.27446 77.88258
#
# Poissons Ratio (x) = 0.23092 0.36557
# Poissons Ratio (y) = 0.14607 0.41093
# Poissons Ratio (z) = 0.28289 0.50269
#
# Static dielectric constant tensor:
#      x y z
#    x 3.513360 0.000000 0.000000 
#    y 0.000000 3.852260 0.000000 
#    z 0.000000 0.000000 3.563930 
# 
# 
# High freq. dielectric constant tensor:
#      x y z
#    x 1.779300 0.000000 0.000000 
#    y 0.000000 1.796520 0.000000 
#    z 0.000000 0.000000 1.785720 
# 
# From -- ./inp_files/31332.got.cif
#   From: 2010.03.12/outbox.cif.g09.slc.cpg/sg42_16_cif.got.tgz:31332.got - 2010.04.14 02:04:31.
