data_PCOD8186485
_publ_section_title
;
Structure prediction by ZEFSAII (Michael W. Deem and Ramdas Pophale) SiO2 
 PCOD8186485
Probable space group: F M M 2
;
_chemical_formula_sum "Si O2"
_cell_formula_units_Z 88
_cell_length_a 14.292802
_cell_length_b 13.362265
_cell_length_c 22.768432
_cell_angle_alpha 90.000000
_cell_angle_beta 90.000000
_cell_angle_gamma 90.000000
_cell_volume 4348.410951
_symmetry_space_group_name_H-M "F M M 2"
_symmetry_group_IT_number 42
_symmetry_cell_setting 'orthorhombic'
loop_
_space_group_symop_operation_xyz
x,y,z
-x,-y,z
-x,y,z
x,-y,z
x,1/2+y,1/2+z
-x,1/2-y,1/2+z
-x,1/2+y,1/2+z
x,1/2-y,1/2+z
1/2+x,y,1/2+z
1/2-x,-y,1/2+z
1/2-x,y,1/2+z
1/2+x,-y,1/2+z
1/2+x,1/2+y,z
1/2-x,1/2-y,z
1/2-x,1/2+y,z
1/2+x,1/2-y,z
loop_
_atom_site_type_symbol
_atom_site_label
_atom_site_fract_x
_atom_site_fract_y
_atom_site_fract_z
Si Si1 0.750000 0.750000 0.052580
Si Si2 0.893793 0.384760 0.980754
Si Si3 0.606207 0.384759 0.124407
Si Si4 0.142291 0.772833 0.368984
Si Si5 0.142291 0.727167 0.736176
Si Si6 0.000000 0.890360 0.871601
Si Si7 0.000000 0.109640 0.733560
O O1 0.682672 0.682304 0.091960
O O2 0.817329 0.682305 0.013201
O O3 0.869432 0.500000 0.992302
O O4 0.886699 0.363798 0.910990
O O5 0.000000 0.361195 0.002230
O O6 0.500000 0.361191 0.102931
O O7 0.630564 0.500000 0.112858
O O8 0.613301 0.363799 0.194170
O O9 0.250000 0.750000 0.372723
O O10 0.111505 0.800945 0.302580
O O11 0.091312 0.671500 0.391093
O O12 0.250000 0.750000 0.732437
O O13 0.091312 0.828499 0.714067
O O14 0.000000 0.906608 0.802580
O O15 0.000000 0.000000 0.902579
O O16 0.000000 0.000000 0.702582
#
# Coordination Sequence:
#
# PCOD8186485 Si02
#       7
#     8  16  16  16  16   8   8
#     4  12  24  48  66  84 120 168 212 258 304 364
#     4  11  24  42  66  94 123 159 206 259 312 367
#     4  11  24  42  66  94 123 159 206 259 312 367
#     4  10  20  37  61  93 130 162 197 247 305 369
#     4  10  20  37  61  93 130 162 197 247 305 369
#     4   9  18  34  57  86 123 164 202 239 286 358
#     4   9  18  34  57  86 123 164 202 239 286 358
#
# _framework density 20.237278
#
# number of rings (size 3 to 8) (size 9 to 14) (size 15 to 20)
#    0.000    1.636    3.636    1.091    0.000    2.182 
#    0.000    5.455    0.000    0.000    0.000    0.000 
#    0.000    0.000    0.000    0.000    0.000    0.000 
#
# Total GULP energy -272728.137720 kJ/mol
# GULP energy per Si atom -12396.733533 kJ/mol
# Density = 2.019122 g / cm^3
# Si number density = 20.237278 Si / 1000 Ang^3
#
#
#
# Elastic Constant Matrix: (Units=GPa)
#
#
# Indices 1 2 3 4 5 6 
#
# 1 164.4072 84.1290 46.3872 0.0000 0.0000 0.0000
# 2 84.1290 134.4655 60.5072 0.0000 0.0000 0.0000
# 3 46.3872 60.5072 88.4006 0.0000 0.0000 0.0000
# 4 0.0000 0.0000 0.0000 16.4093 0.0000 0.0000
# 5 0.0000 0.0000 0.0000 0.0000 36.2552 0.0000
# 6 0.0000 0.0000 0.0000 0.0000 0.0000 33.3360
#
#
#
# Elastic Compliance Matrix: (Units=1/GPa)
#
#
# Indices 1 2 3 4 5 6 
#
# 1 0.009043 -0.005090 -0.001261 0.000000 0.000000 0.000000
# 2 -0.005090 0.013612 -0.006646 0.000000 0.000000 0.000000
# 3 -0.001261 -0.006646 0.016523 0.000000 0.000000 0.000000
# 4 0.000000 0.000000 0.000000 0.060941 0.000000 0.000000
# 5 0.000000 0.000000 0.000000 0.000000 0.027582 0.000000
# 6 0.000000 0.000000 0.000000 0.000000 0.000000 0.029998
#
#
# Mechanical properties :
#
#
# Convention : Reuss Voigt Hill
#
# Bulk Modulus (GPa) = 75.85374 85.48004 80.66689
# Shear Modulus (GPa) = 26.58322 30.28342 28.43332
#
# Velocity S-wave (km/s) = 3.62826 3.87255 3.75240
# Velocity P-wave (km/s) = 7.42401 7.89469 7.66297
#
# Compressibility (1/GPa) = 0.01318327
#
# Stress axis : x y z
#
# Youngs Moduli (GPa) = 110.58192 73.46311 60.52228
#
# Poissons Ratio (x) = 0.37396 0.07632
# Poissons Ratio (y) = 0.56291 0.40223
# Poissons Ratio (z) = 0.13945 0.48824
#
# Static dielectric constant tensor:
#      x y z
#    x 3.849200 0.000000 0.000000 
#    y 0.000000 3.737360 0.000000 
#    z 0.000000 0.000000 3.703640 
# 
# 
# High freq. dielectric constant tensor:
#      x y z
#    x 1.814080 0.000000 0.000000 
#    y 0.000000 1.783260 0.000000 
#    z 0.000000 0.000000 1.773980 
# 
# From -- ./inp_files/29332.got.cif
#   From: 2010.03.12/outbox.cif.g09.slc.cpg/sg42_15_cif.got.tgz:29332.got - 2010.04.14 02:04:31.
