data_PCOD8186024
_publ_section_title
;
Structure prediction by ZEFSAII (Michael W. Deem and Ramdas Pophale) SiO2 
 PCOD8186024
Probable space group: F M M 2
;
_chemical_formula_sum "Si O2"
_cell_formula_units_Z 128
_cell_length_a 26.417420
_cell_length_b 9.834113
_cell_length_c 28.867239
_cell_angle_alpha 90.000000
_cell_angle_beta 90.000000
_cell_angle_gamma 90.000000
_cell_volume 7499.474678
_symmetry_space_group_name_H-M "F M M 2"
_symmetry_group_IT_number 42
_symmetry_cell_setting 'orthorhombic'
loop_
_space_group_symop_operation_xyz
x,y,z
-x,-y,z
-x,y,z
x,-y,z
x,1/2+y,1/2+z
-x,1/2-y,1/2+z
-x,1/2+y,1/2+z
x,1/2-y,1/2+z
1/2+x,y,1/2+z
1/2-x,-y,1/2+z
1/2-x,y,1/2+z
1/2+x,-y,1/2+z
1/2+x,1/2+y,z
1/2-x,1/2-y,z
1/2-x,1/2+y,z
1/2+x,1/2-y,z
loop_
_atom_site_type_symbol
_atom_site_label
_atom_site_fract_x
_atom_site_fract_y
_atom_site_fract_z
Si Si1 0.441901 0.148519 0.853600
Si Si2 0.390234 0.842612 0.942571
Si Si3 0.895839 0.154332 0.215164
Si Si4 0.442009 0.653183 0.118756
Si Si5 0.702587 0.844336 0.773991
Si Si6 0.202242 0.658416 0.880241
Si Si7 0.441614 0.648673 0.780503
Si Si8 0.058695 0.159443 0.533821
O O1 0.500000 0.136169 0.839975
O O2 0.436545 0.186379 0.907405
O O3 0.415889 0.263573 0.821844
O O4 0.415282 0.000000 0.844673
O O5 0.339994 0.788112 0.916735
O O6 0.383191 0.000000 0.952290
O O7 0.406077 0.779759 0.992175
O O8 0.900929 0.170204 0.159905
O O9 0.840876 0.190381 0.236296
O O10 0.935603 0.264065 0.234123
O O11 0.910961 0.000000 0.229740
O O12 0.500000 0.681767 0.135482
O O13 0.438561 0.500000 0.098943
O O14 0.425467 0.758736 0.079426
O O15 0.750000 0.750000 0.761587
O O16 0.684106 0.817962 0.827021
O O17 0.720072 0.000000 0.768331
O O18 0.215241 0.500000 0.888310
O O19 0.250000 0.750000 0.891880
O O20 0.500000 0.625130 0.790921
O O21 0.415090 0.500000 0.777023
O O22 0.000000 0.185314 0.521206
O O23 0.068355 0.000000 0.542778
#
# Coordination Sequence:
#
# PCOD8186024 Si02
#       8
#    16  16  16  16  16  16  16  16
#     4   9  16  27  44  64  88 120 155 186 220 272
#     4   9  16  28  48  70  90 117 155 194 229 270
#     4  10  19  32  51  70  89 121 164 199 230 278
#     4   9  18  32  49  70  96 124 155 193 235 278
#     4   9  18  32  50  72  96 122 154 194 238 282
#     4   9  17  30  47  67  93 121 151 189 230 273
#     4  10  20  30  40  62  97 128 153 187 232 278
#     4   9  17  30  49  72  96 121 152 191 234 280
#
# _framework density 17.067862999999999
#
# number of rings (size 3 to 8) (size 9 to 14) (size 15 to 20)
#    0.000    2.750    0.000    1.875    0.000    5.750 
#    0.000    5.625    0.000    3.750    0.000    5.250 
#    0.000    0.000    0.000    0.000    0.000    0.000 
#
# Total GULP energy -396457.635474 kJ/mol
# GULP energy per Si atom -12389.301109 kJ/mol
# Density = 1.702902 g / cm^3
# Si number density = 17.067863 Si / 1000 Ang^3
#
#
#
# Elastic Constant Matrix: (Units=GPa)
#
#
# Indices 1 2 3 4 5 6 
#
# 1 67.8867 37.9383 52.7240 0.0000 0.0000 0.0000
# 2 37.9383 94.7841 59.9450 0.0000 0.0000 -0.0001
# 3 52.7240 59.9450 126.4810 0.0000 0.0000 0.0000
# 4 0.0000 0.0000 0.0000 22.2585 0.0000 0.0000
# 5 0.0000 0.0000 0.0000 0.0000 29.4008 0.0000
# 6 0.0000 -0.0001 0.0000 0.0000 0.0000 19.3153
#
#
#
# Elastic Compliance Matrix: (Units=1/GPa)
#
#
# Indices 1 2 3 4 5 6 
#
# 1 0.023051 -0.004497 -0.007477 0.000000 0.000000 0.000000
# 2 -0.004497 0.015944 -0.005682 0.000000 0.000000 0.000000
# 3 -0.007477 -0.005682 0.013716 0.000000 0.000000 0.000000
# 4 0.000000 0.000000 0.000000 0.044927 0.000000 0.000000
# 5 0.000000 0.000000 0.000000 0.000000 0.034013 0.000000
# 6 0.000000 0.000000 0.000000 0.000000 0.000000 0.051773
#
#
# Mechanical properties :
#
#
# Convention : Reuss Voigt Hill
#
# Bulk Modulus (GPa) = 57.47817 65.59630 61.53723
# Shear Modulus (GPa) = 22.26823 23.43121 22.84972
#
# Velocity S-wave (km/s) = 3.61596 3.70919 3.66287
# Velocity P-wave (km/s) = 7.15423 7.54057 7.34994
#
# Compressibility (1/GPa) = 0.01739791
#
# Stress axis : x y z
#
# Youngs Moduli (GPa) = 43.38188 62.72052 72.90705
#
# Poissons Ratio (x) = 0.28208 0.54515
# Poissons Ratio (y) = 0.19511 0.41423
# Poissons Ratio (z) = 0.32438 0.35636
#
# Static dielectric constant tensor:
#      x y z
#    x 3.009900 0.000000 0.000000 
#    y 0.000000 3.369390 0.000000 
#    z 0.000000 0.000000 3.181520 
# 
# 
# High freq. dielectric constant tensor:
#      x y z
#    x 1.635090 0.000000 0.000000 
#    y 0.000000 1.652890 0.000000 
#    z 0.000000 0.000000 1.646060 
# 
# From -- ./inp_files/33295.got.cif
#   From: 2010.03.12/outbox.cif.g09.slc.cpg/sg42_17_cif.got.tgz:33295.got - 2010.04.14 02:04:31.
