data_PCOD8186626
_publ_section_title
;
Structure prediction by ZEFSAII (Michael W. Deem and Ramdas Pophale) SiO2 
 PCOD8186626
Probable space group: F M M 2
;
_chemical_formula_sum "Si O2"
_cell_formula_units_Z 80
_cell_length_a 18.471626
_cell_length_b 17.261187
_cell_length_c 13.055398
_cell_angle_alpha 90.000000
_cell_angle_beta 90.000000
_cell_angle_gamma 90.000000
_cell_volume 4162.611697
_symmetry_space_group_name_H-M "F M M 2"
_symmetry_group_IT_number 42
_symmetry_cell_setting 'orthorhombic'
loop_
_space_group_symop_operation_xyz
x,y,z
-x,-y,z
-x,y,z
x,-y,z
x,1/2+y,1/2+z
-x,1/2-y,1/2+z
-x,1/2+y,1/2+z
x,1/2-y,1/2+z
1/2+x,y,1/2+z
1/2-x,-y,1/2+z
1/2-x,y,1/2+z
1/2+x,-y,1/2+z
1/2+x,1/2+y,z
1/2-x,1/2-y,z
1/2-x,1/2+y,z
1/2+x,1/2-y,z
loop_
_atom_site_type_symbol
_atom_site_label
_atom_site_fract_x
_atom_site_fract_y
_atom_site_fract_z
Si Si1 0.268110 0.165602 0.977160
Si Si2 0.000000 0.908350 0.957306
Si Si3 0.264266 0.412930 0.683024
Si Si4 0.862642 0.672824 0.791787
Si Si5 0.634502 0.152651 0.330336
Si Si6 0.500000 0.592125 0.195179
O O1 0.250000 0.250000 0.024976
O O2 0.342820 0.161304 0.911850
O O3 0.202930 0.146551 0.902962
O O4 0.274871 0.100730 0.062923
O O5 0.932014 0.876475 0.896228
O O6 0.000000 0.000000 0.954705
O O7 0.000000 0.879670 0.076003
O O8 0.235468 0.500000 0.700653
O O9 0.205947 0.351014 0.723223
O O10 0.343320 0.402604 0.735464
O O11 0.880319 0.763624 0.779738
O O12 0.930616 0.623026 0.755761
O O13 0.500000 0.500000 0.199768
#
# Coordination Sequence:
#
# PCOD8186626 Si02
#       6
#    16   8  16  16  16   8
#     4   9  19  36  58  82 109 144 188 229 270 326
#     4  11  23  38  57  83 113 145 184 231 282 330
#     4  11  21  34  57  86 114 145 182 230 281 324
#     4  10  21  38  58  81 111 147 189 228 269 328
#     4  10  21  38  58  80 110 148 188 229 271 327
#     4  11  23  38  59  85 113 145 182 231 284 328
#
# _framework density 19.218703999999999
#
# number of rings (size 3 to 8) (size 9 to 14) (size 15 to 20)
#    0.000    1.800    0.000    6.000    0.000    8.000 
#    0.000    1.000    0.000    1.200    0.000    0.000 
#    0.000    0.000    0.000    0.000    0.000    0.000 
#
# Total GULP energy -247903.876201 kJ/mol
# GULP energy per Si atom -12395.193810 kJ/mol
# Density = 1.917496 g / cm^3
# Si number density = 19.218704 Si / 1000 Ang^3
#
#
#
# Elastic Constant Matrix: (Units=GPa)
#
#
# Indices 1 2 3 4 5 6 
#
# 1 107.5611 37.5188 40.0914 0.0000 0.0000 0.0000
# 2 37.5188 110.1460 53.3674 0.0000 0.0000 0.0000
# 3 40.0914 53.3674 86.0453 0.0000 0.0000 0.0000
# 4 0.0000 0.0000 0.0000 27.1634 0.0000 0.0000
# 5 0.0000 0.0000 0.0000 0.0000 94.2824 0.0000
# 6 0.0000 0.0000 0.0000 0.0000 0.0000 25.4453
#
#
#
# Elastic Compliance Matrix: (Units=1/GPa)
#
#
# Indices 1 2 3 4 5 6 
#
# 1 0.011520 -0.001892 -0.004194 0.000000 0.000000 0.000000
# 2 -0.001892 0.013290 -0.007361 0.000000 0.000000 0.000000
# 3 -0.004194 -0.007361 0.018142 0.000000 0.000000 0.000000
# 4 0.000000 0.000000 0.000000 0.036814 0.000000 0.000000
# 5 0.000000 0.000000 0.000000 0.000000 0.010606 0.000000
# 6 0.000000 0.000000 0.000000 0.000000 0.000000 0.039300
#
#
# Mechanical properties :
#
#
# Convention : Reuss Voigt Hill
#
# Bulk Modulus (GPa) = 62.27807 62.85640 62.56724
# Shear Modulus (GPa) = 30.87948 40.89654 35.88801
#
# Velocity S-wave (km/s) = 4.01277 4.61798 4.32597
# Velocity P-wave (km/s) = 7.34473 7.82376 7.58802
#
# Compressibility (1/GPa) = 0.01605702
#
# Stress axis : x y z
#
# Youngs Moduli (GPa) = 86.80314 75.24499 55.12185
#
# Poissons Ratio (x) = 0.14236 0.23120
# Poissons Ratio (y) = 0.16423 0.40576
# Poissons Ratio (z) = 0.36408 0.55389
#
# Static dielectric constant tensor:
#      x y z
#    x 3.639210 0.000000 0.000000 
#    y 0.000000 3.567120 0.000000 
#    z 0.000000 0.000000 3.697100 
# 
# 
# High freq. dielectric constant tensor:
#      x y z
#    x 1.735970 0.000000 0.000000 
#    y 0.000000 1.751870 0.000000 
#    z 0.000000 0.000000 1.754740 
# 
# From -- ./inp_files/9369.got.cif
#   From: 2010.03.12/outbox.cif.g09.slc.cpg/sg42_5_cif.got.tgz:9369.got - 2010.04.14 02:04:31.
