data_PCOD8186497
_publ_section_title
;
Structure prediction by ZEFSAII (Michael W. Deem and Ramdas Pophale) SiO2 
 PCOD8186497
Probable space group: F M M 2
;
_chemical_formula_sum "Si O2"
_cell_formula_units_Z 112
_cell_length_a 14.312241
_cell_length_b 22.626108
_cell_length_c 17.293847
_cell_angle_alpha 90.000000
_cell_angle_beta 90.000000
_cell_angle_gamma 90.000000
_cell_volume 5600.271845
_symmetry_space_group_name_H-M "F M M 2"
_symmetry_group_IT_number 42
_symmetry_cell_setting 'orthorhombic'
loop_
_space_group_symop_operation_xyz
x,y,z
-x,-y,z
-x,y,z
x,-y,z
x,1/2+y,1/2+z
-x,1/2-y,1/2+z
-x,1/2+y,1/2+z
x,1/2-y,1/2+z
1/2+x,y,1/2+z
1/2-x,-y,1/2+z
1/2-x,y,1/2+z
1/2+x,-y,1/2+z
1/2+x,1/2+y,z
1/2-x,1/2-y,z
1/2-x,1/2+y,z
1/2+x,1/2-y,z
loop_
_atom_site_type_symbol
_atom_site_label
_atom_site_fract_x
_atom_site_fract_y
_atom_site_fract_z
Si Si1 0.352693 0.237141 0.180710
Si Si2 0.104683 0.858228 0.796086
Si Si3 0.230142 0.566203 0.187505
Si Si4 0.390222 0.309873 0.520225
Si Si5 0.108784 0.436587 0.035599
Si Si6 0.110699 0.689246 0.457497
Si Si7 0.395754 0.359865 0.119377
O O1 0.250000 0.250000 0.212795
O O2 0.407044 0.201398 0.246325
O O3 0.406816 0.297279 0.162532
O O4 0.341941 0.196366 0.104147
O O5 0.178847 0.902793 0.759211
O O6 0.147646 0.841626 0.880035
O O7 0.000000 0.886144 0.803258
O O8 0.255583 0.500000 0.213524
O O9 0.160639 0.565730 0.116280
O O10 0.327227 0.597610 0.165923
O O11 0.500000 0.301637 0.533714
O O12 0.366409 0.376321 0.487454
O O13 0.352879 0.257805 0.463820
O O14 0.133086 0.500000 0.993287
O O15 0.000000 0.434905 0.055885
O O16 0.144051 0.651735 0.532414
O O17 0.000000 0.690745 0.455283
O O18 0.500000 0.388160 0.116440
#
# Coordination Sequence:
#
# PCOD8186497 Si02
#       7
#    16  16  16  16  16  16  16
#     4  11  18  30  53  83 114 148 186 234 290 345
#     4  11  20  35  57  88 123 147 180 238 304 358
#     4  11  22  35  56  84 113 153 200 237 280 343
#     4   9  15  28  48  75 108 148 188 227 280 343
#     4   9  16  27  47  78 114 150 190 233 277 333
#     4   8  18  33  55  84 114 148 185 236 303 353
#     4  10  20  38  59  81 113 151 196 243 285 338
#
# _framework density 19.999029
#
# number of rings (size 3 to 8) (size 9 to 14) (size 15 to 20)
#    0.000    2.143    2.857    2.571    0.000    1.143 
#    0.000    5.000    0.000    2.571    0.000    1.000 
#    0.000    2.286    0.000    0.000    0.000    0.143 
#
# Total GULP energy -346932.151016 kJ/mol
# GULP energy per Si atom -12390.433965 kJ/mol
# Density = 1.995351 g / cm^3
# Si number density = 19.999029 Si / 1000 Ang^3
#
#
#
# Elastic Constant Matrix: (Units=GPa)
#
#
# Indices 1 2 3 4 5 6 
#
# 1 65.8529 50.3948 30.8863 0.0000 0.0000 0.0000
# 2 50.3948 161.0870 59.7522 0.0000 0.0000 0.0000
# 3 30.8863 59.7522 89.1840 0.0000 0.0000 0.0000
# 4 0.0000 0.0000 0.0000 23.7321 0.0000 0.0000
# 5 0.0000 0.0000 0.0000 0.0000 11.2192 0.0000
# 6 0.0000 0.0000 0.0000 0.0000 0.0000 18.5830
#
#
#
# Elastic Compliance Matrix: (Units=1/GPa)
#
#
# Indices 1 2 3 4 5 6 
#
# 1 0.020890 -0.005126 -0.003801 0.000000 0.000000 0.000000
# 2 -0.005126 0.009518 -0.004602 0.000000 0.000000 0.000000
# 3 -0.003801 -0.004602 0.015612 0.000000 0.000000 0.000000
# 4 0.000000 0.000000 0.000000 0.042137 0.000000 0.000000
# 5 0.000000 0.000000 0.000000 0.000000 0.089133 0.000000
# 6 0.000000 0.000000 0.000000 0.000000 0.000000 0.053813
#
#
# Mechanical properties :
#
#
# Convention : Reuss Voigt Hill
#
# Bulk Modulus (GPa) = 52.73048 66.46563 59.59805
# Shear Modulus (GPa) = 18.90489 22.37957 20.64223
#
# Velocity S-wave (km/s) = 3.07789 3.34882 3.21621
# Velocity P-wave (km/s) = 6.24940 6.94690 6.60736
#
# Compressibility (1/GPa) = 0.01896436
#
# Stress axis : x y z
#
# Youngs Moduli (GPa) = 47.86892 105.05979 64.05169
#
# Poissons Ratio (x) = 0.53849 0.24344
# Poissons Ratio (y) = 0.24536 0.29477
# Poissons Ratio (z) = 0.18194 0.48350
#
# Static dielectric constant tensor:
#      x y z
#    x 3.503120 0.000000 0.000000 
#    y 0.000000 4.163150 0.000000 
#    z 0.000000 0.000000 3.504620 
# 
# 
# High freq. dielectric constant tensor:
#      x y z
#    x 1.783420 0.000000 0.000000 
#    y 0.000000 1.779500 0.000000 
#    z 0.000000 0.000000 1.733460 
# 
# From -- ./inp_files/14274.got.cif
#   From: 2010.03.12/outbox.cif.g09.slc.cpg/sg42_8_cif.got.tgz:14274.got - 2010.04.14 02:04:31.
