data_PCOD8186700
_publ_section_title
;
Structure prediction by ZEFSAII (Michael W. Deem and Ramdas Pophale) SiO2 
 PCOD8186700
Probable space group: F M M 2
;
_chemical_formula_sum "Si O2"
_cell_formula_units_Z 88
_cell_length_a 27.722235
_cell_length_b 15.202904
_cell_length_c 10.619481
_cell_angle_alpha 90.000000
_cell_angle_beta 90.000000
_cell_angle_gamma 90.000000
_cell_volume 4475.670293
_symmetry_space_group_name_H-M "F M M 2"
_symmetry_group_IT_number 42
_symmetry_cell_setting 'orthorhombic'
loop_
_space_group_symop_operation_xyz
x,y,z
-x,-y,z
-x,y,z
x,-y,z
x,1/2+y,1/2+z
-x,1/2-y,1/2+z
-x,1/2+y,1/2+z
x,1/2-y,1/2+z
1/2+x,y,1/2+z
1/2-x,-y,1/2+z
1/2-x,y,1/2+z
1/2+x,-y,1/2+z
1/2+x,1/2+y,z
1/2-x,1/2-y,z
1/2-x,1/2+y,z
1/2+x,1/2-y,z
loop_
_atom_site_type_symbol
_atom_site_label
_atom_site_fract_x
_atom_site_fract_y
_atom_site_fract_z
Si Si1 0.122092 0.325420 0.035410
Si Si2 0.630041 0.353814 0.923522
Si Si3 0.208769 0.825284 0.722307
Si Si4 0.845453 0.500000 0.905748
Si Si5 0.553857 0.098709 0.225440
Si Si6 0.154647 0.000000 0.104994
Si Si7 0.760575 0.500000 0.092582
O O1 0.169203 0.299340 0.117393
O O2 0.074915 0.336510 0.120596
O O3 0.110858 0.244149 0.946079
O O4 0.127891 0.412742 0.952513
O O5 0.682022 0.344385 0.854614
O O6 0.590037 0.402776 0.842015
O O7 0.631273 0.410173 0.052386
O O8 0.250000 0.750000 0.737254
O O9 0.232887 0.915563 0.680714
O O10 0.844126 0.500000 0.755438
O O11 0.792599 0.500000 0.966984
O O12 0.500000 0.129873 0.263584
O O13 0.552501 0.000000 0.170899
O O14 0.206966 0.000000 0.042253
#
# Coordination Sequence:
#
# PCOD8186700 Si02
#       7
#    16  16  16   8  16   8   8
#     4  10  22  41  63  92 122 161 204 258 306 368
#     4  11  24  38  64  93 127 158 206 261 309 367
#     4  10  22  39  60  88 124 167 213 251 297 360
#     4  10  24  40  60  85 124 163 207 250 305 354
#     4  10  21  43  71  91 117 161 207 256 316 382
#     4  12  25  38  59  91 122 170 202 261 308 355
#     4  10  23  38  59  82 120 171 219 249 289 365
#
# _framework density 19.661860000000001
#
# number of rings (size 3 to 8) (size 9 to 14) (size 15 to 20)
#    0.000    1.636    1.818    1.636   12.727    2.909 
#    0.000    0.000    0.000    1.091    0.000    0.000 
#    0.000    0.000    0.000    0.000    0.000    0.000 
#
# Total GULP energy -272726.103789 kJ/mol
# GULP energy per Si atom -12396.641081 kJ/mol
# Density = 1.961711 g / cm^3
# Si number density = 19.661860 Si / 1000 Ang^3
#
#
#
# Elastic Constant Matrix: (Units=GPa)
#
#
# Indices 1 2 3 4 5 6 
#
# 1 117.5683 39.5160 33.4548 0.0000 0.0000 0.0000
# 2 39.5160 128.1883 45.2466 0.0000 0.0000 0.0000
# 3 33.4548 45.2466 116.9156 0.0000 0.0000 0.0000
# 4 0.0000 0.0000 0.0000 56.0740 0.0000 0.0000
# 5 0.0000 0.0000 0.0000 0.0000 10.3520 0.0000
# 6 0.0000 0.0000 0.0000 0.0000 0.0000 23.5772
#
#
#
# Elastic Compliance Matrix: (Units=1/GPa)
#
#
# Indices 1 2 3 4 5 6 
#
# 1 0.009841 -0.002362 -0.001902 0.000000 0.000000 0.000000
# 2 -0.002362 0.009602 -0.003040 0.000000 0.000000 0.000000
# 3 -0.001902 -0.003040 0.010274 0.000000 0.000000 0.000000
# 4 0.000000 0.000000 0.000000 0.017834 0.000000 0.000000
# 5 0.000000 0.000000 0.000000 0.000000 0.096599 0.000000
# 6 0.000000 0.000000 0.000000 0.000000 0.000000 0.042414
#
#
# Mechanical properties :
#
#
# Convention : Reuss Voigt Hill
#
# Bulk Modulus (GPa) = 66.18705 66.56747 66.37726
# Shear Modulus (GPa) = 24.24729 34.29763 29.27246
#
# Velocity S-wave (km/s) = 3.51553 4.18110 3.86268
# Velocity P-wave (km/s) = 7.08620 7.56561 7.32983
#
# Compressibility (1/GPa) = 0.01510870
#
# Stress axis : x y z
#
# Youngs Moduli (GPa) = 101.61736 104.14125 97.33425
#
# Poissons Ratio (x) = 0.24602 0.18510
# Poissons Ratio (y) = 0.24006 0.29591
# Poissons Ratio (z) = 0.19324 0.31661
#
# Static dielectric constant tensor:
#      x y z
#    x 3.521810 0.000000 0.000000 
#    y 0.000000 3.619700 0.000000 
#    z 0.000000 0.000000 3.457710 
# 
# 
# High freq. dielectric constant tensor:
#      x y z
#    x 1.749560 0.000000 0.000000 
#    y 0.000000 1.781590 0.000000 
#    z 0.000000 0.000000 1.761440 
# 
# From -- ./inp_files/11047.got.cif
#   From: 2010.03.12/outbox.cif.g09.slc.cpg/sg42_6_cif.got.tgz:11047.got - 2010.04.14 02:04:31.
