data_PCOD8186704
_publ_section_title
;
Structure prediction by ZEFSAII (Michael W. Deem and Ramdas Pophale) SiO2 
 PCOD8186704
Probable space group: F M M 2
;
_chemical_formula_sum "Si O2"
_cell_formula_units_Z 112
_cell_length_a 14.071962
_cell_length_b 29.835518
_cell_length_c 13.495791
_cell_angle_alpha 90.000000
_cell_angle_beta 90.000000
_cell_angle_gamma 90.000000
_cell_volume 5666.130595
_symmetry_space_group_name_H-M "F M M 2"
_symmetry_group_IT_number 42
_symmetry_cell_setting 'orthorhombic'
loop_
_space_group_symop_operation_xyz
x,y,z
-x,-y,z
-x,y,z
x,-y,z
x,1/2+y,1/2+z
-x,1/2-y,1/2+z
-x,1/2+y,1/2+z
x,1/2-y,1/2+z
1/2+x,y,1/2+z
1/2-x,-y,1/2+z
1/2-x,y,1/2+z
1/2+x,-y,1/2+z
1/2+x,1/2+y,z
1/2-x,1/2-y,z
1/2-x,1/2+y,z
1/2+x,1/2-y,z
loop_
_atom_site_type_symbol
_atom_site_label
_atom_site_fract_x
_atom_site_fract_y
_atom_site_fract_z
Si Si1 0.647654 0.736575 0.939680
Si Si2 0.396274 0.823720 0.031977
Si Si3 0.107416 0.552440 0.424227
Si Si4 0.107393 0.678868 0.618188
Si Si5 0.892120 0.552234 0.194869
Si Si6 0.752625 0.392576 0.561561
Si Si7 0.888064 0.767636 0.719155
O O1 0.750000 0.750000 0.980977
O O2 0.652252 0.719978 0.826563
O O3 0.589177 0.782704 0.954683
O O4 0.605306 0.695985 0.003925
O O5 0.500000 0.847012 0.040452
O O6 0.316266 0.859306 0.998300
O O7 0.361295 0.805663 0.139704
O O8 0.118831 0.500000 0.444699
O O9 0.125050 0.563564 0.309597
O O10 0.187456 0.577498 0.486568
O O11 0.000000 0.567555 0.454361
O O12 0.173480 0.635360 0.629147
O O13 0.151106 0.718862 0.685592
O O14 0.000000 0.665992 0.649417
O O15 0.877207 0.500000 0.174507
O O16 0.814485 0.578319 0.131548
O O17 0.000000 0.566133 0.165289
O O18 0.000000 0.763309 0.724339
#
# Coordination Sequence:
#
# PCOD8186704 Si02
#       7
#    16  16  16  16  16  16  16
#     4  11  20  34  55  74 101 150 197 231 270 325
#     4  10  22  37  51  77 112 144 184 235 279 324
#     4   9  20  40  63  87 115 147 184 226 276 341
#     4  10  22  37  51  77 113 144 184 234 278 324
#     4   9  20  40  63  86 114 147 184 226 276 341
#     4  12  21  33  58  90 114 144 183 234 283 338
#     4   9  20  36  53  70 102 151 194 230 272 323
#
# _framework density 19.766576000000001
#
# number of rings (size 3 to 8) (size 9 to 14) (size 15 to 20)
#    0.000    2.000    1.429    4.286    2.000    2.286 
#    0.000    1.429    0.000    2.571    0.000   10.000 
#    0.000    0.000    0.000    0.000    0.000    0.000 
#
# Total GULP energy -347073.333623 kJ/mol
# GULP energy per Si atom -12395.476201 kJ/mol
# Density = 1.972159 g / cm^3
# Si number density = 19.766576 Si / 1000 Ang^3
#
#
#
# Elastic Constant Matrix: (Units=GPa)
#
#
# Indices 1 2 3 4 5 6 
#
# 1 113.4249 61.4253 36.2857 0.0000 0.0000 0.0000
# 2 61.4253 80.3254 32.3929 0.0000 0.0000 0.0000
# 3 36.2857 32.3929 85.2111 0.0000 0.0000 0.0000
# 4 0.0000 0.0000 0.0000 14.4010 0.0000 0.0000
# 5 0.0000 0.0000 0.0000 0.0000 31.9316 0.0000
# 6 0.0000 0.0000 0.0000 0.0000 0.0000 37.8338
#
#
#
# Elastic Compliance Matrix: (Units=1/GPa)
#
#
# Indices 1 2 3 4 5 6 
#
# 1 0.015476 -0.010839 -0.002470 0.000000 0.000000 0.000000
# 2 -0.010839 0.022294 -0.003860 0.000000 0.000000 0.000000
# 3 -0.002470 -0.003860 0.014255 0.000000 0.000000 0.000000
# 4 0.000000 0.000000 0.000000 0.069440 0.000000 0.000000
# 5 0.000000 0.000000 0.000000 0.000000 0.031317 0.000000
# 6 0.000000 0.000000 0.000000 0.000000 0.000000 0.026431
#
#
# Mechanical properties :
#
#
# Convention : Reuss Voigt Hill
#
# Bulk Modulus (GPa) = 56.53411 59.90770 58.22091
# Shear Modulus (GPa) = 22.78461 26.75711 24.77086
#
# Velocity S-wave (km/s) = 3.39880 3.68320 3.54385
# Velocity P-wave (km/s) = 6.63818 6.96141 6.80172
#
# Compressibility (1/GPa) = 0.01768843
#
# Stress axis : x y z
#
# Youngs Moduli (GPa) = 64.61478 44.85444 70.15279
#
# Poissons Ratio (x) = 0.48617 0.17328
# Poissons Ratio (y) = 0.70035 0.27077
# Poissons Ratio (z) = 0.15960 0.17312
#
# Static dielectric constant tensor:
#      x y z
#    x 3.795060 0.000000 0.000000 
#    y 0.000000 3.499640 0.000000 
#    z 0.000000 0.000000 3.579120 
# 
# 
# High freq. dielectric constant tensor:
#      x y z
#    x 1.794050 0.000000 0.000000 
#    y 0.000000 1.754910 0.000000 
#    z 0.000000 0.000000 1.746920 
# 
# From -- ./inp_files/14497.got.cif
#   From: 2010.03.12/outbox.cif.g09.slc.cpg/sg42_8_cif.got.tgz:14497.got - 2010.04.14 02:04:31.
