data_PCOD8186246
_publ_section_title
;
Structure prediction by ZEFSAII (Michael W. Deem and Ramdas Pophale) SiO2 
 PCOD8186246
Probable space group: F M M 2
;
_chemical_formula_sum "Si O2"
_cell_formula_units_Z 80
_cell_length_a 9.126653
_cell_length_b 19.571364
_cell_length_c 24.846558
_cell_angle_alpha 90.000000
_cell_angle_beta 90.000000
_cell_angle_gamma 90.000000
_cell_volume 4438.118228
_symmetry_space_group_name_H-M "F M M 2"
_symmetry_group_IT_number 42
_symmetry_cell_setting 'orthorhombic'
loop_
_space_group_symop_operation_xyz
x,y,z
-x,-y,z
-x,y,z
x,-y,z
x,1/2+y,1/2+z
-x,1/2-y,1/2+z
-x,1/2+y,1/2+z
x,1/2-y,1/2+z
1/2+x,y,1/2+z
1/2-x,-y,1/2+z
1/2-x,y,1/2+z
1/2+x,-y,1/2+z
1/2+x,1/2+y,z
1/2-x,1/2-y,z
1/2-x,1/2+y,z
1/2+x,1/2-y,z
loop_
_atom_site_type_symbol
_atom_site_label
_atom_site_fract_x
_atom_site_fract_y
_atom_site_fract_z
Si Si1 0.328833 0.681000 0.935470
Si Si2 0.831259 0.080638 0.512167
Si Si3 0.837794 0.418922 0.615692
Si Si4 0.670187 0.318252 0.810392
Si Si5 0.829597 0.420691 0.735253
O O1 0.500000 0.687528 0.948169
O O2 0.250000 0.750000 0.955386
O O3 0.297664 0.668180 0.872879
O O4 0.262645 0.616367 0.966100
O O5 0.776480 0.106410 0.570735
O O6 0.000000 0.101277 0.506195
O O7 0.807144 0.000000 0.505693
O O8 0.844403 0.500000 0.617517
O O9 0.790249 0.393643 0.675105
O O10 0.000000 0.390657 0.601319
O O11 0.500000 0.309074 0.798584
O O12 0.750000 0.250000 0.790307
O O13 0.730302 0.382347 0.778017
O O14 0.791029 0.500000 0.740992
O O15 0.000000 0.407404 0.747567
#
# Coordination Sequence:
#
# PCOD8186246 Si02
#       5
#    16  16  16  16  16
#     4  10  21  37  55  74 100 135 172 211 257 306
#     4  10  20  33  52  79 107 135 169 209 252 299
#     4   8  15  30  51  74 102 136 170 205 250 300
#     4  10  21  36  54  75 101 135 172 211 256 304
#     4   9  18  33  54  79 106 136 169 207 252 300
#
# _framework density 18.025658
#
# number of rings (size 3 to 8) (size 9 to 14) (size 15 to 20)
#    0.000    2.600    0.000    3.000    0.000    5.600 
#    0.000    7.000    0.000    4.800    0.000    0.000 
#    0.000    0.000    0.000    0.000    0.000    0.000 
#
# Total GULP energy -248005.698895 kJ/mol
# GULP energy per Si atom -12400.284945 kJ/mol
# Density = 1.798463 g / cm^3
# Si number density = 18.025658 Si / 1000 Ang^3
#
#
#
# Elastic Constant Matrix: (Units=GPa)
#
#
# Indices 1 2 3 4 5 6 
#
# 1 117.3240 53.2077 66.6874 0.0000 0.0000 0.0000
# 2 53.2077 64.6753 50.5381 0.0000 0.0000 0.0000
# 3 66.6874 50.5381 91.9815 0.0000 0.0000 0.0000
# 4 0.0000 0.0000 0.0000 6.1693 0.0000 0.0000
# 5 0.0000 0.0000 0.0000 0.0000 34.6649 0.0000
# 6 0.0000 0.0000 0.0000 0.0000 0.0000 33.3960
#
#
#
# Elastic Compliance Matrix: (Units=1/GPa)
#
#
# Indices 1 2 3 4 5 6 
#
# 1 0.016250 -0.007294 -0.007774 0.000000 0.000000 0.000000
# 2 -0.007294 0.030369 -0.011397 0.000000 0.000000 0.000000
# 3 -0.007774 -0.011397 0.022770 0.000000 0.000000 0.000000
# 4 0.000000 0.000000 0.000000 0.162094 0.000000 0.000000
# 5 0.000000 0.000000 0.000000 0.000000 0.028848 0.000000
# 6 0.000000 0.000000 0.000000 0.000000 0.000000 0.029944
#
#
# Mechanical properties :
#
#
# Convention : Reuss Voigt Hill
#
# Bulk Modulus (GPa) = 60.76031 68.31634 64.53832
# Shear Modulus (GPa) = 14.33935 21.74921 18.04428
#
# Velocity S-wave (km/s) = 2.82351 3.47734 3.16734
# Velocity P-wave (km/s) = 6.66412 7.35556 7.01836
#
# Compressibility (1/GPa) = 0.01645811
#
# Stress axis : x y z
#
# Youngs Moduli (GPa) = 61.53848 32.92846 43.91774
#
# Poissons Ratio (x) = 0.24019 0.34140
# Poissons Ratio (y) = 0.44888 0.50055
# Poissons Ratio (z) = 0.47838 0.37530
#
# Static dielectric constant tensor:
#      x y z
#    x 3.439290 0.000000 0.000000 
#    y 0.000000 3.092730 0.000000 
#    z 0.000000 0.000000 3.455530 
# 
# 
# High freq. dielectric constant tensor:
#      x y z
#    x 1.706400 0.000000 0.000000 
#    y 0.000000 1.675310 0.000000 
#    z 0.000000 0.000000 1.703030 
# 
# From -- ./inp_files/31237.got.cif
#   From: 2010.03.12/outbox.cif.g09.slc.cpg/sg42_16_cif.got.tgz:31237.got - 2010.04.14 02:04:31.
