data_PCOD8186457
_publ_section_title
;
Structure prediction by ZEFSAII (Michael W. Deem and Ramdas Pophale) SiO2 
 PCOD8186457
Probable space group: F M M 2
;
_chemical_formula_sum "Si O2"
_cell_formula_units_Z 96
_cell_length_a 18.100630
_cell_length_b 17.539951
_cell_length_c 14.444694
_cell_angle_alpha 90.000000
_cell_angle_beta 90.000000
_cell_angle_gamma 90.000000
_cell_volume 4585.961588
_symmetry_space_group_name_H-M "F M M 2"
_symmetry_group_IT_number 42
_symmetry_cell_setting 'orthorhombic'
loop_
_space_group_symop_operation_xyz
x,y,z
-x,-y,z
-x,y,z
x,-y,z
x,1/2+y,1/2+z
-x,1/2-y,1/2+z
-x,1/2+y,1/2+z
x,1/2-y,1/2+z
1/2+x,y,1/2+z
1/2-x,-y,1/2+z
1/2-x,y,1/2+z
1/2+x,-y,1/2+z
1/2+x,1/2+y,z
1/2-x,1/2-y,z
1/2-x,1/2+y,z
1/2+x,1/2-y,z
loop_
_atom_site_type_symbol
_atom_site_label
_atom_site_fract_x
_atom_site_fract_y
_atom_site_fract_z
Si Si1 0.838103 0.166825 0.877380
Si Si2 0.415209 0.824805 0.870288
Si Si3 0.706524 0.414457 0.052006
Si Si4 0.626802 0.586476 0.539337
Si Si5 0.703289 0.409361 0.266187
Si Si6 0.916027 0.082852 0.732706
O O1 0.855502 0.256263 0.873539
O O2 0.765444 0.139334 0.821069
O O3 0.908020 0.130557 0.825748
O O4 0.839550 0.141421 0.984952
O O5 0.500000 0.804000 0.839631
O O6 0.378696 0.887020 0.801587
O O7 0.421189 0.861247 0.971967
O O8 0.673775 0.500000 0.046120
O O9 0.788268 0.413112 0.008381
O O10 0.705866 0.386418 0.157932
O O11 0.595314 0.500000 0.538778
O O12 0.622954 0.620837 0.643361
O O13 0.716012 0.500000 0.280419
O O14 0.000000 0.074437 0.706223
O O15 0.878984 0.000000 0.749353
#
# Coordination Sequence:
#
# PCOD8186457 Si02
#       6
#    16  16  16  16  16  16
#     4  12  23  41  63  93 133 168 208 258 319 387
#     4  12  27  43  61  95 137 175 211 254 321 388
#     4  10  21  39  68 100 124 158 215 273 320 370
#     4  10  20  38  65  96 127 164 215 270 315 364
#     4  11  23  43  70  96 124 165 219 272 315 370
#     4  10  20  36  62  94 127 168 216 264 313 367
#
# _framework density 20.933451999999999
#
# number of rings (size 3 to 8) (size 9 to 14) (size 15 to 20)
#    0.000    1.167    3.333    3.500    0.000    3.333 
#    3.000    3.333    0.000    2.000    0.000    0.000 
#    0.000    0.000    0.000    0.000    0.000    0.000 
#
# Total GULP energy -297444.944824 kJ/mol
# GULP energy per Si atom -12393.539368 kJ/mol
# Density = 2.088581 g / cm^3
# Si number density = 20.933452 Si / 1000 Ang^3
#
#
#
# Elastic Constant Matrix: (Units=GPa)
#
#
# Indices 1 2 3 4 5 6 
#
# 1 86.0704 43.1629 37.4530 0.0000 0.0000 0.0000
# 2 43.1629 94.1096 54.0755 0.0000 0.0000 0.0000
# 3 37.4530 54.0755 129.1992 0.0000 0.0000 0.0000
# 4 0.0000 0.0000 0.0000 15.2881 0.0000 0.0000
# 5 0.0000 0.0000 0.0000 0.0000 29.2663 0.0000
# 6 0.0000 0.0000 0.0000 0.0000 0.0000 28.4215
#
#
#
# Elastic Compliance Matrix: (Units=1/GPa)
#
#
# Indices 1 2 3 4 5 6 
#
# 1 0.015470 -0.005949 -0.001995 0.000000 0.000000 0.000000
# 2 -0.005949 0.016278 -0.005089 0.000000 0.000000 0.000000
# 3 -0.001995 -0.005089 0.010448 0.000000 0.000000 0.000000
# 4 0.000000 0.000000 0.000000 0.065410 0.000000 0.000000
# 5 0.000000 0.000000 0.000000 0.000000 0.034169 0.000000
# 6 0.000000 0.000000 0.000000 0.000000 0.000000 0.035185
#
#
# Mechanical properties :
#
#
# Convention : Reuss Voigt Hill
#
# Bulk Modulus (GPa) = 61.99013 64.30687 63.14850
# Shear Modulus (GPa) = 23.99218 26.24105 25.11661
#
# Velocity S-wave (km/s) = 3.38911 3.54439 3.46762
# Velocity P-wave (km/s) = 6.70761 6.89468 6.80179
#
# Compressibility (1/GPa) = 0.01613160
#
# Stress axis : x y z
#
# Youngs Moduli (GPa) = 64.64279 61.43128 95.71218
#
# Poissons Ratio (x) = 0.36546 0.19090
# Poissons Ratio (y) = 0.38456 0.48705
# Poissons Ratio (z) = 0.12893 0.31260
#
# Static dielectric constant tensor:
#      x y z
#    x 3.610570 0.000000 0.000000 
#    y 0.000000 3.857740 0.000000 
#    z 0.000000 0.000000 3.839320 
# 
# 
# High freq. dielectric constant tensor:
#      x y z
#    x 1.808070 0.000000 0.000000 
#    y 0.000000 1.807360 0.000000 
#    z 0.000000 0.000000 1.828390 
# 
# From -- ./inp_files/13987.got.cif
#   From: 2010.03.12/outbox.cif.g09.slc.cpg/sg42_7_cif.got.tgz:13987.got - 2010.04.14 02:04:31.
