data_PCOD8186353
_publ_section_title
;
Structure prediction by ZEFSAII (Michael W. Deem and Ramdas Pophale) SiO2 
 PCOD8186353
Probable space group: F M M 2
;
_chemical_formula_sum "Si O2"
_cell_formula_units_Z 104
_cell_length_a 21.632202
_cell_length_b 9.393235
_cell_length_c 26.380935
_cell_angle_alpha 90.000000
_cell_angle_beta 90.000000
_cell_angle_gamma 90.000000
_cell_volume 5360.509885
_symmetry_space_group_name_H-M "F M M 2"
_symmetry_group_IT_number 42
_symmetry_cell_setting 'orthorhombic'
loop_
_space_group_symop_operation_xyz
x,y,z
-x,-y,z
-x,y,z
x,-y,z
x,1/2+y,1/2+z
-x,1/2-y,1/2+z
-x,1/2+y,1/2+z
x,1/2-y,1/2+z
1/2+x,y,1/2+z
1/2-x,-y,1/2+z
1/2-x,y,1/2+z
1/2+x,-y,1/2+z
1/2+x,1/2+y,z
1/2-x,1/2-y,z
1/2-x,1/2+y,z
1/2+x,1/2-y,z
loop_
_atom_site_type_symbol
_atom_site_label
_atom_site_fract_x
_atom_site_fract_y
_atom_site_fract_z
Si Si1 0.068273 0.831295 0.497950
Si Si2 0.321966 0.654175 0.149072
Si Si3 0.431155 0.159314 0.714656
Si Si4 0.308274 0.169302 0.053394
Si Si5 0.929329 0.665739 0.882440
Si Si6 0.750000 0.250000 0.241786
Si Si7 0.132005 0.162069 0.797980
O O1 0.126234 0.774162 0.531141
O O2 0.078790 0.782853 0.440237
O O3 0.000000 0.775478 0.516557
O O4 0.067601 0.000000 0.500938
O O5 0.310977 0.500000 0.122095
O O6 0.393509 0.675614 0.162599
O O7 0.304040 0.785582 0.112776
O O8 0.286912 0.647179 0.203382
O O9 0.500000 0.190624 0.697392
O O10 0.412971 0.274765 0.755946
O O11 0.423215 0.000000 0.737907
O O12 0.250000 0.250000 0.026229
O O13 0.301137 0.000000 0.047875
O O14 0.913316 0.500000 0.877180
O O15 0.879395 0.752565 0.849902
O O16 0.000000 0.694380 0.864366
O O17 0.797151 0.330906 0.279016
O O18 0.113654 0.000000 0.807798
#
# Coordination Sequence:
#
# PCOD8186353 Si02
#       7
#    16  16  16  16  16   8  16
#     4   8  17  37  62  85 110 147 193 233 274 334
#     4  10  20  35  56  77 103 143 189 229 270 327
#     4   9  19  35  53  76 109 147 183 222 273 334
#     4  11  22  36  58  85 114 146 185 233 285 338
#     4   9  18  36  61  83 108 147 187 221 271 337
#     4  10  22  38  54  70 108 150 190 220 276 326
#     4  11  22  34  53  82 111 142 184 233 278 323
#
# _framework density 19.401140000000002
#
# number of rings (size 3 to 8) (size 9 to 14) (size 15 to 20)
#    0.000    2.308    0.769    2.769    0.000    7.385 
#    1.385    1.538    0.000    3.231    0.000    0.000 
#    0.000    0.000    0.000    0.000    0.000    0.000 
#
# Total GULP energy -322175.578818 kJ/mol
# GULP energy per Si atom -12391.368416 kJ/mol
# Density = 1.935698 g / cm^3
# Si number density = 19.401140 Si / 1000 Ang^3
#
#
#
# Elastic Constant Matrix: (Units=GPa)
#
#
# Indices 1 2 3 4 5 6 
#
# 1 158.2484 41.9892 52.6324 0.0000 0.0000 0.0000
# 2 41.9892 94.0767 29.6103 0.0000 0.0000 0.0000
# 3 52.6324 29.6103 73.2446 0.0000 0.0000 0.0000
# 4 0.0000 0.0000 0.0000 10.9764 0.0000 0.0000
# 5 0.0000 0.0000 0.0000 0.0000 29.5207 0.0000
# 6 0.0000 0.0000 0.0000 0.0000 0.0000 22.4501
#
#
#
# Elastic Compliance Matrix: (Units=1/GPa)
#
#
# Indices 1 2 3 4 5 6 
#
# 1 0.008680 -0.002190 -0.005352 0.000000 0.000000 0.000000
# 2 -0.002190 0.012732 -0.003574 0.000000 0.000000 0.000000
# 3 -0.005352 -0.003574 0.018944 0.000000 0.000000 0.000000
# 4 0.000000 0.000000 0.000000 0.091105 0.000000 0.000000
# 5 0.000000 0.000000 0.000000 0.000000 0.033875 0.000000
# 6 0.000000 0.000000 0.000000 0.000000 0.000000 0.044543
#
#
# Mechanical properties :
#
#
# Convention : Reuss Voigt Hill
#
# Bulk Modulus (GPa) = 55.17366 63.78151 59.47758
# Shear Modulus (GPa) = 20.99509 26.01195 23.50352
#
# Velocity S-wave (km/s) = 3.29319 3.66559 3.48437
# Velocity P-wave (km/s) = 6.55440 7.13175 6.84916
#
# Compressibility (1/GPa) = 0.01812459
#
# Stress axis : x y z
#
# Youngs Moduli (GPa) = 115.20299 78.54417 52.78820
#
# Poissons Ratio (x) = 0.17199 0.28254
# Poissons Ratio (y) = 0.25226 0.18864
# Poissons Ratio (z) = 0.61660 0.28068
#
# Static dielectric constant tensor:
#      x y z
#    x 4.067590 0.000000 0.000000 
#    y 0.000000 3.274810 0.000000 
#    z 0.000000 0.000000 3.371700 
# 
# 
# High freq. dielectric constant tensor:
#      x y z
#    x 1.773410 0.000000 0.000000 
#    y 0.000000 1.735480 0.000000 
#    z 0.000000 0.000000 1.731810 
# 
# From -- ./inp_files/34680.got.cif
#   From: 2010.03.12/outbox.cif.g09.slc.cpg/sg42_18_cif.got.tgz:34680.got - 2010.04.14 02:04:31.
