data_PCOD8186949
_publ_section_title
;
Structure prediction by ZEFSAII (Michael W. Deem and Ramdas Pophale) SiO2 
 PCOD8186949
Probable space group: F D D 2
;
_chemical_formula_sum "Si O2"
_cell_formula_units_Z 128
_cell_length_a 24.788774
_cell_length_b 21.982103
_cell_length_c 11.437811
_cell_angle_alpha 90.000000
_cell_angle_beta 90.000000
_cell_angle_gamma 90.000000
_cell_volume 6232.570538
_symmetry_space_group_name_H-M "F D D 2"
_symmetry_group_IT_number 43
_symmetry_cell_setting 'orthorhombic'
loop_
_space_group_symop_operation_xyz
x,y,z
-x,-y,z
1/4-x,1/4+y,1/4+z
1/4+x,1/4-y,1/4+z
x,1/2+y,1/2+z
-x,1/2-y,1/2+z
1/4-x,3/4+y,3/4+z
1/4+x,3/4-y,3/4+z
1/2+x,y,1/2+z
1/2-x,-y,1/2+z
3/4-x,1/4+y,3/4+z
3/4+x,1/4-y,3/4+z
1/2+x,1/2+y,z
1/2-x,1/2-y,z
3/4-x,3/4+y,1/4+z
3/4+x,3/4-y,1/4+z
loop_
_atom_site_type_symbol
_atom_site_label
_atom_site_fract_x
_atom_site_fract_y
_atom_site_fract_z
Si Si1 0.344842 0.435364 0.128910
Si Si2 0.696900 0.586045 0.383819
Si Si3 0.797988 0.790519 0.872211
Si Si4 0.258622 0.921841 0.438455
Si Si5 0.663593 0.976640 0.043930
Si Si6 0.452476 0.275716 0.057718
Si Si7 0.341723 0.298018 0.112074
Si Si8 0.556164 0.471740 0.106489
O O1 0.332513 0.435570 0.266179
O O2 0.359854 0.367682 0.084940
O O3 0.394251 0.482188 0.118667
O O4 0.292553 0.450533 0.048323
O O5 0.677712 0.543203 0.491084
O O6 0.761197 0.581773 0.355932
O O7 0.683456 0.656290 0.418828
O O8 0.750000 0.750000 0.818327
O O9 0.776057 0.857628 0.890454
O O10 0.849486 0.786642 0.785756
O O11 0.814201 0.765936 0.000433
O O12 0.195427 0.923523 0.474196
O O13 0.262671 0.965175 0.325756
O O14 0.683692 0.968818 0.175612
O O15 0.399056 0.266489 0.138404
O O16 0.300133 0.293139 0.218512
O O17 0.500000 0.500000 0.152606
#
# Coordination Sequence:
#
# PCOD8186949 Si02
#       8
#    16  16  16  16  16  16  16  16
#     4  10  19  37  57  87 122 155 194 253 308 359
#     4  10  22  39  58  86 121 160 201 251 305 373
#     4  10  22  40  58  89 125 158 200 255 306 358
#     4  10  20  38  63  89 114 156 205 254 298 363
#     4  10  22  40  62  90 121 158 204 246 309 378
#     4  10  18  37  62  88 115 154 198 248 307 367
#     4   9  19  33  60  92 121 150 195 254 312 357
#     4  11  21  36  60  89 121 160 204 256 310 364
#
# _framework density 20.537274
#
# number of rings (size 3 to 8) (size 9 to 14) (size 15 to 20)
#    0.000    2.000    2.500    1.125    0.000    2.000 
#    9.000    0.625    0.000    0.000    0.000    0.000 
#    0.000    0.000    0.000    0.000    0.000    0.000 
#
# Total GULP energy -396460.250710 kJ/mol
# GULP energy per Si atom -12389.382835 kJ/mol
# Density = 2.049053 g / cm^3
# Si number density = 20.537274 Si / 1000 Ang^3
#
#
#
# Elastic Constant Matrix: (Units=GPa)
#
#
# Indices 1 2 3 4 5 6 
#
# 1 144.5931 48.7035 14.5340 0.0000 0.0000 0.0000
# 2 48.7035 93.7599 11.0862 0.0000 0.0000 0.0000
# 3 14.5340 11.0862 21.1923 0.0000 0.0001 0.0000
# 4 0.0000 0.0000 0.0000 23.2043 0.0000 0.0000
# 5 0.0000 0.0000 0.0001 0.0000 27.1943 0.0000
# 6 0.0000 0.0000 0.0000 0.0000 0.0000 31.4983
#
#
#
# Elastic Compliance Matrix: (Units=1/GPa)
#
#
# Indices 1 2 3 4 5 6 
#
# 1 0.008664 -0.004048 -0.003824 0.000000 0.000000 0.000000
# 2 -0.004048 0.013260 -0.004160 0.000000 0.000000 0.000000
# 3 -0.003824 -0.004160 0.051986 0.000000 0.000000 0.000000
# 4 0.000000 0.000000 0.000000 0.043095 0.000000 0.000000
# 5 0.000000 0.000000 0.000000 0.000000 0.036772 0.000000
# 6 0.000000 0.000000 0.000000 0.000000 0.000000 0.031748
#
#
# Mechanical properties :
#
#
# Convention : Reuss Voigt Hill
#
# Bulk Modulus (GPa) = 20.06235 45.35474 32.70854
# Shear Modulus (GPa) = 22.10371 28.72749 25.41560
#
# Velocity S-wave (km/s) = 3.28422 3.74411 3.52168
# Velocity P-wave (km/s) = 4.91644 6.38930 5.70064
#
# Compressibility (1/GPa) = 0.04984461
#
# Stress axis : x y z
#
# Youngs Moduli (GPa) = 115.42095 75.41267 19.23597
#
# Poissons Ratio (x) = 0.30529 0.07356
# Poissons Ratio (y) = 0.46726 0.08003
# Poissons Ratio (z) = 0.44138 0.31375
#
# Static dielectric constant tensor:
#      x y z
#    x 3.961410 0.000000 0.000000 
#    y 0.000000 3.643820 0.000000 
#    z 0.000000 0.000000 3.530610 
# 
# 
# High freq. dielectric constant tensor:
#      x y z
#    x 1.811550 0.000000 0.000000 
#    y 0.000000 1.796190 0.000000 
#    z 0.000000 0.000000 1.780260 
# 
# From -- ./inp_files/7680.got.cif
#   From: 2010.06.25/outbox.cif.g09.slc.cpg/sg43_4_cif.got.tgz:7680.got - 2010.06.26 16:48:59.
