data_PCOD8186236
_publ_section_title
;
Structure prediction by ZEFSAII (Michael W. Deem and Ramdas Pophale) SiO2 
 PCOD8186236
Probable space group: F M M 2
;
_chemical_formula_sum "Si O2"
_cell_formula_units_Z 96
_cell_length_a 19.376217
_cell_length_b 8.990766
_cell_length_c 31.209246
_cell_angle_alpha 90.000000
_cell_angle_beta 90.000000
_cell_angle_gamma 90.000000
_cell_volume 5436.870148
_symmetry_space_group_name_H-M "F M M 2"
_symmetry_group_IT_number 42
_symmetry_cell_setting 'orthorhombic'
loop_
_space_group_symop_operation_xyz
x,y,z
-x,-y,z
-x,y,z
x,-y,z
x,1/2+y,1/2+z
-x,1/2-y,1/2+z
-x,1/2+y,1/2+z
x,1/2-y,1/2+z
1/2+x,y,1/2+z
1/2-x,-y,1/2+z
1/2-x,y,1/2+z
1/2+x,-y,1/2+z
1/2+x,1/2+y,z
1/2-x,1/2-y,z
1/2-x,1/2+y,z
1/2+x,1/2-y,z
loop_
_atom_site_type_symbol
_atom_site_label
_atom_site_fract_x
_atom_site_fract_y
_atom_site_fract_z
Si Si1 0.323447 0.172078 0.239340
Si Si2 0.676067 0.173182 0.144364
Si Si3 0.824198 0.826104 0.318954
Si Si4 0.920774 0.173945 0.488793
Si Si5 0.080551 0.826789 0.075885
Si Si6 0.823074 0.173474 0.413173
O O1 0.250000 0.250000 0.237036
O O2 0.356280 0.194615 0.192232
O O3 0.365935 0.250524 0.278807
O O4 0.314911 0.000000 0.250522
O O5 0.750000 0.250000 0.138825
O O6 0.621049 0.243909 0.112936
O O7 0.686011 0.000000 0.133841
O O8 0.750000 0.750000 0.319713
O O9 0.856490 0.794616 0.365996
O O10 0.817935 0.000000 0.309886
O O11 0.894989 0.263166 0.530254
O O12 0.876885 0.231656 0.448387
O O13 0.000000 0.210451 0.478371
O O14 0.909684 0.000000 0.497601
O O15 0.000000 0.794548 0.082900
O O16 0.098067 0.000000 0.077447
O O17 0.750000 0.250000 0.420259
O O18 0.809365 0.000000 0.418596
#
# Coordination Sequence:
#
# PCOD8186236 Si02
#       6
#    16  16  16  16  16  16
#     4   9  16  26  42  66  94 124 157 191 230 277
#     4  10  20  33  51  75 101 129 162 201 244 288
#     4   9  15  24  40  63  92 123 154 189 230 277
#     4   9  18  34  53  69  90 124 163 198 235 285
#     4  10  21  36  53  73  97 126 162 202 244 293
#     4   9  18  30  46  71  97 123 156 194 236 278
#
# _framework density 17.657216999999999
#
# number of rings (size 3 to 8) (size 9 to 14) (size 15 to 20)
#    0.000    2.667    0.000    3.000    0.000    5.000 
#    0.000    1.667    0.000    1.000    0.000    2.333 
#    0.000    0.000    0.000    0.000    0.000    0.000 
#
# Total GULP energy -297390.242753 kJ/mol
# GULP energy per Si atom -12391.260115 kJ/mol
# Density = 1.761703 g / cm^3
# Si number density = 17.657217 Si / 1000 Ang^3
#
#
#
# Elastic Constant Matrix: (Units=GPa)
#
#
# Indices 1 2 3 4 5 6 
#
# 1 46.4022 35.7853 62.1794 0.0000 0.0000 0.0000
# 2 35.7853 108.6253 84.5857 0.0000 0.0000 0.0000
# 3 62.1794 84.5857 192.0165 0.0000 0.0000 0.0000
# 4 0.0000 0.0000 0.0000 16.2429 0.0000 0.0000
# 5 0.0000 0.0000 0.0000 0.0000 -0.0787 0.0000
# 6 0.0000 0.0000 0.0000 0.0000 0.0000 21.2041
#
#
#
# Elastic Compliance Matrix: (Units=1/GPa)
#
#
# Indices 1 2 3 4 5 6 
#
# 1 0.039558 -0.004653 -0.010760 0.000000 0.000000 0.000000
# 2 -0.004653 0.014560 -0.004907 0.000000 0.000000 0.000000
# 3 -0.010760 -0.004907 0.010854 0.000000 0.000000 0.000000
# 4 0.000000 0.000000 0.000000 0.061566 0.000000 0.000000
# 5 0.000000 0.000000 0.000000 0.000000-12.706946 0.000000
# 6 0.000000 0.000000 0.000000 0.000000 0.000000 0.047161
#
#
# Mechanical properties :
#
#
# Convention : Reuss Voigt Hill
#
# Bulk Modulus (GPa) = 41.09952 79.12721 60.11336
# Shear Modulus (GPa) = -0.40050 18.43990 9.01970
#
# Velocity S-wave (km/s) = -0.47677 3.23511 2.26259
# Velocity P-wave (km/s) = 4.79831 7.67234 6.39877
#
# Compressibility (1/GPa) = 0.02433118
#
# Stress axis : x y z
#
# Youngs Moduli (GPa) = 25.27965 68.68153 92.13340
#
# Poissons Ratio (x) = 0.31958 0.99135
# Poissons Ratio (y) = 0.11763 0.45211
# Poissons Ratio (z) = 0.27201 0.33703
#
# Static dielectric constant tensor:
#      x y z
#    x 2.848370 0.000000 0.000000 
#    y 0.000000 3.411240 0.000000 
#    z 0.000000 0.000000 4.441120 
# 
# 
# High freq. dielectric constant tensor:
#      x y z
#    x 1.626250 0.000000 0.000000 
#    y 0.000000 1.695230 0.000000 
#    z 0.000000 0.000000 1.711030 
# 
# From -- ./inp_files/31415.got.cif
#   From: 2010.03.12/outbox.cif.g09.slc.cpg/sg42_16_cif.got.tgz:31415.got - 2010.04.14 02:04:31.
