data_PCOD8186161
_publ_section_title
;
Structure prediction by ZEFSAII (Michael W. Deem and Ramdas Pophale) SiO2 
 PCOD8186161
Probable space group: F M M 2
;
_chemical_formula_sum "Si O2"
_cell_formula_units_Z 96
_cell_length_a 22.550625
_cell_length_b 13.180936
_cell_length_c 13.974037
_cell_angle_alpha 90.000000
_cell_angle_beta 90.000000
_cell_angle_gamma 90.000000
_cell_volume 4153.619629
_symmetry_space_group_name_H-M "F M M 2"
_symmetry_group_IT_number 42
_symmetry_cell_setting 'orthorhombic'
loop_
_space_group_symop_operation_xyz
x,y,z
-x,-y,z
-x,y,z
x,-y,z
x,1/2+y,1/2+z
-x,1/2-y,1/2+z
-x,1/2+y,1/2+z
x,1/2-y,1/2+z
1/2+x,y,1/2+z
1/2-x,-y,1/2+z
1/2-x,y,1/2+z
1/2+x,-y,1/2+z
1/2+x,1/2+y,z
1/2-x,1/2-y,z
1/2-x,1/2+y,z
1/2+x,1/2-y,z
loop_
_atom_site_type_symbol
_atom_site_label
_atom_site_fract_x
_atom_site_fract_y
_atom_site_fract_z
Si Si1 0.329904 0.880097 0.915560
Si Si2 0.933884 0.299813 0.802136
Si Si3 0.281521 0.880264 0.308860
Si Si4 0.765765 0.881467 0.600580
Si Si5 0.868847 0.880494 0.117466
Si Si6 0.601353 0.117094 0.405680
O O1 0.396551 0.848734 0.889315
O O2 0.283270 0.835761 0.836632
O O3 0.328245 0.000000 0.917368
O O4 0.307998 0.836224 0.017893
O O5 0.901559 0.317183 0.700694
O O6 0.941170 0.182091 0.835769
O O7 0.000000 0.346989 0.796378
O O8 0.297088 0.851781 0.200064
O O9 0.332417 0.841931 0.380459
O O10 0.277341 0.000000 0.321768
O O11 0.698280 0.838443 0.601585
O O12 0.759225 0.000000 0.584356
O O13 0.867335 0.000000 0.146918
O O14 0.906745 0.866302 0.019500
O O15 0.591372 0.000000 0.378159
#
# Coordination Sequence:
#
# PCOD8186161 Si02
#       6
#    16  16  16  16  16  16
#     4  10  19  35  61  96 140 176 209 273 351 409
#     4  12  27  42  61  97 140 181 230 277 328 407
#     4   9  16  32  60  93 129 163 210 277 345 402
#     4   9  16  31  60  97 135 171 211 269 339 410
#     4  10  20  41  71  99 129 173 229 285 336 394
#     4  10  23  44  68  93 129 179 232 289 344 396
#
# _framework density 23.112372000000001
#
# number of rings (size 3 to 8) (size 9 to 14) (size 15 to 20)
#    0.000    2.000    3.333    0.500    0.000    4.333 
#    0.000    3.333    0.000    1.000    0.000    9.333 
#    0.000    0.000    0.000    0.000    0.000    0.000 
#
# Total GULP energy -297435.409162 kJ/mol
# GULP energy per Si atom -12393.142048 kJ/mol
# Density = 2.305977 g / cm^3
# Si number density = 23.112372 Si / 1000 Ang^3
#
#
#
# Elastic Constant Matrix: (Units=GPa)
#
#
# Indices 1 2 3 4 5 6 
#
# 1 136.3071 17.8680 77.7238 0.0000 0.0000 0.0000
# 2 17.8680 39.4910 39.4866 0.0000 0.0000 0.0000
# 3 77.7238 39.4866 176.9632 0.0000 0.0000 0.0000
# 4 0.0000 0.0000 0.0000 33.1679 0.0000 0.0000
# 5 0.0000 0.0000 0.0000 0.0000 20.2154 0.0000
# 6 0.0000 0.0000 0.0000 0.0000 0.0000 18.9083
#
#
#
# Elastic Compliance Matrix: (Units=1/GPa)
#
#
# Indices 1 2 3 4 5 6 
#
# 1 0.009788 -0.000168 -0.004262 0.000000 0.000000 0.000000
# 2 -0.000168 0.032597 -0.007200 0.000000 0.000000 0.000000
# 3 -0.004262 -0.007200 0.009129 0.000000 0.000000 0.000000
# 4 0.000000 0.000000 0.000000 0.030150 0.000000 0.000000
# 5 0.000000 0.000000 0.000000 0.000000 0.049467 0.000000
# 6 0.000000 0.000000 0.000000 0.000000 0.000000 0.052887
#
#
# Mechanical properties :
#
#
# Convention : Reuss Voigt Hill
#
# Bulk Modulus (GPa) = 35.39035 69.21313 52.30174
# Shear Modulus (GPa) = 23.07382 28.97052 26.02217
#
# Velocity S-wave (km/s) = 3.16307 3.54427 3.35908
# Velocity P-wave (km/s) = 5.35589 6.83816 6.14191
#
# Compressibility (1/GPa) = 0.02825629
#
# Stress axis : x y z
#
# Youngs Moduli (GPa) = 102.16115 30.67749 109.53776
#
# Poissons Ratio (x) = 0.00514 0.46683
# Poissons Ratio (y) = 0.01712 0.78867
# Poissons Ratio (z) = 0.43539 0.22088
#
# Static dielectric constant tensor:
#      x y z
#    x 3.924310 0.000000 0.000000 
#    y 0.000000 4.297390 0.000000 
#    z 0.000000 0.000000 4.340450 
# 
# 
# High freq. dielectric constant tensor:
#      x y z
#    x 1.873360 0.000000 0.000000 
#    y 0.000000 1.931220 0.000000 
#    z 0.000000 0.000000 1.921520 
# 
# From -- ./inp_files/15828.got.cif
#   From: 2010.03.12/outbox.cif.g09.slc.cpg/sg42_8_cif.got.tgz:15828.got - 2010.04.14 02:04:31.
