data_PCOD8186154
_publ_section_title
;
Structure prediction by ZEFSAII (Michael W. Deem and Ramdas Pophale) SiO2 
 PCOD8186154
Probable space group: F M M 2
;
_chemical_formula_sum "Si O2"
_cell_formula_units_Z 96
_cell_length_a 8.871316
_cell_length_b 27.841378
_cell_length_c 20.155507
_cell_angle_alpha 90.000000
_cell_angle_beta 90.000000
_cell_angle_gamma 90.000000
_cell_volume 4978.201864
_symmetry_space_group_name_H-M "F M M 2"
_symmetry_group_IT_number 42
_symmetry_cell_setting 'orthorhombic'
loop_
_space_group_symop_operation_xyz
x,y,z
-x,-y,z
-x,y,z
x,-y,z
x,1/2+y,1/2+z
-x,1/2-y,1/2+z
-x,1/2+y,1/2+z
x,1/2-y,1/2+z
1/2+x,y,1/2+z
1/2-x,-y,1/2+z
1/2-x,y,1/2+z
1/2+x,-y,1/2+z
1/2+x,1/2+y,z
1/2-x,1/2-y,z
1/2-x,1/2+y,z
1/2+x,1/2-y,z
loop_
_atom_site_type_symbol
_atom_site_label
_atom_site_fract_x
_atom_site_fract_y
_atom_site_fract_z
Si Si1 0.676323 0.944647 0.035900
Si Si2 0.328368 0.944766 0.279621
Si Si3 0.677352 0.893764 0.414837
Si Si4 0.178400 0.700720 0.877082
Si Si5 0.823292 0.298425 0.725315
Si Si6 0.323022 0.103078 0.660171
O O1 0.500000 0.936457 0.025758
O O2 0.732997 0.911020 0.094900
O O3 0.713291 0.000000 0.052687
O O4 0.761018 0.930403 0.969084
O O5 0.500000 0.933044 0.258282
O O6 0.279314 0.914515 0.343274
O O7 0.217547 0.932883 0.219486
O O8 0.310252 0.000000 0.298858
O O9 0.500000 0.887998 0.424381
O O10 0.756107 0.842037 0.422114
O O11 0.250000 0.750000 0.904043
O O12 0.230098 0.692493 0.800878
O O13 0.000000 0.702725 0.884859
O O14 0.750000 0.250000 0.696248
O O15 0.772648 0.343143 0.680269
O O16 0.000000 0.291301 0.723410
O O17 0.500000 0.099704 0.646009
#
# Coordination Sequence:
#
# PCOD8186154 Si02
#       6
#    16  16  16  16  16  16
#     4  11  25  43  61  83 116 159 202 246 299 357
#     4  10  21  36  56  84 116 149 191 242 293 349
#     4  11  22  38  61  88 118 155 198 245 298 353
#     4  10  19  35  58  88 123 156 195 241 295 352
#     4   9  19  34  56  86 119 152 190 235 288 346
#     4  11  22  38  59  87 118 152 195 243 294 352
#
# _framework density 19.284071000000001
#
# number of rings (size 3 to 8) (size 9 to 14) (size 15 to 20)
#    0.000    1.667    1.667    3.000    0.000    7.000 
#    0.000    0.833    0.000    2.000    0.000    0.000 
#    0.000    0.000    0.000    0.000    0.000    0.000 
#
# Total GULP energy -297724.122316 kJ/mol
# GULP energy per Si atom -12405.171763 kJ/mol
# Density = 1.924018 g / cm^3
# Si number density = 19.284071 Si / 1000 Ang^3
#
#
#
# Elastic Constant Matrix: (Units=GPa)
#
#
# Indices 1 2 3 4 5 6 
#
# 1 74.1425 39.6950 31.2572 0.0000 0.0000 0.0000
# 2 39.6950 107.7060 22.1820 0.0000 0.0000 0.0000
# 3 31.2572 22.1820 61.5240 0.0000 0.0000 0.0000
# 4 0.0000 0.0000 0.0000 32.9014 0.0000 0.0000
# 5 0.0000 0.0000 0.0000 0.0000 33.0412 0.0000
# 6 0.0000 0.0000 0.0000 0.0000 0.0000 35.8885
#
#
#
# Elastic Compliance Matrix: (Units=1/GPa)
#
#
# Indices 1 2 3 4 5 6 
#
# 1 0.019937 -0.005684 -0.008080 0.000000 0.000000 0.000000
# 2 -0.005684 0.011650 -0.001313 0.000000 0.000000 0.000000
# 3 -0.008080 -0.001313 0.020832 0.000000 0.000000 0.000000
# 4 0.000000 0.000000 0.000000 0.030394 0.000000 0.000000
# 5 0.000000 0.000000 0.000000 0.000000 0.030265 0.000000
# 6 0.000000 0.000000 0.000000 0.000000 0.000000 0.027864
#
#
# Mechanical properties :
#
#
# Convention : Reuss Voigt Hill
#
# Bulk Modulus (GPa) = 44.91063 47.73789 46.32426
# Shear Modulus (GPa) = 28.00878 30.38208 29.19543
#
# Velocity S-wave (km/s) = 3.81521 3.97357 3.89519
# Velocity P-wave (km/s) = 6.53814 6.77208 6.65614
#
# Compressibility (1/GPa) = 0.02226644
#
# Stress axis : x y z
#
# Youngs Moduli (GPa) = 50.15864 85.83997 48.00324
#
# Poissons Ratio (x) = 0.48789 0.38785
# Poissons Ratio (y) = 0.28509 0.06301
# Poissons Ratio (z) = 0.40526 0.11267
#
# Static dielectric constant tensor:
#      x y z
#    x 3.555760 0.000000 0.000000 
#    y 0.000000 3.674330 0.000000 
#    z 0.000000 0.000000 3.384770 
# 
# 
# High freq. dielectric constant tensor:
#      x y z
#    x 1.757400 0.000000 0.000000 
#    y 0.000000 1.764990 0.000000 
#    z 0.000000 0.000000 1.730930 
# 
# From -- ./inp_files/23690.got.cif
#   From: 2010.03.12/outbox.cif.g09.slc.cpg/sg42_12_cif.got.tgz:23690.got - 2010.04.14 02:04:31.
