data_PCOD8186371
_publ_section_title
;
Structure prediction by ZEFSAII (Michael W. Deem and Ramdas Pophale) SiO2 
 PCOD8186371
Probable space group: F M M 2
;
_chemical_formula_sum "Si O2"
_cell_formula_units_Z 96
_cell_length_a 23.662965
_cell_length_b 8.645865
_cell_length_c 25.146095
_cell_angle_alpha 90.000000
_cell_angle_beta 90.000000
_cell_angle_gamma 90.000000
_cell_volume 5144.559131
_symmetry_space_group_name_H-M "F M M 2"
_symmetry_group_IT_number 42
_symmetry_cell_setting 'orthorhombic'
loop_
_space_group_symop_operation_xyz
x,y,z
-x,-y,z
-x,y,z
x,-y,z
x,1/2+y,1/2+z
-x,1/2-y,1/2+z
-x,1/2+y,1/2+z
x,1/2-y,1/2+z
1/2+x,y,1/2+z
1/2-x,-y,1/2+z
1/2-x,y,1/2+z
1/2+x,-y,1/2+z
1/2+x,1/2+y,z
1/2-x,1/2-y,z
1/2-x,1/2+y,z
1/2+x,1/2-y,z
loop_
_atom_site_type_symbol
_atom_site_label
_atom_site_fract_x
_atom_site_fract_y
_atom_site_fract_z
Si Si1 0.884810 0.183518 0.237980
Si Si2 0.689357 0.683169 0.646663
Si Si3 0.120419 0.819879 0.931438
Si Si4 0.688602 0.181597 0.836977
Si Si5 0.808868 0.181092 0.033185
Si Si6 0.500000 0.816886 0.394304
Si Si7 0.000000 0.683514 0.273517
O O1 0.858120 0.247114 0.184230
O O2 0.849381 0.243746 0.288559
O O3 0.946784 0.253039 0.241842
O O4 0.887717 0.000000 0.235887
O O5 0.690856 0.500000 0.651691
O O6 0.750000 0.750000 0.663789
O O7 0.673687 0.732394 0.586925
O O8 0.161576 0.729547 0.892476
O O9 0.056116 0.757759 0.924989
O O10 0.124244 0.000000 0.916692
O O11 0.141081 0.788787 0.991283
O O12 0.750000 0.250000 0.830307
O O13 0.694019 0.000000 0.835049
O O14 0.750000 0.250000 0.010814
O O15 0.800305 0.000000 0.044825
O O16 0.500000 0.752154 0.334103
O O17 0.500000 0.000000 0.393315
O O18 0.000000 0.500000 0.273132
#
# Coordination Sequence:
#
# PCOD8186371 Si02
#       7
#    16  16  16  16  16   8   8
#     4  11  23  39  58  84 117 151 193 239 286 343
#     4  11  22  38  61  86 115 151 193 239 293 349
#     4  10  20  36  58  83 113 150 192 234 282 341
#     4  11  23  35  53  81 114 147 183 232 287 342
#     4  10  20  35  57  83 114 150 190 236 289 345
#     4   9  18  35  58  83 112 151 192 232 277 333
#     4  11  21  37  62  85 114 155 196 238 285 341
#
# _framework density 18.660492000000001
#
# number of rings (size 3 to 8) (size 9 to 14) (size 15 to 20)
#    0.000    1.500    1.667    5.250    0.000    6.000 
#    0.000    1.250    0.000    2.000    0.000    0.000 
#    0.000    0.000    0.000    0.000    0.000    0.000 
#
# Total GULP energy -297699.546905 kJ/mol
# GULP energy per Si atom -12404.147788 kJ/mol
# Density = 1.861802 g / cm^3
# Si number density = 18.660492 Si / 1000 Ang^3
#
#
#
# Elastic Constant Matrix: (Units=GPa)
#
#
# Indices 1 2 3 4 5 6 
#
# 1 165.1344 44.6878 74.2103 0.0000 0.0000 0.0000
# 2 44.6878 65.6675 24.9489 0.0000 0.0000 0.0000
# 3 74.2103 24.9489 93.3080 0.0000 0.0000 0.0000
# 4 0.0000 0.0000 0.0000 26.6442 0.0000 0.0000
# 5 0.0000 0.0000 0.0000 0.0000 37.1685 0.0000
# 6 0.0000 0.0000 0.0000 0.0000 0.0000 -8.5549
#
#
#
# Elastic Compliance Matrix: (Units=1/GPa)
#
#
# Indices 1 2 3 4 5 6 
#
# 1 0.010455 -0.004403 -0.007138 0.000000 0.000000 0.000000
# 2 -0.004403 0.018804 -0.001526 0.000000 0.000000 0.000000
# 3 -0.007138 -0.001526 0.016802 0.000000 0.000000 0.000000
# 4 0.000000 0.000000 0.000000 0.037532 0.000000 0.000000
# 5 0.000000 0.000000 0.000000 0.000000 0.026904 0.000000
# 6 0.000000 0.000000 0.000000 0.000000 0.000000 -0.116892
#
#
# Mechanical properties :
#
#
# Convention : Reuss Voigt Hill
#
# Bulk Modulus (GPa) = 50.18173 67.97822 59.07998
# Shear Modulus (GPa) = 189.52385 23.06909 106.29647
#
# Velocity S-wave (km/s) = 10.08884 3.51985 7.55560
# Velocity P-wave (km/s) = 12.75395 7.28198 10.38486
#
# Compressibility (1/GPa) = 0.01992757
#
# Stress axis : x y z
#
# Youngs Moduli (GPa) = 95.64996 53.17934 59.51636
#
# Poissons Ratio (x) = 0.23414 0.42481
# Poissons Ratio (y) = 0.42113 0.09084
# Poissons Ratio (z) = 0.68272 0.08116
#
# Static dielectric constant tensor:
#      x y z
#    x 3.611270 0.000000 0.000000 
#    y 0.000000 3.454090 0.000000 
#    z 0.000000 0.000000 3.448700 
# 
# 
# High freq. dielectric constant tensor:
#      x y z
#    x 1.729180 0.000000 0.000000 
#    y 0.000000 1.729270 0.000000 
#    z 0.000000 0.000000 1.724980 
# 
# From -- ./inp_files/30438.got.cif
#   From: 2010.03.12/outbox.cif.g09.slc.cpg/sg42_16_cif.got.tgz:30438.got - 2010.04.14 02:04:31.
