data_PCOD8186616
_publ_section_title
;
Structure prediction by ZEFSAII (Michael W. Deem and Ramdas Pophale) SiO2 
 PCOD8186616
Probable space group: F M M 2
;
_chemical_formula_sum "Si O2"
_cell_formula_units_Z 96
_cell_length_a 18.773847
_cell_length_b 26.603401
_cell_length_c 9.321521
_cell_angle_alpha 90.000000
_cell_angle_beta 90.000000
_cell_angle_gamma 90.000000
_cell_volume 4655.616699
_symmetry_space_group_name_H-M "F M M 2"
_symmetry_group_IT_number 42
_symmetry_cell_setting 'orthorhombic'
loop_
_space_group_symop_operation_xyz
x,y,z
-x,-y,z
-x,y,z
x,-y,z
x,1/2+y,1/2+z
-x,1/2-y,1/2+z
-x,1/2+y,1/2+z
x,1/2-y,1/2+z
1/2+x,y,1/2+z
1/2-x,-y,1/2+z
1/2-x,y,1/2+z
1/2+x,-y,1/2+z
1/2+x,1/2+y,z
1/2-x,1/2-y,z
1/2-x,1/2+y,z
1/2+x,1/2-y,z
loop_
_atom_site_type_symbol
_atom_site_label
_atom_site_fract_x
_atom_site_fract_y
_atom_site_fract_z
Si Si1 0.079530 0.444234 0.605610
Si Si2 0.415585 0.891188 0.323844
Si Si3 0.915446 0.308557 0.880237
Si Si4 0.303161 0.941690 0.151768
Si Si5 0.417122 0.786760 0.207215
Si Si6 0.677989 0.093090 0.833057
O O1 0.082276 0.500000 0.538337
O O2 0.108252 0.405490 0.485305
O O3 0.125358 0.444099 0.749373
O O4 0.000000 0.428817 0.649308
O O5 0.500000 0.896186 0.304032
O O6 0.382030 0.930030 0.210116
O O7 0.386158 0.835309 0.290427
O O8 0.888120 0.265066 0.773027
O O9 0.863587 0.354532 0.846514
O O10 0.000000 0.322116 0.861407
O O11 0.899508 0.289337 0.039903
O O12 0.249515 0.904518 0.237166
O O13 0.283164 0.000000 0.176948
O O14 0.300247 0.930022 0.984152
O O15 0.500000 0.787112 0.237436
#
# Coordination Sequence:
#
# PCOD8186616 Si02
#       6
#    16  16  16  16  16  16
#     4  10  21  37  60  92 127 166 213 265 322 382
#     4  10  21  40  66  96 130 164 212 269 324 391
#     4  10  21  40  69 101 131 167 212 264 322 388
#     4  12  25  42  65  90 125 173 219 269 330 388
#     4   9  19  37  65 100 131 163 205 255 320 383
#     4  12  25  43  64  89 128 170 221 269 322 386
#
# _framework density 20.620253000000002
#
# number of rings (size 3 to 8) (size 9 to 14) (size 15 to 20)
#    0.000    1.500    1.667    3.500    2.333    1.667 
#    0.000    0.833    0.000    0.000    0.000    0.000 
#    0.000    0.000    0.000    0.000    0.000    0.000 
#
# Total GULP energy -297537.896204 kJ/mol
# GULP energy per Si atom -12397.412342 kJ/mol
# Density = 2.057332 g / cm^3
# Si number density = 20.620253 Si / 1000 Ang^3
#
#
#
# Elastic Constant Matrix: (Units=GPa)
#
#
# Indices 1 2 3 4 5 6 
#
# 1 68.8875 44.5760 49.0317 0.0000 0.0000 0.0000
# 2 44.5760 137.0936 57.0535 0.0000 0.0000 0.0000
# 3 49.0317 57.0535 129.2576 0.0000 0.0000 -0.0001
# 4 0.0000 0.0000 0.0000 40.4498 -0.0001 0.0000
# 5 0.0000 0.0000 0.0000 -0.0001 34.6810 0.0001
# 6 0.0000 0.0000 -0.0001 0.0000 0.0001 26.2876
#
#
#
# Elastic Compliance Matrix: (Units=1/GPa)
#
#
# Indices 1 2 3 4 5 6 
#
# 1 0.021935 -0.004495 -0.006337 0.000000 0.000000 0.000000
# 2 -0.004495 0.009857 -0.002646 0.000000 0.000000 0.000000
# 3 -0.006337 -0.002646 0.011308 0.000000 0.000000 0.000000
# 4 0.000000 0.000000 0.000000 0.024722 0.000000 0.000000
# 5 0.000000 0.000000 0.000000 0.000000 0.028834 0.000000
# 6 0.000000 0.000000 0.000000 0.000000 0.000000 0.038041
#
#
# Mechanical properties :
#
#
# Convention : Reuss Voigt Hill
#
# Bulk Modulus (GPa) = 61.93747 70.72902 66.33324
# Shear Modulus (GPa) = 29.93403 32.58885 31.26144
#
# Velocity S-wave (km/s) = 3.81423 3.97977 3.89788
# Velocity P-wave (km/s) = 7.03564 7.44939 7.24547
#
# Compressibility (1/GPa) = 0.01614532
#
# Stress axis : x y z
#
# Youngs Moduli (GPa) = 45.58842 101.45171 88.43340
#
# Poissons Ratio (x) = 0.45605 0.56037
# Poissons Ratio (y) = 0.20493 0.23396
# Poissons Ratio (z) = 0.28888 0.26840
#
# Static dielectric constant tensor:
#      x y z
#    x 3.679630 0.000000 0.000000 
#    y 0.000000 3.943040 0.000000 
#    z 0.000000 0.000000 3.847960 
# 
# 
# High freq. dielectric constant tensor:
#      x y z
#    x 1.791760 0.000000 0.000000 
#    y 0.000000 1.808800 0.000000 
#    z 0.000000 0.000000 1.816900 
# 
# From -- ./inp_files/4172.got.cif
#   From: 2010.03.12/outbox.cif.g09.slc.cpg/sg42_3_cif.got.tgz:4172.got - 2010.04.14 02:04:31.
