data_PCOD8186396
_publ_section_title
;
Structure prediction by ZEFSAII (Michael W. Deem and Ramdas Pophale) SiO2 
 PCOD8186396
Probable space group: F M M 2
;
_chemical_formula_sum "Si O2"
_cell_formula_units_Z 96
_cell_length_a 8.591447
_cell_length_b 27.761848
_cell_length_c 19.991637
_cell_angle_alpha 90.000000
_cell_angle_beta 90.000000
_cell_angle_gamma 90.000000
_cell_volume 4768.294218
_symmetry_space_group_name_H-M "F M M 2"
_symmetry_group_IT_number 42
_symmetry_cell_setting 'orthorhombic'
loop_
_space_group_symop_operation_xyz
x,y,z
-x,-y,z
-x,y,z
x,-y,z
x,1/2+y,1/2+z
-x,1/2-y,1/2+z
-x,1/2+y,1/2+z
x,1/2-y,1/2+z
1/2+x,y,1/2+z
1/2-x,-y,1/2+z
1/2-x,y,1/2+z
1/2+x,-y,1/2+z
1/2+x,1/2+y,z
1/2-x,1/2-y,z
1/2-x,1/2+y,z
1/2+x,1/2-y,z
loop_
_atom_site_type_symbol
_atom_site_label
_atom_site_fract_x
_atom_site_fract_y
_atom_site_fract_z
Si Si1 0.817246 0.302355 0.566420
Si Si2 0.321972 0.945551 0.760394
Si Si3 0.680244 0.361183 0.685041
Si Si4 0.819067 0.851845 0.441405
Si Si5 0.818559 0.554240 0.402529
Si Si6 0.818723 0.197345 0.816514
O O1 0.750000 0.250000 0.582051
O O2 0.743094 0.341295 0.615540
O O3 0.777641 0.318220 0.491310
O O4 0.000000 0.300461 0.577296
O O5 0.500000 0.935520 0.781236
O O6 0.270636 0.910436 0.700953
O O7 0.214845 0.935987 0.824649
O O8 0.300943 0.000000 0.734088
O O9 0.500000 0.373609 0.677506
O O10 0.710577 0.321534 0.741975
O O11 0.775069 0.908312 0.449254
O O12 0.774435 0.837109 0.366401
O O13 0.000000 0.844002 0.455665
O O14 0.766769 0.500000 0.422048
O O15 0.000000 0.562328 0.415040
O O16 0.750000 0.250000 0.822400
O O17 0.000000 0.197403 0.835649
#
# Coordination Sequence:
#
# PCOD8186396 Si02
#       6
#    16  16  16  16  16  16
#     4  12  26  45  66  88 123 164 208 254 308 371
#     4  10  20  35  59  92 127 163 204 251 305 362
#     4  11  23  40  63  91 124 161 206 254 306 365
#     4  12  24  40  63  90 123 160 206 254 306 367
#     4  10  20  36  60  91 126 162 202 251 307 363
#     4  11  23  38  59  88 121 156 200 254 306 360
#
# _framework density 20.132985000000001
#
# number of rings (size 3 to 8) (size 9 to 14) (size 15 to 20)
#    0.000    1.000    1.667    6.000    0.000    5.333 
#    0.000    0.833    0.000    5.000    0.000    0.000 
#    0.000    0.000    0.000    0.000    0.000    0.000 
#
# Total GULP energy -297765.828719 kJ/mol
# GULP energy per Si atom -12406.909530 kJ/mol
# Density = 2.008716 g / cm^3
# Si number density = 20.132985 Si / 1000 Ang^3
#
#
#
# Elastic Constant Matrix: (Units=GPa)
#
#
# Indices 1 2 3 4 5 6 
#
# 1 76.9566 38.1537 15.6153 0.0000 0.0000 0.0000
# 2 38.1537 116.4435 11.8539 0.0000 0.0000 0.0000
# 3 15.6153 11.8539 48.1304 0.0000 0.0000 0.0000
# 4 0.0000 0.0000 0.0000 37.0723 0.0000 0.0000
# 5 0.0000 0.0000 0.0000 0.0000 32.9797 0.0000
# 6 0.0000 0.0000 0.0000 0.0000 0.0000 39.2148
#
#
#
# Elastic Compliance Matrix: (Units=1/GPa)
#
#
# Indices 1 2 3 4 5 6 
#
# 1 0.016254 -0.004912 -0.004064 0.000000 0.000000 0.000000
# 2 -0.004912 0.010293 -0.000941 0.000000 0.000000 0.000000
# 3 -0.004064 -0.000941 0.022327 0.000000 0.000000 0.000000
# 4 0.000000 0.000000 0.000000 0.026974 0.000000 0.000000
# 5 0.000000 0.000000 0.000000 0.000000 0.030322 0.000000
# 6 0.000000 0.000000 0.000000 0.000000 0.000000 0.025501
#
#
# Mechanical properties :
#
#
# Convention : Reuss Voigt Hill
#
# Bulk Modulus (GPa) = 34.43513 41.41961 37.92737
# Shear Modulus (GPa) = 31.02010 33.58051 32.30031
#
# Velocity S-wave (km/s) = 3.92951 4.08847 4.00978
# Velocity P-wave (km/s) = 6.14240 6.55020 6.34957
#
# Compressibility (1/GPa) = 0.02904011
#
# Stress axis : x y z
#
# Youngs Moduli (GPa) = 61.52233 97.15149 44.78853
#
# Poissons Ratio (x) = 0.47722 0.18201
# Poissons Ratio (y) = 0.30221 0.04216
# Poissons Ratio (z) = 0.25001 0.09146
#
# Static dielectric constant tensor:
#      x y z
#    x 3.744720 0.000000 0.000000 
#    y 0.000000 3.866130 0.000000 
#    z 0.000000 0.000000 3.409490 
# 
# 
# High freq. dielectric constant tensor:
#      x y z
#    x 1.801680 0.000000 0.000000 
#    y 0.000000 1.804390 0.000000 
#    z 0.000000 0.000000 1.762460 
# 
# From -- ./inp_files/23696.got.cif
#   From: 2010.03.12/outbox.cif.g09.slc.cpg/sg42_12_cif.got.tgz:23696.got - 2010.04.14 02:04:31.
