data_PCOD8186746
_publ_section_title
;
Structure prediction by ZEFSAII (Michael W. Deem and Ramdas Pophale) SiO2 
 PCOD8186746
Probable space group: F M M 2
;
_chemical_formula_sum "Si O2"
_cell_formula_units_Z 64
_cell_length_a 8.644100
_cell_length_b 15.012774
_cell_length_c 24.522699
_cell_angle_alpha 90.000000
_cell_angle_beta 90.000000
_cell_angle_gamma 90.000000
_cell_volume 3182.357726
_symmetry_space_group_name_H-M "F M M 2"
_symmetry_group_IT_number 42
_symmetry_cell_setting 'orthorhombic'
loop_
_space_group_symop_operation_xyz
x,y,z
-x,-y,z
-x,y,z
x,-y,z
x,1/2+y,1/2+z
-x,1/2-y,1/2+z
-x,1/2+y,1/2+z
x,1/2-y,1/2+z
1/2+x,y,1/2+z
1/2-x,-y,1/2+z
1/2-x,y,1/2+z
1/2+x,-y,1/2+z
1/2+x,1/2+y,z
1/2-x,1/2-y,z
1/2-x,1/2+y,z
1/2+x,1/2-y,z
loop_
_atom_site_type_symbol
_atom_site_label
_atom_site_fract_x
_atom_site_fract_y
_atom_site_fract_z
Si Si1 0.182912 0.849181 0.051110
Si Si2 0.317981 0.000000 0.978335
Si Si3 0.682038 0.347501 0.660375
Si Si4 0.315935 0.000000 0.360011
Si Si5 0.681060 0.153443 0.279791
O O1 0.250000 0.750000 0.044091
O O2 0.235678 0.894700 0.108771
O O3 0.000000 0.844635 0.048071
O O4 0.244706 0.910785 0.002926
O O5 0.280493 0.000000 0.914796
O O6 0.500000 0.000000 0.988379
O O7 0.500000 0.347044 0.648886
O O8 0.750000 0.250000 0.662092
O O9 0.722177 0.388565 0.719836
O O10 0.261786 0.086249 0.326017
O O11 0.500000 0.000000 0.370714
O O12 0.500000 0.166445 0.282623
O O13 0.750000 0.250000 0.290734
#
# Coordination Sequence:
#
# PCOD8186746 Si02
#       5
#    16   8  16   8  16
#     4  11  22  39  62  89 119 154 191 237 291 346
#     4  12  26  43  60  83 113 152 200 248 291 342
#     4   9  16  30  54  86 118 150 186 229 280 341
#     4  10  22  41  58  79 111 150 194 240 285 338
#     4   9  19  35  58  84 115 151 187 229 283 338
#
# _framework density 20.110875
#
# number of rings (size 3 to 8) (size 9 to 14) (size 15 to 20)
#    0.000    2.000    0.000    5.625    0.000    4.000 
#    0.000    5.000    0.000    0.000    0.000    0.000 
#    0.000    0.000    0.000    0.000    0.000    0.000 
#
# Total GULP energy -198294.822426 kJ/mol
# GULP energy per Si atom -12393.426402 kJ/mol
# Density = 2.006510 g / cm^3
# Si number density = 20.110875 Si / 1000 Ang^3
#
#
#
# Elastic Constant Matrix: (Units=GPa)
#
#
# Indices 1 2 3 4 5 6 
#
# 1 123.6742 44.0881 61.3904 0.0000 0.0000 0.0000
# 2 44.0881 108.2342 71.5633 0.0000 0.0000 0.0000
# 3 61.3904 71.5633 170.5585 0.0000 0.0000 0.0000
# 4 0.0000 0.0000 0.0000 48.5060 0.0000 0.0000
# 5 0.0000 0.0000 0.0000 0.0000 36.7847 0.0000
# 6 0.0000 0.0000 0.0000 0.0000 0.0000 19.9729
#
#
#
# Elastic Compliance Matrix: (Units=1/GPa)
#
#
# Indices 1 2 3 4 5 6 
#
# 1 0.010279 -0.002409 -0.002689 0.000000 0.000000 0.000000
# 2 -0.002409 0.013351 -0.004735 0.000000 0.000000 0.000000
# 3 -0.002689 -0.004735 0.008818 0.000000 0.000000 0.000000
# 4 0.000000 0.000000 0.000000 0.020616 0.000000 0.000000
# 5 0.000000 0.000000 0.000000 0.000000 0.027185 0.000000
# 6 0.000000 0.000000 0.000000 0.000000 0.000000 0.050068
#
#
# Mechanical properties :
#
#
# Convention : Reuss Voigt Hill
#
# Bulk Modulus (GPa) = 78.23439 84.06115 81.14777
# Shear Modulus (GPa) = 32.41615 36.08105 34.24860
#
# Velocity S-wave (km/s) = 4.01917 4.24028 4.13121
# Velocity P-wave (km/s) = 7.77973 8.11560 7.94944
#
# Compressibility (1/GPa) = 0.01278210
#
# Stress axis : x y z
#
# Youngs Moduli (GPa) = 97.28144 74.89988 113.40953
#
# Poissons Ratio (x) = 0.18045 0.30497
# Poissons Ratio (y) = 0.23437 0.53696
# Poissons Ratio (z) = 0.26160 0.35463
#
# Static dielectric constant tensor:
#      x y z
#    x 3.672650 0.000000 0.000000 
#    y 0.000000 3.427910 0.000000 
#    z 0.000000 0.000000 4.461830 
# 
# 
# High freq. dielectric constant tensor:
#      x y z
#    x 1.788790 0.000000 0.000000 
#    y 0.000000 1.772690 0.000000 
#    z 0.000000 0.000000 1.798580 
# 
# From -- ./inp_files/23166.got.cif
#   From: 2010.03.12/outbox.cif.g09.slc.cpg/sg42_12_cif.got.tgz:23166.got - 2010.04.14 02:04:31.
