data_PCOD8186010
_publ_section_title
;
Structure prediction by ZEFSAII (Michael W. Deem and Ramdas Pophale) SiO2 
 PCOD8186010
Probable space group: F M M 2
;
_chemical_formula_sum "Si O2"
_cell_formula_units_Z 80
_cell_length_a 19.206707
_cell_length_b 8.139804
_cell_length_c 28.969510
_cell_angle_alpha 90.000000
_cell_angle_beta 90.000000
_cell_angle_gamma 90.000000
_cell_volume 4529.059313
_symmetry_space_group_name_H-M "F M M 2"
_symmetry_group_IT_number 42
_symmetry_cell_setting 'orthorhombic'
loop_
_space_group_symop_operation_xyz
x,y,z
-x,-y,z
-x,y,z
x,-y,z
x,1/2+y,1/2+z
-x,1/2-y,1/2+z
-x,1/2+y,1/2+z
x,1/2-y,1/2+z
1/2+x,y,1/2+z
1/2-x,-y,1/2+z
1/2-x,y,1/2+z
1/2+x,-y,1/2+z
1/2+x,1/2+y,z
1/2-x,1/2-y,z
1/2-x,1/2+y,z
1/2+x,1/2-y,z
loop_
_atom_site_type_symbol
_atom_site_label
_atom_site_fract_x
_atom_site_fract_y
_atom_site_fract_z
Si Si1 0.579660 0.694017 0.313400
Si Si2 0.327426 0.188897 0.731876
Si Si3 0.822369 0.179494 0.635906
Si Si4 0.582760 0.683433 0.911757
Si Si5 0.082355 0.500000 0.073034
Si Si6 0.582102 0.500000 0.466011
O O1 0.500000 0.738451 0.303565
O O2 0.589124 0.500000 0.320994
O O3 0.622087 0.769555 0.270028
O O4 0.606959 0.784140 0.359406
O O5 0.250000 0.250000 0.739128
O O6 0.352654 0.220162 0.679307
O O7 0.331561 0.000000 0.742415
O O8 0.750000 0.250000 0.615230
O O9 0.802879 0.000000 0.655951
O O10 0.881875 0.162571 0.596222
O O11 0.500000 0.688597 0.914904
O O12 0.609172 0.500000 0.927070
O O13 0.613238 0.831376 0.943834
O O14 0.000000 0.500000 0.082424
O O15 0.101319 0.500000 0.019648
O O16 0.500000 0.500000 0.458048
#
# Coordination Sequence:
#
# PCOD8186010 Si02
#       6
#    16  16  16  16   8   8
#     4   9  17  30  47  72 103 139 175 217 266 309
#     4  10  19  31  50  73 103 140 181 213 253 314
#     4   9  18  33  54  74 101 138 182 217 258 331
#     4   9  16  27  48  75 103 138 176 212 263 328
#     4   9  20  34  56  83 105 137 177 228 287 317
#     4   9  16  32  52  73 108 137 165 226 280 315
#
# _framework density 17.663710999999999
#
# number of rings (size 3 to 8) (size 9 to 14) (size 15 to 20)
#    0.600    2.200    1.000    2.400    0.000    2.400 
#    0.000    2.000    0.000    5.400    0.000    0.000 
#    0.000    0.000    0.000    0.000    0.000    0.000 
#
# Total GULP energy -247764.207261 kJ/mol
# GULP energy per Si atom -12388.210363 kJ/mol
# Density = 1.762351 g / cm^3
# Si number density = 17.663711 Si / 1000 Ang^3
#
#
#
# Elastic Constant Matrix: (Units=GPa)
#
#
# Indices 1 2 3 4 5 6 
#
# 1 60.4766 25.1991 61.3940 0.0000 0.0000 0.0000
# 2 25.1991 82.8240 53.4273 0.0000 0.0000 0.0000
# 3 61.3940 53.4273 141.5747 0.0000 0.0000 0.0000
# 4 0.0000 0.0000 0.0000 19.5614 0.0000 0.0000
# 5 0.0000 0.0000 0.0000 0.0000 12.7033 0.0000
# 6 0.0000 0.0000 0.0000 0.0000 0.0000 17.6698
#
#
#
# Elastic Compliance Matrix: (Units=1/GPa)
#
#
# Indices 1 2 3 4 5 6 
#
# 1 0.029597 -0.000959 -0.012473 0.000000 0.000000 0.000000
# 2 -0.000959 0.015990 -0.005618 0.000000 0.000000 0.000000
# 3 -0.012473 -0.005618 0.014592 0.000000 0.000000 0.000000
# 4 0.000000 0.000000 0.000000 0.051121 0.000000 0.000000
# 5 0.000000 0.000000 0.000000 0.000000 0.078720 0.000000
# 6 0.000000 0.000000 0.000000 0.000000 0.000000 0.056594
#
#
# Mechanical properties :
#
#
# Convention : Reuss Voigt Hill
#
# Bulk Modulus (GPa) = 45.29211 62.76847 54.03029
# Shear Modulus (GPa) = 17.11896 19.64390 18.38143
#
# Velocity S-wave (km/s) = 3.11651 3.33844 3.22938
# Velocity P-wave (km/s) = 6.21669 7.10441 6.67532
#
# Compressibility (1/GPa) = 0.02207890
#
# Stress axis : x y z
#
# Youngs Moduli (GPa) = 33.78728 62.53994 68.52835
#
# Poissons Ratio (x) = 0.05998 0.85474
# Poissons Ratio (y) = 0.03240 0.38502
# Poissons Ratio (z) = 0.42142 0.35137
#
# Static dielectric constant tensor:
#      x y z
#    x 2.887230 0.000000 0.000000 
#    y 0.000000 3.408970 0.000000 
#    z 0.000000 0.000000 3.267830 
# 
# 
# High freq. dielectric constant tensor:
#      x y z
#    x 1.643000 0.000000 0.000000 
#    y 0.000000 1.684290 0.000000 
#    z 0.000000 0.000000 1.680160 
# 
# From -- ./inp_files/28011.got.cif
#   From: 2010.03.12/outbox.cif.g09.slc.cpg/sg42_15_cif.got.tgz:28011.got - 2010.04.14 02:04:31.
