data_PCOD8186380
_publ_section_title
;
Structure prediction by ZEFSAII (Michael W. Deem and Ramdas Pophale) SiO2 
 PCOD8186380
Probable space group: F M M 2
;
_chemical_formula_sum "Si O2"
_cell_formula_units_Z 96
_cell_length_a 27.864582
_cell_length_b 8.737234
_cell_length_c 20.283097
_cell_angle_alpha 90.000000
_cell_angle_beta 90.000000
_cell_angle_gamma 90.000000
_cell_volume 4938.110083
_symmetry_space_group_name_H-M "F M M 2"
_symmetry_group_IT_number 42
_symmetry_cell_setting 'orthorhombic'
loop_
_space_group_symop_operation_xyz
x,y,z
-x,-y,z
-x,y,z
x,-y,z
x,1/2+y,1/2+z
-x,1/2-y,1/2+z
-x,1/2+y,1/2+z
x,1/2-y,1/2+z
1/2+x,y,1/2+z
1/2-x,-y,1/2+z
1/2-x,y,1/2+z
1/2+x,-y,1/2+z
1/2+x,1/2+y,z
1/2-x,1/2-y,z
1/2-x,1/2+y,z
1/2+x,1/2-y,z
loop_
_atom_site_type_symbol
_atom_site_label
_atom_site_fract_x
_atom_site_fract_y
_atom_site_fract_z
Si Si1 0.555287 0.820869 0.723630
Si Si2 0.107924 0.177684 0.090906
Si Si3 0.898812 0.822901 0.847470
Si Si4 0.701317 0.321742 0.907335
Si Si5 0.799561 0.319839 0.049028
Si Si6 0.056264 0.325723 0.971091
O O1 0.500000 0.770777 0.729645
O O2 0.573265 0.777308 0.650843
O O3 0.587472 0.725788 0.774095
O O4 0.561526 0.000000 0.737991
O O5 0.157570 0.270699 0.097643
O O6 0.120761 0.000000 0.091059
O O7 0.081735 0.216006 0.022894
O O8 0.842058 0.792338 0.856830
O O9 0.930014 0.723079 0.897552
O O10 0.911106 0.000000 0.859024
O O11 0.709735 0.500000 0.921126
O O12 0.750000 0.250000 0.876972
O O13 0.688398 0.241976 0.976237
O O14 0.794649 0.500000 0.046758
O O15 0.750000 0.250000 0.076072
O O16 0.073027 0.500000 0.983088
O O17 0.000000 0.308473 0.979973
#
# Coordination Sequence:
#
# PCOD8186380 Si02
#       6
#    16  16  16  16  16  16
#     4  10  23  42  62  84 116 159 201 244 298 357
#     4  11  22  39  61  87 118 155 199 246 300 356
#     4  11  23  38  59  87 119 155 197 244 296 355
#     4  10  20  35  57  87 119 153 193 240 294 353
#     4  11  21  35  59  89 121 156 194 242 297 352
#     4  11  23  37  57  86 117 151 196 248 298 353
#
# _framework density 19.440635
#
# number of rings (size 3 to 8) (size 9 to 14) (size 15 to 20)
#    0.000    1.333    1.667    5.500    0.000    7.667 
#    0.000    0.833    0.000    2.000    0.000    0.000 
#    0.000    0.000    0.000    0.000    0.000    0.000 
#
# Total GULP energy -297732.219853 kJ/mol
# GULP energy per Si atom -12405.509161 kJ/mol
# Density = 1.939639 g / cm^3
# Si number density = 19.440635 Si / 1000 Ang^3
#
#
#
# Elastic Constant Matrix: (Units=GPa)
#
#
# Indices 1 2 3 4 5 6 
#
# 1 123.1900 59.6466 36.0607 0.0000 0.0000 0.0000
# 2 59.6466 110.2754 27.4963 0.0000 0.0000 0.0000
# 3 36.0607 27.4963 68.0527 0.0000 0.0000 0.0000
# 4 0.0000 0.0000 0.0000 29.0500 0.0000 0.0000
# 5 0.0000 0.0000 0.0000 0.0000 35.8179 0.0000
# 6 0.0000 0.0000 0.0000 0.0000 0.0000 35.2627
#
#
#
# Elastic Compliance Matrix: (Units=1/GPa)
#
#
# Indices 1 2 3 4 5 6 
#
# 1 0.011963 -0.005438 -0.004142 0.000000 0.000000 0.000000
# 2 -0.005438 0.012556 -0.002192 0.000000 0.000000 0.000000
# 3 -0.004142 -0.002192 0.017775 0.000000 0.000000 0.000000
# 4 0.000000 0.000000 0.000000 0.034423 0.000000 0.000000
# 5 0.000000 0.000000 0.000000 0.000000 0.027919 0.000000
# 6 0.000000 0.000000 0.000000 0.000000 0.000000 0.028359
#
#
# Mechanical properties :
#
#
# Convention : Reuss Voigt Hill
#
# Bulk Modulus (GPa) = 53.33120 60.88059 57.10589
# Shear Modulus (GPa) = 30.71485 31.91377 31.31431
#
# Velocity S-wave (km/s) = 3.97915 4.05606 4.01779
# Velocity P-wave (km/s) = 6.97165 7.30203 7.13875
#
# Compressibility (1/GPa) = 0.01875075
#
# Stress axis : x y z
#
# Youngs Moduli (GPa) = 83.59187 79.64371 56.25937
#
# Poissons Ratio (x) = 0.43309 0.23302
# Poissons Ratio (y) = 0.45456 0.12330
# Poissons Ratio (z) = 0.34623 0.17455
#
# Static dielectric constant tensor:
#      x y z
#    x 3.530130 0.000000 0.000000 
#    y 0.000000 3.647270 0.000000 
#    z 0.000000 0.000000 3.299080 
# 
# 
# High freq. dielectric constant tensor:
#      x y z
#    x 1.775800 0.000000 0.000000 
#    y 0.000000 1.769810 0.000000 
#    z 0.000000 0.000000 1.732750 
# 
# From -- ./inp_files/23724.got.cif
#   From: 2010.03.12/outbox.cif.g09.slc.cpg/sg42_12_cif.got.tgz:23724.got - 2010.04.14 02:04:31.
