data_PCOD8186440
_publ_section_title
;
Structure prediction by ZEFSAII (Michael W. Deem and Ramdas Pophale) SiO2 
 PCOD8186440
Probable space group: F M M 2
;
_chemical_formula_sum "Si O2"
_cell_formula_units_Z 80
_cell_length_a 8.776822
_cell_length_b 18.358525
_cell_length_c 25.211254
_cell_angle_alpha 90.000000
_cell_angle_beta 90.000000
_cell_angle_gamma 90.000000
_cell_volume 4062.276905
_symmetry_space_group_name_H-M "F M M 2"
_symmetry_group_IT_number 42
_symmetry_cell_setting 'orthorhombic'
loop_
_space_group_symop_operation_xyz
x,y,z
-x,-y,z
-x,y,z
x,-y,z
x,1/2+y,1/2+z
-x,1/2-y,1/2+z
-x,1/2+y,1/2+z
x,1/2-y,1/2+z
1/2+x,y,1/2+z
1/2-x,-y,1/2+z
1/2-x,y,1/2+z
1/2+x,-y,1/2+z
1/2+x,1/2+y,z
1/2-x,1/2-y,z
1/2-x,1/2+y,z
1/2+x,1/2-y,z
loop_
_atom_site_type_symbol
_atom_site_label
_atom_site_fract_x
_atom_site_fract_y
_atom_site_fract_z
Si Si1 0.320541 0.170727 0.478100
Si Si2 0.819126 0.326759 0.665625
Si Si3 0.677093 0.915744 0.884374
Si Si4 0.178263 0.084711 0.575105
Si Si5 0.176843 0.176026 0.285095
O O1 0.500000 0.177646 0.484523
O O2 0.250000 0.250000 0.474103
O O3 0.281913 0.127019 0.425094
O O4 0.254653 0.129154 0.528262
O O5 0.750000 0.250000 0.646109
O O6 0.751204 0.391593 0.630701
O O7 0.765414 0.343198 0.725935
O O8 0.000000 0.324365 0.659319
O O9 0.500000 0.901612 0.898126
O O10 0.716442 0.889534 0.824863
O O11 0.718693 0.000000 0.887963
O O12 0.000000 0.101538 0.575755
O O13 0.212035 0.000000 0.566005
O O14 0.250000 0.250000 0.307067
O O15 0.000000 0.191677 0.282685
#
# Coordination Sequence:
#
# PCOD8186440 Si02
#       5
#    16  16  16  16  16
#     4  12  25  41  62  86 113 147 190 236 283 338
#     4  10  20  36  59  86 117 152 193 237 280 332
#     4  10  21  38  59  85 119 154 188 231 284 338
#     4  11  24  41  60  84 116 151 187 232 287 341
#     4   9  19  35  57  84 114 152 193 234 280 331
#
# _framework density 19.693390000000001
#
# number of rings (size 3 to 8) (size 9 to 14) (size 15 to 20)
#    0.000    1.600    0.000    4.800    0.000    8.400 
#    0.000    2.000    0.000    0.000    0.000    0.000 
#    0.000    0.000    0.000    0.000    0.000    0.000 
#
# Total GULP energy -248089.877154 kJ/mol
# GULP energy per Si atom -12404.493858 kJ/mol
# Density = 1.964857 g / cm^3
# Si number density = 19.693390 Si / 1000 Ang^3
#
#
#
# Elastic Constant Matrix: (Units=GPa)
#
#
# Indices 1 2 3 4 5 6 
#
# 1 81.3276 55.5788 39.2865 0.0000 0.0000 0.0000
# 2 55.5788 133.7897 63.4908 0.0000 0.0000 0.0000
# 3 39.2865 63.4908 111.6735 0.0000 0.0000 0.0000
# 4 0.0000 0.0000 0.0000 21.7955 0.0000 0.0000
# 5 0.0000 0.0000 0.0000 0.0000 33.8389 0.0000
# 6 0.0000 0.0000 0.0000 0.0000 0.0000 31.3740
#
#
#
# Elastic Compliance Matrix: (Units=1/GPa)
#
#
# Indices 1 2 3 4 5 6 
#
# 1 0.017795 -0.006055 -0.002818 0.000000 0.000000 0.000000
# 2 -0.006055 0.012297 -0.004861 0.000000 0.000000 0.000000
# 3 -0.002818 -0.004861 0.012710 0.000000 0.000000 0.000000
# 4 0.000000 0.000000 0.000000 0.045881 0.000000 0.000000
# 5 0.000000 0.000000 0.000000 0.000000 0.029552 0.000000
# 6 0.000000 0.000000 0.000000 0.000000 0.000000 0.031874
#
#
# Mechanical properties :
#
#
# Convention : Reuss Voigt Hill
#
# Bulk Modulus (GPa) = 65.21576 71.50030 68.35803
# Shear Modulus (GPa) = 27.36922 28.63063 27.99993
#
# Velocity S-wave (km/s) = 3.73200 3.81704 3.77476
# Velocity P-wave (km/s) = 7.19430 7.47074 7.33382
#
# Compressibility (1/GPa) = 0.01533372
#
# Stress axis : x y z
#
# Youngs Moduli (GPa) = 56.19481 81.32261 78.68118
#
# Poissons Ratio (x) = 0.49244 0.22169
# Poissons Ratio (y) = 0.34028 0.38246
# Poissons Ratio (z) = 0.15833 0.39530
#
# Static dielectric constant tensor:
#      x y z
#    x 3.651620 0.000000 0.000000 
#    y 0.000000 3.762820 0.000000 
#    z 0.000000 0.000000 3.897600 
# 
# 
# High freq. dielectric constant tensor:
#      x y z
#    x 1.771980 0.000000 0.000000 
#    y 0.000000 1.771040 0.000000 
#    z 0.000000 0.000000 1.782960 
# 
# From -- ./inp_files/31243.got.cif
#   From: 2010.03.12/outbox.cif.g09.slc.cpg/sg42_16_cif.got.tgz:31243.got - 2010.04.14 02:04:31.
