data_PCOD8186989
_publ_section_title
;
Structure prediction by ZEFSAII (Michael W. Deem and Ramdas Pophale) SiO2 
 PCOD8186989
Probable space group: F D D 2
;
_chemical_formula_sum "Si O2"
_cell_formula_units_Z 112
_cell_length_a 33.200159
_cell_length_b 11.046336
_cell_length_c 14.113521
_cell_angle_alpha 90.000000
_cell_angle_beta 90.000000
_cell_angle_gamma 90.000000
_cell_volume 5175.994266
_symmetry_space_group_name_H-M "F D D 2"
_symmetry_group_IT_number 43
_symmetry_cell_setting 'orthorhombic'
loop_
_space_group_symop_operation_xyz
x,y,z
-x,-y,z
1/4-x,1/4+y,1/4+z
1/4+x,1/4-y,1/4+z
x,1/2+y,1/2+z
-x,1/2-y,1/2+z
1/4-x,3/4+y,3/4+z
1/4+x,3/4-y,3/4+z
1/2+x,y,1/2+z
1/2-x,-y,1/2+z
3/4-x,1/4+y,3/4+z
3/4+x,1/4-y,3/4+z
1/2+x,1/2+y,z
1/2-x,1/2-y,z
3/4-x,3/4+y,1/4+z
3/4+x,3/4-y,1/4+z
loop_
_atom_site_type_symbol
_atom_site_label
_atom_site_fract_x
_atom_site_fract_y
_atom_site_fract_z
Si Si1 0.100548 0.759004 0.794330
Si Si2 0.790447 0.800180 0.997901
Si Si3 0.673214 0.377140 0.354713
Si Si4 0.749010 0.996429 0.885744
Si Si5 0.347048 0.728999 0.161487
Si Si6 0.462192 0.077108 0.774697
Si Si7 0.677659 0.352196 0.878461
O O1 0.068952 0.868383 0.815211
O O2 0.090703 0.655882 0.870715
O O3 0.094196 0.706373 0.689660
O O4 0.146321 0.810449 0.797956
O O5 0.750000 0.750000 0.051853
O O6 0.816639 0.693472 0.951421
O O7 0.774951 0.879345 0.909618
O O8 0.712558 0.453229 0.317627
O O9 0.658344 0.283539 0.274386
O O10 0.641118 0.477515 0.384201
O O11 0.728633 0.045860 0.984421
O O12 0.779294 0.096301 0.838713
O O13 0.316183 0.829639 0.118134
O O14 0.500000 0.000000 0.807461
O O15 0.436388 0.014820 0.691634
#
# Coordination Sequence:
#
# PCOD8186989 Si02
#       7
#    16  16  16  16  16  16  16
#     4  10  19  36  57  81 113 149 192 236 287 348
#     4   9  21  39  57  78 113 156 189 232 297 353
#     4  11  22  37  57  84 117 150 190 239 291 347
#     4   9  18  36  56  77 110 151 186 226 283 345
#     4  11  22  36  59  89 115 149 194 244 288 346
#     4   9  18  34  57  83 112 147 188 231 285 343
#     4   9  18  32  56  82 108 146 186 232 284 338
#
# _framework density 21.638354
#
# number of rings (size 3 to 8) (size 9 to 14) (size 15 to 20)
#    0.000    2.286    0.000    4.286    0.000    4.000 
#    0.000    1.429    0.000    0.000    0.000    0.000 
#    0.000    0.000    0.000    0.000    0.000    0.000 
#
# Total GULP energy -346926.209048 kJ/mol
# GULP energy per Si atom -12390.221752 kJ/mol
# Density = 2.158910 g / cm^3
# Si number density = 21.638354 Si / 1000 Ang^3
#
#
#
# Elastic Constant Matrix: (Units=GPa)
#
#
# Indices 1 2 3 4 5 6 
#
# 1 132.5915 33.1159 30.6869 0.0000 0.0000 0.0000
# 2 33.1159 78.2230 16.9439 0.0000 0.0000 0.0000
# 3 30.6869 16.9439 35.8711 0.0000 0.0000 0.0000
# 4 0.0000 0.0000 0.0000 18.3045 0.0000 0.0000
# 5 0.0000 0.0000 0.0000 0.0000 32.9261 0.0000
# 6 0.0000 0.0000 0.0000 0.0000 0.0000 43.7464
#
#
#
# Elastic Compliance Matrix: (Units=1/GPa)
#
#
# Indices 1 2 3 4 5 6 
#
# 1 0.009862 -0.002615 -0.007201 0.000000 0.000000 0.000000
# 2 -0.002615 0.014935 -0.004817 0.000000 0.000000 0.000000
# 3 -0.007201 -0.004817 0.036314 0.000000 0.000000 0.000000
# 4 0.000000 0.000000 0.000000 0.054631 0.000000 0.000000
# 5 0.000000 0.000000 0.000000 0.000000 0.030371 0.000000
# 6 0.000000 0.000000 0.000000 0.000000 0.000000 0.022859
#
#
# Mechanical properties :
#
#
# Convention : Reuss Voigt Hill
#
# Bulk Modulus (GPa) = 31.40441 45.35322 38.37882
# Shear Modulus (GPa) = 23.94031 30.05800 26.99915
#
# Velocity S-wave (km/s) = 3.32984 3.73112 3.53618
# Velocity P-wave (km/s) = 5.41559 6.29021 5.86922
#
# Compressibility (1/GPa) = 0.03184266
#
# Stress axis : x y z
#
# Youngs Moduli (GPa) = 101.40168 66.95878 27.53792
#
# Poissons Ratio (x) = 0.17511 0.19831
# Poissons Ratio (y) = 0.26518 0.13266
# Poissons Ratio (z) = 0.73022 0.32256
#
# Static dielectric constant tensor:
#      x y z
#    x 4.376910 0.000000 0.000000 
#    y 0.000000 4.066930 0.000000 
#    z 0.000000 0.000000 3.257470 
# 
# 
# High freq. dielectric constant tensor:
#      x y z
#    x 1.877670 0.000000 0.000000 
#    y 0.000000 1.855480 0.000000 
#    z 0.000000 0.000000 1.776500 
# 
# From -- ./inp_files/11668.got.cif
#   From: 2010.06.25/outbox.cif.g09.slc.cpg/sg43_6_cif.got.tgz:11668.got - 2010.06.26 16:48:59.
