data_PCOD8186001
_publ_section_title
;
Structure prediction by ZEFSAII (Michael W. Deem and Ramdas Pophale) SiO2 
 PCOD8186001
Probable space group: F M M 2
;
_chemical_formula_sum "Si O2"
_cell_formula_units_Z 96
_cell_length_a 28.526247
_cell_length_b 9.022099
_cell_length_c 20.401545
_cell_angle_alpha 90.000000
_cell_angle_beta 90.000000
_cell_angle_gamma 90.000000
_cell_volume 5250.676772
_symmetry_space_group_name_H-M "F M M 2"
_symmetry_group_IT_number 42
_symmetry_cell_setting 'orthorhombic'
loop_
_space_group_symop_operation_xyz
x,y,z
-x,-y,z
-x,y,z
x,-y,z
x,1/2+y,1/2+z
-x,1/2-y,1/2+z
-x,1/2+y,1/2+z
x,1/2-y,1/2+z
1/2+x,y,1/2+z
1/2-x,-y,1/2+z
1/2-x,y,1/2+z
1/2+x,-y,1/2+z
1/2+x,1/2+y,z
1/2-x,1/2-y,z
1/2-x,1/2+y,z
1/2+x,1/2-y,z
loop_
_atom_site_type_symbol
_atom_site_label
_atom_site_fract_x
_atom_site_fract_y
_atom_site_fract_z
Si Si1 0.353605 0.329796 0.972720
Si Si2 0.199662 0.675732 0.858127
Si Si3 0.297521 0.830831 0.604598
Si Si4 0.948718 0.176409 0.174352
Si Si5 0.551244 0.324295 0.027089
Si Si6 0.646899 0.676302 0.229061
O O1 0.350177 0.500000 0.948149
O O2 0.325790 0.223571 0.924350
O O3 0.333153 0.313935 0.045094
O O4 0.407525 0.271900 0.977917
O O5 0.206270 0.500000 0.858133
O O6 0.250000 0.750000 0.852770
O O7 0.167995 0.732332 0.797578
O O8 0.250000 0.750000 0.586162
O O9 0.321209 0.761630 0.669696
O O10 0.284515 0.000000 0.617758
O O11 0.941528 0.238651 0.100603
O O12 0.906565 0.236563 0.220507
O O13 0.000000 0.228490 0.201110
O O14 0.946999 0.000000 0.172277
O O15 0.500000 0.273775 0.000062
O O16 0.554066 0.500000 0.031789
O O17 0.646587 0.500000 0.226104
#
# Coordination Sequence:
#
# PCOD8186001 Si02
#       6
#    16  16  16  16  16  16
#     4  10  19  33  53  76 103 132 166 210 254 298
#     4  11  23  37  52  70 100 139 174 208 252 306
#     4  10  19  31  49  72  96 123 161 210 255 291
#     4   8  12  22  45  75 102 126 157 201 250 295
#     4   8  13  24  47  78 105 129 162 205 250 294
#     4   9  17  31  48  70  99 129 163 205 250 294
#
# _framework density 18.283358
#
# number of rings (size 3 to 8) (size 9 to 14) (size 15 to 20)
#    0.000    2.667    1.667    2.500    0.000    2.000 
#    0.000    1.667    0.000    1.500    0.000    0.000 
#    0.000    3.333    0.000    0.000    0.000    0.000 
#
# Total GULP energy -297441.910503 kJ/mol
# GULP energy per Si atom -12393.412938 kJ/mol
# Density = 1.824174 g / cm^3
# Si number density = 18.283358 Si / 1000 Ang^3
#
#
#
# Elastic Constant Matrix: (Units=GPa)
#
#
# Indices 1 2 3 4 5 6 
#
# 1 160.6697 32.0320 38.1896 0.0000 0.0000 0.0000
# 2 32.0320 33.8551 24.4325 0.0000 0.0000 0.0000
# 3 38.1896 24.4325 71.5957 0.0000 0.0000 0.0000
# 4 0.0000 0.0000 0.0000 14.3418 0.0000 0.0000
# 5 0.0000 0.0000 0.0000 0.0000 33.3160 0.0000
# 6 0.0000 0.0000 0.0000 0.0000 0.0000 4.9585
#
#
#
# Elastic Compliance Matrix: (Units=1/GPa)
#
#
# Indices 1 2 3 4 5 6 
#
# 1 0.007927 -0.005902 -0.002214 0.000000 0.000000 0.000000
# 2 -0.005902 0.043584 -0.011725 0.000000 0.000000 0.000000
# 3 -0.002214 -0.011725 0.019150 0.000000 0.000000 0.000000
# 4 0.000000 0.000000 0.000000 0.069726 0.000000 0.000000
# 5 0.000000 0.000000 0.000000 0.000000 0.030016 0.000000
# 6 0.000000 0.000000 0.000000 0.000000 0.000000 0.201672
#
#
# Mechanical properties :
#
#
# Convention : Reuss Voigt Hill
#
# Bulk Modulus (GPa) = 32.28134 50.60318 41.44226
# Shear Modulus (GPa) = 11.84603 21.95437 16.90020
#
# Velocity S-wave (km/s) = 2.54818 3.46899 3.04361
# Velocity P-wave (km/s) = 5.13343 6.61683 5.92176
#
# Compressibility (1/GPa) = 0.03097765
#
# Stress axis : x y z
#
# Youngs Moduli (GPa) = 126.15258 22.94442 52.22058
#
# Poissons Ratio (x) = 0.13542 0.11562
# Poissons Ratio (y) = 0.74457 0.61228
# Poissons Ratio (z) = 0.27932 0.26902
#
# Static dielectric constant tensor:
#      x y z
#    x 3.909020 0.000000 0.000000 
#    y 0.000000 2.859780 0.000000 
#    z 0.000000 0.000000 3.325940 
# 
# 
# High freq. dielectric constant tensor:
#      x y z
#    x 1.733720 0.000000 0.000000 
#    y 0.000000 1.651670 0.000000 
#    z 0.000000 0.000000 1.692620 
# 
# From -- ./inp_files/22498.got.cif
#   From: 2010.03.12/outbox.cif.g09.slc.cpg/sg42_12_cif.got.tgz:22498.got - 2010.04.14 02:04:31.
