data_PCOD8186609
_publ_section_title
;
Structure prediction by ZEFSAII (Michael W. Deem and Ramdas Pophale) SiO2 
 PCOD8186609
Probable space group: F M M 2
;
_chemical_formula_sum "Si O2"
_cell_formula_units_Z 80
_cell_length_a 18.375574
_cell_length_b 8.857890
_cell_length_c 25.026942
_cell_angle_alpha 90.000000
_cell_angle_beta 90.000000
_cell_angle_gamma 90.000000
_cell_volume 4073.605647
_symmetry_space_group_name_H-M "F M M 2"
_symmetry_group_IT_number 42
_symmetry_cell_setting 'orthorhombic'
loop_
_space_group_symop_operation_xyz
x,y,z
-x,-y,z
-x,y,z
x,-y,z
x,1/2+y,1/2+z
-x,1/2-y,1/2+z
-x,1/2+y,1/2+z
x,1/2-y,1/2+z
1/2+x,y,1/2+z
1/2-x,-y,1/2+z
1/2-x,y,1/2+z
1/2+x,-y,1/2+z
1/2+x,1/2+y,z
1/2-x,1/2-y,z
1/2-x,1/2+y,z
1/2+x,1/2-y,z
loop_
_atom_site_type_symbol
_atom_site_label
_atom_site_fract_x
_atom_site_fract_y
_atom_site_fract_z
Si Si1 0.675220 0.824033 0.814270
Si Si2 0.674100 0.322142 0.191148
Si Si3 0.328950 0.178847 0.505607
Si Si4 0.085042 0.824021 0.602168
Si Si5 0.083290 0.323909 0.401482
O O1 0.750000 0.750000 0.834404
O O2 0.659422 0.783091 0.752880
O O3 0.608396 0.763488 0.848776
O O4 0.683662 0.000000 0.823177
O O5 0.676798 0.500000 0.180446
O O6 0.750000 0.250000 0.171811
O O7 0.608787 0.246320 0.158643
O O8 0.250000 0.250000 0.504583
O O9 0.372993 0.238745 0.555775
O O10 0.370385 0.230208 0.452197
O O11 0.322814 0.000000 0.510102
O O12 0.000000 0.795195 0.594633
O O13 0.104646 0.000000 0.600873
O O14 0.093686 0.500000 0.390734
O O15 0.000000 0.281994 0.413020
#
# Coordination Sequence:
#
# PCOD8186609 Si02
#       5
#    16  16  16  16  16
#     4  10  21  37  59  86 115 151 193 236 282 333
#     4  10  21  38  60  85 115 151 192 236 282 335
#     4  11  23  40  62  86 114 149 190 234 282 338
#     4  11  24  40  59  85 116 150 189 234 285 338
#     4  10  22  39  59  85 117 152 189 232 284 338
#
# _framework density 19.638622000000002
#
# number of rings (size 3 to 8) (size 9 to 14) (size 15 to 20)
#    0.000    1.600    0.000    4.200    0.000    9.200 
#    0.000    4.000    0.000    0.000    0.000    0.000 
#    0.000    0.000    0.000    0.000    0.000    0.000 
#
# Total GULP energy -248135.506764 kJ/mol
# GULP energy per Si atom -12406.775338 kJ/mol
# Density = 1.959392 g / cm^3
# Si number density = 19.638622 Si / 1000 Ang^3
#
#
#
# Elastic Constant Matrix: (Units=GPa)
#
#
# Indices 1 2 3 4 5 6 
#
# 1 129.5275 59.5769 71.3772 0.0000 0.0000 0.0000
# 2 59.5769 88.6659 53.2701 0.0000 0.0000 0.0000
# 3 71.3772 53.2701 114.6109 0.0000 0.0000 0.0000
# 4 0.0000 0.0000 0.0000 36.1637 0.0000 0.0000
# 5 0.0000 0.0000 0.0000 0.0000 31.3428 0.0000
# 6 0.0000 0.0000 0.0000 0.0000 0.0000 31.9867
#
#
#
# Elastic Compliance Matrix: (Units=1/GPa)
#
#
# Indices 1 2 3 4 5 6 
#
# 1 0.013483 -0.005570 -0.005808 0.000000 0.000000 0.000000
# 2 -0.005570 0.017949 -0.004874 0.000000 0.000000 0.000000
# 3 -0.005808 -0.004874 0.014607 0.000000 0.000000 0.000000
# 4 0.000000 0.000000 0.000000 0.027652 0.000000 0.000000
# 5 0.000000 0.000000 0.000000 0.000000 0.031905 0.000000
# 6 0.000000 0.000000 0.000000 0.000000 0.000000 0.031263
#
#
# Mechanical properties :
#
#
# Convention : Reuss Voigt Hill
#
# Bulk Modulus (GPa) = 73.87664 77.91698 75.89681
# Shear Modulus (GPa) = 28.75632 29.80399 29.28015
#
# Velocity S-wave (km/s) = 3.83073 3.89989 3.86547
# Velocity P-wave (km/s) = 7.56741 7.74857 7.65853
#
# Compressibility (1/GPa) = 0.01353608
#
# Stress axis : x y z
#
# Youngs Moduli (GPa) = 74.16814 55.71333 68.45841
#
# Poissons Ratio (x) = 0.31033 0.39760
# Poissons Ratio (y) = 0.41313 0.33364
# Poissons Ratio (z) = 0.43076 0.27152
#
# Static dielectric constant tensor:
#      x y z
#    x 3.648460 0.000000 0.000000 
#    y 0.000000 3.662790 0.000000 
#    z 0.000000 0.000000 3.706180 
# 
# 
# High freq. dielectric constant tensor:
#      x y z
#    x 1.770770 0.000000 0.000000 
#    y 0.000000 1.776670 0.000000 
#    z 0.000000 0.000000 1.777550 
# 
# From -- ./inp_files/31266.got.cif
#   From: 2010.03.12/outbox.cif.g09.slc.cpg/sg42_16_cif.got.tgz:31266.got - 2010.04.14 02:04:31.
