data_PCOD8186409
_publ_section_title
;
Structure prediction by ZEFSAII (Michael W. Deem and Ramdas Pophale) SiO2 
 PCOD8186409
Probable space group: F M M 2
;
_chemical_formula_sum "Si O2"
_cell_formula_units_Z 112
_cell_length_a 17.810993
_cell_length_b 13.527373
_cell_length_c 23.022083
_cell_angle_alpha 90.000000
_cell_angle_beta 90.000000
_cell_angle_gamma 90.000000
_cell_volume 5546.847342
_symmetry_space_group_name_H-M "F M M 2"
_symmetry_group_IT_number 42
_symmetry_cell_setting 'orthorhombic'
loop_
_space_group_symop_operation_xyz
x,y,z
-x,-y,z
-x,y,z
x,-y,z
x,1/2+y,1/2+z
-x,1/2-y,1/2+z
-x,1/2+y,1/2+z
x,1/2-y,1/2+z
1/2+x,y,1/2+z
1/2-x,-y,1/2+z
1/2-x,y,1/2+z
1/2+x,-y,1/2+z
1/2+x,1/2+y,z
1/2-x,1/2-y,z
1/2-x,1/2+y,z
1/2+x,1/2-y,z
loop_
_atom_site_type_symbol
_atom_site_label
_atom_site_fract_x
_atom_site_fract_y
_atom_site_fract_z
Si Si1 0.311255 0.613007 0.004360
Si Si2 0.413342 0.617139 0.107719
Si Si3 0.373036 0.384862 0.789554
Si Si4 0.703177 0.390584 0.306089
Si Si5 0.169935 0.613967 0.936267
Si Si6 0.084148 0.788373 0.228341
Si Si7 0.584833 0.695800 0.913028
O O1 0.299437 0.500000 0.019648
O O2 0.355130 0.660337 0.059468
O O3 0.227575 0.652655 0.987015
O O4 0.363408 0.620731 0.948169
O O5 0.500000 0.642098 0.090787
O O6 0.404395 0.500000 0.117016
O O7 0.388792 0.673886 0.165940
O O8 0.395470 0.500000 0.792074
O O9 0.284535 0.368711 0.780033
O O10 0.412671 0.331637 0.733934
O O11 0.403022 0.326703 0.845708
O O12 0.676348 0.500000 0.290223
O O13 0.713099 0.377641 0.375095
O O14 0.639754 0.321816 0.279363
O O15 0.143165 0.500000 0.946967
O O16 0.101176 0.690274 0.932410
O O17 0.000000 0.828267 0.239860
O O18 0.500000 0.674248 0.930560
#
# Coordination Sequence:
#
# PCOD8186409 Si02
#       7
#    16  16  16  16  16  16  16
#     4  10  20  37  62  88 115 151 195 246 298 348
#     4   9  19  37  60  89 124 157 197 251 302 349
#     4  11  23  38  55  82 121 163 204 245 293 355
#     4  10  20  36  57  79 113 156 196 242 291 347
#     4  10  21  37  57  83 117 156 196 241 291 349
#     4  11  22  36  59  90 122 156 196 246 302 356
#     4  12  23  35  56  86 120 157 195 243 299 355
#
# _framework density 20.191649999999999
#
# number of rings (size 3 to 8) (size 9 to 14) (size 15 to 20)
#    0.000    1.571    2.857    2.571    0.000    3.714 
#    0.000    4.286    0.000    2.571    0.000    2.000 
#    0.000    0.000    0.000    0.000    0.000    0.000 
#
# Total GULP energy -346980.697252 kJ/mol
# GULP energy per Si atom -12392.167759 kJ/mol
# Density = 2.014569 g / cm^3
# Si number density = 20.191650 Si / 1000 Ang^3
#
#
#
# Elastic Constant Matrix: (Units=GPa)
#
#
# Indices 1 2 3 4 5 6 
#
# 1 69.6605 19.6653 22.6867 0.0000 0.0000 0.0000
# 2 19.6653 60.3671 23.5567 0.0000 0.0000 0.0000
# 3 22.6867 23.5567 84.8997 0.0000 0.0000 0.0000
# 4 0.0000 0.0000 0.0000 28.1687 0.0000 0.0000
# 5 0.0000 0.0000 0.0000 0.0000 31.8596 0.0000
# 6 0.0000 0.0000 0.0000 0.0000 0.0000 26.8626
#
#
#
# Elastic Compliance Matrix: (Units=1/GPa)
#
#
# Indices 1 2 3 4 5 6 
#
# 1 0.016590 -0.004121 -0.003290 0.000000 0.000000 0.000000
# 2 -0.004121 0.019600 -0.004337 0.000000 0.000000 0.000000
# 3 -0.003290 -0.004337 0.013861 0.000000 0.000000 0.000000
# 4 0.000000 0.000000 0.000000 0.035500 0.000000 0.000000
# 5 0.000000 0.000000 0.000000 0.000000 0.031388 0.000000
# 6 0.000000 0.000000 0.000000 0.000000 0.000000 0.037226
#
#
# Mechanical properties :
#
#
# Convention : Reuss Voigt Hill
#
# Bulk Modulus (GPa) = 37.65641 38.52720 38.09181
# Shear Modulus (GPa) = 26.80774 27.31275 27.06024
#
# Velocity S-wave (km/s) = 3.64767 3.68186 3.66480
# Velocity P-wave (km/s) = 6.03578 6.09893 6.06744
#
# Compressibility (1/GPa) = 0.02655590
#
# Stress axis : x y z
#
# Youngs Moduli (GPa) = 60.27720 51.02002 72.14414
#
# Poissons Ratio (x) = 0.21023 0.23734
# Poissons Ratio (y) = 0.24838 0.31291
# Poissons Ratio (z) = 0.19830 0.22129
#
# Static dielectric constant tensor:
#      x y z
#    x 3.645540 0.000000 0.000000 
#    y 0.000000 3.901280 0.000000 
#    z 0.000000 0.000000 3.561370 
# 
# 
# High freq. dielectric constant tensor:
#      x y z
#    x 1.784540 0.000000 0.000000 
#    y 0.000000 1.793200 0.000000 
#    z 0.000000 0.000000 1.762810 
# 
# From -- ./inp_files/29497.got.cif
#   From: 2010.03.12/outbox.cif.g09.slc.cpg/sg42_15_cif.got.tgz:29497.got - 2010.04.14 02:04:31.
