data_PCOD8186896
_publ_section_title
;
Structure prediction by ZEFSAII (Michael W. Deem and Ramdas Pophale) SiO2 
 PCOD8186896
Probable space group: F D D 2
;
_chemical_formula_sum "Si O2"
_cell_formula_units_Z 120
_cell_length_a 10.639390
_cell_length_b 30.955501
_cell_length_c 18.046785
_cell_angle_alpha 90.000000
_cell_angle_beta 90.000000
_cell_angle_gamma 90.000000
_cell_volume 5943.666190
_symmetry_space_group_name_H-M "F D D 2"
_symmetry_group_IT_number 43
_symmetry_cell_setting 'orthorhombic'
loop_
_space_group_symop_operation_xyz
x,y,z
-x,-y,z
1/4-x,1/4+y,1/4+z
1/4+x,1/4-y,1/4+z
x,1/2+y,1/2+z
-x,1/2-y,1/2+z
1/4-x,3/4+y,3/4+z
1/4+x,3/4-y,3/4+z
1/2+x,y,1/2+z
1/2-x,-y,1/2+z
3/4-x,1/4+y,3/4+z
3/4+x,1/4-y,3/4+z
1/2+x,1/2+y,z
1/2-x,1/2-y,z
3/4-x,3/4+y,1/4+z
3/4+x,3/4-y,1/4+z
loop_
_atom_site_type_symbol
_atom_site_label
_atom_site_fract_x
_atom_site_fract_y
_atom_site_fract_z
Si Si1 0.355986 0.385183 0.305610
Si Si2 0.021749 0.560710 0.321471
Si Si3 0.363372 0.717212 0.147126
Si Si4 0.976775 0.296877 0.783850
Si Si5 0.500000 0.000000 0.452357
Si Si6 0.105123 0.763619 0.893717
Si Si7 0.455101 0.252886 0.034953
Si Si8 0.151758 0.109442 0.129487
O O1 0.422369 0.427272 0.342108
O O2 0.448091 0.344725 0.313140
O O3 0.231560 0.379003 0.355322
O O4 0.328124 0.389485 0.218035
O O5 0.899216 0.540889 0.281056
O O6 0.007710 0.611983 0.336181
O O7 0.048800 0.538650 0.400699
O O8 0.143792 0.545192 0.273623
O O9 0.250000 0.750000 0.156062
O O10 0.404735 0.700958 0.228923
O O11 0.482361 0.743547 0.115887
O O12 0.856145 0.271395 0.752419
O O13 0.998766 0.268284 0.857254
O O14 0.250000 0.750000 0.888863
O O15 0.088745 0.810076 0.853945
O O16 0.066464 0.764182 0.979213
#
# Coordination Sequence:
#
# PCOD8186896 Si02
#       8
#    16  16  16  16   8  16  16  16
#     4  12  21  38  66 100 131 161 223 283 329 393
#     4  10  19  37  66  88 130 173 211 269 322 402
#     4  12  24  41  64  94 135 180 217 272 342 409
#     4  12  22  41  64  96 131 166 222 279 335 383
#     4  10  14  34  62  92 116 160 206 258 322 374
#     4  12  24  36  64 101 127 169 225 284 319 389
#     4  10  20  38  59  91 129 174 219 261 333 390
#     4  12  21  36  66 105 128 165 223 280 331 387
#
# _framework density 20.189558000000002
#
# number of rings (size 3 to 8) (size 9 to 14) (size 15 to 20)
#    0.000    0.800   10.000    0.400    0.000    0.000 
#    2.400    1.333    0.000    0.000    0.000    0.000 
#    0.000    0.000    0.000    0.000    0.000    0.000 
#
# Total GULP energy -371647.511442 kJ/mol
# GULP energy per Si atom -12388.250381 kJ/mol
# Density = 2.014361 g / cm^3
# Si number density = 20.189558 Si / 1000 Ang^3
#
#
#
# Elastic Constant Matrix: (Units=GPa)
#
#
# Indices 1 2 3 4 5 6 
#
# 1 69.8131 53.4972 24.0309 0.0000 0.0000 0.0000
# 2 53.4972 171.5657 32.0913 0.0000 0.0000 0.0000
# 3 24.0309 32.0913 72.4920 0.0000 0.0000 0.0000
# 4 0.0000 0.0000 0.0000 26.8816 0.0000 0.0000
# 5 0.0000 0.0000 0.0000 0.0000 23.0403 0.0000
# 6 0.0000 0.0000 0.0000 0.0000 0.0000 33.9616
#
#
#
# Elastic Compliance Matrix: (Units=1/GPa)
#
#
# Indices 1 2 3 4 5 6 
#
# 1 0.019931 -0.005428 -0.004204 0.000000 0.000000 0.000000
# 2 -0.005428 0.007833 -0.001668 0.000000 0.000000 0.000000
# 3 -0.004204 -0.001668 0.015927 0.000000 0.000000 0.000000
# 4 0.000000 0.000000 0.000000 0.037200 0.000000 0.000000
# 5 0.000000 0.000000 0.000000 0.000000 0.043402 0.000000
# 6 0.000000 0.000000 0.000000 0.000000 0.000000 0.029445
#
#
# Mechanical properties :
#
#
# Convention : Reuss Voigt Hill
#
# Bulk Modulus (GPa) = 47.41639 59.23441 53.32540
# Shear Modulus (GPa) = 27.26738 30.39346 28.83042
#
# Velocity S-wave (km/s) = 3.67899 3.88416 3.78297
# Velocity P-wave (km/s) = 6.44851 7.03694 6.74914
#
# Compressibility (1/GPa) = 0.02108975
#
# Stress axis : x y z
#
# Youngs Moduli (GPa) = 50.17365 127.65865 62.78752
#
# Poissons Ratio (x) = 0.69299 0.26395
# Poissons Ratio (y) = 0.27236 0.10474
# Poissons Ratio (z) = 0.21093 0.21297
#
# Static dielectric constant tensor:
#      x y z
#    x 3.824180 0.000000 0.000000 
#    y 0.000000 4.169580 0.000000 
#    z 0.000000 0.000000 4.073360 
# 
# 
# High freq. dielectric constant tensor:
#      x y z
#    x 1.753780 0.000000 0.000000 
#    y 0.000000 1.795410 0.000000 
#    z 0.000000 0.000000 1.789320 
# 
# From -- ./inp_files/13551.got.cif
#   From: 2010.06.25/outbox.cif.g09.slc.cpg/sg43_7_cif.got.tgz:13551.got - 2010.06.26 16:48:59.
