data_PCOD8186302
_publ_section_title
;
Structure prediction by ZEFSAII (Michael W. Deem and Ramdas Pophale) SiO2 
 PCOD8186302
Probable space group: F M M 2
;
_chemical_formula_sum "Si O2"
_cell_formula_units_Z 96
_cell_length_a 17.615514
_cell_length_b 11.116067
_cell_length_c 25.529067
_cell_angle_alpha 90.000000
_cell_angle_beta 90.000000
_cell_angle_gamma 90.000000
_cell_volume 4998.980225
_symmetry_space_group_name_H-M "F M M 2"
_symmetry_group_IT_number 42
_symmetry_cell_setting 'orthorhombic'
loop_
_space_group_symop_operation_xyz
x,y,z
-x,-y,z
-x,y,z
x,-y,z
x,1/2+y,1/2+z
-x,1/2-y,1/2+z
-x,1/2+y,1/2+z
x,1/2-y,1/2+z
1/2+x,y,1/2+z
1/2-x,-y,1/2+z
1/2-x,y,1/2+z
1/2+x,-y,1/2+z
1/2+x,1/2+y,z
1/2-x,1/2-y,z
1/2-x,1/2+y,z
1/2+x,1/2-y,z
loop_
_atom_site_type_symbol
_atom_site_label
_atom_site_fract_x
_atom_site_fract_y
_atom_site_fract_z
Si Si1 0.591123 0.000000 0.891120
Si Si2 0.413744 0.639266 0.684628
Si Si3 0.410322 0.779418 0.075775
Si Si4 0.090217 0.500000 0.010625
Si Si5 0.161344 0.753030 0.384979
Si Si6 0.410235 0.631017 0.981759
Si Si7 0.810352 0.860145 0.783564
O O1 0.629983 0.117532 0.865165
O O2 0.500000 0.000000 0.882968
O O3 0.618096 0.000000 0.951231
O O4 0.500000 0.676742 0.697570
O O5 0.409693 0.500000 0.667950
O O6 0.379576 0.717106 0.635627
O O7 0.365271 0.666771 0.735557
O O8 0.500000 0.796775 0.080804
O O9 0.375848 0.886067 0.040823
O O10 0.387692 0.661658 0.042236
O O11 0.000000 0.500000 0.010789
O O12 0.250000 0.750000 0.397789
O O13 0.119008 0.723179 0.438714
O O14 0.144299 0.656589 0.338439
O O15 0.500000 0.634821 0.977315
O O16 0.376547 0.500000 0.969707
O O17 0.750000 0.750000 0.783066
O O18 0.779522 0.000000 0.780542
#
# Coordination Sequence:
#
# PCOD8186302 Si02
#       7
#     8  16  16   8  16  16  16
#     4  11  22  38  62  93 119 157 207 255 299 363
#     4   9  17  32  58  88 110 138 191 250 292 339
#     4   9  15  28  52  82 112 143 182 235 291 346
#     4   9  14  26  52  83 108 137 179 229 284 339
#     4  11  24  37  60  82 119 153 198 244 306 357
#     4  10  20  34  54  81 116 155 192 232 289 358
#     4  10  23  41  62  81 114 158 201 241 299 364
#
# _framework density 19.203917000000001
#
# number of rings (size 3 to 8) (size 9 to 14) (size 15 to 20)
#    0.000    2.167    2.500    1.000    5.833    1.333 
#    0.000    3.333    0.000    3.000    0.000    0.000 
#    0.000    0.000    0.000    0.000    0.000    0.000 
#
# Total GULP energy -297320.161115 kJ/mol
# GULP energy per Si atom -12388.340046 kJ/mol
# Density = 1.916021 g / cm^3
# Si number density = 19.203917 Si / 1000 Ang^3
#
#
#
# Elastic Constant Matrix: (Units=GPa)
#
#
# Indices 1 2 3 4 5 6 
#
# 1 47.9348 37.3135 27.7133 0.0000 0.0000 0.0000
# 2 37.3135 114.0922 38.3030 0.0000 0.0000 0.0000
# 3 27.7133 38.3030 136.0485 0.0000 0.0000 0.0000
# 4 0.0000 0.0000 0.0000 27.4551 0.0000 0.0000
# 5 0.0000 0.0000 0.0000 0.0000 -3.2850 0.0000
# 6 0.0000 0.0000 0.0000 0.0000 0.0000 23.6530
#
#
#
# Elastic Compliance Matrix: (Units=1/GPa)
#
#
# Indices 1 2 3 4 5 6 
#
# 1 0.029534 -0.008437 -0.003641 0.000000 0.000000 0.000000
# 2 -0.008437 0.012090 -0.001685 0.000000 0.000000 0.000000
# 3 -0.003641 -0.001685 0.008566 0.000000 0.000000 0.000000
# 4 0.000000 0.000000 0.000000 0.036423 0.000000 0.000000
# 5 0.000000 0.000000 0.000000 0.000000 -0.304414 0.000000
# 6 0.000000 0.000000 0.000000 0.000000 0.000000 0.042278
#
#
# Mechanical properties :
#
#
# Convention : Reuss Voigt Hill
#
# Bulk Modulus (GPa) = 44.12149 56.08167 50.10158
# Shear Modulus (GPa) = -35.60173 22.54768 -6.52702
#
# Velocity S-wave (km/s) = -4.31034 3.43026 -1.84558
# Velocity P-wave (km/s) = 1.32171 6.70489 4.64804
#
# Compressibility (1/GPa) = 0.02266469
#
# Stress axis : x y z
#
# Youngs Moduli (GPa) = 33.85941 82.71456 116.73494
#
# Poissons Ratio (x) = 0.69783 0.42501
# Poissons Ratio (y) = 0.28566 0.19672
# Poissons Ratio (z) = 0.12328 0.13939
#
# Static dielectric constant tensor:
#      x y z
#    x 3.175780 0.000000 0.000000 
#    y 0.000000 3.748040 0.000000 
#    z 0.000000 0.000000 3.762470 
# 
# 
# High freq. dielectric constant tensor:
#      x y z
#    x 1.706080 0.000000 0.000000 
#    y 0.000000 1.746450 0.000000 
#    z 0.000000 0.000000 1.757950 
# 
# From -- ./inp_files/29863.got.cif
#   From: 2010.03.12/outbox.cif.g09.slc.cpg/sg42_15_cif.got.tgz:29863.got - 2010.04.14 02:04:31.
