data_PCOD8186175
_publ_section_title
;
Structure prediction by ZEFSAII (Michael W. Deem and Ramdas Pophale) SiO2 
 PCOD8186175
Probable space group: F M M 2
;
_chemical_formula_sum "Si O2"
_cell_formula_units_Z 96
_cell_length_a 18.033254
_cell_length_b 16.027663
_cell_length_c 18.550942
_cell_angle_alpha 90.000000
_cell_angle_beta 90.000000
_cell_angle_gamma 90.000000
_cell_volume 5361.795794
_symmetry_space_group_name_H-M "F M M 2"
_symmetry_group_IT_number 42
_symmetry_cell_setting 'orthorhombic'
loop_
_space_group_symop_operation_xyz
x,y,z
-x,-y,z
-x,y,z
x,-y,z
x,1/2+y,1/2+z
-x,1/2-y,1/2+z
-x,1/2+y,1/2+z
x,1/2-y,1/2+z
1/2+x,y,1/2+z
1/2-x,-y,1/2+z
1/2-x,y,1/2+z
1/2+x,-y,1/2+z
1/2+x,1/2+y,z
1/2-x,1/2-y,z
1/2-x,1/2+y,z
1/2+x,1/2-y,z
loop_
_atom_site_type_symbol
_atom_site_label
_atom_site_fract_x
_atom_site_fract_y
_atom_site_fract_z
Si Si1 0.586605 0.170074 0.888160
Si Si2 0.825220 0.098461 0.113867
Si Si3 0.087206 0.194768 0.222645
Si Si4 0.836131 0.837546 0.642710
Si Si5 0.912836 0.000000 0.618234
Si Si6 0.666068 0.765286 0.504405
Si Si7 0.411626 0.000000 0.955337
O O1 0.500000 0.172226 0.901580
O O2 0.606552 0.174335 0.804640
O O3 0.620375 0.082583 0.916710
O O4 0.618667 0.249111 0.932407
O O5 0.890004 0.116204 0.172069
O O6 0.751643 0.144292 0.144512
O O7 0.845467 0.141020 0.036628
O O8 0.813710 0.000000 0.102749
O O9 0.138722 0.273450 0.203970
O O10 0.000000 0.213617 0.211439
O O11 0.881861 0.920322 0.659473
O O12 0.859755 0.800289 0.565417
O O13 0.881983 0.000000 0.536801
O O14 0.000000 0.000000 0.621387
O O15 0.750000 0.750000 0.481700
O O16 0.500000 0.000000 0.952209
#
# Coordination Sequence:
#
# PCOD8186175 Si02
#       7
#    16  16  16  16   8  16   8
#     4  10  20  35  55  79 111 144 178 225 274 323
#     4  10  21  37  57  81 110 146 182 224 274 328
#     4  10  22  36  55  80 111 146 183 224 273 329
#     4  10  19  36  55  80 112 140 179 226 276 325
#     4  11  18  28  57  86 107 134 179 234 280 322
#     4   9  19  33  54  79 106 140 177 223 270 325
#     4   9  18  30  51  84 108 130 171 228 279 314
#
# _framework density 17.904449
#
# number of rings (size 3 to 8) (size 9 to 14) (size 15 to 20)
#    0.000    2.167    2.500    2.000    1.167    4.333 
#    0.000    0.000    1.833    0.000    0.000    0.000 
#    0.000    0.000    0.000    0.000    0.000    0.000 
#
# Total GULP energy -297555.922602 kJ/mol
# GULP energy per Si atom -12398.163442 kJ/mol
# Density = 1.786370 g / cm^3
# Si number density = 17.904449 Si / 1000 Ang^3
#
#
#
# Elastic Constant Matrix: (Units=GPa)
#
#
# Indices 1 2 3 4 5 6 
#
# 1 47.8180 27.3410 32.8955 0.0000 0.0000 0.0000
# 2 27.3410 116.4756 35.6143 0.0000 0.0000 0.0000
# 3 32.8955 35.6143 87.3606 0.0000 0.0000 0.0000
# 4 0.0000 0.0000 0.0000 22.7518 0.0000 0.0000
# 5 0.0000 0.0000 0.0000 0.0000 26.5325 0.0000
# 6 0.0000 0.0000 0.0000 0.0000 0.0000 29.1358
#
#
#
# Elastic Compliance Matrix: (Units=1/GPa)
#
#
# Indices 1 2 3 4 5 6 
#
# 1 0.029826 -0.004075 -0.009570 0.000000 0.000000 0.000000
# 2 -0.004075 0.010365 -0.002691 0.000000 0.000000 0.000000
# 3 -0.009570 -0.002691 0.016147 0.000000 0.000000 0.000000
# 4 0.000000 0.000000 0.000000 0.043953 0.000000 0.000000
# 5 0.000000 0.000000 0.000000 0.000000 0.037690 0.000000
# 6 0.000000 0.000000 0.000000 0.000000 0.000000 0.034322
#
#
# Mechanical properties :
#
#
# Convention : Reuss Voigt Hill
#
# Bulk Modulus (GPa) = 42.25359 49.26177 45.75768
# Shear Modulus (GPa) = 23.48934 26.07091 24.78013
#
# Velocity S-wave (km/s) = 3.62598 3.82005 3.72428
# Velocity P-wave (km/s) = 6.41725 6.85787 6.64122
#
# Compressibility (1/GPa) = 0.02366663
#
# Stress axis : x y z
#
# Youngs Moduli (GPa) = 33.52791 96.47968 61.93005
#
# Poissons Ratio (x) = 0.39317 0.59265
# Poissons Ratio (y) = 0.13663 0.16665
# Poissons Ratio (z) = 0.32085 0.25962
#
# Static dielectric constant tensor:
#      x y z
#    x 3.233060 0.000000 0.000000 
#    y 0.000000 3.224540 0.000000 
#    z 0.000000 0.000000 3.166990 
# 
# 
# High freq. dielectric constant tensor:
#      x y z
#    x 1.687260 0.000000 0.000000 
#    y 0.000000 1.694900 0.000000 
#    z 0.000000 0.000000 1.673920 
# 
# From -- ./inp_files/20826.got.cif
#   From: 2010.03.12/outbox.cif.g09.slc.cpg/sg42_11_cif.got.tgz:20826.got - 2010.04.14 02:04:31.
