data_PCOD8186271
_publ_section_title
;
Structure prediction by ZEFSAII (Michael W. Deem and Ramdas Pophale) SiO2 
 PCOD8186271
Probable space group: F M M 2
;
_chemical_formula_sum "Si O2"
_cell_formula_units_Z 96
_cell_length_a 28.378569
_cell_length_b 9.028088
_cell_length_c 20.693048
_cell_angle_alpha 90.000000
_cell_angle_beta 90.000000
_cell_angle_gamma 90.000000
_cell_volume 5301.646186
_symmetry_space_group_name_H-M "F M M 2"
_symmetry_group_IT_number 42
_symmetry_cell_setting 'orthorhombic'
loop_
_space_group_symop_operation_xyz
x,y,z
-x,-y,z
-x,y,z
x,-y,z
x,1/2+y,1/2+z
-x,1/2-y,1/2+z
-x,1/2+y,1/2+z
x,1/2-y,1/2+z
1/2+x,y,1/2+z
1/2-x,-y,1/2+z
1/2-x,y,1/2+z
1/2+x,-y,1/2+z
1/2+x,1/2+y,z
1/2-x,1/2-y,z
1/2-x,1/2+y,z
1/2+x,1/2-y,z
loop_
_atom_site_type_symbol
_atom_site_label
_atom_site_fract_x
_atom_site_fract_y
_atom_site_fract_z
Si Si1 0.551950 0.324671 0.154950
Si Si2 0.647926 0.829418 0.965335
Si Si3 0.300348 0.674880 0.335056
Si Si4 0.852240 0.675614 0.708446
Si Si5 0.051948 0.669000 0.021939
Si Si6 0.199955 0.175320 0.079897
O O1 0.500000 0.268805 0.178039
O O2 0.552803 0.500000 0.150367
O O3 0.593054 0.270125 0.203940
O O4 0.563933 0.267977 0.083671
O O5 0.667005 0.782536 0.895530
O O6 0.661091 0.000000 0.980512
O O7 0.591228 0.805158 0.966568
O O8 0.669948 0.723496 0.018543
O O9 0.292556 0.500000 0.329491
O O10 0.250000 0.750000 0.343045
O O11 0.326981 0.740406 0.272066
O O12 0.850872 0.500000 0.711879
O O13 0.824751 0.732313 0.645299
O O14 0.053197 0.500000 0.045971
O O15 0.000000 0.708614 0.993700
O O16 0.250000 0.250000 0.074883
O O17 0.205706 0.000000 0.079253
#
# Coordination Sequence:
#
# PCOD8186271 Si02
#       6
#    16  16  16  16  16  16
#     4   9  16  29  51  77 102 129 163 203 250 300
#     4  10  20  34  52  75 102 134 169 208 252 301
#     4  10  21  37  53  70  99 136 172 208 251 302
#     4   9  18  33  51  74 101 130 165 207 251 295
#     4   9  17  30  49  75 105 133 163 202 250 301
#     4  11  21  33  51  74 100 129 166 215 258 299
#
# _framework density 18.107583000000002
#
# number of rings (size 3 to 8) (size 9 to 14) (size 15 to 20)
#    0.000    2.333    1.667    1.500    0.000    2.000 
#    0.000    2.500    0.000    5.000    0.000    0.000 
#    0.000    6.667    0.000    0.000    0.000    0.000 
#
# Total GULP energy -297502.205710 kJ/mol
# GULP energy per Si atom -12395.925238 kJ/mol
# Density = 1.806637 g / cm^3
# Si number density = 18.107583 Si / 1000 Ang^3
#
#
#
# Elastic Constant Matrix: (Units=GPa)
#
#
# Indices 1 2 3 4 5 6 
#
# 1 166.5894 28.5048 74.4971 0.0000 0.0000 0.0000
# 2 28.5048 27.4384 26.6691 0.0000 0.0000 0.0000
# 3 74.4971 26.6691 124.3037 0.0000 0.0000 0.0000
# 4 0.0000 0.0000 0.0000 19.3599 0.0000 0.0000
# 5 0.0000 0.0000 0.0000 0.0000 34.0446 0.0000
# 6 0.0000 0.0000 0.0000 0.0000 0.0000 8.9242
#
#
#
# Elastic Compliance Matrix: (Units=1/GPa)
#
#
# Indices 1 2 3 4 5 6 
#
# 1 0.008717 -0.005026 -0.004146 0.000000 0.000000 0.000000
# 2 -0.005026 0.048946 -0.007489 0.000000 0.000000 0.000000
# 3 -0.004146 -0.007489 0.012136 0.000000 0.000000 0.000000
# 4 0.000000 0.000000 0.000000 0.051653 0.000000 0.000000
# 5 0.000000 0.000000 0.000000 0.000000 0.029373 0.000000
# 6 0.000000 0.000000 0.000000 0.000000 0.000000 0.112055
#
#
# Mechanical properties :
#
#
# Convention : Reuss Voigt Hill
#
# Bulk Modulus (GPa) = 27.41453 64.18594 45.80024
# Shear Modulus (GPa) = 16.21482 25.04312 20.62897
#
# Velocity S-wave (km/s) = 2.99569 3.72293 3.37893
# Velocity P-wave (km/s) = 5.20943 7.34876 6.36955
#
# Compressibility (1/GPa) = 0.03647701
#
# Stress axis : x y z
#
# Youngs Moduli (GPa) = 114.72234 20.43084 82.39834
#
# Poissons Ratio (x) = 0.10268 0.34160
# Poissons Ratio (y) = 0.57659 0.61708
# Poissons Ratio (z) = 0.47561 0.15301
#
# Static dielectric constant tensor:
#      x y z
#    x 3.856490 0.000000 0.000000 
#    y 0.000000 3.173730 0.000000 
#    z 0.000000 0.000000 3.362980 
# 
# 
# High freq. dielectric constant tensor:
#      x y z
#    x 1.725120 0.000000 0.000000 
#    y 0.000000 1.681310 0.000000 
#    z 0.000000 0.000000 1.680310 
# 
# From -- ./inp_files/23698.got.cif
#   From: 2010.03.12/outbox.cif.g09.slc.cpg/sg42_12_cif.got.tgz:23698.got - 2010.04.14 02:04:31.
