data_PCOD8186211
_publ_section_title
;
Structure prediction by ZEFSAII (Michael W. Deem and Ramdas Pophale) SiO2 
 PCOD8186211
Probable space group: F M M 2
;
_chemical_formula_sum "Si O2"
_cell_formula_units_Z 96
_cell_length_a 23.608335
_cell_length_b 8.976131
_cell_length_c 26.007644
_cell_angle_alpha 90.000000
_cell_angle_beta 90.000000
_cell_angle_gamma 90.000000
_cell_volume 5511.319051
_symmetry_space_group_name_H-M "F M M 2"
_symmetry_group_IT_number 42
_symmetry_cell_setting 'orthorhombic'
loop_
_space_group_symop_operation_xyz
x,y,z
-x,-y,z
-x,y,z
x,-y,z
x,1/2+y,1/2+z
-x,1/2-y,1/2+z
-x,1/2+y,1/2+z
x,1/2-y,1/2+z
1/2+x,y,1/2+z
1/2-x,-y,1/2+z
1/2-x,y,1/2+z
1/2+x,-y,1/2+z
1/2+x,1/2+y,z
1/2-x,1/2-y,z
1/2-x,1/2+y,z
1/2+x,1/2-y,z
loop_
_atom_site_type_symbol
_atom_site_label
_atom_site_fract_x
_atom_site_fract_y
_atom_site_fract_z
Si Si1 0.596646 0.334479 0.353850
Si Si2 0.310107 0.824595 0.173522
Si Si3 0.000000 0.830164 0.682194
Si Si4 0.500000 0.156626 0.773554
Si Si5 0.500000 0.322761 0.427335
Si Si6 0.810145 0.325396 0.290581
Si Si7 0.000000 0.327462 0.535542
Si Si8 0.408686 0.674982 0.120073
O O1 0.619558 0.500000 0.368772
O O2 0.556096 0.347363 0.306052
O O3 0.558402 0.264257 0.400445
O O4 0.648387 0.231023 0.335872
O O5 0.250000 0.750000 0.165381
O O6 0.331841 0.790263 0.232038
O O7 0.348567 0.755442 0.127662
O O8 0.305806 0.000000 0.164253
O O9 0.000000 0.812769 0.743305
O O10 0.944580 0.743430 0.665795
O O11 0.000000 0.000000 0.663688
O O12 0.500000 0.000000 0.740716
O O13 0.500000 0.500000 0.421760
O O14 0.500000 0.274831 0.486058
O O15 0.802490 0.500000 0.297818
O O16 0.750000 0.250000 0.299785
O O17 0.057317 0.289049 0.567386
O O18 0.000000 0.500000 0.519750
O O19 0.400829 0.500000 0.127008
#
# Coordination Sequence:
#
# PCOD8186211 Si02
#       8
#    16  16   8   8   8  16   8  16
#     4   9  18  32  49  71  98 128 163 200 242 295
#     4  10  20  33  50  75 105 138 174 206 241 288
#     4  11  20  28  42  68  99 128 162 202 243 292
#     4   9  17  29  45  65  95 132 160 190 239 293
#     4   9  19  35  55  77  99 126 160 202 255 307
#     4  10  20  32  48  72 102 137 172 204 239 283
#     4   9  20  36  54  76  99 126 162 206 257 306
#     4  10  20  34  50  70  98 131 166 204 249 298
#
# _framework density 17.418697000000002
#
# number of rings (size 3 to 8) (size 9 to 14) (size 15 to 20)
#    0.000    2.333    0.000    4.750    0.000    8.000 
#    0.000    1.667    0.000    1.000    0.000    7.000 
#    0.000    0.000    0.000    0.000    0.000    0.000 
#
# Total GULP energy -297316.600688 kJ/mol
# GULP energy per Si atom -12388.191695 kJ/mol
# Density = 1.737905 g / cm^3
# Si number density = 17.418697 Si / 1000 Ang^3
#
#
#
# Elastic Constant Matrix: (Units=GPa)
#
#
# Indices 1 2 3 4 5 6 
#
# 1 104.5155 55.7157 49.0337 0.0000 0.0000 0.0000
# 2 55.7157 94.1480 45.0852 0.0000 0.0000 0.0000
# 3 49.0337 45.0852 87.6813 0.0000 0.0000 0.0000
# 4 0.0000 0.0000 0.0000 27.7921 0.0000 0.0000
# 5 0.0000 0.0000 0.0000 0.0000 22.3289 0.0000
# 6 0.0000 0.0000 0.0000 0.0000 0.0000 35.2986
#
#
#
# Elastic Compliance Matrix: (Units=1/GPa)
#
#
# Indices 1 2 3 4 5 6 
#
# 1 0.015629 -0.006718 -0.005286 0.000000 0.000000 0.000000
# 2 -0.006718 0.016979 -0.004974 0.000000 0.000000 0.000000
# 3 -0.005286 -0.004974 0.016918 0.000000 0.000000 0.000000
# 4 0.000000 0.000000 0.000000 0.035981 0.000000 0.000000
# 5 0.000000 0.000000 0.000000 0.000000 0.044785 0.000000
# 6 0.000000 0.000000 0.000000 0.000000 0.000000 0.028330
#
#
# Mechanical properties :
#
#
# Convention : Reuss Voigt Hill
#
# Bulk Modulus (GPa) = 64.21974 65.11268 64.66621
# Shear Modulus (GPa) = 25.28220 26.18461 25.73341
#
# Velocity S-wave (km/s) = 3.81391 3.88138 3.84779
# Velocity P-wave (km/s) = 7.50619 7.58610 7.54625
#
# Compressibility (1/GPa) = 0.01557154
#
# Stress axis : x y z
#
# Youngs Moduli (GPa) = 63.98367 58.89686 59.10733
#
# Poissons Ratio (x) = 0.39566 0.31244
# Poissons Ratio (y) = 0.42983 0.29398
# Poissons Ratio (z) = 0.33821 0.29293
#
# Static dielectric constant tensor:
#      x y z
#    x 3.055650 0.000000 0.000000 
#    y 0.000000 3.365180 0.000000 
#    z 0.000000 0.000000 3.030830 
# 
# 
# High freq. dielectric constant tensor:
#      x y z
#    x 1.672450 0.000000 0.000000 
#    y 0.000000 1.680460 0.000000 
#    z 0.000000 0.000000 1.640130 
# 
# From -- ./inp_files/30486.got.cif
#   From: 2010.03.12/outbox.cif.g09.slc.cpg/sg42_16_cif.got.tgz:30486.got - 2010.04.14 02:04:31.
