data_PCOD8186985
_publ_section_title
;
Structure prediction by ZEFSAII (Michael W. Deem and Ramdas Pophale) SiO2 
 PCOD8186985
Probable space group: F D D 2
;
_chemical_formula_sum "Si O2"
_cell_formula_units_Z 120
_cell_length_a 11.831085
_cell_length_b 18.154269
_cell_length_c 25.508109
_cell_angle_alpha 90.000000
_cell_angle_beta 90.000000
_cell_angle_gamma 90.000000
_cell_volume 5478.751530
_symmetry_space_group_name_H-M "F D D 2"
_symmetry_group_IT_number 43
_symmetry_cell_setting 'orthorhombic'
loop_
_space_group_symop_operation_xyz
x,y,z
-x,-y,z
1/4-x,1/4+y,1/4+z
1/4+x,1/4-y,1/4+z
x,1/2+y,1/2+z
-x,1/2-y,1/2+z
1/4-x,3/4+y,3/4+z
1/4+x,3/4-y,3/4+z
1/2+x,y,1/2+z
1/2-x,-y,1/2+z
3/4-x,1/4+y,3/4+z
3/4+x,1/4-y,3/4+z
1/2+x,1/2+y,z
1/2-x,1/2-y,z
3/4-x,3/4+y,1/4+z
3/4+x,3/4-y,1/4+z
loop_
_atom_site_type_symbol
_atom_site_label
_atom_site_fract_x
_atom_site_fract_y
_atom_site_fract_z
Si Si1 0.940008 0.215138 0.448270
Si Si2 0.822658 0.635235 0.205089
Si Si3 0.750000 0.750000 0.693815
Si Si4 0.021902 0.357083 0.560104
Si Si5 0.490271 0.371812 0.360388
Si Si6 0.978753 0.583505 0.341848
Si Si7 0.943131 0.338014 0.243754
Si Si8 0.137084 0.713983 0.025155
O O1 0.902443 0.298165 0.456932
O O2 0.839149 0.164077 0.466383
O O3 0.958824 0.201860 0.386198
O O4 0.054173 0.188343 0.479022
O O5 0.735807 0.646182 0.253185
O O6 0.769334 0.661832 0.151418
O O7 0.935894 0.681512 0.217548
O O8 0.777126 0.681758 0.656355
O O9 0.855811 0.771495 0.731881
O O10 0.116887 0.403490 0.590381
O O11 0.070076 0.273955 0.559341
O O12 0.903023 0.354325 0.589983
O O13 0.575033 0.398397 0.314334
O O14 0.000000 0.500000 0.321757
O O15 0.046189 0.642542 0.305740
O O16 0.250000 0.750000 0.000150
#
# Coordination Sequence:
#
# PCOD8186985 Si02
#       8
#    16  16   8  16  16  16  16  16
#     4  10  21  36  59  90 123 167 205 262 330 377
#     4  10  22  41  60  89 124 167 216 263 308 392
#     4  10  20  36  62  96 122 158 204 278 310 372
#     4   9  19  37  60  83 122 161 215 257 310 375
#     4  10  19  35  61  95 123 164 213 264 324 373
#     4  11  23  39  64  88 120 181 213 256 330 393
#     4  10  22  41  61  92 129 157 214 268 323 385
#     4   9  17  34  58  82 121 166 209 256 308 382
#
# _framework density 21.902799999999999
#
# number of rings (size 3 to 8) (size 9 to 14) (size 15 to 20)
#    0.000    2.133    2.000    2.800    1.867    5.333 
#    7.200    2.667    0.000    0.000    0.000    0.000 
#    0.000    0.000    0.000    0.000    0.000    0.000 
#
# Total GULP energy -371794.364129 kJ/mol
# GULP energy per Si atom -12393.145471 kJ/mol
# Density = 2.185295 g / cm^3
# Si number density = 21.902800 Si / 1000 Ang^3
#
#
#
# Elastic Constant Matrix: (Units=GPa)
#
#
# Indices 1 2 3 4 5 6 
#
# 1 112.1104 12.6682 55.3698 0.0000 0.0000 0.0000
# 2 12.6682 28.4461 8.6721 0.0000 0.0000 0.0000
# 3 55.3698 8.6721 117.9897 0.0000 0.0000 0.0000
# 4 0.0000 0.0000 0.0000 23.5697 0.0000 0.0000
# 5 0.0000 0.0000 0.0000 0.0000 22.8591 0.0000
# 6 0.0000 0.0000 0.0000 0.0000 0.0000 29.5941
#
#
#
# Elastic Compliance Matrix: (Units=1/GPa)
#
#
# Indices 1 2 3 4 5 6 
#
# 1 0.011981 -0.003704 -0.005350 0.000000 0.000000 0.000000
# 2 -0.003704 0.037105 -0.000989 0.000000 0.000000 0.000000
# 3 -0.005350 -0.000989 0.011059 0.000000 0.000000 0.000000
# 4 0.000000 0.000000 0.000000 0.042427 0.000000 0.000000
# 5 0.000000 0.000000 0.000000 0.000000 0.043746 0.000000
# 6 0.000000 0.000000 0.000000 0.000000 0.000000 0.033790
#
#
# Mechanical properties :
#
#
# Convention : Reuss Voigt Hill
#
# Bulk Modulus (GPa) = 24.96368 45.77407 35.36887
# Shear Modulus (GPa) = 23.41394 27.32699 25.37046
#
# Velocity S-wave (km/s) = 3.27309 3.53604 3.40710
# Velocity P-wave (km/s) = 5.07015 6.13315 5.62681
#
# Compressibility (1/GPa) = 0.04005820
#
# Stress axis : x y z
#
# Youngs Moduli (GPa) = 83.46789 26.95025 90.42729
#
# Poissons Ratio (x) = 0.09984 0.48378
# Poissons Ratio (y) = 0.30920 0.08941
# Poissons Ratio (z) = 0.44655 0.02665
#
# Static dielectric constant tensor:
#      x y z
#    x 4.287540 0.000000 0.000000 
#    y 0.000000 3.736550 0.000000 
#    z 0.000000 0.000000 4.102040 
# 
# 
# High freq. dielectric constant tensor:
#      x y z
#    x 1.869230 0.000000 0.000000 
#    y 0.000000 1.835130 0.000000 
#    z 0.000000 0.000000 1.861810 
# 
# From -- ./inp_files/21259.got.cif
#   From: 2010.06.25/outbox.cif.g09.slc.cpg/sg43_11_cif.got.tgz:21259.got - 2010.06.26 16:48:59.
