data_PCOD8186447
_publ_section_title
;
Structure prediction by ZEFSAII (Michael W. Deem and Ramdas Pophale) SiO2 
 PCOD8186447
Probable space group: F M M 2
;
_chemical_formula_sum "Si O2"
_cell_formula_units_Z 96
_cell_length_a 25.269923
_cell_length_b 8.682965
_cell_length_c 23.318025
_cell_angle_alpha 90.000000
_cell_angle_beta 90.000000
_cell_angle_gamma 90.000000
_cell_volume 5116.391074
_symmetry_space_group_name_H-M "F M M 2"
_symmetry_group_IT_number 42
_symmetry_cell_setting 'orthorhombic'
loop_
_space_group_symop_operation_xyz
x,y,z
-x,-y,z
-x,y,z
x,-y,z
x,1/2+y,1/2+z
-x,1/2-y,1/2+z
-x,1/2+y,1/2+z
x,1/2-y,1/2+z
1/2+x,y,1/2+z
1/2-x,-y,1/2+z
1/2-x,y,1/2+z
1/2+x,-y,1/2+z
1/2+x,1/2+y,z
1/2-x,1/2-y,z
1/2-x,1/2+y,z
1/2+x,1/2-y,z
loop_
_atom_site_type_symbol
_atom_site_label
_atom_site_fract_x
_atom_site_fract_y
_atom_site_fract_z
Si Si1 0.193387 0.181744 0.125000
Si Si2 0.399429 0.180817 0.193322
Si Si3 0.438648 0.822278 0.806149
Si Si4 0.907299 0.322992 0.932974
Si Si5 0.000000 0.322592 0.501390
Si Si6 0.694377 0.679700 0.504223
Si Si7 0.500000 0.318888 0.624423
O O1 0.250000 0.250000 0.141753
O O2 0.152948 0.230801 0.174210
O O3 0.174301 0.245122 0.063403
O O4 0.197509 0.000000 0.121616
O O5 0.410528 0.215099 0.259673
O O6 0.448029 0.247445 0.155672
O O7 0.391173 0.000000 0.184121
O O8 0.500000 0.776385 0.812702
O O9 0.408866 0.788401 0.865602
O O10 0.432845 0.000000 0.788061
O O11 0.923413 0.500000 0.945373
O O12 0.848359 0.286975 0.954950
O O13 0.948059 0.213354 0.965036
O O14 0.000000 0.500000 0.518954
O O15 0.000000 0.222192 0.558319
O O16 0.702217 0.500000 0.515606
O O17 0.750000 0.750000 0.483668
O O18 0.500000 0.500000 0.632037
#
# Coordination Sequence:
#
# PCOD8186447 Si02
#       7
#    16  16  16  16   8  16   8
#     4  11  22  38  60  86 116 151 191 236 288 343
#     4  11  22  38  58  84 115 150 191 236 286 340
#     4  10  20  37  60  82 110 153 197 236 281 337
#     4  10  21  39  59  80 112 155 193 228 282 345
#     4  12  24  33  52  85 115 142 182 238 289 334
#     4  10  20  36  60  86 115 151 190 233 285 341
#     4  10  22  37  54  77 113 152 184 224 283 348
#
# _framework density 18.763224999999998
#
# number of rings (size 3 to 8) (size 9 to 14) (size 15 to 20)
#    0.000    1.500    1.667    5.250    0.000    7.333 
#    0.000    0.833    0.000    2.000    0.000    0.000 
#    0.000    0.000    0.000    0.000    0.000    0.000 
#
# Total GULP energy -297732.805604 kJ/mol
# GULP energy per Si atom -12405.533567 kJ/mol
# Density = 1.872052 g / cm^3
# Si number density = 18.763225 Si / 1000 Ang^3
#
#
#
# Elastic Constant Matrix: (Units=GPa)
#
#
# Indices 1 2 3 4 5 6 
#
# 1 118.7740 46.1135 61.5487 0.0000 0.0000 -0.0001
# 2 46.1135 85.1041 28.3919 0.0000 0.0000 -0.0001
# 3 61.5487 28.3919 104.1916 0.0000 0.0000 0.0000
# 4 0.0000 0.0000 0.0000 30.7277 0.0000 0.0000
# 5 0.0000 0.0000 0.0000 0.0000 33.2436 0.0000
# 6 -0.0001 -0.0001 0.0000 0.0000 0.0000 26.9008
#
#
#
# Elastic Compliance Matrix: (Units=1/GPa)
#
#
# Indices 1 2 3 4 5 6 
#
# 1 0.014028 -0.005320 -0.006837 0.000000 0.000000 0.000000
# 2 -0.005320 0.014943 -0.000929 0.000000 0.000000 0.000000
# 3 -0.006837 -0.000929 0.013890 0.000000 0.000000 0.000000
# 4 0.000000 0.000000 0.000000 0.032544 0.000000 0.000000
# 5 0.000000 0.000000 0.000000 0.000000 0.030081 0.000000
# 6 0.000000 0.000000 0.000000 0.000000 0.000000 0.037174
#
#
# Mechanical properties :
#
#
# Convention : Reuss Voigt Hill
#
# Bulk Modulus (GPa) = 59.92301 64.46424 62.19362
# Shear Modulus (GPa) = 28.67076 29.64211 29.15644
#
# Velocity S-wave (km/s) = 3.91324 3.97898 3.94625
# Velocity P-wave (km/s) = 7.24042 7.45258 7.34727
#
# Compressibility (1/GPa) = 0.01668808
#
# Stress axis : x y z
#
# Youngs Moduli (GPa) = 71.28764 66.92107 71.99624
#
# Poissons Ratio (x) = 0.35602 0.49223
# Poissons Ratio (y) = 0.37925 0.06690
# Poissons Ratio (z) = 0.48738 0.06219
#
# Static dielectric constant tensor:
#      x y z
#    x 3.533060 0.000000 0.000000 
#    y 0.000000 3.429320 0.000000 
#    z 0.000000 0.000000 3.365590 
# 
# 
# High freq. dielectric constant tensor:
#      x y z
#    x 1.731560 0.000000 0.000000 
#    y 0.000000 1.732230 0.000000 
#    z 0.000000 0.000000 1.726210 
# 
# From -- ./inp_files/28102.got.cif
#   From: 2010.03.12/outbox.cif.g09.slc.cpg/sg42_15_cif.got.tgz:28102.got - 2010.04.14 02:04:31.
