data_PCOD8186598
_publ_section_title
;
Structure prediction by ZEFSAII (Michael W. Deem and Ramdas Pophale) SiO2 
 PCOD8186598
Probable space group: F M M 2
;
_chemical_formula_sum "Si O2"
_cell_formula_units_Z 80
_cell_length_a 9.273440
_cell_length_b 16.127517
_cell_length_c 28.084041
_cell_angle_alpha 90.000000
_cell_angle_beta 90.000000
_cell_angle_gamma 90.000000
_cell_volume 4200.180682
_symmetry_space_group_name_H-M "F M M 2"
_symmetry_group_IT_number 42
_symmetry_cell_setting 'orthorhombic'
loop_
_space_group_symop_operation_xyz
x,y,z
-x,-y,z
-x,y,z
x,-y,z
x,1/2+y,1/2+z
-x,1/2-y,1/2+z
-x,1/2+y,1/2+z
x,1/2-y,1/2+z
1/2+x,y,1/2+z
1/2-x,-y,1/2+z
1/2-x,y,1/2+z
1/2+x,-y,1/2+z
1/2+x,1/2+y,z
1/2-x,1/2-y,z
1/2-x,1/2+y,z
1/2+x,1/2-y,z
loop_
_atom_site_type_symbol
_atom_site_label
_atom_site_fract_x
_atom_site_fract_y
_atom_site_fract_z
Si Si1 0.158106 0.591872 0.581230
Si Si2 0.164965 0.000000 0.991076
Si Si3 0.835510 0.405939 0.257149
Si Si4 0.829934 0.000000 0.394268
Si Si5 0.164472 0.171467 0.659746
Si Si6 0.671874 0.666969 0.339775
O O1 0.155192 0.500000 0.604285
O O2 0.192588 0.581657 0.524502
O O3 0.277575 0.644896 0.608048
O O4 0.000000 0.633298 0.587882
O O5 0.272788 0.000000 0.947663
O O6 0.000000 0.000000 0.972697
O O7 0.800215 0.500000 0.271114
O O8 0.814059 0.397695 0.200338
O O9 0.726587 0.346448 0.285710
O O10 0.000000 0.382340 0.270913
O O11 0.777562 0.915025 0.368906
O O12 0.000000 0.000000 0.396024
O O13 0.250000 0.250000 0.679020
O O14 0.000000 0.195559 0.652111
O O15 0.500000 0.679216 0.340763
O O16 0.750000 0.750000 0.360412
#
# Coordination Sequence:
#
# PCOD8186598 Si02
#       6
#    16   8  16   8  16  16
#     4   8  17  35  56  80 106 138 181 227 277 337
#     4   8  18  36  61  86 109 141 184 233 289 350
#     4  10  21  37  57  84 115 151 196 239 287 347
#     4  10  22  40  61  88 119 151 196 243 297 356
#     4  11  22  34  51  79 115 153 192 235 282 339
#     4  11  23  40  60  88 121 156 198 244 292 349
#
# _framework density 19.046800000000001
#
# number of rings (size 3 to 8) (size 9 to 14) (size 15 to 20)
#    0.600    1.600    1.000    2.400    0.000    6.800 
#    0.000    1.000    0.000    2.400    0.000    0.000 
#    0.000    0.000    0.000    0.000    0.000    0.000 
#
# Total GULP energy -247842.062017 kJ/mol
# GULP energy per Si atom -12392.103101 kJ/mol
# Density = 1.900345 g / cm^3
# Si number density = 19.046800 Si / 1000 Ang^3
#
#
#
# Elastic Constant Matrix: (Units=GPa)
#
#
# Indices 1 2 3 4 5 6 
#
# 1 93.2224 47.4908 41.4357 0.0000 0.0000 0.0000
# 2 47.4908 101.6546 37.4305 0.0000 0.0000 0.0000
# 3 41.4357 37.4305 88.2827 0.0000 0.0000 0.0000
# 4 0.0000 0.0000 0.0000 17.2607 0.0000 0.0000
# 5 0.0000 0.0000 0.0000 0.0000 33.9770 0.0000
# 6 0.0000 0.0000 0.0000 0.0000 0.0000 32.4242
#
#
#
# Elastic Compliance Matrix: (Units=1/GPa)
#
#
# Indices 1 2 3 4 5 6 
#
# 1 0.015789 -0.005507 -0.005075 0.000000 0.000000 0.000000
# 2 -0.005507 0.013578 -0.003172 0.000000 0.000000 0.000000
# 3 -0.005075 -0.003172 0.015054 0.000000 0.000000 0.000000
# 4 0.000000 0.000000 0.000000 0.057935 0.000000 0.000000
# 5 0.000000 0.000000 0.000000 0.000000 0.029432 0.000000
# 6 0.000000 0.000000 0.000000 0.000000 0.000000 0.030841
#
#
# Mechanical properties :
#
#
# Convention : Reuss Voigt Hill
#
# Bulk Modulus (GPa) = 59.13128 59.54152 59.33640
# Shear Modulus (GPa) = 25.53948 27.18589 26.36268
#
# Velocity S-wave (km/s) = 3.66578 3.78209 3.72439
# Velocity P-wave (km/s) = 7.00213 7.09935 7.05091
#
# Compressibility (1/GPa) = 0.01691152
#
# Stress axis : x y z
#
# Youngs Moduli (GPa) = 63.33704 73.64817 66.42617
#
# Poissons Ratio (x) = 0.40560 0.33714
# Poissons Ratio (y) = 0.34881 0.21071
# Poissons Ratio (z) = 0.32146 0.23362
#
# Static dielectric constant tensor:
#      x y z
#    x 3.395420 0.000000 0.000000 
#    y 0.000000 3.528560 0.000000 
#    z 0.000000 0.000000 3.214280 
# 
# 
# High freq. dielectric constant tensor:
#      x y z
#    x 1.742560 0.000000 0.000000 
#    y 0.000000 1.732750 0.000000 
#    z 0.000000 0.000000 1.724380 
# 
# From -- ./inp_files/31334.got.cif
#   From: 2010.03.12/outbox.cif.g09.slc.cpg/sg42_16_cif.got.tgz:31334.got - 2010.04.14 02:04:31.
