data_PCOD8186307
_publ_section_title
;
Structure prediction by ZEFSAII (Michael W. Deem and Ramdas Pophale) SiO2 
 PCOD8186307
Probable space group: F M M 2
;
_chemical_formula_sum "Si O2"
_cell_formula_units_Z 128
_cell_length_a 18.430285
_cell_length_b 15.560929
_cell_length_c 23.510938
_cell_angle_alpha 90.000000
_cell_angle_beta 90.000000
_cell_angle_gamma 90.000000
_cell_volume 6742.757309
_symmetry_space_group_name_H-M "F M M 2"
_symmetry_group_IT_number 42
_symmetry_cell_setting 'orthorhombic'
loop_
_space_group_symop_operation_xyz
x,y,z
-x,-y,z
-x,y,z
x,-y,z
x,1/2+y,1/2+z
-x,1/2-y,1/2+z
-x,1/2+y,1/2+z
x,1/2-y,1/2+z
1/2+x,y,1/2+z
1/2-x,-y,1/2+z
1/2-x,y,1/2+z
1/2+x,-y,1/2+z
1/2+x,1/2+y,z
1/2-x,1/2-y,z
1/2-x,1/2+y,z
1/2+x,1/2-y,z
loop_
_atom_site_type_symbol
_atom_site_label
_atom_site_fract_x
_atom_site_fract_y
_atom_site_fract_z
Si Si1 0.810541 0.098228 0.427680
Si Si2 0.692847 0.673594 0.112262
Si Si3 0.084514 0.754597 0.923027
Si Si4 0.333764 0.900589 0.491717
Si Si5 0.081231 0.781254 0.677182
Si Si6 0.920937 0.289016 0.798966
Si Si7 0.713869 0.900587 0.801576
Si Si8 0.702037 0.096523 0.196722
O O1 0.874635 0.165854 0.440919
O O2 0.750316 0.109892 0.475497
O O3 0.768886 0.117678 0.367774
O O4 0.841589 0.000000 0.427123
O O5 0.750000 0.750000 0.098721
O O6 0.620473 0.703706 0.144890
O O7 0.731877 0.604512 0.152516
O O8 0.662201 0.627280 0.056823
O O9 0.115851 0.838365 0.954259
O O10 0.096420 0.767453 0.855353
O O11 0.000000 0.744994 0.939575
O O12 0.359139 0.000000 0.483799
O O13 0.078451 0.771970 0.744880
O O14 0.130413 0.864606 0.668173
O O15 0.000000 0.793293 0.652326
O O16 0.865523 0.365346 0.788649
O O17 0.000000 0.332421 0.807059
O O18 0.773039 0.859518 0.757548
O O19 0.710782 0.000000 0.786719
O O20 0.681065 0.000000 0.208301
#
# Coordination Sequence:
#
# PCOD8186307 Si02
#       8
#    16  16  16  16  16  16  16  16
#     4   9  19  35  57  86 114 148 191 243 293 340
#     4  10  20  37  60  82 108 146 193 242 291 333
#     4  10  21  36  56  83 115 155 195 237 290 346
#     4  11  23  39  59  84 118 156 197 241 287 344
#     4  10  21  36  54  80 111 147 190 232 280 340
#     4   9  18  33  52  78 114 150 187 232 284 337
#     4   9  17  30  52  82 114 144 186 234 282 338
#     4  10  20  34  55  82 111 145 185 232 283 340
#
# _framework density 18.983331
#
# number of rings (size 3 to 8) (size 9 to 14) (size 15 to 20)
#    0.000    2.250    1.250    1.500    1.750    1.500 
#    0.000    2.500    0.000    3.375    0.000    3.500 
#    0.000    0.000    0.000    0.000    0.000    0.000 
#
# Total GULP energy -396575.087618 kJ/mol
# GULP energy per Si atom -12392.971488 kJ/mol
# Density = 1.894012 g / cm^3
# Si number density = 18.983331 Si / 1000 Ang^3
#
#
#
# Elastic Constant Matrix: (Units=GPa)
#
#
# Indices 1 2 3 4 5 6 
#
# 1 126.6453 51.1142 41.3359 0.0000 0.0000 0.0000
# 2 51.1142 88.9322 37.7836 0.0000 0.0000 0.0000
# 3 41.3359 37.7836 94.0892 0.0000 0.0000 0.0000
# 4 0.0000 0.0000 0.0000 27.4929 0.0000 0.0000
# 5 0.0000 0.0000 0.0000 0.0000 21.1566 0.0000
# 6 0.0000 0.0000 0.0000 0.0000 0.0000 20.0843
#
#
#
# Elastic Compliance Matrix: (Units=1/GPa)
#
#
# Indices 1 2 3 4 5 6 
#
# 1 0.010830 -0.005068 -0.002723 0.000000 0.000000 0.000000
# 2 -0.005068 0.015929 -0.004170 0.000000 0.000000 0.000000
# 3 -0.002723 -0.004170 0.013499 0.000000 0.000000 0.000000
# 4 0.000000 0.000000 0.000000 0.036373 0.000000 0.000000
# 5 0.000000 0.000000 0.000000 0.000000 0.047267 0.000000
# 6 0.000000 0.000000 0.000000 0.000000 0.000000 0.049790
#
#
# Mechanical properties :
#
#
# Convention : Reuss Voigt Hill
#
# Bulk Modulus (GPa) = 61.21294 63.34822 62.28058
# Shear Modulus (GPa) = 24.62383 25.70897 25.16640
#
# Velocity S-wave (km/s) = 3.60547 3.68406 3.64498
# Velocity P-wave (km/s) = 7.04615 7.17909 7.11293
#
# Compressibility (1/GPa) = 0.01633641
#
# Stress axis : x y z
#
# Youngs Moduli (GPa) = 92.33451 62.77839 74.07905
#
# Poissons Ratio (x) = 0.31815 0.20171
# Poissons Ratio (y) = 0.46794 0.30893
# Poissons Ratio (z) = 0.25142 0.26180
#
# Static dielectric constant tensor:
#      x y z
#    x 3.556620 0.000000 0.000000 
#    y 0.000000 3.330880 0.000000 
#    z 0.000000 0.000000 3.585590 
# 
# 
# High freq. dielectric constant tensor:
#      x y z
#    x 1.731870 0.000000 0.000000 
#    y 0.000000 1.725500 0.000000 
#    z 0.000000 0.000000 1.742340 
# 
# From -- ./inp_files/30020.got.cif
#   From: 2010.03.12/outbox.cif.g09.slc.cpg/sg42_16_cif.got.tgz:30020.got - 2010.04.14 02:04:31.
