data_PCOD8186327
_publ_section_title
;
Structure prediction by ZEFSAII (Michael W. Deem and Ramdas Pophale) SiO2 
 PCOD8186327
Probable space group: F M M 2
;
_chemical_formula_sum "Si O2"
_cell_formula_units_Z 96
_cell_length_a 8.723573
_cell_length_b 27.816888
_cell_length_c 20.269847
_cell_angle_alpha 90.000000
_cell_angle_beta 90.000000
_cell_angle_gamma 90.000000
_cell_volume 4918.734851
_symmetry_space_group_name_H-M "F M M 2"
_symmetry_group_IT_number 42
_symmetry_cell_setting 'orthorhombic'
loop_
_space_group_symop_operation_xyz
x,y,z
-x,-y,z
-x,y,z
x,-y,z
x,1/2+y,1/2+z
-x,1/2-y,1/2+z
-x,1/2+y,1/2+z
x,1/2-y,1/2+z
1/2+x,y,1/2+z
1/2-x,-y,1/2+z
1/2-x,y,1/2+z
1/2+x,-y,1/2+z
1/2+x,1/2+y,z
1/2-x,1/2-y,z
1/2-x,1/2+y,z
1/2+x,1/2-y,z
loop_
_atom_site_type_symbol
_atom_site_label
_atom_site_fract_x
_atom_site_fract_y
_atom_site_fract_z
Si Si1 0.678448 0.445947 0.502130
Si Si2 0.180711 0.300726 0.914852
Si Si3 0.321077 0.646656 0.035069
Si Si4 0.679383 0.648547 0.791039
Si Si5 0.680497 0.197817 0.669149
Si Si6 0.824604 0.446436 0.363140
O O1 0.500000 0.436369 0.513324
O O2 0.724092 0.500000 0.523496
O O3 0.775705 0.409093 0.547341
O O4 0.715394 0.437942 0.425190
O O5 0.250000 0.250000 0.936279
O O6 0.250189 0.316424 0.845447
O O7 0.000000 0.296804 0.907972
O O8 0.224179 0.338082 0.971562
O O9 0.500000 0.651719 0.019857
O O10 0.272415 0.678839 0.097133
O O11 0.500000 0.658924 0.787254
O O12 0.754735 0.659750 0.721110
O O13 0.715642 0.592762 0.807399
O O14 0.500000 0.201102 0.677425
O O15 0.750000 0.250000 0.681466
O O16 0.799659 0.500000 0.333403
O O17 0.000000 0.439611 0.387172
#
# Coordination Sequence:
#
# PCOD8186327 Si02
#       6
#    16  16  16  16  16  16
#     4  10  20  34  57  90 123 156 195 243 296 349
#     4  12  24  38  59  86 118 151 194 249 299 353
#     4  11  23  40  61  87 118 156 200 245 299 357
#     4  11  22  38  61  88 120 156 198 242 295 355
#     4  11  25  43  62  84 116 157 201 246 300 358
#     4   9  18  34  58  87 119 155 194 239 292 351
#
# _framework density 19.517213000000002
#
# number of rings (size 3 to 8) (size 9 to 14) (size 15 to 20)
#    0.000    1.333    1.667    4.500    0.000    5.667 
#    0.000    0.833    0.000    3.000    0.000    0.000 
#    0.000    0.000    0.000    0.000    0.000    0.000 
#
# Total GULP energy -297700.606023 kJ/mol
# GULP energy per Si atom -12404.191918 kJ/mol
# Density = 1.947279 g / cm^3
# Si number density = 19.517213 Si / 1000 Ang^3
#
#
#
# Elastic Constant Matrix: (Units=GPa)
#
#
# Indices 1 2 3 4 5 6 
#
# 1 79.9602 31.8735 38.3617 0.0000 0.0000 0.0000
# 2 31.8735 118.8738 25.8301 0.0000 0.0000 0.0000
# 3 38.3617 25.8301 65.8769 0.0000 0.0000 0.0000
# 4 0.0000 0.0000 0.0000 33.6082 0.0000 0.0000
# 5 0.0000 0.0000 0.0000 0.0000 31.3247 0.0000
# 6 0.0000 0.0000 0.0000 0.0000 0.0000 32.6201
#
#
#
# Elastic Compliance Matrix: (Units=1/GPa)
#
#
# Indices 1 2 3 4 5 6 
#
# 1 0.018177 -0.002813 -0.009481 0.000000 0.000000 0.000000
# 2 -0.002813 0.009631 -0.002138 0.000000 0.000000 0.000000
# 3 -0.009481 -0.002138 0.021539 0.000000 0.000000 0.000000
# 4 0.000000 0.000000 0.000000 0.029755 0.000000 0.000000
# 5 0.000000 0.000000 0.000000 0.000000 0.031924 0.000000
# 6 0.000000 0.000000 0.000000 0.000000 0.000000 0.030656
#
#
# Mechanical properties :
#
#
# Convention : Reuss Voigt Hill
#
# Bulk Modulus (GPa) = 48.82505 50.76014 49.79259
# Shear Modulus (GPa) = 28.18894 30.75362 29.47128
#
# Velocity S-wave (km/s) = 3.80453 3.97384 3.89011
# Velocity P-wave (km/s) = 6.66108 6.86437 6.76349
#
# Compressibility (1/GPa) = 0.02048129
#
# Stress axis : x y z
#
# Youngs Moduli (GPa) = 55.01605 103.82904 46.42644
#
# Poissons Ratio (x) = 0.29211 0.44019
# Poissons Ratio (y) = 0.15478 0.09926
# Poissons Ratio (z) = 0.52163 0.22199
#
# Static dielectric constant tensor:
#      x y z
#    x 3.622160 0.000000 0.000000 
#    y 0.000000 3.911470 0.000000 
#    z 0.000000 0.000000 3.338650 
# 
# 
# High freq. dielectric constant tensor:
#      x y z
#    x 1.771300 0.000000 0.000000 
#    y 0.000000 1.780950 0.000000 
#    z 0.000000 0.000000 1.734250 
# 
# From -- ./inp_files/23699.got.cif
#   From: 2010.03.12/outbox.cif.g09.slc.cpg/sg42_12_cif.got.tgz:23699.got - 2010.04.14 02:04:31.
