data_PCOD8186929
_publ_section_title
;
Structure prediction by ZEFSAII (Michael W. Deem and Ramdas Pophale) SiO2 
 PCOD8186929
Probable space group: F D D 2
;
_chemical_formula_sum "Si O2"
_cell_formula_units_Z 104
_cell_length_a 30.139007
_cell_length_b 11.800045
_cell_length_c 14.847802
_cell_angle_alpha 90.000000
_cell_angle_beta 90.000000
_cell_angle_gamma 90.000000
_cell_volume 5280.496637
_symmetry_space_group_name_H-M "F D D 2"
_symmetry_group_IT_number 43
_symmetry_cell_setting 'orthorhombic'
loop_
_space_group_symop_operation_xyz
x,y,z
-x,-y,z
1/4-x,1/4+y,1/4+z
1/4+x,1/4-y,1/4+z
x,1/2+y,1/2+z
-x,1/2-y,1/2+z
1/4-x,3/4+y,3/4+z
1/4+x,3/4-y,3/4+z
1/2+x,y,1/2+z
1/2-x,-y,1/2+z
3/4-x,1/4+y,3/4+z
3/4+x,1/4-y,3/4+z
1/2+x,1/2+y,z
1/2-x,1/2-y,z
3/4-x,3/4+y,1/4+z
3/4+x,3/4-y,1/4+z
loop_
_atom_site_type_symbol
_atom_site_label
_atom_site_fract_x
_atom_site_fract_y
_atom_site_fract_z
Si Si1 0.899922 0.460716 0.138110
Si Si2 0.913896 0.647004 0.574271
Si Si3 0.766546 0.072316 0.374521
Si Si4 0.250000 0.750000 0.226805
Si Si5 0.595082 0.980425 0.939860
Si Si6 0.375307 0.920857 0.632618
Si Si7 0.827653 0.951520 0.946367
O O1 0.946242 0.403122 0.170591
O O2 0.859396 0.402541 0.192505
O O3 0.899600 0.593299 0.152344
O O4 0.895067 0.447725 0.030039
O O5 0.961223 0.701715 0.599672
O O6 0.872744 0.720094 0.608567
O O7 0.907835 0.658881 0.467143
O O8 0.910809 0.523794 0.622121
O O9 0.747487 0.136550 0.287163
O O10 0.725905 0.050650 0.442569
O O11 0.206626 0.744251 0.164418
O O12 0.404691 0.806957 0.636863
O O13 0.341936 0.944754 0.550035
#
# Coordination Sequence:
#
# PCOD8186929 Si02
#       7
#    16  16  16   8  16  16  16
#     4  10  19  35  58  93 113 150 198 251 307 355
#     4  10  21  41  57  85 117 160 202 251 296 365
#     4  10  19  35  63  80 120 144 197 255 300 348
#     4  10  18  34  56  96 114 146 186 258 308 356
#     4  10  19  34  62  83 120 147 193 253 301 348
#     4  10  23  38  59  80 121 165 201 235 310 365
#     4  11  20  37  62  84 119 162 193 250 300 373
#
# _framework density 19.695117
#
# number of rings (size 3 to 8) (size 9 to 14) (size 15 to 20)
#    0.000    1.846    3.077    3.692    0.000    0.615 
#    0.000   13.846   13.538    0.000    0.000    0.000 
#    0.000    0.000    0.000    0.000    0.000    0.000 
#
# Total GULP energy -322122.139450 kJ/mol
# GULP energy per Si atom -12389.313056 kJ/mol
# Density = 1.965029 g / cm^3
# Si number density = 19.695117 Si / 1000 Ang^3
#
#
#
# Elastic Constant Matrix: (Units=GPa)
#
#
# Indices 1 2 3 4 5 6 
#
# 1 128.7605 49.5882 37.7246 0.0000 0.0000 0.0000
# 2 49.5882 143.1767 27.6716 0.0000 0.0000 0.0000
# 3 37.7246 27.6716 57.8269 0.0000 0.0000 0.0000
# 4 0.0000 0.0000 0.0000 27.7335 0.0000 0.0000
# 5 0.0000 0.0000 0.0000 0.0000 26.0052 0.0000
# 6 0.0000 0.0000 0.0000 0.0000 0.0000 29.7273
#
#
#
# Elastic Compliance Matrix: (Units=1/GPa)
#
#
# Indices 1 2 3 4 5 6 
#
# 1 0.010363 -0.002515 -0.005557 0.000000 0.000000 0.000000
# 2 -0.002515 0.008307 -0.002334 0.000000 0.000000 0.000000
# 3 -0.005557 -0.002334 0.022035 0.000000 0.000000 0.000000
# 4 0.000000 0.000000 0.000000 0.036057 0.000000 0.000000
# 5 0.000000 0.000000 0.000000 0.000000 0.038454 0.000000
# 6 0.000000 0.000000 0.000000 0.000000 0.000000 0.033639
#
#
# Mechanical properties :
#
#
# Convention : Reuss Voigt Hill
#
# Bulk Modulus (GPa) = 50.27072 62.19255 56.23164
# Shear Modulus (GPa) = 28.36096 31.01184 29.68640
#
# Velocity S-wave (km/s) = 3.79885 3.97242 3.88661
# Velocity P-wave (km/s) = 6.69489 7.25854 6.98240
#
# Compressibility (1/GPa) = 0.01989229
#
# Stress axis : x y z
#
# Youngs Moduli (GPa) = 96.49601 120.38617 45.38199
#
# Poissons Ratio (x) = 0.30279 0.25219
# Poissons Ratio (y) = 0.24271 0.10593
# Poissons Ratio (z) = 0.53623 0.28099
#
# Static dielectric constant tensor:
#      x y z
#    x 3.715500 0.000000 0.000000 
#    y 0.000000 3.987160 0.000000 
#    z 0.000000 0.000000 3.448490 
# 
# 
# High freq. dielectric constant tensor:
#      x y z
#    x 1.760750 0.000000 0.000000 
#    y 0.000000 1.782370 0.000000 
#    z 0.000000 0.000000 1.747690 
# 
# From -- ./inp_files/13431.got.cif
#   From: 2010.06.25/outbox.cif.g09.slc.cpg/sg43_7_cif.got.tgz:13431.got - 2010.06.26 16:48:59.
