data_PCOD8186677
_publ_section_title
;
Structure prediction by ZEFSAII (Michael W. Deem and Ramdas Pophale) SiO2 
 PCOD8186677
Probable space group: F M M 2
;
_chemical_formula_sum "Si O2"
_cell_formula_units_Z 72
_cell_length_a 22.162789
_cell_length_b 17.761949
_cell_length_c 8.555570
_cell_angle_alpha 90.000000
_cell_angle_beta 90.000000
_cell_angle_gamma 90.000000
_cell_volume 3367.937158
_symmetry_space_group_name_H-M "F M M 2"
_symmetry_group_IT_number 42
_symmetry_cell_setting 'orthorhombic'
loop_
_space_group_symop_operation_xyz
x,y,z
-x,-y,z
-x,y,z
x,-y,z
x,1/2+y,1/2+z
-x,1/2-y,1/2+z
-x,1/2+y,1/2+z
x,1/2-y,1/2+z
1/2+x,y,1/2+z
1/2-x,-y,1/2+z
1/2-x,y,1/2+z
1/2+x,-y,1/2+z
1/2+x,1/2+y,z
1/2-x,1/2-y,z
1/2-x,1/2+y,z
1/2+x,1/2-y,z
loop_
_atom_site_type_symbol
_atom_site_label
_atom_site_fract_x
_atom_site_fract_y
_atom_site_fract_z
Si Si1 0.840967 0.500000 0.827940
Si Si2 0.779429 0.000000 0.667604
Si Si3 0.568537 0.860559 0.806928
Si Si4 0.432244 0.218367 0.130637
Si Si5 0.750000 0.250000 0.508444
Si Si6 0.319536 0.842455 0.259192
O O1 0.793874 0.500000 0.682946
O O2 0.883123 0.573017 0.815819
O O3 0.802826 0.500000 0.989125
O O4 0.804422 0.929848 0.764934
O O5 0.500000 0.893371 0.804859
O O6 0.581463 0.808022 0.655275
O O7 0.577835 0.803901 0.951586
O O8 0.500000 0.201102 0.186278
O O9 0.391160 0.167555 0.244114
O O10 0.704788 0.198649 0.411137
O O11 0.709814 0.306347 0.606259
#
# Coordination Sequence:
#
# PCOD8186677 Si02
#       6
#     8   8  16  16   8  16
#     4  12  25  46  60  98 125 176 204 260 316 378
#     4  12  26  40  62  90 136 164 214 252 316 370
#     4  10  22  43  70  94 125 162 212 262 316 373
#     4  10  21  39  66  96 123 161 210 265 308 371
#     4  10  24  36  66  84 124 162 212 250 316 366
#     4  11  22  41  58  93 121 167 203 261 305 374
#
# _framework density 21.378070999999998
#
# number of rings (size 3 to 8) (size 9 to 14) (size 15 to 20)
#    0.000    1.333    2.222    3.000    6.222    0.000 
#    4.000    0.556    0.000    0.000    0.000    9.333 
#    0.000    0.000    0.000    0.000    0.000    0.000 
#
# Total GULP energy -223186.580525 kJ/mol
# GULP energy per Si atom -12399.254474 kJ/mol
# Density = 2.132941 g / cm^3
# Si number density = 21.378071 Si / 1000 Ang^3
#
#
#
# Elastic Constant Matrix: (Units=GPa)
#
#
# Indices 1 2 3 4 5 6 
#
# 1 161.8999 103.2877 55.7708 -0.0001 0.0062 0.0000
# 2 103.2877 209.7141 77.6785 -0.0001 0.0124 0.0000
# 3 55.7708 77.6785 88.8802 0.0003 0.0050 -0.0002
# 4 -0.0001 -0.0001 0.0003 1.8477 -0.0061 -0.0001
# 5 0.0062 0.0124 0.0050 -0.0061 645.4502 -0.0031
# 6 0.0000 0.0000 -0.0002 -0.0001 -0.0031 45.3716
#
#
#
# Elastic Compliance Matrix: (Units=1/GPa)
#
#
# Indices 1 2 3 4 5 6 
#
# 1 0.009441 -0.003631 -0.002751 0.000001 0.000000 0.000000
# 2 -0.003631 0.008447 -0.005104 0.000001 0.000000 0.000000
# 3 -0.002751 -0.005104 0.017438 -0.000003 0.000000 0.000000
# 4 0.000001 0.000001 -0.000003 0.541208 0.000005 0.000001
# 5 0.000000 0.000000 0.000000 0.000005 0.001549 0.000000
# 6 0.000000 0.000000 0.000000 0.000001 0.000000 0.022040
#
#
# Mechanical properties :
#
#
# Convention : Reuss Voigt Hill
#
# Bulk Modulus (GPa) = 80.94283 103.77425 92.35854
# Shear Modulus (GPa) = 7.97178 153.45105 80.71141
#
# Velocity S-wave (km/s) = 1.93314 8.48148 6.15112
# Velocity P-wave (km/s) = 6.55191 12.02338 9.68218
#
# Compressibility (1/GPa) = 0.01235440
#
# Stress axis : x y z
#
# Youngs Moduli (GPa) = 105.92650 118.38084 57.34563
#
# Poissons Ratio (x) = 0.42982 0.15773
# Poissons Ratio (y) = 0.38460 0.29272
# Poissons Ratio (z) = 0.29136 0.60427
#
# Static dielectric constant tensor:
#      x y z
#    x -5.657430 -0.000010 -0.000040 
#    y -0.000010 3.871890 0.000000 
#    z -0.000040 0.000000 3.772500 
# 
# 
# High freq. dielectric constant tensor:
#      x y z
#    x 1.859770 0.000000 0.000000 
#    y 0.000000 1.835280 0.000000 
#    z 0.000000 0.000000 1.831760 
# 
# From -- ./inp_files/3392.got.cif
#   From: 2010.03.12/outbox.cif.g09.slc.cpg/sg42_2_cif.got.tgz:3392.got - 2010.04.14 02:04:31.
