data_PCOD8186098
_publ_section_title
;
Structure prediction by ZEFSAII (Michael W. Deem and Ramdas Pophale) SiO2 
 PCOD8186098
Probable space group: F M M 2
;
_chemical_formula_sum "Si O2"
_cell_formula_units_Z 128
_cell_length_a 18.884038
_cell_length_b 18.963883
_cell_length_c 19.938705
_cell_angle_alpha 90.000000
_cell_angle_beta 90.000000
_cell_angle_gamma 90.000000
_cell_volume 7140.343104
_symmetry_space_group_name_H-M "F M M 2"
_symmetry_group_IT_number 42
_symmetry_cell_setting 'orthorhombic'
loop_
_space_group_symop_operation_xyz
x,y,z
-x,-y,z
-x,y,z
x,-y,z
x,1/2+y,1/2+z
-x,1/2-y,1/2+z
-x,1/2+y,1/2+z
x,1/2-y,1/2+z
1/2+x,y,1/2+z
1/2-x,-y,1/2+z
1/2-x,y,1/2+z
1/2+x,-y,1/2+z
1/2+x,1/2+y,z
1/2-x,1/2-y,z
1/2-x,1/2+y,z
1/2+x,1/2-y,z
loop_
_atom_site_type_symbol
_atom_site_label
_atom_site_fract_x
_atom_site_fract_y
_atom_site_fract_z
Si Si1 0.311476 0.579666 0.091910
Si Si2 0.188524 0.420334 0.191143
Si Si3 0.329094 0.226084 0.814543
Si Si4 0.670906 0.273916 0.468510
Si Si5 0.718330 0.922562 0.815842
Si Si6 0.718330 0.077438 0.967211
Si Si7 0.919018 0.301048 0.203921
Si Si8 0.419018 0.698952 0.079132
O O1 0.331858 0.500000 0.112399
O O2 0.250000 0.607903 0.141527
O O3 0.380824 0.626666 0.099428
O O4 0.285698 0.584202 0.015327
O O5 0.168142 0.500000 0.170654
O O6 0.214302 0.415798 0.267726
O O7 0.119176 0.373334 0.183625
O O8 0.250000 0.250000 0.794120
O O9 0.345024 0.245722 0.891527
O O10 0.336522 0.141299 0.802388
O O11 0.385726 0.265420 0.769347
O O12 0.750000 0.250000 0.488933
O O13 0.663478 0.358701 0.480665
O O14 0.614274 0.234580 0.513706
O O15 0.747993 0.915348 0.891527
O O16 0.681722 0.000000 0.805215
O O17 0.681722 0.000000 0.977838
O O18 0.911035 0.250000 0.141527
O O19 0.000000 0.318641 0.220371
O O20 0.500000 0.681359 0.062682
#
# Coordination Sequence:
#
# PCOD8186098 Si02
#       8
#    16  16  16  16  16  16  16  16
#     4  10  20  34  55  80 104 139 182 220 264 318
#     4  10  20  34  55  80 104 139 182 220 264 318
#     4  10  19  33  56  82 105 139 183 223 264 314
#     4  10  19  33  56  82 105 139 183 223 264 314
#     4   9  17  30  51  80 108 132 172 225 266 306
#     4   9  17  30  51  80 108 132 172 225 266 306
#     4  11  24  37  52  79 111 144 178 219 275 328
#     4  11  24  37  52  79 111 144 178 219 275 328
#
# _framework density 17.926310000000001
#
# number of rings (size 3 to 8) (size 9 to 14) (size 15 to 20)
#    0.000    2.000    2.500    1.500    0.000    1.000 
#    0.000    0.000    0.000    2.250    0.000    8.750 
#    0.000    0.000    0.000    0.000    0.000    0.000 
#
# Total GULP energy -396729.111961 kJ/mol
# GULP energy per Si atom -12397.784749 kJ/mol
# Density = 1.788551 g / cm^3
# Si number density = 17.926310 Si / 1000 Ang^3
#
#
#
# Elastic Constant Matrix: (Units=GPa)
#
#
# Indices 1 2 3 4 5 6 
#
# 1 126.6887 72.6844 58.1332 0.0000 0.0000 0.0000
# 2 72.6844 125.3878 38.4638 0.0000 0.0000 0.0000
# 3 58.1332 38.4638 88.2204 0.0000 0.0000 0.0000
# 4 0.0000 0.0000 0.0000 24.8706 0.0000 0.0000
# 5 0.0000 0.0000 0.0000 0.0000 22.6838 0.0000
# 6 0.0000 0.0000 0.0000 0.0000 0.0000 19.7874
#
#
#
# Elastic Compliance Matrix: (Units=1/GPa)
#
#
# Indices 1 2 3 4 5 6 
#
# 1 0.014760 -0.006433 -0.006922 0.000000 0.000000 0.000000
# 2 -0.006433 0.012010 -0.000997 0.000000 0.000000 0.000000
# 3 -0.006922 -0.000997 0.016331 0.000000 0.000000 0.000000
# 4 0.000000 0.000000 0.000000 0.040208 0.000000 0.000000
# 5 0.000000 0.000000 0.000000 0.000000 0.044084 0.000000
# 6 0.000000 0.000000 0.000000 0.000000 0.000000 0.050537
#
#
# Mechanical properties :
#
#
# Convention : Reuss Voigt Hill
#
# Bulk Modulus (GPa) = 69.45535 75.42886 72.44210
# Shear Modulus (GPa) = 23.64804 24.86939 24.25871
#
# Velocity S-wave (km/s) = 3.63599 3.72871 3.68264
# Velocity P-wave (km/s) = 7.51374 7.79142 7.65384
#
# Compressibility (1/GPa) = 0.01439774
#
# Stress axis : x y z
#
# Youngs Moduli (GPa) = 67.75009 83.26241 61.23284
#
# Poissons Ratio (x) = 0.53562 0.42383
# Poissons Ratio (y) = 0.43583 0.06108
# Poissons Ratio (z) = 0.46894 0.08305
#
# Static dielectric constant tensor:
#      x y z
#    x 2.958800 0.000000 0.000000 
#    y 0.000000 3.750930 0.000000 
#    z 0.000000 0.000000 3.474990 
# 
# 
# High freq. dielectric constant tensor:
#      x y z
#    x 1.638410 0.000000 0.000000 
#    y 0.000000 1.716710 0.000000 
#    z 0.000000 0.000000 1.712720 
# 
# From -- ./inp_files/26218.got.cif
#   From: 2010.03.12/outbox.cif.g09.slc.cpg/sg42_14_cif.got.tgz:26218.got - 2010.04.14 02:04:31.
