data_PCOD8186127
_publ_section_title
;
Structure prediction by ZEFSAII (Michael W. Deem and Ramdas Pophale) SiO2 
 PCOD8186127
Probable space group: F M M 2
;
_chemical_formula_sum "Si O2"
_cell_formula_units_Z 128
_cell_length_a 18.175332
_cell_length_b 17.595957
_cell_length_c 21.674887
_cell_angle_alpha 90.000000
_cell_angle_beta 90.000000
_cell_angle_gamma 90.000000
_cell_volume 6931.896771
_symmetry_space_group_name_H-M "F M M 2"
_symmetry_group_IT_number 42
_symmetry_cell_setting 'orthorhombic'
loop_
_space_group_symop_operation_xyz
x,y,z
-x,-y,z
-x,y,z
x,-y,z
x,1/2+y,1/2+z
-x,1/2-y,1/2+z
-x,1/2+y,1/2+z
x,1/2-y,1/2+z
1/2+x,y,1/2+z
1/2-x,-y,1/2+z
1/2-x,y,1/2+z
1/2+x,-y,1/2+z
1/2+x,1/2+y,z
1/2-x,1/2-y,z
1/2-x,1/2+y,z
1/2+x,1/2-y,z
loop_
_atom_site_type_symbol
_atom_site_label
_atom_site_fract_x
_atom_site_fract_y
_atom_site_fract_z
Si Si1 0.915770 0.815633 0.504870
Si Si2 0.153748 0.585406 0.909212
Si Si3 0.295506 0.410430 0.720256
Si Si4 0.916458 0.666812 0.430000
Si Si5 0.310664 0.309840 0.299524
Si Si6 0.914063 0.681500 0.285220
Si Si7 0.713979 0.172842 0.095383
Si Si8 0.791333 0.084151 0.991025
O O1 0.901253 0.891298 0.464592
O O2 0.894433 0.746971 0.459633
O O3 0.866132 0.812639 0.565957
O O4 0.000000 0.813321 0.526869
O O5 0.132992 0.500000 0.888355
O O6 0.148257 0.642472 0.852126
O O7 0.236629 0.589726 0.933481
O O8 0.284398 0.500000 0.728246
O O9 0.227352 0.367617 0.752210
O O10 0.374020 0.387308 0.749731
O O11 0.295841 0.388907 0.648563
O O12 0.900751 0.669744 0.357615
O O13 0.870842 0.601224 0.463187
O O14 0.000000 0.645861 0.443590
O O15 0.250000 0.250000 0.326050
O O16 0.374934 0.261025 0.265530
O O17 0.000000 0.683268 0.267391
O O18 0.750000 0.250000 0.122246
O O19 0.770211 0.142854 0.044055
O O20 0.791307 0.000000 0.019812
#
# Coordination Sequence:
#
# PCOD8186127 Si02
#       8
#    16  16  16  16  16  16  16  16
#     4  10  21  36  56  83 116 149 187 230 279 341
#     4  10  20  31  52  83 114 149 187 232 286 335
#     4  11  24  40  58  85 118 153 195 243 291 339
#     4  10  19  34  57  85 116 151 184 228 285 343
#     4  10  19  34  57  81 112 149 191 237 285 339
#     4  10  21  37  60  87 116 152 193 237 288 345
#     4  11  21  38  61  82 108 151 197 237 282 335
#     4  10  20  33  52  82 114 147 187 235 284 335
#
# _framework density 18.465364999999998
#
# number of rings (size 3 to 8) (size 9 to 14) (size 15 to 20)
#    0.000    1.750    2.500    3.375    0.000    3.250 
#    0.000    1.250    0.000    1.125    0.000    0.000 
#    0.000    0.000    0.000    0.000    0.000    0.000 
#
# Total GULP energy -396836.679184 kJ/mol
# GULP energy per Si atom -12401.146224 kJ/mol
# Density = 1.842334 g / cm^3
# Si number density = 18.465365 Si / 1000 Ang^3
#
#
#
# Elastic Constant Matrix: (Units=GPa)
#
#
# Indices 1 2 3 4 5 6 
#
# 1 102.4150 37.7278 34.9308 0.0000 0.0000 0.0000
# 2 37.7278 109.6456 27.4361 0.0000 0.0000 0.0000
# 3 34.9308 27.4361 67.3446 0.0000 0.0000 0.0000
# 4 0.0000 0.0000 0.0000 28.3755 0.0000 0.0000
# 5 0.0000 0.0000 0.0000 0.0000 19.5158 0.0000
# 6 0.0000 0.0000 0.0000 0.0000 0.0000 19.0250
#
#
#
# Elastic Compliance Matrix: (Units=1/GPa)
#
#
# Indices 1 2 3 4 5 6 
#
# 1 0.012708 -0.003032 -0.005356 0.000000 0.000000 0.000000
# 2 -0.003032 0.010879 -0.002859 0.000000 0.000000 0.000000
# 3 -0.005356 -0.002859 0.018792 0.000000 0.000000 0.000000
# 4 0.000000 0.000000 0.000000 0.035242 0.000000 0.000000
# 5 0.000000 0.000000 0.000000 0.000000 0.051240 0.000000
# 6 0.000000 0.000000 0.000000 0.000000 0.000000 0.052562
#
#
# Mechanical properties :
#
#
# Convention : Reuss Voigt Hill
#
# Bulk Modulus (GPa) = 50.29263 53.28826 51.79045
# Shear Modulus (GPa) = 23.74761 25.33730 24.54246
#
# Velocity S-wave (km/s) = 3.59006 3.70828 3.64965
# Velocity P-wave (km/s) = 6.66934 6.87432 6.77260
#
# Compressibility (1/GPa) = 0.01988363
#
# Stress axis : x y z
#
# Youngs Moduli (GPa) = 78.68986 91.91860 53.21410
#
# Poissons Ratio (x) = 0.27874 0.28502
# Poissons Ratio (y) = 0.23863 0.15215
# Poissons Ratio (z) = 0.42147 0.26282
#
# Static dielectric constant tensor:
#      x y z
#    x 3.375630 0.000000 0.000000 
#    y 0.000000 3.446530 0.000000 
#    z 0.000000 0.000000 3.197090 
# 
# 
# High freq. dielectric constant tensor:
#      x y z
#    x 1.712130 0.000000 0.000000 
#    y 0.000000 1.721370 0.000000 
#    z 0.000000 0.000000 1.702600 
# 
# From -- ./inp_files/29993.got.cif
#   From: 2010.03.12/outbox.cif.g09.slc.cpg/sg42_15_cif.got.tgz:29993.got - 2010.04.14 02:04:31.
