data_PCOD8186361
_publ_section_title
;
Structure prediction by ZEFSAII (Michael W. Deem and Ramdas Pophale) SiO2 
 PCOD8186361
Probable space group: F M M 2
;
_chemical_formula_sum "Si O2"
_cell_formula_units_Z 96
_cell_length_a 8.777625
_cell_length_b 25.431401
_cell_length_c 23.196507
_cell_angle_alpha 90.000000
_cell_angle_beta 90.000000
_cell_angle_gamma 90.000000
_cell_volume 5178.093655
_symmetry_space_group_name_H-M "F M M 2"
_symmetry_group_IT_number 42
_symmetry_cell_setting 'orthorhombic'
loop_
_space_group_symop_operation_xyz
x,y,z
-x,-y,z
-x,y,z
x,-y,z
x,1/2+y,1/2+z
-x,1/2-y,1/2+z
-x,1/2+y,1/2+z
x,1/2-y,1/2+z
1/2+x,y,1/2+z
1/2-x,-y,1/2+z
1/2-x,y,1/2+z
1/2+x,-y,1/2+z
1/2+x,1/2+y,z
1/2-x,1/2-y,z
1/2-x,1/2+y,z
1/2+x,1/2-y,z
loop_
_atom_site_type_symbol
_atom_site_label
_atom_site_fract_x
_atom_site_fract_y
_atom_site_fract_z
Si Si1 0.679739 0.902530 0.850260
Si Si2 0.177595 0.061146 0.964817
Si Si3 0.821298 0.000000 0.785170
Si Si4 0.175730 0.601709 0.590034
Si Si5 0.819372 0.805594 0.786634
Si Si6 0.177959 0.195418 0.655570
Si Si7 0.324036 0.000000 0.664395
O O1 0.500000 0.902202 0.842131
O O2 0.721566 0.910526 0.916795
O O3 0.748155 0.847911 0.829159
O O4 0.749490 0.948662 0.812509
O O5 0.000000 0.066979 0.949440
O O6 0.222169 0.000000 0.969173
O O7 0.217977 0.089917 0.024199
O O8 0.789733 0.000000 0.717655
O O9 0.000000 0.000000 0.797432
O O10 0.274861 0.649999 0.611907
O O11 0.214806 0.550581 0.626849
O O12 0.000000 0.616994 0.596634
O O13 0.750000 0.750000 0.805255
O O14 0.770986 0.818913 0.720792
O O15 0.000000 0.804582 0.794111
O O16 0.250000 0.250000 0.634906
O O17 0.000000 0.203218 0.652812
O O18 0.500000 0.000000 0.684767
#
# Coordination Sequence:
#
# PCOD8186361 Si02
#       7
#    16  16   8  16  16  16   8
#     4  12  24  38  58  86 116 151 195 242 291 344
#     4  10  20  38  61  83 113 156 197 236 288 346
#     4  12  24  37  54  81 117 154 190 236 291 346
#     4  10  20  36  59  86 116 151 191 233 283 343
#     4  10  21  39  62  88 119 155 193 237 290 347
#     4  10  21  37  59  86 116 152 192 236 288 341
#     4  10  20  35  56  85 117 148 184 230 285 346
#
# _framework density 18.539642000000001
#
# number of rings (size 3 to 8) (size 9 to 14) (size 15 to 20)
#    0.000    1.500    1.667    4.250    0.000    6.000 
#    0.000    0.833    0.000    4.000    0.000    0.000 
#    0.000    0.000    0.000    0.000    0.000    0.000 
#
# Total GULP energy -297721.393267 kJ/mol
# GULP energy per Si atom -12405.058053 kJ/mol
# Density = 1.849744 g / cm^3
# Si number density = 18.539642 Si / 1000 Ang^3
#
#
#
# Elastic Constant Matrix: (Units=GPa)
#
#
# Indices 1 2 3 4 5 6 
#
# 1 98.0945 59.0345 44.2110 0.0000 0.0000 0.0000
# 2 59.0345 137.4455 51.3213 0.0000 0.0000 0.0000
# 3 44.2110 51.3213 88.1768 0.0000 0.0000 0.0000
# 4 0.0000 0.0000 0.0000 54.1036 0.0000 0.0000
# 5 0.0000 0.0000 0.0000 0.0000 32.2489 0.0000
# 6 0.0000 0.0000 0.0000 0.0000 0.0000 39.2702
#
#
#
# Elastic Compliance Matrix: (Units=1/GPa)
#
#
# Indices 1 2 3 4 5 6 
#
# 1 0.015240 -0.004718 -0.004895 0.000000 0.000000 0.000000
# 2 -0.004718 0.010756 -0.003895 0.000000 0.000000 0.000000
# 3 -0.004895 -0.003895 0.016062 0.000000 0.000000 0.000000
# 4 0.000000 0.000000 0.000000 0.018483 0.000000 0.000000
# 5 0.000000 0.000000 0.000000 0.000000 0.031009 0.000000
# 6 0.000000 0.000000 0.000000 0.000000 0.000000 0.025465
#
#
# Mechanical properties :
#
#
# Convention : Reuss Voigt Hill
#
# Bulk Modulus (GPa) = 66.47906 70.31672 68.39789
# Shear Modulus (GPa) = 33.54695 36.40122 34.97408
#
# Velocity S-wave (km/s) = 4.25840 4.43586 4.34804
# Velocity P-wave (km/s) = 7.75334 8.01536 7.88544
#
# Compressibility (1/GPa) = 0.01504233
#
# Stress axis : x y z
#
# Youngs Moduli (GPa) = 65.61798 92.96835 62.25781
#
# Poissons Ratio (x) = 0.43861 0.30476
# Poissons Ratio (y) = 0.30957 0.24250
# Poissons Ratio (z) = 0.32121 0.36211
#
# Static dielectric constant tensor:
#      x y z
#    x 3.430520 0.000000 0.000000 
#    y 0.000000 3.279130 0.000000 
#    z 0.000000 0.000000 3.477460 
# 
# 
# High freq. dielectric constant tensor:
#      x y z
#    x 1.724540 0.000000 0.000000 
#    y 0.000000 1.725550 0.000000 
#    z 0.000000 0.000000 1.720770 
# 
# From -- ./inp_files/28083.got.cif
#   From: 2010.03.12/outbox.cif.g09.slc.cpg/sg42_15_cif.got.tgz:28083.got - 2010.04.14 02:04:31.
