data_PCOD8186356
_publ_section_title
;
Structure prediction by ZEFSAII (Michael W. Deem and Ramdas Pophale) SiO2 
 PCOD8186356
Probable space group: F M M 2
;
_chemical_formula_sum "Si O2"
_cell_formula_units_Z 96
_cell_length_a 8.682802
_cell_length_b 18.879089
_cell_length_c 30.575427
_cell_angle_alpha 90.000000
_cell_angle_beta 90.000000
_cell_angle_gamma 90.000000
_cell_volume 5012.027697
_symmetry_space_group_name_H-M "F M M 2"
_symmetry_group_IT_number 42
_symmetry_cell_setting 'orthorhombic'
loop_
_space_group_symop_operation_xyz
x,y,z
-x,-y,z
-x,y,z
x,-y,z
x,1/2+y,1/2+z
-x,1/2-y,1/2+z
-x,1/2+y,1/2+z
x,1/2-y,1/2+z
1/2+x,y,1/2+z
1/2-x,-y,1/2+z
1/2-x,y,1/2+z
1/2+x,-y,1/2+z
1/2+x,1/2+y,z
1/2-x,1/2-y,z
1/2-x,1/2+y,z
1/2+x,1/2-y,z
loop_
_atom_site_type_symbol
_atom_site_label
_atom_site_fract_x
_atom_site_fract_y
_atom_site_fract_z
Si Si1 0.681622 0.824142 0.055790
Si Si2 0.821041 0.416885 0.228784
Si Si3 0.182067 0.673957 0.956834
Si Si4 0.180855 0.671809 0.804224
Si Si5 0.182124 0.418304 0.382795
Si Si6 0.182201 0.922538 0.631144
O O1 0.500000 0.820316 0.059651
O O2 0.750000 0.750000 0.069305
O O3 0.753185 0.877249 0.091563
O O4 0.729950 0.845109 0.006564
O O5 0.784289 0.500000 0.235561
O O6 0.715801 0.369008 0.259449
O O7 0.779649 0.392450 0.179382
O O8 0.000000 0.402693 0.239540
O O9 0.250000 0.750000 0.942718
O O10 0.252285 0.611484 0.928080
O O11 0.000000 0.677320 0.950444
O O12 0.250000 0.750000 0.803214
O O13 0.251295 0.627016 0.843427
O O14 0.000000 0.678190 0.811247
O O15 0.233464 0.500000 0.377762
O O16 0.000000 0.411162 0.382770
O O17 0.000000 0.927578 0.626114
O O18 0.256154 0.000000 0.626601
#
# Coordination Sequence:
#
# PCOD8186356 Si02
#       6
#    16  16  16  16  16  16
#     4   9  18  32  52  78 108 143 181 222 266 313
#     4   9  18  35  58  82 111 146 182 222 270 322
#     4  10  20  35  56  81 111 146 184 226 270 318
#     4  12  25  40  59  82 110 142 179 223 269 321
#     4  11  24  41  60  82 110 142 176 218 270 326
#     4   8  15  30  53  79 107 142 182 221 263 313
#
# _framework density 19.153925000000001
#
# number of rings (size 3 to 8) (size 9 to 14) (size 15 to 20)
#    0.000    2.167    0.000    4.500    0.000    5.667 
#    0.000    4.167    0.000    1.500    0.000    0.000 
#    0.000    0.000    0.000    0.000    0.000    0.000 
#
# Total GULP energy -297573.541898 kJ/mol
# GULP energy per Si atom -12398.897579 kJ/mol
# Density = 1.911033 g / cm^3
# Si number density = 19.153925 Si / 1000 Ang^3
#
#
#
# Elastic Constant Matrix: (Units=GPa)
#
#
# Indices 1 2 3 4 5 6 
#
# 1 54.1230 37.9887 27.9342 0.0000 0.0000 0.0000
# 2 37.9887 123.6046 81.0151 0.0000 0.0000 0.0000
# 3 27.9342 81.0151 136.5697 0.0000 0.0000 0.0000
# 4 0.0000 0.0000 0.0000 41.9687 0.0000 0.0000
# 5 0.0000 0.0000 0.0000 0.0000 25.4236 0.0000
# 6 0.0000 0.0000 0.0000 0.0000 0.0000 28.5378
#
#
#
# Elastic Compliance Matrix: (Units=1/GPa)
#
#
# Indices 1 2 3 4 5 6 
#
# 1 0.023620 -0.006696 -0.000859 0.000000 0.000000 0.000000
# 2 -0.006696 0.015136 -0.007609 0.000000 0.000000 0.000000
# 3 -0.000859 -0.007609 0.012012 0.000000 0.000000 0.000000
# 4 0.000000 0.000000 0.000000 0.023827 0.000000 0.000000
# 5 0.000000 0.000000 0.000000 0.000000 0.039333 0.000000
# 6 0.000000 0.000000 0.000000 0.000000 0.000000 0.035041
#
#
# Mechanical properties :
#
#
# Convention : Reuss Voigt Hill
#
# Bulk Modulus (GPa) = 48.92674 67.57482 58.25078
# Shear Modulus (GPa) = 26.86576 30.34332 28.60454
#
# Velocity S-wave (km/s) = 3.74923 3.98450 3.86865
# Velocity P-wave (km/s) = 6.65896 7.51830 7.10164
#
# Compressibility (1/GPa) = 0.02043872
#
# Stress axis : x y z
#
# Youngs Moduli (GPa) = 42.33715 66.06943 83.25245
#
# Poissons Ratio (x) = 0.44243 0.07150
# Poissons Ratio (y) = 0.28351 0.63346
# Poissons Ratio (z) = 0.03636 0.50272
#
# Static dielectric constant tensor:
#      x y z
#    x 3.352630 0.000000 0.000000 
#    y 0.000000 3.743210 0.000000 
#    z 0.000000 0.000000 3.818220 
# 
# 
# High freq. dielectric constant tensor:
#      x y z
#    x 1.730690 0.000000 0.000000 
#    y 0.000000 1.745990 0.000000 
#    z 0.000000 0.000000 1.762270 
# 
# From -- ./inp_files/31461.got.cif
#   From: 2010.03.12/outbox.cif.g09.slc.cpg/sg42_16_cif.got.tgz:31461.got - 2010.04.14 02:04:31.
