data_PCOD8186718
_publ_section_title
;
Structure prediction by ZEFSAII (Michael W. Deem and Ramdas Pophale) SiO2 
 PCOD8186718
Probable space group: F M M 2
;
_chemical_formula_sum "Si O2"
_cell_formula_units_Z 80
_cell_length_a 10.603812
_cell_length_b 19.442044
_cell_length_c 17.961881
_cell_angle_alpha 90.000000
_cell_angle_beta 90.000000
_cell_angle_gamma 90.000000
_cell_volume 3703.017426
_symmetry_space_group_name_H-M "F M M 2"
_symmetry_group_IT_number 42
_symmetry_cell_setting 'orthorhombic'
loop_
_space_group_symop_operation_xyz
x,y,z
-x,-y,z
-x,y,z
x,-y,z
x,1/2+y,1/2+z
-x,1/2-y,1/2+z
-x,1/2+y,1/2+z
x,1/2-y,1/2+z
1/2+x,y,1/2+z
1/2-x,-y,1/2+z
1/2-x,y,1/2+z
1/2+x,-y,1/2+z
1/2+x,1/2+y,z
1/2-x,1/2-y,z
1/2-x,1/2+y,z
1/2+x,1/2-y,z
loop_
_atom_site_type_symbol
_atom_site_label
_atom_site_fract_x
_atom_site_fract_y
_atom_site_fract_z
Si Si1 0.243891 0.921312 0.934730
Si Si2 0.238713 0.078655 0.760496
Si Si3 0.359901 0.200488 0.003998
Si Si4 0.860097 0.799548 0.676360
Si Si5 0.500000 0.918960 0.691175
Si Si6 0.500000 0.081441 0.524463
O O1 0.217429 0.913810 0.847843
O O2 0.278905 0.000000 0.954551
O O3 0.357291 0.871805 0.959656
O O4 0.122776 0.893844 0.980131
O O5 0.140402 0.127695 0.718983
O O6 0.378195 0.104340 0.737453
O O7 0.214973 0.000000 0.735135
O O8 0.500000 0.232811 0.992196
O O9 0.250000 0.250000 0.972106
O O10 0.334287 0.184910 0.090243
O O11 0.750000 0.750000 0.708238
O O12 0.000000 0.766614 0.688119
O O13 0.500000 0.885879 0.607820
O O14 0.500000 0.000000 0.681826
O O15 0.500000 0.000000 0.527982
#
# Coordination Sequence:
#
# PCOD8186718 Si02
#       6
#    16  16  16  16   8   8
#     4  10  22  38  61  93 128 161 202 259 319 375
#     4  10  22  38  61  93 128 161 202 259 319 375
#     4  10  23  42  64  90 122 164 210 259 315 376
#     4  10  23  42  64  90 122 164 210 259 315 376
#     4   9  18  34  58  87 119 163 210 249 303 375
#     4   9  18  34  58  87 119 163 210 249 303 375
#
# _framework density 21.604004
#
# number of rings (size 3 to 8) (size 9 to 14) (size 15 to 20)
#    0.000    2.200    0.000    1.200    5.600    4.000 
#    0.000    4.000    0.000    0.000    0.000    0.000 
#    0.000    0.000    0.000    0.000    0.000    0.000 
#
# Total GULP energy -248000.457634 kJ/mol
# GULP energy per Si atom -12400.022882 kJ/mol
# Density = 2.155483 g / cm^3
# Si number density = 21.604004 Si / 1000 Ang^3
#
#
#
# Elastic Constant Matrix: (Units=GPa)
#
#
# Indices 1 2 3 4 5 6 
#
# 1 122.9294 51.0994 23.6866 0.0000 0.0000 0.0000
# 2 51.0994 94.6250 30.0085 0.0000 0.0000 0.0000
# 3 23.6866 30.0085 56.5595 0.0000 0.0000 0.0000
# 4 0.0000 0.0000 0.0000 26.9533 0.0000 0.0000
# 5 0.0000 0.0000 0.0000 0.0000 31.2111 0.0000
# 6 0.0000 0.0000 0.0000 0.0000 0.0000 34.7788
#
#
#
# Elastic Compliance Matrix: (Units=1/GPa)
#
#
# Indices 1 2 3 4 5 6 
#
# 1 0.010622 -0.005200 -0.001689 0.000000 0.000000 0.000000
# 2 -0.005200 0.015252 -0.005914 0.000000 0.000000 0.000000
# 3 -0.001689 -0.005914 0.021526 0.000000 0.000000 0.000000
# 4 0.000000 0.000000 0.000000 0.037101 0.000000 0.000000
# 5 0.000000 0.000000 0.000000 0.000000 0.032040 0.000000
# 6 0.000000 0.000000 0.000000 0.000000 0.000000 0.028753
#
#
# Mechanical properties :
#
#
# Convention : Reuss Voigt Hill
#
# Bulk Modulus (GPa) = 45.88850 53.74477 49.81664
# Shear Modulus (GPa) = 28.06379 29.87661 28.97020
#
# Velocity S-wave (km/s) = 3.60809 3.72280 3.66589
# Velocity P-wave (km/s) = 6.21648 6.58864 6.40526
#
# Compressibility (1/GPa) = 0.02179195
#
# Stress axis : x y z
#
# Youngs Moduli (GPa) = 94.14491 65.56559 46.45583
#
# Poissons Ratio (x) = 0.34096 0.07848
# Poissons Ratio (y) = 0.48959 0.27475
# Poissons Ratio (z) = 0.15903 0.38777
#
# Static dielectric constant tensor:
#      x y z
#    x 3.977150 0.000000 0.000000 
#    y 0.000000 3.824480 0.000000 
#    z 0.000000 0.000000 3.774100 
# 
# 
# High freq. dielectric constant tensor:
#      x y z
#    x 1.849590 0.000000 0.000000 
#    y 0.000000 1.842280 0.000000 
#    z 0.000000 0.000000 1.839030 
# 
# From -- ./inp_files/18951.got.cif
#   From: 2010.03.12/outbox.cif.g09.slc.cpg/sg42_10_cif.got.tgz:18951.got - 2010.04.14 02:04:31.
