data_PCOD8186444
_publ_section_title
;
Structure prediction by ZEFSAII (Michael W. Deem and Ramdas Pophale) SiO2 
 PCOD8186444
Probable space group: F M M 2
;
_chemical_formula_sum "Si O2"
_cell_formula_units_Z 112
_cell_length_a 14.872481
_cell_length_b 15.092602
_cell_length_c 22.126418
_cell_angle_alpha 90.000000
_cell_angle_beta 90.000000
_cell_angle_gamma 90.000000
_cell_volume 4966.593948
_symmetry_space_group_name_H-M "F M M 2"
_symmetry_group_IT_number 42
_symmetry_cell_setting 'orthorhombic'
loop_
_space_group_symop_operation_xyz
x,y,z
-x,-y,z
-x,y,z
x,-y,z
x,1/2+y,1/2+z
-x,1/2-y,1/2+z
-x,1/2+y,1/2+z
x,1/2-y,1/2+z
1/2+x,y,1/2+z
1/2-x,-y,1/2+z
1/2-x,y,1/2+z
1/2+x,-y,1/2+z
1/2+x,1/2+y,z
1/2-x,1/2-y,z
1/2-x,1/2+y,z
1/2+x,1/2-y,z
loop_
_atom_site_type_symbol
_atom_site_label
_atom_site_fract_x
_atom_site_fract_y
_atom_site_fract_z
Si Si1 0.266665 0.597656 0.171380
Si Si2 0.100541 0.835435 0.606727
Si Si3 0.899938 0.102598 0.274104
Si Si4 0.153339 0.227008 0.379151
Si Si5 0.102085 0.135294 0.068165
Si Si6 0.895974 0.900806 0.478939
Si Si7 0.102889 0.595787 0.436374
O O1 0.232427 0.500000 0.188883
O O2 0.176920 0.655347 0.158481
O O3 0.325431 0.637482 0.226610
O O4 0.332483 0.587279 0.114583
O O5 0.103665 0.738766 0.579765
O O6 0.124791 0.899103 0.550540
O O7 0.000000 0.856705 0.632658
O O8 0.900264 0.166608 0.332020
O O9 0.000000 0.110208 0.245215
O O10 0.881521 0.000000 0.292737
O O11 0.250000 0.250000 0.352615
O O12 0.162433 0.170192 0.441185
O O13 0.110582 0.323861 0.389138
O O14 0.000000 0.098810 0.074999
O O15 0.145149 0.118399 0.001888
O O16 0.000000 0.874741 0.468031
O O17 0.875504 0.000000 0.455581
O O18 0.142477 0.500000 0.412610
O O19 0.000000 0.581914 0.449995
#
# Coordination Sequence:
#
# PCOD8186444 Si02
#       7
#    16  16  16  16  16  16  16
#     4  11  23  38  63  96 133 167 213 273 327 392
#     4  10  21  37  60  93 136 177 215 263 323 393
#     4  10  23  46  72  95 124 171 230 285 333 385
#     4  12  25  38  62  94 130 171 212 275 329 392
#     4  10  20  36  59  88 129 175 218 265 320 383
#     4  10  20  37  62  91 126 171 220 268 321 383
#     4  10  21  38  60  89 129 171 211 261 326 396
#
# _framework density 22.550666
#
# number of rings (size 3 to 8) (size 9 to 14) (size 15 to 20)
#    0.000    1.571    1.429    3.429    2.000    5.714 
#    0.000    0.000    0.000    1.714    0.000    0.000 
#    0.000    0.000    0.000    0.000    0.000    0.000 
#
# Total GULP energy -347032.605537 kJ/mol
# GULP energy per Si atom -12394.021626 kJ/mol
# Density = 2.249934 g / cm^3
# Si number density = 22.550666 Si / 1000 Ang^3
#
#
#
# Elastic Constant Matrix: (Units=GPa)
#
#
# Indices 1 2 3 4 5 6 
#
# 1 107.5759 36.2436 44.5522 0.0000 0.0000 0.0000
# 2 36.2436 140.2285 47.1598 0.0000 0.0000 0.0000
# 3 44.5522 47.1598 95.8932 0.0000 0.0000 0.0000
# 4 0.0000 0.0000 0.0000 30.0386 0.0000 0.0000
# 5 0.0000 0.0000 0.0000 0.0000 32.0314 0.0000
# 6 0.0000 0.0000 0.0000 0.0000 0.0000 7.9083
#
#
#
# Elastic Compliance Matrix: (Units=1/GPa)
#
#
# Indices 1 2 3 4 5 6 
#
# 1 0.011748 -0.001439 -0.004751 0.000000 0.000000 0.000000
# 2 -0.001439 0.008721 -0.003620 0.000000 0.000000 0.000000
# 3 -0.004751 -0.003620 0.014416 0.000000 0.000000 0.000000
# 4 0.000000 0.000000 0.000000 0.033291 0.000000 0.000000
# 5 0.000000 0.000000 0.000000 0.000000 0.031219 0.000000
# 6 0.000000 0.000000 0.000000 0.000000 0.000000 0.126450
#
#
# Mechanical properties :
#
#
# Convention : Reuss Voigt Hill
#
# Bulk Modulus (GPa) = 65.50861 66.62321 66.06591
# Shear Modulus (GPa) = 19.95595 28.37844 24.16719
#
# Velocity S-wave (km/s) = 2.97802 3.55128 3.27721
# Velocity P-wave (km/s) = 6.39823 6.81347 6.60912
#
# Compressibility (1/GPa) = 0.01526517
#
# Stress axis : x y z
#
# Youngs Moduli (GPa) = 85.12158 114.67090 69.36825
#
# Poissons Ratio (x) = 0.16498 0.32954
# Poissons Ratio (y) = 0.12247 0.25113
# Poissons Ratio (z) = 0.40437 0.41514
#
# Static dielectric constant tensor:
#      x y z
#    x 4.135380 0.000000 0.000000 
#    y 0.000000 4.452900 0.000000 
#    z 0.000000 0.000000 3.723510 
# 
# 
# High freq. dielectric constant tensor:
#      x y z
#    x 1.886220 0.000000 0.000000 
#    y 0.000000 1.902460 0.000000 
#    z 0.000000 0.000000 1.852090 
# 
# From -- ./inp_files/29465.got.cif
#   From: 2010.03.12/outbox.cif.g09.slc.cpg/sg42_15_cif.got.tgz:29465.got - 2010.04.14 02:04:31.
