data_PCOD8186964
_publ_section_title
;
Structure prediction by ZEFSAII (Michael W. Deem and Ramdas Pophale) SiO2 
 PCOD8186964
Probable space group: F D D 2
;
_chemical_formula_sum "Si O2"
_cell_formula_units_Z 104
_cell_length_a 14.186746
_cell_length_b 17.426322
_cell_length_c 19.740148
_cell_angle_alpha 90.000000
_cell_angle_beta 90.000000
_cell_angle_gamma 90.000000
_cell_volume 4880.214739
_symmetry_space_group_name_H-M "F D D 2"
_symmetry_group_IT_number 43
_symmetry_cell_setting 'orthorhombic'
loop_
_space_group_symop_operation_xyz
x,y,z
-x,-y,z
1/4-x,1/4+y,1/4+z
1/4+x,1/4-y,1/4+z
x,1/2+y,1/2+z
-x,1/2-y,1/2+z
1/4-x,3/4+y,3/4+z
1/4+x,3/4-y,3/4+z
1/2+x,y,1/2+z
1/2-x,-y,1/2+z
3/4-x,1/4+y,3/4+z
3/4+x,1/4-y,3/4+z
1/2+x,1/2+y,z
1/2-x,1/2-y,z
3/4-x,3/4+y,1/4+z
3/4+x,3/4-y,1/4+z
loop_
_atom_site_type_symbol
_atom_site_label
_atom_site_fract_x
_atom_site_fract_y
_atom_site_fract_z
Si Si1 0.101210 0.027777 0.524900
Si Si2 0.729202 0.040632 0.903135
Si Si3 0.189505 0.172858 0.189464
Si Si4 0.557557 0.202316 0.016096
Si Si5 0.482200 0.767203 0.386919
Si Si6 0.500000 0.000000 0.781293
Si Si7 0.645696 0.391747 0.079070
O O1 0.183541 0.004672 0.471197
O O2 0.082303 0.116523 0.532604
O O3 0.132393 0.990624 0.597464
O O4 0.000000 0.000000 0.499845
O O5 0.837936 0.059734 0.909055
O O6 0.670178 0.119381 0.892467
O O7 0.718500 0.986399 0.838756
O O8 0.250000 0.250000 0.187045
O O9 0.242951 0.106708 0.146741
O O10 0.174824 0.142486 0.265251
O O11 0.478693 0.220953 0.959096
O O12 0.654981 0.240219 0.987508
O O13 0.559918 0.725357 0.339669
O O14 0.480222 0.921948 0.824927
#
# Coordination Sequence:
#
# PCOD8186964 Si02
#       7
#    16  16  16  16  16   8  16
#     4  12  28  45  73 110 150 194 239 302 374 447
#     4  11  25  45  71 107 140 189 237 306 364 425
#     4  12  28  47  67 102 149 190 240 298 365 453
#     4  11  24  41  73 102 146 179 239 303 364 428
#     4  12  25  45  72 107 143 189 243 297 376 435
#     4  10  18  42  66 112 134 166 234 308 360 410
#     4  11  23  41  75 107 138 176 240 310 365 422
#
# _framework density 21.310537
#
# number of rings (size 3 to 8) (size 9 to 14) (size 15 to 20)
#    0.000    0.615    7.692    0.000   10.769    0.000 
#    0.000    0.769    0.000    0.000    0.000    0.000 
#    0.000    0.000    0.000    0.000    0.000    0.000 
#
# Total GULP energy -322152.645258 kJ/mol
# GULP energy per Si atom -12390.486356 kJ/mol
# Density = 2.126203 g / cm^3
# Si number density = 21.310537 Si / 1000 Ang^3
#
#
#
# Elastic Constant Matrix: (Units=GPa)
#
#
# Indices 1 2 3 4 5 6 
#
# 1 91.3854 44.4937 32.6559 0.0000 0.0000 0.0000
# 2 44.4937 127.3940 43.9436 0.0000 0.0000 0.0000
# 3 32.6559 43.9436 117.8226 0.0000 0.0000 0.0000
# 4 0.0000 0.0000 0.0000 42.7332 0.0000 0.0000
# 5 0.0000 0.0000 0.0000 0.0000 35.9753 0.0000
# 6 0.0000 0.0000 0.0000 0.0000 0.0000 29.0997
#
#
#
# Elastic Compliance Matrix: (Units=1/GPa)
#
#
# Indices 1 2 3 4 5 6 
#
# 1 0.013712 -0.003992 -0.002312 0.000000 0.000000 0.000000
# 2 -0.003992 0.010171 -0.002687 0.000000 0.000000 0.000000
# 3 -0.002312 -0.002687 0.010130 0.000000 0.000000 0.000000
# 4 0.000000 0.000000 0.000000 0.023401 0.000000 0.000000
# 5 0.000000 0.000000 0.000000 0.000000 0.027797 0.000000
# 6 0.000000 0.000000 0.000000 0.000000 0.000000 0.034365
#
#
# Mechanical properties :
#
#
# Convention : Reuss Voigt Hill
#
# Bulk Modulus (GPa) = 62.37413 64.30982 63.34198
# Shear Modulus (GPa) = 34.98938 35.92888 35.45913
#
# Velocity S-wave (km/s) = 4.05641 4.11051 4.08355
# Velocity P-wave (km/s) = 7.16044 7.26439 7.21260
#
# Compressibility (1/GPa) = 0.01603229
#
# Stress axis : x y z
#
# Youngs Moduli (GPa) = 72.92754 98.32203 98.71480
#
# Poissons Ratio (x) = 0.39248 0.22820
# Poissons Ratio (y) = 0.29111 0.26524
# Poissons Ratio (z) = 0.16859 0.26419
#
# Static dielectric constant tensor:
#      x y z
#    x 3.769140 0.000000 0.000000 
#    y 0.000000 3.694740 0.000000 
#    z 0.000000 0.000000 3.971950 
# 
# 
# High freq. dielectric constant tensor:
#      x y z
#    x 1.824880 0.000000 0.000000 
#    y 0.000000 1.842030 0.000000 
#    z 0.000000 0.000000 1.837160 
# 
# From -- ./inp_files/17629.got.cif
#   From: 2010.06.25/outbox.cif.g09.slc.cpg/sg43_9_cif.got.tgz:17629.got - 2010.06.26 16:48:59.
