data_PCOD8186484
_publ_section_title
;
Structure prediction by ZEFSAII (Michael W. Deem and Ramdas Pophale) SiO2 
 PCOD8186484
Probable space group: F M M 2
;
_chemical_formula_sum "Si O2"
_cell_formula_units_Z 88
_cell_length_a 26.428911
_cell_length_b 10.797111
_cell_length_c 13.969370
_cell_angle_alpha 90.000000
_cell_angle_beta 90.000000
_cell_angle_gamma 90.000000
_cell_volume 3986.241949
_symmetry_space_group_name_H-M "F M M 2"
_symmetry_group_IT_number 42
_symmetry_cell_setting 'orthorhombic'
loop_
_space_group_symop_operation_xyz
x,y,z
-x,-y,z
-x,y,z
x,-y,z
x,1/2+y,1/2+z
-x,1/2-y,1/2+z
-x,1/2+y,1/2+z
x,1/2-y,1/2+z
1/2+x,y,1/2+z
1/2-x,-y,1/2+z
1/2-x,y,1/2+z
1/2+x,-y,1/2+z
1/2+x,1/2+y,z
1/2-x,1/2-y,z
1/2-x,1/2+y,z
1/2+x,1/2-y,z
loop_
_atom_site_type_symbol
_atom_site_label
_atom_site_fract_x
_atom_site_fract_y
_atom_site_fract_z
Si Si1 0.369508 0.635377 0.928090
Si Si2 0.557311 0.500000 0.550602
Si Si3 0.211865 0.361409 0.593263
Si Si4 0.867147 0.500000 0.877691
Si Si5 0.059959 0.000000 0.197997
Si Si6 0.557418 0.730467 0.069072
Si Si7 0.691588 0.716097 0.299313
O O1 0.393633 0.500000 0.917377
O O2 0.345171 0.668809 0.824855
O O3 0.325742 0.636269 0.006347
O O4 0.413556 0.725801 0.966637
O O5 0.500000 0.500000 0.505884
O O6 0.601981 0.500000 0.474561
O O7 0.563440 0.371360 0.611320
O O8 0.236972 0.500000 0.604236
O O9 0.250000 0.250000 0.572879
O O10 0.182424 0.329974 0.691637
O O11 0.908614 0.500000 0.794348
O O12 0.828173 0.385684 0.874508
O O13 0.077113 0.124099 0.140973
O O14 0.000000 0.000000 0.220210
O O15 0.500000 0.699976 0.044530
O O16 0.750000 0.750000 0.317696
#
# Coordination Sequence:
#
# PCOD8186484 Si02
#       7
#    16   8  16   8   8  16  16
#     4  11  22  39  64  89 121 163 211 255 312 376
#     4  10  21  38  62  93 128 157 197 257 319 377
#     4  10  22  42  62  88 121 162 207 264 312 372
#     4  12  21  40  63  88 119 165 213 257 311 377
#     4  10  21  38  69  97 121 162 211 258 310 382
#     4  10  20  37  61  93 124 156 198 251 310 374
#     4  11  24  38  61  87 123 161 211 264 315 364
#
# _framework density 22.07593
#
# number of rings (size 3 to 8) (size 9 to 14) (size 15 to 20)
#    0.000    1.455    3.636    1.909    1.273    0.727 
#    3.273    0.000    6.000    0.000    0.000    6.364 
#    0.000    0.000    0.000    0.000    0.000    0.000 
#
# Total GULP energy -272564.751934 kJ/mol
# GULP energy per Si atom -12389.306906 kJ/mol
# Density = 2.202568 g / cm^3
# Si number density = 22.075930 Si / 1000 Ang^3
#
#
#
# Elastic Constant Matrix: (Units=GPa)
#
#
# Indices 1 2 3 4 5 6 
#
# 1 55.6898 29.4287 7.7053 0.0000 0.0000 0.0000
# 2 29.4287 173.7328 27.2071 0.0000 0.0000 0.0000
# 3 7.7053 27.2071 44.6039 0.0000 0.0000 0.0000
# 4 0.0000 0.0000 0.0000 21.4004 0.0000 0.0000
# 5 0.0000 0.0000 0.0000 0.0000 17.4714 0.0000
# 6 0.0000 0.0000 0.0000 0.0000 0.0000 36.4002
#
#
#
# Elastic Compliance Matrix: (Units=1/GPa)
#
#
# Indices 1 2 3 4 5 6 
#
# 1 0.019815 -0.003118 -0.001521 0.000000 0.000000 0.000000
# 2 -0.003118 0.006855 -0.003642 0.000000 0.000000 0.000000
# 3 -0.001521 -0.003642 0.024904 0.000000 0.000000 0.000000
# 4 0.000000 0.000000 0.000000 0.046728 0.000000 0.000000
# 5 0.000000 0.000000 0.000000 0.000000 0.057237 0.000000
# 6 0.000000 0.000000 0.000000 0.000000 0.000000 0.027472
#
#
# Mechanical properties :
#
#
# Convention : Reuss Voigt Hill
#
# Bulk Modulus (GPa) = 28.56306 44.74542 36.65424
# Shear Modulus (GPa) = 23.66933 29.03343 26.35138
#
# Velocity S-wave (km/s) = 3.27797 3.63045 3.45870
# Velocity P-wave (km/s) = 5.22431 6.15520 5.70876
#
# Compressibility (1/GPa) = 0.03501025
#
# Stress axis : x y z
#
# Youngs Moduli (GPa) = 50.46720 145.88777 40.15404
#
# Poissons Ratio (x) = 0.45492 0.06107
# Poissons Ratio (y) = 0.15737 0.14626
# Poissons Ratio (z) = 0.07676 0.53139
#
# Static dielectric constant tensor:
#      x y z
#    x 4.048800 0.000000 0.000000 
#    y 0.000000 4.739500 0.000000 
#    z 0.000000 0.000000 3.723630 
# 
# 
# High freq. dielectric constant tensor:
#      x y z
#    x 1.871400 0.000000 0.000000 
#    y 0.000000 1.895100 0.000000 
#    z 0.000000 0.000000 1.833180 
# 
# From -- ./inp_files/16984.got.cif
#   From: 2010.03.12/outbox.cif.g09.slc.cpg/sg42_9_cif.got.tgz:16984.got - 2010.04.14 02:04:31.
