data_PCOD8186687
_publ_section_title
;
Structure prediction by ZEFSAII (Michael W. Deem and Ramdas Pophale) SiO2 
 PCOD8186687
Probable space group: F M M 2
;
_chemical_formula_sum "Si O2"
_cell_formula_units_Z 96
_cell_length_a 13.496482
_cell_length_b 15.770104
_cell_length_c 21.637406
_cell_angle_alpha 90.000000
_cell_angle_beta 90.000000
_cell_angle_gamma 90.000000
_cell_volume 4605.325503
_symmetry_space_group_name_H-M "F M M 2"
_symmetry_group_IT_number 42
_symmetry_cell_setting 'orthorhombic'
loop_
_space_group_symop_operation_xyz
x,y,z
-x,-y,z
-x,y,z
x,-y,z
x,1/2+y,1/2+z
-x,1/2-y,1/2+z
-x,1/2+y,1/2+z
x,1/2-y,1/2+z
1/2+x,y,1/2+z
1/2-x,-y,1/2+z
1/2-x,y,1/2+z
1/2+x,-y,1/2+z
1/2+x,1/2+y,z
1/2-x,1/2-y,z
1/2-x,1/2+y,z
1/2+x,1/2-y,z
loop_
_atom_site_type_symbol
_atom_site_label
_atom_site_fract_x
_atom_site_fract_y
_atom_site_fract_z
Si Si1 0.818079 0.132199 0.284020
Si Si2 0.117005 0.000000 0.045375
Si Si3 0.109838 0.905149 0.416057
Si Si4 0.115395 0.000000 0.190591
Si Si5 0.888346 0.816681 0.759071
Si Si6 0.388201 0.594478 0.634001
Si Si7 0.759217 0.349440 0.021181
O O1 0.863609 0.089308 0.344007
O O2 0.876169 0.218179 0.271050
O O3 0.699621 0.138354 0.297356
O O4 0.834238 0.081176 0.221179
O O5 0.137624 0.000000 0.118371
O O6 0.162048 0.088742 0.017493
O O7 0.000000 0.000000 0.030375
O O8 0.186726 0.849284 0.454729
O O9 0.000000 0.865872 0.423332
O O10 0.112262 0.000000 0.442980
O O11 0.000000 0.000000 0.205724
O O12 0.869109 0.836314 0.687047
O O13 0.000000 0.846251 0.778858
O O14 0.500000 0.601291 0.610409
O O15 0.365964 0.500000 0.660599
O O16 0.323864 0.609645 0.574237
O O17 0.750000 0.250000 0.037613
#
# Coordination Sequence:
#
# PCOD8186687 Si02
#       7
#    16   8  16   8  16  16  16
#     4  11  23  39  66  96 130 168 217 265 323 393
#     4  11  26  45  65  99 145 177 217 274 350 425
#     4  11  23  44  71  95 122 165 224 282 324 383
#     4  11  22  39  65  95 129 171 209 262 328 399
#     4  10  23  39  61  94 135 169 207 261 325 393
#     4  10  21  40  67  97 127 167 220 274 326 390
#     4  12  26  43  69  95 132 177 226 279 344 407
#
# _framework density 20.845431999999999
#
# number of rings (size 3 to 8) (size 9 to 14) (size 15 to 20)
#    0.000    1.167    2.500    3.000    8.167    2.667 
#    0.000    0.833    0.000    0.000    0.000    0.000 
#    0.000    0.000    0.000    0.000    0.000    0.000 
#
# Total GULP energy -297478.822749 kJ/mol
# GULP energy per Si atom -12394.950948 kJ/mol
# Density = 2.079799 g / cm^3
# Si number density = 20.845432 Si / 1000 Ang^3
#
#
#
# Elastic Constant Matrix: (Units=GPa)
#
#
# Indices 1 2 3 4 5 6 
#
# 1 136.3977 48.2823 37.6983 0.0000 0.0000 0.0000
# 2 48.2823 98.7840 14.7858 0.0000 0.0000 0.0000
# 3 37.6983 14.7858 71.2207 0.0000 0.0000 0.0000
# 4 0.0000 0.0000 0.0000 30.7938 0.0000 0.0000
# 5 0.0000 0.0000 0.0000 0.0000 33.4798 0.0000
# 6 0.0000 0.0000 0.0000 0.0000 0.0000 -1.5866
#
#
#
# Elastic Compliance Matrix: (Units=1/GPa)
#
#
# Indices 1 2 3 4 5 6 
#
# 1 0.010066 -0.004255 -0.004445 0.000000 0.000000 0.000000
# 2 -0.004255 0.012246 -0.000290 0.000000 0.000000 0.000000
# 3 -0.004445 -0.000290 0.016454 0.000000 0.000000 0.000000
# 4 0.000000 0.000000 0.000000 0.032474 0.000000 0.000000
# 5 0.000000 0.000000 0.000000 0.000000 0.029869 0.000000
# 6 0.000000 0.000000 0.000000 0.000000 0.000000 -0.630284
#
#
# Mechanical properties :
#
#
# Convention : Reuss Voigt Hill
#
# Bulk Modulus (GPa) = 48.10835 56.43725 52.27280
# Shear Modulus (GPa) = -9.91540 26.24647 8.16554
#
# Velocity S-wave (km/s) = -2.18334 3.55223 1.98133
# Velocity P-wave (km/s) = 4.09546 6.63004 5.51045
#
# Compressibility (1/GPa) = 0.02078641
#
# Stress axis : x y z
#
# Youngs Moduli (GPa) = 99.34369 81.65880 60.77597
#
# Poissons Ratio (x) = 0.34743 0.27014
# Poissons Ratio (y) = 0.42267 0.01764
# Poissons Ratio (z) = 0.44157 0.02370
#
# Static dielectric constant tensor:
#      x y z
#    x 4.171120 0.000000 0.000000 
#    y 0.000000 3.770560 0.000000 
#    z 0.000000 0.000000 3.549430 
# 
# 
# High freq. dielectric constant tensor:
#      x y z
#    x 1.834490 0.000000 0.000000 
#    y 0.000000 1.815140 0.000000 
#    z 0.000000 0.000000 1.802650 
# 
# From -- ./inp_files/25135.got.cif
#   From: 2010.03.12/outbox.cif.g09.slc.cpg/sg42_13_cif.got.tgz:25135.got - 2010.04.14 02:04:31.
