data_PCOD8186585
_publ_section_title
;
Structure prediction by ZEFSAII (Michael W. Deem and Ramdas Pophale) SiO2 
 PCOD8186585
Probable space group: F M M 2
;
_chemical_formula_sum "Si O2"
_cell_formula_units_Z 80
_cell_length_a 8.895772
_cell_length_b 22.739282
_cell_length_c 19.928885
_cell_angle_alpha 90.000000
_cell_angle_beta 90.000000
_cell_angle_gamma 90.000000
_cell_volume 4031.283973
_symmetry_space_group_name_H-M "F M M 2"
_symmetry_group_IT_number 42
_symmetry_cell_setting 'orthorhombic'
loop_
_space_group_symop_operation_xyz
x,y,z
-x,-y,z
-x,y,z
x,-y,z
x,1/2+y,1/2+z
-x,1/2-y,1/2+z
-x,1/2+y,1/2+z
x,1/2-y,1/2+z
1/2+x,y,1/2+z
1/2-x,-y,1/2+z
1/2-x,y,1/2+z
1/2+x,-y,1/2+z
1/2+x,1/2+y,z
1/2-x,1/2-y,z
1/2-x,1/2+y,z
1/2+x,1/2-y,z
loop_
_atom_site_type_symbol
_atom_site_label
_atom_site_fract_x
_atom_site_fract_y
_atom_site_fract_z
Si Si1 0.672332 0.188805 0.298240
Si Si2 0.823649 0.186233 0.541779
Si Si3 0.824525 0.114067 0.926328
Si Si4 0.177004 0.500000 0.707755
Si Si5 0.174959 0.115993 0.674648
Si Si6 0.679077 0.000000 0.862459
O O1 0.500000 0.199082 0.281392
O O2 0.750000 0.250000 0.289520
O O3 0.699752 0.165124 0.372276
O O4 0.737305 0.143488 0.243779
O O5 0.750000 0.250000 0.532369
O O6 0.750026 0.137701 0.493842
O O7 0.791996 0.162672 0.616231
O O8 0.000000 0.191706 0.525918
O O9 0.000000 0.100173 0.937664
O O10 0.741539 0.056048 0.901532
O O11 0.235052 0.444306 0.665572
O O12 0.236538 0.500000 0.785086
O O13 0.000000 0.500000 0.707281
O O14 0.000000 0.099874 0.678294
O O15 0.500000 0.000000 0.865907
#
# Coordination Sequence:
#
# PCOD8186585 Si02
#       6
#    16  16  16   8  16   8
#     4  10  21  36  58  87 116 154 203 250 301 359
#     4  11  24  42  64  91 127 167 207 255 309 367
#     4  11  23  40  64  90 122 165 207 254 309 369
#     4  11  23  38  63  96 125 157 201 260 311 362
#     4  10  22  41  63  87 121 165 205 249 306 368
#     4  11  23  40  63  94 127 159 203 260 315 368
#
# _framework density 19.844795000000001
#
# number of rings (size 3 to 8) (size 9 to 14) (size 15 to 20)
#    0.000    1.400    2.000    3.000    0.000    7.200 
#    0.000    1.000    0.000    0.000    0.000    0.000 
#    0.000    0.000    0.000    0.000    0.000    0.000 
#
# Total GULP energy -248076.517980 kJ/mol
# GULP energy per Si atom -12403.825899 kJ/mol
# Density = 1.979963 g / cm^3
# Si number density = 19.844795 Si / 1000 Ang^3
#
#
#
# Elastic Constant Matrix: (Units=GPa)
#
#
# Indices 1 2 3 4 5 6 
#
# 1 86.2085 49.5638 37.6181 0.0000 0.0000 0.0000
# 2 49.5638 119.6381 9.8926 0.0000 0.0000 0.0000
# 3 37.6181 9.8926 66.5015 0.0000 0.0000 0.0000
# 4 0.0000 0.0000 0.0000 34.8499 0.0000 0.0000
# 5 0.0000 0.0000 0.0000 0.0000 31.1971 0.0000
# 6 0.0000 0.0000 0.0000 0.0000 0.0000 44.7836
#
#
#
# Elastic Compliance Matrix: (Units=1/GPa)
#
#
# Indices 1 2 3 4 5 6 
#
# 1 0.020589 -0.007661 -0.010507 0.000000 0.000000 0.000000
# 2 -0.007661 0.011313 0.002651 0.000000 0.000000 0.000000
# 3 -0.010507 0.002651 0.020587 0.000000 0.000000 0.000000
# 4 0.000000 0.000000 0.000000 0.028695 0.000000 0.000000
# 5 0.000000 0.000000 0.000000 0.000000 0.032054 0.000000
# 6 0.000000 0.000000 0.000000 0.000000 0.000000 0.022330
#
#
# Mechanical properties :
#
#
# Convention : Reuss Voigt Hill
#
# Bulk Modulus (GPa) = 46.61112 51.83301 49.22207
# Shear Modulus (GPa) = 28.77643 33.85102 31.31373
#
# Velocity S-wave (km/s) = 3.81212 4.13460 3.97663
# Velocity P-wave (km/s) = 6.55096 6.99779 6.77806
#
# Compressibility (1/GPa) = 0.02145411
#
# Stress axis : x y z
#
# Youngs Moduli (GPa) = 48.56925 88.39288 48.57546
#
# Poissons Ratio (x) = 0.67717 0.51039
# Poissons Ratio (y) = 0.37208 -0.12876
# Poissons Ratio (z) = 0.51032 -0.23430
#
# Static dielectric constant tensor:
#      x y z
#    x 3.651190 0.000000 0.000000 
#    y 0.000000 3.666890 0.000000 
#    z 0.000000 0.000000 3.735290 
# 
# 
# High freq. dielectric constant tensor:
#      x y z
#    x 1.777460 0.000000 0.000000 
#    y 0.000000 1.787600 0.000000 
#    z 0.000000 0.000000 1.778720 
# 
# From -- ./inp_files/23456.got.cif
#   From: 2010.03.12/outbox.cif.g09.slc.cpg/sg42_12_cif.got.tgz:23456.got - 2010.04.14 02:04:31.
