data_PCOD8186638
_publ_section_title
;
Structure prediction by ZEFSAII (Michael W. Deem and Ramdas Pophale) SiO2 
 PCOD8186638
Probable space group: F M M 2
;
_chemical_formula_sum "Si O2"
_cell_formula_units_Z 80
_cell_length_a 15.430544
_cell_length_b 10.143815
_cell_length_c 25.669816
_cell_angle_alpha 90.000000
_cell_angle_beta 90.000000
_cell_angle_gamma 90.000000
_cell_volume 4017.957263
_symmetry_space_group_name_H-M "F M M 2"
_symmetry_group_IT_number 42
_symmetry_cell_setting 'orthorhombic'
loop_
_space_group_symop_operation_xyz
x,y,z
-x,-y,z
-x,y,z
x,-y,z
x,1/2+y,1/2+z
-x,1/2-y,1/2+z
-x,1/2+y,1/2+z
x,1/2-y,1/2+z
1/2+x,y,1/2+z
1/2-x,-y,1/2+z
1/2-x,y,1/2+z
1/2+x,-y,1/2+z
1/2+x,1/2+y,z
1/2-x,1/2-y,z
1/2-x,1/2+y,z
1/2+x,1/2-y,z
loop_
_atom_site_type_symbol
_atom_site_label
_atom_site_fract_x
_atom_site_fract_y
_atom_site_fract_z
Si Si1 0.254844 0.000000 0.125000
Si Si2 0.750000 0.250000 0.197344
Si Si3 0.102625 0.000000 0.535443
Si Si4 0.900017 0.000000 0.048732
Si Si5 0.902900 0.150246 0.760664
Si Si6 0.177666 0.848332 0.866822
Si Si7 0.400178 0.761168 0.474213
O O1 0.256480 0.125654 0.160877
O O2 0.162143 0.000000 0.097579
O O3 0.338406 0.000000 0.086958
O O4 0.835827 0.249635 0.233435
O O5 0.127775 0.124172 0.500008
O O6 0.000000 0.000000 0.551055
O O7 0.877308 0.872596 0.015370
O O8 0.000000 0.000000 0.067424
O O9 0.897573 0.157098 0.823549
O O10 0.000000 0.191500 0.744285
O O11 0.882814 0.000000 0.742616
O O12 0.250000 0.750000 0.844492
O O13 0.150204 0.786668 0.921450
O O14 0.209736 0.000000 0.874000
O O15 0.500000 0.762915 0.459177
#
# Coordination Sequence:
#
# PCOD8186638 Si02
#       7
#     8   8   8   8  16  16  16
#     4  12  26  40  66  88 126 168 212 274 330 372
#     4  12  24  44  64  98 126 158 226 280 318 378
#     4  10  24  42  61  91 130 171 217 262 311 378
#     4  10  22  40  59  87 122 161 213 260 311 382
#     4  10  22  44  71  95 129 172 213 259 324 393
#     4  11  23  37  64  97 131 167 207 254 314 387
#     4  10  21  38  60  90 128 167 210 255 305 378
#
# _framework density 19.910615
#
# number of rings (size 3 to 8) (size 9 to 14) (size 15 to 20)
#    0.000    1.400    3.000    1.800    4.200    2.400 
#    0.000    0.000    0.000    0.000    0.000    0.000 
#    0.000    0.000    0.000    0.000    0.000    0.000 
#
# Total GULP energy -247975.751604 kJ/mol
# GULP energy per Si atom -12398.787580 kJ/mol
# Density = 1.986530 g / cm^3
# Si number density = 19.910615 Si / 1000 Ang^3
#
#
#
# Elastic Constant Matrix: (Units=GPa)
#
#
# Indices 1 2 3 4 5 6 
#
# 1 111.5683 41.6798 61.9661 0.0000 0.0000 0.0000
# 2 41.6798 149.8949 59.9883 0.0000 0.0000 0.0000
# 3 61.9661 59.9883 115.6057 0.0000 0.0000 0.0000
# 4 0.0000 0.0000 0.0000 32.2077 0.0000 0.0000
# 5 0.0000 0.0000 0.0000 0.0000 29.8465 0.0000
# 6 0.0000 0.0000 0.0000 0.0000 0.0000 32.3599
#
#
#
# Elastic Compliance Matrix: (Units=1/GPa)
#
#
# Indices 1 2 3 4 5 6 
#
# 1 0.012888 -0.001034 -0.006372 0.000000 0.000000 0.000000
# 2 -0.001034 0.008503 -0.003858 0.000000 0.000000 0.000000
# 3 -0.006372 -0.003858 0.014067 0.000000 0.000000 0.000000
# 4 0.000000 0.000000 0.000000 0.031048 0.000000 0.000000
# 5 0.000000 0.000000 0.000000 0.000000 0.033505 0.000000
# 6 0.000000 0.000000 0.000000 0.000000 0.000000 0.030902
#
#
# Mechanical properties :
#
#
# Convention : Reuss Voigt Hill
#
# Bulk Modulus (GPa) = 77.33199 78.25970 77.79584
# Shear Modulus (GPa) = 31.69533 33.11180 32.40356
#
# Velocity S-wave (km/s) = 3.99417 4.08244 4.03855
# Velocity P-wave (km/s) = 7.75855 7.84937 7.80409
#
# Compressibility (1/GPa) = 0.01293126
#
# Stress axis : x y z
#
# Youngs Moduli (GPa) = 77.58971 117.60875 71.08590
#
# Poissons Ratio (x) = 0.12157 0.45295
# Poissons Ratio (y) = 0.08020 0.27425
# Poissons Ratio (z) = 0.49440 0.45374
#
# Static dielectric constant tensor:
#      x y z
#    x 3.653070 0.000000 0.000000 
#    y 0.000000 3.648940 0.000000 
#    z 0.000000 0.000000 3.582500 
# 
# 
# High freq. dielectric constant tensor:
#      x y z
#    x 1.778750 0.000000 0.000000 
#    y 0.000000 1.782880 0.000000 
#    z 0.000000 0.000000 1.783670 
# 
# From -- ./inp_files/29292.got.cif
#   From: 2010.03.12/outbox.cif.g09.slc.cpg/sg42_15_cif.got.tgz:29292.got - 2010.04.14 02:04:31.
