data_PCOD8186651
_publ_section_title
;
Structure prediction by ZEFSAII (Michael W. Deem and Ramdas Pophale) SiO2 
 PCOD8186651
Probable space group: F M M 2
;
_chemical_formula_sum "Si O2"
_cell_formula_units_Z 88
_cell_length_a 15.020030
_cell_length_b 31.012651
_cell_length_c 9.618659
_cell_angle_alpha 90.000000
_cell_angle_beta 90.000000
_cell_angle_gamma 90.000000
_cell_volume 4480.476671
_symmetry_space_group_name_H-M "F M M 2"
_symmetry_group_IT_number 42
_symmetry_cell_setting 'orthorhombic'
loop_
_space_group_symop_operation_xyz
x,y,z
-x,-y,z
-x,y,z
x,-y,z
x,1/2+y,1/2+z
-x,1/2-y,1/2+z
-x,1/2+y,1/2+z
x,1/2-y,1/2+z
1/2+x,y,1/2+z
1/2-x,-y,1/2+z
1/2-x,y,1/2+z
1/2+x,-y,1/2+z
1/2+x,1/2+y,z
1/2-x,1/2-y,z
1/2-x,1/2+y,z
1/2+x,1/2-y,z
loop_
_atom_site_type_symbol
_atom_site_label
_atom_site_fract_x
_atom_site_fract_y
_atom_site_fract_z
Si Si1 0.401975 0.000000 0.623301
Si Si2 0.804932 0.060807 0.318730
Si Si3 0.500000 0.304184 0.416206
Si Si4 0.000000 0.771272 0.113192
Si Si5 0.401961 0.500000 0.514290
Si Si6 0.301889 0.705457 0.085602
Si Si7 0.811599 0.660099 0.867471
Si Si8 0.852038 0.500000 0.318739
O O1 0.352570 0.957297 0.679891
O O2 0.410522 0.000000 0.457321
O O3 0.500000 0.000000 0.686344
O O4 0.803165 0.111841 0.313059
O O5 0.704830 0.043710 0.318595
O O6 0.852259 0.042708 0.457996
O O7 0.500000 0.277641 0.559607
O O8 0.500000 0.272569 0.281180
O O9 0.586985 0.333998 0.417629
O O10 0.091457 0.792752 0.054683
O O11 0.500000 0.500000 0.451083
O O12 0.410638 0.500000 0.680245
O O13 0.250000 0.750000 0.055109
O O14 0.286710 0.693083 0.245189
O O15 0.258903 0.668593 0.989704
#
# Coordination Sequence:
#
# PCOD8186651 Si02
#       8
#     8  16   8   8   8  16  16   8
#     4  10  21  38  63  88 120 158 194 242 299 362
#     4  10  21  39  59  88 120 160 197 236 297 364
#     4  10  22  40  62  91 116 165 195 266 281 376
#     4  10  22  40  62  82 124 153 211 241 317 348
#     4  10  21  38  65  88 120 154 194 246 299 358
#     4  11  23  42  61  92 119 166 200 255 301 362
#     4  11  25  37  66  90 126 154 210 247 304 353
#     4  10  21  38  63  84 122 154 194 244 299 353
#
# _framework density 19.640768000000001
#
# number of rings (size 3 to 8) (size 9 to 14) (size 15 to 20)
#    0.000    1.818    1.818    4.091   10.182    0.000 
#    0.000    0.000    2.000    0.000    0.000    0.000 
#    0.000    0.000    0.000    0.000    0.000    0.000 
#
# Total GULP energy -272748.343892 kJ/mol
# GULP energy per Si atom -12397.651995 kJ/mol
# Density = 1.959606 g / cm^3
# Si number density = 19.640768 Si / 1000 Ang^3
#
#
#
# Elastic Constant Matrix: (Units=GPa)
#
#
# Indices 1 2 3 4 5 6 
#
# 1 123.2911 22.9316 22.2706 0.0000 0.0000 0.0000
# 2 22.9316 91.7581 6.5861 0.0000 0.0000 0.0000
# 3 22.2706 6.5861 91.9839 0.0000 0.0000 0.0000
# 4 0.0000 0.0000 0.0000 129.6281 0.0000 0.0000
# 5 0.0000 0.0000 0.0000 0.0000 25.9377 0.0000
# 6 0.0000 0.0000 0.0000 0.0000 0.0000 3.9446
#
#
#
# Elastic Compliance Matrix: (Units=1/GPa)
#
#
# Indices 1 2 3 4 5 6 
#
# 1 0.008856 -0.002070 -0.001996 0.000000 0.000000 0.000000
# 2 -0.002070 0.011438 -0.000318 0.000000 0.000000 0.000000
# 3 -0.001996 -0.000318 0.011377 0.000000 0.000000 0.000000
# 4 0.000000 0.000000 0.000000 0.007714 0.000000 0.000000
# 5 0.000000 0.000000 0.000000 0.000000 0.038554 0.000000
# 6 0.000000 0.000000 0.000000 0.000000 0.000000 0.253513
#
#
# Mechanical properties :
#
#
# Convention : Reuss Voigt Hill
#
# Bulk Modulus (GPa) = 43.65963 45.62331 44.64147
# Shear Modulus (GPa) = 14.37374 48.91840 31.64607
#
# Velocity S-wave (km/s) = 2.70817 4.99606 4.01839
# Velocity P-wave (km/s) = 5.66183 7.52065 6.65644
#
# Compressibility (1/GPa) = 0.02290446
#
# Stress axis : x y z
#
# Youngs Moduli (GPa) = 112.91188 87.42508 87.89283
#
# Poissons Ratio (x) = 0.18098 0.17544
# Poissons Ratio (y) = 0.23374 0.02793
# Poissons Ratio (z) = 0.22538 0.02778
#
# Static dielectric constant tensor:
#      x y z
#    x 3.719740 0.000000 0.000000 
#    y 0.000000 3.239400 0.000000 
#    z 0.000000 0.000000 3.544440 
# 
# 
# High freq. dielectric constant tensor:
#      x y z
#    x 1.777930 0.000000 0.000000 
#    y 0.000000 1.740970 0.000000 
#    z 0.000000 0.000000 1.771070 
# 
# From -- ./inp_files/3673.got.cif
#   From: 2010.03.12/outbox.cif.g09.slc.cpg/sg42_2_cif.got.tgz:3673.got - 2010.04.14 02:04:31.
