data_PCOD8186719
_publ_section_title
;
Structure prediction by ZEFSAII (Michael W. Deem and Ramdas Pophale) SiO2 
 PCOD8186719
Probable space group: F M M 2
;
_chemical_formula_sum "Si O2"
_cell_formula_units_Z 96
_cell_length_a 22.017398
_cell_length_b 23.844095
_cell_length_c 9.192647
_cell_angle_alpha 90.000000
_cell_angle_beta 90.000000
_cell_angle_gamma 90.000000
_cell_volume 4826.001138
_symmetry_space_group_name_H-M "F M M 2"
_symmetry_group_IT_number 42
_symmetry_cell_setting 'orthorhombic'
loop_
_space_group_symop_operation_xyz
x,y,z
-x,-y,z
-x,y,z
x,-y,z
x,1/2+y,1/2+z
-x,1/2-y,1/2+z
-x,1/2+y,1/2+z
x,1/2-y,1/2+z
1/2+x,y,1/2+z
1/2-x,-y,1/2+z
1/2-x,y,1/2+z
1/2+x,-y,1/2+z
1/2+x,1/2+y,z
1/2-x,1/2-y,z
1/2-x,1/2+y,z
1/2+x,1/2-y,z
loop_
_atom_site_type_symbol
_atom_site_label
_atom_site_fract_x
_atom_site_fract_y
_atom_site_fract_z
Si Si1 0.334549 0.000000 0.005540
Si Si2 0.000000 0.271133 0.579646
Si Si3 0.380270 0.617396 0.442394
Si Si4 0.000000 0.826496 0.378824
Si Si5 0.761763 0.000000 0.223281
Si Si6 0.204382 0.124155 0.182288
Si Si7 0.866587 0.201638 0.995453
Si Si8 0.670684 0.692141 0.669603
O O1 0.309079 0.000000 0.171801
O O2 0.378610 0.051738 0.975438
O O3 0.275291 0.000000 0.896503
O O4 0.000000 0.205621 0.533924
O O5 0.061032 0.298728 0.516123
O O6 0.000000 0.278740 0.753845
O O7 0.442361 0.633080 0.361632
O O8 0.324035 0.635747 0.340798
O O9 0.376757 0.650351 0.593847
O O10 0.788133 0.942427 0.155174
O O11 0.159059 0.142768 0.054170
O O12 0.265209 0.160659 0.175129
O O13 0.829263 0.250388 0.078502
O O14 0.853495 0.208498 0.826581
#
# Coordination Sequence:
#
# PCOD8186719 Si02
#       8
#     8   8  16   8   8  16  16  16
#     4  10  22  41  66  98 126 169 214 262 322 382
#     4  12  24  44  64  87 125 171 221 253 319 384
#     4  11  23  41  66  96 126 169 220 261 318 378
#     4  12  24  43  66  89 131 172 219 267 309 386
#     4  10  22  38  66  88 132 162 206 256 318 388
#     4  11  23  42  62  96 127 166 207 263 320 384
#     4  12  25  40  64  91 128 168 210 261 318 385
#     4  12  24  40  62  94 130 163 206 266 322 385
#
# _framework density 19.892244999999999
#
# number of rings (size 3 to 8) (size 9 to 14) (size 15 to 20)
#    0.000    0.667    5.000    3.500    2.333    1.667 
#    0.000    0.000    0.000    0.500    0.000    0.000 
#    0.000    0.000    0.000    0.000    0.000    0.000 
#
# Total GULP energy -297530.002041 kJ/mol
# GULP energy per Si atom -12397.083418 kJ/mol
# Density = 1.984697 g / cm^3
# Si number density = 19.892245 Si / 1000 Ang^3
#
#
#
# Elastic Constant Matrix: (Units=GPa)
#
#
# Indices 1 2 3 4 5 6 
#
# 1 124.9624 53.2545 29.9241 0.0005 -0.0002 -0.0003
# 2 53.2545 125.9486 57.0096 0.0004 -0.0004 -0.0004
# 3 29.9241 57.0096 114.0839 0.0015 -0.0016 -0.0010
# 4 0.0005 0.0004 0.0015 26.8810 -0.0006 -0.0003
# 5 -0.0002 -0.0004 -0.0016 -0.0006 26.0019 0.0003
# 6 -0.0003 -0.0004 -0.0010 -0.0003 0.0003 27.6700
#
#
#
# Elastic Compliance Matrix: (Units=1/GPa)
#
#
# Indices 1 2 3 4 5 6 
#
# 1 0.009798 -0.003851 -0.000646 0.000000 0.000000 0.000000
# 2 -0.003851 0.011774 -0.004874 0.000000 0.000000 0.000000
# 3 -0.000646 -0.004874 0.011370 -0.000001 0.000001 0.000000
# 4 0.000000 0.000000 -0.000001 0.037201 0.000001 0.000000
# 5 0.000000 0.000000 0.000001 0.000001 0.038459 0.000000
# 6 0.000000 0.000000 0.000000 0.000000 0.000000 0.036140
#
#
# Mechanical properties :
#
#
# Convention : Reuss Voigt Hill
#
# Bulk Modulus (GPa) = 70.41145 71.70791 71.05968
# Shear Modulus (GPa) = 29.72368 31.09771 30.41070
#
# Velocity S-wave (km/s) = 3.86973 3.95816 3.91419
# Velocity P-wave (km/s) = 7.44578 7.55088 7.49851
#
# Compressibility (1/GPa) = 0.01420224
#
# Stress axis : x y z
#
# Youngs Moduli (GPa) = 102.06146 84.93399 87.94846
#
# Poissons Ratio (x) = 0.32704 0.05680
# Poissons Ratio (y) = 0.39299 0.42863
# Poissons Ratio (z) = 0.06591 0.41393
#
# Static dielectric constant tensor:
#      x y z
#    x 3.656920 0.000000 0.000000 
#    y 0.000000 3.760390 0.000000 
#    z 0.000000 0.000000 3.735990 
# 
# 
# High freq. dielectric constant tensor:
#      x y z
#    x 1.770530 0.000000 0.000000 
#    y 0.000000 1.780410 0.000000 
#    z 0.000000 0.000000 1.780090 
# 
# From -- ./inp_files/4779.got.cif
#   From: 2010.03.12/outbox.cif.g09.slc.cpg/sg42_3_cif.got.tgz:4779.got - 2010.04.14 02:04:31.
