data_PCOD8186498
_publ_section_title
;
Structure prediction by ZEFSAII (Michael W. Deem and Ramdas Pophale) SiO2 
 PCOD8186498
Probable space group: F M M 2
;
_chemical_formula_sum "Si O2"
_cell_formula_units_Z 96
_cell_length_a 23.606362
_cell_length_b 8.939650
_cell_length_c 24.798936
_cell_angle_alpha 90.000000
_cell_angle_beta 90.000000
_cell_angle_gamma 90.000000
_cell_volume 5233.384290
_symmetry_space_group_name_H-M "F M M 2"
_symmetry_group_IT_number 42
_symmetry_cell_setting 'orthorhombic'
loop_
_space_group_symop_operation_xyz
x,y,z
-x,-y,z
-x,y,z
x,-y,z
x,1/2+y,1/2+z
-x,1/2-y,1/2+z
-x,1/2+y,1/2+z
x,1/2-y,1/2+z
1/2+x,y,1/2+z
1/2-x,-y,1/2+z
1/2-x,y,1/2+z
1/2+x,-y,1/2+z
1/2+x,1/2+y,z
1/2-x,1/2-y,z
1/2-x,1/2+y,z
1/2+x,1/2-y,z
loop_
_atom_site_type_symbol
_atom_site_label
_atom_site_fract_x
_atom_site_fract_y
_atom_site_fract_z
Si Si1 0.500000 0.176992 0.630780
Si Si2 0.808009 0.325962 0.261719
Si Si3 0.121314 0.825196 0.474682
Si Si4 0.881986 0.826120 0.176561
Si Si5 0.808502 0.824657 0.886493
Si Si6 0.189443 0.174958 0.070513
Si Si7 0.000000 0.670523 0.016986
O O1 0.555563 0.235190 0.661952
O O2 0.500000 0.228275 0.569457
O O3 0.500000 0.000000 0.628133
O O4 0.801243 0.500000 0.250605
O O5 0.750000 0.250000 0.241936
O O6 0.860884 0.263496 0.228485
O O7 0.819857 0.289863 0.324019
O O8 0.140104 0.748639 0.419069
O O9 0.153063 0.750054 0.524174
O O10 0.054489 0.795347 0.480317
O O11 0.136027 0.000000 0.473301
O O12 0.840715 0.794385 0.126942
O O13 0.883744 0.000000 0.191473
O O14 0.750000 0.750000 0.906025
O O15 0.804908 0.000000 0.898462
O O16 0.250000 0.250000 0.073051
O O17 0.195425 0.000000 0.057964
O O18 0.000000 0.500000 0.037238
#
# Coordination Sequence:
#
# PCOD8186498 Si02
#       7
#     8  16  16  16  16  16   8
#     4  10  20  38  59  82 111 149 190 228 274 329
#     4  10  21  37  59  84 113 147 186 230 280 333
#     4  11  22  37  57  82 111 145 186 230 277 331
#     4  10  21  36  57  83 112 146 187 228 275 330
#     4  10  21  38  59  84 112 147 186 229 281 334
#     4  11  22  35  53  80 113 146 180 226 278 333
#     4  10  22  38  57  82 111 147 188 230 278 327
#
# _framework density 18.343771
#
# number of rings (size 3 to 8) (size 9 to 14) (size 15 to 20)
#    0.000    1.667    1.667    3.000    0.000    6.000 
#    0.000    0.833    0.000    5.000    0.000    0.000 
#    0.000    0.000    0.000    0.000    0.000    0.000 
#
# Total GULP energy -297720.361934 kJ/mol
# GULP energy per Si atom -12405.015081 kJ/mol
# Density = 1.830202 g / cm^3
# Si number density = 18.343771 Si / 1000 Ang^3
#
#
#
# Elastic Constant Matrix: (Units=GPa)
#
#
# Indices 1 2 3 4 5 6 
#
# 1 143.0395 60.2234 56.7495 0.0000 0.0000 0.0000
# 2 60.2234 94.9967 54.1422 0.0000 0.0000 0.0001
# 3 56.7495 54.1422 90.2356 0.0000 0.0000 0.0000
# 4 0.0000 0.0000 0.0000 34.8864 0.0000 0.0000
# 5 0.0000 0.0000 0.0000 0.0000 0.3092 0.0000
# 6 0.0000 0.0001 0.0000 0.0000 0.0000 47.5840
#
#
#
# Elastic Compliance Matrix: (Units=1/GPa)
#
#
# Indices 1 2 3 4 5 6 
#
# 1 0.010374 -0.004344 -0.003918 0.000000 0.000000 0.000000
# 2 -0.004344 0.017816 -0.007958 0.000000 0.000000 0.000000
# 3 -0.003918 -0.007958 0.018321 0.000000 0.000000 0.000000
# 4 0.000000 0.000000 0.000000 0.028664 0.000000 0.000000
# 5 0.000000 0.000000 0.000000 0.000000 3.233659 0.000000
# 6 0.000000 0.000000 0.000000 0.000000 0.000000 0.021015
#
#
# Mechanical properties :
#
#
# Convention : Reuss Voigt Hill
#
# Bulk Modulus (GPa) = 71.06472 74.50020 72.78246
# Shear Modulus (GPa) = 1.48501 27.03303 14.25902
#
# Velocity S-wave (km/s) = 0.90072 3.84303 2.79107
# Velocity P-wave (km/s) = 6.31715 7.77132 7.08166
#
# Compressibility (1/GPa) = 0.01407168
#
# Stress axis : x y z
#
# Youngs Moduli (GPa) = 96.39087 56.12955 54.58180
#
# Poissons Ratio (x) = 0.24381 0.21386
# Poissons Ratio (y) = 0.41870 0.43436
# Poissons Ratio (z) = 0.37768 0.44667
#
# Static dielectric constant tensor:
#      x y z
#    x 3.646990 0.000000 0.000000 
#    y 0.000000 3.486290 0.000000 
#    z 0.000000 0.000000 3.365000 
# 
# 
# High freq. dielectric constant tensor:
#      x y z
#    x 1.716260 0.000000 0.000000 
#    y 0.000000 1.722090 0.000000 
#    z 0.000000 0.000000 1.710170 
# 
# From -- ./inp_files/28058.got.cif
#   From: 2010.03.12/outbox.cif.g09.slc.cpg/sg42_15_cif.got.tgz:28058.got - 2010.04.14 02:04:31.
