data_PCOD8186160
_publ_section_title
;
Structure prediction by ZEFSAII (Michael W. Deem and Ramdas Pophale) SiO2 
 PCOD8186160
Probable space group: F M M 2
;
_chemical_formula_sum "Si O2"
_cell_formula_units_Z 88
_cell_length_a 22.928154
_cell_length_b 14.167359
_cell_length_c 13.907569
_cell_angle_alpha 90.000000
_cell_angle_beta 90.000000
_cell_angle_gamma 90.000000
_cell_volume 4517.614955
_symmetry_space_group_name_H-M "F M M 2"
_symmetry_group_IT_number 42
_symmetry_cell_setting 'orthorhombic'
loop_
_space_group_symop_operation_xyz
x,y,z
-x,-y,z
-x,y,z
x,-y,z
x,1/2+y,1/2+z
-x,1/2-y,1/2+z
-x,1/2+y,1/2+z
x,1/2-y,1/2+z
1/2+x,y,1/2+z
1/2-x,-y,1/2+z
1/2-x,y,1/2+z
1/2+x,-y,1/2+z
1/2+x,1/2+y,z
1/2-x,1/2-y,z
1/2-x,1/2+y,z
1/2+x,1/2-y,z
loop_
_atom_site_type_symbol
_atom_site_label
_atom_site_fract_x
_atom_site_fract_y
_atom_site_fract_z
Si Si1 0.763302 0.393251 0.015500
Si Si2 0.639971 0.611641 0.932002
Si Si3 0.612329 0.391530 0.427508
Si Si4 0.432839 0.241511 0.566451
Si Si5 0.371432 0.245594 0.766941
Si Si6 0.250000 0.250000 0.178983
O O1 0.756120 0.500000 0.049496
O O2 0.706915 0.361482 0.954955
O O3 0.770752 0.336271 0.113287
O O4 0.819357 0.378578 0.949366
O O5 0.629153 0.500000 0.924656
O O6 0.601163 0.654512 0.017626
O O7 0.623668 0.659346 0.830723
O O8 0.592562 0.500000 0.423898
O O9 0.574474 0.338685 0.507896
O O10 0.601533 0.343167 0.324472
O O11 0.500000 0.212887 0.571179
O O12 0.409407 0.260685 0.672655
O O13 0.304456 0.220871 0.744060
#
# Coordination Sequence:
#
# PCOD8186160 Si02
#       6
#    16  16  16  16  16   8
#     4  10  19  35  61  90 122 156 191 231 295 366
#     4  10  22  41  62  89 122 156 193 242 298 356
#     4  10  22  41  62  89 122 156 193 242 298 356
#     4  11  24  42  61  84 116 159 207 249 289 343
#     4  11  22  35  62  92 120 153 196 243 296 356
#     4  12  18  34  60  92 122 160 184 236 300 354
#
# _framework density 19.479306000000001
#
# number of rings (size 3 to 8) (size 9 to 14) (size 15 to 20)
#    0.000    1.455    3.636    2.182    0.000    6.545 
#    0.000    0.000    0.000    0.000    0.000    0.000 
#    0.000    0.000    0.000    0.000    0.000    0.000 
#
# Total GULP energy -272884.677621 kJ/mol
# GULP energy per Si atom -12403.848983 kJ/mol
# Density = 1.943497 g / cm^3
# Si number density = 19.479306 Si / 1000 Ang^3
#
#
#
# Elastic Constant Matrix: (Units=GPa)
#
#
# Indices 1 2 3 4 5 6 
#
# 1 76.5937 -4.8847 13.5768 0.0000 0.0000 0.0000
# 2 -4.8847 92.9163 33.5831 0.0000 0.0000 0.0000
# 3 13.5768 33.5831 122.1502 0.0000 0.0000 0.0000
# 4 0.0000 0.0000 0.0000 14.8860 0.0000 0.0000
# 5 0.0000 0.0000 0.0000 0.0000 6.5874 0.0000
# 6 0.0000 0.0000 0.0000 0.0000 0.0000 14.6957
#
#
#
# Elastic Compliance Matrix: (Units=1/GPa)
#
#
# Indices 1 2 3 4 5 6 
#
# 1 0.013478 0.001388 -0.001880 0.000000 0.000000 0.000000
# 2 0.001388 0.012093 -0.003479 0.000000 0.000000 0.000000
# 3 -0.001880 -0.003479 0.009352 0.000000 0.000000 0.000000
# 4 0.000000 0.000000 0.000000 0.067177 0.000000 0.000000
# 5 0.000000 0.000000 0.000000 0.000000 0.151805 0.000000
# 6 0.000000 0.000000 0.000000 0.000000 0.000000 0.068047
#
#
# Mechanical properties :
#
#
# Convention : Reuss Voigt Hill
#
# Bulk Modulus (GPa) = 37.06305 41.80117 39.43211
# Shear Modulus (GPa) = 14.75420 23.85950 19.30685
#
# Velocity S-wave (km/s) = 2.75513 3.50360 3.15166
# Velocity P-wave (km/s) = 5.40270 6.15409 5.79060
#
# Compressibility (1/GPa) = 0.02698105
#
# Stress axis : x y z
#
# Youngs Moduli (GPa) = 74.19731 82.69419 106.92864
#
# Poissons Ratio (x) = -0.11477 0.20098
# Poissons Ratio (y) = -0.10298 0.37200
# Poissons Ratio (z) = 0.13946 0.28769
#
# Static dielectric constant tensor:
#      x y z
#    x 3.482230 0.000000 0.000000 
#    y 0.000000 3.611290 0.000000 
#    z 0.000000 0.000000 3.539240 
# 
# 
# High freq. dielectric constant tensor:
#      x y z
#    x 1.750420 0.000000 0.000000 
#    y 0.000000 1.762680 0.000000 
#    z 0.000000 0.000000 1.763420 
# 
# From -- ./inp_files/7859.got.cif
#   From: 2010.03.12/outbox.cif.g09.slc.cpg/sg42_4_cif.got.tgz:7859.got - 2010.04.14 02:04:31.
