data_PCOD8186920
_publ_section_title
;
Structure prediction by ZEFSAII (Michael W. Deem and Ramdas Pophale) SiO2 
 PCOD8186920
Probable space group: F D D 2
;
_chemical_formula_sum "Si O2"
_cell_formula_units_Z 128
_cell_length_a 17.122396
_cell_length_b 21.141124
_cell_length_c 19.959744
_cell_angle_alpha 90.000000
_cell_angle_beta 90.000000
_cell_angle_gamma 90.000000
_cell_volume 7225.161804
_symmetry_space_group_name_H-M "F D D 2"
_symmetry_group_IT_number 43
_symmetry_cell_setting 'orthorhombic'
loop_
_space_group_symop_operation_xyz
x,y,z
-x,-y,z
1/4-x,1/4+y,1/4+z
1/4+x,1/4-y,1/4+z
x,1/2+y,1/2+z
-x,1/2-y,1/2+z
1/4-x,3/4+y,3/4+z
1/4+x,3/4-y,3/4+z
1/2+x,y,1/2+z
1/2-x,-y,1/2+z
3/4-x,1/4+y,3/4+z
3/4+x,1/4-y,3/4+z
1/2+x,1/2+y,z
1/2-x,1/2-y,z
3/4-x,3/4+y,1/4+z
3/4+x,3/4-y,1/4+z
loop_
_atom_site_type_symbol
_atom_site_label
_atom_site_fract_x
_atom_site_fract_y
_atom_site_fract_z
Si Si1 0.269607 0.607428 0.751420
Si Si2 0.339936 0.916539 0.216025
Si Si3 0.329975 0.788209 0.699030
Si Si4 0.811816 0.999525 0.836106
Si Si5 0.158085 0.060171 0.035401
Si Si6 0.500433 0.136705 0.169286
Si Si7 0.558074 0.444789 0.554894
Si Si8 0.041758 0.721611 0.378199
O O1 0.189992 0.642626 0.728830
O O2 0.251681 0.548040 0.799928
O O3 0.325526 0.654219 0.794025
O O4 0.311878 0.582063 0.683636
O O5 0.361268 0.960718 0.279982
O O6 0.411540 0.885255 0.177830
O O7 0.293029 0.857031 0.246902
O O8 0.292421 0.958264 0.161619
O O9 0.250000 0.750000 0.689177
O O10 0.373964 0.789683 0.627629
O O11 0.390247 0.756041 0.749669
O O12 0.757872 0.953331 0.880131
O O13 0.203589 0.043074 0.103377
O O14 0.211757 0.106836 0.991660
O O15 0.460446 0.080647 0.128583
O O16 0.500000 0.500000 0.534133
O O17 0.648299 0.467922 0.564732
#
# Coordination Sequence:
#
# PCOD8186920 Si02
#       8
#    16  16  16  16  16  16  16  16
#     4  10  19  33  50  78 105 136 172 213 259 314
#     4  10  21  33  50  77 109 133 173 212 263 313
#     4   9  19  33  50  75 105 136 174 212 259 312
#     4   9  20  32  49  78 106 133 169 212 263 307
#     4  10  19  31  52  74 104 138 170 213 263 311
#     4  10  18  32  49  74 104 133 169 211 256 313
#     4  11  20  33  51  77 107 138 171 215 263 317
#     4  11  20  32  53  78 106 140 172 215 267 310
#
# _framework density 17.715865999999998
#
# number of rings (size 3 to 8) (size 9 to 14) (size 15 to 20)
#    0.000    2.000    3.750    0.750    1.750    1.000 
#    0.000    1.250    0.000    0.000    0.000    0.000 
#    0.000    0.000    0.000    0.000    0.000    0.000 
#
# Total GULP energy -396499.955137 kJ/mol
# GULP energy per Si atom -12390.623598 kJ/mol
# Density = 1.767554 g / cm^3
# Si number density = 17.715866 Si / 1000 Ang^3
#
#
#
# Elastic Constant Matrix: (Units=GPa)
#
#
# Indices 1 2 3 4 5 6 
#
# 1 65.3250 37.9019 32.8033 0.0000 0.0000 0.0000
# 2 37.9019 100.8719 39.7276 0.0000 0.0000 0.0000
# 3 32.8033 39.7276 68.2184 0.0000 0.0000 0.0000
# 4 0.0000 0.0000 0.0000 22.0487 0.0000 0.0000
# 5 0.0000 0.0000 0.0000 0.0000 25.5946 0.0000
# 6 0.0000 0.0000 0.0000 0.0000 0.0000 27.4771
#
#
#
# Elastic Compliance Matrix: (Units=1/GPa)
#
#
# Indices 1 2 3 4 5 6 
#
# 1 0.022220 -0.005373 -0.007555 0.000000 0.000000 0.000000
# 2 -0.005373 0.014163 -0.005664 0.000000 0.000000 0.000000
# 3 -0.007555 -0.005664 0.021591 0.000000 0.000000 0.000000
# 4 0.000000 0.000000 0.000000 0.045354 0.000000 0.000000
# 5 0.000000 0.000000 0.000000 0.000000 0.039071 0.000000
# 6 0.000000 0.000000 0.000000 0.000000 0.000000 0.036394
#
#
# Mechanical properties :
#
#
# Convention : Reuss Voigt Hill
#
# Bulk Modulus (GPa) = 48.10558 50.58677 49.34617
# Shear Modulus (GPa) = 22.43083 23.28958 22.86020
#
# Velocity S-wave (km/s) = 3.56215 3.62970 3.59608
# Velocity P-wave (km/s) = 6.64315 6.79579 6.71990
#
# Compressibility (1/GPa) = 0.02078761
#
# Stress axis : x y z
#
# Youngs Moduli (GPa) = 45.00531 70.60443 46.31656
#
# Poissons Ratio (x) = 0.37938 0.34994
# Poissons Ratio (y) = 0.24183 0.26236
# Poissons Ratio (z) = 0.34003 0.39993
#
# Static dielectric constant tensor:
#      x y z
#    x 3.063580 0.000000 0.000000 
#    y 0.000000 3.461570 0.000000 
#    z 0.000000 0.000000 3.288520 
# 
# 
# High freq. dielectric constant tensor:
#      x y z
#    x 1.649190 0.000000 0.000000 
#    y 0.000000 1.690670 0.000000 
#    z 0.000000 0.000000 1.676450 
# 
# From -- ./inp_files/14908.got.cif
#   From: 2010.06.25/outbox.cif.g09.slc.cpg/sg43_8_cif.got.tgz:14908.got - 2010.06.26 16:48:59.
