data_PCOD8186951
_publ_section_title
;
Structure prediction by ZEFSAII (Michael W. Deem and Ramdas Pophale) SiO2 
 PCOD8186951
Probable space group: F D D 2
;
_chemical_formula_sum "Si O2"
_cell_formula_units_Z 120
_cell_length_a 17.287643
_cell_length_b 16.195136
_cell_length_c 21.986756
_cell_angle_alpha 90.000000
_cell_angle_beta 90.000000
_cell_angle_gamma 90.000000
_cell_volume 6155.758051
_symmetry_space_group_name_H-M "F D D 2"
_symmetry_group_IT_number 43
_symmetry_cell_setting 'orthorhombic'
loop_
_space_group_symop_operation_xyz
x,y,z
-x,-y,z
1/4-x,1/4+y,1/4+z
1/4+x,1/4-y,1/4+z
x,1/2+y,1/2+z
-x,1/2-y,1/2+z
1/4-x,3/4+y,3/4+z
1/4+x,3/4-y,3/4+z
1/2+x,y,1/2+z
1/2-x,-y,1/2+z
3/4-x,1/4+y,3/4+z
3/4+x,1/4-y,3/4+z
1/2+x,1/2+y,z
1/2-x,1/2-y,z
3/4-x,3/4+y,1/4+z
3/4+x,3/4-y,1/4+z
loop_
_atom_site_type_symbol
_atom_site_label
_atom_site_fract_x
_atom_site_fract_y
_atom_site_fract_z
Si Si1 0.113812 0.848286 0.574470
Si Si2 0.925060 0.051093 0.464888
Si Si3 0.481417 0.234824 0.539270
Si Si4 0.848031 0.907509 0.393829
Si Si5 0.742161 0.084159 0.116901
Si Si6 0.500000 0.500000 0.859283
Si Si7 0.031280 0.161947 0.915584
Si Si8 0.317854 0.813850 0.011217
O O1 0.123727 0.918297 0.522792
O O2 0.177384 0.774613 0.566200
O O3 0.131029 0.890052 0.641091
O O4 0.028851 0.810408 0.568399
O O5 0.953260 0.131784 0.428524
O O6 0.870979 0.995855 0.422110
O O7 0.000000 0.000000 0.487014
O O8 0.466897 0.169371 0.592627
O O9 0.528110 0.187493 0.486043
O O10 0.401023 0.270991 0.514826
O O11 0.809721 0.848659 0.443644
O O12 0.921681 0.868846 0.360297
O O13 0.690336 0.111543 0.059306
O O14 0.748414 0.985847 0.122382
O O15 0.479248 0.579851 0.902231
O O16 0.250000 0.750000 0.025503
#
# Coordination Sequence:
#
# PCOD8186951 Si02
#       8
#    16  16  16  16  16   8  16  16
#     4  10  22  44  64  95 132 180 225 279 332 414
#     4  10  18  37  68 103 133 165 216 283 349 395
#     4  12  22  43  69  97 136 175 226 281 342 404
#     4  11  23  38  65 104 133 174 224 278 339 406
#     4  11  19  40  70  97 137 175 215 289 351 390
#     4   8  24  46  62  86 134 180 226 272 322 414
#     4  10  22  44  68  89 132 180 221 281 340 391
#     4  12  23  41  67 104 141 171 228 285 338 419
#
# _framework density 19.493943000000002
#
# number of rings (size 3 to 8) (size 9 to 14) (size 15 to 20)
#    0.800    0.533    5.333    2.000    0.000    1.067 
#    3.600    0.000    0.000    0.000    0.000    0.000 
#    0.000    0.000    0.000    0.000    0.000    0.000 
#
# Total GULP energy -371820.919190 kJ/mol
# GULP energy per Si atom -12394.030640 kJ/mol
# Density = 1.944957 g / cm^3
# Si number density = 19.493943 Si / 1000 Ang^3
#
#
#
# Elastic Constant Matrix: (Units=GPa)
#
#
# Indices 1 2 3 4 5 6 
#
# 1 81.9725 34.6635 48.9293 0.0000 0.0000 0.0000
# 2 34.6635 120.1356 48.0626 0.0000 0.0000 0.0000
# 3 48.9293 48.0626 130.0696 0.0000 0.0000 0.0000
# 4 0.0000 0.0000 0.0000 32.4564 0.0000 0.0000
# 5 0.0000 0.0000 0.0000 0.0000 35.5853 0.0000
# 6 0.0000 0.0000 0.0000 0.0000 0.0000 28.2129
#
#
#
# Elastic Compliance Matrix: (Units=1/GPa)
#
#
# Indices 1 2 3 4 5 6 
#
# 1 0.016426 -0.002661 -0.005196 0.000000 0.000000 0.000000
# 2 -0.002661 0.010199 -0.002768 0.000000 0.000000 0.000000
# 3 -0.005196 -0.002768 0.010665 0.000000 0.000000 0.000000
# 4 0.000000 0.000000 0.000000 0.030811 0.000000 0.000000
# 5 0.000000 0.000000 0.000000 0.000000 0.028101 0.000000
# 6 0.000000 0.000000 0.000000 0.000000 0.000000 0.035445
#
#
# Mechanical properties :
#
#
# Convention : Reuss Voigt Hill
#
# Bulk Modulus (GPa) = 62.33814 66.16537 64.25176
# Shear Modulus (GPa) = 31.59702 32.61907 32.10805
#
# Velocity S-wave (km/s) = 4.03036 4.09503 4.06282
# Velocity P-wave (km/s) = 7.32844 7.50827 7.41890
#
# Compressibility (1/GPa) = 0.01604154
#
# Stress axis : x y z
#
# Youngs Moduli (GPa) = 60.88013 98.04947 93.76060
#
# Poissons Ratio (x) = 0.26088 0.48716
# Poissons Ratio (y) = 0.16199 0.25951
# Poissons Ratio (z) = 0.31632 0.27138
#
# Static dielectric constant tensor:
#      x y z
#    x 3.338860 0.000000 0.000000 
#    y 0.000000 3.624280 0.000000 
#    z 0.000000 0.000000 3.538820 
# 
# 
# High freq. dielectric constant tensor:
#      x y z
#    x 1.736640 0.000000 0.000000 
#    y 0.000000 1.766240 0.000000 
#    z 0.000000 0.000000 1.754810 
# 
# From -- ./inp_files/18075.got.cif
#   From: 2010.06.25/outbox.cif.g09.slc.cpg/sg43_10_cif.got.tgz:18075.got - 2010.06.26 16:48:59.
