data_PCOD8186829
_publ_section_title
;
Structure prediction by ZEFSAII (Michael W. Deem and Ramdas Pophale) SiO2 
 PCOD8186829
Probable space group: F M M 2
;
_chemical_formula_sum "Si O2"
_cell_formula_units_Z 80
_cell_length_a 8.567494
_cell_length_b 18.265224
_cell_length_c 25.522919
_cell_angle_alpha 90.000000
_cell_angle_beta 90.000000
_cell_angle_gamma 90.000000
_cell_volume 3994.010054
_symmetry_space_group_name_H-M "F M M 2"
_symmetry_group_IT_number 42
_symmetry_cell_setting 'orthorhombic'
loop_
_space_group_symop_operation_xyz
x,y,z
-x,-y,z
-x,y,z
x,-y,z
x,1/2+y,1/2+z
-x,1/2-y,1/2+z
-x,1/2+y,1/2+z
x,1/2-y,1/2+z
1/2+x,y,1/2+z
1/2-x,-y,1/2+z
1/2-x,y,1/2+z
1/2+x,-y,1/2+z
1/2+x,1/2+y,z
1/2-x,1/2-y,z
1/2-x,1/2+y,z
1/2+x,1/2-y,z
loop_
_atom_site_type_symbol
_atom_site_label
_atom_site_fract_x
_atom_site_fract_y
_atom_site_fract_z
Si Si1 0.681025 0.085132 0.843530
Si Si2 0.317666 0.330756 0.746671
Si Si3 0.680397 0.085858 0.652927
Si Si4 0.185222 0.581132 0.535458
Si Si5 0.317375 0.829174 0.438473
O O1 0.500000 0.099770 0.854808
O O2 0.727419 0.121979 0.789327
O O3 0.780724 0.117664 0.890662
O O4 0.720008 0.000000 0.838839
O O5 0.500000 0.328745 0.759859
O O6 0.250000 0.250000 0.746758
O O7 0.290833 0.367404 0.690354
O O8 0.500000 0.106391 0.663259
O O9 0.731163 0.107099 0.593787
O O10 0.706725 0.000000 0.662818
O O11 0.254215 0.500000 0.524545
O O12 0.253937 0.637016 0.492227
O O13 0.000000 0.576692 0.531173
O O14 0.500000 0.820962 0.444303
O O15 0.250000 0.750000 0.426799
#
# Coordination Sequence:
#
# PCOD8186829 Si02
#       5
#    16  16  16  16  16
#     4  11  24  42  63  86 113 146 186 233 286 342
#     4  12  25  40  59  84 116 151 190 235 284 338
#     4   9  18  36  61  87 117 152 190 233 282 336
#     4   8  16  33  58  85 113 150 193 234 279 333
#     4  11  22  37  58  85 119 154 191 234 281 335
#
# _framework density 20.029993999999999
#
# number of rings (size 3 to 8) (size 9 to 14) (size 15 to 20)
#    0.000    1.800    0.000    6.000    0.000    6.000 
#    0.000    4.000    0.000    2.400    0.000    0.000 
#    0.000    0.000    0.000    0.000    0.000    0.000 
#
# Total GULP energy -248052.218652 kJ/mol
# GULP energy per Si atom -12402.610933 kJ/mol
# Density = 1.998440 g / cm^3
# Si number density = 20.029994 Si / 1000 Ang^3
#
#
#
# Elastic Constant Matrix: (Units=GPa)
#
#
# Indices 1 2 3 4 5 6 
#
# 1 38.0992 26.7634 12.6384 0.0000 0.0000 0.0000
# 2 26.7634 114.3022 61.6757 0.0000 0.0000 0.0000
# 3 12.6384 61.6757 128.3429 0.0000 0.0000 0.0000
# 4 0.0000 0.0000 0.0000 10.7007 0.0000 0.0000
# 5 0.0000 0.0000 0.0000 0.0000 30.3612 0.0000
# 6 0.0000 0.0000 0.0000 0.0000 0.0000 22.0989
#
#
#
# Elastic Compliance Matrix: (Units=1/GPa)
#
#
# Indices 1 2 3 4 5 6 
#
# 1 0.031448 -0.007685 0.000596 0.000000 0.000000 0.000000
# 2 -0.007685 0.013690 -0.005822 0.000000 0.000000 0.000000
# 3 0.000596 -0.005822 0.010531 0.000000 0.000000 0.000000
# 4 0.000000 0.000000 0.000000 0.093451 0.000000 0.000000
# 5 0.000000 0.000000 0.000000 0.000000 0.032937 0.000000
# 6 0.000000 0.000000 0.000000 0.000000 0.000000 0.045251
#
#
# Mechanical properties :
#
#
# Convention : Reuss Voigt Hill
#
# Bulk Modulus (GPa) = 33.50432 53.65548 43.57990
# Shear Modulus (GPa) = 19.00579 24.60996 21.80788
#
# Velocity S-wave (km/s) = 3.08371 3.50902 3.30322
# Velocity P-wave (km/s) = 5.42609 6.57749 6.02933
#
# Compressibility (1/GPa) = 0.02984690
#
# Stress axis : x y z
#
# Youngs Moduli (GPa) = 31.79849 73.04854 94.96153
#
# Poissons Ratio (x) = 0.56139 -0.05663
# Poissons Ratio (y) = 0.24438 0.55284
# Poissons Ratio (z) = -0.01896 0.42527
#
# Static dielectric constant tensor:
#      x y z
#    x 3.448070 0.000000 0.000000 
#    y 0.000000 3.766070 0.000000 
#    z 0.000000 0.000000 3.875660 
# 
# 
# High freq. dielectric constant tensor:
#      x y z
#    x 1.764580 0.000000 0.000000 
#    y 0.000000 1.788000 0.000000 
#    z 0.000000 0.000000 1.798910 
# 
# From -- ./inp_files/31251.got.cif
#   From: 2010.03.12/outbox.cif.g09.slc.cpg/sg42_16_cif.got.tgz:31251.got - 2010.04.14 02:04:31.
