data_PCOD8186042
_publ_section_title
;
Structure prediction by ZEFSAII (Michael W. Deem and Ramdas Pophale) SiO2 
 PCOD8186042
Probable space group: F M M 2
;
_chemical_formula_sum "Si O2"
_cell_formula_units_Z 96
_cell_length_a 19.752169
_cell_length_b 10.319079
_cell_length_c 25.681236
_cell_angle_alpha 90.000000
_cell_angle_beta 90.000000
_cell_angle_gamma 90.000000
_cell_volume 5234.457186
_symmetry_space_group_name_H-M "F M M 2"
_symmetry_group_IT_number 42
_symmetry_cell_setting 'orthorhombic'
loop_
_space_group_symop_operation_xyz
x,y,z
-x,-y,z
-x,y,z
x,-y,z
x,1/2+y,1/2+z
-x,1/2-y,1/2+z
-x,1/2+y,1/2+z
x,1/2-y,1/2+z
1/2+x,y,1/2+z
1/2-x,-y,1/2+z
1/2-x,y,1/2+z
1/2+x,-y,1/2+z
1/2+x,1/2+y,z
1/2-x,1/2-y,z
1/2-x,1/2+y,z
1/2+x,1/2-y,z
loop_
_atom_site_type_symbol
_atom_site_label
_atom_site_fract_x
_atom_site_fract_y
_atom_site_fract_z
Si Si1 0.920571 0.500000 0.783330
Si Si2 0.079914 0.500000 0.949981
Si Si3 0.920083 0.000000 0.168445
Si Si4 0.920478 0.282450 0.589111
Si Si5 0.078823 0.000000 0.566017
Si Si6 0.301690 0.642951 0.894706
Si Si7 0.196644 0.644629 0.517393
Si Si8 0.420866 0.707634 0.366826
O O1 0.886214 0.500000 0.725920
O O2 0.900795 0.628206 0.815153
O O3 0.000000 0.500000 0.776032
O O4 0.102498 0.373332 0.917981
O O5 0.000000 0.500000 0.951829
O O6 0.113393 0.500000 0.007875
O O7 0.897511 0.868587 0.138568
O O8 0.000000 0.000000 0.173255
O O9 0.878407 0.329630 0.539411
O O10 0.000000 0.302566 0.576577
O O11 0.902937 0.129714 0.598690
O O12 0.000000 0.000000 0.553839
O O13 0.275705 0.500000 0.879032
O O14 0.250000 0.750000 0.872611
O O15 0.375258 0.663794 0.868075
O O16 0.309422 0.655675 0.956091
O O17 0.220874 0.500000 0.533845
O O18 0.250000 0.750000 0.539828
O O19 0.500000 0.743647 0.367859
#
# Coordination Sequence:
#
# PCOD8186042 Si02
#       8
#     8   8   8  16   8  16  16  16
#     4   8  16  31  56  82 101 131 171 214 267 318
#     4   8  14  25  44  71 101 132 163 201 249 301
#     4   9  17  32  54  78 103 132 173 221 264 308
#     4  10  19  32  52  77 103 135 179 220 259 303
#     4   9  17  26  42  73 107 133 159 200 252 299
#     4  10  22  35  50  75 109 144 174 206 255 313
#     4  10  21  35  49  73 107 145 178 207 253 312
#     4   9  17  31  53  80 102 129 175 220 260 307
#
# _framework density 18.340011000000001
#
# number of rings (size 3 to 8) (size 9 to 14) (size 15 to 20)
#    0.000    2.667    0.833    2.000    3.500    2.333 
#    0.000    1.667    1.833    1.000    0.000    0.000 
#    0.000    0.000    0.000    0.000    0.000    0.000 
#
# Total GULP energy -297417.201318 kJ/mol
# GULP energy per Si atom -12392.383388 kJ/mol
# Density = 1.829827 g / cm^3
# Si number density = 18.340011 Si / 1000 Ang^3
#
#
#
# Elastic Constant Matrix: (Units=GPa)
#
#
# Indices 1 2 3 4 5 6 
#
# 1 71.1826 48.7322 18.6339 0.0000 0.0000 0.0000
# 2 48.7322 156.2984 55.2245 0.0000 0.0000 0.0000
# 3 18.6339 55.2245 73.0003 0.0000 0.0000 0.0000
# 4 0.0000 0.0000 0.0000 12.5092 0.0000 0.0000
# 5 0.0000 0.0000 0.0000 0.0000 11.5472 0.0000
# 6 0.0000 0.0000 0.0000 0.0000 0.0000 27.2256
#
#
#
# Elastic Compliance Matrix: (Units=1/GPa)
#
#
# Indices 1 2 3 4 5 6 
#
# 1 0.017873 -0.005405 -0.000473 0.000000 0.000000 0.000000
# 2 -0.005405 0.010367 -0.006463 0.000000 0.000000 0.000000
# 3 -0.000473 -0.006463 0.018708 0.000000 0.000000 0.000000
# 4 0.000000 0.000000 0.000000 0.079941 0.000000 0.000000
# 5 0.000000 0.000000 0.000000 0.000000 0.086601 0.000000
# 6 0.000000 0.000000 0.000000 0.000000 0.000000 0.036730
#
#
# Mechanical properties :
#
#
# Convention : Reuss Voigt Hill
#
# Bulk Modulus (GPa) = 44.91210 60.62918 52.77064
# Shear Modulus (GPa) = 17.71009 22.11576 19.91293
#
# Velocity S-wave (km/s) = 3.11087 3.47634 3.29867
# Velocity P-wave (km/s) = 6.11924 7.01737 6.58364
#
# Compressibility (1/GPa) = 0.02226571
#
# Stress axis : x y z
#
# Youngs Moduli (GPa) = 55.95097 96.46164 53.45217
#
# Poissons Ratio (x) = 0.52142 0.02528
# Poissons Ratio (y) = 0.30244 0.34544
# Poissons Ratio (z) = 0.02646 0.62340
#
# Static dielectric constant tensor:
#      x y z
#    x 3.172320 0.000000 0.000000 
#    y 0.000000 3.697130 0.000000 
#    z 0.000000 0.000000 3.491320 
# 
# 
# High freq. dielectric constant tensor:
#      x y z
#    x 1.692300 0.000000 0.000000 
#    y 0.000000 1.718250 0.000000 
#    z 0.000000 0.000000 1.668230 
# 
# From -- ./inp_files/30282.got.cif
#   From: 2010.03.12/outbox.cif.g09.slc.cpg/sg42_16_cif.got.tgz:30282.got - 2010.04.14 02:04:31.
