data_PCOD8186543
_publ_section_title
;
Structure prediction by ZEFSAII (Michael W. Deem and Ramdas Pophale) SiO2 
 PCOD8186543
Probable space group: F M M 2
;
_chemical_formula_sum "Si O2"
_cell_formula_units_Z 72
_cell_length_a 12.227247
_cell_length_b 23.828255
_cell_length_c 13.116648
_cell_angle_alpha 90.000000
_cell_angle_beta 90.000000
_cell_angle_gamma 90.000000
_cell_volume 3821.587330
_symmetry_space_group_name_H-M "F M M 2"
_symmetry_group_IT_number 42
_symmetry_cell_setting 'orthorhombic'
loop_
_space_group_symop_operation_xyz
x,y,z
-x,-y,z
-x,y,z
x,-y,z
x,1/2+y,1/2+z
-x,1/2-y,1/2+z
-x,1/2+y,1/2+z
x,1/2-y,1/2+z
1/2+x,y,1/2+z
1/2-x,-y,1/2+z
1/2-x,y,1/2+z
1/2+x,-y,1/2+z
1/2+x,1/2+y,z
1/2-x,1/2-y,z
1/2-x,1/2+y,z
1/2+x,1/2-y,z
loop_
_atom_site_type_symbol
_atom_site_label
_atom_site_fract_x
_atom_site_fract_y
_atom_site_fract_z
Si Si1 0.283821 0.415000 0.286360
Si Si2 0.000000 0.381143 0.690105
Si Si3 0.000000 0.255513 0.699613
Si Si4 0.000000 0.315525 0.500760
Si Si5 0.371286 0.500000 0.440469
Si Si6 0.824485 0.299845 0.334124
Si Si7 0.128892 0.000000 0.680267
O O1 0.393088 0.416760 0.218219
O O2 0.313357 0.445037 0.392894
O O3 0.250329 0.351225 0.301623
O O4 0.184278 0.445141 0.228540
O O5 0.000000 0.372181 0.567931
O O6 0.000000 0.319321 0.745371
O O7 0.894147 0.221353 0.737053
O O8 0.000000 0.260582 0.575804
O O9 0.105361 0.317262 0.430777
O O10 0.500000 0.500000 0.415743
O O11 0.350005 0.500000 0.560181
O O12 0.750000 0.250000 0.374136
O O13 0.000000 0.000000 0.706281
#
# Coordination Sequence:
#
# PCOD8186543 Si02
#       7
#    16   8   8   8   8  16   8
#     4  11  23  41  69  88 127 165 205 263 305 367
#     4  10  20  41  62  92 120 169 205 241 308 373
#     4   9  21  40  52  89 134 161 201 246 299 382
#     4   9  23  36  58  92 128 164 210 241 307 371
#     4  10  22  44  63  91 118 162 214 254 311 370
#     4  11  21  38  62  92 127 164 201 253 310 367
#     4  10  26  45  62  92 123 160 211 263 316 363
#
# _framework density 18.840339
#
# number of rings (size 3 to 8) (size 9 to 14) (size 15 to 20)
#    0.667    1.111    3.333    0.000    6.222    2.667 
#    0.000    0.000    0.000    0.000    0.000    0.000 
#    0.000    0.000    0.000    0.000    0.000    0.000 
#
# Total GULP energy -223154.827291 kJ/mol
# GULP energy per Si atom -12397.490405 kJ/mol
# Density = 1.879746 g / cm^3
# Si number density = 18.840339 Si / 1000 Ang^3
#
#
#
# Elastic Constant Matrix: (Units=GPa)
#
#
# Indices 1 2 3 4 5 6 
#
# 1 134.9096 38.6953 47.5599 0.0000 0.0000 0.0000
# 2 38.6953 88.8749 16.1494 0.0000 0.0000 0.0000
# 3 47.5599 16.1494 100.9564 0.0000 0.0000 0.0000
# 4 0.0000 0.0000 0.0000 10.2917 0.0000 0.0000
# 5 0.0000 0.0000 0.0000 0.0000 19.7170 0.0000
# 6 0.0000 0.0000 0.0000 0.0000 0.0000 32.1436
#
#
#
# Elastic Compliance Matrix: (Units=1/GPa)
#
#
# Indices 1 2 3 4 5 6 
#
# 1 0.009871 -0.003556 -0.004081 0.000000 0.000000 0.000000
# 2 -0.003556 0.012870 -0.000383 0.000000 0.000000 0.000000
# 3 -0.004081 -0.000383 0.011889 0.000000 0.000000 0.000000
# 4 0.000000 0.000000 0.000000 0.097166 0.000000 0.000000
# 5 0.000000 0.000000 0.000000 0.000000 0.050718 0.000000
# 6 0.000000 0.000000 0.000000 0.000000 0.000000 0.031110
#
#
# Mechanical properties :
#
#
# Convention : Reuss Voigt Hill
#
# Bulk Modulus (GPa) = 53.79730 58.83891 56.31810
# Shear Modulus (GPa) = 21.19883 27.25288 24.22585
#
# Velocity S-wave (km/s) = 3.35801 3.80744 3.58977
# Velocity P-wave (km/s) = 6.60691 7.11525 6.86579
#
# Compressibility (1/GPa) = 0.01858830
#
# Stress axis : x y z
#
# Youngs Moduli (GPa) = 101.30489 77.70148 84.10918
#
# Poissons Ratio (x) = 0.27632 0.34328
# Poissons Ratio (y) = 0.36026 0.03225
# Poissons Ratio (z) = 0.41346 0.02979
#
# Static dielectric constant tensor:
#      x y z
#    x 3.572180 0.000000 0.000000 
#    y 0.000000 3.351380 0.000000 
#    z 0.000000 0.000000 3.296110 
# 
# 
# High freq. dielectric constant tensor:
#      x y z
#    x 1.748270 0.000000 0.000000 
#    y 0.000000 1.728670 0.000000 
#    z 0.000000 0.000000 1.722770 
# 
# From -- ./inp_files/6900.got.cif
#   From: 2010.03.12/outbox.cif.g09.slc.cpg/sg42_4_cif.got.tgz:6900.got - 2010.04.14 02:04:31.
