data_PCOD8186701
_publ_section_title
;
Structure prediction by ZEFSAII (Michael W. Deem and Ramdas Pophale) SiO2 
 PCOD8186701
Probable space group: F M M 2
;
_chemical_formula_sum "Si O2"
_cell_formula_units_Z 96
_cell_length_a 21.896593
_cell_length_b 23.996405
_cell_length_c 9.401161
_cell_angle_alpha 90.000000
_cell_angle_beta 90.000000
_cell_angle_gamma 90.000000
_cell_volume 4939.741465
_symmetry_space_group_name_H-M "F M M 2"
_symmetry_group_IT_number 42
_symmetry_cell_setting 'orthorhombic'
loop_
_space_group_symop_operation_xyz
x,y,z
-x,-y,z
-x,y,z
x,-y,z
x,1/2+y,1/2+z
-x,1/2-y,1/2+z
-x,1/2+y,1/2+z
x,1/2-y,1/2+z
1/2+x,y,1/2+z
1/2-x,-y,1/2+z
1/2-x,y,1/2+z
1/2+x,-y,1/2+z
1/2+x,1/2+y,z
1/2-x,1/2-y,z
1/2-x,1/2+y,z
1/2+x,1/2-y,z
loop_
_atom_site_type_symbol
_atom_site_label
_atom_site_fract_x
_atom_site_fract_y
_atom_site_fract_z
Si Si1 0.071102 0.565784 0.294590
Si Si2 0.000000 0.803381 0.138936
Si Si3 0.617929 0.858545 0.535804
Si Si4 0.671250 0.793527 0.294089
Si Si5 0.697305 0.163275 0.794257
Si Si6 0.881774 0.641005 0.053101
Si Si7 0.500000 0.195403 0.951557
O O1 0.075558 0.500000 0.295297
O O2 0.105659 0.587672 0.436243
O O3 0.000000 0.585817 0.293544
O O4 0.106387 0.587355 0.153517
O O5 0.000000 0.778942 0.295913
O O6 0.057363 0.843411 0.119567
O O7 0.000000 0.748787 0.047523
O O8 0.633759 0.806208 0.435999
O O9 0.671571 0.867820 0.653064
O O10 0.680818 0.728238 0.294118
O O11 0.729451 0.835700 0.293875
O O12 0.633573 0.806356 0.152443
O O13 0.671931 0.132137 0.935794
O O14 0.942564 0.655265 0.969043
#
# Coordination Sequence:
#
# PCOD8186701 Si02
#       7
#    16   8  16  16  16  16   8
#     4  10  22  42  62  82 113 154 204 253 312 366
#     4  12  24  34  54  87 127 157 183 232 296 359
#     4  11  22  36  57  84 115 152 198 240 291 350
#     4  10  22  35  56  84 122 167 191 219 282 353
#     4  11  20  37  56  85 123 157 195 234 275 352
#     4  11  22  36  57  84 115 152 198 240 291 350
#     4  12  24  34  54  87 127 157 183 232 296 359
#
# _framework density 19.434215999999999
#
# number of rings (size 3 to 8) (size 9 to 14) (size 15 to 20)
#    0.000    1.167    3.333    4.000    4.667    2.667 
#    0.000    0.833    0.000   19.000    0.000    0.000 
#    0.000    0.000    0.000    0.000    0.000    0.000 
#
# Total GULP energy -297546.547537 kJ/mol
# GULP energy per Si atom -12397.772814 kJ/mol
# Density = 1.938998 g / cm^3
# Si number density = 19.434216 Si / 1000 Ang^3
#
#
#
# Elastic Constant Matrix: (Units=GPa)
#
#
# Indices 1 2 3 4 5 6 
#
# 1 88.8965 18.7740 32.8931 -0.0002 0.0006 0.0002
# 2 18.7740 66.7282 28.6802 -0.0005 0.0007 0.0002
# 3 32.8931 28.6802 144.2231 -0.0023 0.0018 0.0010
# 4 -0.0002 -0.0005 -0.0023 15.2189 0.0006 0.0003
# 5 0.0006 0.0007 0.0018 0.0006 10.8041 -0.0006
# 6 0.0002 0.0002 0.0010 0.0003 -0.0006 23.7911
#
#
#
# Elastic Compliance Matrix: (Units=1/GPa)
#
#
# Indices 1 2 3 4 5 6 
#
# 1 0.012667 -0.002539 -0.002384 0.000000 0.000000 0.000000
# 2 -0.002539 0.016896 -0.002781 0.000000 0.000000 0.000000
# 3 -0.002384 -0.002781 0.008030 0.000001 -0.000001 0.000000
# 4 0.000000 0.000000 0.000001 0.065708 -0.000004 -0.000001
# 5 0.000000 0.000000 -0.000001 -0.000004 0.092557 0.000002
# 6 0.000000 0.000000 0.000000 -0.000001 0.000002 0.042033
#
#
# Mechanical properties :
#
#
# Convention : Reuss Voigt Hill
#
# Bulk Modulus (GPa) = 45.07476 51.17137 48.12307
# Shear Modulus (GPa) = 19.17952 24.59619 21.88785
#
# Velocity S-wave (km/s) = 3.14490 3.56140 3.35961
# Velocity P-wave (km/s) = 6.03581 6.58021 6.31388
#
# Compressibility (1/GPa) = 0.02218536
#
# Stress axis : x y z
#
# Youngs Moduli (GPa) = 78.94234 59.18641 124.52636
#
# Poissons Ratio (x) = 0.15029 0.29689
# Poissons Ratio (y) = 0.20046 0.34628
# Poissons Ratio (z) = 0.18821 0.16458
#
# Static dielectric constant tensor:
#      x y z
#    x 4.009630 0.000000 0.000010 
#    y 0.000000 3.020590 0.000000 
#    z 0.000010 0.000000 5.511500 
# 
# 
# High freq. dielectric constant tensor:
#      x y z
#    x 1.773110 0.000000 0.000000 
#    y 0.000000 1.702430 0.000000 
#    z 0.000000 0.000000 1.777240 
# 
# From -- ./inp_files/4738.got.cif
#   From: 2010.03.12/outbox.cif.g09.slc.cpg/sg42_3_cif.got.tgz:4738.got - 2010.04.14 02:04:31.
