data_PCOD8186998
_publ_section_title
;
Structure prediction by ZEFSAII (Michael W. Deem and Ramdas Pophale) SiO2 
 PCOD8186998
Probable space group: F D D 2
;
_chemical_formula_sum "Si O2"
_cell_formula_units_Z 112
_cell_length_a 14.726746
_cell_length_b 32.316776
_cell_length_c 11.815412
_cell_angle_alpha 90.000000
_cell_angle_beta 90.000000
_cell_angle_gamma 90.000000
_cell_volume 5623.202124
_symmetry_space_group_name_H-M "F D D 2"
_symmetry_group_IT_number 43
_symmetry_cell_setting 'orthorhombic'
loop_
_space_group_symop_operation_xyz
x,y,z
-x,-y,z
1/4-x,1/4+y,1/4+z
1/4+x,1/4-y,1/4+z
x,1/2+y,1/2+z
-x,1/2-y,1/2+z
1/4-x,3/4+y,3/4+z
1/4+x,3/4-y,3/4+z
1/2+x,y,1/2+z
1/2-x,-y,1/2+z
3/4-x,1/4+y,3/4+z
3/4+x,1/4-y,3/4+z
1/2+x,1/2+y,z
1/2-x,1/2-y,z
3/4-x,3/4+y,1/4+z
3/4+x,3/4-y,1/4+z
loop_
_atom_site_type_symbol
_atom_site_label
_atom_site_fract_x
_atom_site_fract_y
_atom_site_fract_z
Si Si1 0.393625 0.842412 0.246510
Si Si2 0.594376 0.977705 0.839689
Si Si3 0.399297 0.496047 0.093289
Si Si4 0.901227 0.661950 0.286748
Si Si5 0.648083 0.178073 0.502050
Si Si6 0.593854 0.567812 0.803568
Si Si7 0.788752 0.005780 0.870576
O O1 0.341283 0.817772 0.146833
O O2 0.498371 0.828901 0.238143
O O3 0.356820 0.830191 0.369131
O O4 0.380870 0.891871 0.226755
O O5 0.680485 0.003333 0.887254
O O6 0.500000 0.000000 0.870618
O O7 0.607790 0.974968 0.703893
O O8 0.500000 0.500000 0.042609
O O9 0.376451 0.447693 0.127268
O O10 0.331240 0.510397 0.995255
O O11 0.895570 0.614530 0.327433
O O12 0.831981 0.667191 0.182602
O O13 0.745292 0.200363 0.519502
O O14 0.563381 0.204421 0.545486
O O15 0.671217 0.532777 0.797590
#
# Coordination Sequence:
#
# PCOD8186998 Si02
#       7
#    16  16  16  16  16  16  16
#     4  10  19  37  57  86 124 159 189 241 317 365
#     4  11  24  39  60  81 126 174 201 233 309 382
#     4  10  20  37  62  82 116 165 203 241 305 368
#     4   9  17  36  59  87 121 157 197 250 313 348
#     4  10  20  31  63  98 119 142 202 272 299 346
#     4   9  18  33  61  92 114 149 196 259 303 350
#     4  11  20  37  64  90 116 154 212 256 297 351
#
# _framework density 19.917477000000002
#
# number of rings (size 3 to 8) (size 9 to 14) (size 15 to 20)
#    0.000    2.000    2.857    3.000    0.000    1.143 
#    0.000    0.000   12.571    0.000    0.000    0.000 
#    0.000    0.000    0.000    0.000    0.000    0.000 
#
# Total GULP energy -346949.311785 kJ/mol
# GULP energy per Si atom -12391.046849 kJ/mol
# Density = 1.987214 g / cm^3
# Si number density = 19.917477 Si / 1000 Ang^3
#
#
#
# Elastic Constant Matrix: (Units=GPa)
#
#
# Indices 1 2 3 4 5 6 
#
# 1 124.6131 28.6668 28.4078 0.0000 0.0000 0.0000
# 2 28.6668 97.2786 24.3667 0.0000 0.0000 0.0000
# 3 28.4078 24.3667 75.9895 0.0000 0.0000 0.0000
# 4 0.0000 0.0000 0.0000 26.9361 0.0000 0.0000
# 5 0.0000 0.0000 0.0000 0.0000 29.3731 0.0000
# 6 0.0000 0.0000 0.0000 0.0000 0.0000 25.8887
#
#
#
# Elastic Compliance Matrix: (Units=1/GPa)
#
#
# Indices 1 2 3 4 5 6 
#
# 1 0.009114 -0.001992 -0.002768 0.000000 0.000000 0.000000
# 2 -0.001992 0.011613 -0.002979 0.000000 0.000000 0.000000
# 3 -0.002768 -0.002979 0.015150 0.000000 0.000000 0.000000
# 4 0.000000 0.000000 0.000000 0.037125 0.000000 0.000000
# 5 0.000000 0.000000 0.000000 0.000000 0.034045 0.000000
# 6 0.000000 0.000000 0.000000 0.000000 0.000000 0.038627
#
#
# Mechanical properties :
#
#
# Convention : Reuss Voigt Hill
#
# Bulk Modulus (GPa) = 49.02526 51.19598 50.11062
# Shear Modulus (GPa) = 29.77029 30.86890 30.31960
#
# Velocity S-wave (km/s) = 3.87031 3.94107 3.90585
# Velocity P-wave (km/s) = 6.68132 6.81684 6.74942
#
# Compressibility (1/GPa) = 0.02039765
#
# Stress axis : x y z
#
# Youngs Moduli (GPa) = 109.71779 86.10977 66.00717
#
# Poissons Ratio (x) = 0.17157 0.18273
# Poissons Ratio (y) = 0.21861 0.19663
# Poissons Ratio (z) = 0.30374 0.25652
#
# Static dielectric constant tensor:
#      x y z
#    x 3.712780 0.000000 0.000000 
#    y 0.000000 3.838810 0.000000 
#    z 0.000000 0.000000 3.332280 
# 
# 
# High freq. dielectric constant tensor:
#      x y z
#    x 1.780040 0.000000 0.000000 
#    y 0.000000 1.774940 0.000000 
#    z 0.000000 0.000000 1.746540 
# 
# From -- ./inp_files/6321.got.cif
#   From: 2010.06.25/outbox.cif.g09.slc.cpg/sg43_4_cif.got.tgz:6321.got - 2010.06.26 16:48:59.
