data_PCOD8186536
_publ_section_title
;
Structure prediction by ZEFSAII (Michael W. Deem and Ramdas Pophale) SiO2 
 PCOD8186536
Probable space group: F M M 2
;
_chemical_formula_sum "Si O2"
_cell_formula_units_Z 72
_cell_length_a 9.572056
_cell_length_b 26.262223
_cell_length_c 14.002949
_cell_angle_alpha 90.000000
_cell_angle_beta 90.000000
_cell_angle_gamma 90.000000
_cell_volume 3520.109899
_symmetry_space_group_name_H-M "F M M 2"
_symmetry_group_IT_number 42
_symmetry_cell_setting 'orthorhombic'
loop_
_space_group_symop_operation_xyz
x,y,z
-x,-y,z
-x,y,z
x,-y,z
x,1/2+y,1/2+z
-x,1/2-y,1/2+z
-x,1/2+y,1/2+z
x,1/2-y,1/2+z
1/2+x,y,1/2+z
1/2-x,-y,1/2+z
1/2-x,y,1/2+z
1/2+x,-y,1/2+z
1/2+x,1/2+y,z
1/2-x,1/2-y,z
1/2-x,1/2+y,z
1/2+x,1/2-y,z
loop_
_atom_site_type_symbol
_atom_site_label
_atom_site_fract_x
_atom_site_fract_y
_atom_site_fract_z
Si Si1 0.500000 0.372495 0.525400
Si Si2 0.000000 0.161012 0.930032
Si Si3 0.660036 0.000000 0.323617
Si Si4 0.500000 0.818110 0.214976
Si Si5 0.750000 0.250000 0.269282
Si Si6 0.000000 0.724020 0.897931
Si Si7 0.152749 0.000000 0.138615
Si Si8 0.784867 0.918995 0.981546
O O1 0.500000 0.362967 0.638450
O O2 0.500000 0.317235 0.479274
O O3 0.624379 0.407547 0.492380
O O4 0.000000 0.153737 0.816151
O O5 0.000000 0.221245 0.951531
O O6 0.865358 0.134555 0.976299
O O7 0.694330 0.050156 0.384113
O O8 0.500000 0.000000 0.295243
O O9 0.738702 0.000000 0.223753
O O10 0.354335 0.785406 0.205784
O O11 0.641834 0.282437 0.335149
O O12 0.164970 0.049788 0.073080
O O13 0.000000 0.000000 0.185852
#
# Coordination Sequence:
#
# PCOD8186536 Si02
#       8
#     8   8   8   8   8   8   8  16
#     4  12  26  37  61 103 136 168 220 273 302 397
#     4  10  20  43  69  85 128 190 212 267 324 387
#     4  11  25  46  77  91 129 168 208 274 340 390
#     4  10  22  36  62  91 126 166 232 257 324 364
#     4   8  18  40  62  80 120 178 220 268 312 374
#     4  10  20  40  62  90 130 174 220 264 320 372
#     4  11  25  46  69 101 123 162 220 268 332 396
#     4  11  24  43  66  97 135 170 215 263 330 390
#
# _framework density 20.453907000000001
#
# number of rings (size 3 to 8) (size 9 to 14) (size 15 to 20)
#    0.000    1.778    2.222    3.333    6.222    3.556 
#    0.000    1.111    0.000    0.000    0.000    0.000 
#    0.000    0.000    0.000    0.000    0.000    0.000 
#
# Total GULP energy -223130.483861 kJ/mol
# GULP energy per Si atom -12396.137992 kJ/mol
# Density = 2.040735 g / cm^3
# Si number density = 20.453907 Si / 1000 Ang^3
#
#
#
# Elastic Constant Matrix: (Units=GPa)
#
#
# Indices 1 2 3 4 5 6 
#
# 1 192.9866 48.0069 46.3176 0.0000 0.0000 0.0000
# 2 48.0069 91.4716 24.1528 0.0000 0.0000 0.0000
# 3 46.3176 24.1528 99.7402 0.0000 0.0000 0.0000
# 4 0.0000 0.0000 0.0000 -26.4035 0.0000 0.0000
# 5 0.0000 0.0000 0.0000 0.0000 124.0502 0.0000
# 6 0.0000 0.0000 0.0000 0.0000 0.0000 32.4386
#
#
#
# Elastic Compliance Matrix: (Units=1/GPa)
#
#
# Indices 1 2 3 4 5 6 
#
# 1 0.006424 -0.002760 -0.002315 0.000000 0.000000 0.000000
# 2 -0.002760 0.012865 -0.001834 0.000000 0.000000 0.000000
# 3 -0.002315 -0.001834 0.011545 0.000000 0.000000 0.000000
# 4 0.000000 0.000000 0.000000 -0.037874 0.000000 0.000000
# 5 0.000000 0.000000 0.000000 0.000000 0.008061 0.000000
# 6 0.000000 0.000000 0.000000 0.000000 0.000000 0.030827
#
#
# Mechanical properties :
#
#
# Convention : Reuss Voigt Hill
#
# Bulk Modulus (GPa) = 58.76501 69.01700 63.89101
# Shear Modulus (GPa) = 97.39306 43.73180 70.56243
#
# Velocity S-wave (km/s) = 6.90791 4.62894 5.87989
# Velocity P-wave (km/s) = 9.61345 7.89844 8.79784
#
# Compressibility (1/GPa) = 0.01701693
#
# Stress axis : x y z
#
# Youngs Moduli (GPa) = 155.66907 77.72931 86.61774
#
# Poissons Ratio (x) = 0.21455 0.20050
# Poissons Ratio (y) = 0.42968 0.15882
# Poissons Ratio (z) = 0.36033 0.14252
#
# Static dielectric constant tensor:
#      x y z
#    x 3.026230 0.000000 0.000000 
#    y 0.000000 3.694500 0.000000 
#    z 0.000000 0.000000 3.515030 
# 
# 
# High freq. dielectric constant tensor:
#      x y z
#    x 1.824050 0.000000 0.000000 
#    y 0.000000 1.797130 0.000000 
#    z 0.000000 0.000000 1.786210 
# 
# From -- ./inp_files/12117.got.cif
#   From: 2010.03.12/outbox.cif.g09.slc.cpg/sg42_7_cif.got.tgz:12117.got - 2010.04.14 02:04:31.
