data_PCOD8186018
_publ_section_title
;
Structure prediction by ZEFSAII (Michael W. Deem and Ramdas Pophale) SiO2 
 PCOD8186018
Probable space group: F M M 2
;
_chemical_formula_sum "Si O2"
_cell_formula_units_Z 104
_cell_length_a 23.256900
_cell_length_b 14.034989
_cell_length_c 15.347606
_cell_angle_alpha 90.000000
_cell_angle_beta 90.000000
_cell_angle_gamma 90.000000
_cell_volume 5009.617226
_symmetry_space_group_name_H-M "F M M 2"
_symmetry_group_IT_number 42
_symmetry_cell_setting 'orthorhombic'
loop_
_space_group_symop_operation_xyz
x,y,z
-x,-y,z
-x,y,z
x,-y,z
x,1/2+y,1/2+z
-x,1/2-y,1/2+z
-x,1/2+y,1/2+z
x,1/2-y,1/2+z
1/2+x,y,1/2+z
1/2-x,-y,1/2+z
1/2-x,y,1/2+z
1/2+x,-y,1/2+z
1/2+x,1/2+y,z
1/2-x,1/2-y,z
1/2-x,1/2+y,z
1/2+x,1/2-y,z
loop_
_atom_site_type_symbol
_atom_site_label
_atom_site_fract_x
_atom_site_fract_y
_atom_site_fract_z
Si Si1 0.659381 0.607767 0.517850
Si Si2 0.659381 0.107767 0.383641
Si Si3 0.250000 0.250000 0.450746
Si Si4 0.936485 0.804275 0.200746
Si Si5 0.397593 0.397017 0.700746
Si Si6 0.434465 0.388072 0.377714
Si Si7 0.065535 0.611928 0.523777
O O1 0.677581 0.500000 0.490551
O O2 0.711630 0.680998 0.509967
O O3 0.643142 0.610470 0.618036
O O4 0.605187 0.641898 0.459033
O O5 0.711630 0.180998 0.391524
O O6 0.643142 0.110470 0.283455
O O7 0.605187 0.141898 0.442459
O O8 0.677581 0.000000 0.410940
O O9 0.941980 0.689760 0.200746
O O10 0.906885 0.840875 0.290026
O O11 0.906885 0.840875 0.111465
O O12 0.000000 0.849227 0.200746
O O13 0.430263 0.500000 0.700746
O O14 0.500000 0.352308 0.395626
O O15 0.433916 0.500000 0.363629
O O16 0.066084 0.500000 0.537862
O O17 0.000000 0.647692 0.505866
#
# Coordination Sequence:
#
# PCOD8186018 Si02
#       7
#    16  16   8  16  16  16  16
#     4  10  22  39  59  83 111 146 186 226 274 331
#     4  10  22  39  59  83 111 146 186 226 274 331
#     4  12  22  38  62  82 108 142 182 236 284 322
#     4  10  19  31  53  85 116 147 183 224 274 327
#     4  10  22  39  54  74 109 149 188 228 270 324
#     4   9  18  35  59  86 115 145 181 228 277 325
#     4   9  18  35  59  86 115 145 181 228 277 325
#
# _framework density 20.760069999999999
#
# number of rings (size 3 to 8) (size 9 to 14) (size 15 to 20)
#    0.000    2.154    0.000    2.769    0.000    4.000 
#    0.000    8.462    0.000    3.692    0.000    0.000 
#    0.000    0.000    0.000    0.000    0.000    0.000 
#
# Total GULP energy -322299.520705 kJ/mol
# GULP energy per Si atom -12396.135412 kJ/mol
# Density = 2.071282 g / cm^3
# Si number density = 20.760070 Si / 1000 Ang^3
#
#
#
# Elastic Constant Matrix: (Units=GPa)
#
#
# Indices 1 2 3 4 5 6 
#
# 1 88.7137 45.6154 54.8748 0.0000 0.0000 0.0000
# 2 45.6154 85.4244 48.5702 0.0000 0.0000 0.0000
# 3 54.8748 48.5702 172.0203 0.0000 0.0000 0.0000
# 4 0.0000 0.0000 0.0000 12.2750 0.0000 0.0000
# 5 0.0000 0.0000 0.0000 0.0000 3.8794 0.0000
# 6 0.0000 0.0000 0.0000 0.0000 0.0000 39.3771
#
#
#
# Elastic Compliance Matrix: (Units=1/GPa)
#
#
# Indices 1 2 3 4 5 6 
#
# 1 0.017078 -0.007173 -0.003422 0.000000 0.000000 0.000000
# 2 -0.007173 0.016958 -0.002500 0.000000 0.000000 0.000000
# 3 -0.003422 -0.002500 0.007611 0.000000 0.000000 0.000000
# 4 0.000000 0.000000 0.000000 0.081467 0.000000 0.000000
# 5 0.000000 0.000000 0.000000 0.000000 0.257774 0.000000
# 6 0.000000 0.000000 0.000000 0.000000 0.000000 0.025395
#
#
# Mechanical properties :
#
#
# Convention : Reuss Voigt Hill
#
# Bulk Modulus (GPa) = 64.70218 71.58659 68.14438
# Shear Modulus (GPa) = 11.42530 24.24617 17.83573
#
# Velocity S-wave (km/s) = 2.34850 3.42120 2.93428
# Velocity P-wave (km/s) = 6.21194 7.08264 6.66153
#
# Compressibility (1/GPa) = 0.01545543
#
# Stress axis : x y z
#
# Youngs Moduli (GPa) = 58.55631 58.96914 131.39134
#
# Poissons Ratio (x) = 0.42300 0.44967
# Poissons Ratio (y) = 0.42004 0.32846
# Poissons Ratio (z) = 0.20040 0.14741
#
# Static dielectric constant tensor:
#      x y z
#    x 3.495550 0.000000 0.000000 
#    y 0.000000 4.114810 0.000000 
#    z 0.000000 0.000000 3.824690 
# 
# 
# High freq. dielectric constant tensor:
#      x y z
#    x 1.772080 0.000000 0.000000 
#    y 0.000000 1.836090 0.000000 
#    z 0.000000 0.000000 1.820470 
# 
# From -- ./inp_files/16555.got.cif
#   From: 2010.03.12/outbox.cif.g09.slc.cpg/sg42_9_cif.got.tgz:16555.got - 2010.04.14 02:04:31.
