data_PCOD8186753
_publ_section_title
;
Structure prediction by ZEFSAII (Michael W. Deem and Ramdas Pophale) SiO2 
 PCOD8186753
Probable space group: F M M 2
;
_chemical_formula_sum "Si O2"
_cell_formula_units_Z 80
_cell_length_a 23.854525
_cell_length_b 18.015754
_cell_length_c 9.434091
_cell_angle_alpha 90.000000
_cell_angle_beta 90.000000
_cell_angle_gamma 90.000000
_cell_volume 4054.369044
_symmetry_space_group_name_H-M "F M M 2"
_symmetry_group_IT_number 42
_symmetry_cell_setting 'orthorhombic'
loop_
_space_group_symop_operation_xyz
x,y,z
-x,-y,z
-x,y,z
x,-y,z
x,1/2+y,1/2+z
-x,1/2-y,1/2+z
-x,1/2+y,1/2+z
x,1/2-y,1/2+z
1/2+x,y,1/2+z
1/2-x,-y,1/2+z
1/2-x,y,1/2+z
1/2+x,-y,1/2+z
1/2+x,1/2+y,z
1/2-x,1/2-y,z
1/2-x,1/2+y,z
1/2+x,1/2-y,z
loop_
_atom_site_type_symbol
_atom_site_label
_atom_site_fract_x
_atom_site_fract_y
_atom_site_fract_z
Si Si1 0.564676 0.087062 0.654720
Si Si2 0.349575 0.670340 0.330397
Si Si3 0.258551 0.416653 0.771327
Si Si4 0.659281 0.314099 0.649048
Si Si5 0.875229 0.916926 0.870041
O O1 0.500000 0.109475 0.647334
O O2 0.592921 0.131636 0.782594
O O3 0.594333 0.113041 0.509639
O O4 0.573104 0.000000 0.680153
O O5 0.300311 0.609762 0.332962
O O6 0.359929 0.700604 0.488817
O O7 0.331743 0.736389 0.227232
O O8 0.251301 0.500000 0.709348
O O9 0.281878 0.360505 0.649436
O O10 0.307246 0.416892 0.894232
O O11 0.612208 0.362456 0.735881
O O12 0.896867 0.000000 0.833541
#
# Coordination Sequence:
#
# PCOD8186753 Si02
#       5
#    16  16  16  16  16
#     4  10  22  41  65  92 123 162 206 253 304 363
#     4  12  23  38  60  88 125 166 204 254 306 365
#     4   9  21  36  60  91 122 156 197 249 308 369
#     4  10  23  38  57  90 121 159 202 250 313 358
#     4   8  18  38  61  86 119 154 198 246 300 365
#
# _framework density 19.7318
#
# number of rings (size 3 to 8) (size 9 to 14) (size 15 to 20)
#    1.200    1.000    0.000    2.400    2.800    4.800 
#    0.000    5.000    0.000    2.400    0.000    0.000 
#    0.000    0.000    0.000    0.000    0.000    0.000 
#
# Total GULP energy -247826.941850 kJ/mol
# GULP energy per Si atom -12391.347092 kJ/mol
# Density = 1.968689 g / cm^3
# Si number density = 19.731800 Si / 1000 Ang^3
#
#
#
# Elastic Constant Matrix: (Units=GPa)
#
#
# Indices 1 2 3 4 5 6 
#
# 1 101.8093 44.4099 50.6882 0.0000 0.0000 0.0000
# 2 44.4099 105.6731 50.2420 0.0000 0.0000 0.0000
# 3 50.6882 50.2420 134.4713 0.0001 0.0000 0.0000
# 4 0.0000 0.0000 0.0001 31.0709 0.0000 0.0000
# 5 0.0000 0.0000 0.0000 0.0000 22.8131 0.0000
# 6 0.0000 0.0000 0.0000 0.0000 0.0000 19.3686
#
#
#
# Elastic Compliance Matrix: (Units=1/GPa)
#
#
# Indices 1 2 3 4 5 6 
#
# 1 0.013291 -0.003896 -0.003555 0.000000 0.000000 0.000000
# 2 -0.003896 0.012649 -0.003258 0.000000 0.000000 0.000000
# 3 -0.003555 -0.003258 0.009993 0.000000 0.000000 0.000000
# 4 0.000000 0.000000 0.000000 0.032184 0.000000 0.000000
# 5 0.000000 0.000000 0.000000 0.000000 0.043834 0.000000
# 6 0.000000 0.000000 0.000000 0.000000 0.000000 0.051630
#
#
# Mechanical properties :
#
#
# Convention : Reuss Voigt Hill
#
# Bulk Modulus (GPa) = 68.87878 70.29264 69.58571
# Shear Modulus (GPa) = 26.33822 27.75810 27.04816
#
# Velocity S-wave (km/s) = 3.65747 3.75476 3.70644
# Velocity P-wave (km/s) = 7.26770 7.38235 7.32524
#
# Compressibility (1/GPa) = 0.01451826
#
# Stress axis : x y z
#
# Youngs Moduli (GPa) = 75.23681 79.05642 100.06507
#
# Poissons Ratio (x) = 0.30799 0.35568
# Poissons Ratio (y) = 0.29311 0.32597
# Poissons Ratio (z) = 0.26743 0.25753
#
# Static dielectric constant tensor:
#      x y z
#    x 3.301500 0.000000 0.000000 
#    y 0.000000 3.645170 0.000000 
#    z 0.000000 0.000000 3.363800 
# 
# 
# High freq. dielectric constant tensor:
#      x y z
#    x 1.734760 0.000000 0.000000 
#    y 0.000000 1.782510 0.000000 
#    z 0.000000 0.000000 1.750290 
# 
# From -- ./inp_files/5109.got.cif
#   From: 2010.03.12/outbox.cif.g09.slc.cpg/sg42_3_cif.got.tgz:5109.got - 2010.04.14 02:04:31.
