data_PCOD8186782
_publ_section_title
;
Structure prediction by ZEFSAII (Michael W. Deem and Ramdas Pophale) SiO2 
 PCOD8186782
Probable space group: F M M 2
;
_chemical_formula_sum "Si O2"
_cell_formula_units_Z 64
_cell_length_a 12.613039
_cell_length_b 23.215259
_cell_length_c 9.218188
_cell_angle_alpha 90.000000
_cell_angle_beta 90.000000
_cell_angle_gamma 90.000000
_cell_volume 2699.223417
_symmetry_space_group_name_H-M "F M M 2"
_symmetry_group_IT_number 42
_symmetry_cell_setting 'orthorhombic'
loop_
_space_group_symop_operation_xyz
x,y,z
-x,-y,z
-x,y,z
x,-y,z
x,1/2+y,1/2+z
-x,1/2-y,1/2+z
-x,1/2+y,1/2+z
x,1/2-y,1/2+z
1/2+x,y,1/2+z
1/2-x,-y,1/2+z
1/2-x,y,1/2+z
1/2+x,-y,1/2+z
1/2+x,1/2+y,z
1/2-x,1/2-y,z
1/2-x,1/2+y,z
1/2+x,1/2-y,z
loop_
_atom_site_type_symbol
_atom_site_label
_atom_site_fract_x
_atom_site_fract_y
_atom_site_fract_z
Si Si1 0.623517 0.097649 0.392920
Si Si2 0.800455 0.063918 0.578437
Si Si3 0.624546 0.219980 0.292837
Si Si4 0.375864 0.680761 0.487311
O O1 0.500000 0.081631 0.386597
O O2 0.675592 0.068474 0.535127
O O3 0.679654 0.074003 0.247609
O O4 0.643047 0.166555 0.403995
O O5 0.856294 0.112135 0.475833
O O6 0.842331 0.000000 0.538037
O O7 0.500000 0.228121 0.271026
O O8 0.673773 0.280590 0.355422
O O9 0.674377 0.204673 0.136918
O O10 0.500000 0.691990 0.485801
#
# Coordination Sequence:
#
# PCOD8186782 Si02
#       4
#    16  16  16  16
#     4  10  23  44  66  90 127 168 209 265 316 364
#     4  11  23  39  63  93 124 169 218 250 306 385
#     4   8  16  33  57  86 120 160 203 250 314 372
#     4   9  18  34  58  89 124 159 202 258 309 366
#
# _framework density 23.710525000000001
#
# number of rings (size 3 to 8) (size 9 to 14) (size 15 to 20)
#    0.000    2.500    0.000    3.000    0.000    6.500 
#    0.000   10.000    0.000    6.000    0.000    0.000 
#    0.000    0.000    0.000    0.000    0.000    0.000 
#
# Total GULP energy -198281.569777 kJ/mol
# GULP energy per Si atom -12392.598111 kJ/mol
# Density = 2.365656 g / cm^3
# Si number density = 23.710525 Si / 1000 Ang^3
#
#
#
# Elastic Constant Matrix: (Units=GPa)
#
#
# Indices 1 2 3 4 5 6 
#
# 1 70.6377 40.2359 48.9145 0.0000 0.0000 0.0000
# 2 40.2359 197.9444 63.1210 0.0000 0.0000 0.0000
# 3 48.9145 63.1210 86.7477 0.0000 0.0000 0.0000
# 4 0.0000 0.0000 0.0000 32.3537 0.0000 0.0000
# 5 0.0000 0.0000 0.0000 0.0000 31.3140 0.0000
# 6 0.0000 0.0000 0.0000 0.0000 0.0000 25.6846
#
#
#
# Elastic Compliance Matrix: (Units=1/GPa)
#
#
# Indices 1 2 3 4 5 6 
#
# 1 0.023302 -0.000712 -0.012621 0.000000 0.000000 0.000000
# 2 -0.000712 0.006600 -0.004401 0.000000 0.000000 0.000000
# 3 -0.012621 -0.004401 0.021847 0.000000 0.000000 0.000000
# 4 0.000000 0.000000 0.000000 0.030908 0.000000 0.000000
# 5 0.000000 0.000000 0.000000 0.000000 0.031935 0.000000
# 6 0.000000 0.000000 0.000000 0.000000 0.000000 0.038934
#
#
# Mechanical properties :
#
#
# Convention : Reuss Voigt Hill
#
# Bulk Modulus (GPa) = 61.42335 73.31917 67.37126
# Shear Modulus (GPa) = 25.71732 31.40769 28.56250
#
# Velocity S-wave (km/s) = 3.29696 3.64350 3.47455
# Velocity P-wave (km/s) = 6.36042 6.97781 6.67626
#
# Compressibility (1/GPa) = 0.01628045
#
# Stress axis : x y z
#
# Youngs Moduli (GPa) = 42.91438 151.51419 45.77300
#
# Poissons Ratio (x) = 0.10785 0.57772
# Poissons Ratio (y) = 0.03055 0.20145
# Poissons Ratio (z) = 0.54164 0.66682
#
# Static dielectric constant tensor:
#      x y z
#    x 4.330570 0.000000 0.000000 
#    y 0.000000 4.532460 0.000000 
#    z 0.000000 0.000000 4.212680 
# 
# 
# High freq. dielectric constant tensor:
#      x y z
#    x 1.949350 0.000000 0.000000 
#    y 0.000000 1.948800 0.000000 
#    z 0.000000 0.000000 1.913440 
# 
# From -- ./inp_files/2682.got.cif
#   From: 2010.03.12/outbox.cif.g09.slc.cpg/sg42_2_cif.got.tgz:2682.got - 2010.04.14 02:04:31.
