data_PCOD8186057
_publ_section_title
;
Structure prediction by ZEFSAII (Michael W. Deem and Ramdas Pophale) SiO2 
 PCOD8186057
Probable space group: F M M 2
;
_chemical_formula_sum "Si O2"
_cell_formula_units_Z 96
_cell_length_a 19.354443
_cell_length_b 14.171734
_cell_length_c 19.763674
_cell_angle_alpha 90.000000
_cell_angle_beta 90.000000
_cell_angle_gamma 90.000000
_cell_volume 5420.899441
_symmetry_space_group_name_H-M "F M M 2"
_symmetry_group_IT_number 42
_symmetry_cell_setting 'orthorhombic'
loop_
_space_group_symop_operation_xyz
x,y,z
-x,-y,z
-x,y,z
x,-y,z
x,1/2+y,1/2+z
-x,1/2-y,1/2+z
-x,1/2+y,1/2+z
x,1/2-y,1/2+z
1/2+x,y,1/2+z
1/2-x,-y,1/2+z
1/2-x,y,1/2+z
1/2+x,-y,1/2+z
1/2+x,1/2+y,z
1/2-x,1/2-y,z
1/2-x,1/2+y,z
1/2+x,1/2-y,z
loop_
_atom_site_type_symbol
_atom_site_label
_atom_site_fract_x
_atom_site_fract_y
_atom_site_fract_z
Si Si1 0.823616 0.707092 0.643790
Si Si2 0.218544 0.000000 0.133893
Si Si3 0.578798 0.807265 0.241721
Si Si4 0.347008 0.500000 0.733484
Si Si5 0.580336 0.185372 0.397736
Si Si6 0.717132 0.000000 0.992650
Si Si7 0.174958 0.290672 0.997260
Si Si8 0.834650 0.500000 0.387917
O O1 0.750000 0.750000 0.665883
O O2 0.824510 0.594089 0.647580
O O3 0.879867 0.731401 0.699157
O O4 0.843928 0.748424 0.570579
O O5 0.288086 0.000000 0.177449
O O6 0.231042 0.000000 0.054562
O O7 0.500000 0.800449 0.219692
O O8 0.604502 0.910807 0.222912
O O9 0.588739 0.782757 0.320357
O O10 0.315250 0.500000 0.808727
O O11 0.500000 0.173800 0.417156
O O12 0.615791 0.263331 0.444574
O O13 0.619422 0.087950 0.410347
O O14 0.672155 0.904564 0.997914
O O15 0.760865 0.000000 0.923944
O O16 0.250000 0.250000 0.974682
#
# Coordination Sequence:
#
# PCOD8186057 Si02
#       8
#    16   8  16   8  16   8  16   8
#     4  11  21  36  58  83 110 147 179 227 274 326
#     4  12  20  35  56  84 114 138 182 227 274 324
#     4  10  21  37  56  81 114 148 184 226 273 324
#     4  10  19  32  56  84 109 142 184 232 273 314
#     4  10  21  37  56  81 114 148 184 226 273 324
#     4  12  20  35  56  84 114 138 182 227 274 324
#     4  11  21  36  58  83 110 147 179 227 274 326
#     4  10  19  32  56  84 109 142 184 232 273 314
#
# _framework density 17.709237999999999
#
# number of rings (size 3 to 8) (size 9 to 14) (size 15 to 20)
#    0.000    1.333    6.667    0.500    0.000    4.667 
#    0.000    0.833    0.000    2.000    0.000    0.000 
#    0.000    0.000    0.000    0.000    0.000    0.000 
#
# Total GULP energy -297623.995108 kJ/mol
# GULP energy per Si atom -12400.999796 kJ/mol
# Density = 1.766893 g / cm^3
# Si number density = 17.709238 Si / 1000 Ang^3
#
#
#
# Elastic Constant Matrix: (Units=GPa)
#
#
# Indices 1 2 3 4 5 6 
#
# 1 71.7657 43.1789 57.0825 0.0000 0.0000 0.0000
# 2 43.1789 155.4369 45.0298 0.0000 0.0000 0.0000
# 3 57.0825 45.0298 77.2398 0.0000 0.0000 0.0000
# 4 0.0000 0.0000 0.0000 32.7752 0.0000 0.0000
# 5 0.0000 0.0000 0.0000 0.0000 33.2817 0.0000
# 6 0.0000 0.0000 0.0000 0.0000 0.0000 67.6701
#
#
#
# Elastic Compliance Matrix: (Units=1/GPa)
#
#
# Indices 1 2 3 4 5 6 
#
# 1 0.034696 -0.002659 -0.024091 0.000000 0.000000 0.000000
# 2 -0.002659 0.007945 -0.002666 0.000000 0.000000 0.000000
# 3 -0.024091 -0.002666 0.032305 0.000000 0.000000 0.000000
# 4 0.000000 0.000000 0.000000 0.030511 0.000000 0.000000
# 5 0.000000 0.000000 0.000000 0.000000 0.030047 0.000000
# 6 0.000000 0.000000 0.000000 0.000000 0.000000 0.014778
#
#
# Mechanical properties :
#
#
# Convention : Reuss Voigt Hill
#
# Bulk Modulus (GPa) = 62.06352 66.11385 64.08869
# Shear Modulus (GPa) = 23.31150 37.35550 30.33350
#
# Velocity S-wave (km/s) = 3.63209 4.59778 4.14316
# Velocity P-wave (km/s) = 7.26026 8.09939 7.69128
#
# Compressibility (1/GPa) = 0.01611253
#
# Stress axis : x y z
#
# Youngs Moduli (GPa) = 28.82138 125.87137 30.95449
#
# Poissons Ratio (x) = 0.33470 0.74574
# Poissons Ratio (y) = 0.07664 0.08254
# Poissons Ratio (z) = 0.69435 0.33563
#
# Static dielectric constant tensor:
#      x y z
#    x 3.164910 0.000000 0.000000 
#    y 0.000000 3.865570 0.000000 
#    z 0.000000 0.000000 3.360670 
# 
# 
# High freq. dielectric constant tensor:
#      x y z
#    x 1.665650 0.000000 0.000000 
#    y 0.000000 1.694350 0.000000 
#    z 0.000000 0.000000 1.691870 
# 
# From -- ./inp_files/25160.got.cif
#   From: 2010.03.12/outbox.cif.g09.slc.cpg/sg42_13_cif.got.tgz:25160.got - 2010.04.14 02:04:31.
