data_PCOD8186072
_publ_section_title
;
Structure prediction by ZEFSAII (Michael W. Deem and Ramdas Pophale) SiO2 
 PCOD8186072
Probable space group: F M M 2
;
_chemical_formula_sum "Si O2"
_cell_formula_units_Z 80
_cell_length_a 19.698315
_cell_length_b 7.696742
_cell_length_c 28.841600
_cell_angle_alpha 90.000000
_cell_angle_beta 90.000000
_cell_angle_gamma 90.000000
_cell_volume 4372.757128
_symmetry_space_group_name_H-M "F M M 2"
_symmetry_group_IT_number 42
_symmetry_cell_setting 'orthorhombic'
loop_
_space_group_symop_operation_xyz
x,y,z
-x,-y,z
-x,y,z
x,-y,z
x,1/2+y,1/2+z
-x,1/2-y,1/2+z
-x,1/2+y,1/2+z
x,1/2-y,1/2+z
1/2+x,y,1/2+z
1/2-x,-y,1/2+z
1/2-x,y,1/2+z
1/2+x,-y,1/2+z
1/2+x,1/2+y,z
1/2-x,1/2-y,z
1/2-x,1/2+y,z
1/2+x,1/2-y,z
loop_
_atom_site_type_symbol
_atom_site_label
_atom_site_fract_x
_atom_site_fract_y
_atom_site_fract_z
Si Si1 0.175906 0.297239 0.967220
Si Si2 0.919392 0.500000 0.214839
Si Si3 0.825112 0.795734 0.570615
Si Si4 0.420678 0.299094 0.386289
Si Si5 0.919838 0.500000 0.317865
Si Si6 0.422298 0.805994 0.649677
O O1 0.168759 0.500000 0.972587
O O2 0.250000 0.250000 0.947321
O O3 0.118929 0.230434 0.931684
O O4 0.165669 0.217044 0.018616
O O5 0.887223 0.500000 0.266434
O O6 0.893728 0.671407 0.187810
O O7 0.000000 0.500000 0.218581
O O8 0.750000 0.750000 0.588830
O O9 0.879800 0.702463 0.602652
O O10 0.837969 0.000000 0.572524
O O11 0.500000 0.276675 0.396956
O O12 0.403051 0.500000 0.374065
O O13 0.396859 0.176012 0.344104
O O14 0.000000 0.500000 0.313599
O O15 0.500000 0.759923 0.637193
O O16 0.416573 0.000000 0.670593
#
# Coordination Sequence:
#
# PCOD8186072 Si02
#       6
#    16   8  16  16   8  16
#     4   9  19  32  50  75 103 140 175 208 252 303
#     4   9  18  34  54  77 104 132 169 216 264 312
#     4  10  19  33  52  76 107 142 179 214 254 309
#     4   9  18  33  51  76 106 133 169 213 257 303
#     4   9  18  32  54  79 100 132 171 212 262 306
#     4  10  20  34  53  79 107 136 173 216 263 309
#
# _framework density 18.295093999999999
#
# number of rings (size 3 to 8) (size 9 to 14) (size 15 to 20)
#    0.000    2.600    1.000    0.600    1.400    2.400 
#    0.000    6.000    0.000    1.200    0.000    0.000 
#    0.000    0.000    0.000    0.000    0.000    0.000 
#
# Total GULP energy -247952.965384 kJ/mol
# GULP energy per Si atom -12397.648269 kJ/mol
# Density = 1.825345 g / cm^3
# Si number density = 18.295094 Si / 1000 Ang^3
#
#
#
# Elastic Constant Matrix: (Units=GPa)
#
#
# Indices 1 2 3 4 5 6 
#
# 1 66.7009 29.5439 58.6019 0.0000 0.0000 -0.0002
# 2 29.5439 97.0676 55.9741 0.0001 0.0000 -0.0003
# 3 58.6019 55.9741 138.7486 0.0000 0.0000 0.0000
# 4 0.0000 0.0001 0.0000 20.1508 0.0000 0.0000
# 5 0.0000 0.0000 0.0000 0.0000 9.9120 0.0000
# 6 -0.0002 -0.0003 0.0000 0.0000 0.0000 21.4135
#
#
#
# Elastic Compliance Matrix: (Units=1/GPa)
#
#
# Indices 1 2 3 4 5 6 
#
# 1 0.024107 -0.001910 -0.009411 0.000000 0.000000 0.000000
# 2 -0.001910 0.013577 -0.004670 0.000000 0.000000 0.000000
# 3 -0.009411 -0.004670 0.013066 0.000000 0.000000 0.000000
# 4 0.000000 0.000000 0.000000 0.049626 0.000000 0.000000
# 5 0.000000 0.000000 0.000000 0.000000 0.100888 0.000000
# 6 0.000000 0.000000 0.000000 0.000000 0.000000 0.046700
#
#
# Mechanical properties :
#
#
# Convention : Reuss Voigt Hill
#
# Bulk Modulus (GPa) = 53.28693 65.63966 59.46330
# Shear Modulus (GPa) = 17.47019 20.85506 19.16262
#
# Velocity S-wave (km/s) = 3.09352 3.37994 3.23990
# Velocity P-wave (km/s) = 6.47683 7.15459 6.82413
#
# Compressibility (1/GPa) = 0.01876633
#
# Stress axis : x y z
#
# Youngs Moduli (GPa) = 41.48205 73.65590 76.53318
#
# Poissons Ratio (x) = 0.14071 0.72026
# Poissons Ratio (y) = 0.07924 0.35743
# Poissons Ratio (z) = 0.39039 0.34399
#
# Static dielectric constant tensor:
#      x y z
#    x 3.151090 0.000000 0.000000 
#    y 0.000000 3.481810 0.000000 
#    z 0.000000 0.000000 3.637190 
# 
# 
# High freq. dielectric constant tensor:
#      x y z
#    x 1.682170 0.000000 0.000000 
#    y 0.000000 1.721220 0.000000 
#    z 0.000000 0.000000 1.698590 
# 
# From -- ./inp_files/27805.got.cif
#   From: 2010.03.12/outbox.cif.g09.slc.cpg/sg42_14_cif.got.tgz:27805.got - 2010.04.14 02:04:31.
