data_PCOD8186606
_publ_section_title
;
Structure prediction by ZEFSAII (Michael W. Deem and Ramdas Pophale) SiO2 
 PCOD8186606
Probable space group: F M M 2
;
_chemical_formula_sum "Si O2"
_cell_formula_units_Z 112
_cell_length_a 28.831682
_cell_length_b 14.160435
_cell_length_c 14.007573
_cell_angle_alpha 90.000000
_cell_angle_beta 90.000000
_cell_angle_gamma 90.000000
_cell_volume 5718.860047
_symmetry_space_group_name_H-M "F M M 2"
_symmetry_group_IT_number 42
_symmetry_cell_setting 'orthorhombic'
loop_
_space_group_symop_operation_xyz
x,y,z
-x,-y,z
-x,y,z
x,-y,z
x,1/2+y,1/2+z
-x,1/2-y,1/2+z
-x,1/2+y,1/2+z
x,1/2-y,1/2+z
1/2+x,y,1/2+z
1/2-x,-y,1/2+z
1/2-x,y,1/2+z
1/2+x,-y,1/2+z
1/2+x,1/2+y,z
1/2-x,1/2-y,z
1/2-x,1/2+y,z
1/2+x,1/2-y,z
loop_
_atom_site_type_symbol
_atom_site_label
_atom_site_fract_x
_atom_site_fract_y
_atom_site_fract_z
Si Si1 0.351358 0.265410 0.241190
Si Si2 0.695445 0.757805 0.540494
Si Si3 0.353222 0.890902 0.913390
Si Si4 0.951410 0.109889 0.877148
Si Si5 0.148845 0.387540 0.395387
Si Si6 0.949148 0.716665 0.189451
Si Si7 0.448888 0.606829 0.497523
O O1 0.318852 0.271836 0.149716
O O2 0.336613 0.349676 0.312253
O O3 0.341849 0.165067 0.294458
O O4 0.405313 0.283489 0.212301
O O5 0.750000 0.750000 0.534352
O O6 0.671988 0.663069 0.499746
O O7 0.681751 0.850082 0.478827
O O8 0.339204 0.000000 0.920142
O O9 0.408898 0.873932 0.919761
O O10 0.903880 0.142748 0.928200
O O11 0.948700 0.131614 0.764998
O O12 0.000000 0.154673 0.919935
O O13 0.954887 0.000000 0.889702
O O14 0.155093 0.500000 0.381249
O O15 0.940528 0.674884 0.085709
O O16 0.000000 0.768539 0.193311
O O17 0.500000 0.624322 0.451254
O O18 0.444812 0.500000 0.535368
#
# Coordination Sequence:
#
# PCOD8186606 Si02
#       7
#    16  16  16  16  16  16  16
#     4  10  21  37  58  87 118 151 192 236 289 342
#     4  11  24  42  60  81 112 148 192 249 301 347
#     4  10  22  40  61  87 119 154 192 236 289 350
#     4   8  13  24  47  81 117 148 179 221 271 324
#     4   9  20  38  61  87 116 149 187 233 285 346
#     4   9  15  26  48  81 117 153 191 227 269 329
#     4   9  16  28  52  85 119 155 193 232 274 330
#
# _framework density 19.584323999999999
#
# number of rings (size 3 to 8) (size 9 to 14) (size 15 to 20)
#    0.000    2.571    1.429    0.429    0.000    6.857 
#    0.000    2.857    0.000    0.000    0.000    4.000 
#    0.000    0.000    0.000    0.000    0.000    0.000 
#
# Total GULP energy -346882.033300 kJ/mol
# GULP energy per Si atom -12388.644046 kJ/mol
# Density = 1.953975 g / cm^3
# Si number density = 19.584324 Si / 1000 Ang^3
#
#
#
# Elastic Constant Matrix: (Units=GPa)
#
#
# Indices 1 2 3 4 5 6 
#
# 1 131.9033 24.3471 47.6890 0.0000 0.0000 0.0000
# 2 24.3471 82.9974 29.3648 0.0000 0.0000 0.0000
# 3 47.6890 29.3648 93.4403 0.0000 0.0000 0.0000
# 4 0.0000 0.0000 0.0000 16.5157 0.0000 0.0000
# 5 0.0000 0.0000 0.0000 0.0000 44.0907 0.0000
# 6 0.0000 0.0000 0.0000 0.0000 0.0000 17.9429
#
#
#
# Elastic Compliance Matrix: (Units=1/GPa)
#
#
# Indices 1 2 3 4 5 6 
#
# 1 0.009401 -0.001193 -0.004423 0.000000 0.000000 0.000000
# 2 -0.001193 0.013707 -0.003699 0.000000 0.000000 0.000000
# 3 -0.004423 -0.003699 0.014122 0.000000 0.000000 0.000000
# 4 0.000000 0.000000 0.000000 0.060548 0.000000 0.000000
# 5 0.000000 0.000000 0.000000 0.000000 0.022681 0.000000
# 6 0.000000 0.000000 0.000000 0.000000 0.000000 0.055732
#
#
# Mechanical properties :
#
#
# Convention : Reuss Voigt Hill
#
# Bulk Modulus (GPa) = 53.76256 56.79366 55.27811
# Shear Modulus (GPa) = 24.87314 29.50587 27.18951
#
# Velocity S-wave (km/s) = 3.56765 3.88571 3.73007
# Velocity P-wave (km/s) = 6.66950 7.01386 6.84385
#
# Compressibility (1/GPa) = 0.01860030
#
# Stress axis : x y z
#
# Youngs Moduli (GPa) = 106.37664 72.95465 70.81274
#
# Poissons Ratio (x) = 0.08702 0.31320
# Poissons Ratio (y) = 0.12689 0.26193
# Poissons Ratio (z) = 0.47049 0.26985
#
# Static dielectric constant tensor:
#      x y z
#    x 4.000150 0.000000 0.000000 
#    y 0.000000 3.382770 0.000000 
#    z 0.000000 0.000000 3.344280 
# 
# 
# High freq. dielectric constant tensor:
#      x y z
#    x 1.770130 0.000000 0.000000 
#    y 0.000000 1.741860 0.000000 
#    z 0.000000 0.000000 1.745080 
# 
# From -- ./inp_files/8135.got.cif
#   From: 2010.03.12/outbox.cif.g09.slc.cpg/sg42_5_cif.got.tgz:8135.got - 2010.04.14 02:04:31.
