data_PCOD8186329
_publ_section_title
;
Structure prediction by ZEFSAII (Michael W. Deem and Ramdas Pophale) SiO2 
 PCOD8186329
Probable space group: F M M 2
;
_chemical_formula_sum "Si O2"
_cell_formula_units_Z 80
_cell_length_a 17.955355
_cell_length_b 15.022734
_cell_length_c 15.224486
_cell_angle_alpha 90.000000
_cell_angle_beta 90.000000
_cell_angle_gamma 90.000000
_cell_volume 4106.630352
_symmetry_space_group_name_H-M "F M M 2"
_symmetry_group_IT_number 42
_symmetry_cell_setting 'orthorhombic'
loop_
_space_group_symop_operation_xyz
x,y,z
-x,-y,z
-x,y,z
x,-y,z
x,1/2+y,1/2+z
-x,1/2-y,1/2+z
-x,1/2+y,1/2+z
x,1/2-y,1/2+z
1/2+x,y,1/2+z
1/2-x,-y,1/2+z
1/2-x,y,1/2+z
1/2+x,-y,1/2+z
1/2+x,1/2+y,z
1/2-x,1/2-y,z
1/2-x,1/2+y,z
1/2+x,1/2-y,z
loop_
_atom_site_type_symbol
_atom_site_label
_atom_site_fract_x
_atom_site_fract_y
_atom_site_fract_z
Si Si1 0.238993 0.601925 0.076600
Si Si2 0.187599 0.099543 0.258354
Si Si3 0.584005 0.263807 0.796235
Si Si4 0.290379 0.337118 0.895588
Si Si5 0.918139 0.398974 0.136983
O O1 0.258413 0.500000 0.061121
O O2 0.269737 0.633729 0.170726
O O3 0.149608 0.618967 0.069204
O O4 0.281198 0.653821 0.999732
O O5 0.121088 0.167634 0.279164
O O6 0.248799 0.088453 0.336902
O O7 0.154245 0.000000 0.244475
O O8 0.500000 0.245296 0.826281
O O9 0.622758 0.322123 0.873414
O O10 0.587428 0.325342 0.711213
O O11 0.250000 0.250000 0.859294
O O12 0.908257 0.500000 0.175273
O O13 0.000000 0.391257 0.090853
#
# Coordination Sequence:
#
# PCOD8186329 Si02
#       5
#    16  16  16  16  16
#     4  10  20  34  58  86 116 155 198 244 298 355
#     4  10  21  38  59  85 118 158 203 246 292 354
#     4  10  21  38  59  86 119 157 196 243 301 352
#     4  10  21  34  57  85 116 154 198 245 291 350
#     4   9  18  33  56  87 119 151 191 243 301 355
#
# _framework density 19.480691
#
# number of rings (size 3 to 8) (size 9 to 14) (size 15 to 20)
#    0.000    2.200    2.000    0.600    2.800    1.200 
#    0.000    5.000    0.000    6.000    0.000    0.000 
#    0.000    0.000    0.000    0.000    0.000    0.000 
#
# Total GULP energy -247808.081286 kJ/mol
# GULP energy per Si atom -12390.404064 kJ/mol
# Density = 1.943635 g / cm^3
# Si number density = 19.480691 Si / 1000 Ang^3
#
#
#
# Elastic Constant Matrix: (Units=GPa)
#
#
# Indices 1 2 3 4 5 6 
#
# 1 159.4346 50.3302 48.9191 0.0000 0.0000 0.0000
# 2 50.3302 79.6025 17.0753 0.0000 0.0000 0.0000
# 3 48.9191 17.0753 100.5241 0.0000 0.0000 0.0000
# 4 0.0000 0.0000 0.0000 22.7892 0.0000 0.0000
# 5 0.0000 0.0000 0.0000 0.0000 27.8074 0.0000
# 6 0.0000 0.0000 0.0000 0.0000 0.0000 26.0387
#
#
#
# Elastic Compliance Matrix: (Units=1/GPa)
#
#
# Indices 1 2 3 4 5 6 
#
# 1 0.008880 -0.004865 -0.003495 0.000000 0.000000 0.000000
# 2 -0.004865 0.015703 -0.000300 0.000000 0.000000 0.000000
# 3 -0.003495 -0.000300 0.011700 0.000000 0.000000 0.000000
# 4 0.000000 0.000000 0.000000 0.043881 0.000000 0.000000
# 5 0.000000 0.000000 0.000000 0.000000 0.035962 0.000000
# 6 0.000000 0.000000 0.000000 0.000000 0.000000 0.038404
#
#
# Mechanical properties :
#
#
# Convention : Reuss Voigt Hill
#
# Bulk Modulus (GPa) = 52.73481 63.57892 58.15686
# Shear Modulus (GPa) = 28.06305 30.20950 29.13628
#
# Velocity S-wave (km/s) = 3.79959 3.94222 3.87156
# Velocity P-wave (km/s) = 6.81015 7.30953 7.06425
#
# Compressibility (1/GPa) = 0.01896281
#
# Stress axis : x y z
#
# Youngs Moduli (GPa) = 112.60793 63.68319 85.47254
#
# Poissons Ratio (x) = 0.30982 0.29874
# Poissons Ratio (y) = 0.54784 0.02562
# Poissons Ratio (z) = 0.39358 0.01909
#
# Static dielectric constant tensor:
#      x y z
#    x 3.817990 0.000000 0.000000 
#    y 0.000000 3.602310 0.000000 
#    z 0.000000 0.000000 3.227400 
# 
# 
# High freq. dielectric constant tensor:
#      x y z
#    x 1.753090 0.000000 0.000000 
#    y 0.000000 1.769530 0.000000 
#    z 0.000000 0.000000 1.732490 
# 
# From -- ./inp_files/13813.got.cif
#   From: 2010.03.12/outbox.cif.g09.slc.cpg/sg42_7_cif.got.tgz:13813.got - 2010.04.14 02:04:31.
