data_PCOD8186584
_publ_section_title
;
Structure prediction by ZEFSAII (Michael W. Deem and Ramdas Pophale) SiO2 
 PCOD8186584
Probable space group: F M M 2
;
_chemical_formula_sum "Si O2"
_cell_formula_units_Z 112
_cell_length_a 25.033413
_cell_length_b 14.613861
_cell_length_c 14.599097
_cell_angle_alpha 90.000000
_cell_angle_beta 90.000000
_cell_angle_gamma 90.000000
_cell_volume 5340.857993
_symmetry_space_group_name_H-M "F M M 2"
_symmetry_group_IT_number 42
_symmetry_cell_setting 'orthorhombic'
loop_
_space_group_symop_operation_xyz
x,y,z
-x,-y,z
-x,y,z
x,-y,z
x,1/2+y,1/2+z
-x,1/2-y,1/2+z
-x,1/2+y,1/2+z
x,1/2-y,1/2+z
1/2+x,y,1/2+z
1/2-x,-y,1/2+z
1/2-x,y,1/2+z
1/2+x,-y,1/2+z
1/2+x,1/2+y,z
1/2-x,1/2-y,z
1/2-x,1/2+y,z
1/2+x,1/2-y,z
loop_
_atom_site_type_symbol
_atom_site_label
_atom_site_fract_x
_atom_site_fract_y
_atom_site_fract_z
Si Si1 0.126931 0.753276 0.373890
Si Si2 0.263929 0.106738 0.092570
Si Si3 0.280137 0.843701 0.779672
Si Si4 0.119309 0.321267 0.076489
Si Si5 0.703914 0.098935 0.417628
Si Si6 0.937578 0.000000 0.301937
Si Si7 0.938357 0.805014 0.222172
Si Si8 0.563663 0.500000 0.514102
O O1 0.159870 0.830349 0.316053
O O2 0.116107 0.782460 0.475584
O O3 0.155300 0.655527 0.375583
O O4 0.071800 0.747581 0.316472
O O5 0.222826 0.124337 0.175062
O O6 0.319702 0.159461 0.108091
O O7 0.276678 0.000000 0.078570
O O8 0.232526 0.147015 0.004717
O O9 0.250000 0.750000 0.798192
O O10 0.249438 0.917808 0.841320
O O11 0.096342 0.242621 0.142577
O O12 0.084676 0.413584 0.073009
O O13 0.680795 0.000000 0.446142
O O14 0.921265 0.089184 0.242190
O O15 0.914353 0.000000 0.407713
O O16 0.000000 0.000000 0.318290
O O17 0.000000 0.798014 0.194309
O O18 0.500000 0.500000 0.516555
#
# Coordination Sequence:
#
# PCOD8186584 Si02
#       8
#    16  16  16  16  16   8  16   8
#     4  11  24  42  66  94 130 180 224 284 337 411
#     4  11  23  39  62  95 133 174 217 273 337 415
#     4  10  21  36  58  85 123 169 207 260 327 392
#     4  12  23  41  71 103 135 173 230 287 346 406
#     4  10  22  40  61  90 133 175 217 266 333 411
#     4   9  20  44  70  94 132 178 230 291 342 403
#     4  11  25  45  70 100 135 177 231 291 351 407
#     4  11  22  42  72 100 134 182 238 289 339 403
#
# _framework density 20.970413000000001
#
# number of rings (size 3 to 8) (size 9 to 14) (size 15 to 20)
#    0.000    1.286    3.571    2.571    4.000    0.571 
#    6.429    0.000    0.000    0.000    0.000    0.000 
#    0.000    0.000    0.000    0.000    0.000    0.000 
#
# Total GULP energy -347042.143177 kJ/mol
# GULP energy per Si atom -12394.362256 kJ/mol
# Density = 2.092268 g / cm^3
# Si number density = 20.970413 Si / 1000 Ang^3
#
#
#
# Elastic Constant Matrix: (Units=GPa)
#
#
# Indices 1 2 3 4 5 6 
#
# 1 58.5742 45.2635 29.6373 0.0000 0.0000 0.0000
# 2 45.2635 112.0506 43.3025 0.0000 0.0000 0.0000
# 3 29.6373 43.3025 137.6719 0.0000 0.0000 0.0000
# 4 0.0000 0.0000 0.0000 28.4667 0.0000 0.0000
# 5 0.0000 0.0000 0.0000 0.0000 36.8993 0.0000
# 6 0.0000 0.0000 0.0000 0.0000 0.0000 22.3110
#
#
#
# Elastic Compliance Matrix: (Units=1/GPa)
#
#
# Indices 1 2 3 4 5 6 
#
# 1 0.025595 -0.009346 -0.002570 0.000000 0.000000 0.000000
# 2 -0.009346 0.013572 -0.002257 0.000000 0.000000 0.000000
# 3 -0.002570 -0.002257 0.008527 0.000000 0.000000 0.000000
# 4 0.000000 0.000000 0.000000 0.035129 0.000000 0.000000
# 5 0.000000 0.000000 0.000000 0.000000 0.027101 0.000000
# 6 0.000000 0.000000 0.000000 0.000000 0.000000 0.044821
#
#
# Mechanical properties :
#
#
# Convention : Reuss Voigt Hill
#
# Bulk Modulus (GPa) = 51.68622 60.52259 56.10441
# Shear Modulus (GPa) = 26.37967 30.20831 28.29399
#
# Velocity S-wave (km/s) = 3.55060 3.79954 3.67718
# Velocity P-wave (km/s) = 6.44281 6.94062 6.69634
#
# Compressibility (1/GPa) = 0.01934752
#
# Stress axis : x y z
#
# Youngs Moduli (GPa) = 39.07015 73.68072 117.27637
#
# Poissons Ratio (x) = 0.68861 0.30144
# Poissons Ratio (y) = 0.36515 0.26469
# Poissons Ratio (z) = 0.10042 0.16629
#
# Static dielectric constant tensor:
#      x y z
#    x 3.809450 0.000000 0.000000 
#    y 0.000000 4.077550 0.000000 
#    z 0.000000 0.000000 3.882190 
# 
# 
# High freq. dielectric constant tensor:
#      x y z
#    x 1.807830 0.000000 0.000000 
#    y 0.000000 1.825370 0.000000 
#    z 0.000000 0.000000 1.828590 
# 
# From -- ./inp_files/17093.got.cif
#   From: 2010.03.12/outbox.cif.g09.slc.cpg/sg42_9_cif.got.tgz:17093.got - 2010.04.14 02:04:31.
