data_PCOD8186665
_publ_section_title
;
Structure prediction by ZEFSAII (Michael W. Deem and Ramdas Pophale) SiO2 
 PCOD8186665
Probable space group: F M M 2
;
_chemical_formula_sum "Si O2"
_cell_formula_units_Z 80
_cell_length_a 8.888325
_cell_length_b 15.073232
_cell_length_c 29.766058
_cell_angle_alpha 90.000000
_cell_angle_beta 90.000000
_cell_angle_gamma 90.000000
_cell_volume 3987.930981
_symmetry_space_group_name_H-M "F M M 2"
_symmetry_group_IT_number 42
_symmetry_cell_setting 'orthorhombic'
loop_
_space_group_symop_operation_xyz
x,y,z
-x,-y,z
-x,y,z
x,-y,z
x,1/2+y,1/2+z
-x,1/2-y,1/2+z
-x,1/2+y,1/2+z
x,1/2-y,1/2+z
1/2+x,y,1/2+z
1/2-x,-y,1/2+z
1/2-x,y,1/2+z
1/2+x,-y,1/2+z
1/2+x,1/2+y,z
1/2-x,1/2-y,z
1/2-x,1/2+y,z
1/2+x,1/2-y,z
loop_
_atom_site_type_symbol
_atom_site_label
_atom_site_fract_x
_atom_site_fract_y
_atom_site_fract_z
Si Si1 0.176345 0.346066 0.330900
Si Si2 0.178337 0.000000 0.995000
Si Si3 0.326363 0.155205 0.746555
Si Si4 0.824384 0.844248 0.929678
Si Si5 0.175784 0.153756 0.147198
Si Si6 0.178289 0.000000 0.591085
O O1 0.250000 0.250000 0.329762
O O2 0.248990 0.399287 0.288191
O O3 0.214525 0.385554 0.380177
O O4 0.000000 0.341260 0.322821
O O5 0.227962 0.913743 0.966928
O O6 0.000000 0.000000 0.005067
O O7 0.275753 0.000000 0.039431
O O8 0.500000 0.166053 0.758336
O O9 0.250000 0.250000 0.742818
O O10 0.304183 0.111579 0.697376
O O11 0.750000 0.750000 0.939210
O O12 0.000000 0.826819 0.932368
O O13 0.250000 0.250000 0.142445
O O14 0.255130 0.088251 0.112880
O O15 0.000000 0.162130 0.135184
O O16 0.000000 0.000000 0.596280
#
# Coordination Sequence:
#
# PCOD8186665 Si02
#       6
#    16   8  16  16  16   8
#     4   9  15  25  45  75 109 144 182 221 265 320
#     4  10  22  42  61  78 107 145 184 233 291 342
#     4   9  16  27  48  78 111 147 184 221 267 323
#     4   9  19  35  57  82 110 146 185 225 273 330
#     4  10  21  39  62  87 117 153 192 235 284 339
#     4  12  26  42  61  86 113 145 190 241 295 350
#
# _framework density 20.060528000000001
#
# number of rings (size 3 to 8) (size 9 to 14) (size 15 to 20)
#    0.000    2.400    0.000    3.900    0.000    4.800 
#    0.000    3.000    0.000    1.200    0.000    0.000 
#    0.000    0.000    0.000    0.000    0.000    0.000 
#
# Total GULP energy -247787.696696 kJ/mol
# GULP energy per Si atom -12389.384835 kJ/mol
# Density = 2.001487 g / cm^3
# Si number density = 20.060528 Si / 1000 Ang^3
#
#
#
# Elastic Constant Matrix: (Units=GPa)
#
#
# Indices 1 2 3 4 5 6 
#
# 1 129.8149 45.8503 80.2001 0.0000 0.0000 0.0000
# 2 45.8503 91.3732 66.0485 0.0000 0.0000 0.0000
# 3 80.2001 66.0485 178.2152 0.0000 0.0000 0.0000
# 4 0.0000 0.0000 0.0000 122.5592 0.0000 0.0000
# 5 0.0000 0.0000 0.0000 0.0000 33.5671 0.0000
# 6 0.0000 0.0000 0.0000 0.0000 0.0000 15.4694
#
#
#
# Elastic Compliance Matrix: (Units=1/GPa)
#
#
# Indices 1 2 3 4 5 6 
#
# 1 0.011131 -0.002684 -0.004015 0.000000 0.000000 0.000000
# 2 -0.002684 0.015596 -0.004572 0.000000 0.000000 0.000000
# 3 -0.004015 -0.004572 0.009112 0.000000 0.000000 0.000000
# 4 0.000000 0.000000 0.000000 0.008159 0.000000 0.000000
# 5 0.000000 0.000000 0.000000 0.000000 0.029791 0.000000
# 6 0.000000 0.000000 0.000000 0.000000 0.000000 0.064644
#
#
# Mechanical properties :
#
#
# Convention : Reuss Voigt Hill
#
# Bulk Modulus (GPa) = 75.19743 87.06680 81.13212
# Shear Modulus (GPa) = 30.22830 48.13945 39.18387
#
# Velocity S-wave (km/s) = 3.88603 4.90400 4.42439
# Velocity P-wave (km/s) = 7.59616 8.69263 8.16283
#
# Compressibility (1/GPa) = 0.01329833
#
# Stress axis : x y z
#
# Youngs Moduli (GPa) = 89.83539 64.11985 109.73990
#
# Poissons Ratio (x) = 0.17207 0.44058
# Poissons Ratio (y) = 0.24108 0.50176
# Poissons Ratio (z) = 0.36067 0.29317
#
# Static dielectric constant tensor:
#      x y z
#    x 3.703370 0.000000 0.000000 
#    y 0.000000 3.315650 0.000000 
#    z 0.000000 0.000000 4.728480 
# 
# 
# High freq. dielectric constant tensor:
#      x y z
#    x 1.789310 0.000000 0.000000 
#    y 0.000000 1.749420 0.000000 
#    z 0.000000 0.000000 1.804330 
# 
# From -- ./inp_files/31341.got.cif
#   From: 2010.03.12/outbox.cif.g09.slc.cpg/sg42_16_cif.got.tgz:31341.got - 2010.04.14 02:04:31.
