data_PCOD8186064
_publ_section_title
;
Structure prediction by ZEFSAII (Michael W. Deem and Ramdas Pophale) SiO2 
 PCOD8186064
Probable space group: F M M 2
;
_chemical_formula_sum "Si O2"
_cell_formula_units_Z 104
_cell_length_a 10.255869
_cell_length_b 24.781540
_cell_length_c 22.549409
_cell_angle_alpha 90.000000
_cell_angle_beta 90.000000
_cell_angle_gamma 90.000000
_cell_volume 5731.072732
_symmetry_space_group_name_H-M "F M M 2"
_symmetry_group_IT_number 42
_symmetry_cell_setting 'orthorhombic'
loop_
_space_group_symop_operation_xyz
x,y,z
-x,-y,z
-x,y,z
x,-y,z
x,1/2+y,1/2+z
-x,1/2-y,1/2+z
-x,1/2+y,1/2+z
x,1/2-y,1/2+z
1/2+x,y,1/2+z
1/2-x,-y,1/2+z
1/2-x,y,1/2+z
1/2+x,-y,1/2+z
1/2+x,1/2+y,z
1/2-x,1/2-y,z
1/2-x,1/2+y,z
1/2+x,1/2-y,z
loop_
_atom_site_type_symbol
_atom_site_label
_atom_site_fract_x
_atom_site_fract_y
_atom_site_fract_z
Si Si1 0.250000 0.250000 0.101220
Si Si2 0.353787 0.350957 0.030924
Si Si3 0.142660 0.937603 0.370632
Si Si4 0.848473 0.062388 0.507798
Si Si5 0.355915 0.789471 0.215613
Si Si6 0.853902 0.628423 0.307906
Si Si7 0.142759 0.293601 0.412881
O O1 0.326482 0.293371 0.061911
O O2 0.344477 0.214063 0.143906
O O3 0.500000 0.369978 0.049848
O O4 0.247507 0.397982 0.045375
O O5 0.348653 0.341482 0.960645
O O6 0.182195 0.927717 0.438645
O O7 0.248050 0.915828 0.324309
O O8 0.000000 0.911196 0.358679
O O9 0.132972 0.000000 0.357334
O O10 0.000000 0.076044 0.521812
O O11 0.819380 0.000000 0.524712
O O12 0.500000 0.770353 0.234917
O O13 0.250000 0.750000 0.245869
O O14 0.332372 0.850306 0.240371
O O15 0.833623 0.680804 0.348867
O O16 0.000000 0.604286 0.315848
O O17 0.250000 0.250000 0.428252
O O18 0.000000 0.265811 0.415884
#
# Coordination Sequence:
#
# PCOD8186064 Si02
#       7
#     8  16  16  16  16  16  16
#     4  10  22  38  54  74 110 144 184 222 272 314
#     4  11  21  34  54  79 109 144 181 222 269 321
#     4   9  18  32  50  76 109 141 171 206 257 321
#     4   9  19  35  54  79 112 147 180 215 265 327
#     4   9  20  36  54  73 100 137 177 217 258 308
#     4  10  19  33  51  75 104 136 174 215 263 313
#     4  10  20  31  45  73 107 135 167 209 259 317
#
# _framework density 18.14669
#
# number of rings (size 3 to 8) (size 9 to 14) (size 15 to 20)
#    0.462    1.846    2.308    1.846    0.000    3.692 
#    0.000    1.538    0.000    0.923    0.000    0.000 
#    0.000    0.000    0.000    0.000    0.000    0.000 
#
# Total GULP energy -322130.581830 kJ/mol
# GULP energy per Si atom -12389.637763 kJ/mol
# Density = 1.810539 g / cm^3
# Si number density = 18.146690 Si / 1000 Ang^3
#
#
#
# Elastic Constant Matrix: (Units=GPa)
#
#
# Indices 1 2 3 4 5 6 
#
# 1 132.2794 61.6941 24.6061 0.0000 0.0000 0.0000
# 2 61.6941 72.8108 27.1724 0.0000 0.0000 0.0000
# 3 24.6061 27.1724 53.3730 0.0000 0.0000 0.0000
# 4 0.0000 0.0000 0.0000 26.0344 0.0000 0.0000
# 5 0.0000 0.0000 0.0000 0.0000 14.8376 0.0000
# 6 0.0000 0.0000 0.0000 0.0000 0.0000 36.0753
#
#
#
# Elastic Compliance Matrix: (Units=1/GPa)
#
#
# Indices 1 2 3 4 5 6 
#
# 1 0.012508 -0.010428 -0.000458 0.000000 0.000000 0.000000
# 2 -0.010428 0.025649 -0.008251 0.000000 0.000000 0.000000
# 3 -0.000458 -0.008251 0.023148 0.000000 0.000000 0.000000
# 4 0.000000 0.000000 0.000000 0.038411 0.000000 0.000000
# 5 0.000000 0.000000 0.000000 0.000000 0.067396 0.000000
# 6 0.000000 0.000000 0.000000 0.000000 0.000000 0.027720
#
#
# Mechanical properties :
#
#
# Convention : Reuss Voigt Hill
#
# Bulk Modulus (GPa) = 43.41678 53.93426 48.67552
# Shear Modulus (GPa) = 20.76573 25.05551 22.91062
#
# Velocity S-wave (km/s) = 3.38646 3.71984 3.55706
# Velocity P-wave (km/s) = 6.26643 6.94517 6.61451
#
# Compressibility (1/GPa) = 0.02303257
#
# Stress axis : x y z
#
# Youngs Moduli (GPa) = 79.94676 38.98801 43.20113
#
# Poissons Ratio (x) = 0.40656 0.01978
# Poissons Ratio (y) = 0.83366 0.35643
# Poissons Ratio (z) = 0.03660 0.32167
#
# Static dielectric constant tensor:
#      x y z
#    x 3.625340 0.000000 0.000000 
#    y 0.000000 3.036570 0.000000 
#    z 0.000000 0.000000 3.140800 
# 
# 
# High freq. dielectric constant tensor:
#      x y z
#    x 1.717840 0.000000 0.000000 
#    y 0.000000 1.676500 0.000000 
#    z 0.000000 0.000000 1.675900 
# 
# From -- ./inp_files/28244.got.cif
#   From: 2010.03.12/outbox.cif.g09.slc.cpg/sg42_15_cif.got.tgz:28244.got - 2010.04.14 02:04:31.
