data_PCOD8186925
_publ_section_title
;
Structure prediction by ZEFSAII (Michael W. Deem and Ramdas Pophale) SiO2 
 PCOD8186925
Probable space group: F D D 2
;
_chemical_formula_sum "Si O2"
_cell_formula_units_Z 96
_cell_length_a 31.720672
_cell_length_b 8.661927
_cell_length_c 17.703118
_cell_angle_alpha 90.000000
_cell_angle_beta 90.000000
_cell_angle_gamma 90.000000
_cell_volume 4864.146679
_symmetry_space_group_name_H-M "F D D 2"
_symmetry_group_IT_number 43
_symmetry_cell_setting 'orthorhombic'
loop_
_space_group_symop_operation_xyz
x,y,z
-x,-y,z
1/4-x,1/4+y,1/4+z
1/4+x,1/4-y,1/4+z
x,1/2+y,1/2+z
-x,1/2-y,1/2+z
1/4-x,3/4+y,3/4+z
1/4+x,3/4-y,3/4+z
1/2+x,y,1/2+z
1/2-x,-y,1/2+z
3/4-x,1/4+y,3/4+z
3/4+x,1/4-y,3/4+z
1/2+x,1/2+y,z
1/2-x,1/2-y,z
3/4-x,3/4+y,1/4+z
3/4+x,3/4-y,1/4+z
loop_
_atom_site_type_symbol
_atom_site_label
_atom_site_fract_x
_atom_site_fract_y
_atom_site_fract_z
Si Si1 0.659560 0.666550 0.957880
Si Si2 0.250000 0.250000 0.684011
Si Si3 0.039230 0.236565 0.844342
Si Si4 0.157576 0.216474 0.136107
Si Si5 0.881892 0.577822 0.860823
Si Si6 0.420202 0.337078 0.465087
Si Si7 0.750000 0.750000 0.980669
O O1 0.638448 0.511639 0.921723
O O2 0.635167 0.812161 0.925753
O O3 0.709496 0.682429 0.934995
O O4 0.653260 0.672056 0.048065
O O5 0.255509 0.405682 0.635492
O O6 0.290845 0.204103 0.732620
O O7 0.076966 0.351343 0.818812
O O8 0.016178 0.148725 0.776827
O O9 0.060141 0.108095 0.898717
O O10 0.180523 0.078686 0.179946
O O11 0.848372 0.551070 0.796203
O O12 0.890281 0.417095 0.903044
#
# Coordination Sequence:
#
# PCOD8186925 Si02
#       7
#    16   8  16  16  16  16   8
#     4  10  20  36  57  80 109 146 184 224 270 326
#     4  10  20  33  54  82 112 141 178 230 278 315
#     4   9  19  34  54  79 109 143 180 219 270 332
#     4  10  20  36  58  81 107 145 186 222 266 330
#     4  10  21  37  54  78 110 145 181 220 271 332
#     4  11  21  35  56  82 109 142 183 228 272 322
#     4  10  18  33  56  82 108 141 182 230 272 317
#
# _framework density 19.736248
#
# number of rings (size 3 to 8) (size 9 to 14) (size 15 to 20)
#    0.000    2.000    0.000    6.000    0.000    2.000 
#    0.000    0.000    0.000    2.000    0.000    0.000 
#    0.000    0.000    0.000    0.000    0.000    0.000 
#
# Total GULP energy -297343.175745 kJ/mol
# GULP energy per Si atom -12389.298989 kJ/mol
# Density = 1.969133 g / cm^3
# Si number density = 19.736248 Si / 1000 Ang^3
#
#
#
# Elastic Constant Matrix: (Units=GPa)
#
#
# Indices 1 2 3 4 5 6 
#
# 1 99.5487 13.2882 20.0999 0.0000 0.0000 0.0000
# 2 13.2882 74.3558 16.1993 0.0000 0.0000 0.0000
# 3 20.0999 16.1993 74.3805 0.0000 0.0000 0.0000
# 4 0.0000 0.0000 0.0000 19.4645 0.0000 0.0000
# 5 0.0000 0.0000 0.0000 0.0000 2.0439 0.0000
# 6 0.0000 0.0000 0.0000 0.0000 0.0000 30.3124
#
#
#
# Elastic Compliance Matrix: (Units=1/GPa)
#
#
# Indices 1 2 3 4 5 6 
#
# 1 0.010753 -0.001353 -0.002611 0.000000 0.000000 0.000000
# 2 -0.001353 0.014289 -0.002746 0.000000 0.000000 0.000000
# 3 -0.002611 -0.002746 0.014748 0.000000 0.000000 0.000000
# 4 0.000000 0.000000 0.000000 0.051376 0.000000 0.000000
# 5 0.000000 0.000000 0.000000 0.000000 0.489250 0.000000
# 6 0.000000 0.000000 0.000000 0.000000 0.000000 0.032990
#
#
# Mechanical properties :
#
#
# Convention : Reuss Voigt Hill
#
# Bulk Modulus (GPa) = 37.92277 38.60664 38.26471
# Shear Modulus (GPa) = 7.86638 23.61067 15.73852
#
# Velocity S-wave (km/s) = 1.99860 3.46252 2.82697
# Velocity P-wave (km/s) = 4.95806 5.96567 5.48505
#
# Compressibility (1/GPa) = 0.02636938
#
# Stress axis : x y z
#
# Youngs Moduli (GPa) = 92.99607 69.98409 67.80518
#
# Poissons Ratio (x) = 0.09468 0.17705
# Poissons Ratio (y) = 0.12581 0.18622
# Poissons Ratio (z) = 0.24283 0.19220
#
# Static dielectric constant tensor:
#      x y z
#    x 4.038650 0.000000 0.000000 
#    y 0.000000 3.784040 0.000000 
#    z 0.000000 0.000000 3.295990 
# 
# 
# High freq. dielectric constant tensor:
#      x y z
#    x 1.778340 0.000000 0.000000 
#    y 0.000000 1.779530 0.000000 
#    z 0.000000 0.000000 1.737830 
# 
# From -- ./inp_files/18830.got.cif
#   From: 2010.06.25/outbox.cif.g09.slc.cpg/sg43_10_cif.got.tgz:18830.got - 2010.06.26 16:48:59.
