data_PCOD8186511
_publ_section_title
;
Structure prediction by ZEFSAII (Michael W. Deem and Ramdas Pophale) SiO2 
 PCOD8186511
Probable space group: F M M 2
;
_chemical_formula_sum "Si O2"
_cell_formula_units_Z 112
_cell_length_a 14.208785
_cell_length_b 31.899148
_cell_length_c 12.217668
_cell_angle_alpha 90.000000
_cell_angle_beta 90.000000
_cell_angle_gamma 90.000000
_cell_volume 5537.635243
_symmetry_space_group_name_H-M "F M M 2"
_symmetry_group_IT_number 42
_symmetry_cell_setting 'orthorhombic'
loop_
_space_group_symop_operation_xyz
x,y,z
-x,-y,z
-x,y,z
x,-y,z
x,1/2+y,1/2+z
-x,1/2-y,1/2+z
-x,1/2+y,1/2+z
x,1/2-y,1/2+z
1/2+x,y,1/2+z
1/2-x,-y,1/2+z
1/2-x,y,1/2+z
1/2+x,-y,1/2+z
1/2+x,1/2+y,z
1/2-x,1/2-y,z
1/2-x,1/2+y,z
1/2+x,1/2-y,z
loop_
_atom_site_type_symbol
_atom_site_label
_atom_site_fract_x
_atom_site_fract_y
_atom_site_fract_z
Si Si1 0.603173 0.812997 0.452980
Si Si2 0.647339 0.240727 0.652857
Si Si3 0.892492 0.548227 0.329971
Si Si4 0.105976 0.403809 0.541308
Si Si5 0.239542 0.887597 0.709450
Si Si6 0.604174 0.326899 0.579110
Si Si7 0.204845 0.187367 0.353286
O O1 0.500000 0.807740 0.395877
O O2 0.596481 0.790842 0.570538
O O3 0.625489 0.861748 0.472088
O O4 0.688549 0.795622 0.377957
O O5 0.750000 0.250000 0.604013
O O6 0.595413 0.285581 0.655938
O O7 0.653216 0.219481 0.771818
O O8 0.868039 0.500000 0.308912
O O9 0.878595 0.557711 0.458419
O O10 0.822389 0.575514 0.258020
O O11 0.000000 0.558629 0.295722
O O12 0.177508 0.409107 0.640904
O O13 0.000000 0.403571 0.588950
O O14 0.175502 0.859554 0.630740
O O15 0.287793 0.858907 0.801665
O O16 0.500000 0.346771 0.569346
O O17 0.640679 0.313683 0.460009
#
# Coordination Sequence:
#
# PCOD8186511 Si02
#       7
#    16  16  16  16  16  16  16
#     4  11  22  39  61  87 115 154 204 253 304 366
#     4  12  23  41  59  80 121 161 205 255 307 361
#     4  10  22  40  65  95 126 163 207 253 306 373
#     4  10  20  38  63  92 125 158 200 248 307 374
#     4  12  21  41  65  94 123 162 203 256 314 370
#     4  12  27  41  58  88 122 164 211 262 312 363
#     4  12  23  41  62  84 118 160 201 258 304 372
#
# _framework density 20.225239999999999
#
# number of rings (size 3 to 8) (size 9 to 14) (size 15 to 20)
#    0.000    0.714    7.143    0.857    2.000    2.857 
#    0.000    0.000    0.000    0.000    0.000    0.000 
#    0.000    0.000    0.000    0.000    0.000    0.000 
#
# Total GULP energy -347217.146218 kJ/mol
# GULP energy per Si atom -12400.612365 kJ/mol
# Density = 2.017921 g / cm^3
# Si number density = 20.225240 Si / 1000 Ang^3
#
#
#
# Elastic Constant Matrix: (Units=GPa)
#
#
# Indices 1 2 3 4 5 6 
#
# 1 116.6224 40.1759 53.2228 0.0000 0.0000 0.0000
# 2 40.1759 99.2300 51.8756 0.0000 0.0000 0.0000
# 3 53.2228 51.8756 100.9351 0.0000 0.0000 0.0000
# 4 0.0000 0.0000 0.0000 26.6357 0.0000 0.0000
# 5 0.0000 0.0000 0.0000 0.0000 30.1449 0.0000
# 6 0.0000 0.0000 0.0000 0.0000 0.0000 28.3993
#
#
#
# Elastic Compliance Matrix: (Units=1/GPa)
#
#
# Indices 1 2 3 4 5 6 
#
# 1 0.011588 -0.002048 -0.005058 0.000000 0.000000 0.000000
# 2 -0.002048 0.014142 -0.006189 0.000000 0.000000 0.000000
# 3 -0.005058 -0.006189 0.015755 0.000000 0.000000 0.000000
# 4 0.000000 0.000000 0.000000 0.037544 0.000000 0.000000
# 5 0.000000 0.000000 0.000000 0.000000 0.033173 0.000000
# 6 0.000000 0.000000 0.000000 0.000000 0.000000 0.035212
#
#
# Mechanical properties :
#
#
# Convention : Reuss Voigt Hill
#
# Bulk Modulus (GPa) = 67.12836 67.48178 67.30507
# Shear Modulus (GPa) = 27.93785 28.47017 28.20401
#
# Velocity S-wave (km/s) = 3.72066 3.75594 3.73835
# Velocity P-wave (km/s) = 7.19168 7.22821 7.20997
#
# Compressibility (1/GPa) = 0.01489683
#
# Stress axis : x y z
#
# Youngs Moduli (GPa) = 86.29264 70.71210 63.47134
#
# Poissons Ratio (x) = 0.14479 0.32105
# Poissons Ratio (y) = 0.17669 0.39279
# Poissons Ratio (z) = 0.43649 0.43760
#
# Static dielectric constant tensor:
#      x y z
#    x 3.391190 0.000000 0.000000 
#    y 0.000000 3.579110 0.000000 
#    z 0.000000 0.000000 3.574690 
# 
# 
# High freq. dielectric constant tensor:
#      x y z
#    x 1.800270 0.000000 0.000000 
#    y 0.000000 1.769520 0.000000 
#    z 0.000000 0.000000 1.786950 
# 
# From -- ./inp_files/8095.got.cif
#   From: 2010.03.12/outbox.cif.g09.slc.cpg/sg42_5_cif.got.tgz:8095.got - 2010.04.14 02:04:31.
