data_PCOD8186847
_publ_section_title
;
Structure prediction by ZEFSAII (Michael W. Deem and Ramdas Pophale) SiO2 
 PCOD8186847
Probable space group: F M M 2
;
_chemical_formula_sum "Si O2"
_cell_formula_units_Z 80
_cell_length_a 7.806495
_cell_length_b 18.708652
_cell_length_c 29.397802
_cell_angle_alpha 90.000000
_cell_angle_beta 90.000000
_cell_angle_gamma 90.000000
_cell_volume 4293.519534
_symmetry_space_group_name_H-M "F M M 2"
_symmetry_group_IT_number 42
_symmetry_cell_setting 'orthorhombic'
loop_
_space_group_symop_operation_xyz
x,y,z
-x,-y,z
-x,y,z
x,-y,z
x,1/2+y,1/2+z
-x,1/2-y,1/2+z
-x,1/2+y,1/2+z
x,1/2-y,1/2+z
1/2+x,y,1/2+z
1/2-x,-y,1/2+z
1/2-x,y,1/2+z
1/2+x,-y,1/2+z
1/2+x,1/2+y,z
1/2-x,1/2-y,z
1/2-x,1/2+y,z
1/2+x,1/2-y,z
loop_
_atom_site_type_symbol
_atom_site_label
_atom_site_fract_x
_atom_site_fract_y
_atom_site_fract_z
Si Si1 0.695476 0.668708 0.837620
Si Si2 0.000000 0.584404 0.988908
Si Si3 0.500000 0.585530 0.590748
Si Si4 0.690373 0.415006 0.151498
Si Si5 0.201218 0.579169 0.752852
Si Si6 0.698944 0.416120 0.923392
O O1 0.500000 0.664660 0.849105
O O2 0.750000 0.750000 0.837843
O O3 0.728810 0.635475 0.788596
O O4 0.777247 0.623398 0.878848
O O5 0.824375 0.609015 0.964141
O O6 0.000000 0.500000 0.992558
O O7 0.000000 0.616797 0.039740
O O8 0.500000 0.500000 0.591633
O O9 0.670250 0.615020 0.615998
O O10 0.500000 0.384594 0.139777
O O11 0.682476 0.500000 0.149760
O O12 0.747903 0.392434 0.202439
O O13 0.281273 0.500000 0.761276
O O14 0.000000 0.573661 0.758098
O O15 0.500000 0.397111 0.935369
O O16 0.717026 0.500000 0.913821
#
# Coordination Sequence:
#
# PCOD8186847 Si02
#       6
#    16   8   8  16  16  16
#     4  11  23  35  50  74 104 135 176 214 259 305
#     4   9  18  30  50  75 100 134 169 208 260 304
#     4   9  16  26  44  73 102 130 164 206 256 304
#     4   8  15  27  43  68 104 137 165 201 247 300
#     4   9  18  32  51  75 104 140 174 207 253 305
#     4   9  19  35  52  73 103 136 171 211 257 311
#
# _framework density 18.632732000000001
#
# number of rings (size 3 to 8) (size 9 to 14) (size 15 to 20)
#    0.000    2.800    0.000    2.400    4.200    2.000 
#    0.000    4.000    0.000    0.000    0.000    1.400 
#    0.000    0.000    0.000    0.000    0.000    0.000 
#
# Total GULP energy -247853.760246 kJ/mol
# GULP energy per Si atom -12392.688012 kJ/mol
# Density = 1.859032 g / cm^3
# Si number density = 18.632732 Si / 1000 Ang^3
#
#
#
# Elastic Constant Matrix: (Units=GPa)
#
#
# Indices 1 2 3 4 5 6 
#
# 1 97.2756 23.7151 101.7377 0.0000 0.0000 0.0000
# 2 23.7151 52.9442 59.3092 0.0000 0.0000 0.0000
# 3 101.7377 59.3092 81.3144 0.0000 0.0000 0.0000
# 4 0.0000 0.0000 0.0000 -0.6146 0.0000 0.0000
# 5 0.0000 0.0000 0.0000 0.0000 33.3339 0.0000
# 6 0.0000 0.0000 0.0000 0.0000 0.0000 10.7745
#
#
#
# Elastic Compliance Matrix: (Units=1/GPa)
#
#
# Indices 1 2 3 4 5 6 
#
# 1 -0.003410 -0.017778 0.017234 0.000000 0.000000 0.000000
# 2 -0.017778 0.010569 0.014535 0.000000 0.000000 0.000000
# 3 0.017234 0.014535 -0.019866 0.000000 0.000000 0.000000
# 4 0.000000 0.000000 0.000000 -1.626992 0.000000 0.000000
# 5 0.000000 0.000000 0.000000 0.000000 0.029999 0.000000
# 6 0.000000 0.000000 0.000000 0.000000 0.000000 0.092812
#
#
# Mechanical properties :
#
#
# Convention : Reuss Voigt Hill
#
# Bulk Modulus (GPa) = 65.47246 66.78423 66.12834
# Shear Modulus (GPa) = -3.24722 11.81691 4.28484
#
# Velocity S-wave (km/s) = -1.32156 2.52107 1.51810
# Velocity P-wave (km/s) = 5.73463 6.66293 6.21613
#
# Compressibility (1/GPa) = 0.01527360
#
# Stress axis : x y z
#
# Youngs Moduli (GPa) = -293.23239 94.61911 -50.33648
#
# Poissons Ratio (x) = 1.68218 0.86750
# Poissons Ratio (y) = -5.21320 0.73165
# Poissons Ratio (z) = 5.05358 -1.37530
#
# Static dielectric constant tensor:
#      x y z
#    x 3.676920 0.000000 0.000000 
#    y 0.000000 2.929440 0.000000 
#    z 0.000000 0.000000 5.683550 
# 
# 
# High freq. dielectric constant tensor:
#      x y z
#    x 1.733370 0.000000 0.000000 
#    y 0.000000 1.666820 0.000000 
#    z 0.000000 0.000000 1.726150 
# 
# From -- ./inp_files/27827.got.cif
#   From: 2010.03.12/outbox.cif.g09.slc.cpg/sg42_14_cif.got.tgz:27827.got - 2010.04.14 02:04:31.
