data_PCOD8186563
_publ_section_title
;
Structure prediction by ZEFSAII (Michael W. Deem and Ramdas Pophale) SiO2 
 PCOD8186563
Probable space group: F M M 2
;
_chemical_formula_sum "Si O2"
_cell_formula_units_Z 80
_cell_length_a 7.522011
_cell_length_b 18.409364
_cell_length_c 28.703576
_cell_angle_alpha 90.000000
_cell_angle_beta 90.000000
_cell_angle_gamma 90.000000
_cell_volume 3974.740273
_symmetry_space_group_name_H-M "F M M 2"
_symmetry_group_IT_number 42
_symmetry_cell_setting 'orthorhombic'
loop_
_space_group_symop_operation_xyz
x,y,z
-x,-y,z
-x,y,z
x,-y,z
x,1/2+y,1/2+z
-x,1/2-y,1/2+z
-x,1/2+y,1/2+z
x,1/2-y,1/2+z
1/2+x,y,1/2+z
1/2-x,-y,1/2+z
1/2-x,y,1/2+z
1/2+x,-y,1/2+z
1/2+x,1/2+y,z
1/2-x,1/2-y,z
1/2-x,1/2+y,z
1/2+x,1/2-y,z
loop_
_atom_site_type_symbol
_atom_site_label
_atom_site_fract_x
_atom_site_fract_y
_atom_site_fract_z
Si Si1 0.208301 0.168393 0.669200
Si Si2 0.206157 0.669235 0.063540
Si Si3 0.000000 0.584889 0.832108
Si Si4 0.290633 0.334825 0.889499
Si Si5 0.200986 0.079221 0.977685
Si Si6 0.000000 0.916693 0.222621
O O1 0.250000 0.250000 0.685040
O O2 0.275702 0.157453 0.616050
O O3 0.319608 0.116126 0.701975
O O4 0.000000 0.150785 0.674689
O O5 0.250000 0.750000 0.046107
O O6 0.000000 0.654712 0.061136
O O7 0.295994 0.612038 0.029349
O O8 0.179206 0.623149 0.850339
O O9 0.000000 0.500000 0.846077
O O10 0.000000 0.596142 0.777245
O O11 0.500000 0.348280 0.880739
O O12 0.250000 0.250000 0.887974
O O13 0.219044 0.365887 0.939221
O O14 0.000000 0.066681 0.963132
O O15 0.297682 0.000000 0.976874
O O16 0.000000 0.000000 0.208787
#
# Coordination Sequence:
#
# PCOD8186563 Si02
#       6
#    16  16   8  16  16   8
#     4  10  21  41  66  95 127 168 215 266 318 377
#     4  10  21  35  58  88 121 162 211 255 306 367
#     4  11  26  46  68  95 127 169 213 262 329 388
#     4  11  23  43  67  96 129 163 214 267 318 376
#     4  10  22  37  57  88 125 169 209 250 312 374
#     4  11  26  44  66  97 129 167 211 262 333 388
#
# _framework density 20.127103000000002
#
# number of rings (size 3 to 8) (size 9 to 14) (size 15 to 20)
#    0.000    1.600    2.000    1.800    4.200    6.000 
#    0.000    4.000    0.000    0.000    0.000    0.000 
#    0.000    0.000    0.000    0.000    0.000    0.000 
#
# Total GULP energy -247989.137278 kJ/mol
# GULP energy per Si atom -12399.456864 kJ/mol
# Density = 2.008129 g / cm^3
# Si number density = 20.127103 Si / 1000 Ang^3
#
#
#
# Elastic Constant Matrix: (Units=GPa)
#
#
# Indices 1 2 3 4 5 6 
#
# 1 104.7451 52.4741 43.3807 0.0000 0.0000 0.0000
# 2 52.4741 179.2852 91.3780 0.0000 0.0000 0.0000
# 3 43.3807 91.3780 108.1129 0.0000 0.0000 0.0000
# 4 0.0000 0.0000 0.0000 37.9697 0.0000 0.0000
# 5 0.0000 0.0000 0.0000 0.0000 38.5722 0.0000
# 6 0.0000 0.0000 0.0000 0.0000 0.0000 12.7439
#
#
#
# Elastic Compliance Matrix: (Units=1/GPa)
#
#
# Indices 1 2 3 4 5 6 
#
# 1 0.011780 -0.001825 -0.003184 0.000000 0.000000 0.000000
# 2 -0.001825 0.010082 -0.007789 0.000000 0.000000 0.000000
# 3 -0.003184 -0.007789 0.017111 0.000000 0.000000 0.000000
# 4 0.000000 0.000000 0.000000 0.026337 0.000000 0.000000
# 5 0.000000 0.000000 0.000000 0.000000 0.025925 0.000000
# 6 0.000000 0.000000 0.000000 0.000000 0.000000 0.078469
#
#
# Mechanical properties :
#
#
# Convention : Reuss Voigt Hill
#
# Bulk Modulus (GPa) = 74.76074 85.17875 79.96974
# Shear Modulus (GPa) = 25.03029 31.51786 28.27408
#
# Velocity S-wave (km/s) = 3.53031 3.96149 3.75210
# Velocity P-wave (km/s) = 7.33774 7.95844 7.65439
#
# Compressibility (1/GPa) = 0.01337600
#
# Stress axis : x y z
#
# Youngs Moduli (GPa) = 84.88958 99.19042 58.44335
#
# Poissons Ratio (x) = 0.18100 0.18611
# Poissons Ratio (y) = 0.15491 0.45521
# Poissons Ratio (z) = 0.27033 0.77258
#
# Static dielectric constant tensor:
#      x y z
#    x 3.660580 0.000000 0.000000 
#    y 0.000000 3.848780 0.000000 
#    z 0.000000 0.000000 3.679270 
# 
# 
# High freq. dielectric constant tensor:
#      x y z
#    x 1.793220 0.000000 0.000000 
#    y 0.000000 1.793030 0.000000 
#    z 0.000000 0.000000 1.781550 
# 
# From -- ./inp_files/31290.got.cif
#   From: 2010.03.12/outbox.cif.g09.slc.cpg/sg42_16_cif.got.tgz:31290.got - 2010.04.14 02:04:31.
