data_PCOD8186603
_publ_section_title
;
Structure prediction by ZEFSAII (Michael W. Deem and Ramdas Pophale) SiO2 
 PCOD8186603
Probable space group: F M M 2
;
_chemical_formula_sum "Si O2"
_cell_formula_units_Z 96
_cell_length_a 18.687222
_cell_length_b 8.860831
_cell_length_c 30.609895
_cell_angle_alpha 90.000000
_cell_angle_beta 90.000000
_cell_angle_gamma 90.000000
_cell_volume 5068.518526
_symmetry_space_group_name_H-M "F M M 2"
_symmetry_group_IT_number 42
_symmetry_cell_setting 'orthorhombic'
loop_
_space_group_symop_operation_xyz
x,y,z
-x,-y,z
-x,y,z
x,-y,z
x,1/2+y,1/2+z
-x,1/2-y,1/2+z
-x,1/2+y,1/2+z
x,1/2-y,1/2+z
1/2+x,y,1/2+z
1/2-x,-y,1/2+z
1/2-x,y,1/2+z
1/2+x,-y,1/2+z
1/2+x,1/2+y,z
1/2-x,1/2-y,z
1/2-x,1/2+y,z
1/2+x,1/2-y,z
loop_
_atom_site_type_symbol
_atom_site_label
_atom_site_fract_x
_atom_site_fract_y
_atom_site_fract_z
Si Si1 0.916535 0.174649 0.840140
Si Si2 0.916366 0.825643 0.087416
Si Si3 0.917579 0.824901 0.497602
Si Si4 0.579137 0.821090 0.242065
Si Si5 0.827198 0.322530 0.914644
Si Si6 0.672831 0.178594 0.162660
O O1 0.896636 0.224978 0.790788
O O2 0.869555 0.276478 0.871508
O O3 0.000000 0.203902 0.849155
O O4 0.897470 0.000000 0.847887
O O5 0.873990 0.724145 0.121339
O O6 0.000000 0.797044 0.095209
O O7 0.895549 0.000000 0.093324
O O8 0.894128 0.773711 0.039049
O O9 0.870701 0.767594 0.457051
O O10 0.000000 0.795931 0.485320
O O11 0.903934 0.000000 0.508406
O O12 0.500000 0.754356 0.232034
O O13 0.635075 0.757853 0.206619
O O14 0.574588 0.000000 0.239024
O O15 0.818314 0.500000 0.914595
O O16 0.750000 0.250000 0.915330
O O17 0.750000 0.250000 0.158697
O O18 0.680279 0.000000 0.163917
#
# Coordination Sequence:
#
# PCOD8186603 Si02
#       6
#    16  16  16  16  16  16
#     4   9  18  35  59  84 110 141 179 223 270 321
#     4  10  21  37  58  84 111 139 177 224 270 320
#     4   9  19  37  59  80 104 139 182 225 270 321
#     4   8  16  33  57  82 106 138 181 224 267 319
#     4  11  23  37  54  79 112 147 183 223 268 320
#     4  11  22  36  55  79 111 148 183 221 268 321
#
# _framework density 18.940445
#
# number of rings (size 3 to 8) (size 9 to 14) (size 15 to 20)
#    0.000    2.333    0.000    3.500    0.000    5.333 
#    0.000    6.667    0.000    2.000    0.000    0.000 
#    0.000    0.000    0.000    0.000    0.000    0.000 
#
# Total GULP energy -297642.150195 kJ/mol
# GULP energy per Si atom -12401.756258 kJ/mol
# Density = 1.889734 g / cm^3
# Si number density = 18.940445 Si / 1000 Ang^3
#
#
#
# Elastic Constant Matrix: (Units=GPa)
#
#
# Indices 1 2 3 4 5 6 
#
# 1 94.6260 39.1747 80.4112 0.0000 0.0000 0.0000
# 2 39.1747 58.8186 44.3731 0.0000 0.0000 0.0000
# 3 80.4112 44.3731 146.5546 0.0000 0.0000 0.0000
# 4 0.0000 0.0000 0.0000 26.1916 0.0000 0.0000
# 5 0.0000 0.0000 0.0000 0.0000 2.1800 0.0000
# 6 0.0000 0.0000 0.0000 0.0000 0.0000 14.5009
#
#
#
# Elastic Compliance Matrix: (Units=1/GPa)
#
#
# Indices 1 2 3 4 5 6 
#
# 1 0.021900 -0.007156 -0.009850 0.000000 0.000000 0.000000
# 2 -0.007156 0.024372 -0.003453 0.000000 0.000000 0.000000
# 3 -0.009850 -0.003453 0.013273 0.000000 0.000000 0.000000
# 4 0.000000 0.000000 0.000000 0.038180 0.000000 0.000000
# 5 0.000000 0.000000 0.000000 0.000000 0.458717 0.000000
# 6 0.000000 0.000000 0.000000 0.000000 0.000000 0.068961
#
#
# Mechanical properties :
#
#
# Convention : Reuss Voigt Hill
#
# Bulk Modulus (GPa) = 53.67985 69.76858 61.72421
# Shear Modulus (GPa) = 7.43460 17.64384 12.53922
#
# Velocity S-wave (km/s) = 1.98337 3.05543 2.57579
# Velocity P-wave (km/s) = 5.80069 7.02590 6.44248
#
# Compressibility (1/GPa) = 0.01862896
#
# Stress axis : x y z
#
# Youngs Moduli (GPa) = 45.66141 41.03009 75.33944
#
# Poissons Ratio (x) = 0.29359 0.74207
# Poissons Ratio (y) = 0.32673 0.26017
# Poissons Ratio (z) = 0.44975 0.14169
#
# Static dielectric constant tensor:
#      x y z
#    x 3.573960 0.000000 0.000000 
#    y 0.000000 3.298190 0.000000 
#    z 0.000000 0.000000 3.667830 
# 
# 
# High freq. dielectric constant tensor:
#      x y z
#    x 1.735170 0.000000 0.000000 
#    y 0.000000 1.722920 0.000000 
#    z 0.000000 0.000000 1.750040 
# 
# From -- ./inp_files/31431.got.cif
#   From: 2010.03.12/outbox.cif.g09.slc.cpg/sg42_16_cif.got.tgz:31431.got - 2010.04.14 02:04:31.
