data_PCOD8186933
_publ_section_title
;
Structure prediction by ZEFSAII (Michael W. Deem and Ramdas Pophale) SiO2 
 PCOD8186933
Probable space group: F D D 2
;
_chemical_formula_sum "Si O2"
_cell_formula_units_Z 120
_cell_length_a 17.731648
_cell_length_b 15.827626
_cell_length_c 21.902166
_cell_angle_alpha 90.000000
_cell_angle_beta 90.000000
_cell_angle_gamma 90.000000
_cell_volume 6146.840542
_symmetry_space_group_name_H-M "F D D 2"
_symmetry_group_IT_number 43
_symmetry_cell_setting 'orthorhombic'
loop_
_space_group_symop_operation_xyz
x,y,z
-x,-y,z
1/4-x,1/4+y,1/4+z
1/4+x,1/4-y,1/4+z
x,1/2+y,1/2+z
-x,1/2-y,1/2+z
1/4-x,3/4+y,3/4+z
1/4+x,3/4-y,3/4+z
1/2+x,y,1/2+z
1/2-x,-y,1/2+z
3/4-x,1/4+y,3/4+z
3/4+x,1/4-y,3/4+z
1/2+x,1/2+y,z
1/2-x,1/2-y,z
3/4-x,3/4+y,1/4+z
3/4+x,3/4-y,1/4+z
loop_
_atom_site_type_symbol
_atom_site_label
_atom_site_fract_x
_atom_site_fract_y
_atom_site_fract_z
Si Si1 0.348834 0.358066 0.007450
Si Si2 0.402148 0.726121 0.948794
Si Si3 0.810213 0.679034 0.559379
Si Si4 0.750000 0.250000 0.590770
Si Si5 0.594964 0.340694 0.172121
Si Si6 0.481032 0.745303 0.279970
Si Si7 0.195781 0.918357 0.649049
Si Si8 0.540110 0.586783 0.101363
O O1 0.315922 0.280275 0.045579
O O2 0.292289 0.437278 0.006861
O O3 0.429933 0.379099 0.037183
O O4 0.368147 0.331337 0.937845
O O5 0.373860 0.822248 0.950805
O O6 0.490925 0.718480 0.937884
O O7 0.362743 0.675396 0.894083
O O8 0.380122 0.683257 0.012800
O O9 0.750000 0.750000 0.541104
O O10 0.840767 0.695964 0.627495
O O11 0.774225 0.586923 0.554305
O O12 0.779753 0.177377 0.635408
O O13 0.578327 0.275184 0.226433
O O14 0.517467 0.350564 0.134619
O O15 0.431870 0.783082 0.335408
O O16 0.500000 0.500000 0.086642
#
# Coordination Sequence:
#
# PCOD8186933 Si02
#       8
#    16  16  16   8  16  16  16  16
#     4  11  24  41  64  91 127 168 208 263 311 375
#     4  11  19  38  63  99 124 154 206 261 317 370
#     4  12  22  39  65  93 126 164 203 263 316 376
#     4  10  24  44  62  94 124 164 218 256 314 370
#     4  11  22  37  63  92 127 163 205 255 320 371
#     4  11  22  42  63  92 127 161 206 262 315 367
#     4  11  24  41  66  89 127 168 210 262 310 377
#     4  10  18  34  60  98 125 151 199 259 319 373
#
# _framework density 19.522224000000001
#
# number of rings (size 3 to 8) (size 9 to 14) (size 15 to 20)
#    0.000    1.067    6.667    2.000    4.667    0.000 
#    4.800    0.000    1.467    0.000    0.000    0.000 
#    0.000    0.000    0.000    0.000    0.000    0.000 
#
# Total GULP energy -372079.447639 kJ/mol
# GULP energy per Si atom -12402.648255 kJ/mol
# Density = 1.947779 g / cm^3
# Si number density = 19.522224 Si / 1000 Ang^3
#
#
#
# Elastic Constant Matrix: (Units=GPa)
#
#
# Indices 1 2 3 4 5 6 
#
# 1 61.8346 19.9503 37.3985 0.0000 0.0000 0.0000
# 2 19.9503 68.4051 34.2297 0.0000 0.0000 0.0000
# 3 37.3985 34.2297 119.6694 0.0000 0.0000 0.0000
# 4 0.0000 0.0000 0.0000 27.9882 0.0000 0.0000
# 5 0.0000 0.0000 0.0000 0.0000 31.7817 0.0000
# 6 0.0000 0.0000 0.0000 0.0000 0.0000 11.9274
#
#
#
# Elastic Compliance Matrix: (Units=1/GPa)
#
#
# Indices 1 2 3 4 5 6 
#
# 1 0.020540 -0.003242 -0.005492 0.000000 0.000000 0.000000
# 2 -0.003242 0.017573 -0.004013 0.000000 0.000000 0.000000
# 3 -0.005492 -0.004013 0.011220 0.000000 0.000000 0.000000
# 4 0.000000 0.000000 0.000000 0.035729 0.000000 0.000000
# 5 0.000000 0.000000 0.000000 0.000000 0.031465 0.000000
# 6 0.000000 0.000000 0.000000 0.000000 0.000000 0.083841
#
#
# Mechanical properties :
#
#
# Convention : Reuss Voigt Hill
#
# Bulk Modulus (GPa) = 41.94874 48.11846 45.03360
# Shear Modulus (GPa) = 21.38511 24.89484 23.13997
#
# Velocity S-wave (km/s) = 3.31331 3.57488 3.44657
# Velocity P-wave (km/s) = 6.01429 6.46074 6.24151
#
# Compressibility (1/GPa) = 0.02383862
#
# Stress axis : x y z
#
# Youngs Moduli (GPa) = 48.68625 56.90686 89.12321
#
# Poissons Ratio (x) = 0.18452 0.48942
# Poissons Ratio (y) = 0.15786 0.35766
# Poissons Ratio (z) = 0.26736 0.22837
#
# Static dielectric constant tensor:
#      x y z
#    x 3.433570 0.000000 0.000000 
#    y 0.000000 3.513350 0.000000 
#    z 0.000000 0.000000 3.667710 
# 
# 
# High freq. dielectric constant tensor:
#      x y z
#    x 1.743740 0.000000 0.000000 
#    y 0.000000 1.751480 0.000000 
#    z 0.000000 0.000000 1.769750 
# 
# From -- ./inp_files/17701.got.cif
#   From: 2010.06.25/outbox.cif.g09.slc.cpg/sg43_9_cif.got.tgz:17701.got - 2010.06.26 16:48:59.
