data_PCOD8186586
_publ_section_title
;
Structure prediction by ZEFSAII (Michael W. Deem and Ramdas Pophale) SiO2 
 PCOD8186586
Probable space group: F M M 2
;
_chemical_formula_sum "Si O2"
_cell_formula_units_Z 96
_cell_length_a 23.408412
_cell_length_b 16.127241
_cell_length_c 11.940078
_cell_angle_alpha 90.000000
_cell_angle_beta 90.000000
_cell_angle_gamma 90.000000
_cell_volume 4507.535881
_symmetry_space_group_name_H-M "F M M 2"
_symmetry_group_IT_number 42
_symmetry_cell_setting 'orthorhombic'
loop_
_space_group_symop_operation_xyz
x,y,z
-x,-y,z
-x,y,z
x,-y,z
x,1/2+y,1/2+z
-x,1/2-y,1/2+z
-x,1/2+y,1/2+z
x,1/2-y,1/2+z
1/2+x,y,1/2+z
1/2-x,-y,1/2+z
1/2-x,y,1/2+z
1/2+x,-y,1/2+z
1/2+x,1/2+y,z
1/2-x,1/2-y,z
1/2-x,1/2+y,z
1/2+x,1/2-y,z
loop_
_atom_site_type_symbol
_atom_site_label
_atom_site_fract_x
_atom_site_fract_y
_atom_site_fract_z
Si Si1 0.273027 0.401584 0.115800
Si Si2 0.159568 0.591056 0.412460
Si Si3 0.566730 0.167903 0.987735
Si Si4 0.876716 0.098775 0.266890
Si Si5 0.147578 0.901339 0.669076
Si Si6 0.936646 0.856107 0.050589
O O1 0.275644 0.500000 0.103254
O O2 0.311955 0.377979 0.224953
O O3 0.208440 0.369432 0.122317
O O4 0.297714 0.362243 0.999445
O O5 0.184180 0.500000 0.382582
O O6 0.147475 0.636797 0.295122
O O7 0.100733 0.579937 0.479857
O O8 0.500000 0.139428 0.975864
O O9 0.607312 0.135276 0.887983
O O10 0.593359 0.132704 0.102454
O O11 0.570745 0.266134 0.995225
O O12 0.920040 0.142146 0.180941
O O13 0.885126 0.000000 0.270587
O O14 0.143188 0.000000 0.667823
O O15 0.000000 0.889009 0.039895
#
# Coordination Sequence:
#
# PCOD8186586 Si02
#       6
#    16  16  16  16  16  16
#     4   8  17  35  61  89 114 150 200 247 297 350
#     4   9  19  36  59  87 114 148 200 246 289 357
#     4  11  25  39  58  88 125 163 197 244 307 363
#     4  10  21  40  66  91 116 155 211 258 290 354
#     4  10  21  36  60  88 120 157 191 242 304 366
#     4  10  22  39  60  83 117 161 200 244 301 355
#
# _framework density 21.297668000000002
#
# number of rings (size 3 to 8) (size 9 to 14) (size 15 to 20)
#    0.000    2.333    0.000    2.500    4.667    4.000 
#    0.000    5.000    0.000    0.000    0.000    0.000 
#    0.000    0.000    0.000    0.000    0.000    0.000 
#
# Total GULP energy -297352.643850 kJ/mol
# GULP energy per Si atom -12389.693494 kJ/mol
# Density = 2.124919 g / cm^3
# Si number density = 21.297668 Si / 1000 Ang^3
#
#
#
# Elastic Constant Matrix: (Units=GPa)
#
#
# Indices 1 2 3 4 5 6 
#
# 1 95.9155 6.7809 30.5043 0.0000 0.0000 0.0000
# 2 6.7809 31.3824 5.9625 0.0000 0.0000 0.0000
# 3 30.5043 5.9625 141.0400 0.0000 0.0000 0.0000
# 4 0.0000 0.0000 0.0000 27.4381 0.0000 0.0000
# 5 0.0000 0.0000 0.0000 0.0000 22.6716 0.0000
# 6 0.0000 0.0000 0.0000 0.0000 0.0000 13.5398
#
#
#
# Elastic Compliance Matrix: (Units=1/GPa)
#
#
# Indices 1 2 3 4 5 6 
#
# 1 0.011319 -0.001997 -0.002364 0.000000 0.000000 0.000000
# 2 -0.001997 0.032475 -0.000941 0.000000 0.000000 0.000000
# 3 -0.002364 -0.000941 0.007641 0.000000 0.000000 0.000000
# 4 0.000000 0.000000 0.000000 0.036446 0.000000 0.000000
# 5 0.000000 0.000000 0.000000 0.000000 0.044108 0.000000
# 6 0.000000 0.000000 0.000000 0.000000 0.000000 0.073856
#
#
# Mechanical properties :
#
#
# Convention : Reuss Voigt Hill
#
# Bulk Modulus (GPa) = 24.49028 39.42591 31.95810
# Shear Modulus (GPa) = 21.73359 27.73590 24.73475
#
# Velocity S-wave (km/s) = 3.19794 3.61265 3.41160
# Velocity P-wave (km/s) = 5.01595 5.99614 5.52782
#
# Compressibility (1/GPa) = 0.04083253
#
# Stress axis : x y z
#
# Youngs Moduli (GPa) = 88.34933 30.79272 130.86989
#
# Poissons Ratio (x) = 0.06148 0.30933
# Poissons Ratio (y) = 0.17640 0.12316
# Poissons Ratio (z) = 0.20882 0.02898
#
# Static dielectric constant tensor:
#      x y z
#    x 4.019930 0.000000 0.000000 
#    y 0.000000 3.445940 0.000000 
#    z 0.000000 0.000000 4.058330 
# 
# 
# High freq. dielectric constant tensor:
#      x y z
#    x 1.838680 0.000000 0.000000 
#    y 0.000000 1.803800 0.000000 
#    z 0.000000 0.000000 1.847280 
# 
# From -- ./inp_files/8792.got.cif
#   From: 2010.03.12/outbox.cif.g09.slc.cpg/sg42_5_cif.got.tgz:8792.got - 2010.04.14 02:04:31.
