data_PCOD8186645
_publ_section_title
;
Structure prediction by ZEFSAII (Michael W. Deem and Ramdas Pophale) SiO2 
 PCOD8186645
Probable space group: F M M 2
;
_chemical_formula_sum "Si O2"
_cell_formula_units_Z 64
_cell_length_a 14.947471
_cell_length_b 8.746970
_cell_length_c 24.237500
_cell_angle_alpha 90.000000
_cell_angle_beta 90.000000
_cell_angle_gamma 90.000000
_cell_volume 3168.933887
_symmetry_space_group_name_H-M "F M M 2"
_symmetry_group_IT_number 42
_symmetry_cell_setting 'orthorhombic'
loop_
_space_group_symop_operation_xyz
x,y,z
-x,-y,z
-x,y,z
x,-y,z
x,1/2+y,1/2+z
-x,1/2-y,1/2+z
-x,1/2+y,1/2+z
x,1/2-y,1/2+z
1/2+x,y,1/2+z
1/2-x,-y,1/2+z
1/2-x,y,1/2+z
1/2+x,-y,1/2+z
1/2+x,1/2+y,z
1/2-x,1/2-y,z
1/2-x,1/2+y,z
1/2+x,1/2-y,z
loop_
_atom_site_type_symbol
_atom_site_label
_atom_site_fract_x
_atom_site_fract_y
_atom_site_fract_z
Si Si1 0.152854 0.677616 0.493460
Si Si2 0.500000 0.175023 0.924936
Si Si3 0.500000 0.823386 0.794908
Si Si4 0.849118 0.181249 0.724169
Si Si5 0.846433 0.821972 0.114830
O O1 0.163628 0.500000 0.481238
O O2 0.250000 0.750000 0.487853
O O3 0.088800 0.748194 0.448145
O O4 0.108747 0.702873 0.554690
O O5 0.500000 0.196306 0.859968
O O6 0.500000 0.000000 0.943048
O O7 0.410876 0.741822 0.773082
O O8 0.500000 0.000000 0.776886
O O9 0.750000 0.250000 0.730807
O O10 0.894257 0.235295 0.665814
O O11 0.844164 0.000000 0.726496
O O12 0.750000 0.750000 0.109212
O O13 0.840427 0.000000 0.130049
#
# Coordination Sequence:
#
# PCOD8186645 Si02
#       5
#    16   8   8  16  16
#     4  10  21  38  62  89 120 155 191 235 289 344
#     4  11  25  42  61  84 113 152 200 247 290 339
#     4  11  25  44  61  82 113 152 200 249 290 339
#     4  11  22  38  62  90 119 154 191 236 291 346
#     4   9  17  32  56  87 120 153 188 231 283 343
#
# _framework density 20.196068
#
# number of rings (size 3 to 8) (size 9 to 14) (size 15 to 20)
#    0.000    1.750    0.000    6.000    0.000    7.000 
#    0.000    1.250    0.000    0.000    0.000    0.000 
#    0.000    0.000    0.000    0.000    0.000    0.000 
#
# Total GULP energy -198337.963588 kJ/mol
# GULP energy per Si atom -12396.122724 kJ/mol
# Density = 2.015010 g / cm^3
# Si number density = 20.196068 Si / 1000 Ang^3
#
#
#
# Elastic Constant Matrix: (Units=GPa)
#
#
# Indices 1 2 3 4 5 6 
#
# 1 104.7364 62.0885 55.2033 0.0000 0.0000 0.0000
# 2 62.0885 189.2109 78.4688 0.0000 0.0000 0.0000
# 3 55.2033 78.4688 104.9408 0.0000 0.0000 0.0000
# 4 0.0000 0.0000 0.0000 33.3317 0.0000 0.0000
# 5 0.0000 0.0000 0.0000 0.0000 35.0319 0.0000
# 6 0.0000 0.0000 0.0000 0.0000 0.0000 25.7676
#
#
#
# Elastic Compliance Matrix: (Units=1/GPa)
#
#
# Indices 1 2 3 4 5 6 
#
# 1 0.013816 -0.002203 -0.005621 0.000000 0.000000 0.000000
# 2 -0.002203 0.008012 -0.004832 0.000000 0.000000 0.000000
# 3 -0.005621 -0.004832 0.016099 0.000000 0.000000 0.000000
# 4 0.000000 0.000000 0.000000 0.030001 0.000000 0.000000
# 5 0.000000 0.000000 0.000000 0.000000 0.028545 0.000000
# 6 0.000000 0.000000 0.000000 0.000000 0.000000 0.038808
#
#
# Mechanical properties :
#
#
# Convention : Reuss Voigt Hill
#
# Bulk Modulus (GPa) = 79.26501 87.82325 83.54413
# Shear Modulus (GPa) = 30.34001 32.36807 31.35404
#
# Velocity S-wave (km/s) = 3.88012 4.00771 3.94443
# Velocity P-wave (km/s) = 7.70758 8.06197 7.88676
#
# Compressibility (1/GPa) = 0.01261591
#
# Stress axis : x y z
#
# Youngs Moduli (GPa) = 72.37941 124.81515 62.11498
#
# Poissons Ratio (x) = 0.27492 0.34914
# Poissons Ratio (y) = 0.15942 0.30015
# Poissons Ratio (z) = 0.40683 0.60312
#
# Static dielectric constant tensor:
#      x y z
#    x 3.426910 0.000000 0.000000 
#    y 0.000000 3.877270 0.000000 
#    z 0.000000 0.000000 4.136980 
# 
# 
# High freq. dielectric constant tensor:
#      x y z
#    x 1.775520 0.000000 0.000000 
#    y 0.000000 1.808540 0.000000 
#    z 0.000000 0.000000 1.797120 
# 
# From -- ./inp_files/23186.got.cif
#   From: 2010.03.12/outbox.cif.g09.slc.cpg/sg42_12_cif.got.tgz:23186.got - 2010.04.14 02:04:31.
