data_PCOD8186668
_publ_section_title
;
Structure prediction by ZEFSAII (Michael W. Deem and Ramdas Pophale) SiO2 
 PCOD8186668
Probable space group: F M M 2
;
_chemical_formula_sum "Si O2"
_cell_formula_units_Z 80
_cell_length_a 29.360919
_cell_length_b 8.783151
_cell_length_c 14.875793
_cell_angle_alpha 90.000000
_cell_angle_beta 90.000000
_cell_angle_gamma 90.000000
_cell_volume 3836.190103
_symmetry_space_group_name_H-M "F M M 2"
_symmetry_group_IT_number 42
_symmetry_cell_setting 'orthorhombic'
loop_
_space_group_symop_operation_xyz
x,y,z
-x,-y,z
-x,y,z
x,-y,z
x,1/2+y,1/2+z
-x,1/2-y,1/2+z
-x,1/2+y,1/2+z
x,1/2-y,1/2+z
1/2+x,y,1/2+z
1/2-x,-y,1/2+z
1/2-x,y,1/2+z
1/2+x,-y,1/2+z
1/2+x,1/2+y,z
1/2-x,1/2-y,z
1/2-x,1/2+y,z
1/2+x,1/2-y,z
loop_
_atom_site_type_symbol
_atom_site_label
_atom_site_fract_x
_atom_site_fract_y
_atom_site_fract_z
Si Si1 0.106677 0.682356 0.334100
Si Si2 0.053693 0.324996 0.677005
Si Si3 0.887906 0.820747 0.526236
Si Si4 0.205304 0.329923 0.537291
Si Si5 0.793651 0.333468 0.324050
O O1 0.103071 0.500000 0.328544
O O2 0.069057 0.763199 0.273804
O O3 0.098298 0.731977 0.436251
O O4 0.157002 0.739342 0.300891
O O5 0.069041 0.500000 0.664955
O O6 0.074826 0.219493 0.600361
O O7 0.000000 0.308470 0.671233
O O8 0.838713 0.769028 0.563530
O O9 0.887321 0.000000 0.507694
O O10 0.200244 0.500000 0.577186
O O11 0.250000 0.250000 0.579301
O O12 0.210685 0.339166 0.430817
O O13 0.792075 0.500000 0.281745
O O14 0.750000 0.250000 0.281147
#
# Coordination Sequence:
#
# PCOD8186668 Si02
#       5
#    16  16  16  16  16
#     4  10  21  39  62  89 121 156 196 242 293 351
#     4  11  25  44  64  87 115 149 195 252 308 360
#     4  11  22  38  62  90 121 159 200 242 293 353
#     4   9  16  29  51  82 119 157 197 240 287 341
#     4   8  15  27  48  79 114 151 188 227 274 331
#
# _framework density 20.854023999999999
#
# number of rings (size 3 to 8) (size 9 to 14) (size 15 to 20)
#    0.000    2.200    0.000    4.800    0.000    8.000 
#    0.000    1.000    0.000    2.400    0.000    0.000 
#    0.000    0.000    0.000    0.000    0.000    0.000 
#
# Total GULP energy -247968.336012 kJ/mol
# GULP energy per Si atom -12398.416801 kJ/mol
# Density = 2.080656 g / cm^3
# Si number density = 20.854024 Si / 1000 Ang^3
#
#
#
# Elastic Constant Matrix: (Units=GPa)
#
#
# Indices 1 2 3 4 5 6 
#
# 1 111.8886 46.8986 35.0261 0.0000 0.0000 0.0000
# 2 46.8986 103.2369 11.3085 0.0000 0.0000 0.0000
# 3 35.0261 11.3085 55.4006 0.0000 0.0000 0.0000
# 4 0.0000 0.0000 0.0000 19.3371 0.0000 0.0000
# 5 0.0000 0.0000 0.0000 0.0000 121.8419 0.0000
# 6 0.0000 0.0000 0.0000 0.0000 0.0000 36.5943
#
#
#
# Elastic Compliance Matrix: (Units=1/GPa)
#
#
# Indices 1 2 3 4 5 6 
#
# 1 0.013497 -0.005316 -0.007448 0.000000 0.000000 0.000000
# 2 -0.005316 0.012001 0.000911 0.000000 0.000000 0.000000
# 3 -0.007448 0.000911 0.022573 0.000000 0.000000 0.000000
# 4 0.000000 0.000000 0.000000 0.051714 0.000000 0.000000
# 5 0.000000 0.000000 0.000000 0.000000 0.008207 0.000000
# 6 0.000000 0.000000 0.000000 0.000000 0.000000 0.027327
#
#
# Mechanical properties :
#
#
# Convention : Reuss Voigt Hill
#
# Bulk Modulus (GPa) = 41.04061 50.77693 45.90877
# Shear Modulus (GPa) = 29.91356 47.37419 38.64387
#
# Velocity S-wave (km/s) = 3.79149 4.77141 4.30939
# Velocity P-wave (km/s) = 6.23617 7.39978 6.84276
#
# Compressibility (1/GPa) = 0.02436611
#
# Stress axis : x y z
#
# Youngs Moduli (GPa) = 74.08953 83.32313 44.29982
#
# Poissons Ratio (x) = 0.44292 0.32996
# Poissons Ratio (y) = 0.39383 -0.04036
# Poissons Ratio (z) = 0.55184 -0.07590
#
# Static dielectric constant tensor:
#      x y z
#    x 3.850870 0.000000 0.000000 
#    y 0.000000 4.000400 0.000000 
#    z 0.000000 0.000000 3.411340 
# 
# 
# High freq. dielectric constant tensor:
#      x y z
#    x 1.820100 0.000000 0.000000 
#    y 0.000000 1.824270 0.000000 
#    z 0.000000 0.000000 1.795500 
# 
# From -- ./inp_files/18187.got.cif
#   From: 2010.03.12/outbox.cif.g09.slc.cpg/sg42_10_cif.got.tgz:18187.got - 2010.04.14 02:04:31.
