data_PCOD8186682
_publ_section_title
;
Structure prediction by ZEFSAII (Michael W. Deem and Ramdas Pophale) SiO2 
 PCOD8186682
Probable space group: F M M 2
;
_chemical_formula_sum "Si O2"
_cell_formula_units_Z 88
_cell_length_a 14.783018
_cell_length_b 21.797196
_cell_length_c 12.703460
_cell_angle_alpha 90.000000
_cell_angle_beta 90.000000
_cell_angle_gamma 90.000000
_cell_volume 4093.414838
_symmetry_space_group_name_H-M "F M M 2"
_symmetry_group_IT_number 42
_symmetry_cell_setting 'orthorhombic'
loop_
_space_group_symop_operation_xyz
x,y,z
-x,-y,z
-x,y,z
x,-y,z
x,1/2+y,1/2+z
-x,1/2-y,1/2+z
-x,1/2+y,1/2+z
x,1/2-y,1/2+z
1/2+x,y,1/2+z
1/2-x,-y,1/2+z
1/2-x,y,1/2+z
1/2+x,-y,1/2+z
1/2+x,1/2+y,z
1/2-x,1/2-y,z
1/2-x,1/2+y,z
1/2+x,1/2-y,z
loop_
_atom_site_type_symbol
_atom_site_label
_atom_site_fract_x
_atom_site_fract_y
_atom_site_fract_z
Si Si1 0.338497 0.646508 0.950180
Si Si2 0.000000 0.346389 0.174149
Si Si3 0.352427 0.762291 0.266685
Si Si4 0.500000 0.428092 0.869045
Si Si5 0.180914 0.568756 0.856374
Si Si6 0.500000 0.933146 0.985330
Si Si7 0.102745 0.640016 0.679862
O O1 0.355683 0.709321 0.884716
O O2 0.412412 0.595005 0.929375
O O3 0.243617 0.617595 0.915763
O O4 0.344898 0.661488 0.074015
O O5 0.092197 0.307620 0.189501
O O6 0.000000 0.404280 0.250671
O O7 0.000000 0.374368 0.059179
O O8 0.250000 0.750000 0.227942
O O9 0.402160 0.696868 0.261992
O O10 0.500000 0.500000 0.867817
O O11 0.222894 0.500000 0.858321
O O12 0.163515 0.587199 0.734293
O O13 0.085416 0.571141 0.911293
O O14 0.500000 0.000000 0.043669
O O15 0.000000 0.618104 0.655936
#
# Coordination Sequence:
#
# PCOD8186682 Si02
#       7
#    16   8  16   8  16   8  16
#     4  11  25  44  68 101 135 178 230 279 343 406
#     4  10  23  40  66  96 133 174 226 274 338 406
#     4  11  24  44  65  98 134 174 224 282 335 398
#     4  10  21  40  64  96 135 172 222 286 333 395
#     4  11  25  45  68  99 139 178 228 284 340 409
#     4  10  23  42  66  98 135 182 228 280 341 403
#     4  12  25  46  71 100 134 184 231 281 340 404
#
# _framework density 21.497942999999999
#
# number of rings (size 3 to 8) (size 9 to 14) (size 15 to 20)
#    0.000    1.091    4.545    0.818    2.545    3.636 
#    0.000    3.636    0.000    0.000    0.000    0.000 
#    0.000    0.000    0.000    0.000    0.000    0.000 
#
# Total GULP energy -272748.771206 kJ/mol
# GULP energy per Si atom -12397.671418 kJ/mol
# Density = 2.144901 g / cm^3
# Si number density = 21.497943 Si / 1000 Ang^3
#
#
#
# Elastic Constant Matrix: (Units=GPa)
#
#
# Indices 1 2 3 4 5 6 
#
# 1 121.0725 25.0947 37.3155 0.0000 0.0000 0.0000
# 2 25.0947 107.1163 50.6016 0.0000 0.0000 0.0000
# 3 37.3155 50.6016 117.0158 0.0000 0.0000 0.0000
# 4 0.0000 0.0000 0.0000 28.5127 0.0000 0.0000
# 5 0.0000 0.0000 0.0000 0.0000 28.2390 0.0000
# 6 0.0000 0.0000 0.0000 0.0000 0.0000 30.0256
#
#
#
# Elastic Compliance Matrix: (Units=1/GPa)
#
#
# Indices 1 2 3 4 5 6 
#
# 1 0.009239 -0.000971 -0.002526 0.000000 0.000000 0.000000
# 2 -0.000971 0.011834 -0.004808 0.000000 0.000000 0.000000
# 3 -0.002526 -0.004808 0.011431 0.000000 0.000000 0.000000
# 4 0.000000 0.000000 0.000000 0.035072 0.000000 0.000000
# 5 0.000000 0.000000 0.000000 0.000000 0.035412 0.000000
# 6 0.000000 0.000000 0.000000 0.000000 0.000000 0.033305
#
#
# Mechanical properties :
#
#
# Convention : Reuss Voigt Hill
#
# Bulk Modulus (GPa) = 62.91859 63.46981 63.19420
# Shear Modulus (GPa) = 31.60509 32.83498 32.22004
#
# Velocity S-wave (km/s) = 3.83841 3.91238 3.87557
# Velocity P-wave (km/s) = 6.99823 7.07083 7.03463
#
# Compressibility (1/GPa) = 0.01589355
#
# Stress axis : x y z
#
# Youngs Moduli (GPa) = 108.23133 84.49936 87.48410
#
# Poissons Ratio (x) = 0.08206 0.22103
# Poissons Ratio (y) = 0.10510 0.42062
# Poissons Ratio (z) = 0.27344 0.40627
#
# Static dielectric constant tensor:
#      x y z
#    x 3.973550 0.000000 0.000000 
#    y 0.000000 4.056050 0.000000 
#    z 0.000000 0.000000 3.731260 
# 
# 
# High freq. dielectric constant tensor:
#      x y z
#    x 1.856170 0.000000 0.000000 
#    y 0.000000 1.849320 0.000000 
#    z 0.000000 0.000000 1.830130 
# 
# From -- ./inp_files/7884.got.cif
#   From: 2010.03.12/outbox.cif.g09.slc.cpg/sg42_4_cif.got.tgz:7884.got - 2010.04.14 02:04:31.
