data_PCOD8186948
_publ_section_title
;
Structure prediction by ZEFSAII (Michael W. Deem and Ramdas Pophale) SiO2 
 PCOD8186948
Probable space group: F D D 2
;
_chemical_formula_sum "Si O2"
_cell_formula_units_Z 88
_cell_length_a 9.633117
_cell_length_b 26.009871
_cell_length_c 17.723670
_cell_angle_alpha 90.000000
_cell_angle_beta 90.000000
_cell_angle_gamma 90.000000
_cell_volume 4440.774173
_symmetry_space_group_name_H-M "F D D 2"
_symmetry_group_IT_number 43
_symmetry_cell_setting 'orthorhombic'
loop_
_space_group_symop_operation_xyz
x,y,z
-x,-y,z
1/4-x,1/4+y,1/4+z
1/4+x,1/4-y,1/4+z
x,1/2+y,1/2+z
-x,1/2-y,1/2+z
1/4-x,3/4+y,3/4+z
1/4+x,3/4-y,3/4+z
1/2+x,y,1/2+z
1/2-x,-y,1/2+z
3/4-x,1/4+y,3/4+z
3/4+x,1/4-y,3/4+z
1/2+x,1/2+y,z
1/2-x,1/2-y,z
3/4-x,3/4+y,1/4+z
3/4+x,3/4-y,1/4+z
loop_
_atom_site_type_symbol
_atom_site_label
_atom_site_fract_x
_atom_site_fract_y
_atom_site_fract_z
Si Si1 0.066729 0.159520 0.345560
Si Si2 0.810001 0.472264 0.428594
Si Si3 0.500000 0.000000 0.559734
Si Si4 0.466962 0.384060 0.660747
Si Si5 0.280757 0.153856 0.080488
Si Si6 0.019309 0.160862 0.173406
O O1 0.157534 0.211208 0.360603
O O2 0.067616 0.145297 0.257281
O O3 0.125711 0.114777 0.398852
O O4 0.907020 0.164627 0.370295
O O5 0.893588 0.467677 0.507579
O O6 0.691367 0.427581 0.425993
O O7 0.922433 0.459565 0.363022
O O8 0.744272 0.528031 0.417114
O O9 0.604040 0.388815 0.607233
O O10 0.488655 0.410143 0.741590
O O11 0.133708 0.138775 0.116381
#
# Coordination Sequence:
#
# PCOD8186948 Si02
#       6
#    16  16   8  16  16  16
#     4  11  22  37  60  91 116 158 198 257 294 359
#     4   9  18  36  63  79 114 163 198 232 292 375
#     4  10  18  42  62  84 118 174 206 224 308 392
#     4  10  21  35  59  86 122 147 194 255 301 332
#     4  10  18  37  60  85 113 160 194 241 286 367
#     4  11  20  39  64  83 117 164 207 228 303 369
#
# _framework density 19.816365000000001
#
# number of rings (size 3 to 8) (size 9 to 14) (size 15 to 20)
#    1.091    0.727    3.636    3.273    0.000    0.727 
#    3.273    0.000   12.000    0.000    0.000    0.000 
#    0.000    0.000    0.000    0.000    0.000    0.000 
#
# Total GULP energy -272581.204464 kJ/mol
# GULP energy per Si atom -12390.054748 kJ/mol
# Density = 1.977126 g / cm^3
# Si number density = 19.816365 Si / 1000 Ang^3
#
#
#
# Elastic Constant Matrix: (Units=GPa)
#
#
# Indices 1 2 3 4 5 6 
#
# 1 60.6758 9.9901 12.7154 0.0000 0.0000 0.0000
# 2 9.9901 60.0534 5.8405 0.0000 0.0000 0.0000
# 3 12.7154 5.8405 76.5891 0.0000 0.0000 0.0000
# 4 0.0000 0.0000 0.0000 28.9823 0.0000 0.0000
# 5 0.0000 0.0000 0.0000 0.0000 31.4878 0.0000
# 6 0.0000 0.0000 0.0000 0.0000 0.0000 37.4403
#
#
#
# Elastic Compliance Matrix: (Units=1/GPa)
#
#
# Indices 1 2 3 4 5 6 
#
# 1 0.017483 -0.002646 -0.002701 0.000000 0.000000 0.000000
# 2 -0.002646 0.017177 -0.000871 0.000000 0.000000 0.000000
# 3 -0.002701 -0.000871 0.013571 0.000000 0.000000 0.000000
# 4 0.000000 0.000000 0.000000 0.034504 0.000000 0.000000
# 5 0.000000 0.000000 0.000000 0.000000 0.031758 0.000000
# 6 0.000000 0.000000 0.000000 0.000000 0.000000 0.026709
#
#
# Mechanical properties :
#
#
# Convention : Reuss Voigt Hill
#
# Bulk Modulus (GPa) = 27.93553 28.26782 28.10167
# Shear Modulus (GPa) = 30.19901 30.83354 30.51628
#
# Velocity S-wave (km/s) = 3.90801 3.94885 3.92848
# Velocity P-wave (km/s) = 5.87292 5.92343 5.89823
#
# Compressibility (1/GPa) = 0.03579671
#
# Stress axis : x y z
#
# Youngs Moduli (GPa) = 57.19972 58.21860 73.68403
#
# Poissons Ratio (x) = 0.15403 0.19900
# Poissons Ratio (y) = 0.15133 0.06415
# Poissons Ratio (z) = 0.15448 0.05069
#
# Static dielectric constant tensor:
#      x y z
#    x 3.468810 0.000000 0.000000 
#    y 0.000000 3.400230 0.000000 
#    z 0.000000 0.000000 3.441840 
# 
# 
# High freq. dielectric constant tensor:
#      x y z
#    x 1.767230 0.000000 0.000000 
#    y 0.000000 1.749930 0.000000 
#    z 0.000000 0.000000 1.765190 
# 
# From -- ./inp_files/12876.got.cif
#   From: 2010.06.25/outbox.cif.g09.slc.cpg/sg43_7_cif.got.tgz:12876.got - 2010.06.26 16:48:59.
