data_PCOD8186128
_publ_section_title
;
Structure prediction by ZEFSAII (Michael W. Deem and Ramdas Pophale) SiO2 
 PCOD8186128
Probable space group: F M M 2
;
_chemical_formula_sum "Si O2"
_cell_formula_units_Z 112
_cell_length_a 36.946749
_cell_length_b 13.635455
_cell_length_c 10.950382
_cell_angle_alpha 90.000000
_cell_angle_beta 90.000000
_cell_angle_gamma 90.000000
_cell_volume 5516.646227
_symmetry_space_group_name_H-M "F M M 2"
_symmetry_group_IT_number 42
_symmetry_cell_setting 'orthorhombic'
loop_
_space_group_symop_operation_xyz
x,y,z
-x,-y,z
-x,y,z
x,-y,z
x,1/2+y,1/2+z
-x,1/2-y,1/2+z
-x,1/2+y,1/2+z
x,1/2-y,1/2+z
1/2+x,y,1/2+z
1/2-x,-y,1/2+z
1/2-x,y,1/2+z
1/2+x,-y,1/2+z
1/2+x,1/2+y,z
1/2-x,1/2-y,z
1/2-x,1/2+y,z
1/2+x,1/2-y,z
loop_
_atom_site_type_symbol
_atom_site_label
_atom_site_fract_x
_atom_site_fract_y
_atom_site_fract_z
Si Si1 0.224503 0.887852 0.171810
Si Si2 0.847511 0.690485 0.362226
Si Si3 0.596354 0.805948 0.561457
Si Si4 0.768190 0.616403 0.403266
Si Si5 0.902682 0.613298 0.182735
Si Si6 0.145663 0.111662 0.253511
Si Si7 0.459725 0.114559 0.390725
O O1 0.241033 0.840737 0.297917
O O2 0.181010 0.876231 0.166761
O O3 0.236156 0.000000 0.178918
O O4 0.240511 0.844829 0.042649
O O5 0.871827 0.655845 0.474043
O O6 0.807493 0.651783 0.367229
O O7 0.864067 0.639525 0.241765
O O8 0.848693 0.809694 0.361345
O O9 0.593269 0.687471 0.569158
O O10 0.607911 0.858335 0.687910
O O11 0.557606 0.841871 0.514026
O O12 0.767178 0.500000 0.407886
O O13 0.903986 0.500000 0.139701
O O14 0.935413 0.640299 0.274000
O O15 0.143082 0.000000 0.304057
O O16 0.500000 0.158735 0.372466
O O17 0.461868 0.000000 0.409782
#
# Coordination Sequence:
#
# PCOD8186128 Si02
#       7
#    16  16  16  16  16  16  16
#     4   9  19  35  56  80 109 147 189 239 298 351
#     4  10  20  34  55  80 104 144 188 233 283 340
#     4  10  19  34  57  82 107 145 189 226 282 338
#     4  10  19  36  58  82 111 145 192 245 298 353
#     4   9  19  34  53  81 114 145 182 229 281 337
#     4  10  20  36  54  77 109 146 186 233 285 339
#     4   9  18  33  55  84 113 143 183 228 273 330
#
# _framework density 20.302191000000001
#
# number of rings (size 3 to 8) (size 9 to 14) (size 15 to 20)
#    0.000    2.429    1.429    0.857    0.000    2.857 
#    5.143    1.429    0.000    0.000    0.000    0.000 
#    0.000    0.000    0.000    0.000    0.000    0.000 
#
# Total GULP energy -346897.967681 kJ/mol
# GULP energy per Si atom -12389.213131 kJ/mol
# Density = 2.025598 g / cm^3
# Si number density = 20.302191 Si / 1000 Ang^3
#
#
#
# Elastic Constant Matrix: (Units=GPa)
#
#
# Indices 1 2 3 4 5 6 
#
# 1 93.7856 20.1131 24.0174 0.0000 0.0000 0.0000
# 2 20.1131 38.4457 -5.2404 0.0000 0.0000 0.0000
# 3 24.0174 -5.2404 71.1261 0.0000 0.0000 0.0000
# 4 0.0000 0.0000 0.0000 17.9580 0.0000 0.0000
# 5 0.0000 0.0000 0.0000 0.0000 16.6786 0.0000
# 6 0.0000 0.0000 0.0000 0.0000 0.0000 25.6782
#
#
#
# Elastic Compliance Matrix: (Units=1/GPa)
#
#
# Indices 1 2 3 4 5 6 
#
# 1 0.013681 -0.007866 -0.005199 0.000000 0.000000 0.000000
# 2 -0.007866 0.030797 0.004925 0.000000 0.000000 0.000000
# 3 -0.005199 0.004925 0.016178 0.000000 0.000000 0.000000
# 4 0.000000 0.000000 0.000000 0.055686 0.000000 0.000000
# 5 0.000000 0.000000 0.000000 0.000000 0.059957 0.000000
# 6 0.000000 0.000000 0.000000 0.000000 0.000000 0.038944
#
#
# Mechanical properties :
#
#
# Convention : Reuss Voigt Hill
#
# Bulk Modulus (GPa) = 22.53463 31.23752 26.88608
# Shear Modulus (GPa) = 20.29924 23.02743 21.66333
#
# Velocity S-wave (km/s) = 3.16548 3.37149 3.27011
# Velocity P-wave (km/s) = 4.94813 5.52952 5.24689
#
# Compressibility (1/GPa) = 0.04437614
#
# Stress axis : x y z
#
# Youngs Moduli (GPa) = 73.09400 32.47052 61.81208
#
# Poissons Ratio (x) = 0.25541 0.32138
# Poissons Ratio (y) = 0.57496 -0.30444
# Poissons Ratio (z) = 0.38004 -0.15992
#
# Static dielectric constant tensor:
#      x y z
#    x 3.788100 0.000000 0.000000 
#    y 0.000000 3.691630 0.000000 
#    z 0.000000 0.000000 3.760190 
# 
# 
# High freq. dielectric constant tensor:
#      x y z
#    x 1.779640 0.000000 0.000000 
#    y 0.000000 1.794920 0.000000 
#    z 0.000000 0.000000 1.776830 
# 
# From -- ./inp_files/8140.got.cif
#   From: 2010.03.12/outbox.cif.g09.slc.cpg/sg42_5_cif.got.tgz:8140.got - 2010.04.14 02:04:31.
