data_PCOD8186376
_publ_section_title
;
Structure prediction by ZEFSAII (Michael W. Deem and Ramdas Pophale) SiO2 
 PCOD8186376
Probable space group: F M M 2
;
_chemical_formula_sum "Si O2"
_cell_formula_units_Z 112
_cell_length_a 17.027086
_cell_length_b 14.174840
_cell_length_c 22.504764
_cell_angle_alpha 90.000000
_cell_angle_beta 90.000000
_cell_angle_gamma 90.000000
_cell_volume 5431.664765
_symmetry_space_group_name_H-M "F M M 2"
_symmetry_group_IT_number 42
_symmetry_cell_setting 'orthorhombic'
loop_
_space_group_symop_operation_xyz
x,y,z
-x,-y,z
-x,y,z
x,-y,z
x,1/2+y,1/2+z
-x,1/2-y,1/2+z
-x,1/2+y,1/2+z
x,1/2-y,1/2+z
1/2+x,y,1/2+z
1/2-x,-y,1/2+z
1/2-x,y,1/2+z
1/2+x,-y,1/2+z
1/2+x,1/2+y,z
1/2-x,1/2-y,z
1/2-x,1/2+y,z
1/2+x,1/2-y,z
loop_
_atom_site_type_symbol
_atom_site_label
_atom_site_fract_x
_atom_site_fract_y
_atom_site_fract_z
Si Si1 0.671164 0.106966 0.660430
Si Si2 0.845081 0.108534 0.618395
Si Si3 0.410461 0.108108 0.538307
Si Si4 0.589695 0.730308 0.717119
Si Si5 0.407068 0.391806 0.828971
Si Si6 0.590306 0.105838 0.991751
Si Si7 0.839410 0.724019 0.437233
O O1 0.756676 0.134836 0.636532
O O2 0.609399 0.120738 0.607295
O O3 0.644163 0.176170 0.713554
O O4 0.669986 0.000000 0.684618
O O5 0.904585 0.171284 0.656377
O O6 0.856907 0.131165 0.549059
O O7 0.865023 0.000000 0.631257
O O8 0.500000 0.141221 0.527634
O O9 0.351616 0.169987 0.499255
O O10 0.399314 0.000000 0.518927
O O11 0.500000 0.761137 0.727604
O O12 0.620501 0.664707 0.770614
O O13 0.500000 0.388665 0.836780
O O14 0.377865 0.500000 0.823717
O O15 0.368213 0.343048 0.885185
O O16 0.500000 0.115834 0.010324
O O17 0.608688 0.000000 0.969169
O O18 0.611720 0.177965 0.938932
O O19 0.750000 0.750000 0.427043
#
# Coordination Sequence:
#
# PCOD8186376 Si02
#       7
#    16  16  16  16  16  16  16
#     4  10  21  36  56  86 123 157 189 230 281 339
#     4  10  20  35  57  84 117 154 191 234 283 335
#     4  10  20  36  60  87 116 153 197 240 279 325
#     4  11  22  37  59  84 112 147 190 240 288 338
#     4  10  23  44  66  85 107 142 194 248 289 333
#     4  10  21  37  57  83 118 157 194 231 276 338
#     4  12  24  37  58  86 116 149 185 236 294 346
#
# _framework density 20.619827999999998
#
# number of rings (size 3 to 8) (size 9 to 14) (size 15 to 20)
#    0.000    1.571    0.000    5.143    0.000    6.857 
#    0.000    0.714    0.000    0.857    0.000    0.000 
#    0.000    0.000    0.000    0.000    0.000    0.000 
#
# Total GULP energy -347303.789091 kJ/mol
# GULP energy per Si atom -12403.706753 kJ/mol
# Density = 2.057290 g / cm^3
# Si number density = 20.619828 Si / 1000 Ang^3
#
#
#
# Elastic Constant Matrix: (Units=GPa)
#
#
# Indices 1 2 3 4 5 6 
#
# 1 76.3734 55.9101 32.9958 0.0000 0.0000 0.0000
# 2 55.9101 147.9047 66.2142 0.0000 0.0000 0.0000
# 3 32.9958 66.2142 66.9006 0.0000 0.0000 0.0000
# 4 0.0000 0.0000 0.0000 43.6460 0.0000 0.0000
# 5 0.0000 0.0000 0.0000 0.0000 16.6225 0.0000
# 6 0.0000 0.0000 0.0000 0.0000 0.0000 31.4374
#
#
#
# Elastic Compliance Matrix: (Units=1/GPa)
#
#
# Indices 1 2 3 4 5 6 
#
# 1 0.018679 -0.005273 -0.003994 0.000000 0.000000 0.000000
# 2 -0.005273 0.013629 -0.010888 0.000000 0.000000 0.000000
# 3 -0.003994 -0.010888 0.027694 0.000000 0.000000 0.000000
# 4 0.000000 0.000000 0.000000 0.022912 0.000000 0.000000
# 5 0.000000 0.000000 0.000000 0.000000 0.060160 0.000000
# 6 0.000000 0.000000 0.000000 0.000000 0.000000 0.031809
#
#
# Mechanical properties :
#
#
# Convention : Reuss Voigt Hill
#
# Bulk Modulus (GPa) = 50.78279 66.82432 58.80356
# Shear Modulus (GPa) = 22.54722 27.41174 24.97948
#
# Velocity S-wave (km/s) = 3.31036 3.65003 3.48434
# Velocity P-wave (km/s) = 6.26840 7.08815 6.69084
#
# Compressibility (1/GPa) = 0.01969171
#
# Stress axis : x y z
#
# Youngs Moduli (GPa) = 53.53542 73.37324 36.10899
#
# Poissons Ratio (x) = 0.38690 0.14421
# Poissons Ratio (y) = 0.28230 0.39317
# Poissons Ratio (z) = 0.21380 0.79892
#
# Static dielectric constant tensor:
#      x y z
#    x 3.684970 0.000000 0.000000 
#    y 0.000000 4.105740 0.000000 
#    z 0.000000 0.000000 3.512290 
# 
# 
# High freq. dielectric constant tensor:
#      x y z
#    x 1.806890 0.000000 0.000000 
#    y 0.000000 1.828930 0.000000 
#    z 0.000000 0.000000 1.777440 
# 
# From -- ./inp_files/29472.got.cif
#   From: 2010.03.12/outbox.cif.g09.slc.cpg/sg42_15_cif.got.tgz:29472.got - 2010.04.14 02:04:31.
