data_PCOD8186773
_publ_section_title
;
Structure prediction by ZEFSAII (Michael W. Deem and Ramdas Pophale) SiO2 
 PCOD8186773
Probable space group: F M M 2
;
_chemical_formula_sum "Si O2"
_cell_formula_units_Z 96
_cell_length_a 19.744631
_cell_length_b 27.117245
_cell_length_c 8.874804
_cell_angle_alpha 90.000000
_cell_angle_beta 90.000000
_cell_angle_gamma 90.000000
_cell_volume 4751.747525
_symmetry_space_group_name_H-M "F M M 2"
_symmetry_group_IT_number 42
_symmetry_cell_setting 'orthorhombic'
loop_
_space_group_symop_operation_xyz
x,y,z
-x,-y,z
-x,y,z
x,-y,z
x,1/2+y,1/2+z
-x,1/2-y,1/2+z
-x,1/2+y,1/2+z
x,1/2-y,1/2+z
1/2+x,y,1/2+z
1/2-x,-y,1/2+z
1/2-x,y,1/2+z
1/2+x,-y,1/2+z
1/2+x,1/2+y,z
1/2-x,1/2-y,z
1/2-x,1/2+y,z
1/2+x,1/2-y,z
loop_
_atom_site_type_symbol
_atom_site_label
_atom_site_fract_x
_atom_site_fract_y
_atom_site_fract_z
Si Si1 0.684645 0.587184 0.208580
Si Si2 0.579317 0.383510 0.728691
Si Si3 0.311976 0.555945 0.882749
Si Si4 0.923565 0.944696 0.438304
Si Si5 0.189905 0.304624 0.629196
Si Si6 0.332697 0.708419 0.776694
O O1 0.753207 0.588446 0.306260
O O2 0.624785 0.560535 0.296308
O O3 0.659517 0.641958 0.166219
O O4 0.700273 0.555550 0.060647
O O5 0.500000 0.384948 0.764838
O O6 0.616447 0.417967 0.850435
O O7 0.596627 0.405210 0.564730
O O8 0.605168 0.327425 0.737158
O O9 0.310638 0.500000 0.822234
O O10 0.000000 0.935529 0.382832
O O11 0.915697 0.000000 0.504898
O O12 0.268526 0.305719 0.674635
O O13 0.184797 0.293099 0.452515
O O14 0.147954 0.264269 0.726829
#
# Coordination Sequence:
#
# PCOD8186773 Si02
#       6
#    16  16  16  16  16  16
#     4  12  23  41  64  98 129 164 211 270 321 375
#     4  11  24  43  64  91 130 170 215 264 316 380
#     4  12  24  39  64  95 129 168 213 266 318 375
#     4  10  23  42  64  90 126 174 217 258 317 383
#     4  11  22  39  68  94 126 157 206 263 316 382
#     4  11  23  41  65 100 121 164 207 258 323 380
#
# _framework density 20.203095000000001
#
# number of rings (size 3 to 8) (size 9 to 14) (size 15 to 20)
#    0.000    0.833    3.333    5.000    4.667    1.667 
#    0.000    1.667    0.000    0.000    0.000    0.000 
#    0.000    0.000    0.000    0.000    0.000    0.000 
#
# Total GULP energy -297692.274405 kJ/mol
# GULP energy per Si atom -12403.844767 kJ/mol
# Density = 2.015711 g / cm^3
# Si number density = 20.203095 Si / 1000 Ang^3
#
#
#
# Elastic Constant Matrix: (Units=GPa)
#
#
# Indices 1 2 3 4 5 6 
#
# 1 102.0607 38.0697 59.8405 -0.0003 0.0005 0.0001
# 2 38.0697 140.8379 38.7579 -0.0001 0.0001 0.0000
# 3 59.8405 38.7579 135.5570 -0.0008 0.0015 0.0002
# 4 -0.0003 -0.0001 -0.0008 37.1319 0.0003 0.0001
# 5 0.0005 0.0001 0.0015 0.0003 28.2165 -0.0001
# 6 0.0001 0.0000 0.0002 0.0001 -0.0001 33.1019
#
#
#
# Elastic Compliance Matrix: (Units=1/GPa)
#
#
# Indices 1 2 3 4 5 6 
#
# 1 0.013839 -0.002236 -0.005470 0.000000 0.000000 0.000000
# 2 -0.002236 0.008068 -0.001320 0.000000 0.000000 0.000000
# 3 -0.005470 -0.001320 0.010169 0.000000 0.000000 0.000000
# 4 0.000000 0.000000 0.000000 0.026931 0.000000 0.000000
# 5 0.000000 0.000000 0.000000 0.000000 0.035440 0.000000
# 6 0.000000 0.000000 0.000000 0.000000 0.000000 0.030210
#
#
# Mechanical properties :
#
#
# Convention : Reuss Voigt Hill
#
# Bulk Modulus (GPa) = 71.30003 72.42130 71.86067
# Shear Modulus (GPa) = 33.92520 35.80921 34.86721
#
# Velocity S-wave (km/s) = 4.10226 4.21463 4.15882
# Velocity P-wave (km/s) = 7.60305 7.72066 7.66208
#
# Compressibility (1/GPa) = 0.01402524
#
# Stress axis : x y z
#
# Youngs Moduli (GPa) = 72.25871 123.94850 98.33772
#
# Poissons Ratio (x) = 0.27709 0.53791
# Poissons Ratio (y) = 0.16154 0.12979
# Poissons Ratio (z) = 0.39526 0.16360
#
# Static dielectric constant tensor:
#      x y z
#    x 3.460320 0.000000 0.000000 
#    y 0.000000 4.059330 0.000000 
#    z 0.000000 0.000000 3.672840 
# 
# 
# High freq. dielectric constant tensor:
#      x y z
#    x 1.765770 0.000000 0.000000 
#    y 0.000000 1.808510 0.000000 
#    z 0.000000 0.000000 1.795900 
# 
# From -- ./inp_files/4158.got.cif
#   From: 2010.03.12/outbox.cif.g09.slc.cpg/sg42_3_cif.got.tgz:4158.got - 2010.04.14 02:04:31.
