data_PCOD8186442
_publ_section_title
;
Structure prediction by ZEFSAII (Michael W. Deem and Ramdas Pophale) SiO2 
 PCOD8186442
Probable space group: F M M 2
;
_chemical_formula_sum "Si O2"
_cell_formula_units_Z 80
_cell_length_a 25.443990
_cell_length_b 8.485234
_cell_length_c 18.246717
_cell_angle_alpha 90.000000
_cell_angle_beta 90.000000
_cell_angle_gamma 90.000000
_cell_volume 3939.433521
_symmetry_space_group_name_H-M "F M M 2"
_symmetry_group_IT_number 42
_symmetry_cell_setting 'orthorhombic'
loop_
_space_group_symop_operation_xyz
x,y,z
-x,-y,z
-x,y,z
x,-y,z
x,1/2+y,1/2+z
-x,1/2-y,1/2+z
-x,1/2+y,1/2+z
x,1/2-y,1/2+z
1/2+x,y,1/2+z
1/2-x,-y,1/2+z
1/2-x,y,1/2+z
1/2+x,-y,1/2+z
1/2+x,1/2+y,z
1/2-x,1/2-y,z
1/2-x,1/2+y,z
1/2+x,1/2-y,z
loop_
_atom_site_type_symbol
_atom_site_label
_atom_site_fract_x
_atom_site_fract_y
_atom_site_fract_z
Si Si1 0.596981 0.184201 0.278790
Si Si2 0.000000 0.181350 0.024416
Si Si3 0.305493 0.183815 0.178184
Si Si4 0.000000 0.815307 0.684258
Si Si5 0.192422 0.685561 0.521853
Si Si6 0.096065 0.682598 0.937561
O O1 0.653055 0.215745 0.241858
O O2 0.552114 0.249248 0.224184
O O3 0.593120 0.285808 0.351593
O O4 0.589525 0.000000 0.297405
O O5 0.000000 0.275585 0.099468
O O6 0.948431 0.218614 0.978116
O O7 0.000000 0.000000 0.045267
O O8 0.250000 0.250000 0.206590
O O9 0.323843 0.273144 0.104885
O O10 0.300309 0.000000 0.158824
O O11 0.000000 0.000000 0.691328
O O12 0.190548 0.500000 0.509652
O O13 0.250000 0.750000 0.503785
O O14 0.152986 0.767686 0.465953
O O15 0.085961 0.500000 0.953406
#
# Coordination Sequence:
#
# PCOD8186442 Si02
#       6
#    16   8  16   8  16  16
#     4  10  22  39  60  87 120 156 195 243 298 355
#     4  12  25  42  65  91 121 157 201 248 297 356
#     4  10  20  36  59  87 120 157 199 245 294 351
#     4  10  21  40  65  89 117 153 195 244 297 354
#     4  11  22  39  63  90 122 159 203 250 298 354
#     4  12  25  41  62  89 123 160 201 248 300 357
#
# _framework density 20.307487999999999
#
# number of rings (size 3 to 8) (size 9 to 14) (size 15 to 20)
#    0.000    1.200    0.000    8.100    0.000    5.600 
#    0.000    2.000    0.000    0.000    0.000    0.000 
#    0.000    0.000    0.000    0.000    0.000    0.000 
#
# Total GULP energy -248126.598845 kJ/mol
# GULP energy per Si atom -12406.329942 kJ/mol
# Density = 2.026127 g / cm^3
# Si number density = 20.307488 Si / 1000 Ang^3
#
#
#
# Elastic Constant Matrix: (Units=GPa)
#
#
# Indices 1 2 3 4 5 6 
#
# 1 110.6488 14.8610 55.3191 0.0000 0.0000 0.0000
# 2 14.8610 40.1824 0.0120 0.0000 0.0000 0.0000
# 3 55.3191 0.0120 112.2124 0.0000 0.0000 0.0000
# 4 0.0000 0.0000 0.0000 37.6933 0.0000 0.0000
# 5 0.0000 0.0000 0.0000 0.0000 22.4776 0.0000
# 6 0.0000 0.0000 0.0000 0.0000 0.0000 27.7799
#
#
#
# Elastic Compliance Matrix: (Units=1/GPa)
#
#
# Indices 1 2 3 4 5 6 
#
# 1 0.012839 -0.004747 -0.006329 0.000000 0.000000 0.000000
# 2 -0.004747 0.026641 0.002337 0.000000 0.000000 0.000000
# 3 -0.006329 0.002337 0.012032 0.000000 0.000000 0.000000
# 4 0.000000 0.000000 0.000000 0.026530 0.000000 0.000000
# 5 0.000000 0.000000 0.000000 0.000000 0.044489 0.000000
# 6 0.000000 0.000000 0.000000 0.000000 0.000000 0.035997
#
#
# Mechanical properties :
#
#
# Convention : Reuss Voigt Hill
#
# Bulk Modulus (GPa) = 29.38140 44.82529 37.10335
# Shear Modulus (GPa) = 26.68798 30.44693 28.56746
#
# Velocity S-wave (km/s) = 3.62911 3.87627 3.75473
# Velocity P-wave (km/s) = 5.66218 6.49270 6.09161
#
# Compressibility (1/GPa) = 0.03403514
#
# Stress axis : x y z
#
# Youngs Moduli (GPa) = 77.88552 37.53571 83.11457
#
# Poissons Ratio (x) = 0.17817 0.52604
# Poissons Ratio (y) = 0.36969 -0.19425
# Poissons Ratio (z) = 0.49295 -0.08773
#
# Static dielectric constant tensor:
#      x y z
#    x 4.022720 0.000000 0.000000 
#    y 0.000000 3.725690 0.000000 
#    z 0.000000 0.000000 3.602850 
# 
# 
# High freq. dielectric constant tensor:
#      x y z
#    x 1.810830 0.000000 0.000000 
#    y 0.000000 1.799370 0.000000 
#    z 0.000000 0.000000 1.795610 
# 
# From -- ./inp_files/22453.got.cif
#   From: 2010.03.12/outbox.cif.g09.slc.cpg/sg42_12_cif.got.tgz:22453.got - 2010.04.14 02:04:31.
