data_PCOD8186885
_publ_section_title
;
Structure prediction by ZEFSAII (Michael W. Deem and Ramdas Pophale) SiO2 
 PCOD8186885
Probable space group: F M M 2
;
_chemical_formula_sum "Si O2"
_cell_formula_units_Z 96
_cell_length_a 30.462947
_cell_length_b 9.770400
_cell_length_c 19.972592
_cell_angle_alpha 90.000000
_cell_angle_beta 90.000000
_cell_angle_gamma 90.000000
_cell_volume 5944.545962
_symmetry_space_group_name_H-M "F M M 2"
_symmetry_group_IT_number 42
_symmetry_cell_setting 'orthorhombic'
loop_
_space_group_symop_operation_xyz
x,y,z
-x,-y,z
-x,y,z
x,-y,z
x,1/2+y,1/2+z
-x,1/2-y,1/2+z
-x,1/2+y,1/2+z
x,1/2-y,1/2+z
1/2+x,y,1/2+z
1/2-x,-y,1/2+z
1/2-x,y,1/2+z
1/2+x,-y,1/2+z
1/2+x,1/2+y,z
1/2-x,1/2-y,z
1/2-x,1/2+y,z
1/2+x,1/2-y,z
loop_
_atom_site_type_symbol
_atom_site_label
_atom_site_fract_x
_atom_site_fract_y
_atom_site_fract_z
Si Si1 0.551408 0.842108 0.895700
Si Si2 0.383257 0.663007 0.653470
Si Si3 0.951582 0.162139 0.547113
Si Si4 0.787419 0.651239 0.308478
Si Si5 0.613604 0.337853 0.804783
Si Si6 0.286985 0.651937 0.649472
O O1 0.500000 0.818981 0.881649
O O2 0.579200 0.743265 0.849163
O O3 0.564005 0.000000 0.881979
O O4 0.562964 0.800753 0.971943
O O5 0.382861 0.500000 0.652297
O O6 0.418008 0.726221 0.601039
O O7 0.394780 0.710976 0.728474
O O8 0.334820 0.713068 0.631208
O O9 0.000000 0.222352 0.562037
O O10 0.953064 0.000000 0.554907
O O11 0.779324 0.500000 0.338371
O O12 0.750000 0.750000 0.339425
O O13 0.836666 0.700928 0.326977
O O14 0.782927 0.644861 0.229037
O O15 0.605809 0.500000 0.812458
O O16 0.280435 0.500000 0.619273
O O17 0.250000 0.750000 0.617967
#
# Coordination Sequence:
#
# PCOD8186885 Si02
#       6
#    16  16  16  16  16  16
#     4   9  18  31  45  62  85 114 147 179 212 255
#     4   8  14  25  42  65  88 108 137 178 214 242
#     4   8  14  26  44  63  82 108 144 179 207 244
#     4   8  14  24  38  59  86 112 138 169 206 249
#     4   9  17  28  44  68  92 111 138 179 220 254
#     4   8  13  22  37  58  84 109 133 165 204 245
#
# _framework density 16.149256999999999
#
# number of rings (size 3 to 8) (size 9 to 14) (size 15 to 20)
#    0.000    3.667    0.000    3.000    0.000    1.667 
#    0.000    4.167    0.000    3.000    0.000    4.667 
#    0.000    0.000    0.000    0.000    0.000    0.000 
#
# Total GULP energy -297393.543342 kJ/mol
# GULP energy per Si atom -12391.397639 kJ/mol
# Density = 1.611250 g / cm^3
# Si number density = 16.149257 Si / 1000 Ang^3
#
#
#
# Elastic Constant Matrix: (Units=GPa)
#
#
# Indices 1 2 3 4 5 6 
#
# 1 134.2246 55.8216 72.0651 0.0000 0.0000 0.0000
# 2 55.8216 53.1904 34.7175 0.0000 0.0000 0.0000
# 3 72.0651 34.7175 74.5872 0.0000 0.0000 0.0000
# 4 0.0000 0.0000 0.0000 13.4270 0.0000 0.0000
# 5 0.0000 0.0000 0.0000 0.0000 2.6869 0.0000
# 6 0.0000 0.0000 0.0000 0.0000 0.0000 29.6574
#
#
#
# Elastic Compliance Matrix: (Units=1/GPa)
#
#
# Indices 1 2 3 4 5 6 
#
# 1 0.019534 -0.011752 -0.013403 0.000000 0.000000 0.000000
# 2 -0.011752 0.034074 -0.004506 0.000000 0.000000 0.000000
# 3 -0.013403 -0.004506 0.028455 0.000000 0.000000 0.000000
# 4 0.000000 0.000000 0.000000 0.074477 0.000000 0.000000
# 5 0.000000 0.000000 0.000000 0.000000 0.372173 0.000000
# 6 0.000000 0.000000 0.000000 0.000000 0.000000 0.033718
#
#
# Mechanical properties :
#
#
# Convention : Reuss Voigt Hill
#
# Bulk Modulus (GPa) = 43.97388 65.24561 54.60975
# Shear Modulus (GPa) = 7.94492 15.78079 11.86286
#
# Velocity S-wave (km/s) = 2.22044 3.12939 2.71325
# Velocity P-wave (km/s) = 5.81916 7.31756 6.61095
#
# Compressibility (1/GPa) = 0.02274077
#
# Stress axis : x y z
#
# Youngs Moduli (GPa) = 51.19366 29.34750 35.14377
#
# Poissons Ratio (x) = 0.34488 0.47104
# Poissons Ratio (y) = 0.60161 0.15836
# Poissons Ratio (z) = 0.68616 0.13224
#
# Static dielectric constant tensor:
#      x y z
#    x 3.450860 0.000000 0.000000 
#    y 0.000000 2.907290 0.000000 
#    z 0.000000 0.000000 2.855670 
# 
# 
# High freq. dielectric constant tensor:
#      x y z
#    x 1.632840 0.000000 0.000000 
#    y 0.000000 1.587480 0.000000 
#    z 0.000000 0.000000 1.585330 
# 
# From -- ./inp_files/19132.got.cif
#   From: 2010.03.12/outbox.cif.g09.slc.cpg/sg42_10_cif.got.tgz:19132.got - 2010.04.14 02:04:31.
