data_PCOD8186717
_publ_section_title
;
Structure prediction by ZEFSAII (Michael W. Deem and Ramdas Pophale) SiO2 
 PCOD8186717
Probable space group: F M M 2
;
_chemical_formula_sum "Si O2"
_cell_formula_units_Z 96
_cell_length_a 14.106716
_cell_length_b 14.655499
_cell_length_c 20.149013
_cell_angle_alpha 90.000000
_cell_angle_beta 90.000000
_cell_angle_gamma 90.000000
_cell_volume 4165.626336
_symmetry_space_group_name_H-M "F M M 2"
_symmetry_group_IT_number 42
_symmetry_cell_setting 'orthorhombic'
loop_
_space_group_symop_operation_xyz
x,y,z
-x,-y,z
-x,y,z
x,-y,z
x,1/2+y,1/2+z
-x,1/2-y,1/2+z
-x,1/2+y,1/2+z
x,1/2-y,1/2+z
1/2+x,y,1/2+z
1/2-x,-y,1/2+z
1/2-x,y,1/2+z
1/2+x,-y,1/2+z
1/2+x,1/2+y,z
1/2-x,1/2-y,z
1/2-x,1/2+y,z
1/2+x,1/2-y,z
loop_
_atom_site_type_symbol
_atom_site_label
_atom_site_fract_x
_atom_site_fract_y
_atom_site_fract_z
Si Si1 0.000000 0.609796 0.194400
Si Si2 0.171063 0.897647 0.136547
Si Si3 0.500000 0.276602 0.106521
Si Si4 0.000000 0.892519 0.480394
Si Si5 0.698563 0.599368 0.525966
Si Si6 0.500000 0.792398 0.447282
Si Si7 0.298744 0.346690 0.901277
Si Si8 0.295412 0.349816 0.751974
O O1 0.906733 0.640528 0.235118
O O2 0.000000 0.500000 0.179547
O O3 0.000000 0.668656 0.126009
O O4 0.086864 0.826455 0.143495
O O5 0.236390 0.849033 0.079206
O O6 0.231981 0.910811 0.203435
O O7 0.135111 0.000000 0.116564
O O8 0.500000 0.295317 0.027732
O O9 0.092382 0.861637 0.522141
O O10 0.000000 0.815312 0.422053
O O11 0.000000 0.000000 0.457473
O O12 0.686131 0.500000 0.557302
O O13 0.746145 0.588922 0.453714
O O14 0.409818 0.843872 0.417935
O O15 0.250000 0.250000 0.912220
O O16 0.283568 0.385134 0.827480
O O17 0.250000 0.250000 0.745755
#
# Coordination Sequence:
#
# PCOD8186717 Si02
#       8
#     8  16   8   8  16   8  16  16
#     4  12  27  47  72 107 144 189 248 304 361 437
#     4  11  24  45  71 101 140 189 240 295 361 436
#     4  12  25  43  73 107 145 186 238 300 368 425
#     4  10  22  38  59  97 135 173 225 289 348 421
#     4  10  22  40  65  98 137 175 229 290 352 421
#     4  12  23  40  70  99 138 182 232 285 350 423
#     4  11  23  42  67  99 135 185 236 286 351 428
#     4  11  25  45  71  99 144 193 241 301 365 433
#
# _framework density 23.045753999999999
#
# number of rings (size 3 to 8) (size 9 to 14) (size 15 to 20)
#    0.000    1.000    5.000    1.250    2.333    2.333 
#    0.000    1.250    0.000    2.000    0.000    0.000 
#    0.000    0.000    0.000    0.000    0.000    0.000 
#
# Total GULP energy -297320.377400 kJ/mol
# GULP energy per Si atom -12388.349058 kJ/mol
# Density = 2.299330 g / cm^3
# Si number density = 23.045754 Si / 1000 Ang^3
#
#
#
# Elastic Constant Matrix: (Units=GPa)
#
#
# Indices 1 2 3 4 5 6 
#
# 1 185.3835 32.2315 58.1238 0.0000 0.0000 0.0000
# 2 32.2315 89.9018 16.8640 0.0000 0.0000 0.0000
# 3 58.1238 16.8640 156.0761 0.0000 0.0000 0.0000
# 4 0.0000 0.0000 0.0000 11.9147 0.0000 0.0000
# 5 0.0000 0.0000 0.0000 0.0000 34.3406 0.0000
# 6 0.0000 0.0000 0.0000 0.0000 0.0000 16.4624
#
#
#
# Elastic Compliance Matrix: (Units=1/GPa)
#
#
# Indices 1 2 3 4 5 6 
#
# 1 0.006406 -0.001888 -0.002182 0.000000 0.000000 0.000000
# 2 -0.001888 0.011909 -0.000584 0.000000 0.000000 0.000000
# 3 -0.002182 -0.000584 0.007283 0.000000 0.000000 0.000000
# 4 0.000000 0.000000 0.000000 0.083930 0.000000 0.000000
# 5 0.000000 0.000000 0.000000 0.000000 0.029120 0.000000
# 6 0.000000 0.000000 0.000000 0.000000 0.000000 0.060744
#
#
# Mechanical properties :
#
#
# Convention : Reuss Voigt Hill
#
# Bulk Modulus (GPa) = 61.37935 71.75555 66.56745
# Shear Modulus (GPa) = 23.35024 34.15302 28.75163
#
# Velocity S-wave (km/s) = 3.18655 3.85381 3.53595
# Velocity P-wave (km/s) = 6.34274 7.14186 6.75413
#
# Compressibility (1/GPa) = 0.01629212
#
# Stress axis : x y z
#
# Youngs Moduli (GPa) = 156.09177 83.96661 137.31056
#
# Poissons Ratio (x) = 0.15849 0.29959
# Poissons Ratio (y) = 0.29463 0.08017
# Poissons Ratio (z) = 0.34057 0.04903
#
# Static dielectric constant tensor:
#      x y z
#    x 4.469260 0.000000 0.000000 
#    y 0.000000 4.031720 0.000000 
#    z 0.000000 0.000000 4.135700 
# 
# 
# High freq. dielectric constant tensor:
#      x y z
#    x 1.930550 0.000000 0.000000 
#    y 0.000000 1.909030 0.000000 
#    z 0.000000 0.000000 1.897000 
# 
# From -- ./inp_files/25182.got.cif
#   From: 2010.03.12/outbox.cif.g09.slc.cpg/sg42_13_cif.got.tgz:25182.got - 2010.04.14 02:04:31.
