data_PCOD8186364
_publ_section_title
;
Structure prediction by ZEFSAII (Michael W. Deem and Ramdas Pophale) SiO2 
 PCOD8186364
Probable space group: F M M 2
;
_chemical_formula_sum "Si O2"
_cell_formula_units_Z 64
_cell_length_a 21.153567
_cell_length_b 18.318449
_cell_length_c 8.075986
_cell_angle_alpha 90.000000
_cell_angle_beta 90.000000
_cell_angle_gamma 90.000000
_cell_volume 3129.448922
_symmetry_space_group_name_H-M "F M M 2"
_symmetry_group_IT_number 42
_symmetry_cell_setting 'orthorhombic'
loop_
_space_group_symop_operation_xyz
x,y,z
-x,-y,z
-x,y,z
x,-y,z
x,1/2+y,1/2+z
-x,1/2-y,1/2+z
-x,1/2+y,1/2+z
x,1/2-y,1/2+z
1/2+x,y,1/2+z
1/2-x,-y,1/2+z
1/2-x,y,1/2+z
1/2+x,-y,1/2+z
1/2+x,1/2+y,z
1/2-x,1/2-y,z
1/2-x,1/2+y,z
1/2+x,1/2-y,z
loop_
_atom_site_type_symbol
_atom_site_label
_atom_site_fract_x
_atom_site_fract_y
_atom_site_fract_z
Si Si1 0.364915 0.723575 0.722590
Si Si2 0.572498 0.651612 0.430470
Si Si3 0.793747 0.335936 0.520042
Si Si4 0.311064 0.419044 0.339399
O O1 0.415362 0.679758 0.614980
O O2 0.406073 0.787979 0.798961
O O3 0.305447 0.758009 0.615803
O O4 0.338200 0.666683 0.857653
O O5 0.500000 0.630045 0.405491
O O6 0.616061 0.580727 0.398177
O O7 0.724166 0.355115 0.446111
O O8 0.809721 0.401750 0.643624
O O9 0.282453 0.500000 0.367828
#
# Coordination Sequence:
#
# PCOD8186364 Si02
#       4
#    16  16  16  16
#     4   9  20  36  57  87 114 136 175 233 292 335
#     4  10  20  35  57  82 111 146 182 225 275 330
#     4  10  21  36  57  84 113 141 177 231 287 330
#     4  11  23  37  55  79 112 152 188 222 264 327
#
# _framework density 20.450883999999999
#
# number of rings (size 3 to 8) (size 9 to 14) (size 15 to 20)
#    0.000    2.000    0.000    3.000    0.000   17.500 
#    0.000    2.500    0.000    0.000    0.000    0.000 
#    0.000    0.000    0.000    0.000    0.000    0.000 
#
# Total GULP energy -198227.319586 kJ/mol
# GULP energy per Si atom -12389.207474 kJ/mol
# Density = 2.040434 g / cm^3
# Si number density = 20.450884 Si / 1000 Ang^3
#
#
#
# Elastic Constant Matrix: (Units=GPa)
#
#
# Indices 1 2 3 4 5 6 
#
# 1 132.6738 16.0686 43.4121 -0.0001 0.0000 0.0000
# 2 16.0686 71.5086 36.7960 -0.0002 0.0000 0.0000
# 3 43.4121 36.7960 124.2535 -0.0006 0.0002 0.0001
# 4 -0.0001 -0.0002 -0.0006 23.5463 0.0001 0.0001
# 5 0.0000 0.0000 0.0002 0.0001 22.8993 0.0000
# 6 0.0000 0.0000 0.0001 0.0001 0.0000 17.5280
#
#
#
# Elastic Compliance Matrix: (Units=1/GPa)
#
#
# Indices 1 2 3 4 5 6 
#
# 1 0.008523 -0.000452 -0.002844 0.000000 0.000000 0.000000
# 2 -0.000452 0.016522 -0.004735 0.000000 0.000000 0.000000
# 3 -0.002844 -0.004735 0.010444 0.000000 0.000000 0.000000
# 4 0.000000 0.000000 0.000000 0.042469 0.000000 0.000000
# 5 0.000000 0.000000 0.000000 0.000000 0.043669 0.000000
# 6 0.000000 0.000000 0.000000 0.000000 0.000000 0.057051
#
#
# Mechanical properties :
#
#
# Convention : Reuss Voigt Hill
#
# Bulk Modulus (GPa) = 51.47346 57.88771 54.68059
# Shear Modulus (GPa) = 24.84890 28.27202 26.56046
#
# Velocity S-wave (km/s) = 3.48954 3.72214 3.60772
# Velocity P-wave (km/s) = 6.43893 6.84395 6.64453
#
# Compressibility (1/GPa) = 0.01942749
#
# Stress axis : x y z
#
# Youngs Moduli (GPa) = 117.33607 60.52412 95.74991
#
# Poissons Ratio (x) = 0.02734 0.27230
# Poissons Ratio (y) = 0.05300 0.45338
# Poissons Ratio (z) = 0.33369 0.28658
#
# Static dielectric constant tensor:
#      x y z
#    x 3.555920 0.000000 0.000000 
#    y 0.000000 3.421430 0.000000 
#    z 0.000000 0.000000 4.052030 
# 
# 
# High freq. dielectric constant tensor:
#      x y z
#    x 1.783950 0.000000 0.000000 
#    y 0.000000 1.770740 0.000000 
#    z 0.000000 0.000000 1.821420 
# 
# From -- ./inp_files/3218.got.cif
#   From: 2010.03.12/outbox.cif.g09.slc.cpg/sg42_2_cif.got.tgz:3218.got - 2010.04.14 02:04:31.
