data_PCOD8186549
_publ_section_title
;
Structure prediction by ZEFSAII (Michael W. Deem and Ramdas Pophale) SiO2 
 PCOD8186549
Probable space group: F M M 2
;
_chemical_formula_sum "Si O2"
_cell_formula_units_Z 80
_cell_length_a 9.662638
_cell_length_b 17.729101
_cell_length_c 25.351533
_cell_angle_alpha 90.000000
_cell_angle_beta 90.000000
_cell_angle_gamma 90.000000
_cell_volume 4342.968204
_symmetry_space_group_name_H-M "F M M 2"
_symmetry_group_IT_number 42
_symmetry_cell_setting 'orthorhombic'
loop_
_space_group_symop_operation_xyz
x,y,z
-x,-y,z
-x,y,z
x,-y,z
x,1/2+y,1/2+z
-x,1/2-y,1/2+z
-x,1/2+y,1/2+z
x,1/2-y,1/2+z
1/2+x,y,1/2+z
1/2-x,-y,1/2+z
1/2-x,y,1/2+z
1/2+x,-y,1/2+z
1/2+x,1/2+y,z
1/2-x,1/2-y,z
1/2-x,1/2+y,z
1/2+x,1/2-y,z
loop_
_atom_site_type_symbol
_atom_site_label
_atom_site_fract_x
_atom_site_fract_y
_atom_site_fract_z
Si Si1 0.000000 0.688906 0.385010
Si Si2 0.796191 0.088477 0.519381
Si Si3 0.000000 0.087169 0.985957
Si Si4 0.500000 0.414593 0.326958
Si Si5 0.500000 0.353111 0.436471
Si Si6 0.500000 0.588513 0.607739
Si Si7 0.278881 0.832666 0.296066
Si Si8 0.000000 0.089841 0.725486
O O1 0.000000 0.628183 0.430654
O O2 0.137416 0.676214 0.350641
O O3 0.000000 0.771504 0.409846
O O4 0.633735 0.108066 0.521042
O O5 0.863349 0.113509 0.575009
O O6 0.863704 0.135792 0.471925
O O7 0.824947 0.000000 0.509216
O O8 0.000000 0.000000 0.970825
O O9 0.500000 0.500000 0.306516
O O10 0.500000 0.414766 0.390307
O O11 0.634574 0.373286 0.305247
O O12 0.500000 0.500000 0.615478
O O13 0.500000 0.623813 0.666038
O O14 0.250000 0.750000 0.272298
O O15 0.362860 0.880812 0.253786
O O16 0.000000 0.000000 0.727435
#
# Coordination Sequence:
#
# PCOD8186549 Si02
#       8
#     8  16   8   8   8   8  16   8
#     4  11  23  35  56  78 111 162 195 220 274 354
#     4   9  18  33  55  81 113 144 182 233 284 337
#     4  10  21  33  51  83 117 149 184 234 285 334
#     4  12  22  33  55  85 116 146 191 238 278 335
#     4  11  19  33  51  78 110 151 196 217 277 338
#     4   8  16  35  61  82 100 141 189 233 289 343
#     4  11  22  40  55  81 117 155 189 233 292 342
#     4  10  21  39  66  86 105 145 201 248 288 342
#
# _framework density 18.420582
#
# number of rings (size 3 to 8) (size 9 to 14) (size 15 to 20)
#    0.000    1.800    2.000    3.900    0.000    4.000 
#    0.000    1.000    8.800    3.600    0.000    0.000 
#    0.000    0.000    0.000    0.000    0.000    0.000 
#
# Total GULP energy -248000.688246 kJ/mol
# GULP energy per Si atom -12400.034412 kJ/mol
# Density = 1.837866 g / cm^3
# Si number density = 18.420582 Si / 1000 Ang^3
#
#
#
# Elastic Constant Matrix: (Units=GPa)
#
#
# Indices 1 2 3 4 5 6 
#
# 1 182.0507 58.2554 76.8021 0.0000 0.0000 0.0000
# 2 58.2554 97.2450 48.0958 0.0000 0.0000 0.0000
# 3 76.8021 48.0958 139.6002 0.0000 0.0000 0.0000
# 4 0.0000 0.0000 0.0000 18.4699 0.0000 0.0000
# 5 0.0000 0.0000 0.0000 0.0000 -10.7982 0.0000
# 6 0.0000 0.0000 0.0000 0.0000 0.0000 26.0074
#
#
#
# Elastic Compliance Matrix: (Units=1/GPa)
#
#
# Indices 1 2 3 4 5 6 
#
# 1 0.007858 -0.003097 -0.003256 0.000000 0.000000 0.000000
# 2 -0.003097 0.013616 -0.002987 0.000000 0.000000 0.000000
# 3 -0.003256 -0.002987 0.009984 0.000000 0.000000 0.000000
# 4 0.000000 0.000000 0.000000 0.054142 0.000000 0.000000
# 5 0.000000 0.000000 0.000000 0.000000 -0.092608 0.000000
# 6 0.000000 0.000000 0.000000 0.000000 0.000000 0.038451
#
#
# Mechanical properties :
#
#
# Convention : Reuss Voigt Hill
#
# Bulk Modulus (GPa) = 78.26461 87.24472 82.75467
# Shear Modulus (GPa) = 91.94340 22.45200 57.19770
#
# Velocity S-wave (km/s) = 7.07261 3.49500 5.57839
# Velocity P-wave (km/s) = 10.45349 7.98449 9.30128
#
# Compressibility (1/GPa) = 0.01277717
#
# Stress axis : x y z
#
# Youngs Moduli (GPa) = 127.26652 73.44334 100.16213
#
# Poissons Ratio (x) = 0.22744 0.32612
# Poissons Ratio (y) = 0.39412 0.29922
# Poissons Ratio (z) = 0.41437 0.21940
#
# Static dielectric constant tensor:
#      x y z
#    x 3.696360 0.000000 0.000000 
#    y 0.000000 3.411450 0.000000 
#    z 0.000000 0.000000 3.404250 
# 
# 
# High freq. dielectric constant tensor:
#      x y z
#    x 1.731060 0.000000 0.000000 
#    y 0.000000 1.708340 0.000000 
#    z 0.000000 0.000000 1.696650 
# 
# From -- ./inp_files/27880.got.cif
#   From: 2010.03.12/outbox.cif.g09.slc.cpg/sg42_14_cif.got.tgz:27880.got - 2010.04.14 02:04:31.
