data_PCOD8186416
_publ_section_title
;
Structure prediction by ZEFSAII (Michael W. Deem and Ramdas Pophale) SiO2 
 PCOD8186416
Probable space group: F M M 2
;
_chemical_formula_sum "Si O2"
_cell_formula_units_Z 96
_cell_length_a 23.607136
_cell_length_b 8.872177
_cell_length_c 25.072108
_cell_angle_alpha 90.000000
_cell_angle_beta 90.000000
_cell_angle_gamma 90.000000
_cell_volume 5251.270008
_symmetry_space_group_name_H-M "F M M 2"
_symmetry_group_IT_number 42
_symmetry_cell_setting 'orthorhombic'
loop_
_space_group_symop_operation_xyz
x,y,z
-x,-y,z
-x,y,z
x,-y,z
x,1/2+y,1/2+z
-x,1/2-y,1/2+z
-x,1/2+y,1/2+z
x,1/2-y,1/2+z
1/2+x,y,1/2+z
1/2-x,-y,1/2+z
1/2-x,y,1/2+z
1/2+x,-y,1/2+z
1/2+x,1/2+y,z
1/2-x,1/2-y,z
1/2-x,1/2+y,z
1/2+x,1/2-y,z
loop_
_atom_site_type_symbol
_atom_site_label
_atom_site_fract_x
_atom_site_fract_y
_atom_site_fract_z
Si Si1 0.500000 0.679519 0.717000
Si Si2 0.689242 0.823326 0.655940
Si Si3 0.386995 0.677610 0.058160
Si Si4 0.807638 0.324698 0.464244
Si Si5 0.614156 0.678880 0.256085
Si Si6 0.500000 0.677882 0.594567
Si Si7 0.809421 0.678489 0.342202
O O1 0.500000 0.500000 0.720787
O O2 0.446203 0.745638 0.747238
O O3 0.500000 0.736036 0.655656
O O4 0.750000 0.750000 0.657056
O O5 0.654803 0.766171 0.604668
O O6 0.655180 0.773055 0.708112
O O7 0.698082 0.000000 0.653813
O O8 0.398142 0.500000 0.062615
O O9 0.445994 0.762194 0.062990
O O10 0.359773 0.724847 0.001586
O O11 0.796801 0.500000 0.469840
O O12 0.750000 0.250000 0.484833
O O13 0.821487 0.279197 0.403642
O O14 0.607163 0.500000 0.260520
O O15 0.639619 0.745923 0.310198
O O16 0.500000 0.500000 0.593145
O O17 0.807393 0.500000 0.332289
O O18 0.750000 0.750000 0.323327
#
# Coordination Sequence:
#
# PCOD8186416 Si02
#       7
#     8  16  16  16  16   8  16
#     4  11  23  39  58  81 110 147 186 232 281 332
#     4  10  21  33  51  79 110 140 175 220 272 326
#     4  10  20  37  57  79 109 147 185 225 273 329
#     4   9  19  35  58  84 112 148 187 226 276 328
#     4  11  22  37  57  82 110 147 188 228 277 334
#     4  11  23  37  56  83 110 145 186 228 277 328
#     4  10  20  36  57  84 115 149 188 231 278 331
#
# _framework density 18.281291
#
# number of rings (size 3 to 8) (size 9 to 14) (size 15 to 20)
#    0.000    1.833    1.667    2.500    0.000    5.333 
#    0.000    0.833    0.000    2.000    0.000    0.000 
#    0.000    0.000    0.000    0.000    0.000    0.000 
#
# Total GULP energy -297703.589628 kJ/mol
# GULP energy per Si atom -12404.316235 kJ/mol
# Density = 1.823968 g / cm^3
# Si number density = 18.281291 Si / 1000 Ang^3
#
#
#
# Elastic Constant Matrix: (Units=GPa)
#
#
# Indices 1 2 3 4 5 6 
#
# 1 176.1247 56.3938 78.5426 0.0000 0.0000 0.0000
# 2 56.3938 60.3340 42.4198 0.0000 0.0000 0.0000
# 3 78.5426 42.4198 109.7747 0.0000 0.0000 0.0000
# 4 0.0000 0.0000 0.0000 26.6991 0.0000 0.0000
# 5 0.0000 0.0000 0.0000 0.0000 29.2689 0.0000
# 6 0.0000 0.0000 0.0000 0.0000 0.0000 37.8760
#
#
#
# Elastic Compliance Matrix: (Units=1/GPa)
#
#
# Indices 1 2 3 4 5 6 
#
# 1 0.009570 -0.005672 -0.004655 0.000000 0.000000 0.000000
# 2 -0.005672 0.026119 -0.006035 0.000000 0.000000 0.000000
# 3 -0.004655 -0.006035 0.014773 0.000000 0.000000 0.000000
# 4 0.000000 0.000000 0.000000 0.037454 0.000000 0.000000
# 5 0.000000 0.000000 0.000000 0.000000 0.034166 0.000000
# 6 0.000000 0.000000 0.000000 0.000000 0.000000 0.026402
#
#
# Mechanical properties :
#
#
# Convention : Reuss Voigt Hill
#
# Bulk Modulus (GPa) = 56.37924 77.88285 67.13105
# Shear Modulus (GPa) = 26.72078 30.02729 28.37404
#
# Velocity S-wave (km/s) = 3.82730 4.05719 3.94392
# Velocity P-wave (km/s) = 7.10195 8.04007 7.58553
#
# Compressibility (1/GPa) = 0.01773703
#
# Stress axis : x y z
#
# Youngs Moduli (GPa) = 104.49356 38.28655 67.69316
#
# Poissons Ratio (x) = 0.21715 0.31514
# Poissons Ratio (y) = 0.59267 0.40852
# Poissons Ratio (z) = 0.48647 0.23105
#
# Static dielectric constant tensor:
#      x y z
#    x 3.286600 0.000000 0.000000 
#    y 0.000000 3.351310 0.000000 
#    z 0.000000 0.000000 3.577870 
# 
# 
# High freq. dielectric constant tensor:
#      x y z
#    x 1.711890 0.000000 0.000000 
#    y 0.000000 1.711600 0.000000 
#    z 0.000000 0.000000 1.711790 
# 
# From -- ./inp_files/28063.got.cif
#   From: 2010.03.12/outbox.cif.g09.slc.cpg/sg42_15_cif.got.tgz:28063.got - 2010.04.14 02:04:31.
