data_PCOD8186223
_publ_section_title
;
Structure prediction by ZEFSAII (Michael W. Deem and Ramdas Pophale) SiO2 
 PCOD8186223
Probable space group: F M M 2
;
_chemical_formula_sum "Si O2"
_cell_formula_units_Z 96
_cell_length_a 20.049796
_cell_length_b 7.800956
_cell_length_c 34.153770
_cell_angle_alpha 90.000000
_cell_angle_beta 90.000000
_cell_angle_gamma 90.000000
_cell_volume 5341.908391
_symmetry_space_group_name_H-M "F M M 2"
_symmetry_group_IT_number 42
_symmetry_cell_setting 'orthorhombic'
loop_
_space_group_symop_operation_xyz
x,y,z
-x,-y,z
-x,y,z
x,-y,z
x,1/2+y,1/2+z
-x,1/2-y,1/2+z
-x,1/2+y,1/2+z
x,1/2-y,1/2+z
1/2+x,y,1/2+z
1/2-x,-y,1/2+z
1/2-x,y,1/2+z
1/2+x,-y,1/2+z
1/2+x,1/2+y,z
1/2-x,1/2-y,z
1/2-x,1/2+y,z
1/2+x,1/2-y,z
loop_
_atom_site_type_symbol
_atom_site_label
_atom_site_fract_x
_atom_site_fract_y
_atom_site_fract_z
Si Si1 0.927497 0.698618 0.740440
Si Si2 0.177531 0.200504 0.891194
Si Si3 0.579386 0.692111 0.155069
Si Si4 0.077860 0.801136 0.957867
Si Si5 0.420187 0.500000 0.602163
Si Si6 0.921472 0.000000 0.514705
Si Si7 0.677448 0.799525 0.304310
O O1 0.939108 0.500000 0.734488
O O2 0.899370 0.762703 0.698332
O O3 0.877661 0.727704 0.775662
O O4 0.000000 0.783806 0.749989
O O5 0.250000 0.250000 0.908431
O O6 0.119293 0.262670 0.920107
O O7 0.167808 0.282491 0.847824
O O8 0.172936 0.000000 0.886715
O O9 0.500000 0.685290 0.153363
O O10 0.607900 0.500000 0.146186
O O11 0.607095 0.828315 0.123476
O O12 0.100597 0.675192 0.992840
O O13 0.000000 0.778207 0.947817
O O14 0.093553 0.000000 0.969069
O O15 0.500000 0.500000 0.602321
O O16 0.390489 0.500000 0.558171
O O17 0.000000 0.000000 0.518388
O O18 0.750000 0.750000 0.287842
O O19 0.668965 0.000000 0.306004
#
# Coordination Sequence:
#
# PCOD8186223 Si02
#       7
#    16  16  16  16   8   8  16
#     4   9  18  32  48  70 101 131 166 208 249 294
#     4   9  19  33  50  71  95 127 167 208 246 289
#     4   8  15  27  43  66  98 132 161 198 242 288
#     4   9  18  33  50  70 102 134 161 201 249 297
#     4   9  16  26  44  70  99 126 160 197 242 301
#     4   9  18  30  46  74 101 128 163 199 244 299
#     4  10  20  33  49  70  99 131 167 211 250 293
#
# _framework density 17.971104
#
# number of rings (size 3 to 8) (size 9 to 14) (size 15 to 20)
#    0.000    3.000    0.000    1.500    2.333    2.333 
#    0.000    5.000    0.000    0.000    0.000    1.167 
#    0.000    0.000    0.000    0.000    0.000    0.000 
#
# Total GULP energy -297398.834521 kJ/mol
# GULP energy per Si atom -12391.618105 kJ/mol
# Density = 1.793020 g / cm^3
# Si number density = 17.971104 Si / 1000 Ang^3
#
#
#
# Elastic Constant Matrix: (Units=GPa)
#
#
# Indices 1 2 3 4 5 6 
#
# 1 65.2775 22.1356 60.7113 0.0000 0.0000 0.0000
# 2 22.1356 71.5019 52.9460 0.0000 0.0000 0.0000
# 3 60.7113 52.9460 146.7496 0.0000 0.0000 0.0000
# 4 0.0000 0.0000 0.0000 26.7854 0.0000 0.0000
# 5 0.0000 0.0000 0.0000 0.0000 2.3681 0.0000
# 6 0.0000 0.0000 0.0000 0.0000 0.0000 16.6802
#
#
#
# Elastic Compliance Matrix: (Units=1/GPa)
#
#
# Indices 1 2 3 4 5 6 
#
# 1 0.024901 -0.000110 -0.010262 0.000000 0.000000 0.000000
# 2 -0.000110 0.019085 -0.006840 0.000000 0.000000 0.000000
# 3 -0.010262 -0.006840 0.013528 0.000000 0.000000 0.000000
# 4 0.000000 0.000000 0.000000 0.037334 0.000000 0.000000
# 5 0.000000 0.000000 0.000000 0.000000 0.422287 0.000000
# 6 0.000000 0.000000 0.000000 0.000000 0.000000 0.059951
#
#
# Mechanical properties :
#
#
# Convention : Reuss Voigt Hill
#
# Bulk Modulus (GPa) = 43.31079 61.67942 52.49511
# Shear Modulus (GPa) = 8.07487 19.01581 13.54534
#
# Velocity S-wave (km/s) = 2.12203 3.25642 2.74839
# Velocity P-wave (km/s) = 5.49150 6.96671 6.27262
#
# Compressibility (1/GPa) = 0.02308893
#
# Stress axis : x y z
#
# Youngs Moduli (GPa) = 40.15980 52.39816 73.92321
#
# Poissons Ratio (x) = 0.00576 0.75859
# Poissons Ratio (y) = 0.00442 0.50564
# Poissons Ratio (z) = 0.41211 0.35841
#
# Static dielectric constant tensor:
#      x y z
#    x 2.911150 0.000000 0.000000 
#    y 0.000000 3.471990 0.000000 
#    z 0.000000 0.000000 3.917240 
# 
# 
# High freq. dielectric constant tensor:
#      x y z
#    x 1.650690 0.000000 0.000000 
#    y 0.000000 1.702740 0.000000 
#    z 0.000000 0.000000 1.693340 
# 
# From -- ./inp_files/33189.got.cif
#   From: 2010.03.12/outbox.cif.g09.slc.cpg/sg42_17_cif.got.tgz:33189.got - 2010.04.14 02:04:31.
