data_PCOD8186173
_publ_section_title
;
Structure prediction by ZEFSAII (Michael W. Deem and Ramdas Pophale) SiO2 
 PCOD8186173
Probable space group: F M M 2
;
_chemical_formula_sum "Si O2"
_cell_formula_units_Z 96
_cell_length_a 21.507895
_cell_length_b 19.566529
_cell_length_c 12.343962
_cell_angle_alpha 90.000000
_cell_angle_beta 90.000000
_cell_angle_gamma 90.000000
_cell_volume 5194.769412
_symmetry_space_group_name_H-M "F M M 2"
_symmetry_group_IT_number 42
_symmetry_cell_setting 'orthorhombic'
loop_
_space_group_symop_operation_xyz
x,y,z
-x,-y,z
-x,y,z
x,-y,z
x,1/2+y,1/2+z
-x,1/2-y,1/2+z
-x,1/2+y,1/2+z
x,1/2-y,1/2+z
1/2+x,y,1/2+z
1/2-x,-y,1/2+z
1/2-x,y,1/2+z
1/2+x,-y,1/2+z
1/2+x,1/2+y,z
1/2-x,1/2-y,z
1/2-x,1/2+y,z
1/2+x,1/2-y,z
loop_
_atom_site_type_symbol
_atom_site_label
_atom_site_fract_x
_atom_site_fract_y
_atom_site_fract_z
Si Si1 0.750000 0.250000 0.747421
Si Si2 0.869629 0.500000 0.218779
Si Si3 0.157639 0.500000 0.461259
Si Si4 0.205479 0.000000 0.493979
Si Si5 0.429111 0.858334 0.258534
Si Si6 0.861495 0.274610 0.096863
Si Si7 0.285804 0.852355 0.925486
Si Si8 0.857595 0.352890 0.472226
O O1 0.803671 0.217915 0.676208
O O2 0.719835 0.185981 0.811322
O O3 0.828791 0.500000 0.330183
O O4 0.913529 0.434364 0.219513
O O5 0.828674 0.500000 0.109979
O O6 0.222181 0.500000 0.524914
O O7 0.120314 0.568683 0.494785
O O8 0.191909 0.931897 0.421870
O O9 0.500000 0.854618 0.297886
O O10 0.420168 0.809641 0.154328
O O11 0.384739 0.831765 0.355364
O O12 0.839780 0.312817 0.988714
O O13 0.882508 0.197604 0.065323
O O14 0.217222 0.847078 0.977865
#
# Coordination Sequence:
#
# PCOD8186173 Si02
#       8
#     8   8   8   8  16  16  16  16
#     4  12  20  34  54  80 116 152 184 226 294 352
#     4  10  19  38  58  76 115 153 189 232 286 348
#     4   8  20  33  51  82 113 144 184 234 289 331
#     4  10  20  31  53  82 114 145 182 232 285 333
#     4  11  23  37  57  83 114 152 194 236 278 342
#     4  12  20  34  58  81 114 151 188 230 291 344
#     4  11  19  33  52  83 112 145 184 233 285 338
#     4  10  19  36  54  80 111 148 188 238 285 331
#
# _framework density 18.480128000000001
#
# number of rings (size 3 to 8) (size 9 to 14) (size 15 to 20)
#    0.000    1.333    6.667    0.250    0.000    0.667 
#    0.000    0.000    0.000    0.000    0.000    0.000 
#    0.000    0.000    0.000    0.000    0.000    0.000 
#
# Total GULP energy -297409.582756 kJ/mol
# GULP energy per Si atom -12392.065948 kJ/mol
# Density = 1.843807 g / cm^3
# Si number density = 18.480128 Si / 1000 Ang^3
#
#
#
# Elastic Constant Matrix: (Units=GPa)
#
#
# Indices 1 2 3 4 5 6 
#
# 1 52.9360 18.6413 19.5351 0.0000 0.0000 0.0000
# 2 18.6413 134.1268 46.4918 0.0000 0.0000 0.0000
# 3 19.5351 46.4918 66.8016 0.0000 0.0000 0.0000
# 4 0.0000 0.0000 0.0000 28.1803 0.0000 0.0000
# 5 0.0000 0.0000 0.0000 0.0000 15.1740 0.0000
# 6 0.0000 0.0000 0.0000 0.0000 0.0000 13.3350
#
#
#
# Elastic Compliance Matrix: (Units=1/GPa)
#
#
# Indices 1 2 3 4 5 6 
#
# 1 0.021289 -0.001055 -0.005491 0.000000 0.000000 0.000000
# 2 -0.001055 0.009878 -0.006566 0.000000 0.000000 0.000000
# 3 -0.005491 -0.006566 0.021145 0.000000 0.000000 0.000000
# 4 0.000000 0.000000 0.000000 0.035486 0.000000 0.000000
# 5 0.000000 0.000000 0.000000 0.000000 0.065902 0.000000
# 6 0.000000 0.000000 0.000000 0.000000 0.000000 0.074991
#
#
# Mechanical properties :
#
#
# Convention : Reuss Voigt Hill
#
# Bulk Modulus (GPa) = 38.33340 47.02231 42.67786
# Shear Modulus (GPa) = 18.96721 22.61759 20.79240
#
# Velocity S-wave (km/s) = 3.20716 3.50221 3.35792
# Velocity P-wave (km/s) = 5.87389 6.46946 6.17886
#
# Compressibility (1/GPa) = 0.02608691
#
# Stress axis : x y z
#
# Youngs Moduli (GPa) = 46.97312 101.23094 47.29148
#
# Poissons Ratio (x) = 0.10684 0.25968
# Poissons Ratio (y) = 0.04958 0.31053
# Poissons Ratio (z) = 0.25793 0.66472
#
# Static dielectric constant tensor:
#      x y z
#    x 2.996580 0.000000 0.000000 
#    y 0.000000 3.918010 0.000000 
#    z 0.000000 0.000000 3.295880 
# 
# 
# High freq. dielectric constant tensor:
#      x y z
#    x 1.670910 0.000000 0.000000 
#    y 0.000000 1.740760 0.000000 
#    z 0.000000 0.000000 1.700560 
# 
# From -- ./inp_files/9575.got.cif
#   From: 2010.03.12/outbox.cif.g09.slc.cpg/sg42_5_cif.got.tgz:9575.got - 2010.04.14 02:04:31.
