data_PCOD8186385
_publ_section_title
;
Structure prediction by ZEFSAII (Michael W. Deem and Ramdas Pophale) SiO2 
 PCOD8186385
Probable space group: F M M 2
;
_chemical_formula_sum "Si O2"
_cell_formula_units_Z 96
_cell_length_a 22.338415
_cell_length_b 18.371423
_cell_length_c 11.833155
_cell_angle_alpha 90.000000
_cell_angle_beta 90.000000
_cell_angle_gamma 90.000000
_cell_volume 4856.190389
_symmetry_space_group_name_H-M "F M M 2"
_symmetry_group_IT_number 42
_symmetry_cell_setting 'orthorhombic'
loop_
_space_group_symop_operation_xyz
x,y,z
-x,-y,z
-x,y,z
x,-y,z
x,1/2+y,1/2+z
-x,1/2-y,1/2+z
-x,1/2+y,1/2+z
x,1/2-y,1/2+z
1/2+x,y,1/2+z
1/2-x,-y,1/2+z
1/2-x,y,1/2+z
1/2+x,-y,1/2+z
1/2+x,1/2+y,z
1/2-x,1/2-y,z
1/2-x,1/2+y,z
1/2+x,1/2-y,z
loop_
_atom_site_type_symbol
_atom_site_label
_atom_site_fract_x
_atom_site_fract_y
_atom_site_fract_z
Si Si1 0.152441 0.787910 0.467190
Si Si2 0.932309 0.500000 0.246555
Si Si3 0.856227 0.637540 0.201220
Si Si4 0.931263 0.500000 0.513495
Si Si5 0.628506 0.353647 0.100967
Si Si6 0.067664 0.269313 0.782736
Si Si7 0.767430 0.672697 0.763139
O O1 0.156378 0.840973 0.572692
O O2 0.149813 0.702603 0.503892
O O3 0.091640 0.807212 0.397261
O O4 0.209321 0.807676 0.388682
O O5 0.897852 0.568346 0.197614
O O6 0.932706 0.500000 0.380143
O O7 0.000000 0.500000 0.199586
O O8 0.889399 0.700522 0.268981
O O9 0.792632 0.623180 0.264707
O O10 0.894443 0.570818 0.550946
O O11 0.000000 0.500000 0.560160
O O12 0.573217 0.320240 0.172727
O O13 0.682938 0.367951 0.187969
O O14 0.000000 0.243776 0.798965
O O15 0.750000 0.750000 0.703454
#
# Coordination Sequence:
#
# PCOD8186385 Si02
#       7
#    16   8  16   8  16  16  16
#     4  10  21  36  62  92 118 158 206 260 321 362
#     4  11  26  45  59  87 129 169 209 250 304 379
#     4  11  23  39  62  89 122 164 203 256 314 369
#     4  11  24  41  63  87 125 173 209 254 310 371
#     4  10  22  38  60  90 122 162 206 256 310 370
#     4  10  20  35  58  89 117 153 212 265 304 362
#     4  11  21  38  64  94 123 151 201 262 315 367
#
# _framework density 19.768581999999999
#
# number of rings (size 3 to 8) (size 9 to 14) (size 15 to 20)
#    0.000    1.500    5.000    2.000    2.333    6.000 
#    0.000    4.167    0.000    4.000    0.000    0.000 
#    0.000    0.000    0.000    0.000    0.000    0.000 
#
# Total GULP energy -297514.000512 kJ/mol
# GULP energy per Si atom -12396.416688 kJ/mol
# Density = 1.972359 g / cm^3
# Si number density = 19.768582 Si / 1000 Ang^3
#
#
#
# Elastic Constant Matrix: (Units=GPa)
#
#
# Indices 1 2 3 4 5 6 
#
# 1 174.1574 48.7997 64.0131 0.0000 0.0000 0.0000
# 2 48.7997 107.5653 45.8091 0.0000 0.0000 0.0000
# 3 64.0131 45.8091 108.3910 0.0000 0.0000 0.0000
# 4 0.0000 0.0000 0.0000 1280.8866 0.0000 0.0000
# 5 0.0000 0.0000 0.0000 0.0000 21.4686 0.0000
# 6 0.0000 0.0000 0.0000 0.0000 0.0000 34.5898
#
#
#
# Elastic Compliance Matrix: (Units=1/GPa)
#
#
# Indices 1 2 3 4 5 6 
#
# 1 0.007634 -0.001882 -0.003713 0.000000 0.000000 0.000000
# 2 -0.001882 0.011801 -0.003876 0.000000 0.000000 0.000000
# 3 -0.003713 -0.003876 0.013057 0.000000 0.000000 0.000000
# 4 0.000000 0.000000 0.000000 0.000781 0.000000 0.000000
# 5 0.000000 0.000000 0.000000 0.000000 0.046580 0.000000
# 6 0.000000 0.000000 0.000000 0.000000 0.000000 0.028910
#
#
# Mechanical properties :
#
#
# Convention : Reuss Voigt Hill
#
# Bulk Modulus (GPa) = 73.80206 78.59529 76.19867
# Shear Modulus (GPa) = 37.81529 282.82180 160.31854
#
# Velocity S-wave (km/s) = 4.37841 11.97401 9.01519
# Velocity P-wave (km/s) = 7.93566 15.19912 12.12411
#
# Compressibility (1/GPa) = 0.01354976
#
# Stress axis : x y z
#
# Youngs Moduli (GPa) = 130.99163 84.73698 76.58837
#
# Poissons Ratio (x) = 0.15948 0.28438
# Poissons Ratio (y) = 0.24654 0.29686
# Poissons Ratio (z) = 0.48638 0.32844
#
# Static dielectric constant tensor:
#      x y z
#    x 3.819830 0.000000 0.000000 
#    y 0.000000 -28.288990 0.000000 
#    z 0.000000 0.000000 3.673670 
# 
# 
# High freq. dielectric constant tensor:
#      x y z
#    x 1.787430 0.000000 0.000000 
#    y 0.000000 1.733160 0.000000 
#    z 0.000000 0.000000 1.780200 
# 
# From -- ./inp_files/8851.got.cif
#   From: 2010.03.12/outbox.cif.g09.slc.cpg/sg42_5_cif.got.tgz:8851.got - 2010.04.14 02:04:31.
