data_PCOD8186526
_publ_section_title
;
Structure prediction by ZEFSAII (Michael W. Deem and Ramdas Pophale) SiO2 
 PCOD8186526
Probable space group: F M M 2
;
_chemical_formula_sum "Si O2"
_cell_formula_units_Z 80
_cell_length_a 19.078128
_cell_length_b 7.604463
_cell_length_c 29.242809
_cell_angle_alpha 90.000000
_cell_angle_beta 90.000000
_cell_angle_gamma 90.000000
_cell_volume 4242.515103
_symmetry_space_group_name_H-M "F M M 2"
_symmetry_group_IT_number 42
_symmetry_cell_setting 'orthorhombic'
loop_
_space_group_symop_operation_xyz
x,y,z
-x,-y,z
-x,y,z
x,-y,z
x,1/2+y,1/2+z
-x,1/2-y,1/2+z
-x,1/2+y,1/2+z
x,1/2-y,1/2+z
1/2+x,y,1/2+z
1/2-x,-y,1/2+z
1/2-x,y,1/2+z
1/2+x,-y,1/2+z
1/2+x,1/2+y,z
1/2-x,1/2-y,z
1/2-x,1/2+y,z
1/2+x,1/2-y,z
loop_
_atom_site_type_symbol
_atom_site_label
_atom_site_fract_x
_atom_site_fract_y
_atom_site_fract_z
Si Si1 0.172870 0.794891 0.038700
Si Si2 0.078529 0.791120 0.958512
Si Si3 0.417103 0.694722 0.360023
Si Si4 0.329450 0.791803 0.641924
Si Si5 0.583301 0.500000 0.796543
Si Si6 0.584025 0.500000 0.692016
O O1 0.250000 0.750000 0.021408
O O2 0.160334 0.722924 0.089854
O O3 0.160493 0.000000 0.040431
O O4 0.120461 0.710163 0.001614
O O5 0.113471 0.727920 0.910873
O O6 0.000000 0.717533 0.962980
O O7 0.079807 0.000000 0.959147
O O8 0.500000 0.722784 0.363341
O O9 0.396901 0.500000 0.343303
O O10 0.385962 0.829341 0.322792
O O11 0.250000 0.750000 0.657661
O O12 0.384600 0.678912 0.670960
O O13 0.345135 0.000000 0.647878
O O14 0.500000 0.500000 0.798069
O O15 0.608489 0.500000 0.744598
O O16 0.500000 0.500000 0.685953
#
# Coordination Sequence:
#
# PCOD8186526 Si02
#       6
#    16  16  16  16   8   8
#     4   9  19  32  52  78 106 147 190 223 267 332
#     4   9  16  29  49  75 107 143 180 222 272 321
#     4   9  16  28  49  75 104 142 183 220 270 336
#     4  10  20  39  63  84 114 159 202 236 285 360
#     4   9  18  34  52  75 112 143 173 232 288 331
#     4  11  24  38  60  95 119 145 195 252 305 339
#
# _framework density 18.856739000000001
#
# number of rings (size 3 to 8) (size 9 to 14) (size 15 to 20)
#    0.000    2.600    2.000    0.000    1.400    2.800 
#    0.000    4.000    0.000    1.200    0.000    0.000 
#    0.000    0.000    0.000    0.000    0.000    0.000 
#
# Total GULP energy -247899.826283 kJ/mol
# GULP energy per Si atom -12394.991314 kJ/mol
# Density = 1.881382 g / cm^3
# Si number density = 18.856739 Si / 1000 Ang^3
#
#
#
# Elastic Constant Matrix: (Units=GPa)
#
#
# Indices 1 2 3 4 5 6 
#
# 1 73.0168 31.2793 61.5000 0.0000 0.0000 0.0003
# 2 31.2793 103.1067 57.4272 0.0001 -0.0001 0.0004
# 3 61.5000 57.4272 150.1482 0.0000 0.0000 0.0000
# 4 0.0000 0.0001 0.0000 15.7500 0.0000 0.0000
# 5 0.0000 -0.0001 0.0000 0.0000 7.2936 0.0001
# 6 0.0003 0.0004 0.0000 0.0000 0.0001 22.3409
#
#
#
# Elastic Compliance Matrix: (Units=1/GPa)
#
#
# Indices 1 2 3 4 5 6 
#
# 1 0.021238 -0.002030 -0.007922 0.000000 0.000000 0.000000
# 2 -0.002030 0.012518 -0.003956 0.000000 0.000000 0.000000
# 3 -0.007922 -0.003956 0.011418 0.000000 0.000000 0.000000
# 4 0.000000 0.000000 0.000000 0.063492 0.000000 0.000000
# 5 0.000000 0.000000 0.000000 0.000000 0.137106 0.000000
# 6 0.000000 0.000000 0.000000 0.000000 0.000000 0.044761
#
#
# Mechanical properties :
#
#
# Convention : Reuss Voigt Hill
#
# Bulk Modulus (GPa) = 57.61567 69.63164 63.62365
# Shear Modulus (GPa) = 15.42557 20.81459 18.12008
#
# Velocity S-wave (km/s) = 2.86324 3.32599 3.10326
# Velocity P-wave (km/s) = 6.44606 7.19420 6.83038
#
# Compressibility (1/GPa) = 0.01735639
#
# Stress axis : x y z
#
# Youngs Moduli (GPa) = 47.08504 79.88424 87.57937
#
# Poissons Ratio (x) = 0.16220 0.69385
# Poissons Ratio (y) = 0.09560 0.34648
# Poissons Ratio (z) = 0.37303 0.31603
#
# Static dielectric constant tensor:
#      x y z
#    x 3.219170 0.000000 0.000000 
#    y 0.000000 3.449440 0.000000 
#    z 0.000000 0.000000 3.744410 
# 
# 
# High freq. dielectric constant tensor:
#      x y z
#    x 1.688850 0.000000 0.000000 
#    y 0.000000 1.739910 0.000000 
#    z 0.000000 0.000000 1.735880 
# 
# From -- ./inp_files/31387.got.cif
#   From: 2010.03.12/outbox.cif.g09.slc.cpg/sg42_16_cif.got.tgz:31387.got - 2010.04.14 02:04:31.
