data_PCOD8186303
_publ_section_title
;
Structure prediction by ZEFSAII (Michael W. Deem and Ramdas Pophale) SiO2 
 PCOD8186303
Probable space group: F M M 2
;
_chemical_formula_sum "Si O2"
_cell_formula_units_Z 96
_cell_length_a 18.154597
_cell_length_b 8.926163
_cell_length_c 30.891204
_cell_angle_alpha 90.000000
_cell_angle_beta 90.000000
_cell_angle_gamma 90.000000
_cell_volume 5005.947164
_symmetry_space_group_name_H-M "F M M 2"
_symmetry_group_IT_number 42
_symmetry_cell_setting 'orthorhombic'
loop_
_space_group_symop_operation_xyz
x,y,z
-x,-y,z
-x,y,z
x,-y,z
x,1/2+y,1/2+z
-x,1/2-y,1/2+z
-x,1/2+y,1/2+z
x,1/2-y,1/2+z
1/2+x,y,1/2+z
1/2-x,-y,1/2+z
1/2-x,y,1/2+z
1/2+x,-y,1/2+z
1/2+x,1/2+y,z
1/2-x,1/2-y,z
1/2-x,1/2+y,z
1/2+x,1/2-y,z
loop_
_atom_site_type_symbol
_atom_site_label
_atom_site_fract_x
_atom_site_fract_y
_atom_site_fract_z
Si Si1 0.328824 0.822744 0.079240
Si Si2 0.087331 0.834616 0.251742
Si Si3 0.829339 0.822810 0.412513
Si Si4 0.415048 0.324166 0.155364
Si Si5 0.417477 0.322072 0.495804
Si Si6 0.587181 0.170487 0.336123
O O1 0.250000 0.750000 0.073101
O O2 0.364976 0.772344 0.123862
O O3 0.319989 0.000000 0.079140
O O4 0.379420 0.765759 0.039741
O O5 0.112106 0.782227 0.203893
O O6 0.114720 0.719067 0.288282
O O7 0.000000 0.844858 0.251482
O O8 0.119530 0.000000 0.262010
O O9 0.750000 0.750000 0.410839
O O10 0.871666 0.761662 0.454842
O O11 0.875549 0.778101 0.370637
O O12 0.820570 0.000000 0.413694
O O13 0.500000 0.278657 0.148359
O O14 0.403965 0.500000 0.146609
O O15 0.500000 0.255045 0.493833
O O16 0.420689 0.500000 0.494623
O O17 0.500000 0.189731 0.340377
O O18 0.611952 0.000000 0.343881
#
# Coordination Sequence:
#
# PCOD8186303 Si02
#       6
#    16  16  16  16  16  16
#     4  11  22  36  55  79 111 147 182 222 268 320
#     4   8  15  30  53  79 107 141 180 222 269 319
#     4  11  22  37  57  79 109 146 181 220 268 322
#     4   9  18  34  56  82 111 142 180 225 270 320
#     4   9  19  36  58  83 107 136 178 223 266 318
#     4  10  20  34  54  82 113 142 179 226 270 318
#
# _framework density 19.177191000000001
#
# number of rings (size 3 to 8) (size 9 to 14) (size 15 to 20)
#    0.000    2.333    0.000    4.000    0.000    3.333 
#    0.000    5.000    0.000   10.000    0.000    0.000 
#    0.000    0.000    0.000    0.000    0.000    0.000 
#
# Total GULP energy -297608.344783 kJ/mol
# GULP energy per Si atom -12400.347699 kJ/mol
# Density = 1.913354 g / cm^3
# Si number density = 19.177191 Si / 1000 Ang^3
#
#
#
# Elastic Constant Matrix: (Units=GPa)
#
#
# Indices 1 2 3 4 5 6 
#
# 1 75.3702 36.7532 48.7085 0.0000 0.0000 0.0000
# 2 36.7532 69.6109 44.4226 0.0000 0.0000 0.0000
# 3 48.7085 44.4226 149.1655 0.0000 0.0000 0.0000
# 4 0.0000 0.0000 0.0000 26.0787 0.0000 0.0000
# 5 0.0000 0.0000 0.0000 0.0000 4.8760 0.0000
# 6 0.0000 0.0000 0.0000 0.0000 0.0000 15.9058
#
#
#
# Elastic Compliance Matrix: (Units=1/GPa)
#
#
# Indices 1 2 3 4 5 6 
#
# 1 0.019729 -0.007785 -0.004124 0.000000 0.000000 0.000000
# 2 -0.007785 0.020808 -0.003655 0.000000 0.000000 0.000000
# 3 -0.004124 -0.003655 0.009139 0.000000 0.000000 0.000000
# 4 0.000000 0.000000 0.000000 0.038346 0.000000 0.000000
# 5 0.000000 0.000000 0.000000 0.000000 0.205087 0.000000
# 6 0.000000 0.000000 0.000000 0.000000 0.000000 0.062870
#
#
# Mechanical properties :
#
#
# Convention : Reuss Voigt Hill
#
# Bulk Modulus (GPa) = 53.91089 61.54613 57.72851
# Shear Modulus (GPa) = 12.71328 20.32291 16.51809
#
# Velocity S-wave (km/s) = 2.57755 3.25890 2.93804
# Velocity P-wave (km/s) = 6.08534 6.80615 6.45581
#
# Compressibility (1/GPa) = 0.01854913
#
# Stress axis : x y z
#
# Youngs Moduli (GPa) = 50.68644 48.05820 109.42103
#
# Poissons Ratio (x) = 0.37413 0.45125
# Poissons Ratio (y) = 0.39459 0.39991
# Poissons Ratio (z) = 0.20903 0.17564
#
# Static dielectric constant tensor:
#      x y z
#    x 3.388880 0.000000 0.000000 
#    y 0.000000 3.392040 0.000000 
#    z 0.000000 0.000000 3.791710 
# 
# 
# High freq. dielectric constant tensor:
#      x y z
#    x 1.731410 0.000000 0.000000 
#    y 0.000000 1.733100 0.000000 
#    z 0.000000 0.000000 1.763930 
# 
# From -- ./inp_files/31446.got.cif
#   From: 2010.03.12/outbox.cif.g09.slc.cpg/sg42_16_cif.got.tgz:31446.got - 2010.04.14 02:04:31.
