data_PCOD8186443
_publ_section_title
;
Structure prediction by ZEFSAII (Michael W. Deem and Ramdas Pophale) SiO2 
 PCOD8186443
Probable space group: F M M 2
;
_chemical_formula_sum "Si O2"
_cell_formula_units_Z 96
_cell_length_a 19.196383
_cell_length_b 18.486035
_cell_length_c 13.374966
_cell_angle_alpha 90.000000
_cell_angle_beta 90.000000
_cell_angle_gamma 90.000000
_cell_volume 4746.307417
_symmetry_space_group_name_H-M "F M M 2"
_symmetry_group_IT_number 42
_symmetry_cell_setting 'orthorhombic'
loop_
_space_group_symop_operation_xyz
x,y,z
-x,-y,z
-x,y,z
x,-y,z
x,1/2+y,1/2+z
-x,1/2-y,1/2+z
-x,1/2+y,1/2+z
x,1/2-y,1/2+z
1/2+x,y,1/2+z
1/2-x,-y,1/2+z
1/2-x,y,1/2+z
1/2+x,-y,1/2+z
1/2+x,1/2+y,z
1/2-x,1/2-y,z
1/2-x,1/2+y,z
1/2+x,1/2-y,z
loop_
_atom_site_type_symbol
_atom_site_label
_atom_site_fract_x
_atom_site_fract_y
_atom_site_fract_z
Si Si1 0.576971 0.417300 0.120190
Si Si2 0.819407 0.282451 0.130832
Si Si3 0.578729 0.617070 0.900296
Si Si4 0.301270 0.416854 0.751800
Si Si5 0.578675 0.778283 0.953437
Si Si6 0.665156 0.162141 0.784209
O O1 0.500000 0.380910 0.125118
O O2 0.571948 0.500000 0.150244
O O3 0.627303 0.381073 0.197812
O O4 0.606516 0.408177 0.008447
O O5 0.750000 0.250000 0.076437
O O6 0.813122 0.368551 0.151810
O O7 0.824484 0.242432 0.238711
O O8 0.886078 0.268405 0.061659
O O9 0.500000 0.587787 0.881580
O O10 0.629444 0.583335 0.818489
O O11 0.578673 0.703491 0.893676
O O12 0.284709 0.500000 0.721615
O O13 0.236523 0.380026 0.810651
O O14 0.500000 0.806571 0.969878
O O15 0.621115 0.835619 0.886386
#
# Coordination Sequence:
#
# PCOD8186443 Si02
#       6
#    16  16  16  16  16  16
#     4  10  20  36  59  88 122 158 200 251 301 352
#     4  10  23  39  63  87 121 162 202 256 301 356
#     4  10  21  37  62  94 124 159 205 258 307 356
#     4  11  24  41  62  91 124 164 206 251 310 366
#     4  11  23  38  64  96 123 157 205 252 306 367
#     4  11  22  39  62  89 124 159 202 250 301 366
#
# _framework density 20.226248999999999
#
# number of rings (size 3 to 8) (size 9 to 14) (size 15 to 20)
#    0.000    1.500    3.333    1.500    2.333    2.333 
#    0.000    3.333    0.000    2.000    0.000    0.000 
#    0.000    0.000    0.000    0.000    0.000    0.000 
#
# Total GULP energy -297579.665694 kJ/mol
# GULP energy per Si atom -12399.152737 kJ/mol
# Density = 2.018021 g / cm^3
# Si number density = 20.226249 Si / 1000 Ang^3
#
#
#
# Elastic Constant Matrix: (Units=GPa)
#
#
# Indices 1 2 3 4 5 6 
#
# 1 132.4622 35.4400 50.2819 0.0000 0.0000 0.0000
# 2 35.4400 102.7723 25.1389 0.0000 0.0000 0.0000
# 3 50.2819 25.1389 67.4829 0.0000 0.0000 0.0000
# 4 0.0000 0.0000 0.0000 21.9181 0.0000 0.0000
# 5 0.0000 0.0000 0.0000 0.0000 35.7425 0.0000
# 6 0.0000 0.0000 0.0000 0.0000 0.0000 22.6300
#
#
#
# Elastic Compliance Matrix: (Units=1/GPa)
#
#
# Indices 1 2 3 4 5 6 
#
# 1 0.010869 -0.001944 -0.007374 0.000000 0.000000 0.000000
# 2 -0.001944 0.011054 -0.002669 0.000000 0.000000 0.000000
# 3 -0.007374 -0.002669 0.021307 0.000000 0.000000 0.000000
# 4 0.000000 0.000000 0.000000 0.045624 0.000000 0.000000
# 5 0.000000 0.000000 0.000000 0.000000 0.027978 0.000000
# 6 0.000000 0.000000 0.000000 0.000000 0.000000 0.044189
#
#
# Mechanical properties :
#
#
# Convention : Reuss Voigt Hill
#
# Bulk Modulus (GPa) = 51.93484 58.27099 55.10291
# Shear Modulus (GPa) = 26.12143 28.84856 27.48499
#
# Velocity S-wave (km/s) = 3.59759 3.78073 3.69029
# Velocity P-wave (km/s) = 6.55664 6.92320 6.74241
#
# Compressibility (1/GPa) = 0.01925490
#
# Stress axis : x y z
#
# Youngs Moduli (GPa) = 92.00798 90.46858 46.93234
#
# Poissons Ratio (x) = 0.17589 0.34608
# Poissons Ratio (y) = 0.17888 0.12527
# Poissons Ratio (z) = 0.67847 0.24147
#
# Static dielectric constant tensor:
#      x y z
#    x 4.029680 0.000000 0.000000 
#    y 0.000000 3.715370 0.000000 
#    z 0.000000 0.000000 3.327970 
# 
# 
# High freq. dielectric constant tensor:
#      x y z
#    x 1.805570 0.000000 0.000000 
#    y 0.000000 1.783880 0.000000 
#    z 0.000000 0.000000 1.763270 
# 
# From -- ./inp_files/9540.got.cif
#   From: 2010.03.12/outbox.cif.g09.slc.cpg/sg42_5_cif.got.tgz:9540.got - 2010.04.14 02:04:31.
