data_PCOD8186739
_publ_section_title
;
Structure prediction by ZEFSAII (Michael W. Deem and Ramdas Pophale) SiO2 
 PCOD8186739
Probable space group: F M M 2
;
_chemical_formula_sum "Si O2"
_cell_formula_units_Z 112
_cell_length_a 24.703191
_cell_length_b 15.828004
_cell_length_c 14.327358
_cell_angle_alpha 90.000000
_cell_angle_beta 90.000000
_cell_angle_gamma 90.000000
_cell_volume 5602.028584
_symmetry_space_group_name_H-M "F M M 2"
_symmetry_group_IT_number 42
_symmetry_cell_setting 'orthorhombic'
loop_
_space_group_symop_operation_xyz
x,y,z
-x,-y,z
-x,y,z
x,-y,z
x,1/2+y,1/2+z
-x,1/2-y,1/2+z
-x,1/2+y,1/2+z
x,1/2-y,1/2+z
1/2+x,y,1/2+z
1/2-x,-y,1/2+z
1/2-x,y,1/2+z
1/2+x,-y,1/2+z
1/2+x,1/2+y,z
1/2-x,1/2-y,z
1/2-x,1/2+y,z
1/2+x,1/2-y,z
loop_
_atom_site_type_symbol
_atom_site_label
_atom_site_fract_x
_atom_site_fract_y
_atom_site_fract_z
Si Si1 0.636213 0.736123 0.368620
Si Si2 0.299077 0.094077 0.757956
Si Si3 0.435855 0.680072 0.741825
Si Si4 0.941427 0.000000 0.762315
Si Si5 0.302304 0.092031 0.382632
Si Si6 0.372319 0.656353 0.559379
Si Si7 0.559678 0.500000 0.541177
Si Si8 0.250019 0.848531 0.069613
O O1 0.666264 0.657478 0.321501
O O2 0.578338 0.746525 0.315904
O O3 0.664274 0.826122 0.353113
O O4 0.631078 0.726821 0.479168
O O5 0.240913 0.084111 0.801694
O O6 0.290260 0.132435 0.655082
O O7 0.326342 0.000000 0.751981
O O8 0.500000 0.676922 0.722251
O O9 0.413641 0.589868 0.785474
O O10 0.404101 0.698112 0.645784
O O11 0.947544 0.000000 0.651100
O O12 0.000000 0.000000 0.811528
O O13 0.272238 0.101219 0.481376
O O14 0.333949 0.000000 0.384618
O O15 0.406219 0.581506 0.511062
O O16 0.312466 0.624346 0.589616
O O17 0.500000 0.500000 0.493310
O O18 0.250000 0.750000 0.045725
#
# Coordination Sequence:
#
# PCOD8186739 Si02
#       8
#    16  16  16   8  16  16   8  16
#     4  12  24  40  63  92 124 171 205 258 316 384
#     4  11  24  39  60  88 129 167 207 256 309 377
#     4  10  22  40  63  91 121 155 210 268 317 372
#     4   7  14  34  58  83 112 142 188 263 319 352
#     4  11  23  39  59  91 130 165 208 250 306 381
#     4  11  22  37  65  88 124 161 211 256 323 366
#     4   9  20  36  60  89 118 152 210 275 316 366
#     4  12  21  38  60  89 128 170 206 256 305 372
#
# _framework density 19.992757999999998
#
# number of rings (size 3 to 8) (size 9 to 14) (size 15 to 20)
#    0.000    1.286    2.857    4.714    4.000    1.143 
#    0.000    0.000    0.000    0.000    0.000    0.000 
#    0.000    0.000    0.000    0.000    0.000    0.000 
#
# Total GULP energy -346948.396886 kJ/mol
# GULP energy per Si atom -12391.014175 kJ/mol
# Density = 1.994725 g / cm^3
# Si number density = 19.992758 Si / 1000 Ang^3
#
#
#
# Elastic Constant Matrix: (Units=GPa)
#
#
# Indices 1 2 3 4 5 6 
#
# 1 62.5750 26.7909 0.0583 0.0000 0.0000 0.0000
# 2 26.7909 128.2447 14.2209 0.0000 0.0000 0.0000
# 3 0.0583 14.2209 67.2023 0.0000 0.0000 0.0000
# 4 0.0000 0.0000 0.0000 21.6993 0.0000 0.0000
# 5 0.0000 0.0000 0.0000 0.0000 18.3320 0.0000
# 6 0.0000 0.0000 0.0000 0.0000 0.0000 23.3582
#
#
#
# Elastic Compliance Matrix: (Units=1/GPa)
#
#
# Indices 1 2 3 4 5 6 
#
# 1 0.017590 -0.003761 0.000781 0.000000 0.000000 0.000000
# 2 -0.003761 0.008789 -0.001857 0.000000 0.000000 0.000000
# 3 0.000781 -0.001857 0.015273 0.000000 0.000000 0.000000
# 4 0.000000 0.000000 0.000000 0.046085 0.000000 0.000000
# 5 0.000000 0.000000 0.000000 0.000000 0.054550 0.000000
# 6 0.000000 0.000000 0.000000 0.000000 0.000000 0.042812
#
#
# Mechanical properties :
#
#
# Convention : Reuss Voigt Hill
#
# Bulk Modulus (GPa) = 31.27170 37.79580 34.53375
# Shear Modulus (GPa) = 24.33898 27.14134 25.74016
#
# Velocity S-wave (km/s) = 3.49290 3.68850 3.59203
# Velocity P-wave (km/s) = 5.65178 6.08982 5.87488
#
# Compressibility (1/GPa) = 0.03197779
#
# Stress axis : x y z
#
# Youngs Moduli (GPa) = 56.84900 113.77563 65.47653
#
# Poissons Ratio (x) = 0.42794 -0.05112
# Poissons Ratio (y) = 0.21383 0.12157
# Poissons Ratio (z) = -0.04438 0.21124
#
# Static dielectric constant tensor:
#      x y z
#    x 3.613110 0.000000 0.000000 
#    y 0.000000 4.462400 0.000000 
#    z 0.000000 0.000000 3.530380 
# 
# 
# High freq. dielectric constant tensor:
#      x y z
#    x 1.763710 0.000000 0.000000 
#    y 0.000000 1.790230 0.000000 
#    z 0.000000 0.000000 1.772830 
# 
# From -- ./inp_files/17084.got.cif
#   From: 2010.03.12/outbox.cif.g09.slc.cpg/sg42_9_cif.got.tgz:17084.got - 2010.04.14 02:04:31.
