data_PCOD8186199
_publ_section_title
;
Structure prediction by ZEFSAII (Michael W. Deem and Ramdas Pophale) SiO2 
 PCOD8186199
Probable space group: F M M 2
;
_chemical_formula_sum "Si O2"
_cell_formula_units_Z 128
_cell_length_a 22.723763
_cell_length_b 26.259953
_cell_length_c 10.996283
_cell_angle_alpha 90.000000
_cell_angle_beta 90.000000
_cell_angle_gamma 90.000000
_cell_volume 6561.756405
_symmetry_space_group_name_H-M "F M M 2"
_symmetry_group_IT_number 42
_symmetry_cell_setting 'orthorhombic'
loop_
_space_group_symop_operation_xyz
x,y,z
-x,-y,z
-x,y,z
x,-y,z
x,1/2+y,1/2+z
-x,1/2-y,1/2+z
-x,1/2+y,1/2+z
x,1/2-y,1/2+z
1/2+x,y,1/2+z
1/2-x,-y,1/2+z
1/2-x,y,1/2+z
1/2+x,-y,1/2+z
1/2+x,1/2+y,z
1/2-x,1/2-y,z
1/2-x,1/2+y,z
1/2+x,1/2-y,z
loop_
_atom_site_type_symbol
_atom_site_label
_atom_site_fract_x
_atom_site_fract_y
_atom_site_fract_z
Si Si1 0.203142 0.678950 0.340530
Si Si2 0.177436 0.133819 0.286866
Si Si3 0.431200 0.279037 0.588217
Si Si4 0.380283 0.620626 0.667597
Si Si5 0.796464 0.941694 0.496553
Si Si6 0.066293 0.940484 0.867767
Si Si7 0.173537 0.899530 0.025123
Si Si8 0.122651 0.265781 0.836071
O O1 0.263263 0.667205 0.270166
O O2 0.149382 0.653424 0.271684
O O3 0.202295 0.652672 0.473070
O O4 0.187284 0.738934 0.348977
O O5 0.186789 0.085212 0.371164
O O6 0.154323 0.111255 0.161627
O O7 0.129260 0.173203 0.337221
O O8 0.500000 0.275198 0.598794
O O9 0.411970 0.338507 0.580173
O O10 0.412416 0.251800 0.460780
O O11 0.406906 0.250932 0.709005
O O12 0.330995 0.586613 0.603355
O O13 0.427143 0.583915 0.733551
O O14 0.726208 0.940851 0.519596
O O15 0.817147 0.000000 0.489902
O O16 0.000000 0.928696 0.915538
O O17 0.076810 0.000000 0.853967
O O18 0.114867 0.918790 0.959613
#
# Coordination Sequence:
#
# PCOD8186199 Si02
#       8
#    16  16  16  16  16  16  16  16
#     4   9  20  35  58  86 121 156 197 246 303 379
#     4  11  21  38  57  91 123 159 198 249 316 384
#     4  11  23  40  61  88 123 164 212 260 313 379
#     4  10  19  39  58  88 118 158 206 257 311 359
#     4  11  22  36  59  89 125 164 204 254 314 377
#     4  10  21  38  62  89 118 162 216 264 311 369
#     4  10  21  38  58  88 126 160 204 257 318 373
#     4  11  22  38  62  90 121 163 207 256 316 376
#
# _framework density 19.506972000000001
#
# number of rings (size 3 to 8) (size 9 to 14) (size 15 to 20)
#    0.000    1.625    2.500    2.625    0.000    1.000 
#    0.000    8.125    0.000    0.000    0.000    0.000 
#    0.000    0.000    0.000    0.000    0.000    0.000 
#
# Total GULP energy -396622.066830 kJ/mol
# GULP energy per Si atom -12394.439588 kJ/mol
# Density = 1.946257 g / cm^3
# Si number density = 19.506972 Si / 1000 Ang^3
#
#
#
# Elastic Constant Matrix: (Units=GPa)
#
#
# Indices 1 2 3 4 5 6 
#
# 1 89.0680 17.3161 26.0175 0.0000 0.0000 0.0000
# 2 17.3161 86.4437 26.9792 0.0000 0.0000 0.0000
# 3 26.0175 26.9792 109.0135 0.0000 0.0000 0.0000
# 4 0.0000 0.0000 0.0000 18.0786 0.0000 0.0000
# 5 0.0000 0.0000 0.0000 0.0000 28.9240 0.0000
# 6 0.0000 0.0000 0.0000 0.0000 0.0000 25.8427
#
#
#
# Elastic Compliance Matrix: (Units=1/GPa)
#
#
# Indices 1 2 3 4 5 6 
#
# 1 0.012289 -0.001676 -0.002518 0.000000 0.000000 0.000000
# 2 -0.001676 0.012765 -0.002759 0.000000 0.000000 0.000000
# 3 -0.002518 -0.002759 0.010457 0.000000 0.000000 0.000000
# 4 0.000000 0.000000 0.000000 0.055314 0.000000 0.000000
# 5 0.000000 0.000000 0.000000 0.000000 0.034573 0.000000
# 6 0.000000 0.000000 0.000000 0.000000 0.000000 0.038696
#
#
# Mechanical properties :
#
#
# Convention : Reuss Voigt Hill
#
# Bulk Modulus (GPa) = 46.28638 47.23898 46.76268
# Shear Modulus (GPa) = 26.99760 28.84988 27.92374
#
# Velocity S-wave (km/s) = 3.72425 3.84989 3.78759
# Velocity P-wave (km/s) = 6.50177 6.63560 6.56903
#
# Compressibility (1/GPa) = 0.02160463
#
# Stress axis : x y z
#
# Youngs Moduli (GPa) = 81.37536 78.33886 95.62943
#
# Poissons Ratio (x) = 0.13127 0.24081
# Poissons Ratio (y) = 0.13636 0.26386
# Poissons Ratio (z) = 0.20492 0.21615
#
# Static dielectric constant tensor:
#      x y z
#    x 3.441350 0.000000 0.000000 
#    y 0.000000 3.762230 0.000000 
#    z 0.000000 0.000000 3.606000 
# 
# 
# High freq. dielectric constant tensor:
#      x y z
#    x 1.749050 0.000000 0.000000 
#    y 0.000000 1.762210 0.000000 
#    z 0.000000 0.000000 1.760440 
# 
# From -- ./inp_files/10382.got.cif
#   From: 2010.03.12/outbox.cif.g09.slc.cpg/sg42_6_cif.got.tgz:10382.got - 2010.04.14 02:04:31.
