data_PCOD8186404
_publ_section_title
;
Structure prediction by ZEFSAII (Michael W. Deem and Ramdas Pophale) SiO2 
 PCOD8186404
Probable space group: F M M 2
;
_chemical_formula_sum "Si O2"
_cell_formula_units_Z 80
_cell_length_a 24.576049
_cell_length_b 15.524216
_cell_length_c 9.776971
_cell_angle_alpha 90.000000
_cell_angle_beta 90.000000
_cell_angle_gamma 90.000000
_cell_volume 3730.148039
_symmetry_space_group_name_H-M "F M M 2"
_symmetry_group_IT_number 42
_symmetry_cell_setting 'orthorhombic'
loop_
_space_group_symop_operation_xyz
x,y,z
-x,-y,z
-x,y,z
x,-y,z
x,1/2+y,1/2+z
-x,1/2-y,1/2+z
-x,1/2+y,1/2+z
x,1/2-y,1/2+z
1/2+x,y,1/2+z
1/2-x,-y,1/2+z
1/2-x,y,1/2+z
1/2+x,-y,1/2+z
1/2+x,1/2+y,z
1/2-x,1/2-y,z
1/2-x,1/2+y,z
1/2+x,1/2-y,z
loop_
_atom_site_type_symbol
_atom_site_label
_atom_site_fract_x
_atom_site_fract_y
_atom_site_fract_z
Si Si1 0.000000 0.396666 0.631390
Si Si2 0.400926 0.398432 0.628372
Si Si3 0.592730 0.899637 0.438183
Si Si4 0.500000 0.897670 0.942087
Si Si5 0.281548 0.164167 0.129178
Si Si6 0.288886 0.403828 0.914018
O O1 0.051719 0.357689 0.548526
O O2 0.000000 0.361403 0.787024
O O3 0.000000 0.500000 0.633568
O O4 0.387473 0.500000 0.609198
O O5 0.445706 0.365455 0.519902
O O6 0.346520 0.340989 0.606077
O O7 0.424360 0.381495 0.780779
O O8 0.653640 0.863764 0.465191
O O9 0.590469 0.000000 0.468917
O O10 0.500000 0.000000 0.944228
O O11 0.250000 0.250000 0.078966
O O12 0.265866 0.150036 0.286623
O O13 0.254922 0.091056 0.034197
O O14 0.301004 0.500000 0.859019
#
# Coordination Sequence:
#
# PCOD8186404 Si02
#       6
#     8  16  16   8  16  16
#     4   9  15  25  43  76 111 136 169 228 292 337
#     4   9  17  32  52  77 110 153 195 233 283 352
#     4   8  15  27  46  69  99 137 180 223 271 330
#     4   9  17  27  47  80 115 146 186 240 294 339
#     4  11  22  36  55  82 116 151 189 237 291 346
#     4  10  20  36  56  80 109 150 197 240 284 342
#
# _framework density 21.446871000000002
#
# number of rings (size 3 to 8) (size 9 to 14) (size 15 to 20)
#    0.000    2.600    0.000    4.200    0.000    4.000 
#    0.000    4.000    0.000    1.200    0.000    4.200 
#    0.000    0.000    0.000    0.000    0.000    0.000 
#
# Total GULP energy -247852.333379 kJ/mol
# GULP energy per Si atom -12392.616669 kJ/mol
# Density = 2.139806 g / cm^3
# Si number density = 21.446871 Si / 1000 Ang^3
#
#
#
# Elastic Constant Matrix: (Units=GPa)
#
#
# Indices 1 2 3 4 5 6 
#
# 1 150.6995 24.0310 106.4120 0.0000 0.0000 0.0000
# 2 24.0310 33.8138 8.5711 0.0000 0.0000 0.0000
# 3 106.4120 8.5711 167.3429 0.0000 0.0000 0.0000
# 4 0.0000 0.0000 0.0000 14.1644 0.0000 0.0000
# 5 0.0000 0.0000 0.0000 0.0000 46.5989 0.0000
# 6 0.0000 0.0000 0.0000 0.0000 0.0000 21.7150
#
#
#
# Elastic Compliance Matrix: (Units=1/GPa)
#
#
# Indices 1 2 3 4 5 6 
#
# 1 0.013757 -0.007659 -0.008356 0.000000 0.000000 0.000000
# 2 -0.007659 0.034227 0.003117 0.000000 0.000000 0.000000
# 3 -0.008356 0.003117 0.011130 0.000000 0.000000 0.000000
# 4 0.000000 0.000000 0.000000 0.070599 0.000000 0.000000
# 5 0.000000 0.000000 0.000000 0.000000 0.021460 0.000000
# 6 0.000000 0.000000 0.000000 0.000000 0.000000 0.046051
#
#
# Mechanical properties :
#
#
# Convention : Reuss Voigt Hill
#
# Bulk Modulus (GPa) = 30.01351 69.98715 50.00033
# Shear Modulus (GPa) = 21.35608 30.68514 26.02061
#
# Velocity S-wave (km/s) = 3.15900 3.78663 3.48697
# Velocity P-wave (km/s) = 5.22785 7.19873 6.29095
#
# Compressibility (1/GPa) = 0.03331833
#
# Stress axis : x y z
#
# Youngs Moduli (GPa) = 72.68852 29.21683 89.85110
#
# Poissons Ratio (x) = 0.22378 0.75079
# Poissons Ratio (y) = 0.55673 -0.28010
# Poissons Ratio (z) = 0.60738 -0.09108
#
# Static dielectric constant tensor:
#      x y z
#    x 3.982780 0.000000 0.000000 
#    y 0.000000 3.246720 0.000000 
#    z 0.000000 0.000000 3.872720 
# 
# 
# High freq. dielectric constant tensor:
#      x y z
#    x 1.847540 0.000000 0.000000 
#    y 0.000000 1.797010 0.000000 
#    z 0.000000 0.000000 1.844000 
# 
# From -- ./inp_files/5123.got.cif
#   From: 2010.03.12/outbox.cif.g09.slc.cpg/sg42_3_cif.got.tgz:5123.got - 2010.04.14 02:04:31.
