data_PCOD8186473
_publ_section_title
;
Structure prediction by ZEFSAII (Michael W. Deem and Ramdas Pophale) SiO2 
 PCOD8186473
Probable space group: F M M 2
;
_chemical_formula_sum "Si O2"
_cell_formula_units_Z 80
_cell_length_a 9.170480
_cell_length_b 22.616514
_cell_length_c 20.004128
_cell_angle_alpha 90.000000
_cell_angle_beta 90.000000
_cell_angle_gamma 90.000000
_cell_volume 4148.941951
_symmetry_space_group_name_H-M "F M M 2"
_symmetry_group_IT_number 42
_symmetry_cell_setting 'orthorhombic'
loop_
_space_group_symop_operation_xyz
x,y,z
-x,-y,z
-x,y,z
x,-y,z
x,1/2+y,1/2+z
-x,1/2-y,1/2+z
-x,1/2+y,1/2+z
x,1/2-y,1/2+z
1/2+x,y,1/2+z
1/2-x,-y,1/2+z
1/2-x,y,1/2+z
1/2+x,-y,1/2+z
1/2+x,1/2+y,z
1/2-x,1/2-y,z
1/2-x,1/2+y,z
1/2+x,1/2-y,z
loop_
_atom_site_type_symbol
_atom_site_label
_atom_site_fract_x
_atom_site_fract_y
_atom_site_fract_z
Si Si1 0.668188 0.191975 0.330720
Si Si2 0.831443 0.189330 0.577880
Si Si3 0.669789 0.124877 0.943073
Si Si4 0.173082 0.500000 0.738160
Si Si5 0.832040 0.114327 0.702739
Si Si6 0.327554 0.000000 0.890450
O O1 0.500000 0.207187 0.343631
O O2 0.750000 0.250000 0.304660
O O3 0.739387 0.170776 0.399332
O O4 0.688253 0.141976 0.275453
O O5 0.750000 0.250000 0.562716
O O6 0.802515 0.141376 0.519890
O O7 0.776131 0.160280 0.646823
O O8 0.000000 0.205934 0.583076
O O9 0.500000 0.130487 0.923423
O O10 0.727785 0.058235 0.929718
O O11 0.232936 0.556528 0.698791
O O12 0.232466 0.500000 0.814522
O O13 0.000000 0.500000 0.735550
O O14 0.000000 0.097086 0.688986
O O15 0.500000 0.000000 0.888440
#
# Coordination Sequence:
#
# PCOD8186473 Si02
#       6
#    16  16  16   8  16   8
#     4  11  22  35  55  82 113 149 192 239 287 338
#     4  10  22  39  60  84 116 155 192 236 287 340
#     4  10  20  37  60  85 114 150 192 236 285 339
#     4  11  21  36  61  89 117 150 190 239 287 337
#     4  10  22  39  58  84 116 152 191 235 288 341
#     4   9  18  34  57  85 115 146 186 231 281 337
#
# _framework density 19.282024
#
# number of rings (size 3 to 8) (size 9 to 14) (size 15 to 20)
#    0.000    1.800    2.000    2.100    0.000    4.800 
#    0.000    3.500    0.000    0.000    0.000    0.000 
#    0.000    0.000    0.000    0.000    0.000    0.000 
#
# Total GULP energy -248085.893119 kJ/mol
# GULP energy per Si atom -12404.294656 kJ/mol
# Density = 1.923814 g / cm^3
# Si number density = 19.282024 Si / 1000 Ang^3
#
#
#
# Elastic Constant Matrix: (Units=GPa)
#
#
# Indices 1 2 3 4 5 6 
#
# 1 77.4124 50.2352 29.7792 0.0000 0.0000 0.0000
# 2 50.2352 125.2780 26.6599 0.0000 0.0000 0.0000
# 3 29.7792 26.6599 84.2319 0.0000 0.0000 0.0000
# 4 0.0000 0.0000 0.0000 34.1456 0.0000 0.0000
# 5 0.0000 0.0000 0.0000 0.0000 25.3160 0.0000
# 6 0.0000 0.0000 0.0000 0.0000 0.0000 33.6669
#
#
#
# Elastic Compliance Matrix: (Units=1/GPa)
#
#
# Indices 1 2 3 4 5 6 
#
# 1 0.019001 -0.006636 -0.004617 0.000000 0.000000 0.000000
# 2 -0.006636 0.010877 -0.001096 0.000000 0.000000 0.000000
# 3 -0.004617 -0.001096 0.013851 0.000000 0.000000 0.000000
# 4 0.000000 0.000000 0.000000 0.029286 0.000000 0.000000
# 5 0.000000 0.000000 0.000000 0.000000 0.039501 0.000000
# 6 0.000000 0.000000 0.000000 0.000000 0.000000 0.029703
#
#
# Mechanical properties :
#
#
# Convention : Reuss Voigt Hill
#
# Bulk Modulus (GPa) = 52.55127 55.58565 54.06846
# Shear Modulus (GPa) = 28.85826 30.64224 29.75025
#
# Velocity S-wave (km/s) = 3.87284 3.99075 3.93224
# Velocity P-wave (km/s) = 6.87835 7.07991 6.97986
#
# Compressibility (1/GPa) = 0.01902903
#
# Stress axis : x y z
#
# Youngs Moduli (GPa) = 52.63019 91.93958 72.19573
#
# Poissons Ratio (x) = 0.61016 0.33332
# Poissons Ratio (y) = 0.34928 0.07915
# Poissons Ratio (z) = 0.24299 0.10079
#
# Static dielectric constant tensor:
#      x y z
#    x 3.403440 0.000000 0.000000 
#    y 0.000000 3.637510 0.000000 
#    z 0.000000 0.000000 3.502310 
# 
# 
# High freq. dielectric constant tensor:
#      x y z
#    x 1.736850 0.000000 0.000000 
#    y 0.000000 1.760890 0.000000 
#    z 0.000000 0.000000 1.751000 
# 
# From -- ./inp_files/23473.got.cif
#   From: 2010.03.12/outbox.cif.g09.slc.cpg/sg42_12_cif.got.tgz:23473.got - 2010.04.14 02:04:31.
