data_PCOD8186038
_publ_section_title
;
Structure prediction by ZEFSAII (Michael W. Deem and Ramdas Pophale) SiO2 
 PCOD8186038
Probable space group: F M M 2
;
_chemical_formula_sum "Si O2"
_cell_formula_units_Z 128
_cell_length_a 16.881037
_cell_length_b 18.345151
_cell_length_c 23.281594
_cell_angle_alpha 90.000000
_cell_angle_beta 90.000000
_cell_angle_gamma 90.000000
_cell_volume 7209.964461
_symmetry_space_group_name_H-M "F M M 2"
_symmetry_group_IT_number 42
_symmetry_cell_setting 'orthorhombic'
loop_
_space_group_symop_operation_xyz
x,y,z
-x,-y,z
-x,y,z
x,-y,z
x,1/2+y,1/2+z
-x,1/2-y,1/2+z
-x,1/2+y,1/2+z
x,1/2-y,1/2+z
1/2+x,y,1/2+z
1/2-x,-y,1/2+z
1/2-x,y,1/2+z
1/2+x,-y,1/2+z
1/2+x,1/2+y,z
1/2-x,1/2-y,z
1/2-x,1/2+y,z
1/2+x,1/2-y,z
loop_
_atom_site_type_symbol
_atom_site_label
_atom_site_fract_x
_atom_site_fract_y
_atom_site_fract_z
Si Si1 0.905585 0.079697 0.860940
Si Si2 0.327413 0.914520 0.615804
Si Si3 0.905360 0.716830 0.427658
Si Si4 0.593453 0.284759 0.056994
Si Si5 0.808348 0.686756 0.141705
Si Si6 0.591635 0.582512 0.237336
Si Si7 0.089349 0.300922 0.821586
Si Si8 0.089394 0.343631 0.249072
O O1 0.873058 0.137842 0.907122
O O2 0.878033 0.099356 0.796264
O O3 0.000000 0.081407 0.861510
O O4 0.872437 0.000000 0.877397
O O5 0.383285 0.867714 0.573410
O O6 0.239556 0.879941 0.612434
O O7 0.359395 0.903455 0.679944
O O8 0.327464 0.000000 0.597768
O O9 0.876846 0.731439 0.492136
O O10 0.871060 0.777869 0.382791
O O11 0.000000 0.716655 0.423191
O O12 0.500000 0.276777 0.062739
O O13 0.633135 0.222989 0.095684
O O14 0.750000 0.750000 0.164676
O O15 0.856029 0.651605 0.193629
O O16 0.500000 0.604254 0.225000
O O17 0.598627 0.500000 0.257910
O O18 0.629646 0.630482 0.289196
O O19 0.092355 0.235843 0.776421
O O20 0.000000 0.323911 0.835533
O O21 0.000000 0.362830 0.230152
#
# Coordination Sequence:
#
# PCOD8186038 Si02
#       8
#    16  16  16  16  16  16  16  16
#     4   8  14  25  42  68  98 119 141 182 235 287
#     4  10  21  34  48  70 102 134 161 195 243 295
#     4   8  15  26  43  69  95 119 149 190 240 282
#     4  10  19  32  52  75  96 123 165 210 243 277
#     4  10  20  32  47  67  95 130 164 199 242 287
#     4   9  16  27  47  74  99 123 153 191 237 289
#     4   8  13  24  43  68  97 120 144 189 243 287
#     4   9  16  27  46  69  90 119 157 193 232 278
#
# _framework density 17.753208000000001
#
# number of rings (size 3 to 8) (size 9 to 14) (size 15 to 20)
#    0.000    3.000    0.000    3.750    0.000    2.750 
#    0.000    1.250    0.000   19.875    0.000    5.250 
#    0.000    0.000    0.000    0.000    0.000    0.000 
#
# Total GULP energy -396542.662360 kJ/mol
# GULP energy per Si atom -12391.958199 kJ/mol
# Density = 1.771280 g / cm^3
# Si number density = 17.753208 Si / 1000 Ang^3
#
#
#
# Elastic Constant Matrix: (Units=GPa)
#
#
# Indices 1 2 3 4 5 6 
#
# 1 51.1467 20.7278 28.1722 0.0000 0.0000 0.0000
# 2 20.7278 82.5483 37.5634 0.0000 0.0000 0.0000
# 3 28.1722 37.5634 100.4863 0.0000 0.0000 0.0000
# 4 0.0000 0.0000 0.0000 21.9158 0.0000 0.0000
# 5 0.0000 0.0000 0.0000 0.0000 -1.3538 0.0000
# 6 0.0000 0.0000 0.0000 0.0000 0.0000 16.0025
#
#
#
# Elastic Compliance Matrix: (Units=1/GPa)
#
#
# Indices 1 2 3 4 5 6 
#
# 1 0.023963 -0.003567 -0.005385 0.000000 0.000000 0.000000
# 2 -0.003567 0.015128 -0.004655 0.000000 0.000000 0.000000
# 3 -0.005385 -0.004655 0.013202 0.000000 0.000000 0.000000
# 4 0.000000 0.000000 0.000000 0.045629 0.000000 0.000000
# 5 0.000000 0.000000 0.000000 0.000000 -0.738672 0.000000
# 6 0.000000 0.000000 0.000000 0.000000 0.000000 0.062490
#
#
# Mechanical properties :
#
#
# Convention : Reuss Voigt Hill
#
# Bulk Modulus (GPa) = 39.87394 45.23423 42.55409
# Shear Modulus (GPa) = -9.21342 17.16077 3.97367
#
# Velocity S-wave (km/s) = -2.28057 3.11244 1.49771
# Velocity P-wave (km/s) = 3.94642 6.20090 5.19737
#
# Compressibility (1/GPa) = 0.02507903
#
# Stress axis : x y z
#
# Youngs Moduli (GPa) = 41.73071 66.10249 75.74895
#
# Poissons Ratio (x) = 0.23577 0.40791
# Poissons Ratio (y) = 0.14884 0.35262
# Poissons Ratio (z) = 0.22472 0.30772
#
# Static dielectric constant tensor:
#      x y z
#    x 3.022230 0.000000 0.000000 
#    y 0.000000 3.424750 0.000000 
#    z 0.000000 0.000000 3.364430 
# 
# 
# High freq. dielectric constant tensor:
#      x y z
#    x 1.652860 0.000000 0.000000 
#    y 0.000000 1.681390 0.000000 
#    z 0.000000 0.000000 1.679880 
# 
# From -- ./inp_files/30007.got.cif
#   From: 2010.03.12/outbox.cif.g09.slc.cpg/sg42_16_cif.got.tgz:30007.got - 2010.04.14 02:04:31.
