data_PCOD8186791
_publ_section_title
;
Structure prediction by ZEFSAII (Michael W. Deem and Ramdas Pophale) SiO2 
 PCOD8186791
Probable space group: F M M 2
;
_chemical_formula_sum "Si O2"
_cell_formula_units_Z 80
_cell_length_a 15.615213
_cell_length_b 8.782321
_cell_length_c 28.803067
_cell_angle_alpha 90.000000
_cell_angle_beta 90.000000
_cell_angle_gamma 90.000000
_cell_volume 3949.989617
_symmetry_space_group_name_H-M "F M M 2"
_symmetry_group_IT_number 42
_symmetry_cell_setting 'orthorhombic'
loop_
_space_group_symop_operation_xyz
x,y,z
-x,-y,z
-x,y,z
x,-y,z
x,1/2+y,1/2+z
-x,1/2-y,1/2+z
-x,1/2+y,1/2+z
x,1/2-y,1/2+z
1/2+x,y,1/2+z
1/2-x,-y,1/2+z
1/2-x,y,1/2+z
1/2+x,-y,1/2+z
1/2+x,1/2+y,z
1/2-x,1/2-y,z
1/2-x,1/2+y,z
1/2+x,1/2-y,z
loop_
_atom_site_type_symbol
_atom_site_label
_atom_site_fract_x
_atom_site_fract_y
_atom_site_fract_z
Si Si1 0.594534 0.680191 0.337280
Si Si2 0.398777 0.324901 0.439029
Si Si3 0.663102 0.322100 0.029598
Si Si4 0.161824 0.819250 0.240487
Si Si5 0.500000 0.180630 0.589045
Si Si6 0.000000 0.319679 0.189150
O O1 0.500000 0.750696 0.328916
O O2 0.585192 0.500000 0.338557
O O3 0.630640 0.732303 0.387566
O O4 0.654361 0.730957 0.294629
O O5 0.500000 0.301640 0.444009
O O6 0.373552 0.500000 0.447488
O O7 0.349316 0.223658 0.476110
O O8 0.673216 0.500000 0.032617
O O9 0.750000 0.250000 0.049888
O O10 0.583057 0.267154 0.060158
O O11 0.250000 0.750000 0.220940
O O12 0.084036 0.750805 0.211908
O O13 0.161395 0.000000 0.234155
O O14 0.500000 0.276765 0.635536
O O15 0.500000 0.000000 0.599104
O O16 0.000000 0.500000 0.195659
#
# Coordination Sequence:
#
# PCOD8186791 Si02
#       6
#    16  16  16  16   8   8
#     4   8  15  31  57  87 120 163 205 244 294 350
#     4   9  17  32  58  89 123 162 204 245 292 351
#     4  11  23  40  62  90 123 158 201 247 299 358
#     4  11  22  40  65  92 127 165 205 253 304 361
#     4  10  24  46  67  86 117 157 196 251 313 366
#     4  12  26  44  67  94 121 155 202 253 313 376
#
# _framework density 20.253218
#
# number of rings (size 3 to 8) (size 9 to 14) (size 15 to 20)
#    0.000    2.000    2.000    3.300    0.000    3.200 
#    0.000    6.000    0.000    0.000    0.000    0.000 
#    0.000    0.000    0.000    0.000    0.000    0.000 
#
# Total GULP energy -247975.091753 kJ/mol
# GULP energy per Si atom -12398.754588 kJ/mol
# Density = 2.020712 g / cm^3
# Si number density = 20.253218 Si / 1000 Ang^3
#
#
#
# Elastic Constant Matrix: (Units=GPa)
#
#
# Indices 1 2 3 4 5 6 
#
# 1 158.8757 56.9253 71.8374 0.0000 0.0000 0.0000
# 2 56.9253 80.6567 50.8392 0.0000 0.0000 0.0000
# 3 71.8374 50.8392 128.6659 0.0000 0.0000 0.0000
# 4 0.0000 0.0000 0.0000 29.6249 0.0000 0.0000
# 5 0.0000 0.0000 0.0000 0.0000 1.7072 0.0000
# 6 0.0000 0.0000 0.0000 0.0000 0.0000 29.4187
#
#
#
# Elastic Compliance Matrix: (Units=1/GPa)
#
#
# Indices 1 2 3 4 5 6 
#
# 1 0.009495 -0.004474 -0.003533 0.000000 0.000000 0.000000
# 2 -0.004474 0.018618 -0.004859 0.000000 0.000000 0.000000
# 3 -0.003533 -0.004859 0.011665 0.000000 0.000000 0.000000
# 4 0.000000 0.000000 0.000000 0.033755 0.000000 0.000000
# 5 0.000000 0.000000 0.000000 0.000000 0.585769 0.000000
# 6 0.000000 0.000000 0.000000 0.000000 0.000000 0.033992
#
#
# Mechanical properties :
#
#
# Convention : Reuss Voigt Hill
#
# Bulk Modulus (GPa) = 71.19624 80.82249 76.00936
# Shear Modulus (GPa) = 6.90886 24.72326 15.81606
#
# Velocity S-wave (km/s) = 1.84896 3.49765 2.79752
# Velocity P-wave (km/s) = 6.30774 7.50360 6.93151
#
# Compressibility (1/GPa) = 0.01404569
#
# Stress axis : x y z
#
# Youngs Moduli (GPa) = 105.31856 53.71036 85.72916
#
# Poissons Ratio (x) = 0.24031 0.30292
# Poissons Ratio (y) = 0.47121 0.41652
# Poissons Ratio (z) = 0.37214 0.26096
#
# Static dielectric constant tensor:
#      x y z
#    x 3.772700 0.000000 0.000000 
#    y 0.000000 3.417290 0.000000 
#    z 0.000000 0.000000 3.894670 
# 
# 
# High freq. dielectric constant tensor:
#      x y z
#    x 1.795000 0.000000 0.000000 
#    y 0.000000 1.771000 0.000000 
#    z 0.000000 0.000000 1.794960 
# 
# From -- ./inp_files/32770.got.cif
#   From: 2010.03.12/outbox.cif.g09.slc.cpg/sg42_17_cif.got.tgz:32770.got - 2010.04.14 02:04:31.
