data_PCOD8186347
_publ_section_title
;
Structure prediction by ZEFSAII (Michael W. Deem and Ramdas Pophale) SiO2 
 PCOD8186347
Probable space group: F M M 2
;
_chemical_formula_sum "Si O2"
_cell_formula_units_Z 80
_cell_length_a 9.096030
_cell_length_b 25.686392
_cell_length_c 18.064141
_cell_angle_alpha 90.000000
_cell_angle_beta 90.000000
_cell_angle_gamma 90.000000
_cell_volume 4220.581632
_symmetry_space_group_name_H-M "F M M 2"
_symmetry_group_IT_number 42
_symmetry_cell_setting 'orthorhombic'
loop_
_space_group_symop_operation_xyz
x,y,z
-x,-y,z
-x,y,z
x,-y,z
x,1/2+y,1/2+z
-x,1/2-y,1/2+z
-x,1/2+y,1/2+z
x,1/2-y,1/2+z
1/2+x,y,1/2+z
1/2-x,-y,1/2+z
1/2-x,y,1/2+z
1/2+x,-y,1/2+z
1/2+x,1/2+y,z
1/2-x,1/2-y,z
1/2-x,1/2+y,z
1/2+x,1/2-y,z
loop_
_atom_site_type_symbol
_atom_site_label
_atom_site_fract_x
_atom_site_fract_y
_atom_site_fract_z
Si Si1 0.827015 0.802849 0.383210
Si Si2 0.170375 0.602364 0.309113
Si Si3 0.674298 0.000000 0.559864
Si Si4 0.171240 0.301936 0.053151
Si Si5 0.325792 0.500000 0.891862
Si Si6 0.669505 0.595031 0.635558
O O1 0.750000 0.750000 0.356316
O O2 0.766966 0.849080 0.333329
O O3 0.786030 0.814408 0.468459
O O4 0.000000 0.797184 0.371255
O O5 0.232933 0.551471 0.350727
O O6 0.192479 0.593545 0.222672
O O7 0.000000 0.612884 0.328769
O O8 0.731710 0.949051 0.600028
O O9 0.500000 0.000000 0.562548
O O10 0.732437 0.000000 0.475654
O O11 0.250000 0.250000 0.082006
O O12 0.223800 0.349742 0.103693
O O13 0.000000 0.291686 0.061866
O O14 0.500000 0.500000 0.887619
O O15 0.500000 0.584946 0.614076
#
# Coordination Sequence:
#
# PCOD8186347 Si02
#       6
#    16  16   8  16   8  16
#     4  10  20  35  55  79 108 141 179 222 264 311
#     4  10  20  36  57  79 107 142 177 216 265 320
#     4  11  22  35  55  81 106 137 180 224 262 309
#     4   9  19  35  55  79 106 140 181 221 264 313
#     4   9  19  35  55  79 106 139 178 218 266 319
#     4  10  21  37  56  79 109 143 176 215 268 322
#
# _framework density 18.954732
#
# number of rings (size 3 to 8) (size 9 to 14) (size 15 to 20)
#    0.000    2.200    0.000    2.700    0.000    4.800 
#    0.000    3.500    0.000    0.000    0.000    0.000 
#    0.000    0.000    0.000    0.000    0.000    0.000 
#
# Total GULP energy -248085.507507 kJ/mol
# GULP energy per Si atom -12404.275375 kJ/mol
# Density = 1.891159 g / cm^3
# Si number density = 18.954732 Si / 1000 Ang^3
#
#
#
# Elastic Constant Matrix: (Units=GPa)
#
#
# Indices 1 2 3 4 5 6 
#
# 1 69.1811 63.4696 45.9790 0.0000 0.0000 0.0000
# 2 63.4696 167.6288 72.5962 0.0000 0.0000 0.0000
# 3 45.9790 72.5962 97.9252 0.0000 0.0000 0.0000
# 4 0.0000 0.0000 0.0000 42.8195 0.0000 0.0000
# 5 0.0000 0.0000 0.0000 0.0000 22.8537 0.0000
# 6 0.0000 0.0000 0.0000 0.0000 0.0000 37.8684
#
#
#
# Elastic Compliance Matrix: (Units=1/GPa)
#
#
# Indices 1 2 3 4 5 6 
#
# 1 0.024996 -0.006453 -0.006952 0.000000 0.000000 0.000000
# 2 -0.006453 0.010453 -0.004719 0.000000 0.000000 0.000000
# 3 -0.006952 -0.004719 0.016975 0.000000 0.000000 0.000000
# 4 0.000000 0.000000 0.000000 0.023354 0.000000 0.000000
# 5 0.000000 0.000000 0.000000 0.000000 0.043757 0.000000
# 6 0.000000 0.000000 0.000000 0.000000 0.000000 0.026407
#
#
# Mechanical properties :
#
#
# Convention : Reuss Voigt Hill
#
# Bulk Modulus (GPa) = 61.82743 77.64718 69.73730
# Shear Modulus (GPa) = 26.65508 30.88767 28.77138
#
# Velocity S-wave (km/s) = 3.75407 4.04115 3.90025
# Velocity P-wave (km/s) = 7.17495 7.92641 7.56002
#
# Compressibility (1/GPa) = 0.01617405
#
# Stress axis : x y z
#
# Youngs Moduli (GPa) = 40.00641 95.66892 58.91186
#
# Poissons Ratio (x) = 0.61739 0.40957
# Poissons Ratio (y) = 0.25818 0.27800
# Poissons Ratio (z) = 0.27813 0.45146
#
# Static dielectric constant tensor:
#      x y z
#    x 3.356060 0.000000 0.000000 
#    y 0.000000 3.506230 0.000000 
#    z 0.000000 0.000000 3.530430 
# 
# 
# High freq. dielectric constant tensor:
#      x y z
#    x 1.724030 0.000000 0.000000 
#    y 0.000000 1.751930 0.000000 
#    z 0.000000 0.000000 1.740270 
# 
# From -- ./inp_files/18221.got.cif
#   From: 2010.03.12/outbox.cif.g09.slc.cpg/sg42_10_cif.got.tgz:18221.got - 2010.04.14 02:04:31.
