data_PCOD8186448
_publ_section_title
;
Structure prediction by ZEFSAII (Michael W. Deem and Ramdas Pophale) SiO2 
 PCOD8186448
Probable space group: F M M 2
;
_chemical_formula_sum "Si O2"
_cell_formula_units_Z 96
_cell_length_a 25.343382
_cell_length_b 8.689750
_cell_length_c 23.340578
_cell_angle_alpha 90.000000
_cell_angle_beta 90.000000
_cell_angle_gamma 90.000000
_cell_volume 5140.240730
_symmetry_space_group_name_H-M "F M M 2"
_symmetry_group_IT_number 42
_symmetry_cell_setting 'orthorhombic'
loop_
_space_group_symop_operation_xyz
x,y,z
-x,-y,z
-x,y,z
x,-y,z
x,1/2+y,1/2+z
-x,1/2-y,1/2+z
-x,1/2+y,1/2+z
x,1/2-y,1/2+z
1/2+x,y,1/2+z
1/2-x,-y,1/2+z
1/2-x,y,1/2+z
1/2+x,-y,1/2+z
1/2+x,1/2+y,z
1/2-x,1/2-y,z
1/2-x,1/2+y,z
1/2+x,1/2-y,z
loop_
_atom_site_type_symbol
_atom_site_label
_atom_site_fract_x
_atom_site_fract_y
_atom_site_fract_z
Si Si1 0.000000 0.673578 0.289460
Si Si2 0.193378 0.682564 0.414525
Si Si3 0.694426 0.318876 0.292919
Si Si4 0.000000 0.676448 0.424639
Si Si5 0.406419 0.679662 0.222706
Si Si6 0.937985 0.679990 0.598094
Si Si7 0.899838 0.181109 0.484192
O O1 0.000000 0.686836 0.357109
O O2 0.052648 0.750523 0.266823
O O3 0.000000 0.500000 0.267989
O O4 0.196207 0.500000 0.412509
O O5 0.250000 0.750000 0.431479
O O6 0.175447 0.743627 0.352338
O O7 0.152582 0.735661 0.462475
O O8 0.700282 0.500000 0.302954
O O9 0.750000 0.250000 0.272364
O O10 0.652409 0.279268 0.243485
O O11 0.051159 0.761270 0.447497
O O12 0.000000 0.500000 0.446563
O O13 0.417295 0.500000 0.223012
O O14 0.415598 0.741689 0.158592
O O15 0.926318 0.500000 0.589171
O O16 0.907595 0.777073 0.550445
O O17 0.000000 0.714479 0.594619
O O18 0.893569 0.000000 0.476657
#
# Coordination Sequence:
#
# PCOD8186448 Si02
#       7
#     8  16  16   8  16  16  16
#     4  11  23  34  53  84 115 144 182 235 290 341
#     4  11  22  39  62  87 118 154 193 237 290 347
#     4  10  20  36  60  88 118 152 192 235 286 342
#     4  11  23  38  55  82 117 154 190 235 292 347
#     4  10  21  38  59  82 112 153 194 232 283 345
#     4  10  20  38  61  81 111 156 198 237 288 345
#     4  12  24  38  58  86 116 150 194 242 291 345
#
# _framework density 18.676168000000001
#
# number of rings (size 3 to 8) (size 9 to 14) (size 15 to 20)
#    0.000    1.333    1.667    6.000    0.000    6.000 
#    0.000    0.833    0.000    2.000    0.000    0.000 
#    0.000    0.000    0.000    0.000    0.000    0.000 
#
# Total GULP energy -297708.683582 kJ/mol
# GULP energy per Si atom -12404.528483 kJ/mol
# Density = 1.863366 g / cm^3
# Si number density = 18.676168 Si / 1000 Ang^3
#
#
#
# Elastic Constant Matrix: (Units=GPa)
#
#
# Indices 1 2 3 4 5 6 
#
# 1 113.8018 52.9429 57.7233 0.0000 0.0000 0.0000
# 2 52.9429 99.6320 34.3544 0.0000 0.0000 0.0000
# 3 57.7233 34.3544 92.2949 0.0000 0.0000 0.0000
# 4 0.0000 0.0000 0.0000 29.6875 0.0000 0.0000
# 5 0.0000 0.0000 0.0000 0.0000 33.2591 0.0000
# 6 0.0000 0.0000 0.0000 0.0000 0.0000 18.9945
#
#
#
# Elastic Compliance Matrix: (Units=1/GPa)
#
#
# Indices 1 2 3 4 5 6 
#
# 1 0.015082 -0.005463 -0.007399 0.000000 0.000000 0.000000
# 2 -0.005463 0.013494 -0.001606 0.000000 0.000000 0.000000
# 3 -0.007399 -0.001606 0.016060 0.000000 0.000000 0.000000
# 4 0.000000 0.000000 0.000000 0.033684 0.000000 0.000000
# 5 0.000000 0.000000 0.000000 0.000000 0.030067 0.000000
# 6 0.000000 0.000000 0.000000 0.000000 0.000000 0.052647
#
#
# Mechanical properties :
#
#
# Convention : Reuss Voigt Hill
#
# Bulk Modulus (GPa) = 63.69598 66.19665 64.94632
# Shear Modulus (GPa) = 25.61448 27.10210 26.35829
#
# Velocity S-wave (km/s) = 3.70740 3.81354 3.76085
# Velocity P-wave (km/s) = 7.24610 7.41028 7.32865
#
# Compressibility (1/GPa) = 0.01569958
#
# Stress axis : x y z
#
# Youngs Moduli (GPa) = 66.30598 74.10911 62.26614
#
# Poissons Ratio (x) = 0.40485 0.46070
# Poissons Ratio (y) = 0.36222 0.10000
# Poissons Ratio (z) = 0.49059 0.11902
#
# Static dielectric constant tensor:
#      x y z
#    x 3.452130 0.000000 0.000000 
#    y 0.000000 3.551350 0.000000 
#    z 0.000000 0.000000 3.546480 
# 
# 
# High freq. dielectric constant tensor:
#      x y z
#    x 1.729400 0.000000 0.000000 
#    y 0.000000 1.735150 0.000000 
#    z 0.000000 0.000000 1.728040 
# 
# From -- ./inp_files/30443.got.cif
#   From: 2010.03.12/outbox.cif.g09.slc.cpg/sg42_16_cif.got.tgz:30443.got - 2010.04.14 02:04:31.
