data_PCOD8186894
_publ_section_title
;
Structure prediction by ZEFSAII (Michael W. Deem and Ramdas Pophale) SiO2 
 PCOD8186894
Probable space group: F M M 2
;
_chemical_formula_sum "Si O2"
_cell_formula_units_Z 112
_cell_length_a 10.049564
_cell_length_b 35.031918
_cell_length_c 19.001042
_cell_angle_alpha 90.000000
_cell_angle_beta 90.000000
_cell_angle_gamma 90.000000
_cell_volume 6689.421380
_symmetry_space_group_name_H-M "F M M 2"
_symmetry_group_IT_number 42
_symmetry_cell_setting 'orthorhombic'
loop_
_space_group_symop_operation_xyz
x,y,z
-x,-y,z
-x,y,z
x,-y,z
x,1/2+y,1/2+z
-x,1/2-y,1/2+z
-x,1/2+y,1/2+z
x,1/2-y,1/2+z
1/2+x,y,1/2+z
1/2-x,-y,1/2+z
1/2-x,y,1/2+z
1/2+x,-y,1/2+z
1/2+x,1/2+y,z
1/2-x,1/2-y,z
1/2-x,1/2+y,z
1/2+x,1/2-y,z
loop_
_atom_site_type_symbol
_atom_site_label
_atom_site_fract_x
_atom_site_fract_y
_atom_site_fract_z
Si Si1 0.856768 0.645534 0.736860
Si Si2 0.843644 0.785687 0.474864
Si Si3 0.152980 0.956073 0.765561
Si Si4 0.651826 0.105797 0.151469
Si Si5 0.143194 0.778263 0.314125
Si Si6 0.345593 0.870695 0.998724
Si Si7 0.154383 0.588173 0.860418
O O1 0.742022 0.639837 0.680296
O O2 0.860361 0.689104 0.756951
O O3 0.829098 0.622973 0.807860
O O4 0.000000 0.633117 0.704610
O O5 0.750000 0.750000 0.500928
O O6 0.819893 0.792314 0.392057
O O7 0.793648 0.826647 0.507164
O O8 0.000000 0.777128 0.492737
O O9 0.187419 0.933181 0.693226
O O10 0.250389 0.945353 0.830413
O O11 0.000000 0.948211 0.788221
O O12 0.176064 0.000000 0.746595
O O13 0.500000 0.117580 0.164626
O O14 0.681204 0.103708 0.068185
O O15 0.250000 0.750000 0.282830
O O16 0.000000 0.757597 0.317202
O O17 0.500000 0.865943 0.981102
O O18 0.287029 0.896018 0.934547
O O19 0.000000 0.573957 0.865846
#
# Coordination Sequence:
#
# PCOD8186894 Si02
#       7
#    16  16  16  16  16  16  16
#     4   9  16  29  46  65  90 120 152 192 237 275
#     4   9  16  28  45  66  92 123 157 196 241 279
#     4   9  18  33  50  70  98 126 151 186 234 284
#     4   9  18  31  49  70  92 125 160 186 226 283
#     4   9  16  26  42  64  88 117 153 195 242 278
#     4   9  16  30  50  71  96 124 157 199 239 272
#     4   9  16  29  51  73  91 116 154 195 231 272
#
# _framework density 16.742853
#
# number of rings (size 3 to 8) (size 9 to 14) (size 15 to 20)
#    0.000    3.000    1.429    0.000    0.000    0.857 
#    0.000    3.571    0.000    6.000    0.000    0.000 
#    0.000    0.000    0.000    0.000    0.000    0.000 
#
# Total GULP energy -346887.341219 kJ/mol
# GULP energy per Si atom -12388.833615 kJ/mol
# Density = 1.670475 g / cm^3
# Si number density = 16.742853 Si / 1000 Ang^3
#
#
#
# Elastic Constant Matrix: (Units=GPa)
#
#
# Indices 1 2 3 4 5 6 
#
# 1 75.8047 42.9559 42.7233 0.0000 0.0000 0.0000
# 2 42.9559 83.2723 37.5585 0.0000 0.0000 0.0000
# 3 42.7233 37.5585 85.0836 0.0000 0.0000 0.0000
# 4 0.0000 0.0000 0.0000 18.8375 0.0000 0.0000
# 5 0.0000 0.0000 0.0000 0.0000 19.4841 0.0000
# 6 0.0000 0.0000 0.0000 0.0000 0.0000 25.2752
#
#
#
# Elastic Compliance Matrix: (Units=1/GPa)
#
#
# Indices 1 2 3 4 5 6 
#
# 1 0.021908 -0.007915 -0.007507 0.000000 0.000000 0.000000
# 2 -0.007915 0.017854 -0.003907 0.000000 0.000000 0.000000
# 3 -0.007507 -0.003907 0.017247 0.000000 0.000000 0.000000
# 4 0.000000 0.000000 0.000000 0.053086 0.000000 0.000000
# 5 0.000000 0.000000 0.000000 0.000000 0.051324 0.000000
# 6 0.000000 0.000000 0.000000 0.000000 0.000000 0.039564
#
#
# Mechanical properties :
#
#
# Convention : Reuss Voigt Hill
#
# Bulk Modulus (GPa) = 54.49155 54.51510 54.50332
# Shear Modulus (GPa) = 20.34526 20.78088 20.56307
#
# Velocity S-wave (km/s) = 3.48970 3.52686 3.50833
# Velocity P-wave (km/s) = 6.98957 7.01540 7.00250
#
# Compressibility (1/GPa) = 0.01835147
#
# Stress axis : x y z
#
# Youngs Moduli (GPa) = 45.64573 56.00977 57.98122
#
# Poissons Ratio (x) = 0.44334 0.43524
# Poissons Ratio (y) = 0.36131 0.22652
# Poissons Ratio (z) = 0.34264 0.21881
#
# Static dielectric constant tensor:
#      x y z
#    x 3.383540 0.000000 0.000000 
#    y 0.000000 3.128810 0.000000 
#    z 0.000000 0.000000 3.025280 
# 
# 
# High freq. dielectric constant tensor:
#      x y z
#    x 1.637900 0.000000 0.000000 
#    y 0.000000 1.630700 0.000000 
#    z 0.000000 0.000000 1.626790 
# 
# From -- ./inp_files/13237.got.cif
#   From: 2010.03.12/outbox.cif.g09.slc.cpg/sg42_7_cif.got.tgz:13237.got - 2010.04.14 02:04:31.
