data_PCOD8186844
_publ_section_title
;
Structure prediction by ZEFSAII (Michael W. Deem and Ramdas Pophale) SiO2 
 PCOD8186844
Probable space group: F M M 2
;
_chemical_formula_sum "Si O2"
_cell_formula_units_Z 48
_cell_length_a 14.722243
_cell_length_b 14.787584
_cell_length_c 8.925526
_cell_angle_alpha 90.000000
_cell_angle_beta 90.000000
_cell_angle_gamma 90.000000
_cell_volume 1943.144178
_symmetry_space_group_name_H-M "F M M 2"
_symmetry_group_IT_number 42
_symmetry_cell_setting 'orthorhombic'
loop_
_space_group_symop_operation_xyz
x,y,z
-x,-y,z
-x,y,z
x,-y,z
x,1/2+y,1/2+z
-x,1/2-y,1/2+z
-x,1/2+y,1/2+z
x,1/2-y,1/2+z
1/2+x,y,1/2+z
1/2-x,-y,1/2+z
1/2-x,y,1/2+z
1/2+x,-y,1/2+z
1/2+x,1/2+y,z
1/2-x,1/2-y,z
1/2-x,1/2+y,z
1/2+x,1/2-y,z
loop_
_atom_site_type_symbol
_atom_site_label
_atom_site_fract_x
_atom_site_fract_y
_atom_site_fract_z
Si Si1 0.000000 0.890326 0.510550
Si Si2 0.313526 0.335218 0.370216
Si Si3 0.664914 0.900647 0.546684
Si Si4 0.000000 0.107448 0.854324
O O1 0.085373 0.840955 0.434851
O O2 0.000000 0.859897 0.683561
O O3 0.000000 0.000000 0.488193
O O4 0.250000 0.250000 0.418722
O O5 0.317958 0.339721 0.191588
O O6 0.256345 0.415427 0.448802
O O7 0.588438 0.854622 0.440503
O O8 0.632361 0.000000 0.600800
O O9 0.000000 0.000000 0.854887
#
# Coordination Sequence:
#
# PCOD8186844 Si02
#       4
#     8  16  16   8
#     4  11  23  46  77 108 142 194 250 297 355 441
#     4  12  26  43  68 104 143 183 233 299 363 418
#     4  11  22  42  69 101 139 189 241 289 349 433
#     4   9  21  40  71 106 135 176 246 307 344 407
#
# _framework density 24.702233
#
# number of rings (size 3 to 8) (size 9 to 14) (size 15 to 20)
#    0.000    1.000    0.000    7.000    0.000    5.333 
#    0.000    6.667    0.000    0.000    0.000    0.000 
#    0.000    0.000    0.000    0.000    0.000    0.000 
#
# Total GULP energy -148751.916956 kJ/mol
# GULP energy per Si atom -12395.993080 kJ/mol
# Density = 2.464601 g / cm^3
# Si number density = 24.702233 Si / 1000 Ang^3
#
#
#
# Elastic Constant Matrix: (Units=GPa)
#
#
# Indices 1 2 3 4 5 6 
#
# 1 244.0653 34.6399 105.0642 0.0000 0.0000 0.0000
# 2 34.6399 80.3959 28.1383 0.0000 0.0000 0.0000
# 3 105.0642 28.1383 222.3788 0.0000 0.0000 0.0000
# 4 0.0000 0.0000 0.0000 31.2136 0.0000 0.0000
# 5 0.0000 0.0000 0.0000 0.0000 54.3712 0.0000
# 6 0.0000 0.0000 0.0000 0.0000 0.0000 35.4414
#
#
#
# Elastic Compliance Matrix: (Units=1/GPa)
#
#
# Indices 1 2 3 4 5 6 
#
# 1 0.005305 -0.001474 -0.002320 0.000000 0.000000 0.000000
# 2 -0.001474 0.013424 -0.001002 0.000000 0.000000 0.000000
# 3 -0.002320 -0.001002 0.005720 0.000000 0.000000 0.000000
# 4 0.000000 0.000000 0.000000 0.032037 0.000000 0.000000
# 5 0.000000 0.000000 0.000000 0.000000 0.018392 0.000000
# 6 0.000000 0.000000 0.000000 0.000000 0.000000 0.028216
#
#
# Mechanical properties :
#
#
# Convention : Reuss Voigt Hill
#
# Bulk Modulus (GPa) = 67.30847 98.05832 82.68340
# Shear Modulus (GPa) = 42.50305 49.47174 45.98739
#
# Velocity S-wave (km/s) = 4.15253 4.48003 4.31939
# Velocity P-wave (km/s) = 7.09214 8.15741 7.64335
#
# Compressibility (1/GPa) = 0.01485697
#
# Stress axis : x y z
#
# Youngs Moduli (GPa) = 188.49698 74.49195 174.83339
#
# Poissons Ratio (x) = 0.10979 0.40560
# Poissons Ratio (y) = 0.27781 0.17524
# Poissons Ratio (z) = 0.43730 0.07466
#
# Static dielectric constant tensor:
#      x y z
#    x 4.657370 0.000000 0.000000 
#    y 0.000000 4.136390 0.000000 
#    z 0.000000 0.000000 4.344870 
# 
# 
# High freq. dielectric constant tensor:
#      x y z
#    x 1.998210 0.000000 0.000000 
#    y 0.000000 1.980820 0.000000 
#    z 0.000000 0.000000 1.990970 
# 
# From -- ./inp_files/2422.got.cif
#   From: 2010.03.12/outbox.cif.g09.slc.cpg/sg42_2_cif.got.tgz:2422.got - 2010.04.14 02:04:31.
