data_PCOD8186923
_publ_section_title
;
Structure prediction by ZEFSAII (Michael W. Deem and Ramdas Pophale) SiO2 
 PCOD8186923
Probable space group: F D D 2
;
_chemical_formula_sum "Si O2"
_cell_formula_units_Z 120
_cell_length_a 8.452634
_cell_length_b 27.150655
_cell_length_c 25.167249
_cell_angle_alpha 90.000000
_cell_angle_beta 90.000000
_cell_angle_gamma 90.000000
_cell_volume 5775.746473
_symmetry_space_group_name_H-M "F D D 2"
_symmetry_group_IT_number 43
_symmetry_cell_setting 'orthorhombic'
loop_
_space_group_symop_operation_xyz
x,y,z
-x,-y,z
1/4-x,1/4+y,1/4+z
1/4+x,1/4-y,1/4+z
x,1/2+y,1/2+z
-x,1/2-y,1/2+z
1/4-x,3/4+y,3/4+z
1/4+x,3/4-y,3/4+z
1/2+x,y,1/2+z
1/2-x,-y,1/2+z
3/4-x,1/4+y,3/4+z
3/4+x,1/4-y,3/4+z
1/2+x,1/2+y,z
1/2-x,1/2-y,z
3/4-x,3/4+y,1/4+z
3/4+x,3/4-y,1/4+z
loop_
_atom_site_type_symbol
_atom_site_label
_atom_site_fract_x
_atom_site_fract_y
_atom_site_fract_z
Si Si1 0.317648 0.011366 0.946760
Si Si2 0.250000 0.250000 0.515321
Si Si3 0.254151 0.031072 0.339287
Si Si4 0.739809 0.076615 0.017595
Si Si5 0.634342 0.135003 0.870044
Si Si6 0.131270 0.338093 0.451744
Si Si7 0.428820 0.613297 0.471556
Si Si8 0.054571 0.948080 0.742783
O O1 0.303493 0.069091 0.959952
O O2 0.500000 0.000000 0.932405
O O3 0.212404 0.995511 0.895459
O O4 0.256519 0.979668 0.996879
O O5 0.095492 0.244369 0.551867
O O6 0.246283 0.298631 0.479412
O O7 0.154259 0.081257 0.344983
O O8 0.409873 0.044300 0.305651
O O9 0.807373 0.077985 0.077262
O O10 0.852912 0.109091 0.980067
O O11 0.558711 0.095956 0.014832
O O12 0.804425 0.155847 0.891144
O O13 0.514105 0.130238 0.918282
O O14 0.950120 0.320624 0.456159
O O15 0.335040 0.659140 0.494127
O O16 0.000000 0.000000 0.717532
#
# Coordination Sequence:
#
# PCOD8186923 Si02
#       8
#    16   8  16  16  16  16  16  16
#     4  10  18  39  68 100 126 166 222 275 327 404
#     4  10  18  32  66  96 118 168 216 284 314 386
#     4  11  19  37  71  99 124 159 240 279 324 380
#     4  10  20  39  69  97 130 172 225 270 332 411
#     4  11  20  41  69  95 127 183 226 266 334 400
#     4  10  22  38  66  91 136 163 228 275 321 399
#     4  10  23  41  66  98 137 174 219 278 342 408
#     4  11  26  43  62  98 141 169 215 287 342 394
#
# _framework density 20.776534999999999
#
# number of rings (size 3 to 8) (size 9 to 14) (size 15 to 20)
#    0.000    1.600    7.333    0.000    7.467    0.000 
#    4.800    4.000    0.000    0.000    0.000    0.000 
#    0.000    0.000    0.000    0.000    0.000    0.000 
#
# Total GULP energy -371928.507336 kJ/mol
# GULP energy per Si atom -12397.616911 kJ/mol
# Density = 2.072925 g / cm^3
# Si number density = 20.776535 Si / 1000 Ang^3
#
#
#
# Elastic Constant Matrix: (Units=GPa)
#
#
# Indices 1 2 3 4 5 6 
#
# 1 83.4881 37.2363 37.0923 0.0000 0.0000 0.0000
# 2 37.2363 96.8898 22.1253 0.0000 0.0000 0.0000
# 3 37.0923 22.1253 93.8740 0.0000 0.0000 0.0000
# 4 0.0000 0.0000 0.0000 24.8969 0.0000 0.0000
# 5 0.0000 0.0000 0.0000 0.0000 38.5750 0.0000
# 6 0.0000 0.0000 0.0000 0.0000 0.0000 38.2632
#
#
#
# Elastic Compliance Matrix: (Units=1/GPa)
#
#
# Indices 1 2 3 4 5 6 
#
# 1 0.016673 -0.005182 -0.005367 0.000000 0.000000 0.000000
# 2 -0.005182 0.012519 -0.000903 0.000000 0.000000 0.000000
# 3 -0.005367 -0.000903 0.012986 0.000000 0.000000 0.000000
# 4 0.000000 0.000000 0.000000 0.040166 0.000000 0.000000
# 5 0.000000 0.000000 0.000000 0.000000 0.025923 0.000000
# 6 0.000000 0.000000 0.000000 0.000000 0.000000 0.026135
#
#
# Mechanical properties :
#
#
# Convention : Reuss Voigt Hill
#
# Bulk Modulus (GPa) = 51.88257 51.90664 51.89460
# Shear Modulus (GPa) = 30.53791 32.20023 31.36907
#
# Velocity S-wave (km/s) = 3.83799 3.94107 3.88987
# Velocity P-wave (km/s) = 6.68327 6.76364 6.72358
#
# Compressibility (1/GPa) = 0.01927429
#
# Stress axis : x y z
#
# Youngs Moduli (GPa) = 59.97548 79.87961 77.00645
#
# Poissons Ratio (x) = 0.41396 0.41327
# Poissons Ratio (y) = 0.31081 0.06953
# Poissons Ratio (z) = 0.32187 0.07212
#
# Static dielectric constant tensor:
#      x y z
#    x 3.723730 0.000000 0.000000 
#    y 0.000000 3.923340 0.000000 
#    z 0.000000 0.000000 3.720170 
# 
# 
# High freq. dielectric constant tensor:
#      x y z
#    x 1.795300 0.000000 0.000000 
#    y 0.000000 1.818110 0.000000 
#    z 0.000000 0.000000 1.797370 
# 
# From -- ./inp_files/24557.got.cif
#   From: 2010.06.25/outbox.cif.g09.slc.cpg/sg43_13_cif.got.tgz:24557.got - 2010.06.26 16:48:59.
