data_PCOD8186190
_publ_section_title
;
Structure prediction by ZEFSAII (Michael W. Deem and Ramdas Pophale) SiO2 
 PCOD8186190
Probable space group: F M M 2
;
_chemical_formula_sum "Si O2"
_cell_formula_units_Z 88
_cell_length_a 21.339008
_cell_length_b 14.775925
_cell_length_c 12.892119
_cell_angle_alpha 90.000000
_cell_angle_beta 90.000000
_cell_angle_gamma 90.000000
_cell_volume 4064.931297
_symmetry_space_group_name_H-M "F M M 2"
_symmetry_group_IT_number 42
_symmetry_cell_setting 'orthorhombic'
loop_
_space_group_symop_operation_xyz
x,y,z
-x,-y,z
-x,y,z
x,-y,z
x,1/2+y,1/2+z
-x,1/2-y,1/2+z
-x,1/2+y,1/2+z
x,1/2-y,1/2+z
1/2+x,y,1/2+z
1/2-x,-y,1/2+z
1/2-x,y,1/2+z
1/2+x,-y,1/2+z
1/2+x,1/2+y,z
1/2-x,1/2-y,z
1/2-x,1/2+y,z
1/2+x,1/2-y,z
loop_
_atom_site_type_symbol
_atom_site_label
_atom_site_fract_x
_atom_site_fract_y
_atom_site_fract_z
Si Si1 0.074727 0.000000 0.148041
Si Si2 0.348666 0.164759 0.551232
Si Si3 0.250000 0.750000 0.703656
Si Si4 0.071880 0.674753 0.007508
Si Si5 0.192366 0.602211 0.345177
Si Si6 0.573424 0.500000 0.390588
Si Si7 0.068304 0.102364 0.730697
O O1 0.105925 0.089743 0.100988
O O2 0.089067 0.000000 0.269839
O O3 0.000000 0.000000 0.125674
O O4 0.308996 0.219449 0.635856
O O5 0.389526 0.235021 0.483008
O O6 0.300895 0.119705 0.468419
O O7 0.235820 0.834836 0.776469
O O8 0.079126 0.663826 0.130801
O O9 0.000000 0.688436 0.973938
O O10 0.101840 0.590383 0.943918
O O11 0.213204 0.500000 0.319960
O O12 0.119563 0.619791 0.318133
O O13 0.500000 0.500000 0.414268
O O14 0.000000 0.123424 0.780242
O O15 0.070952 0.000000 0.689004
#
# Coordination Sequence:
#
# PCOD8186190 Si02
#       7
#     8  16   8  16  16   8  16
#     4  11  26  48  70 102 146 183 221 291 371 424
#     4  12  26  47  67 101 136 179 233 287 347 412
#     4  12  28  48  70  96 134 186 242 286 324 410
#     4  10  19  36  67 103 137 174 223 279 338 411
#     4  11  25  47  70  98 133 175 229 280 344 408
#     4   9  20  38  66 104 142 179 218 265 345 426
#     4   9  17  34  63  98 133 168 212 269 329 394
#
# _framework density 21.648582000000001
#
# number of rings (size 3 to 8) (size 9 to 14) (size 15 to 20)
#    0.000    1.455    3.636    1.091    3.818    1.455 
#    0.000    0.000    0.000    0.000    0.000    0.000 
#    0.000    0.000    0.000    0.000    0.000    0.000 
#
# Total GULP energy -272796.625911 kJ/mol
# GULP energy per Si atom -12399.846632 kJ/mol
# Density = 2.159931 g / cm^3
# Si number density = 21.648582 Si / 1000 Ang^3
#
#
#
# Elastic Constant Matrix: (Units=GPa)
#
#
# Indices 1 2 3 4 5 6 
#
# 1 68.7941 57.1687 27.9866 0.0000 0.0000 0.0000
# 2 57.1687 164.2168 56.4162 0.0000 0.0000 0.0000
# 3 27.9866 56.4162 94.2824 0.0000 0.0000 0.0000
# 4 0.0000 0.0000 0.0000 34.7640 0.0000 0.0000
# 5 0.0000 0.0000 0.0000 0.0000 17.7423 0.0000
# 6 0.0000 0.0000 0.0000 0.0000 0.0000 35.3030
#
#
#
# Elastic Compliance Matrix: (Units=1/GPa)
#
#
# Indices 1 2 3 4 5 6 
#
# 1 0.020850 -0.006460 -0.002323 0.000000 0.000000 0.000000
# 2 -0.006460 0.009667 -0.003867 0.000000 0.000000 0.000000
# 3 -0.002323 -0.003867 0.013610 0.000000 0.000000 0.000000
# 4 0.000000 0.000000 0.000000 0.028765 0.000000 0.000000
# 5 0.000000 0.000000 0.000000 0.000000 0.056363 0.000000
# 6 0.000000 0.000000 0.000000 0.000000 0.000000 0.028326
#
#
# Mechanical properties :
#
#
# Convention : Reuss Voigt Hill
#
# Bulk Modulus (GPa) = 53.11852 67.82625 60.47238
# Shear Modulus (GPa) = 26.43307 29.94332 28.18819
#
# Velocity S-wave (km/s) = 3.49808 3.72311 3.61235
# Velocity P-wave (km/s) = 6.39573 7.06263 6.73744
#
# Compressibility (1/GPa) = 0.01882583
#
# Stress axis : x y z
#
# Youngs Moduli (GPa) = 47.96195 103.44530 73.47599
#
# Poissons Ratio (x) = 0.66828 0.17071
# Poissons Ratio (y) = 0.30985 0.28412
# Poissons Ratio (z) = 0.11143 0.40000
#
# Static dielectric constant tensor:
#      x y z
#    x 3.722930 0.000000 0.000000 
#    y 0.000000 4.008190 0.000000 
#    z 0.000000 0.000000 3.721960 
# 
# 
# High freq. dielectric constant tensor:
#      x y z
#    x 1.834520 0.000000 0.000000 
#    y 0.000000 1.864200 0.000000 
#    z 0.000000 0.000000 1.849840 
# 
# From -- ./inp_files/10079.got.cif
#   From: 2010.03.12/outbox.cif.g09.slc.cpg/sg42_6_cif.got.tgz:10079.got - 2010.04.14 02:04:31.
