data_PCOD8186407
_publ_section_title
;
Structure prediction by ZEFSAII (Michael W. Deem and Ramdas Pophale) SiO2 
 PCOD8186407
Probable space group: F M M 2
;
_chemical_formula_sum "Si O2"
_cell_formula_units_Z 128
_cell_length_a 22.485645
_cell_length_b 17.941286
_cell_length_c 16.971841
_cell_angle_alpha 90.000000
_cell_angle_beta 90.000000
_cell_angle_gamma 90.000000
_cell_volume 6846.803650
_symmetry_space_group_name_H-M "F M M 2"
_symmetry_group_IT_number 42
_symmetry_cell_setting 'orthorhombic'
loop_
_space_group_symop_operation_xyz
x,y,z
-x,-y,z
-x,y,z
x,-y,z
x,1/2+y,1/2+z
-x,1/2-y,1/2+z
-x,1/2+y,1/2+z
x,1/2-y,1/2+z
1/2+x,y,1/2+z
1/2-x,-y,1/2+z
1/2-x,y,1/2+z
1/2+x,-y,1/2+z
1/2+x,1/2+y,z
1/2-x,1/2-y,z
1/2-x,1/2+y,z
1/2+x,1/2-y,z
loop_
_atom_site_type_symbol
_atom_site_label
_atom_site_fract_x
_atom_site_fract_y
_atom_site_fract_z
Si Si1 0.730289 0.164644 0.028800
Si Si2 0.183038 0.412811 0.409329
Si Si3 0.781247 0.417648 0.660309
Si Si4 0.431991 0.082972 0.797475
Si Si5 0.633012 0.188001 0.919629
Si Si6 0.588854 0.415705 0.121381
Si Si7 0.264931 0.674197 0.302107
Si Si8 0.567493 0.339547 0.962973
O O1 0.750000 0.250000 0.025755
O O2 0.731805 0.133666 0.118147
O O3 0.777219 0.113584 0.982319
O O4 0.661919 0.153525 0.999390
O O5 0.192194 0.500000 0.395981
O O6 0.206215 0.368332 0.332934
O O7 0.112589 0.397417 0.421728
O O8 0.755035 0.500000 0.672407
O O9 0.840690 0.419574 0.608417
O O10 0.799008 0.382809 0.744991
O O11 0.500000 0.078975 0.821865
O O12 0.402578 0.130445 0.866550
O O13 0.426456 0.115966 0.708689
O O14 0.403179 0.000000 0.797263
O O15 0.693182 0.207189 0.871543
O O16 0.592050 0.257051 0.944513
O O17 0.562303 0.500000 0.111039
O O18 0.563489 0.358564 0.056365
O O19 0.250000 0.750000 0.254315
O O20 0.500000 0.345947 0.928960
#
# Coordination Sequence:
#
# PCOD8186407 Si02
#       8
#    16  16  16  16  16  16  16  16
#     4  11  20  37  58  80 119 156 184 232 295 350
#     4  11  21  35  55  83 115 148 192 243 290 353
#     4  11  21  34  57  90 117 145 190 240 294 361
#     4  10  21  37  58  85 115 149 194 246 294 342
#     4  11  21  38  58  83 115 153 198 235 289 352
#     4  10  20  36  56  84 118 149 190 241 295 352
#     4  11  21  37  58  79 112 154 187 236 298 352
#     4  12  23  37  57  82 118 162 200 241 294 354
#
# _framework density 18.694853999999999
#
# number of rings (size 3 to 8) (size 9 to 14) (size 15 to 20)
#    0.000    1.125    5.000    3.000    0.000    4.000 
#    0.000    0.000    0.000    0.000    0.000    0.875 
#    0.000    2.000    0.000    0.000    0.000    0.000 
#
# Total GULP energy -396532.381227 kJ/mol
# GULP energy per Si atom -12391.636913 kJ/mol
# Density = 1.865230 g / cm^3
# Si number density = 18.694854 Si / 1000 Ang^3
#
#
#
# Elastic Constant Matrix: (Units=GPa)
#
#
# Indices 1 2 3 4 5 6 
#
# 1 99.2206 46.5107 27.5018 0.0000 0.0000 0.0000
# 2 46.5107 134.0764 54.6153 0.0000 0.0000 0.0000
# 3 27.5018 54.6153 72.4582 0.0000 0.0000 0.0000
# 4 0.0000 0.0000 0.0000 36.6720 0.0000 0.0000
# 5 0.0000 0.0000 0.0000 0.0000 21.2194 0.0000
# 6 0.0000 0.0000 0.0000 0.0000 0.0000 17.2048
#
#
#
# Elastic Compliance Matrix: (Units=1/GPa)
#
#
# Indices 1 2 3 4 5 6 
#
# 1 0.012251 -0.003399 -0.002088 0.000000 0.000000 0.000000
# 2 -0.003399 0.011706 -0.007533 0.000000 0.000000 0.000000
# 3 -0.002088 -0.007533 0.020272 0.000000 0.000000 0.000000
# 4 0.000000 0.000000 0.000000 0.027269 0.000000 0.000000
# 5 0.000000 0.000000 0.000000 0.000000 0.047127 0.000000
# 6 0.000000 0.000000 0.000000 0.000000 0.000000 0.058123
#
#
# Mechanical properties :
#
#
# Convention : Reuss Voigt Hill
#
# Bulk Modulus (GPa) = 54.98096 62.55675 58.76885
# Shear Modulus (GPa) = 23.94052 26.82772 25.38412
#
# Velocity S-wave (km/s) = 3.58242 3.79229 3.68885
# Velocity P-wave (km/s) = 6.82533 7.26016 7.04610
#
# Compressibility (1/GPa) = 0.01818811
#
# Stress axis : x y z
#
# Youngs Moduli (GPa) = 81.62829 85.42354 49.32982
#
# Poissons Ratio (x) = 0.29039 0.10298
# Poissons Ratio (y) = 0.27749 0.37162
# Poissons Ratio (z) = 0.17040 0.64353
#
# Static dielectric constant tensor:
#      x y z
#    x 3.448640 0.000000 0.000000 
#    y 0.000000 3.465470 0.000000 
#    z 0.000000 0.000000 3.409910 
# 
# 
# High freq. dielectric constant tensor:
#      x y z
#    x 1.715810 0.000000 0.000000 
#    y 0.000000 1.726190 0.000000 
#    z 0.000000 0.000000 1.716750 
# 
# From -- ./inp_files/22342.got.cif
#   From: 2010.03.12/outbox.cif.g09.slc.cpg/sg42_12_cif.got.tgz:22342.got - 2010.04.14 02:04:31.
