data_PCOD8186856
_publ_section_title
;
Structure prediction by ZEFSAII (Michael W. Deem and Ramdas Pophale) SiO2 
 PCOD8186856
Probable space group: F M M 2
;
_chemical_formula_sum "Si O2"
_cell_formula_units_Z 80
_cell_length_a 7.635348
_cell_length_b 17.746181
_cell_length_c 29.989643
_cell_angle_alpha 90.000000
_cell_angle_beta 90.000000
_cell_angle_gamma 90.000000
_cell_volume 4063.544673
_symmetry_space_group_name_H-M "F M M 2"
_symmetry_group_IT_number 42
_symmetry_cell_setting 'orthorhombic'
loop_
_space_group_symop_operation_xyz
x,y,z
-x,-y,z
-x,y,z
x,-y,z
x,1/2+y,1/2+z
-x,1/2-y,1/2+z
-x,1/2+y,1/2+z
x,1/2-y,1/2+z
1/2+x,y,1/2+z
1/2-x,-y,1/2+z
1/2-x,y,1/2+z
1/2+x,-y,1/2+z
1/2+x,1/2+y,z
1/2-x,1/2-y,z
1/2-x,1/2+y,z
1/2+x,1/2-y,z
loop_
_atom_site_type_symbol
_atom_site_label
_atom_site_fract_x
_atom_site_fract_y
_atom_site_fract_z
Si Si1 0.702701 0.083926 0.760110
Si Si2 0.000000 0.089380 0.613891
Si Si3 0.000000 0.910353 0.512898
Si Si4 0.705551 0.582775 0.853934
Si Si5 0.803834 0.590268 0.449869
Si Si6 0.206759 0.836930 0.171675
O O1 0.500000 0.075025 0.752095
O O2 0.739763 0.125079 0.808012
O O3 0.774966 0.135636 0.720216
O O4 0.790641 0.000000 0.758286
O O5 0.000000 0.119532 0.563133
O O6 0.820320 0.118480 0.635491
O O7 0.000000 0.000000 0.616170
O O8 0.172844 0.879346 0.487671
O O9 0.000000 0.000000 0.511690
O O10 0.500000 0.574891 0.856384
O O11 0.793804 0.500000 0.850401
O O12 0.762595 0.621112 0.900981
O O13 0.803647 0.500000 0.447164
O O14 0.000000 0.619291 0.461204
O O15 0.250000 0.750000 0.167199
O O16 0.000000 0.852228 0.163453
#
# Coordination Sequence:
#
# PCOD8186856 Si02
#       6
#    16   8   8  16  16  16
#     4   9  18  30  48  78 112 146 186 231 281 335
#     4  11  24  40  62  91 117 151 197 246 301 349
#     4   9  18  30  48  75 106 141 181 226 286 339
#     4   8  14  23  39  68 105 145 181 217 273 334
#     4   8  14  25  41  66 106 145 176 220 278 336
#     4  11  23  41  61  83 117 154 199 243 295 353
#
# _framework density 19.687244
#
# number of rings (size 3 to 8) (size 9 to 14) (size 15 to 20)
#    0.000    2.800    1.000    1.800    2.800    2.000 
#    0.000    2.000    0.000    0.000    0.000    1.400 
#    0.000    0.000    0.000    0.000    0.000    0.000 
#
# Total GULP energy -247766.198187 kJ/mol
# GULP energy per Si atom -12388.309909 kJ/mol
# Density = 1.964244 g / cm^3
# Si number density = 19.687244 Si / 1000 Ang^3
#
#
#
# Elastic Constant Matrix: (Units=GPa)
#
#
# Indices 1 2 3 4 5 6 
#
# 1 105.2279 20.1580 79.9707 0.0000 0.0000 0.0000
# 2 20.1580 47.0579 36.8466 0.0000 0.0000 0.0000
# 3 79.9707 36.8466 208.9138 0.0000 0.0000 0.0000
# 4 0.0000 0.0000 0.0000 -0.6455 0.0000 0.0000
# 5 0.0000 0.0000 0.0000 0.0000 35.3017 0.0000
# 6 0.0000 0.0000 0.0000 0.0000 0.0000 12.7361
#
#
#
# Elastic Compliance Matrix: (Units=1/GPa)
#
#
# Indices 1 2 3 4 5 6 
#
# 1 0.013566 -0.002025 -0.004836 0.000000 0.000000 0.000000
# 2 -0.002025 0.024958 -0.003627 0.000000 0.000000 0.000000
# 3 -0.004836 -0.003627 0.007277 0.000000 0.000000 0.000000
# 4 0.000000 0.000000 0.000000 -1.549164 0.000000 0.000000
# 5 0.000000 0.000000 0.000000 0.000000 0.028327 0.000000
# 6 0.000000 0.000000 0.000000 0.000000 0.000000 0.078517
#
#
# Mechanical properties :
#
#
# Convention : Reuss Voigt Hill
#
# Bulk Modulus (GPa) = 40.27977 70.57224 55.42600
# Shear Modulus (GPa) = -3.65693 24.42676 10.38491
#
# Velocity S-wave (km/s) = -1.36438 3.52624 2.29922
# Velocity P-wave (km/s) = 4.24525 7.24594 5.93826
#
# Compressibility (1/GPa) = 0.02482636
#
# Stress axis : x y z
#
# Youngs Moduli (GPa) = 73.71229 40.06811 137.40994
#
# Poissons Ratio (x) = 0.08113 0.66451
# Poissons Ratio (y) = 0.14925 0.49835
# Poissons Ratio (z) = 0.35647 0.14532
#
# Static dielectric constant tensor:
#      x y z
#    x 3.858810 0.000000 0.000000 
#    y 0.000000 3.209510 0.000000 
#    z 0.000000 0.000000 4.067900 
# 
# 
# High freq. dielectric constant tensor:
#      x y z
#    x 1.770830 0.000000 0.000000 
#    y 0.000000 1.694380 0.000000 
#    z 0.000000 0.000000 1.782390 
# 
# From -- ./inp_files/31322.got.cif
#   From: 2010.03.12/outbox.cif.g09.slc.cpg/sg42_16_cif.got.tgz:31322.got - 2010.04.14 02:04:31.
