data_PCOD8186088
_publ_section_title
;
Structure prediction by ZEFSAII (Michael W. Deem and Ramdas Pophale) SiO2 
 PCOD8186088
Probable space group: F M M 2
;
_chemical_formula_sum "Si O2"
_cell_formula_units_Z 96
_cell_length_a 7.604115
_cell_length_b 26.967747
_cell_length_c 25.154366
_cell_angle_alpha 90.000000
_cell_angle_beta 90.000000
_cell_angle_gamma 90.000000
_cell_volume 5158.301432
_symmetry_space_group_name_H-M "F M M 2"
_symmetry_group_IT_number 42
_symmetry_cell_setting 'orthorhombic'
loop_
_space_group_symop_operation_xyz
x,y,z
-x,-y,z
-x,y,z
x,-y,z
x,1/2+y,1/2+z
-x,1/2-y,1/2+z
-x,1/2+y,1/2+z
x,1/2-y,1/2+z
1/2+x,y,1/2+z
1/2-x,-y,1/2+z
1/2-x,y,1/2+z
1/2+x,-y,1/2+z
1/2+x,1/2+y,z
1/2-x,1/2-y,z
1/2-x,1/2+y,z
1/2+x,1/2-y,z
loop_
_atom_site_type_symbol
_atom_site_label
_atom_site_fract_x
_atom_site_fract_y
_atom_site_fract_z
Si Si1 0.700407 0.372933 0.902150
Si Si2 0.704123 0.806928 0.307574
Si Si3 0.500000 0.557912 0.246171
Si Si4 0.290260 0.871323 0.209112
Si Si5 0.206336 0.194964 0.495089
Si Si6 0.500000 0.442129 0.371442
Si Si7 0.205327 0.304325 0.113630
O O1 0.500000 0.389529 0.889556
O O2 0.782698 0.334600 0.858999
O O3 0.701562 0.346397 0.959209
O O4 0.825156 0.420842 0.899825
O O5 0.500000 0.814103 0.311634
O O6 0.750000 0.750000 0.308134
O O7 0.770979 0.831939 0.253574
O O8 0.500000 0.500000 0.234432
O O9 0.322296 0.579189 0.219026
O O10 0.500000 0.569602 0.308745
O O11 0.500000 0.883053 0.210897
O O12 0.228459 0.847142 0.153347
O O13 0.250000 0.250000 0.473516
O O14 0.287021 0.189038 0.554673
O O15 0.000000 0.185607 0.493620
O O16 0.500000 0.500000 0.382754
O O17 0.250000 0.250000 0.136921
O O18 0.000000 0.309238 0.108528
#
# Coordination Sequence:
#
# PCOD8186088 Si02
#       7
#    16  16   8  16  16   8  16
#     4  11  22  38  57  84 116 149 190 235 288 339
#     4  10  21  31  50  80 114 152 180 215 272 334
#     4  11  24  40  64  87 106 146 194 238 295 343
#     4  10  21  38  55  83 118 148 188 234 284 335
#     4  10  19  33  54  85 122 160 197 231 276 342
#     4  11  24  42  64  85 110 146 192 244 295 345
#     4   9  19  33  53  84 120 160 194 228 277 335
#
# _framework density 18.610778
#
# number of rings (size 3 to 8) (size 9 to 14) (size 15 to 20)
#    0.000    1.833    2.500    1.500    3.500    2.667 
#    0.000    1.667    0.000    1.000    0.000    0.000 
#    0.000    0.000    0.000    0.000    0.000    0.000 
#
# Total GULP energy -297555.402612 kJ/mol
# GULP energy per Si atom -12398.141776 kJ/mol
# Density = 1.856842 g / cm^3
# Si number density = 18.610778 Si / 1000 Ang^3
#
#
#
# Elastic Constant Matrix: (Units=GPa)
#
#
# Indices 1 2 3 4 5 6 
#
# 1 81.9536 48.5176 29.7575 0.0000 0.0000 0.0000
# 2 48.5176 129.4366 58.6462 0.0000 0.0000 0.0000
# 3 29.7575 58.6462 102.5402 0.0000 0.0000 0.0000
# 4 0.0000 0.0000 0.0000 27.7059 0.0000 0.0000
# 5 0.0000 0.0000 0.0000 0.0000 20.9284 0.0000
# 6 0.0000 0.0000 0.0000 0.0000 0.0000 31.5082
#
#
#
# Elastic Compliance Matrix: (Units=1/GPa)
#
#
# Indices 1 2 3 4 5 6 
#
# 1 0.015880 -0.005216 -0.001625 0.000000 0.000000 0.000000
# 2 -0.005216 0.012141 -0.005430 0.000000 0.000000 0.000000
# 3 -0.001625 -0.005430 0.013330 0.000000 0.000000 0.000000
# 4 0.000000 0.000000 0.000000 0.036093 0.000000 0.000000
# 5 0.000000 0.000000 0.000000 0.000000 0.047782 0.000000
# 6 0.000000 0.000000 0.000000 0.000000 0.000000 0.031738
#
#
# Mechanical properties :
#
#
# Convention : Reuss Voigt Hill
#
# Bulk Modulus (GPa) = 59.49564 65.30810 62.40187
# Shear Modulus (GPa) = 26.72221 27.82912 27.27567
#
# Velocity S-wave (km/s) = 3.79337 3.87114 3.83245
# Velocity P-wave (km/s) = 7.15709 7.42621 7.29289
#
# Compressibility (1/GPa) = 0.01680795
#
# Stress axis : x y z
#
# Youngs Moduli (GPa) = 62.97176 82.36286 75.02038
#
# Poissons Ratio (x) = 0.42961 0.12192
# Poissons Ratio (y) = 0.32847 0.40739
# Poissons Ratio (z) = 0.10234 0.44726
#
# Static dielectric constant tensor:
#      x y z
#    x 4.038980 0.000000 0.000000 
#    y 0.000000 3.097430 0.000000 
#    z 0.000000 0.000000 3.876730 
# 
# 
# High freq. dielectric constant tensor:
#      x y z
#    x 1.730270 0.000000 0.000000 
#    y 0.000000 1.692280 0.000000 
#    z 0.000000 0.000000 1.725400 
# 
# From -- ./inp_files/28205.got.cif
#   From: 2010.03.12/outbox.cif.g09.slc.cpg/sg42_15_cif.got.tgz:28205.got - 2010.04.14 02:04:31.
