data_PCOD8186238
_publ_section_title
;
Structure prediction by ZEFSAII (Michael W. Deem and Ramdas Pophale) SiO2 
 PCOD8186238
Probable space group: F M M 2
;
_chemical_formula_sum "Si O2"
_cell_formula_units_Z 96
_cell_length_a 12.071260
_cell_length_b 16.958545
_cell_length_c 25.399669
_cell_angle_alpha 90.000000
_cell_angle_beta 90.000000
_cell_angle_gamma 90.000000
_cell_volume 5199.591791
_symmetry_space_group_name_H-M "F M M 2"
_symmetry_group_IT_number 42
_symmetry_cell_setting 'orthorhombic'
loop_
_space_group_symop_operation_xyz
x,y,z
-x,-y,z
-x,y,z
x,-y,z
x,1/2+y,1/2+z
-x,1/2-y,1/2+z
-x,1/2+y,1/2+z
x,1/2-y,1/2+z
1/2+x,y,1/2+z
1/2-x,-y,1/2+z
1/2-x,y,1/2+z
1/2+x,-y,1/2+z
1/2+x,1/2+y,z
1/2-x,1/2-y,z
1/2-x,1/2+y,z
1/2+x,1/2-y,z
loop_
_atom_site_type_symbol
_atom_site_label
_atom_site_fract_x
_atom_site_fract_y
_atom_site_fract_z
Si Si1 0.500000 0.588800 0.500000
Si Si2 0.261356 0.594734 0.358762
Si Si3 0.622903 0.906213 0.261017
Si Si4 0.500000 0.412883 0.376435
Si Si5 0.222136 0.159199 0.543009
Si Si6 0.871468 0.907574 0.643613
Si Si7 0.623939 0.092760 0.458397
O O1 0.500000 0.500000 0.525538
O O2 0.500000 0.579014 0.438451
O O3 0.606589 0.637949 0.516214
O O4 0.264333 0.500000 0.361544
O O5 0.205450 0.626796 0.305330
O O6 0.386505 0.630165 0.358481
O O7 0.194662 0.627764 0.409455
O O8 0.500000 0.874786 0.274146
O O9 0.658076 0.878084 0.202594
O O10 0.621754 0.000000 0.262185
O O11 0.500000 0.500000 0.351001
O O12 0.250000 0.250000 0.536881
O O13 0.213008 0.136446 0.604491
O O14 0.319886 0.111800 0.514257
O O15 0.000000 0.887866 0.629902
O O16 0.850679 0.000000 0.638318
O O17 0.500000 0.129107 0.456969
O O18 0.616734 0.000000 0.451982
#
# Coordination Sequence:
#
# PCOD8186238 Si02
#       7
#     8  16  16   8  16  16  16
#     4  11  20  38  62  83 107 149 197 231 273 333
#     4   9  15  26  46  76 108 135 171 227 278 320
#     4   8  14  25  46  77 106 130 169 229 282 321
#     4   9  16  26  48  79 104 135 183 223 260 319
#     4  12  24  34  54  80 111 142 180 237 283 326
#     4   9  17  32  56  81 102 136 187 233 272 323
#     4  10  20  33  51  75 107 144 176 214 278 348
#
# _framework density 18.462987999999999
#
# number of rings (size 3 to 8) (size 9 to 14) (size 15 to 20)
#    0.000    2.333    2.500    3.000    1.167    2.000 
#    0.000    0.000    1.833    1.000    0.000    0.000 
#    0.000    0.000    0.000    0.000    0.000    0.000 
#
# Total GULP energy -297462.362425 kJ/mol
# GULP energy per Si atom -12394.265101 kJ/mol
# Density = 1.842097 g / cm^3
# Si number density = 18.462988 Si / 1000 Ang^3
#
#
#
# Elastic Constant Matrix: (Units=GPa)
#
#
# Indices 1 2 3 4 5 6 
#
# 1 167.5800 26.7704 84.7815 0.0000 0.0000 0.0000
# 2 26.7704 38.0706 15.2679 0.0000 0.0000 0.0000
# 3 84.7815 15.2679 137.1946 0.0000 0.0000 0.0000
# 4 0.0000 0.0000 0.0000 -6.9504 0.0000 0.0000
# 5 0.0000 0.0000 0.0000 0.0000 42.8564 0.0000
# 6 0.0000 0.0000 0.0000 0.0000 0.0000 30.8677
#
#
#
# Elastic Compliance Matrix: (Units=1/GPa)
#
#
# Indices 1 2 3 4 5 6 
#
# 1 0.009352 -0.004457 -0.005283 0.000000 0.000000 0.000000
# 2 -0.004457 0.029619 -0.000542 0.000000 0.000000 0.000000
# 3 -0.005283 -0.000542 0.010614 0.000000 0.000000 0.000000
# 4 0.000000 0.000000 0.000000 -0.143876 0.000000 0.000000
# 5 0.000000 0.000000 0.000000 0.000000 0.023334 0.000000
# 6 0.000000 0.000000 0.000000 0.000000 0.000000 0.032396
#
#
# Mechanical properties :
#
#
# Convention : Reuss Voigt Hill
#
# Bulk Modulus (GPa) = 34.45879 66.27608 50.36743
# Shear Modulus (GPa) = -600.75183 27.75642 -286.49770
#
# Velocity S-wave (km/s) = -18.05791 3.88152 -12.47040
# Velocity P-wave (km/s) = 20.39804 7.48752 13.41672
#
# Compressibility (1/GPa) = 0.02902017
#
# Stress axis : x y z
#
# Youngs Moduli (GPa) = 106.92571 33.76263 94.21429
#
# Poissons Ratio (x) = 0.15050 0.49777
# Poissons Ratio (y) = 0.47662 0.05102
# Poissons Ratio (z) = 0.56492 0.01829
#
# Static dielectric constant tensor:
#      x y z
#    x 3.637100 0.000000 0.000000 
#    y 0.000000 2.850850 0.000000 
#    z 0.000000 0.000000 3.666720 
# 
# 
# High freq. dielectric constant tensor:
#      x y z
#    x 1.718030 0.000000 0.000000 
#    y 0.000000 1.658420 0.000000 
#    z 0.000000 0.000000 1.724020 
# 
# From -- ./inp_files/28848.got.cif
#   From: 2010.03.12/outbox.cif.g09.slc.cpg/sg42_15_cif.got.tgz:28848.got - 2010.04.14 02:04:31.
