data_PCOD8186258
_publ_section_title
;
Structure prediction by ZEFSAII (Michael W. Deem and Ramdas Pophale) SiO2 
 PCOD8186258
Probable space group: F M M 2
;
_chemical_formula_sum "Si O2"
_cell_formula_units_Z 112
_cell_length_a 14.260196
_cell_length_b 27.725510
_cell_length_c 13.851557
_cell_angle_alpha 90.000000
_cell_angle_beta 90.000000
_cell_angle_gamma 90.000000
_cell_volume 5476.506807
_symmetry_space_group_name_H-M "F M M 2"
_symmetry_group_IT_number 42
_symmetry_cell_setting 'orthorhombic'
loop_
_space_group_symop_operation_xyz
x,y,z
-x,-y,z
-x,y,z
x,-y,z
x,1/2+y,1/2+z
-x,1/2-y,1/2+z
-x,1/2+y,1/2+z
x,1/2-y,1/2+z
1/2+x,y,1/2+z
1/2-x,-y,1/2+z
1/2-x,y,1/2+z
1/2+x,-y,1/2+z
1/2+x,1/2+y,z
1/2-x,1/2-y,z
1/2-x,1/2+y,z
1/2+x,1/2-y,z
loop_
_atom_site_type_symbol
_atom_site_label
_atom_site_fract_x
_atom_site_fract_y
_atom_site_fract_z
Si Si1 0.100169 0.184177 0.717360
Si Si2 0.752588 0.945117 0.269055
Si Si3 0.111701 0.590498 0.122690
Si Si4 0.650153 0.774742 0.618673
Si Si5 0.804096 0.203859 0.912751
Si Si6 0.246226 0.603950 0.469873
Si Si7 0.112211 0.117059 0.143599
O O1 0.151179 0.144690 0.649834
O O2 0.082280 0.236015 0.667746
O O3 0.136180 0.184832 0.825244
O O4 0.000000 0.159214 0.729708
O O5 0.658846 0.943853 0.202685
O O6 0.723932 0.926186 0.374490
O O7 0.839954 0.914334 0.227675
O O8 0.786698 0.000000 0.276462
O O9 0.000000 0.581918 0.114135
O O10 0.160033 0.581651 0.018688
O O11 0.750000 0.750000 0.641690
O O12 0.632105 0.779371 0.503840
O O13 0.636220 0.826787 0.667682
O O14 0.750000 0.250000 0.872578
O O15 0.735698 0.160580 0.945876
O O16 0.155738 0.600702 0.540811
O O17 0.000000 0.109152 0.142147
#
# Coordination Sequence:
#
# PCOD8186258 Si02
#       7
#    16  16  16  16  16  16  16
#     4  11  21  33  55  87 123 161 203 248 297 361
#     4  11  24  43  65  91 123 162 209 267 334 388
#     4  10  22  42  65  93 126 163 210 263 315 377
#     4  10  20  37  58  85 126 168 205 246 305 365
#     4  10  20  33  57  83 118 165 205 239 298 365
#     4  10  22  40  63  92 125 169 207 257 319 379
#     4  10  23  42  66  95 128 166 212 264 315 376
#
# _framework density 20.450991999999999
#
# number of rings (size 3 to 8) (size 9 to 14) (size 15 to 20)
#    0.000    1.714    1.429    4.286    2.000    6.857 
#    0.000    0.714    0.000    0.000    0.000    0.000 
#    0.000    0.000    0.000    0.000    0.000    0.000 
#
# Total GULP energy -346954.877037 kJ/mol
# GULP energy per Si atom -12391.245608 kJ/mol
# Density = 2.040444 g / cm^3
# Si number density = 20.450992 Si / 1000 Ang^3
#
#
#
# Elastic Constant Matrix: (Units=GPa)
#
#
# Indices 1 2 3 4 5 6 
#
# 1 110.6731 17.4974 28.5572 0.0000 0.0000 0.0000
# 2 17.4974 103.1105 30.9402 0.0000 0.0000 0.0000
# 3 28.5572 30.9402 105.4526 0.0000 0.0000 0.0000
# 4 0.0000 0.0000 0.0000 17.7374 0.0000 0.0000
# 5 0.0000 0.0000 0.0000 0.0000 -12.5203 0.0000
# 6 0.0000 0.0000 0.0000 0.0000 0.0000 15.2734
#
#
#
# Elastic Compliance Matrix: (Units=1/GPa)
#
#
# Indices 1 2 3 4 5 6 
#
# 1 0.009799 -0.000950 -0.002375 0.000000 0.000000 0.000000
# 2 -0.000950 0.010727 -0.002890 0.000000 0.000000 0.000000
# 3 -0.002375 -0.002890 0.010974 0.000000 0.000000 0.000000
# 4 0.000000 0.000000 0.000000 0.056378 0.000000 0.000000
# 5 0.000000 0.000000 0.000000 0.000000 -0.079871 0.000000
# 6 0.000000 0.000000 0.000000 0.000000 0.000000 0.065473
#
#
# Mechanical properties :
#
#
# Convention : Reuss Voigt Hill
#
# Bulk Modulus (GPa) = 52.43964 52.58066 52.51015
# Shear Modulus (GPa) = 54.19088 20.24753 37.21921
#
# Velocity S-wave (km/s) = 5.15320 3.14992 4.27068
# Velocity P-wave (km/s) = 7.81694 6.24466 7.07461
#
# Compressibility (1/GPa) = 0.01906954
#
# Stress axis : x y z
#
# Youngs Moduli (GPa) = 102.05537 93.22478 91.12490
#
# Poissons Ratio (x) = 0.08858 0.21640
# Poissons Ratio (y) = 0.09697 0.26335
# Poissons Ratio (z) = 0.24235 0.26942
#
# Static dielectric constant tensor:
#      x y z
#    x 3.599290 0.000000 0.000000 
#    y 0.000000 3.734670 0.000000 
#    z 0.000000 0.000000 3.695940 
# 
# 
# High freq. dielectric constant tensor:
#      x y z
#    x 1.783980 0.000000 0.000000 
#    y 0.000000 1.795840 0.000000 
#    z 0.000000 0.000000 1.805710 
# 
# From -- ./inp_files/14374.got.cif
#   From: 2010.03.12/outbox.cif.g09.slc.cpg/sg42_8_cif.got.tgz:14374.got - 2010.04.14 02:04:31.
