data_PCOD8186842
_publ_section_title
;
Structure prediction by ZEFSAII (Michael W. Deem and Ramdas Pophale) SiO2 
 PCOD8186842
Probable space group: F M M 2
;
_chemical_formula_sum "Si O2"
_cell_formula_units_Z 96
_cell_length_a 17.324172
_cell_length_b 11.721006
_cell_length_c 25.070505
_cell_angle_alpha 90.000000
_cell_angle_beta 90.000000
_cell_angle_gamma 90.000000
_cell_volume 5090.734613
_symmetry_space_group_name_H-M "F M M 2"
_symmetry_group_IT_number 42
_symmetry_cell_setting 'orthorhombic'
loop_
_space_group_symop_operation_xyz
x,y,z
-x,-y,z
-x,y,z
x,-y,z
x,1/2+y,1/2+z
-x,1/2-y,1/2+z
-x,1/2+y,1/2+z
x,1/2-y,1/2+z
1/2+x,y,1/2+z
1/2-x,-y,1/2+z
1/2-x,y,1/2+z
1/2+x,-y,1/2+z
1/2+x,1/2+y,z
1/2-x,1/2-y,z
1/2-x,1/2+y,z
1/2+x,1/2-y,z
loop_
_atom_site_type_symbol
_atom_site_label
_atom_site_fract_x
_atom_site_fract_y
_atom_site_fract_z
Si Si1 0.909514 0.869112 0.537480
Si Si2 0.660197 0.774319 0.137914
Si Si3 0.587330 0.366582 0.416694
Si Si4 0.587701 0.000000 0.310515
Si Si5 0.590840 0.872928 0.725154
Si Si6 0.160701 0.261583 0.322356
Si Si7 0.588268 0.500000 0.684608
O O1 0.864477 0.781830 0.575958
O O2 0.885179 0.841235 0.476960
O O3 0.000000 0.850224 0.544813
O O4 0.888060 0.000000 0.552192
O O5 0.750000 0.750000 0.142325
O O6 0.618216 0.670483 0.167501
O O7 0.635729 0.890630 0.166416
O O8 0.500000 0.322267 0.407730
O O9 0.590516 0.500000 0.404821
O O10 0.644896 0.304589 0.376941
O O11 0.634403 0.108964 0.331613
O O12 0.500000 0.000000 0.333217
O O13 0.584802 0.000000 0.247436
O O14 0.500000 0.875363 0.724584
O O15 0.615401 0.790569 0.772692
O O16 0.624405 0.000000 0.734615
O O17 0.250000 0.250000 0.308369
O O18 0.500000 0.500000 0.661390
#
# Coordination Sequence:
#
# PCOD8186842 Si02
#       7
#    16  16  16   8  16  16   8
#     4   9  18  36  64  90 111 152 210 250 284 350
#     4  12  24  35  61  90 125 152 191 254 305 346
#     4   9  19  38  64  88 114 154 204 248 290 355
#     4  11  24  40  62  89 118 162 210 244 291 362
#     4  11  24  40  60  85 119 161 199 236 292 367
#     4  12  25  37  61  88 125 155 194 253 306 353
#     4  11  22  40  64  85 114 164 212 242 285 360
#
# _framework density 18.857790000000001
#
# number of rings (size 3 to 8) (size 9 to 14) (size 15 to 20)
#    0.000    1.333    2.500    5.000    3.500    2.000 
#    0.000    0.000    1.833    0.000    0.000    0.000 
#    0.000    0.000    0.000    0.000    0.000    0.000 
#
# Total GULP energy -297651.937436 kJ/mol
# GULP energy per Si atom -12402.164060 kJ/mol
# Density = 1.881487 g / cm^3
# Si number density = 18.857790 Si / 1000 Ang^3
#
#
#
# Elastic Constant Matrix: (Units=GPa)
#
#
# Indices 1 2 3 4 5 6 
#
# 1 95.2477 44.9739 31.9682 0.0000 0.0000 0.0000
# 2 44.9739 93.4033 42.8846 0.0000 0.0000 0.0000
# 3 31.9682 42.8846 103.7469 0.0000 0.0000 0.0000
# 4 0.0000 0.0000 0.0000 30.4508 0.0000 0.0000
# 5 0.0000 0.0000 0.0000 0.0000 -117.6589 0.0000
# 6 0.0000 0.0000 0.0000 0.0000 0.0000 767.8444
#
#
#
# Elastic Compliance Matrix: (Units=1/GPa)
#
#
# Indices 1 2 3 4 5 6 
#
# 1 0.013876 -0.005823 -0.001869 0.000000 0.000000 0.000000
# 2 -0.005823 0.015658 -0.004678 0.000000 0.000000 0.000000
# 3 -0.001869 -0.004678 0.012148 0.000000 0.000000 0.000000
# 4 0.000000 0.000000 0.000000 0.032840 0.000000 0.000000
# 5 0.000000 0.000000 0.000000 0.000000 -0.008499 0.000000
# 6 0.000000 0.000000 0.000000 0.000000 0.000000 0.001302
#
#
# Mechanical properties :
#
#
# Convention : Reuss Voigt Hill
#
# Bulk Modulus (GPa) = 59.02345 59.11681 59.07013
# Shear Modulus (GPa) = 51.17073 147.63201 99.40137
#
# Velocity S-wave (km/s) = 5.21478 8.85759 7.26811
# Velocity P-wave (km/s) = 8.22349 11.66302 10.09088
#
# Compressibility (1/GPa) = 0.01694242
#
# Stress axis : x y z
#
# Youngs Moduli (GPa) = 72.06841 63.86511 82.31619
#
# Poissons Ratio (x) = 0.37190 0.15381
# Poissons Ratio (y) = 0.41968 0.38507
# Poissons Ratio (z) = 0.13466 0.29876
#
# Static dielectric constant tensor:
#      x y z
#    x 3.472590 0.000000 0.000000 
#    y 0.000000 3.672430 0.000000 
#    z 0.000000 0.000000 3.594740 
# 
# 
# High freq. dielectric constant tensor:
#      x y z
#    x 1.730120 0.000000 0.000000 
#    y 0.000000 1.728180 0.000000 
#    z 0.000000 0.000000 1.738980 
# 
# From -- ./inp_files/29857.got.cif
#   From: 2010.03.12/outbox.cif.g09.slc.cpg/sg42_15_cif.got.tgz:29857.got - 2010.04.14 02:04:31.
