data_PCOD8186472
_publ_section_title
;
Structure prediction by ZEFSAII (Michael W. Deem and Ramdas Pophale) SiO2 
 PCOD8186472
Probable space group: F M M 2
;
_chemical_formula_sum "Si O2"
_cell_formula_units_Z 112
_cell_length_a 18.439466
_cell_length_b 22.481918
_cell_length_c 13.432463
_cell_angle_alpha 90.000000
_cell_angle_beta 90.000000
_cell_angle_gamma 90.000000
_cell_volume 5568.488823
_symmetry_space_group_name_H-M "F M M 2"
_symmetry_group_IT_number 42
_symmetry_cell_setting 'orthorhombic'
loop_
_space_group_symop_operation_xyz
x,y,z
-x,-y,z
-x,y,z
x,-y,z
x,1/2+y,1/2+z
-x,1/2-y,1/2+z
-x,1/2+y,1/2+z
x,1/2-y,1/2+z
1/2+x,y,1/2+z
1/2-x,-y,1/2+z
1/2-x,y,1/2+z
1/2+x,-y,1/2+z
1/2+x,1/2+y,z
1/2-x,1/2-y,z
1/2-x,1/2+y,z
1/2+x,1/2-y,z
loop_
_atom_site_type_symbol
_atom_site_label
_atom_site_fract_x
_atom_site_fract_y
_atom_site_fract_z
Si Si1 0.333678 0.567821 0.230650
Si Si2 0.834804 0.799506 0.947492
Si Si3 0.416929 0.399123 0.032918
Si Si4 0.421324 0.065496 0.319784
Si Si5 0.584612 0.431475 0.429500
Si Si6 0.806473 0.147354 0.742857
Si Si7 0.183028 0.329393 0.021644
O O1 0.303165 0.500000 0.233231
O O2 0.367209 0.580131 0.123150
O O3 0.395841 0.576055 0.313435
O O4 0.271431 0.615830 0.254158
O O5 0.825200 0.805050 0.828596
O O6 0.904134 0.830928 0.997499
O O7 0.845107 0.730309 0.969286
O O8 0.766729 0.835948 0.992166
O O9 0.500000 0.407985 0.065037
O O10 0.395510 0.437248 0.935132
O O11 0.500000 0.097750 0.315137
O O12 0.366272 0.096390 0.246137
O O13 0.428321 0.000000 0.277085
O O14 0.500000 0.414878 0.444309
O O15 0.599055 0.500000 0.463241
O O16 0.635176 0.386863 0.493270
O O17 0.816797 0.181448 0.639643
#
# Coordination Sequence:
#
# PCOD8186472 Si02
#       7
#    16  16  16  16  16  16  16
#     4  11  21  35  60  91 125 165 207 253 305 366
#     4  10  23  41  62  90 121 161 202 258 306 363
#     4  10  20  37  59  89 125 161 205 253 305 360
#     4   9  19  36  58  86 124 164 202 251 304 357
#     4  10  23  42  62  90 129 166 204 253 310 372
#     4  11  22  39  61  92 119 157 206 254 304 368
#     4  11  23  41  65  91 119 162 202 253 310 367
#
# _framework density 20.113175999999999
#
# number of rings (size 3 to 8) (size 9 to 14) (size 15 to 20)
#    0.000    1.714    2.857    1.286    0.000    7.143 
#    0.000    1.429    0.000    0.000    0.000    0.000 
#    0.000    0.000    0.000    0.000    0.000    0.000 
#
# Total GULP energy -347029.660480 kJ/mol
# GULP energy per Si atom -12393.916446 kJ/mol
# Density = 2.006740 g / cm^3
# Si number density = 20.113176 Si / 1000 Ang^3
#
#
#
# Elastic Constant Matrix: (Units=GPa)
#
#
# Indices 1 2 3 4 5 6 
#
# 1 69.8629 35.7370 15.6511 0.0000 0.0000 0.0000
# 2 35.7370 114.0449 33.7469 0.0000 0.0000 0.0000
# 3 15.6511 33.7469 106.1335 0.0000 0.0000 0.0000
# 4 0.0000 0.0000 0.0000 16.8447 0.0000 0.0000
# 5 0.0000 0.0000 0.0000 0.0000 25.6257 0.0000
# 6 0.0000 0.0000 0.0000 0.0000 0.0000 26.0858
#
#
#
# Elastic Compliance Matrix: (Units=1/GPa)
#
#
# Indices 1 2 3 4 5 6 
#
# 1 0.017124 -0.005099 -0.000904 0.000000 0.000000 0.000000
# 2 -0.005099 0.011197 -0.002808 0.000000 0.000000 0.000000
# 3 -0.000904 -0.002808 0.010448 0.000000 0.000000 0.000000
# 4 0.000000 0.000000 0.000000 0.059366 0.000000 0.000000
# 5 0.000000 0.000000 0.000000 0.000000 0.039023 0.000000
# 6 0.000000 0.000000 0.000000 0.000000 0.000000 0.038335
#
#
# Mechanical properties :
#
#
# Convention : Reuss Voigt Hill
#
# Bulk Modulus (GPa) = 47.28635 51.14570 49.21602
# Shear Modulus (GPa) = 24.97931 27.37165 26.17548
#
# Velocity S-wave (km/s) = 3.52794 3.69301 3.61142
# Velocity P-wave (km/s) = 6.33690 6.60822 6.47398
#
# Compressibility (1/GPa) = 0.02114775
#
# Stress axis : x y z
#
# Youngs Moduli (GPa) = 58.39638 89.30801 95.70819
#
# Poissons Ratio (x) = 0.45534 0.08653
# Poissons Ratio (y) = 0.29774 0.26879
# Poissons Ratio (z) = 0.05280 0.25082
#
# Static dielectric constant tensor:
#      x y z
#    x 3.742970 0.000000 0.000000 
#    y 0.000000 3.592610 0.000000 
#    z 0.000000 0.000000 3.621270 
# 
# 
# High freq. dielectric constant tensor:
#      x y z
#    x 1.784070 0.000000 0.000000 
#    y 0.000000 1.778600 0.000000 
#    z 0.000000 0.000000 1.791430 
# 
# From -- ./inp_files/9687.got.cif
#   From: 2010.03.12/outbox.cif.g09.slc.cpg/sg42_5_cif.got.tgz:9687.got - 2010.04.14 02:04:31.
