data_PCOD8186971
_publ_section_title
;
Structure prediction by ZEFSAII (Michael W. Deem and Ramdas Pophale) SiO2 
 PCOD8186971
Probable space group: F D D 2
;
_chemical_formula_sum "Si O2"
_cell_formula_units_Z 80
_cell_length_a 21.446512
_cell_length_b 8.937004
_cell_length_c 19.376603
_cell_angle_alpha 90.000000
_cell_angle_beta 90.000000
_cell_angle_gamma 90.000000
_cell_volume 3713.866286
_symmetry_space_group_name_H-M "F D D 2"
_symmetry_group_IT_number 43
_symmetry_cell_setting 'orthorhombic'
loop_
_space_group_symop_operation_xyz
x,y,z
-x,-y,z
1/4-x,1/4+y,1/4+z
1/4+x,1/4-y,1/4+z
x,1/2+y,1/2+z
-x,1/2-y,1/2+z
1/4-x,3/4+y,3/4+z
1/4+x,3/4-y,3/4+z
1/2+x,y,1/2+z
1/2-x,-y,1/2+z
3/4-x,1/4+y,3/4+z
3/4+x,1/4-y,3/4+z
1/2+x,1/2+y,z
1/2-x,1/2-y,z
3/4-x,3/4+y,1/4+z
3/4+x,3/4-y,1/4+z
loop_
_atom_site_type_symbol
_atom_site_label
_atom_site_fract_x
_atom_site_fract_y
_atom_site_fract_z
Si Si1 0.910671 0.835101 0.031060
Si Si2 0.707041 0.991897 0.524966
Si Si3 0.248650 0.573833 0.380592
Si Si4 0.747181 0.423371 0.662857
Si Si5 0.663950 0.084577 0.781001
O O1 0.935405 0.722370 0.089627
O O2 0.835599 0.854699 0.030211
O O3 0.941166 0.998532 0.045436
O O4 0.934881 0.781983 0.955457
O O5 0.661559 0.844998 0.525435
O O6 0.747650 0.996701 0.455785
O O7 0.751945 0.983863 0.591375
O O8 0.250000 0.750000 0.388299
O O9 0.311723 0.521638 0.342243
O O10 0.750000 0.250000 0.643666
O O11 0.807830 0.471524 0.708094
#
# Coordination Sequence:
#
# PCOD8186971 Si02
#       5
#    16  16  16  16  16
#     4   8  19  35  57  77 112 156 192 230 299 367
#     4  10  19  32  62  83 112 153 198 235 299 364
#     4  11  20  35  57  90 120 147 198 265 289 339
#     4   9  15  31  53  85 104 141 196 233 271 354
#     4   8  19  36  58  80 110 159 191 232 299 366
#
# _framework density 21.540894000000002
#
# number of rings (size 3 to 8) (size 9 to 14) (size 15 to 20)
#    1.200    1.600    0.000    3.600    0.000    0.000 
#    0.000    4.000    0.000    9.600    0.000    0.000 
#    0.000    0.000    0.000    0.000    0.000    0.000 
#
# Total GULP energy -247764.453611 kJ/mol
# GULP energy per Si atom -12388.222681 kJ/mol
# Density = 2.149187 g / cm^3
# Si number density = 21.540894 Si / 1000 Ang^3
#
#
#
# Elastic Constant Matrix: (Units=GPa)
#
#
# Indices 1 2 3 4 5 6 
#
# 1 12.5135 13.9446 26.8931 0.0000 0.0000 0.0000
# 2 13.9446 41.4155 29.6964 0.0000 0.0000 0.0000
# 3 26.8931 29.6964 175.7424 0.0000 0.0000 0.0000
# 4 0.0000 0.0000 0.0000 24.0618 0.0000 0.0000
# 5 0.0000 0.0000 0.0000 0.0000 26.4035 0.0000
# 6 0.0000 0.0000 0.0000 0.0000 0.0000 13.7606
#
#
#
# Elastic Compliance Matrix: (Units=1/GPa)
#
#
# Indices 1 2 3 4 5 6 
#
# 1 0.167494 -0.043258 -0.018321 0.000000 0.000000 0.000000
# 2 -0.043258 0.038647 0.000089 0.000000 0.000000 0.000000
# 3 -0.018321 0.000089 0.008479 0.000000 0.000000 0.000000
# 4 0.000000 0.000000 0.000000 0.041560 0.000000 0.000000
# 5 0.000000 0.000000 0.000000 0.000000 0.037874 0.000000
# 6 0.000000 0.000000 0.000000 0.000000 0.000000 0.072671
#
#
# Mechanical properties :
#
#
# Convention : Reuss Voigt Hill
#
# Bulk Modulus (GPa) = 10.91243 41.19331 26.05287
# Shear Modulus (GPa) = 9.61076 23.45435 16.53256
#
# Velocity S-wave (km/s) = 2.11455 3.30332 2.77338
# Velocity P-wave (km/s) = 3.32245 5.80638 4.73037
#
# Compressibility (1/GPa) = 0.09163861
#
# Stress axis : x y z
#
# Youngs Moduli (GPa) = 5.97037 25.87550 117.94273
#
# Poissons Ratio (x) = 1.11933 2.16086
# Poissons Ratio (y) = 0.25827 -0.01053
# Poissons Ratio (z) = 0.10938 -0.00231
#
# Static dielectric constant tensor:
#      x y z
#    x 3.542090 0.000000 0.000000 
#    y 0.000000 3.308030 0.000000 
#    z 0.000000 0.000000 3.801260 
# 
# 
# High freq. dielectric constant tensor:
#      x y z
#    x 1.822900 0.000000 0.000000 
#    y 0.000000 1.792090 0.000000 
#    z 0.000000 0.000000 1.852520 
# 
# From -- ./inp_files/14972.got.cif
#   From: 2010.06.25/outbox.cif.g09.slc.cpg/sg43_8_cif.got.tgz:14972.got - 2010.06.26 16:48:59.
