data_PCOD8186524
_publ_section_title
;
Structure prediction by ZEFSAII (Michael W. Deem and Ramdas Pophale) SiO2 
 PCOD8186524
Probable space group: F M M 2
;
_chemical_formula_sum "Si O2"
_cell_formula_units_Z 112
_cell_length_a 32.318780
_cell_length_b 13.589404
_cell_length_c 13.274843
_cell_angle_alpha 90.000000
_cell_angle_beta 90.000000
_cell_angle_gamma 90.000000
_cell_volume 5830.217567
_symmetry_space_group_name_H-M "F M M 2"
_symmetry_group_IT_number 42
_symmetry_cell_setting 'orthorhombic'
loop_
_space_group_symop_operation_xyz
x,y,z
-x,-y,z
-x,y,z
x,-y,z
x,1/2+y,1/2+z
-x,1/2-y,1/2+z
-x,1/2+y,1/2+z
x,1/2-y,1/2+z
1/2+x,y,1/2+z
1/2-x,-y,1/2+z
1/2-x,y,1/2+z
1/2+x,-y,1/2+z
1/2+x,1/2+y,z
1/2-x,1/2-y,z
1/2-x,1/2+y,z
1/2+x,1/2-y,z
loop_
_atom_site_type_symbol
_atom_site_label
_atom_site_fract_x
_atom_site_fract_y
_atom_site_fract_z
Si Si1 0.730003 0.112202 0.328020
Si Si2 0.809187 0.203340 0.243642
Si Si3 0.097971 0.206837 0.298398
Si Si4 0.952544 0.793694 0.097911
Si Si5 0.314123 0.612863 0.030993
Si Si6 0.046753 0.389179 0.967578
Si Si7 0.401050 0.112932 0.432686
O O1 0.777897 0.137765 0.309921
O O2 0.700841 0.181204 0.259146
O O3 0.720728 0.129424 0.446079
O O4 0.720233 0.000000 0.297108
O O5 0.854630 0.177113 0.281905
O O6 0.803648 0.181319 0.125524
O O7 0.074148 0.188448 0.195910
O O8 0.079300 0.132920 0.380098
O O9 0.092826 0.319745 0.334077
O O10 0.945515 0.681651 0.062342
O O11 0.938219 0.868659 0.010723
O O12 0.000000 0.816366 0.122904
O O13 0.315190 0.500000 0.067700
O O14 0.358240 0.643698 0.985364
O O15 0.053464 0.500000 0.005998
O O16 0.000000 0.373253 0.926116
O O17 0.400881 0.000000 0.397143
#
# Coordination Sequence:
#
# PCOD8186524 Si02
#       7
#    16  16  16  16  16  16  16
#     4  10  23  41  60  85 118 155 194 243 297 355
#     4  11  22  37  63  89 117 153 198 246 298 353
#     4  11  21  36  61  88 117 153 201 244 293 349
#     4  10  21  38  59  86 120 158 200 245 292 349
#     4  10  20  39  62  84 115 152 191 240 300 351
#     4   9  20  38  57  82 119 157 192 239 295 344
#     4  10  21  38  61  86 119 156 195 245 296 353
#
# _framework density 19.210260999999999
#
# number of rings (size 3 to 8) (size 9 to 14) (size 15 to 20)
#    0.000    1.857    2.857    0.857    0.000    5.429 
#    0.000    0.000    0.000    0.857    0.000    0.000 
#    0.000    0.000    0.000    0.000    0.000    0.000 
#
# Total GULP energy -347279.639807 kJ/mol
# GULP energy per Si atom -12402.844279 kJ/mol
# Density = 1.916654 g / cm^3
# Si number density = 19.210261 Si / 1000 Ang^3
#
#
#
# Elastic Constant Matrix: (Units=GPa)
#
#
# Indices 1 2 3 4 5 6 
#
# 1 108.1594 3.2598 14.5473 0.0000 0.0000 0.0000
# 2 3.2598 72.7382 6.7380 0.0000 0.0000 0.0000
# 3 14.5473 6.7380 49.6278 0.0000 0.0000 0.0000
# 4 0.0000 0.0000 0.0000 18.9696 0.0000 0.0000
# 5 0.0000 0.0000 0.0000 0.0000 23.9573 0.0000
# 6 0.0000 0.0000 0.0000 0.0000 0.0000 22.6537
#
#
#
# Elastic Compliance Matrix: (Units=1/GPa)
#
#
# Indices 1 2 3 4 5 6 
#
# 1 0.009627 -0.000172 -0.002799 0.000000 0.000000 0.000000
# 2 -0.000172 0.013926 -0.001840 0.000000 0.000000 0.000000
# 3 -0.002799 -0.001840 0.021220 0.000000 0.000000 0.000000
# 4 0.000000 0.000000 0.000000 0.052716 0.000000 0.000000
# 5 0.000000 0.000000 0.000000 0.000000 0.041741 0.000000
# 6 0.000000 0.000000 0.000000 0.000000 0.000000 0.044143
#
#
# Mechanical properties :
#
#
# Convention : Reuss Voigt Hill
#
# Bulk Modulus (GPa) = 28.44844 31.06842 29.75843
# Shear Modulus (GPa) = 24.42445 26.84811 25.63628
#
# Velocity S-wave (km/s) = 3.56958 3.74249 3.65706
# Velocity P-wave (km/s) = 5.64183 5.90618 5.77552
#
# Compressibility (1/GPa) = 0.03515131
#
# Stress axis : x y z
#
# Youngs Moduli (GPa) = 103.87223 71.80747 47.12486
#
# Poissons Ratio (x) = 0.01237 0.13189
# Poissons Ratio (y) = 0.01789 0.08672
# Poissons Ratio (z) = 0.29070 0.13215
#
# Static dielectric constant tensor:
#      x y z
#    x 3.698040 0.000000 0.000000 
#    y 0.000000 3.551270 0.000000 
#    z 0.000000 0.000000 3.379790 
# 
# 
# High freq. dielectric constant tensor:
#      x y z
#    x 1.756770 0.000000 0.000000 
#    y 0.000000 1.746550 0.000000 
#    z 0.000000 0.000000 1.738830 
# 
# From -- ./inp_files/8142.got.cif
#   From: 2010.03.12/outbox.cif.g09.slc.cpg/sg42_5_cif.got.tgz:8142.got - 2010.04.14 02:04:31.
