data_PCOD8186720
_publ_section_title
;
Structure prediction by ZEFSAII (Michael W. Deem and Ramdas Pophale) SiO2 
 PCOD8186720
Probable space group: F M M 2
;
_chemical_formula_sum "Si O2"
_cell_formula_units_Z 112
_cell_length_a 31.532286
_cell_length_b 13.882415
_cell_length_c 12.405419
_cell_angle_alpha 90.000000
_cell_angle_beta 90.000000
_cell_angle_gamma 90.000000
_cell_volume 5430.401210
_symmetry_space_group_name_H-M "F M M 2"
_symmetry_group_IT_number 42
_symmetry_cell_setting 'orthorhombic'
loop_
_space_group_symop_operation_xyz
x,y,z
-x,-y,z
-x,y,z
x,-y,z
x,1/2+y,1/2+z
-x,1/2-y,1/2+z
-x,1/2+y,1/2+z
x,1/2-y,1/2+z
1/2+x,y,1/2+z
1/2-x,-y,1/2+z
1/2-x,y,1/2+z
1/2+x,-y,1/2+z
1/2+x,1/2+y,z
1/2-x,1/2-y,z
1/2-x,1/2+y,z
1/2+x,1/2-y,z
loop_
_atom_site_type_symbol
_atom_site_label
_atom_site_fract_x
_atom_site_fract_y
_atom_site_fract_z
Si Si1 0.331231 0.113134 0.838980
Si Si2 0.808978 0.207800 0.113888
Si Si3 0.404870 0.107164 0.177475
Si Si4 0.757499 0.610911 0.443497
Si Si5 0.613065 0.258647 0.483834
Si Si6 0.451383 0.110294 0.385261
Si Si7 0.811731 0.109666 0.738983
O O1 0.319585 0.145503 0.719202
O O2 0.291029 0.134505 0.915623
O O3 0.371027 0.173480 0.885279
O O4 0.342475 0.000000 0.838860
O O5 0.798153 0.318840 0.143027
O O6 0.768195 0.166093 0.053123
O O7 0.848431 0.198208 0.033277
O O8 0.444130 0.124859 0.257266
O O9 0.362491 0.120801 0.251471
O O10 0.405178 0.000000 0.128699
O O11 0.407882 0.177264 0.077030
O O12 0.765530 0.500000 0.464377
O O13 0.788559 0.645158 0.346985
O O14 0.577218 0.184243 0.450289
O O15 0.500000 0.133558 0.411482
O O16 0.439979 0.000000 0.417430
O O17 0.798442 0.000000 0.708084
#
# Coordination Sequence:
#
# PCOD8186720 Si02
#       7
#    16  16  16  16  16  16  16
#     4  11  25  41  57  85 121 157 203 255 300 344
#     4  11  22  37  60  85 115 160 206 246 296 355
#     4   9  18  35  60  87 117 156 197 236 285 345
#     4  10  22  39  57  80 115 158 204 252 297 341
#     4  11  22  38  61  90 119 154 189 236 297 356
#     4  10  22  41  65  93 121 147 184 235 287 351
#     4   9  19  36  58  86 119 155 202 255 297 340
#
# _framework density 20.624625999999999
#
# number of rings (size 3 to 8) (size 9 to 14) (size 15 to 20)
#    0.000    1.857    0.000    4.286    0.000    9.143 
#    0.000    5.714    0.000    3.000    0.000    0.000 
#    0.000    0.000    0.000    0.000    0.000    0.000 
#
# Total GULP energy -347229.420725 kJ/mol
# GULP energy per Si atom -12401.050740 kJ/mol
# Density = 2.057768 g / cm^3
# Si number density = 20.624626 Si / 1000 Ang^3
#
#
#
# Elastic Constant Matrix: (Units=GPa)
#
#
# Indices 1 2 3 4 5 6 
#
# 1 87.2437 67.1506 42.0289 0.0000 0.0000 0.0000
# 2 67.1506 119.8184 45.1241 0.0000 0.0000 0.0000
# 3 42.0289 45.1241 68.2583 0.0000 0.0000 0.0000
# 4 0.0000 0.0000 0.0000 39.2974 0.0000 0.0000
# 5 0.0000 0.0000 0.0000 0.0000 22.1449 0.0000
# 6 0.0000 0.0000 0.0000 0.0000 0.0000 35.6744
#
#
#
# Elastic Compliance Matrix: (Units=1/GPa)
#
#
# Indices 1 2 3 4 5 6 
#
# 1 0.022653 -0.009910 -0.007397 0.000000 0.000000 0.000000
# 2 -0.009910 0.015448 -0.004110 0.000000 0.000000 0.000000
# 3 -0.007397 -0.004110 0.021922 0.000000 0.000000 0.000000
# 4 0.000000 0.000000 0.000000 0.025447 0.000000 0.000000
# 5 0.000000 0.000000 0.000000 0.000000 0.045157 0.000000
# 6 0.000000 0.000000 0.000000 0.000000 0.000000 0.028031
#
#
# Mechanical properties :
#
#
# Convention : Reuss Voigt Hill
#
# Bulk Modulus (GPa) = 58.17868 64.88083 61.52975
# Shear Modulus (GPa) = 24.12863 27.49113 25.80988
#
# Velocity S-wave (km/s) = 3.42408 3.65489 3.54137
# Velocity P-wave (km/s) = 6.62586 7.02404 6.82786
#
# Compressibility (1/GPa) = 0.01718843
#
# Stress axis : x y z
#
# Youngs Moduli (GPa) = 44.14399 64.73413 45.61601
#
# Poissons Ratio (x) = 0.64151 0.33743
# Poissons Ratio (y) = 0.43746 0.18750
# Poissons Ratio (z) = 0.32654 0.26608
#
# Static dielectric constant tensor:
#      x y z
#    x 3.579950 0.000000 0.000000 
#    y 0.000000 3.947920 0.000000 
#    z 0.000000 0.000000 3.680230 
# 
# 
# High freq. dielectric constant tensor:
#      x y z
#    x 1.782650 0.000000 0.000000 
#    y 0.000000 1.823990 0.000000 
#    z 0.000000 0.000000 1.809690 
# 
# From -- ./inp_files/8102.got.cif
#   From: 2010.03.12/outbox.cif.g09.slc.cpg/sg42_5_cif.got.tgz:8102.got - 2010.04.14 02:04:31.
