data_PCOD8186641
_publ_section_title
;
Structure prediction by ZEFSAII (Michael W. Deem and Ramdas Pophale) SiO2 
 PCOD8186641
Probable space group: F M M 2
;
_chemical_formula_sum "Si O2"
_cell_formula_units_Z 80
_cell_length_a 15.503671
_cell_length_b 8.923381
_cell_length_c 28.844450
_cell_angle_alpha 90.000000
_cell_angle_beta 90.000000
_cell_angle_gamma 90.000000
_cell_volume 3990.490144
_symmetry_space_group_name_H-M "F M M 2"
_symmetry_group_IT_number 42
_symmetry_cell_setting 'orthorhombic'
loop_
_space_group_symop_operation_xyz
x,y,z
-x,-y,z
-x,y,z
x,-y,z
x,1/2+y,1/2+z
-x,1/2-y,1/2+z
-x,1/2+y,1/2+z
x,1/2-y,1/2+z
1/2+x,y,1/2+z
1/2-x,-y,1/2+z
1/2-x,y,1/2+z
1/2+x,-y,1/2+z
1/2+x,1/2+y,z
1/2-x,1/2-y,z
1/2-x,1/2+y,z
1/2+x,1/2-y,z
loop_
_atom_site_type_symbol
_atom_site_label
_atom_site_fract_x
_atom_site_fract_y
_atom_site_fract_z
Si Si1 0.000000 0.176141 0.575021
Si Si2 0.901707 0.825669 0.325851
Si Si3 0.500000 0.821859 0.476674
Si Si4 0.163507 0.176136 0.636658
Si Si5 0.598352 0.823080 0.234283
Si Si6 0.838764 0.677603 0.925756
O O1 0.000000 0.279372 0.530274
O O2 0.916311 0.220724 0.604519
O O3 0.000000 0.000000 0.562078
O O4 0.860084 0.743010 0.281346
O O5 0.848086 0.783637 0.371453
O O6 0.000000 0.771977 0.334123
O O7 0.898079 0.000000 0.315412
O O8 0.415722 0.751915 0.453758
O O9 0.500000 0.000000 0.470291
O O10 0.250000 0.250000 0.616359
O O11 0.147918 0.236829 0.688929
O O12 0.175781 0.000000 0.637082
O O13 0.500000 0.767298 0.230369
O O14 0.603084 0.000000 0.236708
O O15 0.839648 0.500000 0.934804
O O16 0.750000 0.750000 0.943761
#
# Coordination Sequence:
#
# PCOD8186641 Si02
#       6
#     8  16   8  16  16  16
#     4  10  22  44  67  84 115 159 196 245 309 364
#     4   9  18  34  56  84 120 161 201 243 295 350
#     4  12  26  44  67  94 121 155 202 253 313 376
#     4  10  21  38  61  88 119 156 199 243 295 355
#     4   9  17  32  55  83 116 157 203 242 285 349
#     4  11  23  42  65  92 126 163 205 253 304 363
#
# _framework density 20.047661999999999
#
# number of rings (size 3 to 8) (size 9 to 14) (size 15 to 20)
#    0.000    2.000    2.000    1.500    0.000    4.800 
#    0.000    6.000    0.000    0.000    0.000    0.000 
#    0.000    0.000    0.000    0.000    0.000    0.000 
#
# Total GULP energy -248027.246176 kJ/mol
# GULP energy per Si atom -12401.362309 kJ/mol
# Density = 2.000203 g / cm^3
# Si number density = 20.047662 Si / 1000 Ang^3
#
#
#
# Elastic Constant Matrix: (Units=GPa)
#
#
# Indices 1 2 3 4 5 6 
#
# 1 150.6711 57.0932 66.9066 0.0000 0.0000 0.0000
# 2 57.0932 76.0521 60.3224 0.0000 0.0000 0.0000
# 3 66.9066 60.3224 126.3292 0.0000 0.0000 0.0000
# 4 0.0000 0.0000 0.0000 35.8028 0.0000 0.0000
# 5 0.0000 0.0000 0.0000 0.0000 -5.5086 0.0000
# 6 0.0000 0.0000 0.0000 0.0000 0.0000 32.0622
#
#
#
# Elastic Compliance Matrix: (Units=1/GPa)
#
#
# Indices 1 2 3 4 5 6 
#
# 1 0.009818 -0.005225 -0.002705 0.000000 0.000000 0.000000
# 2 -0.005225 0.023946 -0.008667 0.000000 0.000000 0.000000
# 3 -0.002705 -0.008667 0.013487 0.000000 0.000000 0.000000
# 4 0.000000 0.000000 0.000000 0.027931 0.000000 0.000000
# 5 0.000000 0.000000 0.000000 0.000000 -0.181535 0.000000
# 6 0.000000 0.000000 0.000000 0.000000 0.000000 0.031189
#
#
# Mechanical properties :
#
#
# Convention : Reuss Voigt Hill
#
# Bulk Modulus (GPa) = 71.13876 80.18852 75.66364
# Shear Modulus (GPa) = -134.10211 23.71997 -55.19107
#
# Velocity S-wave (km/s) = -8.18760 3.44347 -5.25259
# Velocity P-wave (km/s) = 7.33625 7.47635 1.01860
#
# Compressibility (1/GPa) = 0.01405703
#
# Stress axis : x y z
#
# Youngs Moduli (GPa) = 101.85382 41.76125 74.14680
#
# Poissons Ratio (x) = 0.21821 0.20055
# Poissons Ratio (y) = 0.53219 0.64261
# Poissons Ratio (z) = 0.27550 0.36194
#
# Static dielectric constant tensor:
#      x y z
#    x 2.599620 0.000000 0.000000 
#    y 0.000000 3.473040 0.000000 
#    z 0.000000 0.000000 3.781820 
# 
# 
# High freq. dielectric constant tensor:
#      x y z
#    x 1.783610 0.000000 0.000000 
#    y 0.000000 1.771880 0.000000 
#    z 0.000000 0.000000 1.786350 
# 
# From -- ./inp_files/31307.got.cif
#   From: 2010.03.12/outbox.cif.g09.slc.cpg/sg42_16_cif.got.tgz:31307.got - 2010.04.14 02:04:31.
