data_PCOD8186439
_publ_section_title
;
Structure prediction by ZEFSAII (Michael W. Deem and Ramdas Pophale) SiO2 
 PCOD8186439
Probable space group: F M M 2
;
_chemical_formula_sum "Si O2"
_cell_formula_units_Z 96
_cell_length_a 17.877047
_cell_length_b 8.765303
_cell_length_c 30.914277
_cell_angle_alpha 90.000000
_cell_angle_beta 90.000000
_cell_angle_gamma 90.000000
_cell_volume 4844.197145
_symmetry_space_group_name_H-M "F M M 2"
_symmetry_group_IT_number 42
_symmetry_cell_setting 'orthorhombic'
loop_
_space_group_symop_operation_xyz
x,y,z
-x,-y,z
-x,y,z
x,-y,z
x,1/2+y,1/2+z
-x,1/2-y,1/2+z
-x,1/2+y,1/2+z
x,1/2-y,1/2+z
1/2+x,y,1/2+z
1/2-x,-y,1/2+z
1/2-x,y,1/2+z
1/2+x,-y,1/2+z
1/2+x,1/2+y,z
1/2-x,1/2-y,z
1/2-x,1/2+y,z
1/2+x,1/2-y,z
loop_
_atom_site_type_symbol
_atom_site_label
_atom_site_fract_x
_atom_site_fract_y
_atom_site_fract_z
Si Si1 0.911576 0.173181 0.849930
Si Si2 0.168959 0.819471 0.429574
Si Si3 0.587586 0.677305 0.690585
Si Si4 0.085828 0.320684 0.015523
Si Si5 0.831281 0.180188 0.270037
Si Si6 0.588773 0.171271 0.602785
O O1 0.883982 0.262559 0.891665
O O2 0.884600 0.255810 0.806937
O O3 0.000000 0.176241 0.849802
O O4 0.881157 0.000000 0.850729
O O5 0.250000 0.750000 0.423337
O O6 0.134232 0.764199 0.474922
O O7 0.173977 0.000000 0.427341
O O8 0.500000 0.712992 0.696810
O O9 0.604941 0.500000 0.697809
O O10 0.634558 0.776339 0.723956
O O11 0.615349 0.725488 0.642893
O O12 0.092093 0.500000 0.022700
O O13 0.000000 0.272351 0.007269
O O14 0.119979 0.240207 0.058041
O O15 0.750000 0.250000 0.275986
O O16 0.825775 0.000000 0.274061
O O17 0.500000 0.173199 0.600544
O O18 0.619582 0.000000 0.608716
#
# Coordination Sequence:
#
# PCOD8186439 Si02
#       6
#    16  16  16  16  16  16
#     4  11  24  42  64  89 116 147 187 234 283 337
#     4  11  23  39  59  84 117 154 192 235 285 341
#     4  10  20  36  59  86 117 152 192 238 286 337
#     4   9  18  34  56  81 110 147 191 238 288 341
#     4  12  25  41  61  85 117 153 190 233 283 340
#     4   9  17  30  52  83 115 147 188 238 288 337
#
# _framework density 19.817525
#
# number of rings (size 3 to 8) (size 9 to 14) (size 15 to 20)
#    0.000    1.667    0.000    5.000    0.000    8.333 
#    0.000    2.500    0.000    2.000    0.000    0.000 
#    0.000    0.000    0.000    0.000    0.000    0.000 
#
# Total GULP energy -297703.335296 kJ/mol
# GULP energy per Si atom -12404.305637 kJ/mol
# Density = 1.977242 g / cm^3
# Si number density = 19.817525 Si / 1000 Ang^3
#
#
#
# Elastic Constant Matrix: (Units=GPa)
#
#
# Indices 1 2 3 4 5 6 
#
# 1 62.2879 30.7782 33.7278 0.0000 0.0000 0.0000
# 2 30.7782 79.3725 37.3024 0.0000 0.0000 0.0000
# 3 33.7278 37.3024 139.1246 0.0000 0.0000 0.0000
# 4 0.0000 0.0000 0.0000 35.5669 0.0000 0.0000
# 5 0.0000 0.0000 0.0000 0.0000 -5.3229 0.0000
# 6 0.0000 0.0000 0.0000 0.0000 0.0000 25.5654
#
#
#
# Elastic Compliance Matrix: (Units=1/GPa)
#
#
# Indices 1 2 3 4 5 6 
#
# 1 0.021141 -0.006624 -0.003349 0.000000 0.000000 0.000000
# 2 -0.006624 0.016491 -0.002816 0.000000 0.000000 0.000000
# 3 -0.003349 -0.002816 0.008755 0.000000 0.000000 0.000000
# 4 0.000000 0.000000 0.000000 0.028116 0.000000 0.000000
# 5 0.000000 0.000000 0.000000 0.000000 -0.187868 0.000000
# 6 0.000000 0.000000 0.000000 0.000000 0.000000 0.039115
#
#
# Mechanical properties :
#
#
# Convention : Reuss Voigt Hill
#
# Bulk Modulus (GPa) = 48.05635 53.82244 50.93939
# Shear Modulus (GPa) = -119.79945 23.09366 -48.35289
#
# Velocity S-wave (km/s) = -7.78348 3.41737 -4.94490
# Velocity P-wave (km/s) = 7.51496 6.54135 2.61585
#
# Compressibility (1/GPa) = 0.02080890
#
# Stress axis : x y z
#
# Youngs Moduli (GPa) = 47.30138 60.64058 114.22444
#
# Poissons Ratio (x) = 0.40167 0.38256
# Poissons Ratio (y) = 0.31332 0.32162
# Poissons Ratio (z) = 0.15842 0.17075
#
# Static dielectric constant tensor:
#      x y z
#    x 3.453120 0.000000 0.000000 
#    y 0.000000 3.808310 0.000000 
#    z 0.000000 0.000000 3.865410 
# 
# 
# High freq. dielectric constant tensor:
#      x y z
#    x 1.754810 0.000000 0.000000 
#    y 0.000000 1.785150 0.000000 
#    z 0.000000 0.000000 1.792670 
# 
# From -- ./inp_files/32998.got.cif
#   From: 2010.03.12/outbox.cif.g09.slc.cpg/sg42_17_cif.got.tgz:32998.got - 2010.04.14 02:04:31.
