data_PCOD8186452
_publ_section_title
;
Structure prediction by ZEFSAII (Michael W. Deem and Ramdas Pophale) SiO2 
 PCOD8186452
Probable space group: F M M 2
;
_chemical_formula_sum "Si O2"
_cell_formula_units_Z 96
_cell_length_a 17.828954
_cell_length_b 27.255543
_cell_length_c 9.877939
_cell_angle_alpha 90.000000
_cell_angle_beta 90.000000
_cell_angle_gamma 90.000000
_cell_volume 4800.064167
_symmetry_space_group_name_H-M "F M M 2"
_symmetry_group_IT_number 42
_symmetry_cell_setting 'orthorhombic'
loop_
_space_group_symop_operation_xyz
x,y,z
-x,-y,z
-x,y,z
x,-y,z
x,1/2+y,1/2+z
-x,1/2-y,1/2+z
-x,1/2+y,1/2+z
x,1/2-y,1/2+z
1/2+x,y,1/2+z
1/2-x,-y,1/2+z
1/2-x,y,1/2+z
1/2+x,-y,1/2+z
1/2+x,1/2+y,z
1/2-x,1/2-y,z
1/2-x,1/2+y,z
1/2+x,1/2-y,z
loop_
_atom_site_type_symbol
_atom_site_label
_atom_site_fract_x
_atom_site_fract_y
_atom_site_fract_z
Si Si1 0.723060 0.898356 0.378530
Si Si2 0.853629 0.671373 0.955403
Si Si3 0.915759 0.354992 0.675968
Si Si4 0.913656 0.224614 0.966618
Si Si5 0.414559 0.851573 0.246550
Si Si6 0.814316 0.944147 0.143136
O O1 0.771003 0.849140 0.416388
O O2 0.637627 0.885221 0.341199
O O3 0.756145 0.928269 0.255595
O O4 0.726401 0.936785 0.500326
O O5 0.909625 0.657986 0.833669
O O6 0.855967 0.730043 0.970842
O O7 0.882534 0.647863 0.094827
O O8 0.879462 0.313748 0.577350
O O9 0.885455 0.408964 0.648586
O O10 0.000000 0.357060 0.627747
O O11 0.912990 0.202444 0.814469
O O12 0.000000 0.240661 0.002741
O O13 0.500000 0.871971 0.246536
O O14 0.840258 0.000000 0.162819
#
# Coordination Sequence:
#
# PCOD8186452 Si02
#       6
#    16  16  16  16  16  16
#     4  11  23  42  61  95 120 159 214 262 314 376
#     4  11  22  37  62  88 129 170 207 247 310 371
#     4  10  21  38  61  94 126 158 212 261 306 378
#     4  10  20  36  60  91 127 169 209 250 306 373
#     4  11  22  39  62  89 126 167 207 254 310 367
#     4  11  23  42  66  87 119 164 210 266 326 373
#
# _framework density 19.999732000000002
#
# number of rings (size 3 to 8) (size 9 to 14) (size 15 to 20)
#    0.000    1.333    3.333    3.000    0.000    3.667 
#    0.000    1.667    0.000    1.500    0.000    0.000 
#    0.000    0.000    0.000    0.000    0.000    0.000 
#
# Total GULP energy -297529.150422 kJ/mol
# GULP energy per Si atom -12397.047934 kJ/mol
# Density = 1.995421 g / cm^3
# Si number density = 19.999732 Si / 1000 Ang^3
#
#
#
# Elastic Constant Matrix: (Units=GPa)
#
#
# Indices 1 2 3 4 5 6 
#
# 1 88.0425 53.5371 43.1905 0.0000 0.0000 0.0000
# 2 53.5371 143.1672 42.2070 0.0000 0.0000 0.0000
# 3 43.1905 42.2070 143.8969 0.0000 0.0000 0.0000
# 4 0.0000 0.0000 0.0000 19.8534 0.0000 0.0000
# 5 0.0000 0.0000 0.0000 0.0000 24.1608 0.0000
# 6 0.0000 0.0000 0.0000 0.0000 0.0000 14.4836
#
#
#
# Elastic Compliance Matrix: (Units=1/GPa)
#
#
# Indices 1 2 3 4 5 6 
#
# 1 0.016049 -0.005015 -0.003346 0.000000 0.000000 0.000000
# 2 -0.005015 0.009213 -0.001197 0.000000 0.000000 0.000000
# 3 -0.003346 -0.001197 0.008305 0.000000 0.000000 0.000000
# 4 0.000000 0.000000 0.000000 0.050369 0.000000 0.000000
# 5 0.000000 0.000000 0.000000 0.000000 0.041389 0.000000
# 6 0.000000 0.000000 0.000000 0.000000 0.000000 0.069044
#
#
# Mechanical properties :
#
#
# Convention : Reuss Voigt Hill
#
# Bulk Modulus (GPa) = 69.20126 72.55287 70.87707
# Shear Modulus (GPa) = 22.90395 27.44437 25.17416
#
# Velocity S-wave (km/s) = 3.38777 3.70839 3.55170
# Velocity P-wave (km/s) = 7.06957 7.39540 7.23432
#
# Compressibility (1/GPa) = 0.01445060
#
# Stress axis : x y z
#
# Youngs Moduli (GPa) = 62.30814 108.54071 120.41108
#
# Poissons Ratio (x) = 0.54434 0.40292
# Poissons Ratio (y) = 0.31248 0.14414
# Poissons Ratio (z) = 0.20849 0.12993
#
# Static dielectric constant tensor:
#      x y z
#    x 3.525800 0.000000 0.000000 
#    y 0.000000 3.420790 0.000000 
#    z 0.000000 0.000000 4.018170 
# 
# 
# High freq. dielectric constant tensor:
#      x y z
#    x 1.770610 0.000000 0.000000 
#    y 0.000000 1.753650 0.000000 
#    z 0.000000 0.000000 1.809610 
# 
# From -- ./inp_files/4176.got.cif
#   From: 2010.03.12/outbox.cif.g09.slc.cpg/sg42_3_cif.got.tgz:4176.got - 2010.04.14 02:04:31.
