data_PCOD8186339
_publ_section_title
;
Structure prediction by ZEFSAII (Michael W. Deem and Ramdas Pophale) SiO2 
 PCOD8186339
Probable space group: F M M 2
;
_chemical_formula_sum "Si O2"
_cell_formula_units_Z 96
_cell_length_a 25.562605
_cell_length_b 9.240046
_cell_length_c 23.084545
_cell_angle_alpha 90.000000
_cell_angle_beta 90.000000
_cell_angle_gamma 90.000000
_cell_volume 5452.561359
_symmetry_space_group_name_H-M "F M M 2"
_symmetry_group_IT_number 42
_symmetry_cell_setting 'orthorhombic'
loop_
_space_group_symop_operation_xyz
x,y,z
-x,-y,z
-x,y,z
x,-y,z
x,1/2+y,1/2+z
-x,1/2-y,1/2+z
-x,1/2+y,1/2+z
x,1/2-y,1/2+z
1/2+x,y,1/2+z
1/2-x,-y,1/2+z
1/2-x,y,1/2+z
1/2+x,-y,1/2+z
1/2+x,1/2+y,z
1/2-x,1/2-y,z
1/2-x,1/2+y,z
1/2+x,1/2-y,z
loop_
_atom_site_type_symbol
_atom_site_label
_atom_site_fract_x
_atom_site_fract_y
_atom_site_fract_z
Si Si1 0.000000 0.672583 0.284580
Si Si2 0.301590 0.669778 0.410981
Si Si3 0.698740 0.331808 0.278456
Si Si4 0.000000 0.831985 0.404141
Si Si5 0.408568 0.668051 0.219723
Si Si6 0.940405 0.667948 0.590475
Si Si7 0.901413 0.168828 0.482620
O O1 0.000000 0.727099 0.349913
O O2 0.051336 0.731350 0.253332
O O3 0.000000 0.500000 0.282963
O O4 0.292483 0.500000 0.417145
O O5 0.250000 0.750000 0.433564
O O6 0.314023 0.712460 0.344617
O O7 0.349411 0.723133 0.450383
O O8 0.711095 0.500000 0.273534
O O9 0.750000 0.250000 0.255213
O O10 0.649632 0.287969 0.239001
O O11 0.050222 0.793080 0.441832
O O12 0.000000 0.000000 0.384376
O O13 0.420705 0.500000 0.234645
O O14 0.413374 0.697715 0.151795
O O15 0.940031 0.500000 0.574825
O O16 0.906112 0.750456 0.543351
O O17 0.000000 0.726586 0.591694
O O18 0.899138 0.000000 0.496128
#
# Coordination Sequence:
#
# PCOD8186339 Si02
#       7
#     8  16  16   8  16  16  16
#     4  12  24  33  50  83 113 136 172 230 277 310
#     4   9  18  33  53  79 105 136 176 217 265 318
#     4   9  18  34  58  81 106 139 178 221 266 321
#     4  10  20  35  54  75 105 142 174 212 269 338
#     4  10  20  38  58  76 106 150 185 212 264 336
#     4  10  20  35  55  78 106 144 184 220 263 317
#     4  10  20  35  56  79 104 139 182 221 265 320
#
# _framework density 17.606404999999999
#
# number of rings (size 3 to 8) (size 9 to 14) (size 15 to 20)
#    0.000    2.167    1.667    1.750    0.000    5.333 
#    0.000    4.167    0.000    4.000    0.000    0.000 
#    0.000    0.000    0.000    0.000    0.000    0.000 
#
# Total GULP energy -297678.996492 kJ/mol
# GULP energy per Si atom -12403.291520 kJ/mol
# Density = 1.756633 g / cm^3
# Si number density = 17.606405 Si / 1000 Ang^3
#
#
#
# Elastic Constant Matrix: (Units=GPa)
#
#
# Indices 1 2 3 4 5 6 
#
# 1 165.1842 57.0490 82.2949 0.0000 0.0000 0.0000
# 2 57.0490 64.6169 55.4190 0.0000 0.0000 0.0000
# 3 82.2949 55.4190 118.9292 0.0000 0.0000 0.0000
# 4 0.0000 0.0000 0.0000 29.3560 0.0000 0.0000
# 5 0.0000 0.0000 0.0000 0.0000 47.5503 0.0000
# 6 0.0000 0.0000 0.0000 0.0000 0.0000 32.1854
#
#
#
# Elastic Compliance Matrix: (Units=1/GPa)
#
#
# Indices 1 2 3 4 5 6 
#
# 1 0.010078 -0.004858 -0.004710 0.000000 0.000000 0.000000
# 2 -0.004858 0.028120 -0.009742 0.000000 0.000000 0.000000
# 3 -0.004710 -0.009742 0.016207 0.000000 0.000000 0.000000
# 4 0.000000 0.000000 0.000000 0.034065 0.000000 0.000000
# 5 0.000000 0.000000 0.000000 0.000000 0.021030 0.000000
# 6 0.000000 0.000000 0.000000 0.000000 0.000000 0.031070
#
#
# Mechanical properties :
#
#
# Convention : Reuss Voigt Hill
#
# Bulk Modulus (GPa) = 63.34962 82.02847 72.68905
# Shear Modulus (GPa) = 27.10732 32.08282 29.59507
#
# Velocity S-wave (km/s) = 3.92807 4.27338 4.10436
# Velocity P-wave (km/s) = 7.52543 8.42854 7.98976
#
# Compressibility (1/GPa) = 0.01578541
#
# Stress axis : x y z
#
# Youngs Moduli (GPa) = 99.22358 35.56157 61.70232
#
# Poissons Ratio (x) = 0.17278 0.29061
# Poissons Ratio (y) = 0.48208 0.60108
# Poissons Ratio (z) = 0.46733 0.34643
#
# Static dielectric constant tensor:
#      x y z
#    x 3.398460 0.000000 0.000000 
#    y 0.000000 3.174100 0.000000 
#    z 0.000000 0.000000 3.242500 
# 
# 
# High freq. dielectric constant tensor:
#      x y z
#    x 1.686170 0.000000 0.000000 
#    y 0.000000 1.671900 0.000000 
#    z 0.000000 0.000000 1.679190 
# 
# From -- ./inp_files/28085.got.cif
#   From: 2010.03.12/outbox.cif.g09.slc.cpg/sg42_15_cif.got.tgz:28085.got - 2010.04.14 02:04:31.
