data_PCOD8186198
_publ_section_title
;
Structure prediction by ZEFSAII (Michael W. Deem and Ramdas Pophale) SiO2 
 PCOD8186198
Probable space group: F M M 2
;
_chemical_formula_sum "Si O2"
_cell_formula_units_Z 96
_cell_length_a 16.410679
_cell_length_b 14.191436
_cell_length_c 20.263296
_cell_angle_alpha 90.000000
_cell_angle_beta 90.000000
_cell_angle_gamma 90.000000
_cell_volume 4719.141310
_symmetry_space_group_name_H-M "F M M 2"
_symmetry_group_IT_number 42
_symmetry_cell_setting 'orthorhombic'
loop_
_space_group_symop_operation_xyz
x,y,z
-x,-y,z
-x,y,z
x,-y,z
x,1/2+y,1/2+z
-x,1/2-y,1/2+z
-x,1/2+y,1/2+z
x,1/2-y,1/2+z
1/2+x,y,1/2+z
1/2-x,-y,1/2+z
1/2-x,y,1/2+z
1/2+x,-y,1/2+z
1/2+x,1/2+y,z
1/2-x,1/2-y,z
1/2-x,1/2+y,z
1/2+x,1/2-y,z
loop_
_atom_site_type_symbol
_atom_site_label
_atom_site_fract_x
_atom_site_fract_y
_atom_site_fract_z
Si Si1 0.162407 0.202399 0.558130
Si Si2 0.146939 0.500000 0.878914
Si Si3 0.595281 0.500000 0.765296
Si Si4 0.904914 0.000000 0.520570
Si Si5 0.096098 0.310299 0.825055
Si Si6 0.095550 0.805920 0.698926
Si Si7 0.670775 0.000000 0.409505
Si Si8 0.407261 0.185536 0.444841
O O1 0.250000 0.250000 0.540804
O O2 0.144788 0.223443 0.634328
O O3 0.097732 0.255942 0.512208
O O4 0.147569 0.090776 0.544903
O O5 0.136758 0.411681 0.830904
O O6 0.233359 0.500000 0.913297
O O7 0.085168 0.500000 0.940993
O O8 0.500000 0.500000 0.782332
O O9 0.620624 0.409958 0.722518
O O10 0.641026 0.500000 0.834433
O O11 0.000000 0.000000 0.547917
O O12 0.121767 0.267683 0.755060
O O13 0.129760 0.244841 0.883878
O O14 0.000000 0.320748 0.831599
O O15 0.000000 0.801406 0.683798
O O16 0.641933 0.910472 0.450890
O O17 0.500000 0.159598 0.429478
#
# Coordination Sequence:
#
# PCOD8186198 Si02
#       8
#    16   8   8   8  16  16   8  16
#     4  12  26  42  64  99 138 171 213 276 338 389
#     4  12  24  37  60  97 132 166 212 274 330 379
#     4  10  19  38  66  95 125 161 222 279 315 376
#     4  12  23  44  74  97 125 175 234 281 321 386
#     4  10  21  39  65  90 122 164 215 265 313 381
#     4  10  21  40  65  93 126 171 219 265 318 387
#     4  12  24  37  62  97 136 166 206 270 340 393
#     4  11  22  41  66  92 124 168 213 263 322 392
#
# _framework density 20.342683999999998
#
# number of rings (size 3 to 8) (size 9 to 14) (size 15 to 20)
#    0.000    1.000    3.333    4.500    0.000    2.000 
#    0.000    1.667    0.000    2.000    0.000    0.000 
#    0.000    0.000    0.000    0.000    0.000    0.000 
#
# Total GULP energy -297645.055367 kJ/mol
# GULP energy per Si atom -12401.877307 kJ/mol
# Density = 2.029638 g / cm^3
# Si number density = 20.342684 Si / 1000 Ang^3
#
#
#
# Elastic Constant Matrix: (Units=GPa)
#
#
# Indices 1 2 3 4 5 6 
#
# 1 65.4181 47.4040 18.1758 0.0000 0.0000 0.0000
# 2 47.4040 177.6953 55.1420 0.0000 0.0000 0.0000
# 3 18.1758 55.1420 120.5926 0.0000 0.0000 0.0000
# 4 0.0000 0.0000 0.0000 20.0515 0.0000 0.0000
# 5 0.0000 0.0000 0.0000 0.0000 29.5040 0.0000
# 6 0.0000 0.0000 0.0000 0.0000 0.0000 23.5892
#
#
#
# Elastic Compliance Matrix: (Units=1/GPa)
#
#
# Indices 1 2 3 4 5 6 
#
# 1 0.018991 -0.004869 -0.000636 0.000000 0.000000 0.000000
# 2 -0.004869 0.007806 -0.002836 0.000000 0.000000 0.000000
# 3 -0.000636 -0.002836 0.009685 0.000000 0.000000 0.000000
# 4 0.000000 0.000000 0.000000 0.049872 0.000000 0.000000
# 5 0.000000 0.000000 0.000000 0.000000 0.033894 0.000000
# 6 0.000000 0.000000 0.000000 0.000000 0.000000 0.042392
#
#
# Mechanical properties :
#
#
# Convention : Reuss Voigt Hill
#
# Bulk Modulus (GPa) = 50.50189 67.23883 58.87036
# Shear Modulus (GPa) = 26.89302 30.82789 28.86045
#
# Velocity S-wave (km/s) = 3.63988 3.89707 3.77067
# Velocity P-wave (km/s) = 6.52261 7.30578 6.92527
#
# Compressibility (1/GPa) = 0.01980124
#
# Stress axis : x y z
#
# Youngs Moduli (GPa) = 52.65600 128.09870 103.25348
#
# Poissons Ratio (x) = 0.62370 0.06567
# Poissons Ratio (y) = 0.25638 0.29280
# Poissons Ratio (z) = 0.03349 0.36325
#
# Static dielectric constant tensor:
#      x y z
#    x 3.550700 0.000000 0.000000 
#    y 0.000000 3.884400 0.000000 
#    z 0.000000 0.000000 3.642690 
# 
# 
# High freq. dielectric constant tensor:
#      x y z
#    x 1.784470 0.000000 0.000000 
#    y 0.000000 1.805910 0.000000 
#    z 0.000000 0.000000 1.795420 
# 
# From -- ./inp_files/25156.got.cif
#   From: 2010.03.12/outbox.cif.g09.slc.cpg/sg42_13_cif.got.tgz:25156.got - 2010.04.14 02:04:31.
