data_PCOD8186100
_publ_section_title
;
Structure prediction by ZEFSAII (Michael W. Deem and Ramdas Pophale) SiO2 
 PCOD8186100
Probable space group: F M M 2
;
_chemical_formula_sum "Si O2"
_cell_formula_units_Z 112
_cell_length_a 13.982894
_cell_length_b 13.982893
_cell_length_c 28.833547
_cell_angle_alpha 90.000000
_cell_angle_beta 90.000000
_cell_angle_gamma 90.000000
_cell_volume 5637.572900
_symmetry_space_group_name_H-M "F M M 2"
_symmetry_group_IT_number 42
_symmetry_cell_setting 'orthorhombic'
loop_
_space_group_symop_operation_xyz
x,y,z
-x,-y,z
-x,y,z
x,-y,z
x,1/2+y,1/2+z
-x,1/2-y,1/2+z
-x,1/2+y,1/2+z
x,1/2-y,1/2+z
1/2+x,y,1/2+z
1/2-x,-y,1/2+z
1/2-x,y,1/2+z
1/2+x,-y,1/2+z
1/2+x,1/2+y,z
1/2-x,1/2-y,z
1/2-x,1/2+y,z
1/2+x,1/2-y,z
loop_
_atom_site_type_symbol
_atom_site_label
_atom_site_fract_x
_atom_site_fract_y
_atom_site_fract_z
Si Si1 0.295608 0.108808 0.378930
Si Si2 0.110188 0.390872 0.471589
Si Si3 0.388283 0.786872 0.566523
Si Si4 0.390872 0.389812 0.698695
Si Si5 0.786872 0.888283 0.603761
Si Si6 0.108807 0.795608 0.791354
Si Si7 0.894565 0.105435 0.335142
O O1 0.330886 0.150695 0.427857
O O2 0.335539 0.164461 0.335142
O O3 0.180667 0.119379 0.376970
O O4 0.330913 0.000000 0.375198
O O5 0.140960 0.500000 0.484145
O O6 0.131354 0.321984 0.514506
O O7 0.000000 0.388030 0.457383
O O8 0.500000 0.797672 0.580147
O O9 0.323586 0.853672 0.600304
O O10 0.353672 0.676414 0.569980
O O11 0.500000 0.359040 0.686140
O O12 0.388029 0.500000 0.712901
O O13 0.321984 0.368645 0.655779
O O14 0.349305 0.330886 0.742428
O O15 0.797672 0.000000 0.590138
O O16 0.119378 0.680667 0.793314
O O17 0.000000 0.830913 0.795087
O O18 0.000000 0.118170 0.357469
O O19 0.881830 0.000000 0.312815
#
# Coordination Sequence:
#
# PCOD8186100 Si02
#       7
#    16  16  16  16  16  16  16
#     4  10  19  33  56  85 115 149 189 236 288 345
#     4   9  18  34  59  89 119 149 188 244 302 353
#     4  10  21  39  63  91 121 158 202 251 308 367
#     4   9  18  34  59  89 119 149 188 244 302 353
#     4  10  21  39  63  91 121 158 202 251 308 367
#     4  10  19  33  56  85 115 149 189 236 288 345
#     4   9  19  36  54  74 109 159 202 234 276 335
#
# _framework density 19.866703999999999
#
# number of rings (size 3 to 8) (size 9 to 14) (size 15 to 20)
#    0.000    2.429    0.000    2.143    0.000    3.143 
#   10.286    0.000    0.000    1.714    0.000    8.000 
#    0.000    0.000    0.000    0.000    0.000    0.000 
#
# Total GULP energy -347081.740440 kJ/mol
# GULP energy per Si atom -12395.776444 kJ/mol
# Density = 1.982149 g / cm^3
# Si number density = 19.866704 Si / 1000 Ang^3
#
#
#
# Elastic Constant Matrix: (Units=GPa)
#
#
# Indices 1 2 3 4 5 6 
#
# 1 122.5317 58.9683 76.3082 0.0000 0.0000 0.0000
# 2 58.9683 122.5312 76.3079 0.0000 0.0000 0.0000
# 3 76.3082 76.3079 137.5397 0.0000 0.0000 0.0000
# 4 0.0000 0.0000 0.0000 26.0023 0.0000 0.0000
# 5 0.0000 0.0000 0.0000 0.0000 26.0023 0.0000
# 6 0.0000 0.0000 0.0000 0.0000 0.0000 25.7092
#
#
#
# Elastic Compliance Matrix: (Units=1/GPa)
#
#
# Indices 1 2 3 4 5 6 
#
# 1 0.013030 -0.002702 -0.005730 0.000000 0.000000 0.000000
# 2 -0.002702 0.013030 -0.005730 0.000000 0.000000 0.000000
# 3 -0.005730 -0.005730 0.013629 0.000000 0.000000 0.000000
# 4 0.000000 0.000000 0.000000 0.038458 0.000000 0.000000
# 5 0.000000 0.000000 0.000000 0.000000 0.038458 0.000000
# 6 0.000000 0.000000 0.000000 0.000000 0.000000 0.038897
#
#
# Mechanical properties :
#
#
# Convention : Reuss Voigt Hill
#
# Bulk Modulus (GPa) = 87.99373 89.53014 88.76193
# Shear Modulus (GPa) = 26.65049 26.94398 26.79724
#
# Velocity S-wave (km/s) = 3.66658 3.68671 3.67666
# Velocity P-wave (km/s) = 7.89387 7.95523 7.92461
#
# Compressibility (1/GPa) = 0.01136445
#
# Stress axis : x y z
#
# Youngs Moduli (GPa) = 76.74586 76.74569 73.37525
#
# Poissons Ratio (x) = 0.20739 0.42043
# Poissons Ratio (y) = 0.20740 0.42043
# Poissons Ratio (z) = 0.43974 0.43974
#
# Static dielectric constant tensor:
#      x y z
#    x 3.858320 0.000000 0.000000 
#    y 0.000000 3.858330 0.000000 
#    z 0.000000 0.000000 3.392550 
# 
# 
# High freq. dielectric constant tensor:
#      x y z
#    x 1.782430 0.000000 0.000000 
#    y 0.000000 1.782430 0.000000 
#    z 0.000000 0.000000 1.750250 
# 
# From -- ./inp_files/29509.got.cif
#   From: 2010.03.12/outbox.cif.g09.slc.cpg/sg42_15_cif.got.tgz:29509.got - 2010.04.14 02:04:31.
