data_PCOD8186502
_publ_section_title
;
Structure prediction by ZEFSAII (Michael W. Deem and Ramdas Pophale) SiO2 
 PCOD8186502
Probable space group: F M M 2
;
_chemical_formula_sum "Si O2"
_cell_formula_units_Z 96
_cell_length_a 23.594180
_cell_length_b 8.583767
_cell_length_c 25.085556
_cell_angle_alpha 90.000000
_cell_angle_beta 90.000000
_cell_angle_gamma 90.000000
_cell_volume 5080.500987
_symmetry_space_group_name_H-M "F M M 2"
_symmetry_group_IT_number 42
_symmetry_cell_setting 'orthorhombic'
loop_
_space_group_symop_operation_xyz
x,y,z
-x,-y,z
-x,y,z
x,-y,z
x,1/2+y,1/2+z
-x,1/2-y,1/2+z
-x,1/2+y,1/2+z
x,1/2-y,1/2+z
1/2+x,y,1/2+z
1/2-x,-y,1/2+z
1/2-x,y,1/2+z
1/2+x,-y,1/2+z
1/2+x,1/2+y,z
1/2-x,1/2-y,z
1/2-x,1/2+y,z
1/2+x,1/2-y,z
loop_
_atom_site_type_symbol
_atom_site_label
_atom_site_fract_x
_atom_site_fract_y
_atom_site_fract_z
Si Si1 0.500000 0.314942 0.698280
Si Si2 0.116983 0.816721 0.227357
Si Si3 0.688250 0.683189 0.632572
Si Si4 0.310490 0.814945 0.945443
Si Si5 0.191553 0.181613 0.325391
Si Si6 0.500000 0.816236 0.074893
Si Si7 0.382570 0.183818 0.536748
O O1 0.500000 0.500000 0.704995
O O2 0.447292 0.238289 0.727993
O O3 0.500000 0.264810 0.636501
O O4 0.149741 0.719086 0.183126
O O5 0.141265 0.772882 0.285409
O O6 0.122458 0.000000 0.214894
O O7 0.691215 0.500000 0.623219
O O8 0.750000 0.750000 0.643457
O O9 0.661797 0.760206 0.580634
O O10 0.250000 0.750000 0.965543
O O11 0.321876 0.757175 0.884881
O O12 0.310847 0.000000 0.951488
O O13 0.361053 0.742064 0.979633
O O14 0.250000 0.250000 0.302826
O O15 0.200670 0.000000 0.327984
O O16 0.444751 0.751142 0.046165
O O17 0.500000 0.000000 0.069775
O O18 0.386290 0.000000 0.537978
#
# Coordination Sequence:
#
# PCOD8186502 Si02
#       7
#     8  16  16  16  16   8  16
#     4  11  23  39  60  85 115 156 199 239 290 346
#     4  11  22  38  60  87 117 152 195 241 289 344
#     4  12  24  38  56  84 118 153 190 236 292 348
#     4  10  20  38  61  87 120 156 195 240 291 347
#     4   9  20  37  60  88 118 155 194 236 290 346
#     4  11  23  41  62  85 115 154 197 239 290 348
#     4  12  24  39  60  87 116 151 195 241 291 346
#
# _framework density 18.895773999999999
#
# number of rings (size 3 to 8) (size 9 to 14) (size 15 to 20)
#    0.000    1.167    1.667    5.500    0.000    4.000 
#    0.000    0.833    0.000    2.000    0.000    0.000 
#    0.000    0.000    0.000    0.000    0.000    0.000 
#
# Total GULP energy -297723.665923 kJ/mol
# GULP energy per Si atom -12405.152747 kJ/mol
# Density = 1.885277 g / cm^3
# Si number density = 18.895774 Si / 1000 Ang^3
#
#
#
# Elastic Constant Matrix: (Units=GPa)
#
#
# Indices 1 2 3 4 5 6 
#
# 1 149.6509 38.9785 65.6620 0.0000 0.0000 0.0001
# 2 38.9785 86.2355 38.4555 0.0000 0.0000 0.0001
# 3 65.6620 38.4555 108.4821 0.0000 0.0000 0.0000
# 4 0.0000 0.0000 0.0000 29.1011 0.0000 0.0000
# 5 0.0000 0.0000 0.0000 0.0000 32.5497 0.0000
# 6 0.0001 0.0001 0.0000 0.0000 0.0000 31.9457
#
#
#
# Elastic Compliance Matrix: (Units=1/GPa)
#
#
# Indices 1 2 3 4 5 6 
#
# 1 0.009389 -0.002031 -0.004963 0.000000 0.000000 0.000000
# 2 -0.002031 0.014213 -0.003809 0.000000 0.000000 0.000000
# 3 -0.004963 -0.003809 0.013572 0.000000 0.000000 0.000000
# 4 0.000000 0.000000 0.000000 0.034363 0.000000 0.000000
# 5 0.000000 0.000000 0.000000 0.000000 0.030722 0.000000
# 6 0.000000 0.000000 0.000000 0.000000 0.000000 0.031303
#
#
# Mechanical properties :
#
#
# Convention : Reuss Voigt Hill
#
# Bulk Modulus (GPa) = 64.23281 70.06227 67.14754
# Shear Modulus (GPa) = 31.18049 32.13748 31.65899
#
# Velocity S-wave (km/s) = 4.06659 4.12852 4.09767
# Velocity P-wave (km/s) = 7.49110 7.73854 7.61582
#
# Compressibility (1/GPa) = 0.01556837
#
# Stress axis : x y z
#
# Youngs Moduli (GPa) = 106.51108 70.36019 73.67898
#
# Poissons Ratio (x) = 0.14287 0.36567
# Poissons Ratio (y) = 0.21627 0.28065
# Poissons Ratio (z) = 0.52861 0.26801
#
# Static dielectric constant tensor:
#      x y z
#    x 3.599760 0.000000 0.000000 
#    y 0.000000 3.596200 0.000000 
#    z 0.000000 0.000000 3.752760 
# 
# 
# High freq. dielectric constant tensor:
#      x y z
#    x 1.738870 0.000000 0.000000 
#    y 0.000000 1.749860 0.000000 
#    z 0.000000 0.000000 1.735930 
# 
# From -- ./inp_files/30440.got.cif
#   From: 2010.03.12/outbox.cif.g09.slc.cpg/sg42_16_cif.got.tgz:30440.got - 2010.04.14 02:04:31.
