data_PCOD8186109
_publ_section_title
;
Structure prediction by ZEFSAII (Michael W. Deem and Ramdas Pophale) SiO2 
 PCOD8186109
Probable space group: F M M 2
;
_chemical_formula_sum "Si O2"
_cell_formula_units_Z 112
_cell_length_a 18.697492
_cell_length_b 23.342982
_cell_length_c 13.379868
_cell_angle_alpha 90.000000
_cell_angle_beta 90.000000
_cell_angle_gamma 90.000000
_cell_volume 5839.713221
_symmetry_space_group_name_H-M "F M M 2"
_symmetry_group_IT_number 42
_symmetry_cell_setting 'orthorhombic'
loop_
_space_group_symop_operation_xyz
x,y,z
-x,-y,z
-x,y,z
x,-y,z
x,1/2+y,1/2+z
-x,1/2-y,1/2+z
-x,1/2+y,1/2+z
x,1/2-y,1/2+z
1/2+x,y,1/2+z
1/2-x,-y,1/2+z
1/2-x,y,1/2+z
1/2+x,-y,1/2+z
1/2+x,1/2+y,z
1/2-x,1/2-y,z
1/2-x,1/2+y,z
1/2+x,1/2-y,z
loop_
_atom_site_type_symbol
_atom_site_label
_atom_site_fract_x
_atom_site_fract_y
_atom_site_fract_z
Si Si1 0.831830 0.263155 0.187240
Si Si2 0.179886 0.934441 0.379912
Si Si3 0.795312 0.871574 0.572793
Si Si4 0.916960 0.832548 0.841998
Si Si5 0.174203 0.934826 0.770695
Si Si6 0.081444 0.565208 0.702399
Si Si7 0.366113 0.657339 0.060498
O O1 0.750000 0.250000 0.218226
O O2 0.834844 0.313499 0.104965
O O3 0.873577 0.282270 0.286345
O O4 0.871101 0.208469 0.140786
O O5 0.162968 0.897742 0.478473
O O6 0.262633 0.928491 0.350798
O O7 0.130655 0.910003 0.291106
O O8 0.159299 0.000000 0.402074
O O9 0.794946 0.917001 0.662928
O O10 0.715348 0.858249 0.537918
O O11 0.890886 0.895001 0.805585
O O12 0.000000 0.826902 0.815305
O O13 0.905014 0.823905 0.959443
O O14 0.146441 0.000000 0.765411
O O15 0.103700 0.500000 0.676576
O O16 0.092741 0.602317 0.603257
O O17 0.000000 0.568678 0.738295
#
# Coordination Sequence:
#
# PCOD8186109 Si02
#       7
#    16  16  16  16  16  16  16
#     4   9  23  41  62  85 115 156 201 249 292 347
#     4  10  19  33  59  87 118 156 197 240 285 350
#     4  10  19  36  59  90 116 151 201 249 287 342
#     4  11  24  40  59  88 122 155 196 243 300 367
#     4  10  20  36  58  86 121 158 195 240 289 345
#     4  10  22  38  57  87 123 154 190 242 300 354
#     4  11  21  38  61  87 118 152 195 247 301 350
#
# _framework density 19.179023999999998
#
# number of rings (size 3 to 8) (size 9 to 14) (size 15 to 20)
#    0.000    1.857    2.857    0.857    0.000    5.429 
#    0.000    2.857    0.000    3.429    0.000    0.000 
#    0.000    0.000    0.000    0.000    0.000    0.000 
#
# Total GULP energy -347325.994442 kJ/mol
# GULP energy per Si atom -12404.499802 kJ/mol
# Density = 1.913537 g / cm^3
# Si number density = 19.179024 Si / 1000 Ang^3
#
#
#
# Elastic Constant Matrix: (Units=GPa)
#
#
# Indices 1 2 3 4 5 6 
#
# 1 77.9868 32.8145 34.0351 0.0000 0.0000 0.0000
# 2 32.8145 107.5429 55.0166 0.0000 0.0000 0.0000
# 3 34.0351 55.0166 115.9230 0.0000 0.0000 0.0000
# 4 0.0000 0.0000 0.0000 34.4145 0.0000 0.0000
# 5 0.0000 0.0000 0.0000 0.0000 17.7986 0.0000
# 6 0.0000 0.0000 0.0000 0.0000 0.0000 24.4149
#
#
#
# Elastic Compliance Matrix: (Units=1/GPa)
#
#
# Indices 1 2 3 4 5 6 
#
# 1 0.015483 -0.003168 -0.003042 0.000000 0.000000 0.000000
# 2 -0.003168 0.012928 -0.005206 0.000000 0.000000 0.000000
# 3 -0.003042 -0.005206 0.011990 0.000000 0.000000 0.000000
# 4 0.000000 0.000000 0.000000 0.029057 0.000000 0.000000
# 5 0.000000 0.000000 0.000000 0.000000 0.056184 0.000000
# 6 0.000000 0.000000 0.000000 0.000000 0.000000 0.040959
#
#
# Mechanical properties :
#
#
# Convention : Reuss Voigt Hill
#
# Bulk Modulus (GPa) = 56.91539 60.57611 58.74575
# Shear Modulus (GPa) = 25.60280 27.29804 26.45042
#
# Velocity S-wave (km/s) = 3.65764 3.77679 3.71770
# Velocity P-wave (km/s) = 6.89769 7.11843 7.00893
#
# Compressibility (1/GPa) = 0.01756994
#
# Stress axis : x y z
#
# Youngs Moduli (GPa) = 64.58503 77.34937 83.40115
#
# Poissons Ratio (x) = 0.24504 0.25374
# Poissons Ratio (y) = 0.20461 0.43415
# Poissons Ratio (z) = 0.19649 0.40265
#
# Static dielectric constant tensor:
#      x y z
#    x 3.305620 0.000000 0.000000 
#    y 0.000000 3.607750 0.000000 
#    z 0.000000 0.000000 3.432860 
# 
# 
# High freq. dielectric constant tensor:
#      x y z
#    x 1.727660 0.000000 0.000000 
#    y 0.000000 1.752950 0.000000 
#    z 0.000000 0.000000 1.747230 
# 
# From -- ./inp_files/9654.got.cif
#   From: 2010.03.12/outbox.cif.g09.slc.cpg/sg42_5_cif.got.tgz:9654.got - 2010.04.14 02:04:31.
