data_PCOD8186802
_publ_section_title
;
Structure prediction by ZEFSAII (Michael W. Deem and Ramdas Pophale) SiO2 
 PCOD8186802
Probable space group: F M M 2
;
_chemical_formula_sum "Si O2"
_cell_formula_units_Z 96
_cell_length_a 17.332101
_cell_length_b 13.870148
_cell_length_c 23.843889
_cell_angle_alpha 90.000000
_cell_angle_beta 90.000000
_cell_angle_gamma 90.000000
_cell_volume 5732.042446
_symmetry_space_group_name_H-M "F M M 2"
_symmetry_group_IT_number 42
_symmetry_cell_setting 'orthorhombic'
loop_
_space_group_symop_operation_xyz
x,y,z
-x,-y,z
-x,y,z
x,-y,z
x,1/2+y,1/2+z
-x,1/2-y,1/2+z
-x,1/2+y,1/2+z
x,1/2-y,1/2+z
1/2+x,y,1/2+z
1/2-x,-y,1/2+z
1/2-x,y,1/2+z
1/2+x,-y,1/2+z
1/2+x,1/2+y,z
1/2-x,1/2-y,z
1/2-x,1/2+y,z
1/2+x,1/2-y,z
loop_
_atom_site_type_symbol
_atom_site_label
_atom_site_fract_x
_atom_site_fract_y
_atom_site_fract_z
Si Si1 0.590552 0.286975 0.991910
Si Si2 0.091169 0.893288 0.101176
Si Si3 0.161433 0.777032 0.659873
Si Si4 0.590010 0.609502 0.560412
Si Si5 0.408250 0.607364 0.884965
Si Si6 0.589820 0.112607 0.259569
O O1 0.500000 0.304703 0.988891
O O2 0.626194 0.319320 0.931960
O O3 0.624619 0.352483 0.042290
O O4 0.609155 0.175006 0.005747
O O5 0.114688 0.822249 0.151376
O O6 0.000000 0.897534 0.098375
O O7 0.125579 0.000000 0.111718
O O8 0.250000 0.750000 0.656219
O O9 0.140036 0.856240 0.613087
O O10 0.141577 0.821118 0.719996
O O11 0.500000 0.620838 0.576990
O O12 0.611082 0.500000 0.545132
O O13 0.500000 0.606008 0.885931
O O14 0.377488 0.500000 0.898792
O O15 0.382585 0.638706 0.822672
O O16 0.500000 0.136991 0.250173
O O17 0.604479 0.000000 0.247027
#
# Coordination Sequence:
#
# PCOD8186802 Si02
#       6
#    16  16  16  16  16  16
#     4   8  13  23  42  69  95 114 137 176 225 269
#     4   9  17  29  45  64  87 115 145 178 219 269
#     4  11  21  30  43  64  90 121 151 186 227 266
#     4   9  17  30  49  71  94 120 149 182 222 268
#     4   8  13  22  41  70  96 115 141 182 227 265
#     4   9  17  30  49  70  90 115 150 191 230 265
#
# _framework density 16.747957
#
# number of rings (size 3 to 8) (size 9 to 14) (size 15 to 20)
#    0.000    3.000    0.000    4.500    0.000    4.667 
#    0.000    0.000    0.000    5.000    0.000    9.333 
#    0.000    0.000    0.000    0.000    0.000    0.000 
#
# Total GULP energy -297438.400378 kJ/mol
# GULP energy per Si atom -12393.266682 kJ/mol
# Density = 1.670984 g / cm^3
# Si number density = 16.747957 Si / 1000 Ang^3
#
#
#
# Elastic Constant Matrix: (Units=GPa)
#
#
# Indices 1 2 3 4 5 6 
#
# 1 36.7371 29.1133 28.0184 0.0000 0.0000 0.0000
# 2 29.1133 145.0750 78.9151 0.0000 0.0000 0.0000
# 3 28.0184 78.9151 132.8384 0.0000 0.0000 0.0000
# 4 0.0000 0.0000 0.0000 31.0247 0.0000 0.0000
# 5 0.0000 0.0000 0.0000 0.0000 3.2249 0.0000
# 6 0.0000 0.0000 0.0000 0.0000 0.0000 12.5621
#
#
#
# Elastic Compliance Matrix: (Units=1/GPa)
#
#
# Indices 1 2 3 4 5 6 
#
# 1 0.034195 -0.004342 -0.004633 0.000000 0.000000 0.000000
# 2 -0.004342 0.010735 -0.005462 0.000000 0.000000 0.000000
# 3 -0.004633 -0.005462 0.011750 0.000000 0.000000 0.000000
# 4 0.000000 0.000000 0.000000 0.032232 0.000000 0.000000
# 5 0.000000 0.000000 0.000000 0.000000 0.310090 0.000000
# 6 0.000000 0.000000 0.000000 0.000000 0.000000 0.079604
#
#
# Mechanical properties :
#
#
# Convention : Reuss Voigt Hill
#
# Bulk Modulus (GPa) = 35.96271 65.19380 50.57825
# Shear Modulus (GPa) = 9.67588 21.26925 15.47257
#
# Velocity S-wave (km/s) = 2.40622 3.56752 3.04278
# Velocity P-wave (km/s) = 5.40734 7.48201 6.52763
#
# Compressibility (1/GPa) = 0.02780658
#
# Stress axis : x y z
#
# Youngs Moduli (GPa) = 29.24420 93.15102 85.10828
#
# Poissons Ratio (x) = 0.40446 0.39430
# Poissons Ratio (y) = 0.12698 0.46483
# Poissons Ratio (z) = 0.13549 0.50876
#
# Static dielectric constant tensor:
#      x y z
#    x 2.700830 0.000000 0.000000 
#    y 0.000000 3.568140 0.000000 
#    z 0.000000 0.000000 3.320860 
# 
# 
# High freq. dielectric constant tensor:
#      x y z
#    x 1.597690 0.000000 0.000000 
#    y 0.000000 1.648680 0.000000 
#    z 0.000000 0.000000 1.638110 
# 
# From -- ./inp_files/25113.got.cif
#   From: 2010.03.12/outbox.cif.g09.slc.cpg/sg42_13_cif.got.tgz:25113.got - 2010.04.14 02:04:31.
