data_PCOD8186094
_publ_section_title
;
Structure prediction by ZEFSAII (Michael W. Deem and Ramdas Pophale) SiO2 
 PCOD8186094
Probable space group: F M M 2
;
_chemical_formula_sum "Si O2"
_cell_formula_units_Z 112
_cell_length_a 13.797741
_cell_length_b 13.797745
_cell_length_c 29.255257
_cell_angle_alpha 90.000000
_cell_angle_beta 90.000000
_cell_angle_gamma 90.000000
_cell_volume 5569.548889
_symmetry_space_group_name_H-M "F M M 2"
_symmetry_group_IT_number 42
_symmetry_cell_setting 'orthorhombic'
loop_
_space_group_symop_operation_xyz
x,y,z
-x,-y,z
-x,y,z
x,-y,z
x,1/2+y,1/2+z
-x,1/2-y,1/2+z
-x,1/2+y,1/2+z
x,1/2-y,1/2+z
1/2+x,y,1/2+z
1/2-x,-y,1/2+z
1/2-x,y,1/2+z
1/2+x,-y,1/2+z
1/2+x,1/2+y,z
1/2-x,1/2-y,z
1/2-x,1/2+y,z
1/2+x,1/2-y,z
loop_
_atom_site_type_symbol
_atom_site_label
_atom_site_fract_x
_atom_site_fract_y
_atom_site_fract_z
Si Si1 0.109094 0.614676 0.182460
Si Si2 0.892089 0.392089 0.545879
Si Si3 0.614676 0.890906 0.909298
Si Si4 0.389021 0.798667 0.001180
Si Si5 0.798667 0.110979 0.590578
Si Si6 0.791106 0.386328 0.276190
Si Si7 0.613672 0.708894 0.315568
O O1 0.104434 0.500000 0.178517
O O2 0.159416 0.658690 0.136872
O O3 0.174266 0.643329 0.225640
O O4 0.000000 0.656834 0.187708
O O5 0.877903 0.500000 0.525389
O O6 0.875151 0.317863 0.503712
O O7 0.817863 0.375151 0.588046
O O8 0.000000 0.377903 0.566368
O O9 0.500000 0.895566 0.913240
O O10 0.643329 0.825734 0.866118
O O11 0.656835 0.000000 0.904050
O O12 0.658690 0.840584 0.954886
O O13 0.500000 0.830183 0.002640
O O14 0.339969 0.839969 0.045879
O O15 0.830183 0.000000 0.589118
O O16 0.806810 0.500000 0.286760
O O17 0.677860 0.356482 0.280676
O O18 0.856482 0.322140 0.311082
O O19 0.500000 0.693190 0.304997
#
# Coordination Sequence:
#
# PCOD8186094 Si02
#       7
#    16  16  16  16  16  16  16
#     4   9  18  34  58  86 117 151 189 240 298 351
#     4   9  19  36  52  70 109 161 200 234 278 329
#     4   9  18  34  58  86 117 151 189 240 298 351
#     4  10  19  33  55  84 113 147 189 234 286 347
#     4  10  19  33  55  84 113 147 189 234 286 347
#     4  10  21  39  61  88 119 157 202 251 308 366
#     4  10  21  39  61  88 119 157 202 251 308 366
#
# _framework density 20.109349000000002
#
# number of rings (size 3 to 8) (size 9 to 14) (size 15 to 20)
#    0.000    2.429    0.000    2.143    0.000    3.143 
#   10.286    1.429    0.000    5.143    0.000    0.000 
#    0.000    0.000    0.000    0.000    0.000    0.000 
#
# Total GULP energy -347006.967510 kJ/mol
# GULP energy per Si atom -12393.105982 kJ/mol
# Density = 2.006358 g / cm^3
# Si number density = 20.109349 Si / 1000 Ang^3
#
#
#
# Elastic Constant Matrix: (Units=GPa)
#
#
# Indices 1 2 3 4 5 6 
#
# 1 112.5826 50.9437 73.1038 0.0000 0.0000 0.0000
# 2 50.9437 112.5827 73.1038 0.0000 0.0000 0.0000
# 3 73.1038 73.1038 161.1133 0.0000 0.0000 0.0000
# 4 0.0000 0.0000 0.0000 25.8053 0.0000 0.0000
# 5 0.0000 0.0000 0.0000 0.0000 25.8053 0.0000
# 6 0.0000 0.0000 0.0000 0.0000 0.0000 26.1834
#
#
#
# Elastic Compliance Matrix: (Units=1/GPa)
#
#
# Indices 1 2 3 4 5 6 
#
# 1 0.013257 -0.002967 -0.004669 0.000000 0.000000 0.000000
# 2 -0.002967 0.013257 -0.004669 0.000000 0.000000 0.000000
# 3 -0.004669 -0.004669 0.010444 0.000000 0.000000 0.000000
# 4 0.000000 0.000000 0.000000 0.038752 0.000000 0.000000
# 5 0.000000 0.000000 0.000000 0.000000 0.038752 0.000000
# 6 0.000000 0.000000 0.000000 0.000000 0.000000 0.038192
#
#
# Mechanical properties :
#
#
# Convention : Reuss Voigt Hill
#
# Bulk Modulus (GPa) = 80.98751 86.73126 83.85938
# Shear Modulus (GPa) = 27.56682 28.16728 27.86705
#
# Velocity S-wave (km/s) = 3.70651 3.74666 3.72664
# Velocity P-wave (km/s) = 7.66020 7.87020 7.76591
#
# Compressibility (1/GPa) = 0.01234758
#
# Stress axis : x y z
#
# Youngs Moduli (GPa) = 75.43447 75.43456 95.75181
#
# Poissons Ratio (x) = 0.22381 0.44705
# Poissons Ratio (y) = 0.22381 0.44705
# Poissons Ratio (z) = 0.35219 0.35219
#
# Static dielectric constant tensor:
#      x y z
#    x 3.947220 0.000000 0.000000 
#    y 0.000000 3.947220 0.000000 
#    z 0.000000 0.000000 3.679030 
# 
# 
# High freq. dielectric constant tensor:
#      x y z
#    x 1.786190 0.000000 0.000000 
#    y 0.000000 1.786190 0.000000 
#    z 0.000000 0.000000 1.767240 
# 
# From -- ./inp_files/29530.got.cif
#   From: 2010.03.12/outbox.cif.g09.slc.cpg/sg42_15_cif.got.tgz:29530.got - 2010.04.14 02:04:31.
