data_PCOD8186480
_publ_section_title
;
Structure prediction by ZEFSAII (Michael W. Deem and Ramdas Pophale) SiO2 
 PCOD8186480
Probable space group: F M M 2
;
_chemical_formula_sum "Si O2"
_cell_formula_units_Z 80
_cell_length_a 9.114023
_cell_length_b 28.885086
_cell_length_c 15.500549
_cell_angle_alpha 90.000000
_cell_angle_beta 90.000000
_cell_angle_gamma 90.000000
_cell_volume 4080.664271
_symmetry_space_group_name_H-M "F M M 2"
_symmetry_group_IT_number 42
_symmetry_cell_setting 'orthorhombic'
loop_
_space_group_symop_operation_xyz
x,y,z
-x,-y,z
-x,y,z
x,-y,z
x,1/2+y,1/2+z
-x,1/2-y,1/2+z
-x,1/2+y,1/2+z
x,1/2-y,1/2+z
1/2+x,y,1/2+z
1/2-x,-y,1/2+z
1/2-x,y,1/2+z
1/2+x,-y,1/2+z
1/2+x,1/2+y,z
1/2-x,1/2-y,z
1/2-x,1/2+y,z
1/2+x,1/2-y,z
loop_
_atom_site_type_symbol
_atom_site_label
_atom_site_fract_x
_atom_site_fract_y
_atom_site_fract_z
Si Si1 0.171251 0.448419 0.375000
Si Si2 0.170656 0.147821 0.130777
Si Si3 0.673585 0.450081 0.069708
Si Si4 0.825206 0.201074 0.480574
Si Si5 0.669075 0.361615 0.321716
O O1 0.206878 0.500000 0.340186
O O2 0.230943 0.443075 0.472372
O O3 0.250786 0.410791 0.316368
O O4 0.000000 0.438168 0.371061
O O5 0.224263 0.094151 0.125061
O O6 0.270213 0.179287 0.069966
O O7 0.194112 0.163925 0.229722
O O8 0.000000 0.152693 0.103054
O O9 0.500000 0.453122 0.067813
O O10 0.734299 0.500000 0.105448
O O11 0.750000 0.250000 0.467116
O O12 0.772087 0.170107 0.399614
O O13 0.000000 0.206710 0.483774
O O14 0.500000 0.372661 0.336360
#
# Coordination Sequence:
#
# PCOD8186480 Si02
#       5
#    16  16  16  16  16
#     4   9  17  31  54  83 115 155 198 233 272 328
#     4  10  20  37  61  87 115 150 190 232 278 335
#     4   8  14  27  51  81 111 148 191 227 264 320
#     4  11  24  42  61  83 112 145 184 235 291 345
#     4  10  22  37  57  88 120 147 185 234 286 338
#
# _framework density 19.604652999999999
#
# number of rings (size 3 to 8) (size 9 to 14) (size 15 to 20)
#    0.000    2.400    2.000    1.800    0.000    3.600 
#    0.000    4.000    0.000    0.600    0.000    0.000 
#    0.000    0.000    0.000    0.000    0.000    0.000 
#
# Total GULP energy -247904.880491 kJ/mol
# GULP energy per Si atom -12395.244025 kJ/mol
# Density = 1.956003 g / cm^3
# Si number density = 19.604653 Si / 1000 Ang^3
#
#
#
# Elastic Constant Matrix: (Units=GPa)
#
#
# Indices 1 2 3 4 5 6 
#
# 1 55.9959 49.0897 37.9123 0.0000 0.0000 0.0000
# 2 49.0897 125.4052 51.6213 0.0000 0.0000 0.0000
# 3 37.9123 51.6213 102.6625 0.0000 0.0000 0.0000
# 4 0.0000 0.0000 0.0000 11.6559 0.0000 0.0000
# 5 0.0000 0.0000 0.0000 0.0000 23.8556 0.0000
# 6 0.0000 0.0000 0.0000 0.0000 0.0000 31.6359
#
#
#
# Elastic Compliance Matrix: (Units=1/GPa)
#
#
# Indices 1 2 3 4 5 6 
#
# 1 0.030368 -0.009169 -0.006604 0.000000 0.000000 0.000000
# 2 -0.009169 0.012824 -0.003062 0.000000 0.000000 0.000000
# 3 -0.006604 -0.003062 0.013719 0.000000 0.000000 0.000000
# 4 0.000000 0.000000 0.000000 0.085794 0.000000 0.000000
# 5 0.000000 0.000000 0.000000 0.000000 0.041919 0.000000
# 6 0.000000 0.000000 0.000000 0.000000 0.000000 0.031610
#
#
# Mechanical properties :
#
#
# Convention : Reuss Voigt Hill
#
# Bulk Modulus (GPa) = 51.97392 62.36779 57.17085
# Shear Modulus (GPa) = 19.20733 23.12550 21.16642
#
# Velocity S-wave (km/s) = 3.13347 3.43825 3.28939
# Velocity P-wave (km/s) = 6.29762 6.90245 6.60696
#
# Compressibility (1/GPa) = 0.01924042
#
# Stress axis : x y z
#
# Youngs Moduli (GPa) = 32.92944 77.98002 72.89034
#
# Poissons Ratio (x) = 0.71500 0.48138
# Poissons Ratio (y) = 0.30193 0.22320
# Poissons Ratio (z) = 0.21747 0.23878
#
# Static dielectric constant tensor:
#      x y z
#    x 3.243000 0.000000 0.000000 
#    y 0.000000 4.119040 0.000000 
#    z 0.000000 0.000000 3.546110 
# 
# 
# High freq. dielectric constant tensor:
#      x y z
#    x 1.735040 0.000000 0.000000 
#    y 0.000000 1.767140 0.000000 
#    z 0.000000 0.000000 1.761010 
# 
# From -- ./inp_files/16917.got.cif
#   From: 2010.03.12/outbox.cif.g09.slc.cpg/sg42_9_cif.got.tgz:16917.got - 2010.04.14 02:04:31.
