data_PCOD8186807
_publ_section_title
;
Structure prediction by ZEFSAII (Michael W. Deem and Ramdas Pophale) SiO2 
 PCOD8186807
Probable space group: F M M 2
;
_chemical_formula_sum "Si O2"
_cell_formula_units_Z 96
_cell_length_a 19.293380
_cell_length_b 8.920266
_cell_length_c 31.256700
_cell_angle_alpha 90.000000
_cell_angle_beta 90.000000
_cell_angle_gamma 90.000000
_cell_volume 5379.343135
_symmetry_space_group_name_H-M "F M M 2"
_symmetry_group_IT_number 42
_symmetry_cell_setting 'orthorhombic'
loop_
_space_group_symop_operation_xyz
x,y,z
-x,-y,z
-x,y,z
x,-y,z
x,1/2+y,1/2+z
-x,1/2-y,1/2+z
-x,1/2+y,1/2+z
x,1/2-y,1/2+z
1/2+x,y,1/2+z
1/2-x,-y,1/2+z
1/2-x,y,1/2+z
1/2+x,-y,1/2+z
1/2+x,1/2+y,z
1/2-x,1/2-y,z
1/2-x,1/2+y,z
1/2+x,1/2-y,z
loop_
_atom_site_type_symbol
_atom_site_label
_atom_site_fract_x
_atom_site_fract_y
_atom_site_fract_z
Si Si1 0.919329 0.324253 0.092760
Si Si2 0.175731 0.175371 0.746028
Si Si3 0.675961 0.325121 0.839975
Si Si4 0.825739 0.677689 0.662720
Si Si5 0.922068 0.322958 0.414062
Si Si6 0.917725 0.834394 0.497715
O O1 0.905749 0.500000 0.101182
O O2 0.874613 0.221886 0.123797
O O3 0.000000 0.286340 0.099686
O O4 0.894324 0.279656 0.044774
O O5 0.250000 0.250000 0.749232
O O6 0.141434 0.201865 0.792824
O O7 0.137795 0.258619 0.706434
O O8 0.181624 0.000000 0.735285
O O9 0.687888 0.500000 0.847493
O O10 0.750000 0.250000 0.845229
O O11 0.623968 0.257578 0.875360
O O12 0.818493 0.500000 0.665304
O O13 0.750000 0.750000 0.656575
O O14 0.922501 0.500000 0.412833
O O15 0.890347 0.272560 0.459806
O O16 0.000000 0.259664 0.408336
O O17 0.000000 0.838924 0.498172
O O18 0.887929 0.000000 0.488767
#
# Coordination Sequence:
#
# PCOD8186807 Si02
#       6
#    16  16  16  16  16  16
#     4   9  18  34  54  74  98 128 162 200 243 291
#     4   9  16  29  48  68  92 124 162 197 234 284
#     4   9  18  31  48  70  94 123 159 196 235 280
#     4  11  21  33  51  74 100 128 162 202 243 290
#     4   9  17  30  48  70  96 124 156 194 233 276
#     4   8  15  29  49  71  94 123 158 192 230 281
#
# _framework density 17.846043999999999
#
# number of rings (size 3 to 8) (size 9 to 14) (size 15 to 20)
#    0.000    2.833    0.000    4.000    0.000    2.333 
#    0.000    3.333    0.000    5.000    0.000    0.000 
#    0.000    0.000    0.000    0.000    0.000    0.000 
#
# Total GULP energy -297382.855598 kJ/mol
# GULP energy per Si atom -12390.952317 kJ/mol
# Density = 1.780543 g / cm^3
# Si number density = 17.846044 Si / 1000 Ang^3
#
#
#
# Elastic Constant Matrix: (Units=GPa)
#
#
# Indices 1 2 3 4 5 6 
#
# 1 51.2605 31.1966 56.1466 0.0000 0.0000 0.0000
# 2 31.1966 81.1580 59.8714 0.0000 0.0000 0.0000
# 3 56.1466 59.8714 176.4943 0.0000 0.0000 0.0000
# 4 0.0000 0.0000 0.0000 33.3012 0.0000 0.0000
# 5 0.0000 0.0000 0.0000 0.0000 31.6317 0.0000
# 6 0.0000 0.0000 0.0000 0.0000 0.0000 20.6846
#
#
#
# Elastic Compliance Matrix: (Units=1/GPa)
#
#
# Indices 1 2 3 4 5 6 
#
# 1 0.032286 -0.006447 -0.008084 0.000000 0.000000 0.000000
# 2 -0.006447 0.017722 -0.003961 0.000000 0.000000 0.000000
# 3 -0.008084 -0.003961 0.009581 0.000000 0.000000 0.000000
# 4 0.000000 0.000000 0.000000 0.030029 0.000000 0.000000
# 5 0.000000 0.000000 0.000000 0.000000 0.031614 0.000000
# 6 0.000000 0.000000 0.000000 0.000000 0.000000 0.048345
#
#
# Mechanical properties :
#
#
# Convention : Reuss Voigt Hill
#
# Bulk Modulus (GPa) = 44.23640 67.03799 55.63719
# Shear Modulus (GPa) = 23.35404 27.90339 25.62872
#
# Velocity S-wave (km/s) = 3.62144 3.95848 3.79370
# Velocity P-wave (km/s) = 6.50600 7.65107 7.10165
#
# Compressibility (1/GPa) = 0.02260582
#
# Stress axis : x y z
#
# Youngs Moduli (GPa) = 30.97287 56.42801 104.37121
#
# Poissons Ratio (x) = 0.36379 0.84374
# Poissons Ratio (y) = 0.19968 0.41339
# Poissons Ratio (z) = 0.25038 0.22350
#
# Static dielectric constant tensor:
#      x y z
#    x 3.009420 0.000000 0.000000 
#    y 0.000000 3.321390 0.000000 
#    z 0.000000 0.000000 4.084390 
# 
# 
# High freq. dielectric constant tensor:
#      x y z
#    x 1.642040 0.000000 0.000000 
#    y 0.000000 1.687890 0.000000 
#    z 0.000000 0.000000 1.715080 
# 
# From -- ./inp_files/28055.got.cif
#   From: 2010.03.12/outbox.cif.g09.slc.cpg/sg42_15_cif.got.tgz:28055.got - 2010.04.14 02:04:31.
