data_PCOD8186587
_publ_section_title
;
Structure prediction by ZEFSAII (Michael W. Deem and Ramdas Pophale) SiO2 
 PCOD8186587
Probable space group: F M M 2
;
_chemical_formula_sum "Si O2"
_cell_formula_units_Z 80
_cell_length_a 13.742099
_cell_length_b 17.889180
_cell_length_c 14.576834
_cell_angle_alpha 90.000000
_cell_angle_beta 90.000000
_cell_angle_gamma 90.000000
_cell_volume 3583.494275
_symmetry_space_group_name_H-M "F M M 2"
_symmetry_group_IT_number 42
_symmetry_cell_setting 'orthorhombic'
loop_
_space_group_symop_operation_xyz
x,y,z
-x,-y,z
-x,y,z
x,-y,z
x,1/2+y,1/2+z
-x,1/2-y,1/2+z
-x,1/2+y,1/2+z
x,1/2-y,1/2+z
1/2+x,y,1/2+z
1/2-x,-y,1/2+z
1/2-x,y,1/2+z
1/2+x,-y,1/2+z
1/2+x,1/2+y,z
1/2-x,1/2-y,z
1/2-x,1/2+y,z
1/2+x,1/2-y,z
loop_
_atom_site_type_symbol
_atom_site_label
_atom_site_fract_x
_atom_site_fract_y
_atom_site_fract_z
Si Si1 0.275119 0.418541 0.806420
Si Si2 0.889578 0.277718 0.645748
Si Si3 0.209677 0.631831 0.105619
Si Si4 0.890096 0.773535 0.842402
Si Si5 0.387360 0.877287 0.927457
O O1 0.316512 0.500000 0.837469
O O2 0.288117 0.418372 0.696450
O O3 0.327787 0.348608 0.856660
O O4 0.161844 0.413183 0.836746
O O5 0.875522 0.193381 0.612583
O O6 0.817372 0.333369 0.592445
O O7 0.859048 0.275310 0.753239
O O8 0.000000 0.304394 0.629038
O O9 0.174603 0.589070 0.013747
O O10 0.878612 0.714464 0.925729
O O11 0.000000 0.801278 0.830220
O O12 0.500000 0.902259 0.930324
#
# Coordination Sequence:
#
# PCOD8186587 Si02
#       5
#    16  16  16  16  16
#     4  11  24  41  61  91 136 178 212 260 326 396
#     4   9  17  33  58  91 123 156 203 267 327 372
#     4  10  21  36  60  92 126 168 213 267 325 383
#     4   9  19  38  64  92 124 163 213 270 324 378
#     4  11  23  41  67  98 127 165 223 279 326 381
#
# _framework density 22.324577999999999
#
# number of rings (size 3 to 8) (size 9 to 14) (size 15 to 20)
#    0.000    2.000    2.000    1.200    5.600    2.400 
#    0.000    0.000    0.000    0.000    0.000    2.800 
#    0.000    0.000    0.000    0.000    0.000    0.000 
#
# Total GULP energy -247810.113100 kJ/mol
# GULP energy per Si atom -12390.505655 kJ/mol
# Density = 2.227377 g / cm^3
# Si number density = 22.324578 Si / 1000 Ang^3
#
#
#
# Elastic Constant Matrix: (Units=GPa)
#
#
# Indices 1 2 3 4 5 6 
#
# 1 142.0259 27.6308 50.9644 0.0000 0.0000 0.0000
# 2 27.6308 75.7949 20.9299 0.0000 0.0000 0.0000
# 3 50.9644 20.9299 103.9004 0.0000 0.0000 0.0000
# 4 0.0000 0.0000 0.0000 6.1002 0.0000 0.0000
# 5 0.0000 0.0000 0.0000 0.0000 35.5107 0.0000
# 6 0.0000 0.0000 0.0000 0.0000 0.0000 6.9714
#
#
#
# Elastic Compliance Matrix: (Units=1/GPa)
#
#
# Indices 1 2 3 4 5 6 
#
# 1 0.008864 -0.002150 -0.003915 0.000000 0.000000 0.000000
# 2 -0.002150 0.014492 -0.001865 0.000000 0.000000 0.000000
# 3 -0.003915 -0.001865 0.011920 0.000000 0.000000 0.000000
# 4 0.000000 0.000000 0.000000 0.163930 0.000000 0.000000
# 5 0.000000 0.000000 0.000000 0.000000 0.028161 0.000000
# 6 0.000000 0.000000 0.000000 0.000000 0.000000 0.143443
#
#
# Mechanical properties :
#
#
# Convention : Reuss Voigt Hill
#
# Bulk Modulus (GPa) = 51.50019 57.86350 54.68184
# Shear Modulus (GPa) = 12.71804 24.52952 18.62378
#
# Velocity S-wave (km/s) = 2.38940 3.31836 2.89143
# Velocity P-wave (km/s) = 5.54358 6.37632 5.97448
#
# Compressibility (1/GPa) = 0.01941740
#
# Stress axis : x y z
#
# Youngs Moduli (GPa) = 112.81476 69.00226 83.88940
#
# Poissons Ratio (x) = 0.14838 0.32841
# Poissons Ratio (y) = 0.24259 0.15642
# Poissons Ratio (z) = 0.44164 0.12866
#
# Static dielectric constant tensor:
#      x y z
#    x 3.927620 0.000000 0.000000 
#    y 0.000000 3.572780 0.000000 
#    z 0.000000 0.000000 4.202050 
# 
# 
# High freq. dielectric constant tensor:
#      x y z
#    x 1.879010 0.000000 0.000000 
#    y 0.000000 1.839040 0.000000 
#    z 0.000000 0.000000 1.878490 
# 
# From -- ./inp_files/13823.got.cif
#   From: 2010.03.12/outbox.cif.g09.slc.cpg/sg42_7_cif.got.tgz:13823.got - 2010.04.14 02:04:31.
