data_PCOD8186036
_publ_section_title
;
Structure prediction by ZEFSAII (Michael W. Deem and Ramdas Pophale) SiO2 
 PCOD8186036
Probable space group: F M M 2
;
_chemical_formula_sum "Si O2"
_cell_formula_units_Z 64
_cell_length_a 12.951729
_cell_length_b 19.426552
_cell_length_c 13.127741
_cell_angle_alpha 90.000000
_cell_angle_beta 90.000000
_cell_angle_gamma 90.000000
_cell_volume 3303.037265
_symmetry_space_group_name_H-M "F M M 2"
_symmetry_group_IT_number 42
_symmetry_cell_setting 'orthorhombic'
loop_
_space_group_symop_operation_xyz
x,y,z
-x,-y,z
-x,y,z
x,-y,z
x,1/2+y,1/2+z
-x,1/2-y,1/2+z
-x,1/2+y,1/2+z
x,1/2-y,1/2+z
1/2+x,y,1/2+z
1/2-x,-y,1/2+z
1/2-x,y,1/2+z
1/2+x,-y,1/2+z
1/2+x,1/2+y,z
1/2-x,1/2-y,z
1/2-x,1/2+y,z
1/2+x,1/2-y,z
loop_
_atom_site_type_symbol
_atom_site_label
_atom_site_fract_x
_atom_site_fract_y
_atom_site_fract_z
Si Si1 0.118004 0.421354 0.837200
Si Si2 0.321723 0.652609 0.149273
Si Si3 0.615256 0.801197 0.220054
Si Si4 0.710992 0.824959 0.431151
O O1 0.145246 0.500000 0.862567
O O2 0.134664 0.410486 0.715348
O O3 0.192483 0.372650 0.902025
O O4 0.000000 0.404525 0.866459
O O5 0.368535 0.720237 0.202927
O O6 0.196371 0.655063 0.154044
O O7 0.349651 0.644600 0.029945
O O8 0.500000 0.822994 0.188030
O O9 0.630867 0.818179 0.339175
O O10 0.750000 0.750000 0.465037
#
# Coordination Sequence:
#
# PCOD8186036 Si02
#       4
#    16  16  16  16
#     4  10  22  40  60  82 114 154 192 231 278 340
#     4  10  20  35  53  81 113 145 184 229 282 331
#     4  10  19  32  51  80 112 141 176 226 281 328
#     4  11  20  36  55  85 115 144 186 236 286 328
#
# _framework density 19.376107000000001
#
# number of rings (size 3 to 8) (size 9 to 14) (size 15 to 20)
#    0.000    1.750    7.500    0.750    0.000    4.000 
#    0.000    0.000    0.000   12.000    0.000    0.000 
#    0.000    0.000    0.000    0.000    0.000    0.000 
#
# Total GULP energy -198351.643576 kJ/mol
# GULP energy per Si atom -12396.977724 kJ/mol
# Density = 1.933201 g / cm^3
# Si number density = 19.376107 Si / 1000 Ang^3
#
#
#
# Elastic Constant Matrix: (Units=GPa)
#
#
# Indices 1 2 3 4 5 6 
#
# 1 104.5734 36.5253 12.7152 0.0000 0.0000 0.0000
# 2 36.5253 83.8652 26.4538 0.0000 0.0000 0.0000
# 3 12.7152 26.4538 123.8596 0.0000 0.0000 0.0000
# 4 0.0000 0.0000 0.0000 10.5979 0.0000 0.0000
# 5 0.0000 0.0000 0.0000 0.0000 11.1069 0.0000
# 6 0.0000 0.0000 0.0000 0.0000 0.0000 16.6054
#
#
#
# Elastic Compliance Matrix: (Units=1/GPa)
#
#
# Indices 1 2 3 4 5 6 
#
# 1 0.011280 -0.004876 -0.000117 0.000000 0.000000 0.000000
# 2 -0.004876 0.014893 -0.002680 0.000000 0.000000 0.000000
# 3 -0.000117 -0.002680 0.008658 0.000000 0.000000 0.000000
# 4 0.000000 0.000000 0.000000 0.094358 0.000000 0.000000
# 5 0.000000 0.000000 0.000000 0.000000 0.090034 0.000000
# 6 0.000000 0.000000 0.000000 0.000000 0.000000 0.060221
#
#
# Mechanical properties :
#
#
# Convention : Reuss Voigt Hill
#
# Bulk Modulus (GPa) = 51.32049 51.52076 51.42063
# Shear Modulus (GPa) = 16.59558 23.43563 20.01560
#
# Velocity S-wave (km/s) = 2.92977 3.48158 3.21753
# Velocity P-wave (km/s) = 6.16350 6.54289 6.35603
#
# Compressibility (1/GPa) = 0.01948539
#
# Stress axis : x y z
#
# Youngs Moduli (GPa) = 88.65335 67.14604 115.49915
#
# Poissons Ratio (x) = 0.32740 0.01347
# Poissons Ratio (y) = 0.43226 0.30957
# Poissons Ratio (z) = 0.01034 0.17997
#
# Static dielectric constant tensor:
#      x y z
#    x 3.497150 0.000000 0.000000 
#    y 0.000000 3.244910 0.000000 
#    z 0.000000 0.000000 3.563600 
# 
# 
# High freq. dielectric constant tensor:
#      x y z
#    x 1.747560 0.000000 0.000000 
#    y 0.000000 1.718890 0.000000 
#    z 0.000000 0.000000 1.760020 
# 
# From -- ./inp_files/7490.got.cif
#   From: 2010.03.12/outbox.cif.g09.slc.cpg/sg42_4_cif.got.tgz:7490.got - 2010.04.14 02:04:31.
