data_PCOD8186349
_publ_section_title
;
Structure prediction by ZEFSAII (Michael W. Deem and Ramdas Pophale) SiO2 
 PCOD8186349
Probable space group: F M M 2
;
_chemical_formula_sum "Si O2"
_cell_formula_units_Z 96
_cell_length_a 18.648057
_cell_length_b 16.900555
_cell_length_c 16.979365
_cell_angle_alpha 90.000000
_cell_angle_beta 90.000000
_cell_angle_gamma 90.000000
_cell_volume 5351.259342
_symmetry_space_group_name_H-M "F M M 2"
_symmetry_group_IT_number 42
_symmetry_cell_setting 'orthorhombic'
loop_
_space_group_symop_operation_xyz
x,y,z
-x,-y,z
-x,y,z
x,-y,z
x,1/2+y,1/2+z
-x,1/2-y,1/2+z
-x,1/2+y,1/2+z
x,1/2-y,1/2+z
1/2+x,y,1/2+z
1/2-x,-y,1/2+z
1/2-x,y,1/2+z
1/2+x,-y,1/2+z
1/2+x,1/2+y,z
1/2-x,1/2-y,z
1/2-x,1/2+y,z
1/2+x,1/2-y,z
loop_
_atom_site_type_symbol
_atom_site_label
_atom_site_fract_x
_atom_site_fract_y
_atom_site_fract_z
Si Si1 0.085072 0.195800 0.560710
Si Si2 0.347759 0.909209 0.193543
Si Si3 0.824152 0.786356 0.409476
Si Si4 0.578769 0.174180 0.678186
Si Si5 0.078350 0.310692 0.307415
Si Si6 0.198468 0.592726 0.767214
O O1 0.125195 0.134424 0.616499
O O2 0.124435 0.182424 0.478009
O O3 0.096570 0.285447 0.593514
O O4 0.000000 0.176428 0.553877
O O5 0.401238 0.893761 0.266811
O O6 0.269660 0.878822 0.221759
O O7 0.345574 0.000000 0.171603
O O8 0.750000 0.750000 0.442192
O O9 0.864151 0.711108 0.372651
O O10 0.811917 0.857015 0.346997
O O11 0.500000 0.134360 0.675345
O O12 0.579084 0.245192 0.739875
O O13 0.634663 0.107417 0.704543
O O14 0.000000 0.317788 0.346689
O O15 0.201181 0.500000 0.789650
#
# Coordination Sequence:
#
# PCOD8186349 Si02
#       6
#    16  16  16  16  16  16
#     4  10  22  36  56  85 112 141 183 231 275 326
#     4  10  20  35  55  81 111 143 184 230 275 322
#     4  11  21  35  56  81 110 148 179 222 277 330
#     4   8  17  33  54  78 106 140 181 225 269 319
#     4   9  17  32  54  78 105 139 182 225 263 319
#     4  10  21  36  55  82 112 144 186 229 269 324
#
# _framework density 17.939702
#
# number of rings (size 3 to 8) (size 9 to 14) (size 15 to 20)
#    0.000    2.333    1.667    2.000    2.333    3.000 
#    0.000    0.000    0.000    1.000    0.000    2.333 
#    0.000    0.000    0.000    0.000    0.000    0.000 
#
# Total GULP energy -297457.301799 kJ/mol
# GULP energy per Si atom -12394.054242 kJ/mol
# Density = 1.789887 g / cm^3
# Si number density = 17.939702 Si / 1000 Ang^3
#
#
#
# Elastic Constant Matrix: (Units=GPa)
#
#
# Indices 1 2 3 4 5 6 
#
# 1 134.5469 36.6288 60.4434 0.0000 0.0000 0.0000
# 2 36.6288 48.3590 37.9763 0.0000 0.0000 0.0000
# 3 60.4434 37.9763 104.9761 0.0000 0.0000 0.0000
# 4 0.0000 0.0000 0.0000 18.0526 0.0000 0.0000
# 5 0.0000 0.0000 0.0000 0.0000 23.7827 0.0000
# 6 0.0000 0.0000 0.0000 0.0000 0.0000 23.0452
#
#
#
# Elastic Compliance Matrix: (Units=1/GPa)
#
#
# Indices 1 2 3 4 5 6 
#
# 1 0.010701 -0.004563 -0.004511 0.000000 0.000000 0.000000
# 2 -0.004563 0.030830 -0.008526 0.000000 0.000000 0.000000
# 3 -0.004511 -0.008526 0.015208 0.000000 0.000000 0.000000
# 4 0.000000 0.000000 0.000000 0.055394 0.000000 0.000000
# 5 0.000000 0.000000 0.000000 0.000000 0.042047 0.000000
# 6 0.000000 0.000000 0.000000 0.000000 0.000000 0.043393
#
#
# Mechanical properties :
#
#
# Convention : Reuss Voigt Hill
#
# Bulk Modulus (GPa) = 46.42637 61.99767 54.21202
# Shear Modulus (GPa) = 20.83750 23.16499 22.00125
#
# Velocity S-wave (km/s) = 3.41182 3.59732 3.50580
# Velocity P-wave (km/s) = 6.43863 7.20335 6.83170
#
# Compressibility (1/GPa) = 0.02153948
#
# Stress axis : x y z
#
# Youngs Moduli (GPa) = 93.44960 32.43566 65.75702
#
# Poissons Ratio (x) = 0.14800 0.29661
# Poissons Ratio (y) = 0.42641 0.56064
# Poissons Ratio (z) = 0.42152 0.27654
#
# Static dielectric constant tensor:
#      x y z
#    x 3.663160 0.000000 0.000000 
#    y 0.000000 3.083400 0.000000 
#    z 0.000000 0.000000 3.301080 
# 
# 
# High freq. dielectric constant tensor:
#      x y z
#    x 1.718140 0.000000 0.000000 
#    y 0.000000 1.668080 0.000000 
#    z 0.000000 0.000000 1.679830 
# 
# From -- ./inp_files/14015.got.cif
#   From: 2010.03.12/outbox.cif.g09.slc.cpg/sg42_8_cif.got.tgz:14015.got - 2010.04.14 02:04:31.
