data_PCOD8186973
_publ_section_title
;
Structure prediction by ZEFSAII (Michael W. Deem and Ramdas Pophale) SiO2 
 PCOD8186973
Probable space group: F D D 2
;
_chemical_formula_sum "Si O2"
_cell_formula_units_Z 128
_cell_length_a 21.958498
_cell_length_b 23.610841
_cell_length_c 12.133001
_cell_angle_alpha 90.000000
_cell_angle_beta 90.000000
_cell_angle_gamma 90.000000
_cell_volume 6290.458771
_symmetry_space_group_name_H-M "F D D 2"
_symmetry_group_IT_number 43
_symmetry_cell_setting 'orthorhombic'
loop_
_space_group_symop_operation_xyz
x,y,z
-x,-y,z
1/4-x,1/4+y,1/4+z
1/4+x,1/4-y,1/4+z
x,1/2+y,1/2+z
-x,1/2-y,1/2+z
1/4-x,3/4+y,3/4+z
1/4+x,3/4-y,3/4+z
1/2+x,y,1/2+z
1/2-x,-y,1/2+z
3/4-x,1/4+y,3/4+z
3/4+x,1/4-y,3/4+z
1/2+x,1/2+y,z
1/2-x,1/2-y,z
3/4-x,3/4+y,1/4+z
3/4+x,3/4-y,1/4+z
loop_
_atom_site_type_symbol
_atom_site_label
_atom_site_fract_x
_atom_site_fract_y
_atom_site_fract_z
Si Si1 0.812187 0.441475 0.979330
Si Si2 0.796887 0.021503 0.106826
Si Si3 0.735750 0.943490 0.265522
Si Si4 0.546798 0.604363 0.861897
Si Si5 0.094895 0.776018 0.641059
Si Si6 0.645072 0.404475 0.290453
Si Si7 0.865435 0.801879 0.766776
Si Si8 0.265616 0.860910 0.394245
O O1 0.787066 0.453875 0.857621
O O2 0.753684 0.435313 0.059034
O O3 0.847857 0.383389 0.973832
O O4 0.858521 0.488692 0.025582
O O5 0.833444 0.048799 0.205471
O O6 0.761281 0.966995 0.150766
O O7 0.842857 0.001504 0.011851
O O8 0.723914 0.876844 0.234506
O O9 0.674613 0.978021 0.301665
O O10 0.585981 0.546623 0.871012
O O11 0.586395 0.655936 0.818160
O O12 0.492335 0.594050 0.773703
O O13 0.049012 0.828829 0.631143
O O14 0.607225 0.433962 0.388059
O O15 0.700107 0.366634 0.337140
O O16 0.802006 0.810380 0.832594
#
# Coordination Sequence:
#
# PCOD8186973 Si02
#       8
#    16  16  16  16  16  16  16  16
#     4  11  23  37  60  87 115 161 202 248 302 360
#     4  11  19  39  62  85 116 159 207 246 289 372
#     4  11  19  39  62  85 119 157 209 243 301 375
#     4  10  20  35  62  91 121 157 196 252 307 367
#     4  10  21  36  60  91 118 160 203 251 304 362
#     4  11  21  36  59  85 119 156 197 248 300 358
#     4  10  20  35  58  89 117 149 195 248 306 359
#     4  10  19  33  57  92 121 146 195 258 303 358
#
# _framework density 20.348278000000001
#
# number of rings (size 3 to 8) (size 9 to 14) (size 15 to 20)
#    0.000    1.500    5.000    2.250    3.500    0.500 
#    4.500    1.250    0.000    5.250    0.000    0.000 
#    0.000    0.000    0.000    0.000    0.000    0.000 
#
# Total GULP energy -396677.424265 kJ/mol
# GULP energy per Si atom -12396.169508 kJ/mol
# Density = 2.030196 g / cm^3
# Si number density = 20.348278 Si / 1000 Ang^3
#
#
#
# Elastic Constant Matrix: (Units=GPa)
#
#
# Indices 1 2 3 4 5 6 
#
# 1 78.4004 34.5253 44.1267 0.0000 0.0000 0.0000
# 2 34.5253 61.4456 35.3312 0.0000 0.0000 0.0000
# 3 44.1267 35.3312 115.0403 0.0000 0.0000 0.0000
# 4 0.0000 0.0000 0.0000 27.2620 0.0000 0.0000
# 5 0.0000 0.0000 0.0000 0.0000 30.3451 0.0000
# 6 0.0000 0.0000 0.0000 0.0000 0.0000 32.5176
#
#
#
# Elastic Compliance Matrix: (Units=1/GPa)
#
#
# Indices 1 2 3 4 5 6 
#
# 1 0.018946 -0.007854 -0.004855 0.000000 0.000000 0.000000
# 2 -0.007854 0.023021 -0.004058 0.000000 0.000000 0.000000
# 3 -0.004855 -0.004058 0.011801 0.000000 0.000000 0.000000
# 4 0.000000 0.000000 0.000000 0.036681 0.000000 0.000000
# 5 0.000000 0.000000 0.000000 0.000000 0.032954 0.000000
# 6 0.000000 0.000000 0.000000 0.000000 0.000000 0.030753
#
#
# Mechanical properties :
#
#
# Convention : Reuss Voigt Hill
#
# Bulk Modulus (GPa) = 49.42004 53.65031 51.53517
# Shear Modulus (GPa) = 25.71561 27.41849 26.56705
#
# Velocity S-wave (km/s) = 3.55882 3.67476 3.61725
# Velocity P-wave (km/s) = 6.42080 6.66546 6.54428
#
# Compressibility (1/GPa) = 0.02023471
#
# Stress axis : x y z
#
# Youngs Moduli (GPa) = 52.78045 43.43932 84.73763
#
# Poissons Ratio (x) = 0.34117 0.41143
# Poissons Ratio (y) = 0.41453 0.34383
# Poissons Ratio (z) = 0.25626 0.17626
#
# Static dielectric constant tensor:
#      x y z
#    x 3.659750 0.000000 0.000000 
#    y 0.000000 3.497190 0.000000 
#    z 0.000000 0.000000 3.940240 
# 
# 
# High freq. dielectric constant tensor:
#      x y z
#    x 1.777940 0.000000 0.000000 
#    y 0.000000 1.772810 0.000000 
#    z 0.000000 0.000000 1.805830 
# 
# From -- ./inp_files/7667.got.cif
#   From: 2010.06.25/outbox.cif.g09.slc.cpg/sg43_4_cif.got.tgz:7667.got - 2010.06.26 16:48:59.
