data_PCOD8186548
_publ_section_title
;
Structure prediction by ZEFSAII (Michael W. Deem and Ramdas Pophale) SiO2 
 PCOD8186548
Probable space group: F M M 2
;
_chemical_formula_sum "Si O2"
_cell_formula_units_Z 80
_cell_length_a 18.388068
_cell_length_b 7.725574
_cell_length_c 29.624351
_cell_angle_alpha 90.000000
_cell_angle_beta 90.000000
_cell_angle_gamma 90.000000
_cell_volume 4208.387313
_symmetry_space_group_name_H-M "F M M 2"
_symmetry_group_IT_number 42
_symmetry_cell_setting 'orthorhombic'
loop_
_space_group_symop_operation_xyz
x,y,z
-x,-y,z
-x,y,z
x,-y,z
x,1/2+y,1/2+z
-x,1/2-y,1/2+z
-x,1/2+y,1/2+z
x,1/2-y,1/2+z
1/2+x,y,1/2+z
1/2-x,-y,1/2+z
1/2-x,y,1/2+z
1/2+x,-y,1/2+z
1/2+x,1/2+y,z
1/2-x,1/2-y,z
1/2-x,1/2+y,z
1/2+x,1/2-y,z
loop_
_atom_site_type_symbol
_atom_site_label
_atom_site_fract_x
_atom_site_fract_y
_atom_site_fract_z
Si Si1 0.413912 0.691796 0.911560
Si Si2 0.412964 0.500000 0.472854
Si Si3 0.585549 0.199053 0.639418
Si Si4 0.914001 0.000000 0.573789
Si Si5 0.417495 0.294457 0.314380
Si Si6 0.333520 0.702466 0.228390
O O1 0.500000 0.715240 0.909164
O O2 0.391674 0.500000 0.928131
O O3 0.382412 0.830520 0.947033
O O4 0.383622 0.723093 0.861095
O O5 0.500000 0.500000 0.473816
O O6 0.380669 0.500000 0.523458
O O7 0.500000 0.214936 0.648384
O O8 0.611487 0.324562 0.598982
O O9 0.625778 0.270515 0.683891
O O10 0.606658 0.000000 0.627542
O O11 0.000000 0.000000 0.570556
O O12 0.500000 0.229322 0.307372
O O13 0.414927 0.500000 0.316312
O O14 0.369575 0.216802 0.273385
O O15 0.345235 0.500000 0.230613
O O16 0.250000 0.750000 0.225692
#
# Coordination Sequence:
#
# PCOD8186548 Si02
#       6
#    16   8  16   8  16  16
#     4   9  16  26  43  69 101 134 165 198 244 298
#     4   9  16  28  44  69 104 130 156 206 256 298
#     4   9  18  34  52  72 102 135 169 208 249 300
#     4   9  18  30  50  75  98 132 169 204 256 300
#     4   9  16  30  50  70  99 138 173 205 245 297
#     4  10  21  33  49  73 103 135 172 208 254 296
#
# _framework density 19.009658000000002
#
# number of rings (size 3 to 8) (size 9 to 14) (size 15 to 20)
#    0.000    2.800    1.000    0.600    1.400    4.000 
#    0.000    4.000    0.000    0.000    0.000    1.400 
#    0.000    0.000    0.000    0.000    0.000    0.000 
#
# Total GULP energy -247927.469852 kJ/mol
# GULP energy per Si atom -12396.373493 kJ/mol
# Density = 1.896639 g / cm^3
# Si number density = 19.009658 Si / 1000 Ang^3
#
#
#
# Elastic Constant Matrix: (Units=GPa)
#
#
# Indices 1 2 3 4 5 6 
#
# 1 45.2004 18.9734 40.1892 0.0000 0.0000 0.0000
# 2 18.9734 107.6027 81.9768 0.0000 0.0000 0.0000
# 3 40.1892 81.9768 196.0608 0.0000 0.0000 0.0000
# 4 0.0000 0.0000 0.0000 17.6116 0.0000 0.0000
# 5 0.0000 0.0000 0.0000 0.0000 4.3826 0.0000
# 6 0.0000 0.0000 0.0000 0.0000 0.0000 14.3926
#
#
#
# Elastic Compliance Matrix: (Units=1/GPa)
#
#
# Indices 1 2 3 4 5 6 
#
# 1 0.027102 -0.000802 -0.005220 0.000000 0.000000 0.000000
# 2 -0.000802 0.013661 -0.005548 0.000000 0.000000 0.000000
# 3 -0.005220 -0.005548 0.008490 0.000000 0.000000 0.000000
# 4 0.000000 0.000000 0.000000 0.056781 0.000000 0.000000
# 5 0.000000 0.000000 0.000000 0.000000 0.228176 0.000000
# 6 0.000000 0.000000 0.000000 0.000000 0.000000 0.069480
#
#
# Mechanical properties :
#
#
# Convention : Reuss Voigt Hill
#
# Bulk Modulus (GPa) = 38.29401 70.12697 54.21049
# Shear Modulus (GPa) = 11.48016 21.12566 16.30291
#
# Velocity S-wave (km/s) = 2.46013 3.33725 2.93168
# Velocity P-wave (km/s) = 5.31581 7.19861 6.32763
#
# Compressibility (1/GPa) = 0.02611375
#
# Stress axis : x y z
#
# Youngs Moduli (GPa) = 36.89809 73.19920 117.78418
#
# Poissons Ratio (x) = 0.05870 0.61485
# Poissons Ratio (y) = 0.02959 0.65343
# Poissons Ratio (z) = 0.19261 0.40609
#
# Static dielectric constant tensor:
#      x y z
#    x 2.931190 0.000000 0.000000 
#    y 0.000000 3.559310 0.000000 
#    z 0.000000 0.000000 3.799430 
# 
# 
# High freq. dielectric constant tensor:
#      x y z
#    x 1.678450 0.000000 0.000000 
#    y 0.000000 1.744110 0.000000 
#    z 0.000000 0.000000 1.744200 
# 
# From -- ./inp_files/27828.got.cif
#   From: 2010.03.12/outbox.cif.g09.slc.cpg/sg42_14_cif.got.tgz:27828.got - 2010.04.14 02:04:31.
