data_PCOD8186619
_publ_section_title
;
Structure prediction by ZEFSAII (Michael W. Deem and Ramdas Pophale) SiO2 
 PCOD8186619
Probable space group: F M M 2
;
_chemical_formula_sum "Si O2"
_cell_formula_units_Z 96
_cell_length_a 27.093996
_cell_length_b 12.877797
_cell_length_c 13.876310
_cell_angle_alpha 90.000000
_cell_angle_beta 90.000000
_cell_angle_gamma 90.000000
_cell_volume 4841.596927
_symmetry_space_group_name_H-M "F M M 2"
_symmetry_group_IT_number 42
_symmetry_cell_setting 'orthorhombic'
loop_
_space_group_symop_operation_xyz
x,y,z
-x,-y,z
-x,y,z
x,-y,z
x,1/2+y,1/2+z
-x,1/2-y,1/2+z
-x,1/2+y,1/2+z
x,1/2-y,1/2+z
1/2+x,y,1/2+z
1/2-x,-y,1/2+z
1/2-x,y,1/2+z
1/2+x,-y,1/2+z
1/2+x,1/2+y,z
1/2-x,1/2-y,z
1/2-x,1/2+y,z
1/2+x,1/2-y,z
loop_
_atom_site_type_symbol
_atom_site_label
_atom_site_fract_x
_atom_site_fract_y
_atom_site_fract_z
Si Si1 0.731599 0.000000 0.884818
Si Si2 0.056764 0.881098 0.551644
Si Si3 0.611069 0.500000 0.978892
Si Si4 0.942844 0.305902 0.418281
Si Si5 0.791738 0.165006 0.244674
Si Si6 0.118497 0.804423 0.724492
Si Si7 0.285170 0.000000 0.584887
Si Si8 0.834537 0.000000 0.784114
O O1 0.702944 0.102008 0.846430
O O2 0.780241 0.000000 0.821745
O O3 0.744506 0.000000 0.998302
O O4 0.063752 0.811980 0.456290
O O5 0.084761 0.814742 0.631677
O O6 0.000000 0.886628 0.582770
O O7 0.076644 0.000000 0.537017
O O8 0.658707 0.500000 0.047344
O O9 0.579516 0.606576 0.991758
O O10 0.625981 0.500000 0.868452
O O11 0.916354 0.307034 0.316443
O O12 0.000000 0.333719 0.403901
O O13 0.750000 0.250000 0.262587
O O14 0.847088 0.203486 0.223234
O O15 0.775527 0.099620 0.151102
O O16 0.157128 0.898959 0.720134
#
# Coordination Sequence:
#
# PCOD8186619 Si02
#       8
#     8  16   8  16  16  16   8   8
#     4  10  21  43  57  82 117 158 197 249 303 347
#     4  10  21  38  61  90 123 160 204 251 305 371
#     4   9  18  35  60  88 116 154 200 249 296 360
#     4  10  21  37  61  93 124 157 202 256 310 367
#     4  11  23  39  61  87 119 158 204 251 297 366
#     4  11  20  38  60  90 118 156 201 248 305 353
#     4  10  23  42  60  87 121 158 203 248 307 355
#     4   9  17  32  59  81 112 144 190 242 287 342
#
# _framework density 19.828168999999999
#
# number of rings (size 3 to 8) (size 9 to 14) (size 15 to 20)
#    0.000    1.833    2.500    1.750    0.000    0.667 
#    6.000    0.000    0.000    0.000    0.000    0.000 
#    0.000    0.000    0.000    0.000    0.000    0.000 
#
# Total GULP energy -297423.481273 kJ/mol
# GULP energy per Si atom -12392.645053 kJ/mol
# Density = 1.978304 g / cm^3
# Si number density = 19.828169 Si / 1000 Ang^3
#
#
#
# Elastic Constant Matrix: (Units=GPa)
#
#
# Indices 1 2 3 4 5 6 
#
# 1 60.0907 35.9038 13.2470 0.0000 0.0000 0.0000
# 2 35.9038 117.7594 26.0670 0.0000 0.0000 0.0000
# 3 13.2470 26.0670 60.5034 0.0000 0.0000 0.0000
# 4 0.0000 0.0000 0.0000 23.7089 0.0000 0.0000
# 5 0.0000 0.0000 0.0000 0.0000 6.8642 0.0000
# 6 0.0000 0.0000 0.0000 0.0000 0.0000 38.0941
#
#
#
# Elastic Compliance Matrix: (Units=1/GPa)
#
#
# Indices 1 2 3 4 5 6 
#
# 1 0.020563 -0.005829 -0.001991 0.000000 0.000000 0.000000
# 2 -0.005829 0.011039 -0.003480 0.000000 0.000000 0.000000
# 3 -0.001991 -0.003480 0.018463 0.000000 0.000000 0.000000
# 4 0.000000 0.000000 0.000000 0.042178 0.000000 0.000000
# 5 0.000000 0.000000 0.000000 0.000000 0.145684 0.000000
# 6 0.000000 0.000000 0.000000 0.000000 0.000000 0.026251
#
#
# Mechanical properties :
#
#
# Convention : Reuss Voigt Hill
#
# Bulk Modulus (GPa) = 36.40836 43.19879 39.80357
# Shear Modulus (GPa) = 16.89567 24.60914 20.75240
#
# Velocity S-wave (km/s) = 2.92225 3.52678 3.23865
# Velocity P-wave (km/s) = 5.45783 6.19823 5.83977
#
# Compressibility (1/GPa) = 0.02746622
#
# Stress axis : x y z
#
# Youngs Moduli (GPa) = 48.63085 90.58501 54.16175
#
# Poissons Ratio (x) = 0.52800 0.10783
# Poissons Ratio (y) = 0.28346 0.18848
# Poissons Ratio (z) = 0.09682 0.31523
#
# Static dielectric constant tensor:
#      x y z
#    x 3.719520 0.000000 0.000000 
#    y 0.000000 3.889890 0.000000 
#    z 0.000000 0.000000 3.483590 
# 
# 
# High freq. dielectric constant tensor:
#      x y z
#    x 1.778770 0.000000 0.000000 
#    y 0.000000 1.785810 0.000000 
#    z 0.000000 0.000000 1.756000 
# 
# From -- ./inp_files/17325.got.cif
#   From: 2010.03.12/outbox.cif.g09.slc.cpg/sg42_9_cif.got.tgz:17325.got - 2010.04.14 02:04:31.
