data_PCOD8186728
_publ_section_title
;
Structure prediction by ZEFSAII (Michael W. Deem and Ramdas Pophale) SiO2 
 PCOD8186728
Probable space group: F M M 2
;
_chemical_formula_sum "Si O2"
_cell_formula_units_Z 80
_cell_length_a 20.432646
_cell_length_b 17.105355
_cell_length_c 11.699490
_cell_angle_alpha 90.000000
_cell_angle_beta 90.000000
_cell_angle_gamma 90.000000
_cell_volume 4089.061413
_symmetry_space_group_name_H-M "F M M 2"
_symmetry_group_IT_number 42
_symmetry_cell_setting 'orthorhombic'
loop_
_space_group_symop_operation_xyz
x,y,z
-x,-y,z
-x,y,z
x,-y,z
x,1/2+y,1/2+z
-x,1/2-y,1/2+z
-x,1/2+y,1/2+z
x,1/2-y,1/2+z
1/2+x,y,1/2+z
1/2-x,-y,1/2+z
1/2-x,y,1/2+z
1/2+x,-y,1/2+z
1/2+x,1/2+y,z
1/2-x,1/2-y,z
1/2-x,1/2+y,z
1/2+x,1/2-y,z
loop_
_atom_site_type_symbol
_atom_site_label
_atom_site_fract_x
_atom_site_fract_y
_atom_site_fract_z
Si Si1 0.110258 0.834207 0.004850
Si Si2 0.744564 0.660708 0.925495
Si Si3 0.000000 0.907321 0.154937
Si Si4 0.118969 0.845463 0.532765
Si Si5 0.500000 0.912071 0.905222
Si Si6 0.357649 0.092105 0.280777
O O1 0.066517 0.877713 0.096852
O O2 0.188901 0.844825 0.026672
O O3 0.095186 0.742349 0.008922
O O4 0.095016 0.871059 0.879067
O O5 0.750000 0.750000 0.883135
O O6 0.813245 0.630059 0.971815
O O7 0.718285 0.609002 0.818096
O O8 0.000000 0.869000 0.282011
O O9 0.000000 0.000000 0.147881
O O10 0.125263 0.861843 0.666353
O O11 0.063817 0.899096 0.480049
O O12 0.500000 0.000000 0.865589
O O13 0.369793 0.000000 0.266129
#
# Coordination Sequence:
#
# PCOD8186728 Si02
#       6
#    16  16   8  16   8  16
#     4   9  22  41  64  95 124 166 215 256 324 386
#     4   8  20  40  63  94 125 162 210 257 319 383
#     4  11  23  41  65  91 131 169 217 275 321 385
#     4  11  22  43  65  92 132 171 212 263 321 397
#     4  11  27  41  57  93 129 171 215 265 329 375
#     4  10  22  39  65  97 124 162 215 265 316 369
#
# _framework density 19.564391000000001
#
# number of rings (size 3 to 8) (size 9 to 14) (size 15 to 20)
#    1.200    1.000    0.000    1.800    2.800    6.400 
#    0.000    4.000    0.000    0.000    0.000    0.000 
#    0.000    0.000    0.000    0.000    0.000    0.000 
#
# Total GULP energy -247784.789832 kJ/mol
# GULP energy per Si atom -12389.239492 kJ/mol
# Density = 1.951986 g / cm^3
# Si number density = 19.564391 Si / 1000 Ang^3
#
#
#
# Elastic Constant Matrix: (Units=GPa)
#
#
# Indices 1 2 3 4 5 6 
#
# 1 117.4990 26.5663 51.6030 0.0000 0.0000 0.0000
# 2 26.5663 93.2297 32.0280 0.0000 0.0000 0.0000
# 3 51.6030 32.0280 133.6484 0.0000 0.0000 0.0000
# 4 0.0000 0.0000 0.0000 23.6903 0.0000 0.0000
# 5 0.0000 0.0000 0.0000 0.0000 43.9099 0.0000
# 6 0.0000 0.0000 0.0000 0.0000 0.0000 16.3788
#
#
#
# Elastic Compliance Matrix: (Units=1/GPa)
#
#
# Indices 1 2 3 4 5 6 
#
# 1 0.010502 -0.001743 -0.003637 0.000000 0.000000 0.000000
# 2 -0.001743 0.011978 -0.002197 0.000000 0.000000 0.000000
# 3 -0.003637 -0.002197 0.009413 0.000000 0.000000 0.000000
# 4 0.000000 0.000000 0.000000 0.042211 0.000000 0.000000
# 5 0.000000 0.000000 0.000000 0.000000 0.022774 0.000000
# 6 0.000000 0.000000 0.000000 0.000000 0.000000 0.061054
#
#
# Mechanical properties :
#
#
# Convention : Reuss Voigt Hill
#
# Bulk Modulus (GPa) = 59.74510 62.75241 61.24876
# Shear Modulus (GPa) = 27.98489 32.40779 30.19634
#
# Velocity S-wave (km/s) = 3.78616 4.07439 3.93292
# Velocity P-wave (km/s) = 7.05105 7.36740 7.21096
#
# Compressibility (1/GPa) = 0.01673777
#
# Stress axis : x y z
#
# Youngs Moduli (GPa) = 95.21773 83.48790 106.23268
#
# Poissons Ratio (x) = 0.14553 0.38640
# Poissons Ratio (y) = 0.16598 0.23343
# Poissons Ratio (z) = 0.34634 0.18345
#
# Static dielectric constant tensor:
#      x y z
#    x 3.506250 0.000000 0.000000 
#    y 0.000000 3.518390 0.000000 
#    z 0.000000 0.000000 3.418840 
# 
# 
# High freq. dielectric constant tensor:
#      x y z
#    x 1.759910 0.000000 0.000000 
#    y 0.000000 1.763120 0.000000 
#    z 0.000000 0.000000 1.753760 
# 
# From -- ./inp_files/10120.got.cif
#   From: 2010.03.12/outbox.cif.g09.slc.cpg/sg42_6_cif.got.tgz:10120.got - 2010.04.14 02:04:31.
