data_PCOD8186996
_publ_section_title
;
Structure prediction by ZEFSAII (Michael W. Deem and Ramdas Pophale) SiO2 
 PCOD8186996
Probable space group: F D D 2
;
_chemical_formula_sum "Si O2"
_cell_formula_units_Z 88
_cell_length_a 14.333941
_cell_length_b 10.690971
_cell_length_c 27.421905
_cell_angle_alpha 90.000000
_cell_angle_beta 90.000000
_cell_angle_gamma 90.000000
_cell_volume 4202.235487
_symmetry_space_group_name_H-M "F D D 2"
_symmetry_group_IT_number 43
_symmetry_cell_setting 'orthorhombic'
loop_
_space_group_symop_operation_xyz
x,y,z
-x,-y,z
1/4-x,1/4+y,1/4+z
1/4+x,1/4-y,1/4+z
x,1/2+y,1/2+z
-x,1/2-y,1/2+z
1/4-x,3/4+y,3/4+z
1/4+x,3/4-y,3/4+z
1/2+x,y,1/2+z
1/2-x,-y,1/2+z
3/4-x,1/4+y,3/4+z
3/4+x,1/4-y,3/4+z
1/2+x,1/2+y,z
1/2-x,1/2-y,z
3/4-x,3/4+y,1/4+z
3/4+x,3/4-y,1/4+z
loop_
_atom_site_type_symbol
_atom_site_label
_atom_site_fract_x
_atom_site_fract_y
_atom_site_fract_z
Si Si1 0.866391 0.398902 0.096550
Si Si2 0.000000 0.000000 0.267429
Si Si3 0.576954 0.823143 0.107078
Si Si4 0.043680 0.730829 0.713127
Si Si5 0.853396 0.294430 0.515619
Si Si6 0.836269 0.329324 0.203090
O O1 0.811866 0.343112 0.050385
O O2 0.863154 0.550331 0.098090
O O3 0.819359 0.350315 0.145909
O O4 0.971163 0.351049 0.093995
O O5 0.940085 0.911866 0.230741
O O6 0.586588 0.763858 0.160491
O O7 0.617321 0.717087 0.071678
O O8 0.105431 0.810580 0.751208
O O9 0.933074 0.758799 0.713923
O O10 0.750000 0.250000 0.504284
O O11 0.919372 0.211466 0.480911
O O12 0.750000 0.250000 0.224215
#
# Coordination Sequence:
#
# PCOD8186996 Si02
#       6
#    16   8  16  16  16  16
#     4  10  20  38  65  94 130 166 224 266 324 398
#     4  12  24  42  62 100 136 172 212 284 340 392
#     4  10  21  41  66  92 123 178 220 265 323 399
#     4  10  23  42  60  91 138 167 210 282 337 386
#     4  10  20  38  64  91 125 168 218 266 319 387
#     4  10  19  36  66  96 124 168 220 272 325 395
#
# _framework density 20.941234999999999
#
# number of rings (size 3 to 8) (size 9 to 14) (size 15 to 20)
#    0.000    1.818    2.727    2.182    5.091    0.000 
#    6.545    1.818    0.000    0.000    0.000    0.000 
#    0.000    0.000    0.000    0.000    0.000    0.000 
#
# Total GULP energy -272728.192630 kJ/mol
# GULP energy per Si atom -12396.736029 kJ/mol
# Density = 2.089357 g / cm^3
# Si number density = 20.941235 Si / 1000 Ang^3
#
#
#
# Elastic Constant Matrix: (Units=GPa)
#
#
# Indices 1 2 3 4 5 6 
#
# 1 50.7716 37.1705 37.3312 0.0000 0.0000 0.0000
# 2 37.1705 154.4145 98.3643 0.0000 0.0000 0.0000
# 3 37.3312 98.3643 143.1441 0.0000 0.0000 0.0000
# 4 0.0000 0.0000 0.0000 25.6245 0.0000 0.0000
# 5 0.0000 0.0000 0.0000 0.0000 30.3252 0.0000
# 6 0.0000 0.0000 0.0000 0.0000 0.0000 36.1824
#
#
#
# Elastic Compliance Matrix: (Units=1/GPa)
#
#
# Indices 1 2 3 4 5 6 
#
# 1 0.025311 -0.003358 -0.004294 0.000000 0.000000 0.000000
# 2 -0.003358 0.011963 -0.007345 0.000000 0.000000 0.000000
# 3 -0.004294 -0.007345 0.013153 0.000000 0.000000 0.000000
# 4 0.000000 0.000000 0.000000 0.039025 0.000000 0.000000
# 5 0.000000 0.000000 0.000000 0.000000 0.032976 0.000000
# 6 0.000000 0.000000 0.000000 0.000000 0.000000 0.027638
#
#
# Mechanical properties :
#
#
# Convention : Reuss Voigt Hill
#
# Bulk Modulus (GPa) = 48.93670 77.11805 63.02738
# Shear Modulus (GPa) = 26.75635 30.12401 28.44018
#
# Velocity S-wave (km/s) = 3.57835 3.79687 3.68923
# Velocity P-wave (km/s) = 6.36334 7.49183 6.95053
#
# Compressibility (1/GPa) = 0.02043456
#
# Stress axis : x y z
#
# Youngs Moduli (GPa) = 39.50785 83.58878 76.02763
#
# Poissons Ratio (x) = 0.28067 0.32644
# Poissons Ratio (y) = 0.13266 0.55843
# Poissons Ratio (z) = 0.16964 0.61397
#
# Static dielectric constant tensor:
#      x y z
#    x 3.515920 0.000000 0.000000 
#    y 0.000000 3.851530 0.000000 
#    z 0.000000 0.000000 3.898660 
# 
# 
# High freq. dielectric constant tensor:
#      x y z
#    x 1.794710 0.000000 0.000000 
#    y 0.000000 1.813270 0.000000 
#    z 0.000000 0.000000 1.837050 
# 
# From -- ./inp_files/21650.got.cif
#   From: 2010.06.25/outbox.cif.g09.slc.cpg/sg43_11_cif.got.tgz:21650.got - 2010.06.26 16:48:59.
