data_PCOD8186947
_publ_section_title
;
Structure prediction by ZEFSAII (Michael W. Deem and Ramdas Pophale) SiO2 
 PCOD8186947
Probable space group: F D D 2
;
_chemical_formula_sum "Si O2"
_cell_formula_units_Z 104
_cell_length_a 26.884806
_cell_length_b 17.070087
_cell_length_c 12.323921
_cell_angle_alpha 90.000000
_cell_angle_beta 90.000000
_cell_angle_gamma 90.000000
_cell_volume 5655.767490
_symmetry_space_group_name_H-M "F D D 2"
_symmetry_group_IT_number 43
_symmetry_cell_setting 'orthorhombic'
loop_
_space_group_symop_operation_xyz
x,y,z
-x,-y,z
1/4-x,1/4+y,1/4+z
1/4+x,1/4-y,1/4+z
x,1/2+y,1/2+z
-x,1/2-y,1/2+z
1/4-x,3/4+y,3/4+z
1/4+x,3/4-y,3/4+z
1/2+x,y,1/2+z
1/2-x,-y,1/2+z
3/4-x,1/4+y,3/4+z
3/4+x,1/4-y,3/4+z
1/2+x,1/2+y,z
1/2-x,1/2-y,z
3/4-x,3/4+y,1/4+z
3/4+x,3/4-y,1/4+z
loop_
_atom_site_type_symbol
_atom_site_label
_atom_site_fract_x
_atom_site_fract_y
_atom_site_fract_z
Si Si1 0.325007 0.000622 0.914150
Si Si2 0.000000 0.000000 0.550032
Si Si3 0.977055 0.172619 0.356218
Si Si4 0.272138 0.414573 0.852793
Si Si5 0.681830 0.739065 0.618701
Si Si6 0.380449 0.158796 0.484836
Si Si7 0.079352 0.746503 0.782768
O O1 0.378536 0.044403 0.913276
O O2 0.328009 0.928439 0.827057
O O3 0.283743 0.060748 0.876823
O O4 0.312089 0.969913 0.033551
O O5 0.977731 0.070522 0.621085
O O6 0.043022 0.035213 0.469962
O O7 0.968838 0.080336 0.331067
O O8 0.033431 0.198654 0.333347
O O9 0.963136 0.188711 0.480980
O O10 0.312387 0.452604 0.930871
O O11 0.671284 0.797273 0.518050
O O12 0.397563 0.192148 0.368584
O O13 0.370373 0.065397 0.487810
#
# Coordination Sequence:
#
# PCOD8186947 Si02
#       7
#    16   8  16  16  16  16  16
#     4   9  20  31  59  83 113 144 191 247 289 341
#     4  10  20  36  58  84 120 142 192 242 292 346
#     4  10  18  37  56  88 114 146 200 239 295 346
#     4  10  21  38  56  84 117 154 187 237 302 345
#     4   9  19  29  60  89 104 142 185 258 280 328
#     4  10  20  37  59  87 113 152 201 239 300 338
#     4  11  22  38  61  83 123 162 190 246 291 358
#
# _framework density 18.388309
#
# number of rings (size 3 to 8) (size 9 to 14) (size 15 to 20)
#    0.923    1.231    1.538    2.769    2.154    0.000 
#    5.538    0.000    3.385    0.000    0.000    0.000 
#    0.000    0.000    0.000    0.000    0.000    0.000 
#
# Total GULP energy -322097.648791 kJ/mol
# GULP energy per Si atom -12388.371107 kJ/mol
# Density = 1.834646 g / cm^3
# Si number density = 18.388309 Si / 1000 Ang^3
#
#
#
# Elastic Constant Matrix: (Units=GPa)
#
#
# Indices 1 2 3 4 5 6 
#
# 1 59.0896 28.6060 30.0361 0.0000 0.0000 0.0000
# 2 28.6060 98.2930 62.9882 0.0000 0.0000 0.0000
# 3 30.0361 62.9882 119.9544 0.0000 0.0000 0.0000
# 4 0.0000 0.0000 0.0000 22.1359 0.0000 0.0000
# 5 0.0000 0.0000 0.0000 0.0000 21.0254 0.0000
# 6 0.0000 0.0000 0.0000 0.0000 0.0000 22.4758
#
#
#
# Elastic Compliance Matrix: (Units=1/GPa)
#
#
# Indices 1 2 3 4 5 6 
#
# 1 0.020390 -0.004013 -0.002999 0.000000 0.000000 0.000000
# 2 -0.004013 0.016123 -0.007461 0.000000 0.000000 0.000000
# 3 -0.002999 -0.007461 0.013005 0.000000 0.000000 0.000000
# 4 0.000000 0.000000 0.000000 0.045175 0.000000 0.000000
# 5 0.000000 0.000000 0.000000 0.000000 0.047561 0.000000
# 6 0.000000 0.000000 0.000000 0.000000 0.000000 0.044492
#
#
# Mechanical properties :
#
#
# Convention : Reuss Voigt Hill
#
# Bulk Modulus (GPa) = 48.60683 57.84419 53.22551
# Shear Modulus (GPa) = 22.46680 23.50787 22.98733
#
# Velocity S-wave (km/s) = 3.49921 3.57937 3.53952
# Velocity P-wave (km/s) = 6.54347 6.97193 6.76109
#
# Compressibility (1/GPa) = 0.02057324
#
# Stress axis : x y z
#
# Youngs Moduli (GPa) = 49.04314 62.02373 76.89142
#
# Poissons Ratio (x) = 0.24887 0.23057
# Poissons Ratio (y) = 0.19679 0.57372
# Poissons Ratio (z) = 0.14706 0.46279
#
# Static dielectric constant tensor:
#      x y z
#    x 3.395970 0.000000 0.000000 
#    y 0.000000 3.256620 0.000000 
#    z 0.000000 0.000000 3.347380 
# 
# 
# High freq. dielectric constant tensor:
#      x y z
#    x 1.711270 0.000000 0.000000 
#    y 0.000000 1.700260 0.000000 
#    z 0.000000 0.000000 1.700710 
# 
# From -- ./inp_files/8357.got.cif
#   From: 2010.06.25/outbox.cif.g09.slc.cpg/sg43_5_cif.got.tgz:8357.got - 2010.06.26 16:48:59.
