data_PCOD8186954
_publ_section_title
;
Structure prediction by ZEFSAII (Michael W. Deem and Ramdas Pophale) SiO2 
 PCOD8186954
Probable space group: F D D 2
;
_chemical_formula_sum "Si O2"
_cell_formula_units_Z 112
_cell_length_a 11.911089
_cell_length_b 13.896738
_cell_length_c 32.016483
_cell_angle_alpha 90.000000
_cell_angle_beta 90.000000
_cell_angle_gamma 90.000000
_cell_volume 5299.537413
_symmetry_space_group_name_H-M "F D D 2"
_symmetry_group_IT_number 43
_symmetry_cell_setting 'orthorhombic'
loop_
_space_group_symop_operation_xyz
x,y,z
-x,-y,z
1/4-x,1/4+y,1/4+z
1/4+x,1/4-y,1/4+z
x,1/2+y,1/2+z
-x,1/2-y,1/2+z
1/4-x,3/4+y,3/4+z
1/4+x,3/4-y,3/4+z
1/2+x,y,1/2+z
1/2-x,-y,1/2+z
3/4-x,1/4+y,3/4+z
3/4+x,1/4-y,3/4+z
1/2+x,1/2+y,z
1/2-x,1/2-y,z
3/4-x,3/4+y,1/4+z
3/4+x,3/4-y,1/4+z
loop_
_atom_site_type_symbol
_atom_site_label
_atom_site_fract_x
_atom_site_fract_y
_atom_site_fract_z
Si Si1 0.676628 0.662509 0.370520
Si Si2 0.116396 0.550469 0.314205
Si Si3 0.373972 0.736669 0.286741
Si Si4 0.735747 0.026830 0.399977
Si Si5 0.256187 0.614460 0.778542
Si Si6 0.442597 0.104370 0.859964
Si Si7 0.662644 0.489245 0.988148
O O1 0.750000 0.750000 0.387106
O O2 0.712498 0.578810 0.401451
O O3 0.700541 0.641450 0.322341
O O4 0.541334 0.677009 0.374851
O O5 0.097847 0.662505 0.308096
O O6 0.150507 0.536527 0.362018
O O7 0.206096 0.497844 0.282299
O O8 0.000000 0.500000 0.305722
O O9 0.250000 0.750000 0.267600
O O10 0.380363 0.648307 0.319396
O O11 0.459671 0.713984 0.249607
O O12 0.843851 0.097952 0.394800
O O13 0.664613 0.038723 0.442439
O O14 0.164326 0.641709 0.742314
O O15 0.364374 0.681694 0.770414
O O16 0.500000 0.000000 0.849569
#
# Coordination Sequence:
#
# PCOD8186954 Si02
#       7
#    16  16  16  16  16  16  16
#     4  10  18  38  69  92 117 179 232 271 314 419
#     4  11  23  41  63  98 127 177 227 275 325 420
#     4  12  23  39  66  96 128 172 229 270 340 408
#     4  10  24  39  62  95 137 168 222 280 352 386
#     4  10  20  39  67  89 128 173 228 267 326 396
#     4  10  21  41  64  93 131 177 219 274 337 414
#     4  11  22  41  63  98 129 177 219 286 338 402
#
# _framework density 21.13392
#
# number of rings (size 3 to 8) (size 9 to 14) (size 15 to 20)
#    0.000    1.429    5.714    0.000    4.000    1.714 
#    0.000    6.429    0.000    0.000    0.000    0.000 
#    0.000    0.000    0.000    0.000    0.000    0.000 
#
# Total GULP energy -346911.971678 kJ/mol
# GULP energy per Si atom -12389.713274 kJ/mol
# Density = 2.108582 g / cm^3
# Si number density = 21.133920 Si / 1000 Ang^3
#
#
#
# Elastic Constant Matrix: (Units=GPa)
#
#
# Indices 1 2 3 4 5 6 
#
# 1 134.4055 29.2459 32.4444 0.0000 0.0000 0.0000
# 2 29.2459 71.5217 23.6785 0.0000 0.0000 0.0000
# 3 32.4444 23.6785 76.9665 0.0000 0.0000 0.0000
# 4 0.0000 0.0000 0.0000 19.0733 0.0000 0.0000
# 5 0.0000 0.0000 0.0000 0.0000 23.6416 0.0000
# 6 0.0000 0.0000 0.0000 0.0000 0.0000 36.9570
#
#
#
# Elastic Compliance Matrix: (Units=1/GPa)
#
#
# Indices 1 2 3 4 5 6 
#
# 1 0.008699 -0.002609 -0.002864 0.000000 0.000000 0.000000
# 2 -0.002609 0.016350 -0.003930 0.000000 0.000000 0.000000
# 3 -0.002864 -0.003930 0.015409 0.000000 0.000000 0.000000
# 4 0.000000 0.000000 0.000000 0.052429 0.000000 0.000000
# 5 0.000000 0.000000 0.000000 0.000000 0.042298 0.000000
# 6 0.000000 0.000000 0.000000 0.000000 0.000000 0.027058
#
#
# Mechanical properties :
#
#
# Convention : Reuss Voigt Hill
#
# Bulk Modulus (GPa) = 46.18687 50.40347 48.29517
# Shear Modulus (GPa) = 26.55779 29.10270 27.83025
#
# Velocity S-wave (km/s) = 3.54876 3.71490 3.63278
# Velocity P-wave (km/s) = 6.22040 6.50400 6.36378
#
# Compressibility (1/GPa) = 0.02165117
#
# Stress axis : x y z
#
# Youngs Moduli (GPa) = 114.95151 61.16314 64.89595
#
# Poissons Ratio (x) = 0.15957 0.18589
# Poissons Ratio (y) = 0.29990 0.25505
# Poissons Ratio (z) = 0.32928 0.24038
#
# Static dielectric constant tensor:
#      x y z
#    x 4.366300 0.000000 0.000000 
#    y 0.000000 4.044450 0.000000 
#    z 0.000000 0.000000 3.382910 
# 
# 
# High freq. dielectric constant tensor:
#      x y z
#    x 1.855080 0.000000 0.000000 
#    y 0.000000 1.817590 0.000000 
#    z 0.000000 0.000000 1.784920 
# 
# From -- ./inp_files/28607.got.cif
#   From: 2010.06.25/outbox.cif.g09.slc.cpg/sg43_15_cif.got.tgz:28607.got - 2010.06.26 16:48:59.
