data_PCOD8186872
_publ_section_title
;
Structure prediction by ZEFSAII (Michael W. Deem and Ramdas Pophale) SiO2 
 PCOD8186872
Probable space group: F M M 2
;
_chemical_formula_sum "Si O2"
_cell_formula_units_Z 72
_cell_length_a 13.721437
_cell_length_b 17.012508
_cell_length_c 15.122906
_cell_angle_alpha 90.000000
_cell_angle_beta 90.000000
_cell_angle_gamma 90.000000
_cell_volume 3530.231543
_symmetry_space_group_name_H-M "F M M 2"
_symmetry_group_IT_number 42
_symmetry_cell_setting 'orthorhombic'
loop_
_space_group_symop_operation_xyz
x,y,z
-x,-y,z
-x,y,z
x,-y,z
x,1/2+y,1/2+z
-x,1/2-y,1/2+z
-x,1/2+y,1/2+z
x,1/2-y,1/2+z
1/2+x,y,1/2+z
1/2-x,-y,1/2+z
1/2-x,y,1/2+z
1/2+x,-y,1/2+z
1/2+x,1/2+y,z
1/2-x,1/2-y,z
1/2-x,1/2+y,z
1/2+x,1/2-y,z
loop_
_atom_site_type_symbol
_atom_site_label
_atom_site_fract_x
_atom_site_fract_y
_atom_site_fract_z
Si Si1 0.813563 0.090001 0.853530
Si Si2 0.500000 0.791648 0.691922
Si Si3 0.787907 0.661274 0.686977
Si Si4 0.500000 0.306918 0.860997
Si Si5 0.690774 0.590798 0.523550
Si Si6 0.500000 0.192576 0.020041
O O1 0.770689 0.112009 0.758907
O O2 0.904996 0.142300 0.880805
O O3 0.848093 0.000000 0.851675
O O4 0.729980 0.104621 0.925279
O O5 0.596739 0.843536 0.707667
O O6 0.500000 0.718387 0.758844
O O7 0.500000 0.761383 0.591782
O O8 0.750000 0.750000 0.687631
O O9 0.771040 0.622020 0.592101
O O10 0.500000 0.230079 0.922726
O O11 0.668280 0.500000 0.541892
O O12 0.592980 0.639029 0.535587
#
# Coordination Sequence:
#
# PCOD8186872 Si02
#       6
#    16   8  16   8  16   8
#     4  11  25  43  64  94 132 172 213 267 331 389
#     4  12  24  38  62 104 120 164 218 262 318 372
#     4  12  23  42  67  94 129 167 217 267 322 384
#     4  12  23  39  68  95 128 168 218 270 319 386
#     4  11  25  43  64  94 132 172 213 267 331 389
#     4  12  23  39  68  95 128 168 218 270 319 386
#
# _framework density 20.395263
#
# number of rings (size 3 to 8) (size 9 to 14) (size 15 to 20)
#    0.000    0.444    4.444    4.000    0.000    0.000 
#    0.000    7.778    0.000    0.000    0.000    0.000 
#    0.000    0.000    0.000    0.000    0.000    0.000 
#
# Total GULP energy -223341.832054 kJ/mol
# GULP energy per Si atom -12407.879559 kJ/mol
# Density = 2.034884 g / cm^3
# Si number density = 20.395263 Si / 1000 Ang^3
#
#
#
# Elastic Constant Matrix: (Units=GPa)
#
#
# Indices 1 2 3 4 5 6 
#
# 1 122.9846 42.0325 4.9059 0.0000 0.0000 0.0000
# 2 42.0325 74.5867 26.8413 0.0000 0.0000 0.0000
# 3 4.9059 26.8413 87.7158 0.0000 0.0000 0.0000
# 4 0.0000 0.0000 0.0000 39.4999 0.0000 0.0000
# 5 0.0000 0.0000 0.0000 0.0000 13.7411 0.0000
# 6 0.0000 0.0000 0.0000 0.0000 0.0000 -28.6845
#
#
#
# Elastic Compliance Matrix: (Units=1/GPa)
#
#
# Indices 1 2 3 4 5 6 
#
# 1 0.010208 -0.006234 0.001337 0.000000 0.000000 0.000000
# 2 -0.006234 0.018873 -0.005427 0.000000 0.000000 0.000000
# 3 0.001337 -0.005427 0.012986 0.000000 0.000000 0.000000
# 4 0.000000 0.000000 0.000000 0.025317 0.000000 0.000000
# 5 0.000000 0.000000 0.000000 0.000000 0.072775 0.000000
# 6 0.000000 0.000000 0.000000 0.000000 0.000000 -0.034862
#
#
# Mechanical properties :
#
#
# Convention : Reuss Voigt Hill
#
# Bulk Modulus (GPa) = 46.68506 48.09406 47.38956
# Shear Modulus (GPa) = 37.57025 19.01179 28.29102
#
# Velocity S-wave (km/s) = 4.29663 3.05645 3.72847
# Velocity P-wave (km/s) = 6.89598 6.00733 6.46694
#
# Compressibility (1/GPa) = 0.02142013
#
# Stress axis : x y z
#
# Youngs Moduli (GPa) = 97.95956 52.98577 77.00468
#
# Poissons Ratio (x) = 0.33030 -0.10292
# Poissons Ratio (y) = 0.61066 0.41787
# Poissons Ratio (z) = -0.13093 0.28753
#
# Static dielectric constant tensor:
#      x y z
#    x 3.945180 0.000000 0.000000 
#    y 0.000000 3.731730 0.000000 
#    z 0.000000 0.000000 3.766020 
# 
# 
# High freq. dielectric constant tensor:
#      x y z
#    x 1.809920 0.000000 0.000000 
#    y 0.000000 1.797130 0.000000 
#    z 0.000000 0.000000 1.813380 
# 
# From -- ./inp_files/19751.got.cif
#   From: 2010.03.12/outbox.cif.g09.slc.cpg/sg42_10_cif.got.tgz:19751.got - 2010.04.14 02:04:31.
