data_PCOD8186414
_publ_section_title
;
Structure prediction by ZEFSAII (Michael W. Deem and Ramdas Pophale) SiO2 
 PCOD8186414
Probable space group: F M M 2
;
_chemical_formula_sum "Si O2"
_cell_formula_units_Z 96
_cell_length_a 8.822145
_cell_length_b 23.531289
_cell_length_c 25.079547
_cell_angle_alpha 90.000000
_cell_angle_beta 90.000000
_cell_angle_gamma 90.000000
_cell_volume 5206.424764
_symmetry_space_group_name_H-M "F M M 2"
_symmetry_group_IT_number 42
_symmetry_cell_setting 'orthorhombic'
loop_
_space_group_symop_operation_xyz
x,y,z
-x,-y,z
-x,y,z
x,-y,z
x,1/2+y,1/2+z
-x,1/2-y,1/2+z
-x,1/2+y,1/2+z
x,1/2-y,1/2+z
1/2+x,y,1/2+z
1/2-x,-y,1/2+z
1/2-x,y,1/2+z
1/2+x,-y,1/2+z
1/2+x,1/2+y,z
1/2-x,1/2-y,z
1/2-x,1/2+y,z
1/2+x,1/2-y,z
loop_
_atom_site_type_symbol
_atom_site_label
_atom_site_fract_x
_atom_site_fract_y
_atom_site_fract_z
Si Si1 0.323079 0.879330 0.524930
Si Si2 0.173720 0.000000 0.372666
Si Si3 0.677801 0.309175 0.127171
Si Si4 0.325252 0.120086 0.828707
Si Si5 0.178730 0.000000 0.986554
Si Si6 0.178887 0.809727 0.739010
Si Si7 0.677065 0.190044 0.932516
O O1 0.500000 0.876275 0.511193
O O2 0.290688 0.859440 0.585188
O O3 0.238739 0.835783 0.486814
O O4 0.259438 0.943423 0.516423
O O5 0.208433 0.946407 0.335330
O O6 0.275411 0.000000 0.425062
O O7 0.000000 0.000000 0.392530
O O8 0.500000 0.299223 0.136148
O O9 0.750000 0.250000 0.106786
O O10 0.753783 0.328578 0.182267
O O11 0.500000 0.132262 0.814101
O O12 0.218975 0.142361 0.781781
O O13 0.279976 0.148952 0.884174
O O14 0.000000 0.000000 0.989829
O O15 0.250000 0.750000 0.757800
O O16 0.000000 0.802807 0.734404
O O17 0.500000 0.198545 0.939002
O O18 0.750000 0.250000 0.919819
#
# Coordination Sequence:
#
# PCOD8186414 Si02
#       7
#    16   8  16  16   8  16  16
#     4  10  21  36  56  82 112 147 187 228 275 329
#     4  10  20  38  59  82 111 149 190 226 274 329
#     4  10  20  36  57  81 111 146 186 230 280 335
#     4  10  21  37  57  82 112 146 186 228 274 331
#     4  10  20  36  57  82 113 149 188 230 274 325
#     4  11  22  37  59  84 112 146 186 231 282 334
#     4  11  22  34  53  80 113 145 180 227 278 333
#
# _framework density 18.438756000000001
#
# number of rings (size 3 to 8) (size 9 to 14) (size 15 to 20)
#    0.000    1.667    1.667    4.500    0.000    6.000 
#    0.000    0.833    0.000    3.000    0.000    0.000 
#    0.000    0.000    0.000    0.000    0.000    0.000 
#
# Total GULP energy -297685.279204 kJ/mol
# GULP energy per Si atom -12403.553300 kJ/mol
# Density = 1.839679 g / cm^3
# Si number density = 18.438756 Si / 1000 Ang^3
#
#
#
# Elastic Constant Matrix: (Units=GPa)
#
#
# Indices 1 2 3 4 5 6 
#
# 1 81.2914 38.0802 45.4152 0.0000 0.0000 0.0000
# 2 38.0802 113.5409 48.5612 0.0000 0.0000 0.0000
# 3 45.4152 48.5612 96.8045 0.0000 0.0000 0.0000
# 4 0.0000 0.0000 0.0000 20.4983 0.0000 0.0000
# 5 0.0000 0.0000 0.0000 0.0000 30.0847 0.0000
# 6 0.0000 0.0000 0.0000 0.0000 0.0000 14.7187
#
#
#
# Elastic Compliance Matrix: (Units=1/GPa)
#
#
# Indices 1 2 3 4 5 6 
#
# 1 0.017433 -0.002991 -0.006679 0.000000 0.000000 0.000000
# 2 -0.002991 0.011726 -0.004479 0.000000 0.000000 0.000000
# 3 -0.006679 -0.004479 0.015710 0.000000 0.000000 0.000000
# 4 0.000000 0.000000 0.000000 0.048784 0.000000 0.000000
# 5 0.000000 0.000000 0.000000 0.000000 0.033239 0.000000
# 6 0.000000 0.000000 0.000000 0.000000 0.000000 0.067941
#
#
# Mechanical properties :
#
#
# Convention : Reuss Voigt Hill
#
# Bulk Modulus (GPa) = 60.33913 61.75000 61.04457
# Shear Modulus (GPa) = 21.86689 23.69903 22.78296
#
# Velocity S-wave (km/s) = 3.44746 3.58897 3.51893
# Velocity P-wave (km/s) = 6.97436 7.12294 7.04904
#
# Compressibility (1/GPa) = 0.01657299
#
# Stress axis : x y z
#
# Youngs Moduli (GPa) = 57.36098 85.27905 63.65221
#
# Poissons Ratio (x) = 0.25503 0.42511
# Poissons Ratio (y) = 0.17154 0.28512
# Poissons Ratio (z) = 0.38309 0.38200
#
# Static dielectric constant tensor:
#      x y z
#    x 3.424020 0.000000 0.000000 
#    y 0.000000 3.578900 0.000000 
#    z 0.000000 0.000000 3.328450 
# 
# 
# High freq. dielectric constant tensor:
#      x y z
#    x 1.719140 0.000000 0.000000 
#    y 0.000000 1.718760 0.000000 
#    z 0.000000 0.000000 1.713510 
# 
# From -- ./inp_files/28112.got.cif
#   From: 2010.03.12/outbox.cif.g09.slc.cpg/sg42_15_cif.got.tgz:28112.got - 2010.04.14 02:04:31.
