data_PCOD8186642
_publ_section_title
;
Structure prediction by ZEFSAII (Michael W. Deem and Ramdas Pophale) SiO2 
 PCOD8186642
Probable space group: F M M 2
;
_chemical_formula_sum "Si O2"
_cell_formula_units_Z 96
_cell_length_a 25.337518
_cell_length_b 8.756086
_cell_length_c 23.241701
_cell_angle_alpha 90.000000
_cell_angle_beta 90.000000
_cell_angle_gamma 90.000000
_cell_volume 5156.345369
_symmetry_space_group_name_H-M "F M M 2"
_symmetry_group_IT_number 42
_symmetry_cell_setting 'orthorhombic'
loop_
_space_group_symop_operation_xyz
x,y,z
-x,-y,z
-x,y,z
x,-y,z
x,1/2+y,1/2+z
-x,1/2-y,1/2+z
-x,1/2+y,1/2+z
x,1/2-y,1/2+z
1/2+x,y,1/2+z
1/2-x,-y,1/2+z
1/2-x,y,1/2+z
1/2+x,-y,1/2+z
1/2+x,1/2+y,z
1/2-x,1/2-y,z
1/2-x,1/2+y,z
1/2+x,1/2-y,z
loop_
_atom_site_type_symbol
_atom_site_label
_atom_site_fract_x
_atom_site_fract_y
_atom_site_fract_z
Si Si1 0.402633 0.822629 0.365170
Si Si2 0.306519 0.678363 0.302404
Si Si3 0.193335 0.821342 0.170405
Si Si4 0.500000 0.319125 0.171416
Si Si5 0.438810 0.323420 0.992218
Si Si6 0.097448 0.179483 0.605482
Si Si7 0.000000 0.680129 0.800943
O O1 0.346600 0.759325 0.345429
O O2 0.409083 0.792499 0.432676
O O3 0.448020 0.736363 0.331753
O O4 0.407212 0.000000 0.350323
O O5 0.304511 0.500000 0.316222
O O6 0.250000 0.750000 0.314918
O O7 0.323854 0.707920 0.236451
O O8 0.250000 0.750000 0.158031
O O9 0.153230 0.738816 0.127927
O O10 0.194938 0.000000 0.156431
O O11 0.500000 0.500000 0.168552
O O12 0.551694 0.260149 0.140579
O O13 0.500000 0.257092 0.236168
O O14 0.500000 0.274540 0.986755
O O15 0.434793 0.500000 0.010550
O O16 0.408926 0.219969 0.038556
O O17 0.093685 0.000000 0.614409
O O18 0.000000 0.500000 0.801465
#
# Coordination Sequence:
#
# PCOD8186642 Si02
#       7
#    16  16  16   8  16  16   8
#     4  11  22  38  60  86 116 152 194 240 290 344
#     4  10  21  38  61  89 119 155 194 236 289 345
#     4  10  21  39  62  87 119 156 193 236 289 347
#     4  11  23  38  55  80 117 156 190 233 290 347
#     4  10  21  40  61  81 113 158 198 237 291 347
#     4  12  24  37  58  88 116 149 195 243 291 344
#     4  11  23  36  55  84 117 152 190 235 288 347
#
# _framework density 18.617837000000002
#
# number of rings (size 3 to 8) (size 9 to 14) (size 15 to 20)
#    0.000    1.333    1.667    4.500    0.000    8.667 
#    0.000    0.833    0.000    4.000    0.000    0.000 
#    0.000    0.000    0.000    0.000    0.000    0.000 
#
# Total GULP energy -297733.394158 kJ/mol
# GULP energy per Si atom -12405.558090 kJ/mol
# Density = 1.857546 g / cm^3
# Si number density = 18.617837 Si / 1000 Ang^3
#
#
#
# Elastic Constant Matrix: (Units=GPa)
#
#
# Indices 1 2 3 4 5 6 
#
# 1 85.4769 17.4582 42.5898 0.0000 0.0000 0.0000
# 2 17.4582 63.8271 36.1972 0.0000 0.0000 0.0000
# 3 42.5898 36.1972 91.5163 0.0000 0.0000 0.0000
# 4 0.0000 0.0000 0.0000 30.2320 0.0000 0.0000
# 5 0.0000 0.0000 0.0000 0.0000 48.8625 0.0000
# 6 0.0000 0.0000 0.0000 0.0000 0.0000 40.1337
#
#
#
# Elastic Compliance Matrix: (Units=1/GPa)
#
#
# Indices 1 2 3 4 5 6 
#
# 1 0.015233 -0.000189 -0.007014 0.000000 0.000000 0.000000
# 2 -0.000189 0.020200 -0.007902 0.000000 0.000000 0.000000
# 3 -0.007014 -0.007902 0.017317 0.000000 0.000000 0.000000
# 4 0.000000 0.000000 0.000000 0.033078 0.000000 0.000000
# 5 0.000000 0.000000 0.000000 0.000000 0.020466 0.000000
# 6 0.000000 0.000000 0.000000 0.000000 0.000000 0.024917
#
#
# Mechanical properties :
#
#
# Convention : Reuss Voigt Hill
#
# Bulk Modulus (GPa) = 44.36593 48.14564 46.25579
# Shear Modulus (GPa) = 29.59763 33.48398 31.54080
#
# Velocity S-wave (km/s) = 3.99149 4.24546 4.12043
# Velocity P-wave (km/s) = 6.71745 7.06739 6.89464
#
# Compressibility (1/GPa) = 0.02253982
#
# Stress axis : x y z
#
# Youngs Moduli (GPa) = 65.64896 49.50439 57.74737
#
# Poissons Ratio (x) = 0.00933 0.40506
# Poissons Ratio (y) = 0.01238 0.45632
# Poissons Ratio (z) = 0.46048 0.39118
#
# Static dielectric constant tensor:
#      x y z
#    x 3.231110 0.000000 0.000000 
#    y 0.000000 3.557010 0.000000 
#    z 0.000000 0.000000 3.549230 
# 
# 
# High freq. dielectric constant tensor:
#      x y z
#    x 1.727970 0.000000 0.000000 
#    y 0.000000 1.737200 0.000000 
#    z 0.000000 0.000000 1.725420 
# 
# From -- ./inp_files/30437.got.cif
#   From: 2010.03.12/outbox.cif.g09.slc.cpg/sg42_16_cif.got.tgz:30437.got - 2010.04.14 02:04:31.
