data_PCOD8186162
_publ_section_title
;
Structure prediction by ZEFSAII (Michael W. Deem and Ramdas Pophale) SiO2 
 PCOD8186162
Probable space group: F M M 2
;
_chemical_formula_sum "Si O2"
_cell_formula_units_Z 80
_cell_length_a 10.352000
_cell_length_b 17.164035
_cell_length_c 22.992025
_cell_angle_alpha 90.000000
_cell_angle_beta 90.000000
_cell_angle_gamma 90.000000
_cell_volume 4085.271063
_symmetry_space_group_name_H-M "F M M 2"
_symmetry_group_IT_number 42
_symmetry_cell_setting 'orthorhombic'
loop_
_space_group_symop_operation_xyz
x,y,z
-x,-y,z
-x,y,z
x,-y,z
x,1/2+y,1/2+z
-x,1/2-y,1/2+z
-x,1/2+y,1/2+z
x,1/2-y,1/2+z
1/2+x,y,1/2+z
1/2-x,-y,1/2+z
1/2-x,y,1/2+z
1/2+x,-y,1/2+z
1/2+x,1/2+y,z
1/2-x,1/2-y,z
1/2-x,1/2+y,z
1/2+x,1/2-y,z
loop_
_atom_site_type_symbol
_atom_site_label
_atom_site_fract_x
_atom_site_fract_y
_atom_site_fract_z
Si Si1 0.652328 0.909703 0.336710
Si Si2 0.740866 0.659023 0.719443
Si Si3 0.000000 0.592733 0.017756
Si Si4 0.762532 0.592682 0.462791
Si Si5 0.000000 0.093001 0.037971
Si Si6 0.500000 0.092478 0.150425
Si Si7 0.500000 0.907966 0.669145
O O1 0.500000 0.896905 0.339343
O O2 0.714210 0.857259 0.286871
O O3 0.713916 0.879832 0.396949
O O4 0.685262 0.000000 0.324808
O O5 0.750000 0.750000 0.708109
O O6 0.627557 0.623917 0.680683
O O7 0.875049 0.620137 0.703060
O O8 0.000000 0.621514 0.084105
O O9 0.000000 0.500000 0.016045
O O10 0.874206 0.625971 0.984930
O O11 0.765551 0.500000 0.465373
O O12 0.873868 0.625705 0.505028
O O13 0.000000 0.125656 0.103534
O O14 0.000000 0.000000 0.037472
O O15 0.500000 0.000000 0.155645
O O16 0.500000 0.000000 0.667295
#
# Coordination Sequence:
#
# PCOD8186162 Si02
#       7
#    16  16   8  16   8   8   8
#     4  10  19  35  62  88 113 154 205 245 287 358
#     4  12  25  40  59  86 124 160 200 249 302 351
#     4   9  18  30  53  90 122 143 182 245 302 339
#     4   9  16  29  52  87 118 143 183 244 299 342
#     4   9  16  30  53  82 114 143 186 241 292 345
#     4  11  21  40  67  90 118 163 206 239 286 367
#     4  11  23  38  59  90 120 151 196 253 300 345
#
# _framework density 19.582543999999999
#
# number of rings (size 3 to 8) (size 9 to 14) (size 15 to 20)
#    0.000    1.800    2.000    3.600    0.000    4.000 
#    0.000    2.000    0.000    7.200    0.000    0.000 
#    0.000    0.000    0.000    0.000    0.000    0.000 
#
# Total GULP energy -248049.547398 kJ/mol
# GULP energy per Si atom -12402.477370 kJ/mol
# Density = 1.953797 g / cm^3
# Si number density = 19.582544 Si / 1000 Ang^3
#
#
#
# Elastic Constant Matrix: (Units=GPa)
#
#
# Indices 1 2 3 4 5 6 
#
# 1 176.2031 29.5502 83.3748 0.0000 0.0000 0.0000
# 2 29.5502 58.5477 31.1328 0.0000 0.0000 0.0000
# 3 83.3748 31.1328 166.7061 0.0000 0.0000 0.0000
# 4 0.0000 0.0000 0.0000 -0.2690 0.0000 0.0000
# 5 0.0000 0.0000 0.0000 0.0000 96.8143 0.0000
# 6 0.0000 0.0000 0.0000 0.0000 0.0000 15.8959
#
#
#
# Elastic Compliance Matrix: (Units=1/GPa)
#
#
# Indices 1 2 3 4 5 6 
#
# 1 0.007645 -0.002027 -0.003445 0.000000 0.000000 0.000000
# 2 -0.002027 0.019501 -0.002628 0.000000 0.000000 0.000000
# 3 -0.003445 -0.002628 0.008212 0.000000 0.000000 0.000000
# 4 0.000000 0.000000 0.000000 -3.716967 0.000000 0.000000
# 5 0.000000 0.000000 0.000000 0.000000 0.010329 0.000000
# 6 0.000000 0.000000 0.000000 0.000000 0.000000 0.062909
#
#
# Mechanical properties :
#
#
# Convention : Reuss Voigt Hill
#
# Bulk Modulus (GPa) = 52.19703 76.61916 64.40810
# Shear Modulus (GPa) = -1.39440 39.64818 19.12689
#
# Velocity S-wave (km/s) = -0.84475 4.50451 3.12866
# Velocity P-wave (km/s) = 5.07556 8.14036 6.78331
#
# Compressibility (1/GPa) = 0.01915818
#
# Stress axis : x y z
#
# Youngs Moduli (GPa) = 130.79876 51.28058 121.76687
#
# Poissons Ratio (x) = 0.10393 0.41951
# Poissons Ratio (y) = 0.26510 0.32002
# Poissons Ratio (z) = 0.45062 0.13477
#
# Static dielectric constant tensor:
#      x y z
#    x 3.680760 0.000000 0.000000 
#    y 0.000000 3.129060 0.000000 
#    z 0.000000 0.000000 3.832870 
# 
# 
# High freq. dielectric constant tensor:
#      x y z
#    x 1.778820 0.000000 0.000000 
#    y 0.000000 1.718420 0.000000 
#    z 0.000000 0.000000 1.781420 
# 
# From -- ./inp_files/27859.got.cif
#   From: 2010.03.12/outbox.cif.g09.slc.cpg/sg42_14_cif.got.tgz:27859.got - 2010.04.14 02:04:31.
