data_PCOD8186915
_publ_section_title
;
Structure prediction by ZEFSAII (Michael W. Deem and Ramdas Pophale) SiO2 
 PCOD8186915
Probable space group: F D D 2
;
_chemical_formula_sum "Si O2"
_cell_formula_units_Z 104
_cell_length_a 23.011347
_cell_length_b 7.120418
_cell_length_c 27.485435
_cell_angle_alpha 90.000000
_cell_angle_beta 90.000000
_cell_angle_gamma 90.000000
_cell_volume 4503.499777
_symmetry_space_group_name_H-M "F D D 2"
_symmetry_group_IT_number 43
_symmetry_cell_setting 'orthorhombic'
loop_
_space_group_symop_operation_xyz
x,y,z
-x,-y,z
1/4-x,1/4+y,1/4+z
1/4+x,1/4-y,1/4+z
x,1/2+y,1/2+z
-x,1/2-y,1/2+z
1/4-x,3/4+y,3/4+z
1/4+x,3/4-y,3/4+z
1/2+x,y,1/2+z
1/2-x,-y,1/2+z
3/4-x,1/4+y,3/4+z
3/4+x,1/4-y,3/4+z
1/2+x,1/2+y,z
1/2-x,1/2-y,z
3/4-x,3/4+y,1/4+z
3/4+x,3/4-y,1/4+z
loop_
_atom_site_type_symbol
_atom_site_label
_atom_site_fract_x
_atom_site_fract_y
_atom_site_fract_z
Si Si1 0.272776 0.456172 0.013280
Si Si2 0.295630 0.543964 0.116058
Si Si3 0.366195 0.876959 0.148699
Si Si4 0.099141 0.235517 0.102180
Si Si5 0.761657 0.029015 0.412404
Si Si6 0.000000 0.000000 0.937810
Si Si7 0.602190 0.666677 0.993546
O O1 0.250000 0.250000 0.025261
O O2 0.264161 0.566370 0.063825
O O3 0.339970 0.455034 0.997905
O O4 0.239205 0.552805 0.967810
O O5 0.190059 0.742739 0.132452
O O6 0.355481 0.429361 0.111316
O O7 0.254419 0.438035 0.154848
O O8 0.370295 0.072927 0.119864
O O9 0.362019 0.911553 0.206444
O O10 0.424707 0.752839 0.138840
O O11 0.083387 0.254323 0.045254
O O12 0.038936 0.185655 0.129991
O O13 0.750000 0.250000 0.417508
O O14 0.055126 0.021470 0.972659
#
# Coordination Sequence:
#
# PCOD8186915 Si02
#       7
#    16  16  16  16  16   8  16
#     4  10  17  39  73  94 121 184 221 270 347 391
#     4  11  24  39  72  96 135 177 225 278 338 411
#     4  11  22  44  66 101 128 177 232 276 337 408
#     4  10  22  45  66  95 138 174 216 286 340 399
#     4   9  17  38  70  91 128 171 220 275 336 395
#     4  12  24  46  64  98 144 184 222 276 352 412
#     4  11  23  42  70  95 138 183 221 280 347 408
#
# _framework density 23.093152
#
# number of rings (size 3 to 8) (size 9 to 14) (size 15 to 20)
#    0.000    1.538    6.923    0.000    0.000    3.692 
#   16.615    0.000    0.000    0.000    0.000    0.000 
#    0.000    0.000    0.000    0.000    0.000    0.000 
#
# Total GULP energy -322393.331507 kJ/mol
# GULP energy per Si atom -12399.743519 kJ/mol
# Density = 2.304059 g / cm^3
# Si number density = 23.093152 Si / 1000 Ang^3
#
#
#
# Elastic Constant Matrix: (Units=GPa)
#
#
# Indices 1 2 3 4 5 6 
#
# 1 39.0423 -6.2823 -2.1523 0.0004 -0.0002 0.0003
# 2 -6.2823 67.9474 20.4925 0.0017 -0.0002 -0.0013
# 3 -2.1523 20.4925 154.4288 -0.0003 -0.0002 0.0003
# 4 0.0004 0.0017 -0.0003 8.3645 0.0000 -0.0005
# 5 -0.0002 -0.0002 -0.0002 0.0000 24.3006 -0.0001
# 6 0.0003 -0.0013 0.0003 -0.0005 -0.0001 41.1278
#
#
#
# Elastic Compliance Matrix: (Units=1/GPa)
#
#
# Indices 1 2 3 4 5 6 
#
# 1 0.026000 0.002390 0.000045 -0.000002 0.000000 0.000000
# 2 0.002390 0.015551 -0.002030 -0.000003 0.000000 0.000000
# 3 0.000045 -0.002030 0.006746 0.000001 0.000000 0.000000
# 4 -0.000002 -0.000003 0.000001 0.119553 0.000000 0.000002
# 5 0.000000 0.000000 0.000000 0.000000 0.041151 0.000000
# 6 0.000000 0.000000 0.000000 0.000002 0.000000 0.024314
#
#
# Mechanical properties :
#
#
# Convention : Reuss Voigt Hill
#
# Bulk Modulus (GPa) = 20.36371 31.72603 26.04487
# Shear Modulus (GPa) = 20.09053 31.38262 25.73658
#
# Velocity S-wave (km/s) = 2.95274 3.69040 3.34199
# Velocity P-wave (km/s) = 4.52351 5.65039 5.11806
#
# Compressibility (1/GPa) = 0.04910697
#
# Stress axis : x y z
#
# Youngs Moduli (GPa) = 38.46105 64.30630 148.24663
#
# Poissons Ratio (x) = -0.15371 -0.00670
# Poissons Ratio (y) = -0.09193 0.30097
# Poissons Ratio (z) = -0.00174 0.13056
#
# Static dielectric constant tensor:
#      x y z
#    x 4.494800 0.000000 0.000000 
#    y 0.000000 3.748350 0.000000 
#    z 0.000000 0.000000 4.515940 
# 
# 
# High freq. dielectric constant tensor:
#      x y z
#    x 1.929900 0.000000 0.000000 
#    y 0.000000 1.886170 0.000000 
#    z 0.000000 0.000000 1.920430 
# 
# From -- ./inp_files/22478.got.cif
#   From: 2010.06.25/outbox.cif.g09.slc.cpg/sg43_12_cif.got.tgz:22478.got - 2010.06.26 16:48:59.
