data_PCOD8186007
_publ_section_title
;
Structure prediction by ZEFSAII (Michael W. Deem and Ramdas Pophale) SiO2 
 PCOD8186007
Probable space group: F M M 2
;
_chemical_formula_sum "Si O2"
_cell_formula_units_Z 80
_cell_length_a 25.997238
_cell_length_b 8.864014
_cell_length_c 19.571392
_cell_angle_alpha 90.000000
_cell_angle_beta 90.000000
_cell_angle_gamma 90.000000
_cell_volume 4510.029255
_symmetry_space_group_name_H-M "F M M 2"
_symmetry_group_IT_number 42
_symmetry_cell_setting 'orthorhombic'
loop_
_space_group_symop_operation_xyz
x,y,z
-x,-y,z
-x,y,z
x,-y,z
x,1/2+y,1/2+z
-x,1/2-y,1/2+z
-x,1/2+y,1/2+z
x,1/2-y,1/2+z
1/2+x,y,1/2+z
1/2-x,-y,1/2+z
1/2-x,y,1/2+z
1/2+x,-y,1/2+z
1/2+x,1/2+y,z
1/2-x,1/2-y,z
1/2-x,1/2+y,z
1/2+x,1/2-y,z
loop_
_atom_site_type_symbol
_atom_site_label
_atom_site_fract_x
_atom_site_fract_y
_atom_site_fract_z
Si Si1 0.500000 0.332552 0.808560
Si Si2 0.394935 0.820983 0.801911
Si Si3 0.609559 0.681275 0.656051
Si Si4 0.000000 0.664367 0.146709
Si Si5 0.302429 0.322144 0.554389
Si Si6 0.302700 0.177368 0.899344
O O1 0.500000 0.500000 0.841949
O O2 0.551222 0.242884 0.831094
O O3 0.500000 0.349456 0.727948
O O4 0.378640 0.753217 0.729137
O O5 0.350584 0.769259 0.854057
O O6 0.399594 0.000000 0.795999
O O7 0.607350 0.500000 0.664053
O O8 0.554103 0.744013 0.627183
O O9 0.651849 0.736726 0.602475
O O10 0.000000 0.500000 0.111874
O O11 0.297236 0.500000 0.559523
O O12 0.250000 0.250000 0.582181
O O13 0.313502 0.269258 0.477017
O O14 0.250000 0.250000 0.871412
O O15 0.295453 0.000000 0.895417
#
# Coordination Sequence:
#
# PCOD8186007 Si02
#       6
#     8  16  16   8  16  16
#     4   9  17  31  50  71  97 129 161 191 234 290
#     4  10  19  31  49  74 101 125 156 200 243 283
#     4   9  17  30  49  71  94 122 159 197 234 283
#     4   7  12  25  44  65  87 113 145 181 222 268
#     4   9  18  33  50  68  93 126 163 199 237 284
#     4   9  19  34  50  69  95 129 165 200 241 286
#
# _framework density 17.738244000000002
#
# number of rings (size 3 to 8) (size 9 to 14) (size 15 to 20)
#    0.000    3.000    0.000    2.100    0.000    3.200 
#    0.000    5.000    0.000    4.800    0.000    0.000 
#    0.000    0.000    0.000    0.000    0.000    0.000 
#
# Total GULP energy -247869.014454 kJ/mol
# GULP energy per Si atom -12393.450723 kJ/mol
# Density = 1.769787 g / cm^3
# Si number density = 17.738244 Si / 1000 Ang^3
#
#
#
# Elastic Constant Matrix: (Units=GPa)
#
#
# Indices 1 2 3 4 5 6 
#
# 1 205.3299 44.4146 88.0770 0.0000 0.0000 0.0000
# 2 44.4146 43.8601 26.7063 0.0000 0.0000 0.0000
# 3 88.0770 26.7063 76.6710 0.0000 0.0000 0.0000
# 4 0.0000 0.0000 0.0000 21.0158 0.0000 0.0000
# 5 0.0000 0.0000 0.0000 0.0000 16.0570 0.0000
# 6 0.0000 0.0000 0.0000 0.0000 0.0000 30.8352
#
#
#
# Elastic Compliance Matrix: (Units=1/GPa)
#
#
# Indices 1 2 3 4 5 6 
#
# 1 0.010133 -0.004027 -0.010237 0.000000 0.000000 0.000000
# 2 -0.004027 0.030538 -0.006011 0.000000 0.000000 0.000000
# 3 -0.010237 -0.006011 0.026897 0.000000 0.000000 0.000000
# 4 0.000000 0.000000 0.000000 0.047583 0.000000 0.000000
# 5 0.000000 0.000000 0.000000 0.000000 0.062278 0.000000
# 6 0.000000 0.000000 0.000000 0.000000 0.000000 0.032430
#
#
# Mechanical properties :
#
#
# Convention : Reuss Voigt Hill
#
# Bulk Modulus (GPa) = 37.01410 71.58409 54.29910
# Shear Modulus (GPa) = 19.27415 24.69247 21.98331
#
# Velocity S-wave (km/s) = 3.29992 3.73506 3.52421
# Velocity P-wave (km/s) = 5.95243 7.68403 6.87298
#
# Compressibility (1/GPa) = 0.02701673
#
# Stress axis : x y z
#
# Youngs Moduli (GPa) = 98.69089 32.74624 37.17954
#
# Poissons Ratio (x) = 0.13188 0.38061
# Poissons Ratio (y) = 0.39746 0.22347
# Poissons Ratio (z) = 1.01032 0.19682
#
# Static dielectric constant tensor:
#      x y z
#    x 3.752810 0.000000 0.000000 
#    y 0.000000 3.163200 0.000000 
#    z 0.000000 0.000000 3.138800 
# 
# 
# High freq. dielectric constant tensor:
#      x y z
#    x 1.705870 0.000000 0.000000 
#    y 0.000000 1.673090 0.000000 
#    z 0.000000 0.000000 1.656630 
# 
# From -- ./inp_files/13015.got.cif
#   From: 2010.03.12/outbox.cif.g09.slc.cpg/sg42_7_cif.got.tgz:13015.got - 2010.04.14 02:04:31.
