data_PCOD8186241
_publ_section_title
;
Structure prediction by ZEFSAII (Michael W. Deem and Ramdas Pophale) SiO2 
 PCOD8186241
Probable space group: F M M 2
;
_chemical_formula_sum "Si O2"
_cell_formula_units_Z 80
_cell_length_a 9.082507
_cell_length_b 16.177939
_cell_length_c 28.574243
_cell_angle_alpha 90.000000
_cell_angle_beta 90.000000
_cell_angle_gamma 90.000000
_cell_volume 4198.591948
_symmetry_space_group_name_H-M "F M M 2"
_symmetry_group_IT_number 42
_symmetry_cell_setting 'orthorhombic'
loop_
_space_group_symop_operation_xyz
x,y,z
-x,-y,z
-x,y,z
x,-y,z
x,1/2+y,1/2+z
-x,1/2-y,1/2+z
-x,1/2+y,1/2+z
x,1/2-y,1/2+z
1/2+x,y,1/2+z
1/2-x,-y,1/2+z
1/2-x,y,1/2+z
1/2+x,-y,1/2+z
1/2+x,1/2+y,z
1/2-x,1/2-y,z
1/2-x,1/2+y,z
1/2+x,1/2-y,z
loop_
_atom_site_type_symbol
_atom_site_label
_atom_site_fract_x
_atom_site_fract_y
_atom_site_fract_z
Si Si1 0.672209 0.167916 0.369320
Si Si2 0.838339 0.591045 0.276039
Si Si3 0.826615 0.666683 0.048793
Si Si4 0.172789 0.500000 0.104508
Si Si5 0.826128 0.500000 0.703316
Si Si6 0.669662 0.406503 0.965190
O O1 0.500000 0.182366 0.363222
O O2 0.750000 0.250000 0.386446
O O3 0.736152 0.142504 0.318243
O O4 0.705456 0.101950 0.410058
O O5 0.861880 0.500000 0.297683
O O6 0.732091 0.583007 0.230481
O O7 0.000000 0.626398 0.261009
O O8 0.750000 0.750000 0.069562
O O9 0.782521 0.583979 0.077399
O O10 0.000000 0.680983 0.049234
O O11 0.771517 0.653912 0.995688
O O12 0.264561 0.500000 0.151667
O O13 0.000000 0.500000 0.115900
O O14 0.000000 0.500000 0.702351
O O15 0.500000 0.383353 0.975199
O O16 0.704439 0.500000 0.979878
#
# Coordination Sequence:
#
# PCOD8186241 Si02
#       6
#    16  16  16   8   8  16
#     4  10  20  33  51  78 113 153 191 232 279 336
#     4   8  16  34  56  74 101 143 183 220 272 334
#     4  11  23  40  61  88 121 156 197 243 293 350
#     4  10  22  42  63  84 115 155 194 235 297 360
#     4  10  20  34  59  88 109 133 180 239 289 342
#     4  10  20  35  57  84 115 154 199 240 285 342
#
# _framework density 19.054008
#
# number of rings (size 3 to 8) (size 9 to 14) (size 15 to 20)
#    0.600    1.600    1.000    2.400    0.000    7.200 
#    0.000    1.000    0.000    0.000    0.000    0.000 
#    0.000    0.000    0.000    0.000    0.000    0.000 
#
# Total GULP energy -247822.752015 kJ/mol
# GULP energy per Si atom -12391.137601 kJ/mol
# Density = 1.901064 g / cm^3
# Si number density = 19.054008 Si / 1000 Ang^3
#
#
#
# Elastic Constant Matrix: (Units=GPa)
#
#
# Indices 1 2 3 4 5 6 
#
# 1 77.8070 43.9652 63.4281 0.0000 0.0000 0.0000
# 2 43.9652 100.0647 43.4158 0.0000 0.0000 0.0000
# 3 63.4281 43.4158 122.5519 0.0000 0.0000 0.0000
# 4 0.0000 0.0000 0.0000 20.4350 0.0000 0.0000
# 5 0.0000 0.0000 0.0000 0.0000 29.6038 0.0000
# 6 0.0000 0.0000 0.0000 0.0000 0.0000 27.5448
#
#
#
# Elastic Compliance Matrix: (Units=1/GPa)
#
#
# Indices 1 2 3 4 5 6 
#
# 1 0.025302 -0.006422 -0.010820 0.000000 0.000000 0.000000
# 2 -0.006422 0.013439 -0.001437 0.000000 0.000000 0.000000
# 3 -0.010820 -0.001437 0.014269 0.000000 0.000000 0.000000
# 4 0.000000 0.000000 0.000000 0.048936 0.000000 0.000000
# 5 0.000000 0.000000 0.000000 0.000000 0.033779 0.000000
# 6 0.000000 0.000000 0.000000 0.000000 0.000000 0.036305
#
#
# Mechanical properties :
#
#
# Convention : Reuss Voigt Hill
#
# Bulk Modulus (GPa) = 63.89402 66.89354 65.39378
# Shear Modulus (GPa) = 23.29874 25.49103 24.39488
#
# Velocity S-wave (km/s) = 3.50061 3.66160 3.58201
# Velocity P-wave (km/s) = 7.06717 7.28423 7.17652
#
# Compressibility (1/GPa) = 0.01565092
#
# Stress axis : x y z
#
# Youngs Moduli (GPa) = 39.52324 74.41195 70.08261
#
# Poissons Ratio (x) = 0.47788 0.75829
# Poissons Ratio (y) = 0.25382 0.10071
# Poissons Ratio (z) = 0.42764 0.10693
#
# Static dielectric constant tensor:
#      x y z
#    x 3.336600 0.000000 0.000000 
#    y 0.000000 3.465600 0.000000 
#    z 0.000000 0.000000 3.358590 
# 
# 
# High freq. dielectric constant tensor:
#      x y z
#    x 1.731620 0.000000 0.000000 
#    y 0.000000 1.728270 0.000000 
#    z 0.000000 0.000000 1.735760 
# 
# From -- ./inp_files/33596.got.cif
#   From: 2010.03.12/outbox.cif.g09.slc.cpg/sg42_17_cif.got.tgz:33596.got - 2010.04.14 02:04:31.
