data_PCOD8186331
_publ_section_title
;
Structure prediction by ZEFSAII (Michael W. Deem and Ramdas Pophale) SiO2 
 PCOD8186331
Probable space group: F M M 2
;
_chemical_formula_sum "Si O2"
_cell_formula_units_Z 112
_cell_length_a 15.310123
_cell_length_b 27.849952
_cell_length_c 12.355214
_cell_angle_alpha 90.000000
_cell_angle_beta 90.000000
_cell_angle_gamma 90.000000
_cell_volume 5268.092632
_symmetry_space_group_name_H-M "F M M 2"
_symmetry_group_IT_number 42
_symmetry_cell_setting 'orthorhombic'
loop_
_space_group_symop_operation_xyz
x,y,z
-x,-y,z
-x,y,z
x,-y,z
x,1/2+y,1/2+z
-x,1/2-y,1/2+z
-x,1/2+y,1/2+z
x,1/2-y,1/2+z
1/2+x,y,1/2+z
1/2-x,-y,1/2+z
1/2-x,y,1/2+z
1/2+x,-y,1/2+z
1/2+x,1/2+y,z
1/2-x,1/2-y,z
1/2-x,1/2+y,z
1/2+x,1/2-y,z
loop_
_atom_site_type_symbol
_atom_site_label
_atom_site_fract_x
_atom_site_fract_y
_atom_site_fract_z
Si Si1 0.900515 0.709398 0.141480
Si Si2 0.158827 0.112224 0.586956
Si Si3 0.098376 0.809943 0.049819
Si Si4 0.715920 0.556448 0.378985
Si Si5 0.902489 0.555563 0.288920
Si Si6 0.713693 0.698547 0.853488
Si Si7 0.676745 0.369305 0.221894
O O1 0.889196 0.663162 0.061900
O O2 0.866167 0.757412 0.083794
O O3 0.849067 0.701314 0.251346
O O4 0.000000 0.717175 0.174003
O O5 0.170841 0.078300 0.484289
O O6 0.103176 0.084596 0.677635
O O7 0.252748 0.126784 0.628527
O O8 0.097396 0.845609 0.154765
O O9 0.000000 0.807422 0.005358
O O10 0.161302 0.826227 0.952147
O O11 0.700596 0.500000 0.380026
O O12 0.820599 0.569278 0.368027
O O13 0.662501 0.578124 0.275276
O O14 0.893665 0.500000 0.258920
O O15 0.000000 0.565843 0.340437
O O16 0.750000 0.750000 0.887681
O O17 0.794280 0.664003 0.823199
#
# Coordination Sequence:
#
# PCOD8186331 Si02
#       7
#    16  16  16  16  16  16  16
#     4  10  22  38  57  89 126 161 203 254 308 365
#     4  10  20  34  59  87 122 161 207 253 312 370
#     4  11  24  40  60  88 122 163 207 250 307 369
#     4  10  21  38  62  94 124 161 213 265 317 373
#     4   9  18  35  59  87 120 156 200 258 315 369
#     4  11  22  36  64  87 122 161 206 248 301 375
#     4  10  22  40  59  89 118 166 204 256 306 370
#
# _framework density 21.260066999999999
#
# number of rings (size 3 to 8) (size 9 to 14) (size 15 to 20)
#    0.000    1.857    1.429    2.143    6.000    0.571 
#    0.000    7.143    0.000    2.143    0.000    0.000 
#    0.000    0.000    0.000    0.000    0.000    0.000 
#
# Total GULP energy -346989.189845 kJ/mol
# GULP energy per Si atom -12392.471066 kJ/mol
# Density = 2.121168 g / cm^3
# Si number density = 21.260067 Si / 1000 Ang^3
#
#
#
# Elastic Constant Matrix: (Units=GPa)
#
#
# Indices 1 2 3 4 5 6 
#
# 1 48.8564 20.7044 34.0446 0.0000 0.0000 0.0000
# 2 20.7044 96.3469 33.7809 0.0000 0.0000 0.0000
# 3 34.0446 33.7809 89.8458 0.0000 0.0000 0.0000
# 4 0.0000 0.0000 0.0000 32.6437 0.0000 0.0000
# 5 0.0000 0.0000 0.0000 0.0000 27.3550 0.0000
# 6 0.0000 0.0000 0.0000 0.0000 0.0000 23.1654
#
#
#
# Elastic Compliance Matrix: (Units=1/GPa)
#
#
# Indices 1 2 3 4 5 6 
#
# 1 0.028402 -0.002684 -0.009753 0.000000 0.000000 0.000000
# 2 -0.002684 0.012209 -0.003573 0.000000 0.000000 0.000000
# 3 -0.009753 -0.003573 0.016169 0.000000 0.000000 0.000000
# 4 0.000000 0.000000 0.000000 0.030634 0.000000 0.000000
# 5 0.000000 0.000000 0.000000 0.000000 0.036556 0.000000
# 6 0.000000 0.000000 0.000000 0.000000 0.000000 0.043168
#
#
# Mechanical properties :
#
#
# Convention : Reuss Voigt Hill
#
# Bulk Modulus (GPa) = 40.38857 45.78987 43.08922
# Shear Modulus (GPa) = 24.10669 26.40077 25.25373
#
# Velocity S-wave (km/s) = 3.37099 3.52774 3.45026
# Velocity P-wave (km/s) = 5.84723 6.17884 6.01532
#
# Compressibility (1/GPa) = 0.02475948
#
# Stress axis : x y z
#
# Youngs Moduli (GPa) = 35.20925 81.90829 61.84536
#
# Poissons Ratio (x) = 0.21982 0.60318
# Poissons Ratio (y) = 0.09449 0.22100
# Poissons Ratio (z) = 0.34339 0.29269
#
# Static dielectric constant tensor:
#      x y z
#    x 3.766970 0.000000 0.000000 
#    y 0.000000 4.221610 0.000000 
#    z 0.000000 0.000000 3.665430 
# 
# 
# High freq. dielectric constant tensor:
#      x y z
#    x 1.814450 0.000000 0.000000 
#    y 0.000000 1.847390 0.000000 
#    z 0.000000 0.000000 1.820860 
# 
# From -- ./inp_files/8091.got.cif
#   From: 2010.03.12/outbox.cif.g09.slc.cpg/sg42_5_cif.got.tgz:8091.got - 2010.04.14 02:04:31.
