data_PCOD8186071
_publ_section_title
;
Structure prediction by ZEFSAII (Michael W. Deem and Ramdas Pophale) SiO2 
 PCOD8186071
Probable space group: F M M 2
;
_chemical_formula_sum "Si O2"
_cell_formula_units_Z 96
_cell_length_a 28.164439
_cell_length_b 9.449677
_cell_length_c 20.625535
_cell_angle_alpha 90.000000
_cell_angle_beta 90.000000
_cell_angle_gamma 90.000000
_cell_volume 5489.379948
_symmetry_space_group_name_H-M "F M M 2"
_symmetry_group_IT_number 42
_symmetry_cell_setting 'orthorhombic'
loop_
_space_group_symop_operation_xyz
x,y,z
-x,-y,z
-x,y,z
x,-y,z
x,1/2+y,1/2+z
-x,1/2-y,1/2+z
-x,1/2+y,1/2+z
x,1/2-y,1/2+z
1/2+x,y,1/2+z
1/2-x,-y,1/2+z
1/2-x,y,1/2+z
1/2+x,-y,1/2+z
1/2+x,1/2+y,z
1/2-x,1/2-y,z
1/2-x,1/2+y,z
1/2+x,1/2-y,z
loop_
_atom_site_type_symbol
_atom_site_label
_atom_site_fract_x
_atom_site_fract_y
_atom_site_fract_z
Si Si1 0.555462 0.832502 0.878150
Si Si2 0.795045 0.337234 0.547333
Si Si3 0.295744 0.835162 0.696553
Si Si4 0.604741 0.167593 0.747139
Si Si5 0.395225 0.665832 0.992850
Si Si6 0.946934 0.668495 0.621522
O O1 0.500000 0.790311 0.877455
O O2 0.580279 0.776282 0.812473
O O3 0.582965 0.755046 0.935104
O O4 0.561637 0.000000 0.886424
O O5 0.780730 0.500000 0.542766
O O6 0.750000 0.250000 0.522069
O O7 0.808111 0.298842 0.621716
O O8 0.839196 0.303500 0.500326
O O9 0.250000 0.750000 0.720985
O O10 0.339971 0.788202 0.741630
O O11 0.284655 0.000000 0.704744
O O12 0.577120 0.233130 0.685732
O O13 0.600228 0.000000 0.744255
O O14 0.405144 0.500000 0.980984
O O15 0.419631 0.721259 0.058241
O O16 0.945627 0.500000 0.624504
O O17 0.000000 0.727576 0.617799
#
# Coordination Sequence:
#
# PCOD8186071 Si02
#       6
#    16  16  16  16  16  16
#     4  10  21  35  51  73 103 138 171 205 251 304
#     4   9  17  30  50  76 103 129 163 207 254 301
#     4   9  16  29  50  75 101 126 159 205 253 298
#     4   9  16  30  50  72  98 129 166 207 247 291
#     4  10  19  33  52  76 102 131 168 210 254 300
#     4   9  15  25  47  75  96 119 162 213 249 283
#
# _framework density 17.488313000000002
#
# number of rings (size 3 to 8) (size 9 to 14) (size 15 to 20)
#    0.000    2.667    1.667    1.000    0.000    3.667 
#    0.000    1.667    0.000    5.000    0.000    0.000 
#    0.000    0.000    0.000    0.000    0.000    0.000 
#
# Total GULP energy -297544.707411 kJ/mol
# GULP energy per Si atom -12397.696142 kJ/mol
# Density = 1.744851 g / cm^3
# Si number density = 17.488313 Si / 1000 Ang^3
#
#
#
# Elastic Constant Matrix: (Units=GPa)
#
#
# Indices 1 2 3 4 5 6 
#
# 1 158.8458 49.0046 81.6994 0.0000 0.0000 0.0000
# 2 49.0046 34.4546 37.4133 0.0000 0.0000 0.0000
# 3 81.6994 37.4133 133.9633 0.0000 0.0000 0.0000
# 4 0.0000 0.0000 0.0000 22.6427 0.0000 0.0000
# 5 0.0000 0.0000 0.0000 0.0000 33.0728 0.0000
# 6 0.0000 0.0000 0.0000 0.0000 0.0000 26.5062
#
#
#
# Elastic Compliance Matrix: (Units=1/GPa)
#
#
# Indices 1 2 3 4 5 6 
#
# 1 0.012430 -0.013559 -0.003794 0.000000 0.000000 0.000000
# 2 -0.013559 0.056448 -0.007496 0.000000 0.000000 0.000000
# 3 -0.003794 -0.007496 0.011872 0.000000 0.000000 0.000000
# 4 0.000000 0.000000 0.000000 0.044164 0.000000 0.000000
# 5 0.000000 0.000000 0.000000 0.000000 0.030236 0.000000
# 6 0.000000 0.000000 0.000000 0.000000 0.000000 0.037727
#
#
# Mechanical properties :
#
#
# Convention : Reuss Voigt Hill
#
# Bulk Modulus (GPa) = 32.20327 73.72203 52.96265
# Shear Modulus (GPa) = 19.76869 27.05410 23.41140
#
# Velocity S-wave (km/s) = 3.36578 3.93744 3.66278
# Velocity P-wave (km/s) = 5.79299 7.93207 6.94538
#
# Compressibility (1/GPa) = 0.03105275
#
# Stress axis : x y z
#
# Youngs Moduli (GPa) = 80.45274 17.71530 84.23434
#
# Poissons Ratio (x) = 0.24021 0.31955
# Poissons Ratio (y) = 1.09089 0.63139
# Poissons Ratio (z) = 0.30520 0.13279
#
# Static dielectric constant tensor:
#      x y z
#    x 3.453840 0.000000 0.000000 
#    y 0.000000 2.863410 0.000000 
#    z 0.000000 0.000000 3.270590 
# 
# 
# High freq. dielectric constant tensor:
#      x y z
#    x 1.693080 0.000000 0.000000 
#    y 0.000000 1.632940 0.000000 
#    z 0.000000 0.000000 1.665680 
# 
# From -- ./inp_files/19120.got.cif
#   From: 2010.03.12/outbox.cif.g09.slc.cpg/sg42_10_cif.got.tgz:19120.got - 2010.04.14 02:04:31.
