data_PCOD8186715
_publ_section_title
;
Structure prediction by ZEFSAII (Michael W. Deem and Ramdas Pophale) SiO2 
 PCOD8186715
Probable space group: F M M 2
;
_chemical_formula_sum "Si O2"
_cell_formula_units_Z 96
_cell_length_a 17.196631
_cell_length_b 14.097342
_cell_length_c 20.243678
_cell_angle_alpha 90.000000
_cell_angle_beta 90.000000
_cell_angle_gamma 90.000000
_cell_volume 4907.609844
_symmetry_space_group_name_H-M "F M M 2"
_symmetry_group_IT_number 42
_symmetry_cell_setting 'orthorhombic'
loop_
_space_group_symop_operation_xyz
x,y,z
-x,-y,z
-x,y,z
x,-y,z
x,1/2+y,1/2+z
-x,1/2-y,1/2+z
-x,1/2+y,1/2+z
x,1/2-y,1/2+z
1/2+x,y,1/2+z
1/2-x,-y,1/2+z
1/2-x,y,1/2+z
1/2+x,-y,1/2+z
1/2+x,1/2+y,z
1/2-x,1/2-y,z
1/2-x,1/2+y,z
1/2+x,1/2-y,z
loop_
_atom_site_type_symbol
_atom_site_label
_atom_site_fract_x
_atom_site_fract_y
_atom_site_fract_z
Si Si1 0.910014 0.312309 0.667390
Si Si2 0.302382 0.500000 0.777435
Si Si3 0.910133 0.809743 0.412325
Si Si4 0.910826 0.679637 0.287344
Si Si5 0.664217 0.791786 0.048490
Si Si6 0.313102 0.000000 0.660117
Si Si7 0.709554 0.000000 0.041559
Si Si8 0.179818 0.000000 0.394028
O O1 0.884642 0.248072 0.728558
O O2 0.892897 0.256754 0.600203
O O3 0.862931 0.408234 0.675179
O O4 0.000000 0.339092 0.669801
O O5 0.355713 0.590437 0.786189
O O6 0.263938 0.500000 0.705117
O O7 0.237728 0.500000 0.833421
O O8 0.898592 0.732374 0.356118
O O9 0.866166 0.767400 0.475716
O O10 0.874721 0.908703 0.388514
O O11 0.000000 0.826876 0.429501
O O12 0.000000 0.647251 0.278239
O O13 0.750000 0.750000 0.058065
O O14 0.661135 0.905488 0.060126
O O15 0.289480 0.000000 0.582785
O O16 0.727918 0.000000 0.963128
#
# Coordination Sequence:
#
# PCOD8186715 Si02
#       8
#    16   8  16  16  16   8   8   8
#     4  11  24  42  63  90 124 165 203 252 313 368
#     4  12  25  38  63  92 122 160 208 248 315 356
#     4  10  22  41  63  90 124 164 203 251 308 362
#     4  10  24  42  62  88 124 162 204 252 306 370
#     4  11  22  39  64  92 126 160 209 256 302 365
#     4  12  23  39  61  93 120 160 203 256 302 372
#     4  10  22  38  58  92 124 154 202 258 300 346
#     4  10  23  37  61  93 120 160 201 256 298 366
#
# _framework density 19.561457999999998
#
# number of rings (size 3 to 8) (size 9 to 14) (size 15 to 20)
#    0.000    1.333    1.667    3.250    4.667    1.333 
#    0.000    5.417    0.000    4.000    0.000    0.000 
#    0.000    0.000    0.000    0.000    0.000    0.000 
#
# Total GULP energy -297714.334686 kJ/mol
# GULP energy per Si atom -12404.763945 kJ/mol
# Density = 1.951693 g / cm^3
# Si number density = 19.561458 Si / 1000 Ang^3
#
#
#
# Elastic Constant Matrix: (Units=GPa)
#
#
# Indices 1 2 3 4 5 6 
#
# 1 77.2861 50.2382 28.2559 0.0000 0.0000 0.0000
# 2 50.2382 126.5291 34.7118 0.0000 0.0000 0.0000
# 3 28.2559 34.7118 84.2631 0.0000 0.0000 0.0000
# 4 0.0000 0.0000 0.0000 32.1197 0.0000 0.0000
# 5 0.0000 0.0000 0.0000 0.0000 40.2183 0.0000
# 6 0.0000 0.0000 0.0000 0.0000 0.0000 6.0096
#
#
#
# Elastic Compliance Matrix: (Units=1/GPa)
#
#
# Indices 1 2 3 4 5 6 
#
# 1 0.018336 -0.006306 -0.003551 0.000000 0.000000 0.000000
# 2 -0.006306 0.011079 -0.002449 0.000000 0.000000 0.000000
# 3 -0.003551 -0.002449 0.014067 0.000000 0.000000 0.000000
# 4 0.000000 0.000000 0.000000 0.031133 0.000000 0.000000
# 5 0.000000 0.000000 0.000000 0.000000 0.024864 0.000000
# 6 0.000000 0.000000 0.000000 0.000000 0.000000 0.166401
#
#
# Mechanical properties :
#
#
# Convention : Reuss Voigt Hill
#
# Bulk Modulus (GPa) = 52.99460 57.16558 55.08009
# Shear Modulus (GPa) = 16.84724 27.32769 22.08746
#
# Velocity S-wave (km/s) = 2.93788 3.74172 3.36390
# Velocity P-wave (km/s) = 6.21759 6.92491 6.58076
#
# Compressibility (1/GPa) = 0.01886985
#
# Stress axis : x y z
#
# Youngs Moduli (GPa) = 54.53625 90.25943 71.08692
#
# Poissons Ratio (x) = 0.56920 0.25242
# Poissons Ratio (y) = 0.34392 0.17411
# Poissons Ratio (z) = 0.19365 0.22107
#
# Static dielectric constant tensor:
#      x y z
#    x 3.613490 0.000000 0.000000 
#    y 0.000000 3.676050 0.000000 
#    z 0.000000 0.000000 3.750540 
# 
# 
# High freq. dielectric constant tensor:
#      x y z
#    x 1.763350 0.000000 0.000000 
#    y 0.000000 1.775310 0.000000 
#    z 0.000000 0.000000 1.778490 
# 
# From -- ./inp_files/25184.got.cif
#   From: 2010.03.12/outbox.cif.g09.slc.cpg/sg42_13_cif.got.tgz:25184.got - 2010.04.14 02:04:31.
