data_PCOD8186027
_publ_section_title
;
Structure prediction by ZEFSAII (Michael W. Deem and Ramdas Pophale) SiO2 
 PCOD8186027
Probable space group: F M M 2
;
_chemical_formula_sum "Si O2"
_cell_formula_units_Z 96
_cell_length_a 19.076853
_cell_length_b 9.047870
_cell_length_c 31.435098
_cell_angle_alpha 90.000000
_cell_angle_beta 90.000000
_cell_angle_gamma 90.000000
_cell_volume 5425.851505
_symmetry_space_group_name_H-M "F M M 2"
_symmetry_group_IT_number 42
_symmetry_cell_setting 'orthorhombic'
loop_
_space_group_symop_operation_xyz
x,y,z
-x,-y,z
-x,y,z
x,-y,z
x,1/2+y,1/2+z
-x,1/2-y,1/2+z
-x,1/2+y,1/2+z
x,1/2-y,1/2+z
1/2+x,y,1/2+z
1/2-x,-y,1/2+z
1/2-x,y,1/2+z
1/2+x,-y,1/2+z
1/2+x,1/2+y,z
1/2-x,1/2-y,z
1/2-x,1/2+y,z
1/2+x,1/2-y,z
loop_
_atom_site_type_symbol
_atom_site_label
_atom_site_fract_x
_atom_site_fract_y
_atom_site_fract_z
Si Si1 0.917256 0.171247 0.071220
Si Si2 0.177837 0.169619 0.733966
Si Si3 0.675316 0.326570 0.825698
Si Si4 0.825806 0.825364 0.641476
Si Si5 0.919230 0.326570 0.402711
Si Si6 0.916660 0.833112 0.486830
O O1 0.880776 0.256111 0.109450
O O2 0.000000 0.193740 0.076195
O O3 0.896240 0.000000 0.071952
O O4 0.889293 0.240699 0.027186
O O5 0.250000 0.250000 0.734807
O O6 0.139596 0.208613 0.778966
O O7 0.140693 0.207218 0.688840
O O8 0.197625 0.000000 0.733880
O O9 0.687404 0.500000 0.831289
O O10 0.750000 0.250000 0.831288
O O11 0.622460 0.268111 0.861581
O O12 0.750000 0.750000 0.636141
O O13 0.818098 0.000000 0.632913
O O14 0.909480 0.500000 0.410502
O O15 0.888430 0.242893 0.443874
O O16 0.000000 0.286069 0.394983
O O17 0.000000 0.830899 0.486398
O O18 0.887668 0.000000 0.489646
#
# Coordination Sequence:
#
# PCOD8186027 Si02
#       6
#    16  16  16  16  16  16
#     4  10  20  34  52  73  98 128 162 200 243 291
#     4   8  15  28  46  68  93 124 160 193 229 277
#     4   9  17  30  48  70  95 124 158 194 233 277
#     4  10  19  32  51  74 100 129 163 202 243 288
#     4   9  17  30  48  69  94 124 157 193 234 281
#     4   9  17  30  49  71  94 122 158 197 237 285
#
# _framework density 17.693076000000001
#
# number of rings (size 3 to 8) (size 9 to 14) (size 15 to 20)
#    0.000    2.833    0.000    1.500    0.000    4.333 
#    0.000    1.667    0.000    5.000    0.000    2.333 
#    0.000    0.000    0.000    0.000    0.000    0.000 
#
# Total GULP energy -297350.236480 kJ/mol
# GULP energy per Si atom -12389.593187 kJ/mol
# Density = 1.765281 g / cm^3
# Si number density = 17.693076 Si / 1000 Ang^3
#
#
#
# Elastic Constant Matrix: (Units=GPa)
#
#
# Indices 1 2 3 4 5 6 
#
# 1 41.0338 30.8781 54.3924 0.0000 0.0000 0.0000
# 2 30.8781 86.5809 75.3658 0.0000 0.0000 0.0000
# 3 54.3924 75.3658 204.9939 0.0000 0.0000 0.0000
# 4 0.0000 0.0000 0.0000 31.1183 0.0000 0.0000
# 5 0.0000 0.0000 0.0000 0.0000 27.5775 0.0000
# 6 0.0000 0.0000 0.0000 0.0000 0.0000 22.3015
#
#
#
# Elastic Compliance Matrix: (Units=1/GPa)
#
#
# Indices 1 2 3 4 5 6 
#
# 1 0.040666 -0.007516 -0.008027 0.000000 0.000000 0.000000
# 2 -0.007516 0.018375 -0.004761 0.000000 0.000000 0.000000
# 3 -0.008027 -0.004761 0.008759 0.000000 0.000000 0.000000
# 4 0.000000 0.000000 0.000000 0.032135 0.000000 0.000000
# 5 0.000000 0.000000 0.000000 0.000000 0.036261 0.000000
# 6 0.000000 0.000000 0.000000 0.000000 0.000000 0.044840
#
#
# Mechanical properties :
#
#
# Convention : Reuss Voigt Hill
#
# Bulk Modulus (GPa) = 36.77658 72.65346 54.71502
# Shear Modulus (GPa) = 21.67238 27.66427 24.66833
#
# Velocity S-wave (km/s) = 3.50366 3.95848 3.73800
# Velocity P-wave (km/s) = 6.09906 7.87687 7.04428
#
# Compressibility (1/GPa) = 0.02719122
#
# Stress axis : x y z
#
# Youngs Moduli (GPa) = 24.59053 54.42214 114.17443
#
# Poissons Ratio (x) = 0.40903 0.91648
# Poissons Ratio (y) = 0.18482 0.54362
# Poissons Ratio (z) = 0.19739 0.25912
#
# Static dielectric constant tensor:
#      x y z
#    x 2.842150 0.000000 0.000000 
#    y 0.000000 3.383240 0.000000 
#    z 0.000000 0.000000 4.060330 
# 
# 
# High freq. dielectric constant tensor:
#      x y z
#    x 1.632320 0.000000 0.000000 
#    y 0.000000 1.692210 0.000000 
#    z 0.000000 0.000000 1.711840 
# 
# From -- ./inp_files/28051.got.cif
#   From: 2010.03.12/outbox.cif.g09.slc.cpg/sg42_15_cif.got.tgz:28051.got - 2010.04.14 02:04:31.
