data_PCOD8186539
_publ_section_title
;
Structure prediction by ZEFSAII (Michael W. Deem and Ramdas Pophale) SiO2 
 PCOD8186539
Probable space group: F M M 2
;
_chemical_formula_sum "Si O2"
_cell_formula_units_Z 104
_cell_length_a 9.183962
_cell_length_b 25.708470
_cell_length_c 22.113776
_cell_angle_alpha 90.000000
_cell_angle_beta 90.000000
_cell_angle_gamma 90.000000
_cell_volume 5221.186606
_symmetry_space_group_name_H-M "F M M 2"
_symmetry_group_IT_number 42
_symmetry_cell_setting 'orthorhombic'
loop_
_space_group_symop_operation_xyz
x,y,z
-x,-y,z
-x,y,z
x,-y,z
x,1/2+y,1/2+z
-x,1/2-y,1/2+z
-x,1/2+y,1/2+z
x,1/2-y,1/2+z
1/2+x,y,1/2+z
1/2-x,-y,1/2+z
1/2-x,y,1/2+z
1/2+x,-y,1/2+z
1/2+x,1/2+y,z
1/2-x,1/2-y,z
1/2-x,1/2+y,z
1/2+x,1/2-y,z
loop_
_atom_site_type_symbol
_atom_site_label
_atom_site_fract_x
_atom_site_fract_y
_atom_site_fract_z
Si Si1 0.163844 0.844272 0.647190
Si Si2 0.750000 0.250000 0.217848
Si Si3 0.165795 0.907058 0.242041
Si Si4 0.842192 0.817230 0.325237
Si Si5 0.830861 0.884126 0.037310
Si Si6 0.330509 0.500000 0.073694
Si Si7 0.831808 0.799616 0.941673
Si Si8 0.829979 0.500000 0.202143
O O1 0.154292 0.785450 0.672512
O O2 0.285425 0.873831 0.684829
O O3 0.223819 0.850501 0.579579
O O4 0.000000 0.867982 0.651064
O O5 0.847671 0.215656 0.263087
O O6 0.181466 0.876824 0.305186
O O7 0.000000 0.925781 0.231093
O O8 0.280111 0.953268 0.244533
O O9 0.715889 0.802077 0.371394
O O10 0.000000 0.810906 0.357030
O O11 0.000000 0.876997 0.056029
O O12 0.791512 0.946439 0.036651
O O13 0.801825 0.855737 0.972834
O O14 0.500000 0.500000 0.089488
O O15 0.244903 0.500000 0.136534
O O16 0.750000 0.750000 0.972436
O O17 0.000000 0.785682 0.943236
O O18 0.000000 0.500000 0.191069
#
# Coordination Sequence:
#
# PCOD8186539 Si02
#       8
#    16   8  16  16  16   8  16   8
#     4  11  22  35  56  88 121 154 197 248 295 354
#     4  10  22  36  56  86 122 162 194 236 300 362
#     4  10  21  37  58  85 121 159 195 239 299 361
#     4  10  21  39  62  86 115 158 204 244 293 356
#     4  10  23  41  61  87 119 160 204 248 306 367
#     4  10  20  40  65  82 113 163 204 246 306 367
#     4  11  24  41  62  88 120 159 204 253 305 363
#     4  12  22  34  57  92 123 155 200 246 296 351
#
# _framework density 19.918842999999999
#
# number of rings (size 3 to 8) (size 9 to 14) (size 15 to 20)
#    0.000    1.538    2.308    2.538    1.077    6.154 
#    0.000    0.769    0.000    0.923    0.000    0.000 
#    0.000    0.000    0.000    0.000    0.000    0.000 
#
# Total GULP energy -322116.795354 kJ/mol
# GULP energy per Si atom -12389.107514 kJ/mol
# Density = 1.987351 g / cm^3
# Si number density = 19.918843 Si / 1000 Ang^3
#
#
#
# Elastic Constant Matrix: (Units=GPa)
#
#
# Indices 1 2 3 4 5 6 
#
# 1 111.8691 47.9499 37.2428 0.0000 0.0000 0.0000
# 2 47.9499 140.4658 50.2662 0.0000 0.0000 0.0000
# 3 37.2428 50.2662 72.9051 0.0000 0.0000 0.0000
# 4 0.0000 0.0000 0.0000 26.9331 0.0000 0.0000
# 5 0.0000 0.0000 0.0000 0.0000 10.7482 0.0000
# 6 0.0000 0.0000 0.0000 0.0000 0.0000 22.3139
#
#
#
# Elastic Compliance Matrix: (Units=1/GPa)
#
#
# Indices 1 2 3 4 5 6 
#
# 1 0.011344 -0.002388 -0.004148 0.000000 0.000000 0.000000
# 2 -0.002388 0.009954 -0.005643 0.000000 0.000000 0.000000
# 3 -0.004148 -0.005643 0.019726 0.000000 0.000000 0.000000
# 4 0.000000 0.000000 0.000000 0.037129 0.000000 0.000000
# 5 0.000000 0.000000 0.000000 0.000000 0.093039 0.000000
# 6 0.000000 0.000000 0.000000 0.000000 0.000000 0.044815
#
#
# Mechanical properties :
#
#
# Convention : Reuss Voigt Hill
#
# Bulk Modulus (GPa) = 60.00553 66.23977 63.12265
# Shear Modulus (GPa) = 20.33181 24.65111 22.49146
#
# Velocity S-wave (km/s) = 3.19836 3.52174 3.36394
# Velocity P-wave (km/s) = 6.62040 7.06144 6.84447
#
# Compressibility (1/GPa) = 0.01666513
#
# Stress axis : x y z
#
# Youngs Moduli (GPa) = 88.15587 100.46587 50.69354
#
# Poissons Ratio (x) = 0.23989 0.21030
# Poissons Ratio (y) = 0.21049 0.28606
# Poissons Ratio (z) = 0.36571 0.56693
#
# Static dielectric constant tensor:
#      x y z
#    x 3.560760 0.000000 0.000000 
#    y 0.000000 4.626570 0.000000 
#    z 0.000000 0.000000 3.388720 
# 
# 
# High freq. dielectric constant tensor:
#      x y z
#    x 1.781050 0.000000 0.000000 
#    y 0.000000 1.787620 0.000000 
#    z 0.000000 0.000000 1.747350 
# 
# From -- ./inp_files/23837.got.cif
#   From: 2010.03.12/outbox.cif.g09.slc.cpg/sg42_12_cif.got.tgz:23837.got - 2010.04.14 02:04:31.
