data_PCOD8186219
_publ_section_title
;
Structure prediction by ZEFSAII (Michael W. Deem and Ramdas Pophale) SiO2 
 PCOD8186219
Probable space group: F M M 2
;
_chemical_formula_sum "Si O2"
_cell_formula_units_Z 72
_cell_length_a 9.183991
_cell_length_b 23.135288
_cell_length_c 17.876205
_cell_angle_alpha 90.000000
_cell_angle_beta 90.000000
_cell_angle_gamma 90.000000
_cell_volume 3798.233729
_symmetry_space_group_name_H-M "F M M 2"
_symmetry_group_IT_number 42
_symmetry_cell_setting 'orthorhombic'
loop_
_space_group_symop_operation_xyz
x,y,z
-x,-y,z
-x,y,z
x,-y,z
x,1/2+y,1/2+z
-x,1/2-y,1/2+z
-x,1/2+y,1/2+z
x,1/2-y,1/2+z
1/2+x,y,1/2+z
1/2-x,-y,1/2+z
1/2-x,y,1/2+z
1/2+x,-y,1/2+z
1/2+x,1/2+y,z
1/2-x,1/2-y,z
1/2-x,1/2+y,z
1/2+x,1/2-y,z
loop_
_atom_site_type_symbol
_atom_site_label
_atom_site_fract_x
_atom_site_fract_y
_atom_site_fract_z
Si Si1 0.250000 0.750000 0.429430
Si Si2 0.336822 0.156906 0.043157
Si Si3 0.166999 0.933361 0.952069
Si Si4 0.659839 0.651099 0.822631
Si Si5 0.672507 0.308801 0.190402
O O1 0.346545 0.709099 0.483189
O O2 0.342081 0.792556 0.376614
O O3 0.500000 0.146123 0.072996
O O4 0.229364 0.171572 0.110473
O O5 0.275422 0.097951 0.008906
O O6 0.188241 0.906563 0.870068
O O7 0.000000 0.925022 0.978950
O O8 0.211553 0.000000 0.948592
O O9 0.500000 0.649014 0.785092
O O10 0.782238 0.648704 0.757961
O O11 0.500000 0.301520 0.186561
O O12 0.750000 0.250000 0.214147
#
# Coordination Sequence:
#
# PCOD8186219 Si02
#       5
#     8  16  16  16  16
#     4  10  20  32  56  82 118 146 188 230 292 340
#     4  11  22  36  58  86 117 152 193 237 286 343
#     4   9  20  40  63  86 115 151 193 241 289 337
#     4  10  20  35  57  84 115 150 190 233 285 344
#     4  12  24  37  55  82 119 156 190 233 288 348
#
# _framework density 18.95618
#
# number of rings (size 3 to 8) (size 9 to 14) (size 15 to 20)
#    0.000    1.556    2.222    3.333    0.000    5.778 
#    0.000    1.111    0.000    4.000    0.000    0.000 
#    0.000    0.000    0.000    0.000    0.000    0.000 
#
# Total GULP energy -223152.049305 kJ/mol
# GULP energy per Si atom -12397.336073 kJ/mol
# Density = 1.891303 g / cm^3
# Si number density = 18.956180 Si / 1000 Ang^3
#
#
#
# Elastic Constant Matrix: (Units=GPa)
#
#
# Indices 1 2 3 4 5 6 
#
# 1 146.3016 27.0120 45.9364 0.0000 0.0000 0.0000
# 2 27.0120 97.0070 21.8735 0.0000 0.0000 0.0000
# 3 45.9364 21.8735 91.7419 0.0000 0.0000 0.0000
# 4 0.0000 0.0000 0.0000 17.8559 0.0000 0.0000
# 5 0.0000 0.0000 0.0000 0.0000 32.9543 0.0000
# 6 0.0000 0.0000 0.0000 0.0000 0.0000 20.8457
#
#
#
# Elastic Compliance Matrix: (Units=1/GPa)
#
#
# Indices 1 2 3 4 5 6 
#
# 1 0.008299 -0.001452 -0.003809 0.000000 0.000000 0.000000
# 2 -0.001452 0.011148 -0.001931 0.000000 0.000000 0.000000
# 3 -0.003809 -0.001931 0.013268 0.000000 0.000000 0.000000
# 4 0.000000 0.000000 0.000000 0.056004 0.000000 0.000000
# 5 0.000000 0.000000 0.000000 0.000000 0.030345 0.000000
# 6 0.000000 0.000000 0.000000 0.000000 0.000000 0.047972
#
#
# Mechanical properties :
#
#
# Convention : Reuss Voigt Hill
#
# Bulk Modulus (GPa) = 54.55308 58.29938 56.42623
# Shear Modulus (GPa) = 26.66223 30.34643 28.50433
#
# Velocity S-wave (km/s) = 3.75443 4.00543 3.88196
# Velocity P-wave (km/s) = 6.90183 7.22585 7.06570
#
# Compressibility (1/GPa) = 0.01833077
#
# Stress axis : x y z
#
# Youngs Moduli (GPa) = 120.49094 89.70012 75.36961
#
# Poissons Ratio (x) = 0.13025 0.28711
# Poissons Ratio (y) = 0.17496 0.14554
# Poissons Ratio (z) = 0.45900 0.17321
#
# Static dielectric constant tensor:
#      x y z
#    x 3.425800 0.000000 0.000000 
#    y 0.000000 3.429400 0.000000 
#    z 0.000000 0.000000 3.479300 
# 
# 
# High freq. dielectric constant tensor:
#      x y z
#    x 1.739750 0.000000 0.000000 
#    y 0.000000 1.717270 0.000000 
#    z 0.000000 0.000000 1.739540 
# 
# From -- ./inp_files/18049.got.cif
#   From: 2010.03.12/outbox.cif.g09.slc.cpg/sg42_10_cif.got.tgz:18049.got - 2010.04.14 02:04:31.
