data_PCOD8186834
_publ_section_title
;
Structure prediction by ZEFSAII (Michael W. Deem and Ramdas Pophale) SiO2 
 PCOD8186834
Probable space group: F M M 2
;
_chemical_formula_sum "Si O2"
_cell_formula_units_Z 48
_cell_length_a 15.646485
_cell_length_b 8.738811
_cell_length_c 18.476928
_cell_angle_alpha 90.000000
_cell_angle_beta 90.000000
_cell_angle_gamma 90.000000
_cell_volume 2526.381319
_symmetry_space_group_name_H-M "F M M 2"
_symmetry_group_IT_number 42
_symmetry_cell_setting 'orthorhombic'
loop_
_space_group_symop_operation_xyz
x,y,z
-x,-y,z
-x,y,z
x,-y,z
x,1/2+y,1/2+z
-x,1/2-y,1/2+z
-x,1/2+y,1/2+z
x,1/2-y,1/2+z
1/2+x,y,1/2+z
1/2-x,-y,1/2+z
1/2-x,y,1/2+z
1/2+x,-y,1/2+z
1/2+x,1/2+y,z
1/2-x,1/2-y,z
1/2-x,1/2+y,z
1/2+x,1/2-y,z
loop_
_atom_site_type_symbol
_atom_site_label
_atom_site_fract_x
_atom_site_fract_y
_atom_site_fract_z
Si Si1 0.094921 0.328759 0.738330
Si Si2 0.500000 0.319466 0.023987
Si Si3 0.337841 0.319284 0.602420
Si Si4 0.500000 0.679408 0.856528
O O1 0.133002 0.500000 0.746271
O O2 0.154850 0.228504 0.686699
O O3 0.084972 0.250562 0.817718
O O4 0.000000 0.336051 0.702082
O O5 0.500000 0.500000 0.036844
O O6 0.584784 0.248024 0.056899
O O7 0.500000 0.275627 0.939716
O O8 0.336891 0.500000 0.595310
O O9 0.250000 0.250000 0.570988
O O10 0.500000 0.500000 0.843406
#
# Coordination Sequence:
#
# PCOD8186834 Si02
#       4
#    16   8  16   8
#     4   9  18  34  57  83 113 145 186 233 280 335
#     4  11  22  39  60  85 121 155 190 237 288 345
#     4  12  24  38  60  87 117 153 196 240 288 343
#     4   9  18  33  58  85 113 153 192 231 286 343
#
# _framework density 18.999507999999999
#
# number of rings (size 3 to 8) (size 9 to 14) (size 15 to 20)
#    1.000    0.667    1.667    4.500    0.000    2.667 
#    0.000    1.667    0.000    8.000    0.000    0.000 
#    0.000    0.000    0.000    0.000    0.000    0.000 
#
# Total GULP energy -148741.903283 kJ/mol
# GULP energy per Si atom -12395.158607 kJ/mol
# Density = 1.895626 g / cm^3
# Si number density = 18.999508 Si / 1000 Ang^3
#
#
#
# Elastic Constant Matrix: (Units=GPa)
#
#
# Indices 1 2 3 4 5 6 
#
# 1 121.8807 63.3273 58.4730 0.0000 0.0000 0.0000
# 2 63.3273 168.9691 77.1673 0.0000 0.0000 0.0000
# 3 58.4730 77.1673 123.8343 0.0000 0.0000 0.0000
# 4 0.0000 0.0000 0.0000 32.7968 0.0000 0.0000
# 5 0.0000 0.0000 0.0000 0.0000 10.1434 0.0000
# 6 0.0000 0.0000 0.0000 0.0000 0.0000 31.1616
#
#
#
# Elastic Compliance Matrix: (Units=1/GPa)
#
#
# Indices 1 2 3 4 5 6 
#
# 1 0.011326 -0.002520 -0.003778 0.000000 0.000000 0.000000
# 2 -0.002520 0.008833 -0.004315 0.000000 0.000000 0.000000
# 3 -0.003778 -0.004315 0.012548 0.000000 0.000000 0.000000
# 4 0.000000 0.000000 0.000000 0.030491 0.000000 0.000000
# 5 0.000000 0.000000 0.000000 0.000000 0.098586 0.000000
# 6 0.000000 0.000000 0.000000 0.000000 0.000000 0.032091
#
#
# Mechanical properties :
#
#
# Convention : Reuss Voigt Hill
#
# Bulk Modulus (GPa) = 87.08663 90.29106 88.68884
# Shear Modulus (GPa) = 22.83867 29.20148 26.02008
#
# Velocity S-wave (km/s) = 3.47084 3.92466 3.70471
# Velocity P-wave (km/s) = 7.87389 8.25611 8.06726
#
# Compressibility (1/GPa) = 0.01148282
#
# Stress axis : x y z
#
# Youngs Moduli (GPa) = 88.28897 113.21220 79.69443
#
# Poissons Ratio (x) = 0.28524 0.30110
# Poissons Ratio (y) = 0.22245 0.34385
# Poissons Ratio (z) = 0.33357 0.48846
#
# Static dielectric constant tensor:
#      x y z
#    x 3.286770 0.000000 0.000000 
#    y 0.000000 3.547850 0.000000 
#    z 0.000000 0.000000 3.444250 
# 
# 
# High freq. dielectric constant tensor:
#      x y z
#    x 1.716870 0.000000 0.000000 
#    y 0.000000 1.758190 0.000000 
#    z 0.000000 0.000000 1.726610 
# 
# From -- ./inp_files/17677.got.cif
#   From: 2010.03.12/outbox.cif.g09.slc.cpg/sg42_9_cif.got.tgz:17677.got - 2010.04.14 02:04:31.
