data_PCOD8186639
_publ_section_title
;
Structure prediction by ZEFSAII (Michael W. Deem and Ramdas Pophale) SiO2 
 PCOD8186639
Probable space group: F M M 2
;
_chemical_formula_sum "Si O2"
_cell_formula_units_Z 96
_cell_length_a 8.791009
_cell_length_b 30.263424
_cell_length_c 18.570999
_cell_angle_alpha 90.000000
_cell_angle_beta 90.000000
_cell_angle_gamma 90.000000
_cell_volume 4940.740608
_symmetry_space_group_name_H-M "F M M 2"
_symmetry_group_IT_number 42
_symmetry_cell_setting 'orthorhombic'
loop_
_space_group_symop_operation_xyz
x,y,z
-x,-y,z
-x,y,z
x,-y,z
x,1/2+y,1/2+z
-x,1/2-y,1/2+z
-x,1/2+y,1/2+z
x,1/2-y,1/2+z
1/2+x,y,1/2+z
1/2-x,-y,1/2+z
1/2-x,y,1/2+z
1/2+x,-y,1/2+z
1/2+x,1/2+y,z
1/2-x,1/2-y,z
1/2-x,1/2+y,z
1/2+x,1/2-y,z
loop_
_atom_site_type_symbol
_atom_site_label
_atom_site_fract_x
_atom_site_fract_y
_atom_site_fract_z
Si Si1 0.321162 0.124948 0.523520
Si Si2 0.176636 0.448767 0.114225
Si Si3 0.177974 0.373116 0.868930
Si Si4 0.677079 0.704006 0.778798
Si Si5 0.324521 0.704416 0.609958
Si Si6 0.824572 0.449746 0.762447
O O1 0.500000 0.128329 0.529069
O O2 0.267337 0.078061 0.554254
O O3 0.272141 0.129130 0.441500
O O4 0.251136 0.164156 0.569405
O O5 0.214359 0.500000 0.101404
O O6 0.225587 0.434352 0.194290
O O7 0.000000 0.438086 0.105215
O O8 0.229770 0.334051 0.817383
O O9 0.215880 0.419516 0.830450
O O10 0.000000 0.368583 0.885917
O O11 0.500000 0.702836 0.800368
O O12 0.750000 0.750000 0.804172
O O13 0.700875 0.697075 0.694267
O O14 0.500000 0.706301 0.589061
O O15 0.250000 0.750000 0.583723
O O16 0.785841 0.500000 0.784536
O O17 0.000000 0.444466 0.740008
#
# Coordination Sequence:
#
# PCOD8186639 Si02
#       6
#    16  16  16  16  16  16
#     4  12  25  39  57  83 117 155 194 236 285 340
#     4  10  21  38  61  87 115 149 190 236 285 338
#     4  11  23  38  57  83 117 154 191 233 283 338
#     4  10  21  38  61  87 114 146 187 234 283 337
#     4  10  21  39  63  89 117 149 189 236 284 337
#     4   9  19  37  61  87 114 147 188 233 281 336
#
# _framework density 19.430284
#
# number of rings (size 3 to 8) (size 9 to 14) (size 15 to 20)
#    0.000    1.667    0.000    4.500    0.000    8.333 
#    0.000    5.000    0.000    0.000    0.000    0.000 
#    0.000    0.000    0.000    0.000    0.000    0.000 
#
# Total GULP energy -297739.213435 kJ/mol
# GULP energy per Si atom -12405.800560 kJ/mol
# Density = 1.938606 g / cm^3
# Si number density = 19.430284 Si / 1000 Ang^3
#
#
#
# Elastic Constant Matrix: (Units=GPa)
#
#
# Indices 1 2 3 4 5 6 
#
# 1 113.4221 57.1568 54.0060 0.0000 0.0000 0.0000
# 2 57.1568 111.5170 41.5128 0.0000 0.0000 0.0000
# 3 54.0060 41.5128 44.2817 0.0000 0.0000 0.0000
# 4 0.0000 0.0000 0.0000 -12.9944 0.0000 0.0000
# 5 0.0000 0.0000 0.0000 0.0000 -311.5743 0.0000
# 6 0.0000 0.0000 0.0000 0.0000 0.0000 35.2609
#
#
#
# Elastic Compliance Matrix: (Units=1/GPa)
#
#
# Indices 1 2 3 4 5 6 
#
# 1 0.021290 -0.001914 -0.024171 0.000000 0.000000 0.000000
# 2 -0.001914 0.013946 -0.010740 0.000000 0.000000 0.000000
# 3 -0.024171 -0.010740 0.062130 0.000000 0.000000 0.000000
# 4 0.000000 0.000000 0.000000 -0.076956 0.000000 0.000000
# 5 0.000000 0.000000 0.000000 0.000000 -0.003210 0.000000
# 6 0.000000 0.000000 0.000000 0.000000 0.000000 0.028360
#
#
# Mechanical properties :
#
#
# Convention : Reuss Voigt Hill
#
# Bulk Modulus (GPa) = 42.16468 63.84134 53.00301
# Shear Modulus (GPa) = 39.33393 -50.09189 -5.37898
#
# Velocity S-wave (km/s) = 4.50417 -5.08294 -1.66564
# Velocity P-wave (km/s) = 6.98553 1.23306 4.86196
#
# Compressibility (1/GPa) = 0.02371653
#
# Stress axis : x y z
#
# Youngs Moduli (GPa) = 46.96945 71.70386 16.09528
#
# Poissons Ratio (x) = 0.13726 0.38904
# Poissons Ratio (y) = 0.08991 0.17286
# Poissons Ratio (z) = 1.13531 0.77007
#
# Static dielectric constant tensor:
#      x y z
#    x 5.499680 0.000000 0.000000 
#    y 0.000000 3.882840 0.000000 
#    z 0.000000 0.000000 3.468540 
# 
# 
# High freq. dielectric constant tensor:
#      x y z
#    x 1.770710 0.000000 0.000000 
#    y 0.000000 1.771900 0.000000 
#    z 0.000000 0.000000 1.751150 
# 
# From -- ./inp_files/23731.got.cif
#   From: 2010.03.12/outbox.cif.g09.slc.cpg/sg42_12_cif.got.tgz:23731.got - 2010.04.14 02:04:31.
