data_PCOD8186994
_publ_section_title
;
Structure prediction by ZEFSAII (Michael W. Deem and Ramdas Pophale) SiO2 
 PCOD8186994
Probable space group: F D D 2
;
_chemical_formula_sum "Si O2"
_cell_formula_units_Z 112
_cell_length_a 13.726202
_cell_length_b 26.858315
_cell_length_c 14.332037
_cell_angle_alpha 90.000000
_cell_angle_beta 90.000000
_cell_angle_gamma 90.000000
_cell_volume 5283.686842
_symmetry_space_group_name_H-M "F D D 2"
_symmetry_group_IT_number 43
_symmetry_cell_setting 'orthorhombic'
loop_
_space_group_symop_operation_xyz
x,y,z
-x,-y,z
1/4-x,1/4+y,1/4+z
1/4+x,1/4-y,1/4+z
x,1/2+y,1/2+z
-x,1/2-y,1/2+z
1/4-x,3/4+y,3/4+z
1/4+x,3/4-y,3/4+z
1/2+x,y,1/2+z
1/2-x,-y,1/2+z
3/4-x,1/4+y,3/4+z
3/4+x,1/4-y,3/4+z
1/2+x,1/2+y,z
1/2-x,1/2-y,z
3/4-x,3/4+y,1/4+z
3/4+x,3/4-y,1/4+z
loop_
_atom_site_type_symbol
_atom_site_label
_atom_site_fract_x
_atom_site_fract_y
_atom_site_fract_z
Si Si1 0.453747 0.776239 0.771510
Si Si2 0.088066 0.465806 0.815717
Si Si3 0.090120 0.400714 0.643716
Si Si4 0.699179 0.897332 0.150203
Si Si5 0.905317 0.528633 0.028369
Si Si6 0.268874 0.448658 0.333137
Si Si7 0.139575 0.326648 0.296061
O O1 0.426396 0.822423 0.837169
O O2 0.565383 0.759623 0.785643
O O3 0.439186 0.792885 0.664424
O O4 0.381208 0.731643 0.795156
O O5 0.098293 0.416088 0.752656
O O6 0.183898 0.499299 0.804405
O O7 0.000000 0.500000 0.779483
O O8 0.076070 0.450954 0.923824
O O9 0.099163 0.341231 0.624684
O O10 0.983161 0.416077 0.609688
O O11 0.614021 0.922623 0.090089
O O12 0.714329 0.929700 0.242828
O O13 0.798541 0.892926 0.090664
O O14 0.660082 0.844418 0.189137
O O15 0.000000 0.500000 0.066201
#
# Coordination Sequence:
#
# PCOD8186994 Si02
#       7
#    16  16  16  16  16  16  16
#     4  10  21  40  59  94 128 160 212 264 319 389
#     4  10  19  36  61  86 124 163 204 262 319 375
#     4  11  22  36  67  95 126 166 211 264 331 386
#     4  10  21  40  63  89 128 167 211 263 324 382
#     4   9  20  41  63  84 129 173 208 263 320 382
#     4  10  23  36  62  93 124 161 209 270 317 379
#     4  10  22  39  66  93 128 167 209 271 327 386
#
# _framework density 21.197320999999999
#
# number of rings (size 3 to 8) (size 9 to 14) (size 15 to 20)
#    0.000    2.000    0.000    3.857   10.000    0.000 
#    2.571   12.857    3.143    0.000    0.000    0.000 
#    0.000    0.000    0.000    0.000    0.000    0.000 
#
# Total GULP energy -347132.090349 kJ/mol
# GULP energy per Si atom -12397.574655 kJ/mol
# Density = 2.114907 g / cm^3
# Si number density = 21.197321 Si / 1000 Ang^3
#
#
#
# Elastic Constant Matrix: (Units=GPa)
#
#
# Indices 1 2 3 4 5 6 
#
# 1 75.2236 7.8958 24.5896 0.0000 0.0000 0.0000
# 2 7.8958 64.5679 25.1913 0.0000 0.0000 0.0000
# 3 24.5896 25.1913 100.0856 0.0000 0.0000 0.0000
# 4 0.0000 0.0000 0.0000 46.9948 0.0000 0.0000
# 5 0.0000 0.0000 0.0000 0.0000 29.9925 0.0000
# 6 0.0000 0.0000 0.0000 0.0000 0.0000 9.2764
#
#
#
# Elastic Compliance Matrix: (Units=1/GPa)
#
#
# Indices 1 2 3 4 5 6 
#
# 1 0.014465 -0.000424 -0.003447 0.000000 0.000000 0.000000
# 2 -0.000424 0.017186 -0.004222 0.000000 0.000000 0.000000
# 3 -0.003447 -0.004222 0.011901 0.000000 0.000000 0.000000
# 4 0.000000 0.000000 0.000000 0.021279 0.000000 0.000000
# 5 0.000000 0.000000 0.000000 0.000000 0.033342 0.000000
# 6 0.000000 0.000000 0.000000 0.000000 0.000000 0.107801
#
#
# Mechanical properties :
#
#
# Convention : Reuss Voigt Hill
#
# Bulk Modulus (GPa) = 36.54040 39.47006 38.00523
# Shear Modulus (GPa) = 21.61867 29.39944 25.50905
#
# Velocity S-wave (km/s) = 3.19702 3.72821 3.47278
# Velocity P-wave (km/s) = 5.55909 6.09864 5.83511
#
# Compressibility (1/GPa) = 0.02736697
#
# Stress axis : x y z
#
# Youngs Moduli (GPa) = 69.13233 58.18523 84.02706
#
# Poissons Ratio (x) = 0.02467 0.28965
# Poissons Ratio (y) = 0.02931 0.35473
# Poissons Ratio (z) = 0.23831 0.24564
#
# Static dielectric constant tensor:
#      x y z
#    x 3.786290 0.000000 0.000000 
#    y 0.000000 3.998850 0.000000 
#    z 0.000000 0.000000 4.042710 
# 
# 
# High freq. dielectric constant tensor:
#      x y z
#    x 1.820090 0.000000 0.000000 
#    y 0.000000 1.822020 0.000000 
#    z 0.000000 0.000000 1.836060 
# 
# From -- ./inp_files/10266.got.cif
#   From: 2010.06.25/outbox.cif.g09.slc.cpg/sg43_6_cif.got.tgz:10266.got - 2010.06.26 16:48:59.
