data_PCOD8186891
_publ_section_title
;
Structure prediction by ZEFSAII (Michael W. Deem and Ramdas Pophale) SiO2 
 PCOD8186891
Probable space group: F M M 2
;
_chemical_formula_sum "Si O2"
_cell_formula_units_Z 96
_cell_length_a 27.211875
_cell_length_b 9.157118
_cell_length_c 26.078867
_cell_angle_alpha 90.000000
_cell_angle_beta 90.000000
_cell_angle_gamma 90.000000
_cell_volume 6498.393374
_symmetry_space_group_name_H-M "F M M 2"
_symmetry_group_IT_number 42
_symmetry_cell_setting 'orthorhombic'
loop_
_space_group_symop_operation_xyz
x,y,z
-x,-y,z
-x,y,z
x,-y,z
x,1/2+y,1/2+z
-x,1/2-y,1/2+z
-x,1/2+y,1/2+z
x,1/2-y,1/2+z
1/2+x,y,1/2+z
1/2-x,-y,1/2+z
1/2-x,y,1/2+z
1/2+x,-y,1/2+z
1/2+x,1/2+y,z
1/2-x,1/2-y,z
1/2-x,1/2+y,z
1/2+x,1/2-y,z
loop_
_atom_site_type_symbol
_atom_site_label
_atom_site_fract_x
_atom_site_fract_y
_atom_site_fract_z
Si Si1 0.105269 0.834911 0.364820
Si Si2 0.941551 0.335188 0.568398
Si Si3 0.799336 0.165506 0.312449
Si Si4 0.443491 0.170326 0.168322
Si Si5 0.442847 0.170086 0.968542
Si Si6 0.883388 0.172692 0.768176
O O1 0.165210 0.834754 0.362843
O O2 0.086564 0.772020 0.418838
O O3 0.086078 0.733836 0.317623
O O4 0.084992 0.000000 0.357287
O O5 0.921845 0.500000 0.568472
O O6 0.921907 0.255070 0.619238
O O7 0.921567 0.255226 0.517627
O O8 0.000000 0.327670 0.568145
O O9 0.750000 0.250000 0.326447
O O10 0.829424 0.250050 0.267183
O O11 0.787411 0.000000 0.294918
O O12 0.500000 0.212202 0.179036
O O13 0.412170 0.218729 0.217315
O O14 0.438055 0.000000 0.156740
O O15 0.500000 0.203821 0.959474
O O16 0.433402 0.000000 0.978276
O O17 0.877246 0.000000 0.773059
#
# Coordination Sequence:
#
# PCOD8186891 Si02
#       6
#    16  16  16  16  16  16
#     4   8  17  29  41  62  88 112 142 175 211 256
#     4   9  17  27  40  60  83 111 149 186 216 244
#     4   9  17  30  46  64  86 110 140 176 215 261
#     4   9  17  29  43  60  86 120 152 178 208 251
#     4   9  16  28  44  60  84 118 149 176 210 254
#     4   9  17  28  43  64  88 113 144 177 214 255
#
# _framework density 14.772881999999999
#
# number of rings (size 3 to 8) (size 9 to 14) (size 15 to 20)
#    1.000    2.167    0.000    1.000    0.000    4.667 
#    0.000    0.000    0.000    0.000    0.000    1.167 
#    0.000    2.667    0.000    0.000    0.000    0.000 
#
# Total GULP energy -297376.851220 kJ/mol
# GULP energy per Si atom -12390.702134 kJ/mol
# Density = 1.473926 g / cm^3
# Si number density = 14.772882 Si / 1000 Ang^3
#
#
#
# Elastic Constant Matrix: (Units=GPa)
#
#
# Indices 1 2 3 4 5 6 
#
# 1 50.5636 31.2645 44.8182 0.0000 0.0000 -0.0001
# 2 31.2645 85.0862 64.2440 0.0000 0.0000 -0.0002
# 3 44.8182 64.2440 138.3048 0.0000 0.0000 0.0000
# 4 0.0000 0.0000 0.0000 26.3096 0.0000 0.0000
# 5 0.0000 0.0000 0.0000 0.0000 2.5194 0.0000
# 6 -0.0001 -0.0002 0.0000 0.0000 0.0000 18.9660
#
#
#
# Elastic Compliance Matrix: (Units=1/GPa)
#
#
# Indices 1 2 3 4 5 6 
#
# 1 0.029356 -0.005551 -0.006934 0.000000 0.000000 0.000000
# 2 -0.005551 0.019151 -0.007097 0.000000 0.000000 0.000000
# 3 -0.006934 -0.007097 0.012774 0.000000 0.000000 0.000000
# 4 0.000000 0.000000 0.000000 0.038009 0.000000 0.000000
# 5 0.000000 0.000000 0.000000 0.000000 0.396924 0.000000
# 6 0.000000 0.000000 0.000000 0.000000 0.000000 0.052726
#
#
# Mechanical properties :
#
#
# Convention : Reuss Voigt Hill
#
# Bulk Modulus (GPa) = 45.21545 61.62310 53.41927
# Shear Modulus (GPa) = 8.39663 18.46753 13.43208
#
# Velocity S-wave (km/s) = 2.38666 3.53951 3.01863
# Velocity P-wave (km/s) = 6.18614 7.64908 6.95617
#
# Compressibility (1/GPa) = 0.02211633
#
# Stress axis : x y z
#
# Youngs Moduli (GPa) = 34.06491 52.21648 78.28278
#
# Poissons Ratio (x) = 0.28984 0.54285
# Poissons Ratio (y) = 0.18909 0.55558
# Poissons Ratio (z) = 0.23622 0.37059
#
# Static dielectric constant tensor:
#      x y z
#    x 2.536680 0.000000 0.000000 
#    y 0.000000 2.915770 0.000000 
#    z 0.000000 0.000000 2.864250 
# 
# 
# High freq. dielectric constant tensor:
#      x y z
#    x 1.522780 0.000000 0.000000 
#    y 0.000000 1.575670 0.000000 
#    z 0.000000 0.000000 1.557210 
# 
# From -- ./inp_files/33315.got.cif
#   From: 2010.03.12/outbox.cif.g09.slc.cpg/sg42_17_cif.got.tgz:33315.got - 2010.04.14 02:04:31.
