data_PCOD8186737
_publ_section_title
;
Structure prediction by ZEFSAII (Michael W. Deem and Ramdas Pophale) SiO2 
 PCOD8186737
Probable space group: F M M 2
;
_chemical_formula_sum "Si O2"
_cell_formula_units_Z 80
_cell_length_a 8.685165
_cell_length_b 29.000267
_cell_length_c 15.528984
_cell_angle_alpha 90.000000
_cell_angle_beta 90.000000
_cell_angle_gamma 90.000000
_cell_volume 3911.317872
_symmetry_space_group_name_H-M "F M M 2"
_symmetry_group_IT_number 42
_symmetry_cell_setting 'orthorhombic'
loop_
_space_group_symop_operation_xyz
x,y,z
-x,-y,z
-x,y,z
x,-y,z
x,1/2+y,1/2+z
-x,1/2-y,1/2+z
-x,1/2+y,1/2+z
x,1/2-y,1/2+z
1/2+x,y,1/2+z
1/2-x,-y,1/2+z
1/2-x,y,1/2+z
1/2+x,-y,1/2+z
1/2+x,1/2+y,z
1/2-x,1/2-y,z
1/2-x,1/2+y,z
1/2+x,1/2-y,z
loop_
_atom_site_type_symbol
_atom_site_label
_atom_site_fract_x
_atom_site_fract_y
_atom_site_fract_z
Si Si1 0.317829 0.702261 0.214240
Si Si2 0.676806 0.111063 0.155532
Si Si3 0.823068 0.114220 0.463673
Si Si4 0.317764 0.052209 0.805814
Si Si5 0.181142 0.796981 0.901557
O O1 0.500000 0.705405 0.213719
O O2 0.250000 0.750000 0.176933
O O3 0.263151 0.659943 0.156290
O O4 0.259037 0.693009 0.310176
O O5 0.500000 0.118944 0.181107
O O6 0.748987 0.074614 0.220437
O O7 0.693405 0.091438 0.058266
O O8 0.761797 0.078577 0.391795
O O9 0.720871 0.160410 0.462928
O O10 0.000000 0.127546 0.444879
O O11 0.500000 0.054031 0.798100
O O12 0.257294 0.000000 0.812375
O O13 0.250000 0.750000 0.941950
O O14 0.000000 0.791422 0.889878
#
# Coordination Sequence:
#
# PCOD8186737 Si02
#       5
#    16  16  16  16  16
#     4  11  21  36  59  87 123 164 205 248 300 356
#     4  11  23  39  62  93 124 159 205 252 301 358
#     4  10  22  40  62  89 124 162 202 247 301 362
#     4  10  22  42  66  89 118 159 202 251 311 366
#     4  11  21  35  59  89 123 162 205 247 296 355
#
# _framework density 20.453462999999999
#
# number of rings (size 3 to 8) (size 9 to 14) (size 15 to 20)
#    0.000    1.400    2.000    5.400    0.000    3.600 
#    0.000    2.000    0.000    0.000    0.000    0.000 
#    0.000    0.000    0.000    0.000    0.000    0.000 
#
# Total GULP energy -248058.964598 kJ/mol
# GULP energy per Si atom -12402.948230 kJ/mol
# Density = 2.040691 g / cm^3
# Si number density = 20.453463 Si / 1000 Ang^3
#
#
#
# Elastic Constant Matrix: (Units=GPa)
#
#
# Indices 1 2 3 4 5 6 
#
# 1 38.9132 50.4839 10.4655 0.0000 0.0000 0.0000
# 2 50.4839 156.1309 69.1179 0.0000 0.0000 0.0000
# 3 10.4655 69.1179 110.7050 0.0000 0.0000 0.0000
# 4 0.0000 0.0000 0.0000 13.3955 0.0000 0.0000
# 5 0.0000 0.0000 0.0000 0.0000 26.4880 0.0000
# 6 0.0000 0.0000 0.0000 0.0000 0.0000 30.2779
#
#
#
# Elastic Compliance Matrix: (Units=1/GPa)
#
#
# Indices 1 2 3 4 5 6 
#
# 1 0.048015 -0.018679 0.007123 0.000000 0.000000 0.000000
# 2 -0.018679 0.016118 -0.008297 0.000000 0.000000 0.000000
# 3 0.007123 -0.008297 0.013540 0.000000 0.000000 0.000000
# 4 0.000000 0.000000 0.000000 0.074652 0.000000 0.000000
# 5 0.000000 0.000000 0.000000 0.000000 0.037753 0.000000
# 6 0.000000 0.000000 0.000000 0.000000 0.000000 0.033027
#
#
# Mechanical properties :
#
#
# Convention : Reuss Voigt Hill
#
# Bulk Modulus (GPa) = 26.33887 62.87597 44.60742
# Shear Modulus (GPa) = 18.15104 25.74441 21.94773
#
# Velocity S-wave (km/s) = 2.98221 3.55164 3.27931
# Velocity P-wave (km/s) = 4.97630 6.90120 6.01623
#
# Compressibility (1/GPa) = 0.03796671
#
# Stress axis : x y z
#
# Youngs Moduli (GPa) = 20.82676 62.04432 73.85586
#
# Poissons Ratio (x) = 1.15890 -0.52605
# Poissons Ratio (y) = 0.38901 0.61279
# Poissons Ratio (z) = -0.14834 0.51479
#
# Static dielectric constant tensor:
#      x y z
#    x 3.702130 0.000000 0.000000 
#    y 0.000000 3.826280 0.000000 
#    z 0.000000 0.000000 3.659330 
# 
# 
# High freq. dielectric constant tensor:
#      x y z
#    x 1.802720 0.000000 0.000000 
#    y 0.000000 1.796440 0.000000 
#    z 0.000000 0.000000 1.798060 
# 
# From -- ./inp_files/18210.got.cif
#   From: 2010.03.12/outbox.cif.g09.slc.cpg/sg42_10_cif.got.tgz:18210.got - 2010.04.14 02:04:31.
