data_PCOD8186670
_publ_section_title
;
Structure prediction by ZEFSAII (Michael W. Deem and Ramdas Pophale) SiO2 
 PCOD8186670
Probable space group: F M M 2
;
_chemical_formula_sum "Si O2"
_cell_formula_units_Z 80
_cell_length_a 25.981332
_cell_length_b 15.377057
_cell_length_c 10.295912
_cell_angle_alpha 90.000000
_cell_angle_beta 90.000000
_cell_angle_gamma 90.000000
_cell_volume 4113.385935
_symmetry_space_group_name_H-M "F M M 2"
_symmetry_group_IT_number 42
_symmetry_cell_setting 'orthorhombic'
loop_
_space_group_symop_operation_xyz
x,y,z
-x,-y,z
-x,y,z
x,-y,z
x,1/2+y,1/2+z
-x,1/2-y,1/2+z
-x,1/2+y,1/2+z
x,1/2-y,1/2+z
1/2+x,y,1/2+z
1/2-x,-y,1/2+z
1/2-x,y,1/2+z
1/2+x,-y,1/2+z
1/2+x,1/2+y,z
1/2-x,1/2-y,z
1/2-x,1/2+y,z
1/2+x,1/2-y,z
loop_
_atom_site_type_symbol
_atom_site_label
_atom_site_fract_x
_atom_site_fract_y
_atom_site_fract_z
Si Si1 0.058518 0.651153 0.772530
Si Si2 0.809905 0.743792 0.111957
Si Si3 0.875360 0.098273 0.036957
Si Si4 0.371666 0.597365 0.506994
Si Si5 0.895429 0.670618 0.265900
O O1 0.077386 0.620123 0.631549
O O2 0.092989 0.606008 0.881591
O O3 0.061257 0.755674 0.783427
O O4 0.000000 0.620981 0.791058
O O5 0.750000 0.750000 0.140130
O O6 0.827681 0.837868 0.061602
O O7 0.839958 0.719937 0.245789
O O8 0.824957 0.668324 0.006199
O O9 0.856044 0.000000 0.057733
O O10 0.895291 0.108903 0.890202
O O11 0.348383 0.500000 0.510322
O O12 0.406603 0.613911 0.636179
#
# Coordination Sequence:
#
# PCOD8186670 Si02
#       5
#    16  16  16  16  16
#     4  11  22  41  64  88 124 167 205 251 314 369
#     4   9  21  40  64  87 124 160 204 243 309 356
#     4  11  22  39  61  92 125 157 204 256 306 362
#     4  10  21  39  62  91 122 160 208 253 298 364
#     4   9  20  40  61  89 117 162 200 258 296 361
#
# _framework density 19.448698
#
# number of rings (size 3 to 8) (size 9 to 14) (size 15 to 20)
#    1.200    0.800    2.000    1.200    0.000    6.400 
#    0.000    0.000    0.000    3.600    0.000    0.000 
#    0.000    0.000    0.000    0.000    0.000    0.000 
#
# Total GULP energy -247861.052265 kJ/mol
# GULP energy per Si atom -12393.052613 kJ/mol
# Density = 1.940443 g / cm^3
# Si number density = 19.448698 Si / 1000 Ang^3
#
#
#
# Elastic Constant Matrix: (Units=GPa)
#
#
# Indices 1 2 3 4 5 6 
#
# 1 85.3338 30.5010 26.2145 0.0000 0.0000 0.0000
# 2 30.5010 151.5844 13.4581 0.0000 0.0000 0.0000
# 3 26.2145 13.4581 103.8457 0.0000 0.0000 0.0000
# 4 0.0000 0.0000 0.0000 28.8743 0.0000 0.0000
# 5 0.0000 0.0000 0.0000 0.0000 14.8226 0.0000
# 6 0.0000 0.0000 0.0000 0.0000 0.0000 8.9628
#
#
#
# Elastic Compliance Matrix: (Units=1/GPa)
#
#
# Indices 1 2 3 4 5 6 
#
# 1 0.013548 -0.002451 -0.003102 0.000000 0.000000 0.000000
# 2 -0.002451 0.007117 -0.000304 0.000000 0.000000 0.000000
# 3 -0.003102 -0.000304 0.010452 0.000000 0.000000 0.000000
# 4 0.000000 0.000000 0.000000 0.034633 0.000000 0.000000
# 5 0.000000 0.000000 0.000000 0.000000 0.067465 0.000000
# 6 0.000000 0.000000 0.000000 0.000000 0.000000 0.111573
#
#
# Mechanical properties :
#
#
# Convention : Reuss Voigt Hill
#
# Bulk Modulus (GPa) = 51.53682 53.45678 52.49680
# Shear Modulus (GPa) = 19.01370 28.57129 23.79250
#
# Velocity S-wave (km/s) = 3.13011 3.83699 3.50143
# Velocity P-wave (km/s) = 6.29443 6.86846 6.58770
#
# Compressibility (1/GPa) = 0.01940360
#
# Stress axis : x y z
#
# Youngs Moduli (GPa) = 73.81370 140.50791 95.67380
#
# Poissons Ratio (x) = 0.34432 0.29681
# Poissons Ratio (y) = 0.18088 0.02906
# Poissons Ratio (z) = 0.22899 0.04268
#
# Static dielectric constant tensor:
#      x y z
#    x 3.071980 0.000000 0.000000 
#    y 0.000000 3.611310 0.000000 
#    z 0.000000 0.000000 3.538740 
# 
# 
# High freq. dielectric constant tensor:
#      x y z
#    x 1.713120 0.000000 0.000000 
#    y 0.000000 1.766120 0.000000 
#    z 0.000000 0.000000 1.765250 
# 
# From -- ./inp_files/10011.got.cif
#   From: 2010.03.12/outbox.cif.g09.slc.cpg/sg42_6_cif.got.tgz:10011.got - 2010.04.14 02:04:31.
