data_PCOD8186552
_publ_section_title
;
Structure prediction by ZEFSAII (Michael W. Deem and Ramdas Pophale) SiO2 
 PCOD8186552
Probable space group: F M M 2
;
_chemical_formula_sum "Si O2"
_cell_formula_units_Z 112
_cell_length_a 28.667634
_cell_length_b 11.721905
_cell_length_c 17.138279
_cell_angle_alpha 90.000000
_cell_angle_beta 90.000000
_cell_angle_gamma 90.000000
_cell_volume 5759.134975
_symmetry_space_group_name_H-M "F M M 2"
_symmetry_group_IT_number 42
_symmetry_cell_setting 'orthorhombic'
loop_
_space_group_symop_operation_xyz
x,y,z
-x,-y,z
-x,y,z
x,-y,z
x,1/2+y,1/2+z
-x,1/2-y,1/2+z
-x,1/2+y,1/2+z
x,1/2-y,1/2+z
1/2+x,y,1/2+z
1/2-x,-y,1/2+z
1/2-x,y,1/2+z
1/2+x,-y,1/2+z
1/2+x,1/2+y,z
1/2-x,1/2-y,z
1/2-x,1/2+y,z
1/2+x,1/2-y,z
loop_
_atom_site_type_symbol
_atom_site_label
_atom_site_fract_x
_atom_site_fract_y
_atom_site_fract_z
Si Si1 0.872920 0.627648 0.927240
Si Si2 0.721441 0.631455 0.145731
Si Si3 0.948919 0.128709 0.147943
Si Si4 0.945389 0.274840 0.809506
Si Si5 0.364090 0.751109 0.087810
Si Si6 0.631061 0.629494 0.745911
Si Si7 0.202399 0.299293 0.815443
O O1 0.887142 0.500000 0.950731
O O2 0.918091 0.683425 0.886093
O O3 0.826337 0.621694 0.874520
O O4 0.857822 0.696469 0.003323
O O5 0.740271 0.500000 0.123849
O O6 0.750000 0.750000 0.123547
O O7 0.672399 0.647928 0.101555
O O8 0.714834 0.628247 0.238641
O O9 0.937526 0.132408 0.240686
O O10 0.915502 0.200206 0.093087
O O11 0.000000 0.181590 0.134419
O O12 0.946453 0.000000 0.119603
O O13 0.921319 0.160777 0.774493
O O14 0.000000 0.253946 0.829163
O O15 0.359057 0.846669 0.154797
O O16 0.639993 0.500000 0.763522
O O17 0.668965 0.694045 0.796919
O O18 0.250000 0.250000 0.853677
#
# Coordination Sequence:
#
# PCOD8186552 Si02
#       7
#    16  16  16  16  16  16  16
#     4  11  22  35  53  79 112 147 180 220 277 340
#     4  10  21  38  62  87 110 144 191 239 283 330
#     4   9  17  33  58  80  99 132 178 225 269 317
#     4   9  19  35  55  80 106 136 182 231 276 330
#     4  10  21  34  51  79 114 145 177 220 273 333
#     4   9  18  34  55  78 105 141 186 231 275 326
#     4   9  20  36  57  82 108 141 182 230 277 328
#
# _framework density 19.447364
#
# number of rings (size 3 to 8) (size 9 to 14) (size 15 to 20)
#    0.000    2.429    0.000    2.571    0.000    8.571 
#    0.000    5.714    0.000    2.571    0.000    0.000 
#    0.000    0.000    0.000    0.000    0.000    0.000 
#
# Total GULP energy -346926.666357 kJ/mol
# GULP energy per Si atom -12390.238084 kJ/mol
# Density = 1.940310 g / cm^3
# Si number density = 19.447364 Si / 1000 Ang^3
#
#
#
# Elastic Constant Matrix: (Units=GPa)
#
#
# Indices 1 2 3 4 5 6 
#
# 1 105.9528 25.0336 20.7010 0.0000 0.0000 0.0000
# 2 25.0336 112.5486 15.6338 0.0000 0.0000 0.0000
# 3 20.7010 15.6338 66.6823 0.0000 0.0000 0.0000
# 4 0.0000 0.0000 0.0000 11.2876 0.0000 0.0000
# 5 0.0000 0.0000 0.0000 0.0000 17.2858 0.0000
# 6 0.0000 0.0000 0.0000 0.0000 0.0000 20.1357
#
#
#
# Elastic Compliance Matrix: (Units=1/GPa)
#
#
# Indices 1 2 3 4 5 6 
#
# 1 0.010440 -0.001935 -0.002787 0.000000 0.000000 0.000000
# 2 -0.001935 0.009543 -0.001637 0.000000 0.000000 0.000000
# 3 -0.002787 -0.001637 0.016246 0.000000 0.000000 0.000000
# 4 0.000000 0.000000 0.000000 0.088593 0.000000 0.000000
# 5 0.000000 0.000000 0.000000 0.000000 0.057851 0.000000
# 6 0.000000 0.000000 0.000000 0.000000 0.000000 0.049663
#
#
# Mechanical properties :
#
#
# Convention : Reuss Voigt Hill
#
# Bulk Modulus (GPa) = 42.53440 45.32451 43.92945
# Shear Modulus (GPa) = 19.77148 24.66283 22.21716
#
# Velocity S-wave (km/s) = 3.19198 3.56502 3.38364
# Velocity P-wave (km/s) = 5.95852 6.34844 6.15657
#
# Compressibility (1/GPa) = 0.02351038
#
# Stress axis : x y z
#
# Youngs Moduli (GPa) = 95.78618 104.79141 61.55542
#
# Poissons Ratio (x) = 0.20276 0.17158
# Poissons Ratio (y) = 0.18534 0.10074
# Poissons Ratio (z) = 0.26699 0.17151
#
# Static dielectric constant tensor:
#      x y z
#    x 3.823600 0.000000 0.000000 
#    y 0.000000 3.442250 0.000000 
#    z 0.000000 0.000000 3.286130 
# 
# 
# High freq. dielectric constant tensor:
#      x y z
#    x 1.768200 0.000000 0.000000 
#    y 0.000000 1.747880 0.000000 
#    z 0.000000 0.000000 1.729900 
# 
# From -- ./inp_files/13248.got.cif
#   From: 2010.03.12/outbox.cif.g09.slc.cpg/sg42_7_cif.got.tgz:13248.got - 2010.04.14 02:04:31.
