data_PCOD8186389
_publ_section_title
;
Structure prediction by ZEFSAII (Michael W. Deem and Ramdas Pophale) SiO2 
 PCOD8186389
Probable space group: F M M 2
;
_chemical_formula_sum "Si O2"
_cell_formula_units_Z 80
_cell_length_a 17.652623
_cell_length_b 15.071906
_cell_length_c 15.509909
_cell_angle_alpha 90.000000
_cell_angle_beta 90.000000
_cell_angle_gamma 90.000000
_cell_volume 4126.545830
_symmetry_space_group_name_H-M "F M M 2"
_symmetry_group_IT_number 42
_symmetry_cell_setting 'orthorhombic'
loop_
_space_group_symop_operation_xyz
x,y,z
-x,-y,z
-x,y,z
x,-y,z
x,1/2+y,1/2+z
-x,1/2-y,1/2+z
-x,1/2+y,1/2+z
x,1/2-y,1/2+z
1/2+x,y,1/2+z
1/2-x,-y,1/2+z
1/2-x,y,1/2+z
1/2+x,-y,1/2+z
1/2+x,1/2+y,z
1/2-x,1/2-y,z
1/2-x,1/2+y,z
1/2+x,1/2-y,z
loop_
_atom_site_type_symbol
_atom_site_label
_atom_site_fract_x
_atom_site_fract_y
_atom_site_fract_z
Si Si1 0.241556 0.646510 0.082660
Si Si2 0.185995 0.096837 0.258666
Si Si3 0.585649 0.267318 0.794312
Si Si4 0.292201 0.341427 0.903573
Si Si5 0.916268 0.398899 0.135452
O O1 0.250000 0.750000 0.100197
O O2 0.275604 0.597645 0.165054
O O3 0.152236 0.621846 0.069356
O O4 0.286988 0.611957 0.997526
O O5 0.125778 0.174771 0.271053
O O6 0.252862 0.102112 0.328851
O O7 0.146726 0.000000 0.269171
O O8 0.500000 0.245386 0.818894
O O9 0.622124 0.317727 0.876257
O O10 0.593332 0.332824 0.714660
O O11 0.250000 0.250000 0.917500
O O12 0.910221 0.500000 0.168739
O O13 0.000000 0.383850 0.092519
#
# Coordination Sequence:
#
# PCOD8186389 Si02
#       5
#    16  16  16  16  16
#     4  11  19  36  59  85 123 157 197 248 299 353
#     4  11  21  36  58  86 121 159 200 244 298 358
#     4  10  20  39  60  84 120 156 198 247 293 350
#     4   9  20  36  57  84 115 156 203 241 290 349
#     4  10  20  35  59  88 115 149 194 247 303 349
#
# _framework density 19.386675
#
# number of rings (size 3 to 8) (size 9 to 14) (size 15 to 20)
#    0.000    1.800    4.000    1.200    0.000    2.000 
#    0.000   10.000    0.000    0.000    0.000    0.000 
#    0.000    0.000    0.000    0.000    0.000    0.000 
#
# Total GULP energy -247857.335409 kJ/mol
# GULP energy per Si atom -12392.866770 kJ/mol
# Density = 1.934255 g / cm^3
# Si number density = 19.386675 Si / 1000 Ang^3
#
#
#
# Elastic Constant Matrix: (Units=GPa)
#
#
# Indices 1 2 3 4 5 6 
#
# 1 156.7320 47.7736 51.0189 0.0000 0.0000 0.0000
# 2 47.7736 122.6257 27.1194 0.0000 0.0000 0.0000
# 3 51.0189 27.1194 130.3088 0.0000 0.0000 0.0000
# 4 0.0000 0.0000 0.0000 -4.6755 0.0000 0.0000
# 5 0.0000 0.0000 0.0000 0.0000 24.4442 0.0000
# 6 0.0000 0.0000 0.0000 0.0000 0.0000 23.1184
#
#
#
# Elastic Compliance Matrix: (Units=1/GPa)
#
#
# Indices 1 2 3 4 5 6 
#
# 1 0.008003 -0.002542 -0.002604 0.000000 0.000000 0.000000
# 2 -0.002542 0.009356 -0.000952 0.000000 0.000000 0.000000
# 3 -0.002604 -0.000952 0.008892 0.000000 0.000000 0.000000
# 4 0.000000 0.000000 0.000000 -0.213880 0.000000 0.000000
# 5 0.000000 0.000000 0.000000 0.000000 0.040909 0.000000
# 6 0.000000 0.000000 0.000000 0.000000 0.000000 0.043256
#
#
# Mechanical properties :
#
#
# Convention : Reuss Voigt Hill
#
# Bulk Modulus (GPa) = 71.15266 73.49893 72.32580
# Shear Modulus (GPa) = -57.74750 27.49440 -15.12655
#
# Velocity S-wave (km/s) = -5.46369 3.77000 -2.79634
# Velocity P-wave (km/s) = 1.73810 7.54619 5.19249
#
# Compressibility (1/GPa) = 0.01405429
#
# Stress axis : x y z
#
# Youngs Moduli (GPa) = 124.95557 106.88685 112.46283
#
# Poissons Ratio (x) = 0.27169 0.29289
# Poissons Ratio (y) = 0.31762 0.10705
# Poissons Ratio (z) = 0.32542 0.10174
#
# Static dielectric constant tensor:
#      x y z
#    x 3.745800 0.000000 0.000000 
#    y 0.000000 3.574980 0.000000 
#    z 0.000000 0.000000 3.846500 
# 
# 
# High freq. dielectric constant tensor:
#      x y z
#    x 1.744040 0.000000 0.000000 
#    y 0.000000 1.760970 0.000000 
#    z 0.000000 0.000000 1.742250 
# 
# From -- ./inp_files/13820.got.cif
#   From: 2010.03.12/outbox.cif.g09.slc.cpg/sg42_7_cif.got.tgz:13820.got - 2010.04.14 02:04:31.
