data_PCOD8186070
_publ_section_title
;
Structure prediction by ZEFSAII (Michael W. Deem and Ramdas Pophale) SiO2 
 PCOD8186070
Probable space group: F M M 2
;
_chemical_formula_sum "Si O2"
_cell_formula_units_Z 104
_cell_length_a 19.078122
_cell_length_b 13.518276
_cell_length_c 22.590993
_cell_angle_alpha 90.000000
_cell_angle_beta 90.000000
_cell_angle_gamma 90.000000
_cell_volume 5826.292069
_symmetry_space_group_name_H-M "F M M 2"
_symmetry_group_IT_number 42
_symmetry_cell_setting 'orthorhombic'
loop_
_space_group_symop_operation_xyz
x,y,z
-x,-y,z
-x,y,z
x,-y,z
x,1/2+y,1/2+z
-x,1/2-y,1/2+z
-x,1/2+y,1/2+z
x,1/2-y,1/2+z
1/2+x,y,1/2+z
1/2-x,-y,1/2+z
1/2-x,y,1/2+z
1/2+x,-y,1/2+z
1/2+x,1/2+y,z
1/2-x,1/2-y,z
1/2-x,1/2+y,z
1/2+x,1/2-y,z
loop_
_atom_site_type_symbol
_atom_site_label
_atom_site_fract_x
_atom_site_fract_y
_atom_site_fract_z
Si Si1 0.078700 0.882818 0.309740
Si Si2 0.653658 0.386098 0.425905
Si Si3 0.314039 0.115293 0.597905
Si Si4 0.925940 0.386626 0.038480
Si Si5 0.250000 0.250000 0.500932
Si Si6 0.916288 0.711404 0.686214
Si Si7 0.834941 0.386675 0.144449
O O1 0.130671 0.845570 0.361536
O O2 0.103998 0.840562 0.247366
O O3 0.000000 0.846214 0.323827
O O4 0.080813 0.000000 0.305848
O O5 0.678079 0.500000 0.422173
O O6 0.586963 0.374157 0.469015
O O7 0.714528 0.323704 0.454843
O O8 0.303490 0.183620 0.540049
O O9 0.384481 0.146790 0.632280
O O10 0.248305 0.131744 0.642897
O O11 0.318442 0.000000 0.578908
O O12 0.934555 0.500000 0.055158
O O13 0.861540 0.349884 0.079087
O O14 0.000000 0.332603 0.054245
O O15 0.877631 0.818243 0.690151
O O16 0.000000 0.721693 0.677540
O O17 0.852310 0.500000 0.160097
#
# Coordination Sequence:
#
# PCOD8186070 Si02
#       7
#    16  16  16  16   8  16  16
#     4   9  19  36  56  77 102 136 180 229 274 316
#     4  10  19  33  52  75 105 138 176 225 272 313
#     4  11  21  36  56  79 115 150 178 218 269 328
#     4   9  15  25  47  77 103 129 166 211 263 315
#     4  12  20  34  52  82 108 144 176 220 270 332
#     4  11  21  35  56  82 111 144 185 226 270 325
#     4  10  19  33  53  80 114 147 178 221 276 325
#
# _framework density 17.850117999999998
#
# number of rings (size 3 to 8) (size 9 to 14) (size 15 to 20)
#    0.000    1.846    3.077    1.846    0.000    3.692 
#    2.769    0.769    0.000    0.923    0.000    0.000 
#    0.000    0.000    0.000    0.000    0.000    0.000 
#
# Total GULP energy -322162.013123 kJ/mol
# GULP energy per Si atom -12390.846659 kJ/mol
# Density = 1.780949 g / cm^3
# Si number density = 17.850118 Si / 1000 Ang^3
#
#
#
# Elastic Constant Matrix: (Units=GPa)
#
#
# Indices 1 2 3 4 5 6 
#
# 1 78.3297 20.4869 30.0090 0.0000 0.0000 0.0000
# 2 20.4869 70.9577 29.2353 0.0000 0.0000 0.0000
# 3 30.0090 29.2353 103.1872 0.0000 0.0000 0.0000
# 4 0.0000 0.0000 0.0000 29.3232 0.0000 0.0000
# 5 0.0000 0.0000 0.0000 0.0000 -19.4974 0.0000
# 6 0.0000 0.0000 0.0000 0.0000 0.0000 22.9779
#
#
#
# Elastic Compliance Matrix: (Units=1/GPa)
#
#
# Indices 1 2 3 4 5 6 
#
# 1 0.014856 -0.002841 -0.003516 0.000000 0.000000 0.000000
# 2 -0.002841 0.016499 -0.003848 0.000000 0.000000 0.000000
# 3 -0.003516 -0.003848 0.011804 0.000000 0.000000 0.000000
# 4 0.000000 0.000000 0.000000 0.034103 0.000000 0.000000
# 5 0.000000 0.000000 0.000000 0.000000 -0.051289 0.000000
# 6 0.000000 0.000000 0.000000 0.000000 0.000000 0.043520
#
#
# Mechanical properties :
#
#
# Convention : Reuss Voigt Hill
#
# Bulk Modulus (GPa) = 43.95729 45.77077 44.86403
# Shear Modulus (GPa) = 51.28961 18.07697 34.68329
#
# Velocity S-wave (km/s) = 5.36618 3.18576 4.41276
# Velocity P-wave (km/s) = 7.94190 6.26334 7.15203
#
# Compressibility (1/GPa) = 0.02274936
#
# Stress axis : x y z
#
# Youngs Moduli (GPa) = 67.31081 60.61106 84.71810
#
# Poissons Ratio (x) = 0.17219 0.29784
# Poissons Ratio (y) = 0.19122 0.32602
# Poissons Ratio (z) = 0.23664 0.23325
#
# Static dielectric constant tensor:
#      x y z
#    x 3.675000 0.000000 0.000000 
#    y 0.000000 3.379210 0.000000 
#    z 0.000000 0.000000 3.251800 
# 
# 
# High freq. dielectric constant tensor:
#      x y z
#    x 1.689870 0.000000 0.000000 
#    y 0.000000 1.687190 0.000000 
#    z 0.000000 0.000000 1.671750 
# 
# From -- ./inp_files/26509.got.cif
#   From: 2010.03.12/outbox.cif.g09.slc.cpg/sg42_14_cif.got.tgz:26509.got - 2010.04.14 02:04:31.
