data_PCOD8186270
_publ_section_title
;
Structure prediction by ZEFSAII (Michael W. Deem and Ramdas Pophale) SiO2 
 PCOD8186270
Probable space group: F M M 2
;
_chemical_formula_sum "Si O2"
_cell_formula_units_Z 112
_cell_length_a 18.281438
_cell_length_b 23.200818
_cell_length_c 13.924872
_cell_angle_alpha 90.000000
_cell_angle_beta 90.000000
_cell_angle_gamma 90.000000
_cell_volume 5906.155307
_symmetry_space_group_name_H-M "F M M 2"
_symmetry_group_IT_number 42
_symmetry_cell_setting 'orthorhombic'
loop_
_space_group_symop_operation_xyz
x,y,z
-x,-y,z
-x,y,z
x,-y,z
x,1/2+y,1/2+z
-x,1/2-y,1/2+z
-x,1/2+y,1/2+z
x,1/2-y,1/2+z
1/2+x,y,1/2+z
1/2-x,-y,1/2+z
1/2-x,y,1/2+z
1/2+x,-y,1/2+z
1/2+x,1/2+y,z
1/2-x,1/2-y,z
1/2-x,1/2+y,z
1/2+x,1/2-y,z
loop_
_atom_site_type_symbol
_atom_site_label
_atom_site_fract_x
_atom_site_fract_y
_atom_site_fract_z
Si Si1 0.085679 0.157135 0.458460
Si Si2 0.414609 0.770735 0.358632
Si Si3 0.584563 0.841801 0.179338
Si Si4 0.413329 0.616547 0.961348
Si Si5 0.915672 0.566781 0.657661
Si Si6 0.670472 0.432449 0.345511
Si Si7 0.333655 0.934726 0.294621
O O1 0.116897 0.209010 0.391347
O O2 0.098835 0.174810 0.569264
O O3 0.134271 0.101224 0.434686
O O4 0.000000 0.143694 0.440124
O O5 0.500000 0.767274 0.378179
O O6 0.397262 0.786296 0.247196
O O7 0.382919 0.821425 0.426796
O O8 0.500000 0.859983 0.196322
O O9 0.635951 0.895206 0.208582
O O10 0.500000 0.613275 0.960038
O O11 0.385466 0.568314 0.887420
O O12 0.384441 0.603201 0.068027
O O13 0.902989 0.500000 0.634167
O O14 0.872541 0.586707 0.750704
O O15 0.000000 0.580703 0.677152
O O16 0.662084 0.500000 0.367764
O O17 0.753815 0.414080 0.328959
O O18 0.330773 0.000000 0.255540
#
# Coordination Sequence:
#
# PCOD8186270 Si02
#       7
#    16  16  16  16  16  16  16
#     4  10  20  35  57  80 103 137 176 216 264 312
#     4   8  16  32  53  78 106 132 165 213 262 309
#     4   9  19  35  55  81 108 134 173 219 259 309
#     4   9  17  31  53  78 100 126 167 216 259 301
#     4   9  17  30  49  72  97 128 169 214 256 301
#     4  10  22  36  49  71 105 142 176 211 255 310
#     4  10  20  34  52  74 105 142 173 208 257 308
#
# _framework density 18.963267999999999
#
# number of rings (size 3 to 8) (size 9 to 14) (size 15 to 20)
#    0.000    2.714    0.000    2.143    0.000    5.429 
#    0.000   11.429    0.000    3.429    0.000    0.000 
#    0.000    0.000    0.000    0.000    0.000    0.000 
#
# Total GULP energy -347129.038535 kJ/mol
# GULP energy per Si atom -12397.465662 kJ/mol
# Density = 1.892011 g / cm^3
# Si number density = 18.963268 Si / 1000 Ang^3
#
#
#
# Elastic Constant Matrix: (Units=GPa)
#
#
# Indices 1 2 3 4 5 6 
#
# 1 46.8559 37.2656 31.2593 0.0000 0.0000 0.0000
# 2 37.2656 88.8175 50.5095 0.0000 0.0000 0.0000
# 3 31.2593 50.5095 120.0260 0.0000 0.0000 0.0000
# 4 0.0000 0.0000 0.0000 27.7512 0.0000 0.0000
# 5 0.0000 0.0000 0.0000 0.0000 15.1746 0.0000
# 6 0.0000 0.0000 0.0000 0.0000 0.0000 18.4754
#
#
#
# Elastic Compliance Matrix: (Units=1/GPa)
#
#
# Indices 1 2 3 4 5 6 
#
# 1 0.033211 -0.011852 -0.003662 0.000000 0.000000 0.000000
# 2 -0.011852 0.019031 -0.004922 0.000000 0.000000 0.000000
# 3 -0.003662 -0.004922 0.011356 0.000000 0.000000 0.000000
# 4 0.000000 0.000000 0.000000 0.036035 0.000000 0.000000
# 5 0.000000 0.000000 0.000000 0.000000 0.065900 0.000000
# 6 0.000000 0.000000 0.000000 0.000000 0.000000 0.054126
#
#
# Mechanical properties :
#
#
# Convention : Reuss Voigt Hill
#
# Bulk Modulus (GPa) = 44.00073 54.86313 49.43193
# Shear Modulus (GPa) = 18.64933 21.39124 20.02028
#
# Velocity S-wave (km/s) = 3.13939 3.36227 3.25274
# Velocity P-wave (km/s) = 6.03279 6.63831 6.34278
#
# Compressibility (1/GPa) = 0.02272690
#
# Stress axis : x y z
#
# Youngs Moduli (GPa) = 30.11026 52.54607 88.05593
#
# Poissons Ratio (x) = 0.62279 0.32244
# Poissons Ratio (y) = 0.35687 0.43340
# Poissons Ratio (z) = 0.11026 0.25862
#
# Static dielectric constant tensor:
#      x y z
#    x 3.297810 0.000000 0.000000 
#    y 0.000000 3.488830 0.000000 
#    z 0.000000 0.000000 3.522320 
# 
# 
# High freq. dielectric constant tensor:
#      x y z
#    x 1.715120 0.000000 0.000000 
#    y 0.000000 1.728470 0.000000 
#    z 0.000000 0.000000 1.738680 
# 
# From -- ./inp_files/14243.got.cif
#   From: 2010.03.12/outbox.cif.g09.slc.cpg/sg42_8_cif.got.tgz:14243.got - 2010.04.14 02:04:31.
