data_PCOD8186432
_publ_section_title
;
Structure prediction by ZEFSAII (Michael W. Deem and Ramdas Pophale) SiO2 
 PCOD8186432
Probable space group: F M M 2
;
_chemical_formula_sum "Si O2"
_cell_formula_units_Z 80
_cell_length_a 29.573528
_cell_length_b 9.279369
_cell_length_c 14.498675
_cell_angle_alpha 90.000000
_cell_angle_beta 90.000000
_cell_angle_gamma 90.000000
_cell_volume 3978.779733
_symmetry_space_group_name_H-M "F M M 2"
_symmetry_group_IT_number 42
_symmetry_cell_setting 'orthorhombic'
loop_
_space_group_symop_operation_xyz
x,y,z
-x,-y,z
-x,y,z
x,-y,z
x,1/2+y,1/2+z
-x,1/2-y,1/2+z
-x,1/2+y,1/2+z
x,1/2-y,1/2+z
1/2+x,y,1/2+z
1/2-x,-y,1/2+z
1/2-x,y,1/2+z
1/2+x,-y,1/2+z
1/2+x,1/2+y,z
1/2-x,1/2-y,z
1/2-x,1/2+y,z
1/2+x,1/2-y,z
loop_
_atom_site_type_symbol
_atom_site_label
_atom_site_fract_x
_atom_site_fract_y
_atom_site_fract_z
Si Si1 0.049050 0.661628 0.002040
Si Si2 0.867061 0.663840 0.494313
Si Si3 0.449949 0.162054 0.782845
Si Si4 0.296970 0.830618 0.649839
Si Si5 0.863556 0.669912 0.282027
O O1 0.055451 0.500000 0.038345
O O2 0.090735 0.753342 0.040938
O O3 0.000000 0.721813 0.035753
O O4 0.049949 0.666173 0.892378
O O5 0.882293 0.500000 0.497703
O O6 0.822457 0.694030 0.553287
O O7 0.857110 0.709407 0.389483
O O8 0.500000 0.207129 0.746542
O O9 0.412373 0.273679 0.745535
O O10 0.437986 0.000000 0.749158
O O11 0.250000 0.750000 0.639754
O O12 0.324144 0.757166 0.732434
O O13 0.290128 0.000000 0.671050
O O14 0.859536 0.500000 0.262292
#
# Coordination Sequence:
#
# PCOD8186432 Si02
#       5
#    16  16  16  16  16
#     4   8  14  26  48  79 112 145 181 219 261 312
#     4   9  20  37  57  82 112 144 180 222 269 322
#     4   8  14  27  49  78 112 149 185 220 263 316
#     4  11  24  42  60  80 107 140 180 227 279 331
#     4  10  20  36  58  85 114 144 181 225 272 322
#
# _framework density 20.106667999999999
#
# number of rings (size 3 to 8) (size 9 to 14) (size 15 to 20)
#    0.000    2.800    0.000    2.400    0.000    4.000 
#    0.000    7.000    0.000    1.200    0.000    0.000 
#    0.000    0.000    0.000    0.000    0.000    0.000 
#
# Total GULP energy -247918.902488 kJ/mol
# GULP energy per Si atom -12395.945124 kJ/mol
# Density = 2.006090 g / cm^3
# Si number density = 20.106668 Si / 1000 Ang^3
#
#
#
# Elastic Constant Matrix: (Units=GPa)
#
#
# Indices 1 2 3 4 5 6 
#
# 1 181.0313 98.1024 46.2647 0.0000 0.0000 0.0000
# 2 98.1024 126.8444 46.4850 0.0000 0.0000 0.0000
# 3 46.2647 46.4850 58.2626 0.0000 0.0000 0.0000
# 4 0.0000 0.0000 0.0000 22.4194 0.0000 0.0000
# 5 0.0000 0.0000 0.0000 0.0000 390.9857 0.0000
# 6 0.0000 0.0000 0.0000 0.0000 0.0000 -4.9135
#
#
#
# Elastic Compliance Matrix: (Units=1/GPa)
#
#
# Indices 1 2 3 4 5 6 
#
# 1 0.009749 -0.006646 -0.002439 0.000000 0.000000 0.000000
# 2 -0.006646 0.015672 -0.007227 0.000000 0.000000 0.000000
# 3 -0.002439 -0.007227 0.024866 0.000000 0.000000 0.000000
# 4 0.000000 0.000000 0.000000 0.044604 0.000000 0.000000
# 5 0.000000 0.000000 0.000000 0.000000 0.002558 0.000000
# 6 0.000000 0.000000 0.000000 0.000000 0.000000 -0.203521
#
#
# Mechanical properties :
#
#
# Convention : Reuss Voigt Hill
#
# Bulk Modulus (GPa) = 56.61179 83.09363 69.85271
# Shear Modulus (GPa) = -74.00569 93.38407 9.68919
#
# Velocity S-wave (km/s) = -6.07342 6.82240 2.19758
# Velocity P-wave (km/s) = 4.57876 10.17233 6.42305
#
# Compressibility (1/GPa) = 0.01766416
#
# Stress axis : x y z
#
# Youngs Moduli (GPa) = 102.57848 63.80767 40.21578
#
# Poissons Ratio (x) = 0.42407 0.09807
# Poissons Ratio (y) = 0.68174 0.29062
# Poissons Ratio (z) = 0.25015 0.46112
#
# Static dielectric constant tensor:
#      x y z
#    x 3.581880 0.000000 0.000000 
#    y 0.000000 3.766920 0.000000 
#    z 0.000000 0.000000 3.522490 
# 
# 
# High freq. dielectric constant tensor:
#      x y z
#    x 1.788490 0.000000 0.000000 
#    y 0.000000 1.784920 0.000000 
#    z 0.000000 0.000000 1.770140 
# 
# From -- ./inp_files/18200.got.cif
#   From: 2010.03.12/outbox.cif.g09.slc.cpg/sg42_10_cif.got.tgz:18200.got - 2010.04.14 02:04:31.
