data_PCOD8186865
_publ_section_title
;
Structure prediction by ZEFSAII (Michael W. Deem and Ramdas Pophale) SiO2 
 PCOD8186865
Probable space group: F M M 2
;
_chemical_formula_sum "Si O2"
_cell_formula_units_Z 64
_cell_length_a 17.916667
_cell_length_b 7.693197
_cell_length_c 23.965179
_cell_angle_alpha 90.000000
_cell_angle_beta 90.000000
_cell_angle_gamma 90.000000
_cell_volume 3303.275169
_symmetry_space_group_name_H-M "F M M 2"
_symmetry_group_IT_number 42
_symmetry_cell_setting 'orthorhombic'
loop_
_space_group_symop_operation_xyz
x,y,z
-x,-y,z
-x,y,z
x,-y,z
x,1/2+y,1/2+z
-x,1/2-y,1/2+z
-x,1/2+y,1/2+z
x,1/2-y,1/2+z
1/2+x,y,1/2+z
1/2-x,-y,1/2+z
1/2-x,y,1/2+z
1/2+x,-y,1/2+z
1/2+x,1/2+y,z
1/2-x,1/2-y,z
1/2-x,1/2+y,z
1/2+x,1/2-y,z
loop_
_atom_site_type_symbol
_atom_site_label
_atom_site_fract_x
_atom_site_fract_y
_atom_site_fract_z
Si Si1 0.588420 0.500000 0.521500
Si Si2 0.664842 0.695478 0.087466
Si Si3 0.911117 0.191948 0.819144
Si Si4 0.584649 0.704065 0.694296
Si Si5 0.089030 0.500000 0.895197
O O1 0.500000 0.500000 0.523616
O O2 0.615750 0.325011 0.550721
O O3 0.618760 0.500000 0.458183
O O4 0.655379 0.500000 0.064007
O O5 0.750000 0.750000 0.084252
O O6 0.638251 0.697631 0.151509
O O7 0.885994 0.245169 0.756675
O O8 0.879399 0.329559 0.863644
O O9 0.000000 0.187395 0.819903
O O10 0.880193 0.000000 0.834613
O O11 0.500000 0.771742 0.686566
O O12 0.587954 0.500000 0.681830
O O13 0.000000 0.500000 0.893425
#
# Coordination Sequence:
#
# PCOD8186865 Si02
#       5
#     8  16  16  16   8
#     4  11  24  42  61  90 125 153 201 258 289 346
#     4  12  24  40  61  86 117 165 201 243 304 360
#     4   8  15  28  49  81 117 150 184 233 294 344
#     4   9  17  32  56  88 125 152 186 243 293 350
#     4   9  18  32  53  80 114 151 189 238 290 340
#
# _framework density 19.374711000000001
#
# number of rings (size 3 to 8) (size 9 to 14) (size 15 to 20)
#    0.000    2.250    2.500    2.250    1.750    3.000 
#    0.000    2.500    0.000    1.500    0.000    0.000 
#    0.000    0.000    0.000    0.000    0.000    0.000 
#
# Total GULP energy -198378.246825 kJ/mol
# GULP energy per Si atom -12398.640427 kJ/mol
# Density = 1.933061 g / cm^3
# Si number density = 19.374711 Si / 1000 Ang^3
#
#
#
# Elastic Constant Matrix: (Units=GPa)
#
#
# Indices 1 2 3 4 5 6 
#
# 1 54.7175 31.1987 31.9981 -0.0002 0.0000 -0.0003
# 2 31.1987 157.4661 83.2431 -0.0003 0.0000 -0.0006
# 3 31.9981 83.2431 144.3470 0.0000 0.0000 0.0000
# 4 -0.0002 -0.0003 0.0000 -7.3038 0.0000 0.0002
# 5 0.0000 0.0000 0.0000 0.0000 1.2993 0.0000
# 6 -0.0003 -0.0006 0.0000 0.0002 0.0000 20.4526
#
#
#
# Elastic Compliance Matrix: (Units=1/GPa)
#
#
# Indices 1 2 3 4 5 6 
#
# 1 0.021673 -0.002524 -0.003349 0.000000 0.000000 0.000000
# 2 -0.002524 0.009430 -0.004878 0.000000 0.000000 0.000000
# 3 -0.003349 -0.004878 0.010483 0.000000 0.000000 0.000000
# 4 0.000000 0.000000 0.000000 -0.136915 0.000000 0.000001
# 5 0.000000 0.000000 0.000000 0.000000 0.769668 0.000000
# 6 0.000000 0.000000 0.000000 0.000001 0.000000 0.048893
#
#
# Mechanical properties :
#
#
# Convention : Reuss Voigt Hill
#
# Bulk Modulus (GPa) = 49.79127 72.15671 60.97399
# Shear Modulus (GPa) = 6.65399 16.89568 11.77483
#
# Velocity S-wave (km/s) = 1.85521 2.95625 2.46792
# Velocity P-wave (km/s) = 5.50854 6.99829 6.29762
#
# Compressibility (1/GPa) = 0.02008384
#
# Stress axis : x y z
#
# Youngs Moduli (GPa) = 46.14023 106.04972 95.38807
#
# Poissons Ratio (x) = 0.26763 0.31946
# Poissons Ratio (y) = 0.11644 0.46535
# Poissons Ratio (z) = 0.15452 0.51736
#
# Static dielectric constant tensor:
#      x y z
#    x 3.132760 0.000000 0.000000 
#    y 0.000000 4.044510 0.000000 
#    z 0.000000 0.000000 3.712730 
# 
# 
# High freq. dielectric constant tensor:
#      x y z
#    x 1.708930 0.000000 0.000000 
#    y 0.000000 1.765380 0.000000 
#    z 0.000000 0.000000 1.753970 
# 
# From -- ./inp_files/23181.got.cif
#   From: 2010.03.12/outbox.cif.g09.slc.cpg/sg42_12_cif.got.tgz:23181.got - 2010.04.14 02:04:31.
