data_PCOD8186976
_publ_section_title
;
Structure prediction by ZEFSAII (Michael W. Deem and Ramdas Pophale) SiO2 
 PCOD8186976
Probable space group: F D D 2
;
_chemical_formula_sum "Si O2"
_cell_formula_units_Z 96
_cell_length_a 28.610444
_cell_length_b 8.976132
_cell_length_c 17.103866
_cell_angle_alpha 90.000000
_cell_angle_beta 90.000000
_cell_angle_gamma 90.000000
_cell_volume 4392.463017
_symmetry_space_group_name_H-M "F D D 2"
_symmetry_group_IT_number 43
_symmetry_cell_setting 'orthorhombic'
loop_
_space_group_symop_operation_xyz
x,y,z
-x,-y,z
1/4-x,1/4+y,1/4+z
1/4+x,1/4-y,1/4+z
x,1/2+y,1/2+z
-x,1/2-y,1/2+z
1/4-x,3/4+y,3/4+z
1/4+x,3/4-y,3/4+z
1/2+x,y,1/2+z
1/2-x,-y,1/2+z
3/4-x,1/4+y,3/4+z
3/4+x,1/4-y,3/4+z
1/2+x,1/2+y,z
1/2-x,1/2-y,z
3/4-x,3/4+y,1/4+z
3/4+x,3/4-y,1/4+z
loop_
_atom_site_type_symbol
_atom_site_label
_atom_site_fract_x
_atom_site_fract_y
_atom_site_fract_z
Si Si1 0.168569 0.584328 0.960270
Si Si2 0.907521 0.239642 0.780857
Si Si3 0.343657 0.524722 0.302415
Si Si4 0.995530 0.328076 0.492976
Si Si5 0.919975 0.852545 0.121670
Si Si6 0.744100 0.575563 0.589540
O O1 0.165025 0.452640 0.895351
O O2 0.180078 0.738970 0.914294
O O3 0.119926 0.588620 0.009513
O O4 0.210551 0.541868 0.017098
O O5 0.880073 0.390913 0.796126
O O6 0.913760 0.223931 0.687069
O O7 0.876688 0.106850 0.817922
O O8 0.957001 0.243629 0.823758
O O9 0.296036 0.493272 0.257381
O O10 0.963935 0.306574 0.569363
O O11 0.972827 0.243613 0.418969
O O12 0.000000 0.500000 0.471294
O O13 0.750000 0.750000 0.601356
#
# Coordination Sequence:
#
# PCOD8186976 Si02
#       6
#    16  16  16  16  16  16
#     4  10  20  36  62  90 115 160 213 250 300 366
#     4  10  19  33  62  88 115 151 210 256 292 354
#     4  10  19  33  62  88 115 151 210 256 292 354
#     4  12  23  37  61  93 125 159 209 257 310 365
#     4  10  20  36  62  90 115 160 213 250 300 366
#     4  12  23  37  61  93 125 159 209 257 310 365
#
# _framework density 21.855619000000001
#
# number of rings (size 3 to 8) (size 9 to 14) (size 15 to 20)
#    0.000    1.333    6.667    4.000    0.000    0.000 
#    0.000    1.667    0.000    2.000    0.000    0.000 
#    0.000    0.000    0.000    0.000    0.000    0.000 
#
# Total GULP energy -297536.836489 kJ/mol
# GULP energy per Si atom -12397.368187 kJ/mol
# Density = 2.180587 g / cm^3
# Si number density = 21.855619 Si / 1000 Ang^3
#
#
#
# Elastic Constant Matrix: (Units=GPa)
#
#
# Indices 1 2 3 4 5 6 
#
# 1 126.1729 10.0868 45.5503 0.0000 0.0000 0.0000
# 2 10.0868 20.0187 27.9813 0.0000 0.0000 0.0000
# 3 45.5503 27.9813 179.7156 0.0000 0.0000 0.0000
# 4 0.0000 0.0000 0.0000 20.9932 0.0000 0.0000
# 5 0.0000 0.0000 0.0000 0.0000 14.2394 0.0000
# 6 0.0000 0.0000 0.0000 0.0000 0.0000 12.5375
#
#
#
# Elastic Compliance Matrix: (Units=1/GPa)
#
#
# Indices 1 2 3 4 5 6 
#
# 1 0.008768 -0.001676 -0.001961 0.000000 0.000000 0.000000
# 2 -0.001676 0.064169 -0.009566 0.000000 0.000000 0.000000
# 3 -0.001961 -0.009566 0.007551 0.000000 0.000000 0.000000
# 4 0.000000 0.000000 0.000000 0.047635 0.000000 0.000000
# 5 0.000000 0.000000 0.000000 0.000000 0.070227 0.000000
# 6 0.000000 0.000000 0.000000 0.000000 0.000000 0.079761
#
#
# Mechanical properties :
#
#
# Convention : Reuss Voigt Hill
#
# Bulk Modulus (GPa) = 18.49113 54.79378 36.64245
# Shear Modulus (GPa) = 15.50175 25.70661 20.60418
#
# Velocity S-wave (km/s) = 2.66612 3.43330 3.07374
# Velocity P-wave (km/s) = 4.23752 6.39077 5.42211
#
# Compressibility (1/GPa) = 0.05407998
#
# Stress axis : x y z
#
# Youngs Moduli (GPa) = 114.05514 15.58389 132.43562
#
# Poissons Ratio (x) = 0.02613 0.25974
# Poissons Ratio (y) = 0.19121 1.26688
# Poissons Ratio (z) = 0.22369 0.14908
#
# Static dielectric constant tensor:
#      x y z
#    x 4.187360 0.000000 0.000000 
#    y 0.000000 3.527670 0.000000 
#    z 0.000000 0.000000 5.167000 
# 
# 
# High freq. dielectric constant tensor:
#      x y z
#    x 1.869900 0.000000 0.000000 
#    y 0.000000 1.783710 0.000000 
#    z 0.000000 0.000000 1.889610 
# 
# From -- ./inp_files/13401.got.cif
#   From: 2010.06.25/outbox.cif.g09.slc.cpg/sg43_7_cif.got.tgz:13401.got - 2010.06.26 16:48:59.
