data_PCOD8186814
_publ_section_title
;
Structure prediction by ZEFSAII (Michael W. Deem and Ramdas Pophale) SiO2 
 PCOD8186814
Probable space group: F M M 2
;
_chemical_formula_sum "Si O2"
_cell_formula_units_Z 72
_cell_length_a 18.360904
_cell_length_b 14.724106
_cell_length_c 13.488973
_cell_angle_alpha 90.000000
_cell_angle_beta 90.000000
_cell_angle_gamma 90.000000
_cell_volume 3646.715480
_symmetry_space_group_name_H-M "F M M 2"
_symmetry_group_IT_number 42
_symmetry_cell_setting 'orthorhombic'
loop_
_space_group_symop_operation_xyz
x,y,z
-x,-y,z
-x,y,z
x,-y,z
x,1/2+y,1/2+z
-x,1/2-y,1/2+z
-x,1/2+y,1/2+z
x,1/2-y,1/2+z
1/2+x,y,1/2+z
1/2-x,-y,1/2+z
1/2-x,y,1/2+z
1/2+x,-y,1/2+z
1/2+x,1/2+y,z
1/2-x,1/2-y,z
1/2-x,1/2+y,z
1/2+x,1/2-y,z
loop_
_atom_site_type_symbol
_atom_site_label
_atom_site_fract_x
_atom_site_fract_y
_atom_site_fract_z
Si Si1 0.916881 0.169329 0.948620
Si Si2 0.676179 0.197413 0.837415
Si Si3 0.204014 0.500000 0.912535
Si Si4 0.711494 0.500000 0.636327
Si Si5 0.863703 0.500000 0.340843
Si Si6 0.305043 0.175682 0.619781
O O1 0.891274 0.262452 0.898126
O O2 0.909526 0.088704 0.869039
O O3 0.000000 0.179594 0.982275
O O4 0.869425 0.149323 0.046074
O O5 0.750000 0.250000 0.870136
O O6 0.676395 0.090166 0.858561
O O7 0.661655 0.215859 0.721239
O O8 0.291220 0.500000 0.907935
O O9 0.176542 0.500000 0.026525
O O10 0.650637 0.500000 0.722601
O O11 0.760399 0.587798 0.651629
O O12 0.250000 0.250000 0.571249
#
# Coordination Sequence:
#
# PCOD8186814 Si02
#       6
#    16  16   8   8   8  16
#     4  12  25  40  59  89 132 165 195 250 319 376
#     4  11  21  39  62  92 121 159 208 260 302 356
#     4  12  20  37  66  94 121 146 206 267 298 350
#     4  12  20  34  64  95 116 149 196 262 307 346
#     4  12  21  39  62  93 120 151 206 253 312 352
#     4  11  21  36  63  90 117 157 212 255 296 354
#
# _framework density 19.743794999999999
#
# number of rings (size 3 to 8) (size 9 to 14) (size 15 to 20)
#    0.000    0.444    6.667    3.667    0.000    0.889 
#    0.000    0.556    0.000    4.000    0.000    0.000 
#    0.000    0.000    0.000    0.000    0.000    0.000 
#
# Total GULP energy -223246.061652 kJ/mol
# GULP energy per Si atom -12402.558981 kJ/mol
# Density = 1.969886 g / cm^3
# Si number density = 19.743795 Si / 1000 Ang^3
#
#
#
# Elastic Constant Matrix: (Units=GPa)
#
#
# Indices 1 2 3 4 5 6 
#
# 1 91.3693 35.4824 38.6712 0.0000 0.0000 0.0000
# 2 35.4824 134.9649 17.6175 0.0000 0.0000 0.0000
# 3 38.6712 17.6175 127.2456 0.0000 0.0000 0.0000
# 4 0.0000 0.0000 0.0000 31.8441 0.0000 0.0000
# 5 0.0000 0.0000 0.0000 0.0000 17.8668 0.0000
# 6 0.0000 0.0000 0.0000 0.0000 0.0000 21.2787
#
#
#
# Elastic Compliance Matrix: (Units=1/GPa)
#
#
# Indices 1 2 3 4 5 6 
#
# 1 0.013742 -0.003124 -0.003744 0.000000 0.000000 0.000000
# 2 -0.003124 0.008256 -0.000194 0.000000 0.000000 0.000000
# 3 -0.003744 -0.000194 0.009023 0.000000 0.000000 0.000000
# 4 0.000000 0.000000 0.000000 0.031403 0.000000 0.000000
# 5 0.000000 0.000000 0.000000 0.000000 0.055970 0.000000
# 6 0.000000 0.000000 0.000000 0.000000 0.000000 0.046995
#
#
# Mechanical properties :
#
#
# Convention : Reuss Voigt Hill
#
# Bulk Modulus (GPa) = 59.17705 59.68022 59.42864
# Shear Modulus (GPa) = 27.00570 31.65184 29.32877
#
# Velocity S-wave (km/s) = 3.70240 4.00825 3.85836
# Velocity P-wave (km/s) = 6.95087 7.19127 7.07209
#
# Compressibility (1/GPa) = 0.01689844
#
# Stress axis : x y z
#
# Youngs Moduli (GPa) = 72.76743 121.12463 110.82264
#
# Poissons Ratio (x) = 0.37842 0.41491
# Poissons Ratio (y) = 0.22734 0.02145
# Poissons Ratio (z) = 0.27243 0.02345
#
# Static dielectric constant tensor:
#      x y z
#    x 3.201900 0.000000 0.000000 
#    y 0.000000 3.912250 0.000000 
#    z 0.000000 0.000000 3.750780 
# 
# 
# High freq. dielectric constant tensor:
#      x y z
#    x 1.717570 0.000000 0.000000 
#    y 0.000000 1.789310 0.000000 
#    z 0.000000 0.000000 1.789030 
# 
# From -- ./inp_files/13697.got.cif
#   From: 2010.03.12/outbox.cif.g09.slc.cpg/sg42_7_cif.got.tgz:13697.got - 2010.04.14 02:04:31.
