data_PCOD8186805
_publ_section_title
;
Structure prediction by ZEFSAII (Michael W. Deem and Ramdas Pophale) SiO2 
 PCOD8186805
Probable space group: F M M 2
;
_chemical_formula_sum "Si O2"
_cell_formula_units_Z 96
_cell_length_a 25.399359
_cell_length_b 8.612196
_cell_length_c 25.619906
_cell_angle_alpha 90.000000
_cell_angle_beta 90.000000
_cell_angle_gamma 90.000000
_cell_volume 5604.207328
_symmetry_space_group_name_H-M "F M M 2"
_symmetry_group_IT_number 42
_symmetry_cell_setting 'orthorhombic'
loop_
_space_group_symop_operation_xyz
x,y,z
-x,-y,z
-x,y,z
x,-y,z
x,1/2+y,1/2+z
-x,1/2-y,1/2+z
-x,1/2+y,1/2+z
x,1/2-y,1/2+z
1/2+x,y,1/2+z
1/2-x,-y,1/2+z
1/2-x,y,1/2+z
1/2+x,-y,1/2+z
1/2+x,1/2+y,z
1/2-x,1/2-y,z
1/2-x,1/2+y,z
1/2+x,1/2-y,z
loop_
_atom_site_type_symbol
_atom_site_label
_atom_site_fract_x
_atom_site_fract_y
_atom_site_fract_z
Si Si1 0.807422 0.818651 0.175490
Si Si2 0.808991 0.183459 0.894700
Si Si3 0.500000 0.671389 0.972191
Si Si4 0.000000 0.669286 0.595666
Si Si5 0.692529 0.681843 0.289754
Si Si6 0.612131 0.813159 0.590040
Si Si7 0.390104 0.816505 0.976440
O O1 0.750000 0.750000 0.168108
O O2 0.833404 0.785541 0.232822
O O3 0.845337 0.749056 0.131048
O O4 0.801387 0.000000 0.167085
O O5 0.750000 0.250000 0.898918
O O6 0.834808 0.230104 0.838371
O O7 0.844439 0.257858 0.938955
O O8 0.807859 0.000000 0.901312
O O9 0.500000 0.500000 0.946155
O O10 0.446961 0.760698 0.955025
O O11 0.500000 0.653110 0.033658
O O12 0.055034 0.753013 0.610379
O O13 0.000000 0.500000 0.622320
O O14 0.694486 0.500000 0.302823
O O15 0.750000 0.750000 0.283978
O O16 0.624963 0.748301 0.533201
O O17 0.610120 0.000000 0.586958
O O18 0.390471 0.000000 0.978474
#
# Coordination Sequence:
#
# PCOD8186805 Si02
#       7
#    16  16   8   8  16  16  16
#     4   9  18  30  47  69  96 126 158 195 239 288
#     4  11  21  34  51  72  97 129 164 203 248 296
#     4   9  17  33  53  72  95 128 165 202 240 286
#     4   7  12  25  47  66  85 116 157 194 226 266
#     4   9  16  29  47  68  92 122 160 201 238 282
#     4   9  17  31  48  69  95 127 162 197 237 286
#     4  11  21  33  50  75 102 130 163 203 244 289
#
# _framework density 17.129987
#
# number of rings (size 3 to 8) (size 9 to 14) (size 15 to 20)
#    0.000    2.500    0.000    5.750    0.000    2.000 
#    0.000    1.667    0.000    1.000    0.000    3.500 
#    0.000    0.000    0.000    0.000    0.000    0.000 
#
# Total GULP energy -297333.334408 kJ/mol
# GULP energy per Si atom -12388.888934 kJ/mol
# Density = 1.709100 g / cm^3
# Si number density = 17.129987 Si / 1000 Ang^3
#
#
#
# Elastic Constant Matrix: (Units=GPa)
#
#
# Indices 1 2 3 4 5 6 
#
# 1 102.9460 24.2713 66.8070 0.0000 0.0000 -0.0003
# 2 24.2713 67.4901 28.2924 0.0000 -0.0001 -0.0003
# 3 66.8070 28.2924 114.6591 0.0000 0.0000 0.0000
# 4 0.0000 0.0000 0.0000 23.8695 0.0000 0.0000
# 5 0.0000 -0.0001 0.0000 0.0000 0.7282 0.0001
# 6 -0.0003 -0.0003 0.0000 0.0000 0.0001 22.7865
#
#
#
# Elastic Compliance Matrix: (Units=1/GPa)
#
#
# Indices 1 2 3 4 5 6 
#
# 1 0.015868 -0.002042 -0.008742 0.000000 0.000001 0.000000
# 2 -0.002042 0.016789 -0.002953 0.000000 0.000001 0.000000
# 3 -0.008742 -0.002953 0.014544 0.000000 -0.000001 0.000000
# 4 0.000000 0.000000 0.000000 0.041894 0.000000 0.000000
# 5 0.000001 0.000001 -0.000001 0.000000 1.373301 -0.000003
# 6 0.000000 0.000000 0.000000 0.000000 -0.000003 0.043886
#
#
# Mechanical properties :
#
#
# Convention : Reuss Voigt Hill
#
# Bulk Modulus (GPa) = 50.69079 58.20407 54.44743
# Shear Modulus (GPa) = 3.24605 20.52515 11.88560
#
# Velocity S-wave (km/s) = 1.37807 3.46526 2.63696
# Velocity P-wave (km/s) = 5.67346 7.07547 6.41290
#
# Compressibility (1/GPa) = 0.01972745
#
# Stress axis : x y z
#
# Youngs Moduli (GPa) = 63.01837 59.56188 68.75811
#
# Poissons Ratio (x) = 0.12162 0.60108
# Poissons Ratio (y) = 0.12868 0.20304
# Poissons Ratio (z) = 0.55090 0.17589
#
# Static dielectric constant tensor:
#      x y z
#    x 3.365930 0.000000 0.000000 
#    y 0.000000 3.234790 0.000000 
#    z 0.000000 0.000000 3.570410 
# 
# 
# High freq. dielectric constant tensor:
#      x y z
#    x 1.645670 0.000000 0.000000 
#    y 0.000000 1.662320 0.000000 
#    z 0.000000 0.000000 1.652460 
# 
# From -- ./inp_files/30632.got.cif
#   From: 2010.03.12/outbox.cif.g09.slc.cpg/sg42_16_cif.got.tgz:30632.got - 2010.04.14 02:04:31.
