data_PCOD8186927
_publ_section_title
;
Structure prediction by ZEFSAII (Michael W. Deem and Ramdas Pophale) SiO2 
 PCOD8186927
Probable space group: F D D 2
;
_chemical_formula_sum "Si O2"
_cell_formula_units_Z 112
_cell_length_a 12.654006
_cell_length_b 13.265823
_cell_length_c 32.871426
_cell_angle_alpha 90.000000
_cell_angle_beta 90.000000
_cell_angle_gamma 90.000000
_cell_volume 5517.988349
_symmetry_space_group_name_H-M "F D D 2"
_symmetry_group_IT_number 43
_symmetry_cell_setting 'orthorhombic'
loop_
_space_group_symop_operation_xyz
x,y,z
-x,-y,z
1/4-x,1/4+y,1/4+z
1/4+x,1/4-y,1/4+z
x,1/2+y,1/2+z
-x,1/2-y,1/2+z
1/4-x,3/4+y,3/4+z
1/4+x,3/4-y,3/4+z
1/2+x,y,1/2+z
1/2-x,-y,1/2+z
3/4-x,1/4+y,3/4+z
3/4+x,1/4-y,3/4+z
1/2+x,1/2+y,z
1/2-x,1/2-y,z
3/4-x,3/4+y,1/4+z
3/4+x,3/4-y,1/4+z
loop_
_atom_site_type_symbol
_atom_site_label
_atom_site_fract_x
_atom_site_fract_y
_atom_site_fract_z
Si Si1 0.912594 0.720632 0.517150
Si Si2 0.057322 0.662402 0.707217
Si Si3 0.569044 0.097287 0.966941
Si Si4 0.955536 0.687691 0.891890
Si Si5 0.500000 0.000000 0.186672
Si Si6 0.500000 0.000000 0.835253
Si Si7 0.592914 0.610909 0.977535
Si Si8 0.784481 0.855479 0.144566
O O1 0.829366 0.689704 0.481812
O O2 0.937165 0.838162 0.508444
O O3 0.851985 0.711859 0.559915
O O4 0.023015 0.656212 0.515131
O O5 0.123780 0.745096 0.733944
O O6 0.093356 0.653746 0.659425
O O7 0.935520 0.691343 0.706209
O O8 0.528280 0.167291 0.930707
O O9 0.500000 0.000000 0.974128
O O10 0.834857 0.698481 0.906578
O O11 0.961599 0.594442 0.861500
O O12 0.001732 0.791889 0.870466
O O13 0.449636 0.078332 0.218354
O O14 0.524759 0.618330 0.937110
O O15 0.750000 0.750000 0.122125
#
# Coordination Sequence:
#
# PCOD8186927 Si02
#       8
#    16  16  16  16   8   8  16  16
#     4  11  21  41  60  87 128 177 222 262 337 411
#     4  10  18  33  65  91 120 162 218 287 315 371
#     4  12  21  35  61  98 126 163 235 271 324 399
#     4  11  22  37  62  97 141 171 217 278 354 410
#     4  10  18  38  62  99 128 160 222 292 321 388
#     4  12  26  42  60  97 148 178 210 288 371 410
#     4   9  18  31  64  93 117 155 217 280 323 375
#     4   8  16  33  58  91 120 162 219 269 321 388
#
# _framework density 20.297252
#
# number of rings (size 3 to 8) (size 9 to 14) (size 15 to 20)
#    0.000    1.714    6.429    2.143    0.000    0.000 
#    1.286    0.000    6.286    0.000    0.000    0.000 
#    0.000    0.000    0.000    0.000    0.000    0.000 
#
# Total GULP energy -346919.402632 kJ/mol
# GULP energy per Si atom -12389.978665 kJ/mol
# Density = 2.025105 g / cm^3
# Si number density = 20.297252 Si / 1000 Ang^3
#
#
#
# Elastic Constant Matrix: (Units=GPa)
#
#
# Indices 1 2 3 4 5 6 
#
# 1 138.5146 48.4413 25.8594 0.0000 0.0000 0.0000
# 2 48.4413 138.6497 23.7019 0.0000 0.0000 0.0000
# 3 25.8594 23.7019 47.5726 0.0000 0.0000 0.0000
# 4 0.0000 0.0000 0.0000 20.3042 0.0000 0.0000
# 5 0.0000 0.0000 0.0000 0.0000 22.6841 0.0000
# 6 0.0000 0.0000 0.0000 0.0000 0.0000 40.6304
#
#
#
# Elastic Compliance Matrix: (Units=1/GPa)
#
#
# Indices 1 2 3 4 5 6 
#
# 1 0.008734 -0.002449 -0.003528 0.000000 0.000000 0.000000
# 2 -0.002449 0.008570 -0.002939 0.000000 0.000000 0.000000
# 3 -0.003528 -0.002939 0.024402 0.000000 0.000000 0.000000
# 4 0.000000 0.000000 0.000000 0.049251 0.000000 0.000000
# 5 0.000000 0.000000 0.000000 0.000000 0.044084 0.000000
# 6 0.000000 0.000000 0.000000 0.000000 0.000000 0.024612
#
#
# Mechanical properties :
#
#
# Convention : Reuss Voigt Hill
#
# Bulk Modulus (GPa) = 41.88243 57.86023 49.87133
# Shear Modulus (GPa) = 26.96240 31.83937 29.40089
#
# Velocity S-wave (km/s) = 3.64864 3.96492 3.81007
# Velocity P-wave (km/s) = 6.19915 7.03769 6.63169
#
# Compressibility (1/GPa) = 0.02387636
#
# Stress axis : x y z
#
# Youngs Moduli (GPa) = 114.49020 116.68209 40.97943
#
# Poissons Ratio (x) = 0.28570 0.14457
# Poissons Ratio (y) = 0.28033 0.12044
# Poissons Ratio (z) = 0.40391 0.34293
#
# Static dielectric constant tensor:
#      x y z
#    x 4.163310 0.000000 0.000000 
#    y 0.000000 4.486110 0.000000 
#    z 0.000000 0.000000 3.077730 
# 
# 
# High freq. dielectric constant tensor:
#      x y z
#    x 1.807720 0.000000 0.000000 
#    y 0.000000 1.822040 0.000000 
#    z 0.000000 0.000000 1.713630 
# 
# From -- ./inp_files/28675.got.cif
#   From: 2010.06.25/outbox.cif.g09.slc.cpg/sg43_15_cif.got.tgz:28675.got - 2010.06.26 16:48:59.
