data_PCOD8186892
_publ_section_title
;
Structure prediction by ZEFSAII (Michael W. Deem and Ramdas Pophale) SiO2 
 PCOD8186892
Probable space group: F M M 2
;
_chemical_formula_sum "Si O2"
_cell_formula_units_Z 112
_cell_length_a 9.584836
_cell_length_b 28.660680
_cell_length_c 25.761401
_cell_angle_alpha 90.000000
_cell_angle_beta 90.000000
_cell_angle_gamma 90.000000
_cell_volume 7076.860819
_symmetry_space_group_name_H-M "F M M 2"
_symmetry_group_IT_number 42
_symmetry_cell_setting 'orthorhombic'
loop_
_space_group_symop_operation_xyz
x,y,z
-x,-y,z
-x,y,z
x,-y,z
x,1/2+y,1/2+z
-x,1/2-y,1/2+z
-x,1/2+y,1/2+z
x,1/2-y,1/2+z
1/2+x,y,1/2+z
1/2-x,-y,1/2+z
1/2-x,y,1/2+z
1/2+x,-y,1/2+z
1/2+x,1/2+y,z
1/2-x,1/2-y,z
1/2-x,1/2+y,z
1/2+x,1/2-y,z
loop_
_atom_site_type_symbol
_atom_site_label
_atom_site_fract_x
_atom_site_fract_y
_atom_site_fract_z
Si Si1 0.337989 0.446008 0.911180
Si Si2 0.837989 0.053992 0.311046
Si Si3 0.165321 0.392764 0.512199
Si Si4 0.338834 0.206031 0.671538
Si Si5 0.165321 0.607236 0.710027
Si Si6 0.666745 0.552627 0.111113
Si Si7 0.161166 0.293969 0.550688
O O1 0.500000 0.436078 0.899579
O O2 0.314367 0.500000 0.926002
O O3 0.250000 0.431506 0.861113
O O4 0.280308 0.414441 0.958341
O O5 0.780308 0.085559 0.263886
O O6 0.000000 0.063922 0.322648
O O7 0.814367 0.000000 0.296224
O O8 0.227963 0.421946 0.560221
O O9 0.210276 0.338728 0.517401
O O10 0.000000 0.397077 0.514538
O O11 0.500000 0.217702 0.681490
O O12 0.250000 0.250000 0.690852
O O13 0.289724 0.161272 0.704825
O O14 0.311891 0.194931 0.611113
O O15 0.227963 0.578054 0.662006
O O16 0.000000 0.602923 0.707688
O O17 0.500000 0.554385 0.111113
O O18 0.722204 0.500000 0.111113
O O19 0.250000 0.250000 0.531374
O O20 0.000000 0.282298 0.540737
#
# Coordination Sequence:
#
# PCOD8186892 Si02
#       7
#    16  16  16  16  16  16  16
#     4   9  17  29  45  65  88 115 147 179 211 251
#     4   9  17  29  45  65  88 115 147 179 211 251
#     4   9  15  25  41  63  89 114 140 175 217 256
#     4   9  16  27  43  63  88 114 141 174 213 257
#     4   9  15  25  41  63  89 114 140 175 217 256
#     4   9  14  20  35  62  91 113 135 169 214 259
#     4   9  16  27  43  63  88 114 141 174 213 257
#
# _framework density 15.826226
#
# number of rings (size 3 to 8) (size 9 to 14) (size 15 to 20)
#    0.000    3.000    1.429    0.857    0.000    3.429 
#    0.000    1.429    0.000    0.857    0.000    6.000 
#    0.000    6.857    0.000    0.000    0.000    0.000 
#
# Total GULP energy -347137.874888 kJ/mol
# GULP energy per Si atom -12397.781246 kJ/mol
# Density = 1.579021 g / cm^3
# Si number density = 15.826226 Si / 1000 Ang^3
#
#
#
# Elastic Constant Matrix: (Units=GPa)
#
#
# Indices 1 2 3 4 5 6 
#
# 1 32.0763 39.5379 36.6237 0.0000 0.0000 0.0000
# 2 39.5379 138.3126 85.3149 0.0000 0.0000 0.0000
# 3 36.6237 85.3149 130.5016 0.0000 0.0000 0.0000
# 4 0.0000 0.0000 0.0000 25.9275 0.0000 0.0000
# 5 0.0000 0.0000 0.0000 0.0000 18.8568 0.0000
# 6 0.0000 0.0000 0.0000 0.0000 0.0000 20.3432
#
#
#
# Elastic Compliance Matrix: (Units=1/GPa)
#
#
# Indices 1 2 3 4 5 6 
#
# 1 0.053046 -0.010023 -0.008334 0.000000 0.000000 0.000000
# 2 -0.010023 0.014009 -0.006346 0.000000 0.000000 0.000000
# 3 -0.008334 -0.006346 0.014150 0.000000 0.000000 0.000000
# 4 0.000000 0.000000 0.000000 0.038569 0.000000 0.000000
# 5 0.000000 0.000000 0.000000 0.000000 0.053031 0.000000
# 6 0.000000 0.000000 0.000000 0.000000 0.000000 0.049156
#
#
# Mechanical properties :
#
#
# Convention : Reuss Voigt Hill
#
# Bulk Modulus (GPa) = 31.44699 69.31595 50.38147
# Shear Modulus (GPa) = 17.73253 22.31976 20.02614
#
# Velocity S-wave (km/s) = 3.35095 3.75947 3.56107
# Velocity P-wave (km/s) = 5.90636 7.92074 6.98653
#
# Compressibility (1/GPa) = 0.03179955
#
# Stress axis : x y z
#
# Youngs Moduli (GPa) = 18.85167 71.38078 70.67042
#
# Poissons Ratio (x) = 0.71544 0.58898
# Poissons Ratio (y) = 0.18895 0.44846
# Poissons Ratio (z) = 0.15711 0.45297
#
# Static dielectric constant tensor:
#      x y z
#    x 2.619720 0.000000 0.000000 
#    y 0.000000 3.120690 0.000000 
#    z 0.000000 0.000000 3.034940 
# 
# 
# High freq. dielectric constant tensor:
#      x y z
#    x 1.561380 0.000000 0.000000 
#    y 0.000000 1.612540 0.000000 
#    z 0.000000 0.000000 1.596470 
# 
# From -- ./inp_files/24562.got.cif
#   From: 2010.03.12/outbox.cif.g09.slc.cpg/sg42_13_cif.got.tgz:24562.got - 2010.04.14 02:04:31.
