data_PCOD8186748
_publ_section_title
;
Structure prediction by ZEFSAII (Michael W. Deem and Ramdas Pophale) SiO2 
 PCOD8186748
Probable space group: F M M 2
;
_chemical_formula_sum "Si O2"
_cell_formula_units_Z 80
_cell_length_a 18.223423
_cell_length_b 8.974278
_cell_length_c 25.037514
_cell_angle_alpha 90.000000
_cell_angle_beta 90.000000
_cell_angle_gamma 90.000000
_cell_volume 4094.686720
_symmetry_space_group_name_H-M "F M M 2"
_symmetry_group_IT_number 42
_symmetry_cell_setting 'orthorhombic'
loop_
_space_group_symop_operation_xyz
x,y,z
-x,-y,z
-x,y,z
x,-y,z
x,1/2+y,1/2+z
-x,1/2-y,1/2+z
-x,1/2+y,1/2+z
x,1/2-y,1/2+z
1/2+x,y,1/2+z
1/2-x,-y,1/2+z
1/2-x,y,1/2+z
1/2+x,-y,1/2+z
1/2+x,1/2+y,z
1/2-x,1/2-y,z
1/2-x,1/2+y,z
1/2+x,1/2-y,z
loop_
_atom_site_type_symbol
_atom_site_label
_atom_site_fract_x
_atom_site_fract_y
_atom_site_fract_z
Si Si1 0.415751 0.171688 0.922000
Si Si2 0.673240 0.826182 0.634587
Si Si3 0.583460 0.327860 0.545468
Si Si4 0.671943 0.675600 0.832082
Si Si5 0.585654 0.171400 0.739782
O O1 0.500000 0.213856 0.909531
O O2 0.361895 0.275518 0.888492
O O3 0.401899 0.000000 0.906477
O O4 0.397506 0.199302 0.983739
O O5 0.750000 0.750000 0.646606
O O6 0.638751 0.770391 0.579499
O O7 0.619303 0.785510 0.682834
O O8 0.687002 0.000000 0.629190
O O9 0.500000 0.278278 0.557114
O O10 0.594172 0.500000 0.560513
O O11 0.682335 0.500000 0.831836
O O12 0.750000 0.750000 0.822390
O O13 0.617956 0.722718 0.784881
O O14 0.500000 0.202434 0.735849
O O15 0.602618 0.000000 0.754629
#
# Coordination Sequence:
#
# PCOD8186748 Si02
#       5
#    16  16  16  16  16
#     4   9  19  38  62  86 115 151 189 232 284 339
#     4  11  23  38  58  85 117 153 191 233 283 336
#     4   9  19  37  61  87 115 150 191 234 282 336
#     4  12  25  39  58  85 116 151 191 235 284 336
#     4  10  22  41  63  86 114 148 186 231 285 342
#
# _framework density 19.537514000000002
#
# number of rings (size 3 to 8) (size 9 to 14) (size 15 to 20)
#    0.000    1.800    0.000    5.400    0.000    9.200 
#    0.000    2.000    0.000    0.000    0.000    0.000 
#    0.000    0.000    0.000    0.000    0.000    0.000 
#
# Total GULP energy -248109.156446 kJ/mol
# GULP energy per Si atom -12405.457822 kJ/mol
# Density = 1.949305 g / cm^3
# Si number density = 19.537514 Si / 1000 Ang^3
#
#
#
# Elastic Constant Matrix: (Units=GPa)
#
#
# Indices 1 2 3 4 5 6 
#
# 1 125.7312 64.2598 58.5348 0.0000 0.0000 0.0000
# 2 64.2598 114.7671 59.0308 0.0000 0.0000 0.0000
# 3 58.5348 59.0308 101.7651 0.0000 0.0000 0.0000
# 4 0.0000 0.0000 0.0000 34.6105 0.0000 0.0000
# 5 0.0000 0.0000 0.0000 0.0000 7.0495 0.0000
# 6 0.0000 0.0000 0.0000 0.0000 0.0000 32.8715
#
#
#
# Elastic Compliance Matrix: (Units=1/GPa)
#
#
# Indices 1 2 3 4 5 6 
#
# 1 0.012398 -0.004666 -0.004425 0.000000 0.000000 0.000000
# 2 -0.004666 0.014175 -0.005538 0.000000 0.000000 0.000000
# 3 -0.004425 -0.005538 0.015584 0.000000 0.000000 0.000000
# 4 0.000000 0.000000 0.000000 0.028893 0.000000 0.000000
# 5 0.000000 0.000000 0.000000 0.000000 0.141853 0.000000
# 6 0.000000 0.000000 0.000000 0.000000 0.000000 0.030422
#
#
# Mechanical properties :
#
#
# Convention : Reuss Voigt Hill
#
# Bulk Modulus (GPa) = 77.52691 78.43490 77.98091
# Shear Modulus (GPa) = 18.05820 25.60216 21.83018
#
# Velocity S-wave (km/s) = 3.04350 3.62389 3.34630
# Velocity P-wave (km/s) = 7.21926 7.59888 7.41150
#
# Compressibility (1/GPa) = 0.01289875
#
# Stress axis : x y z
#
# Youngs Moduli (GPa) = 80.65674 70.54901 64.16733
#
# Poissons Ratio (x) = 0.32919 0.28393
# Poissons Ratio (y) = 0.37635 0.35538
# Poissons Ratio (z) = 0.35689 0.39072
#
# Static dielectric constant tensor:
#      x y z
#    x 3.615720 0.000000 0.000000 
#    y 0.000000 3.518010 0.000000 
#    z 0.000000 0.000000 3.607480 
# 
# 
# High freq. dielectric constant tensor:
#      x y z
#    x 1.769930 0.000000 0.000000 
#    y 0.000000 1.757400 0.000000 
#    z 0.000000 0.000000 1.773040 
# 
# From -- ./inp_files/31256.got.cif
#   From: 2010.03.12/outbox.cif.g09.slc.cpg/sg42_16_cif.got.tgz:31256.got - 2010.04.14 02:04:31.
