data_PCOD8186510
_publ_section_title
;
Structure prediction by ZEFSAII (Michael W. Deem and Ramdas Pophale) SiO2 
 PCOD8186510
Probable space group: F M M 2
;
_chemical_formula_sum "Si O2"
_cell_formula_units_Z 96
_cell_length_a 23.105883
_cell_length_b 13.081911
_cell_length_c 15.282079
_cell_angle_alpha 90.000000
_cell_angle_beta 90.000000
_cell_angle_gamma 90.000000
_cell_volume 4619.300342
_symmetry_space_group_name_H-M "F M M 2"
_symmetry_group_IT_number 42
_symmetry_cell_setting 'orthorhombic'
loop_
_space_group_symop_operation_xyz
x,y,z
-x,-y,z
-x,y,z
x,-y,z
x,1/2+y,1/2+z
-x,1/2-y,1/2+z
-x,1/2+y,1/2+z
x,1/2-y,1/2+z
1/2+x,y,1/2+z
1/2-x,-y,1/2+z
1/2-x,y,1/2+z
1/2+x,-y,1/2+z
1/2+x,1/2+y,z
1/2-x,1/2-y,z
1/2-x,1/2+y,z
1/2+x,1/2-y,z
loop_
_atom_site_type_symbol
_atom_site_label
_atom_site_fract_x
_atom_site_fract_y
_atom_site_fract_z
Si Si1 0.262312 0.619783 0.745750
Si Si2 0.000000 0.615009 0.216474
Si Si3 0.114286 0.121963 0.804065
Si Si4 0.780189 0.381180 0.931629
Si Si5 0.886415 0.750900 0.477850
Si Si6 0.000000 0.380392 0.011014
Si Si7 0.689445 0.379504 0.080836
O O1 0.259382 0.500000 0.738682
O O2 0.329539 0.654257 0.746733
O O3 0.232836 0.660690 0.834537
O O4 0.225470 0.664105 0.664204
O O5 0.058550 0.666264 0.252737
O O6 0.000000 0.500000 0.251994
O O7 0.000000 0.617930 0.113923
O O8 0.113271 0.171567 0.898787
O O9 0.114420 0.000000 0.817344
O O10 0.790361 0.500000 0.929279
O O11 0.838424 0.336762 0.969011
O O12 0.726211 0.354221 0.993557
O O13 0.870609 0.683596 0.565455
O O14 0.945365 0.814490 0.480506
O O15 0.000000 0.500000 0.976583
O O16 0.676145 0.500000 0.091105
#
# Coordination Sequence:
#
# PCOD8186510 Si02
#       7
#    16   8  16  16  16   8  16
#     4   9  19  36  60  90 129 168 198 255 326 377
#     4   9  21  40  60  83 115 165 217 262 316 370
#     4  10  20  38  63  91 126 164 211 269 316 369
#     4  10  21  39  58  86 127 165 204 252 312 379
#     4  12  23  39  62  91 123 166 214 259 314 379
#     4  11  27  46  61  87 123 165 218 268 321 382
#     4  10  21  38  61  93 130 162 201 257 318 375
#
# _framework density 20.782368000000002
#
# number of rings (size 3 to 8) (size 9 to 14) (size 15 to 20)
#    0.000    1.833    1.667    2.000    2.333    1.333 
#    3.000    1.250    0.000    0.000    0.000    3.500 
#    0.000    0.000    0.000    0.000    0.000    0.000 
#
# Total GULP energy -297421.997215 kJ/mol
# GULP energy per Si atom -12392.583217 kJ/mol
# Density = 2.073507 g / cm^3
# Si number density = 20.782368 Si / 1000 Ang^3
#
#
#
# Elastic Constant Matrix: (Units=GPa)
#
#
# Indices 1 2 3 4 5 6 
#
# 1 110.4529 71.1403 21.0046 0.0000 0.0000 0.0000
# 2 71.1403 81.3133 34.3631 0.0000 0.0000 0.0000
# 3 21.0046 34.3631 101.9078 0.0000 0.0000 0.0000
# 4 0.0000 0.0000 0.0000 -4.5845 0.0000 0.0000
# 5 0.0000 0.0000 0.0000 0.0000 23.6556 0.0000
# 6 0.0000 0.0000 0.0000 0.0000 0.0000 27.0090
#
#
#
# Elastic Compliance Matrix: (Units=1/GPa)
#
#
# Indices 1 2 3 4 5 6 
#
# 1 0.021153 -0.019434 0.002193 0.000000 0.000000 0.000000
# 2 -0.019434 0.032196 -0.006851 0.000000 0.000000 0.000000
# 3 0.002193 -0.006851 0.011671 0.000000 0.000000 0.000000
# 4 0.000000 0.000000 0.000000 -0.218127 0.000000 0.000000
# 5 0.000000 0.000000 0.000000 0.000000 0.042273 0.000000
# 6 0.000000 0.000000 0.000000 0.000000 0.000000 0.037025
#
#
# Mechanical properties :
#
#
# Convention : Reuss Voigt Hill
#
# Bulk Modulus (GPa) = 59.39308 60.74332 60.06820
# Shear Modulus (GPa) = -249.82724 20.36043 -114.73340
#
# Velocity S-wave (km/s) = -10.97598 3.13341 -7.43821
# Velocity P-wave (km/s) = 11.48864 6.51020 6.69351
#
# Compressibility (1/GPa) = 0.01683698
#
# Stress axis : x y z
#
# Youngs Moduli (GPa) = 47.27380 31.06022 85.68362
#
# Poissons Ratio (x) = 0.60361 -0.18790
# Poissons Ratio (y) = 0.91870 0.58700
# Poissons Ratio (z) = -0.10367 0.21279
#
# Static dielectric constant tensor:
#      x y z
#    x 20.733850 0.000000 0.000000 
#    y 0.000000 3.922250 0.000000 
#    z 0.000000 0.000000 3.939610 
# 
# 
# High freq. dielectric constant tensor:
#      x y z
#    x 1.806840 0.000000 0.000000 
#    y 0.000000 1.829000 0.000000 
#    z 0.000000 0.000000 1.810620 
# 
# From -- ./inp_files/14044.got.cif
#   From: 2010.03.12/outbox.cif.g09.slc.cpg/sg42_8_cif.got.tgz:14044.got - 2010.04.14 02:04:31.
