data_PCOD8186689
_publ_section_title
;
Structure prediction by ZEFSAII (Michael W. Deem and Ramdas Pophale) SiO2 
 PCOD8186689
Probable space group: F M M 2
;
_chemical_formula_sum "Si O2"
_cell_formula_units_Z 84
_cell_length_a 11.538590
_cell_length_b 22.933651
_cell_length_c 15.005572
_cell_angle_alpha 90.000000
_cell_angle_beta 90.000000
_cell_angle_gamma 90.000000
_cell_volume 3970.804415
_symmetry_space_group_name_H-M "F M M 2"
_symmetry_group_IT_number 42
_symmetry_cell_setting 'orthorhombic'
loop_
_space_group_symop_operation_xyz
x,y,z
-x,-y,z
-x,y,z
x,-y,z
x,1/2+y,1/2+z
-x,1/2-y,1/2+z
-x,1/2+y,1/2+z
x,1/2-y,1/2+z
1/2+x,y,1/2+z
1/2-x,-y,1/2+z
1/2-x,y,1/2+z
1/2+x,-y,1/2+z
1/2+x,1/2+y,z
1/2-x,1/2-y,z
1/2-x,1/2+y,z
1/2+x,1/2-y,z
loop_
_atom_site_type_symbol
_atom_site_label
_atom_site_fract_x
_atom_site_fract_y
_atom_site_fract_z
Si Si1 0.135637 0.619553 0.981720
Si Si2 0.500000 0.930068 0.583510
Si Si3 0.264163 0.610768 0.155967
Si Si4 0.762552 0.681606 0.333042
Si Si5 0.000000 0.000000 0.873221
Si Si6 0.703068 0.000000 0.240324
Si Si7 0.863841 0.000000 0.396638
Si Si8 0.000000 0.632038 0.415485
O O1 0.162169 0.663111 0.901116
O O2 0.181035 0.556057 0.951155
O O3 0.000000 0.621615 0.004371
O O4 0.209942 0.639629 0.067458
O O5 0.612076 0.919823 0.644007
O O6 0.500000 0.868744 0.522403
O O7 0.500000 0.000000 0.549481
O O8 0.264806 0.657271 0.235244
O O9 0.180309 0.557130 0.181618
O O10 0.750000 0.750000 0.324950
O O11 0.887875 0.660048 0.368736
O O12 0.000000 0.061089 0.923562
O O13 0.885064 0.000000 0.818740
O O14 0.825103 0.000000 0.293604
O O15 0.000000 0.000000 0.392878
#
# Coordination Sequence:
#
# PCOD8186689 Si02
#       8
#    16   8  16  16   4   8   8   8
#     4  11  25  45  71 102 140 182 230 287 361 427
#     4  12  26  41  74 111 145 175 227 296 365 427
#     4  12  26  44  69 106 141 181 232 289 359 429
#     4  12  29  49  71  98 140 195 244 292 343 417
#     4  12  22  38  76 104 140 180 226 294 372 420
#     4  12  23  36  69 104 141 176 224 280 369 436
#     4  10  21  40  67  99 139 181 222 281 355 433
#     4  12  24  49  73 105 144 187 239 299 354 417
#
# _framework density 21.154404
#
# number of rings (size 3 to 8) (size 9 to 14) (size 15 to 20)
#    0.000    0.381    7.143    0.571    6.667    0.762 
#    0.000    0.000    0.000    0.000    0.000    0.000 
#    0.000    0.000    0.000    0.000    0.000    0.000 
#
# Total GULP energy -260233.886058 kJ/mol
# GULP energy per Si atom -12392.089812 kJ/mol
# Density = 2.110626 g / cm^3
# Si number density = 21.154404 Si / 1000 Ang^3
#
#
#
# Elastic Constant Matrix: (Units=GPa)
#
#
# Indices 1 2 3 4 5 6 
#
# 1 82.9380 30.4713 24.5614 0.0000 0.0000 0.0000
# 2 30.4713 150.1167 54.2368 0.0000 0.0000 0.0000
# 3 24.5614 54.2368 129.5606 0.0000 0.0000 0.0000
# 4 0.0000 0.0000 0.0000 37.4141 0.0000 0.0000
# 5 0.0000 0.0000 0.0000 0.0000 17.9427 0.0000
# 6 0.0000 0.0000 0.0000 0.0000 0.0000 26.3287
#
#
#
# Elastic Compliance Matrix: (Units=1/GPa)
#
#
# Indices 1 2 3 4 5 6 
#
# 1 0.013319 -0.002110 -0.001641 0.000000 0.000000 0.000000
# 2 -0.002110 0.008183 -0.003025 0.000000 0.000000 0.000000
# 3 -0.001641 -0.003025 0.009296 0.000000 0.000000 0.000000
# 4 0.000000 0.000000 0.000000 0.026728 0.000000 0.000000
# 5 0.000000 0.000000 0.000000 0.000000 0.055733 0.000000
# 6 0.000000 0.000000 0.000000 0.000000 0.000000 0.037981
#
#
# Mechanical properties :
#
#
# Convention : Reuss Voigt Hill
#
# Bulk Modulus (GPa) = 57.99427 64.57268 61.28348
# Shear Modulus (GPa) = 29.31823 33.22681 31.27252
#
# Velocity S-wave (km/s) = 3.72683 3.96748 3.84904
# Velocity P-wave (km/s) = 6.78183 7.18182 6.98469
#
# Compressibility (1/GPa) = 0.01724308
#
# Stress axis : x y z
#
# Youngs Moduli (GPa) = 75.08260 122.20507 107.57206
#
# Poissons Ratio (x) = 0.25791 0.17657
# Poissons Ratio (y) = 0.15846 0.32546
# Poissons Ratio (z) = 0.12324 0.36973
#
# Static dielectric constant tensor:
#      x y z
#    x 3.767910 0.000000 0.000000 
#    y 0.000000 3.810740 0.000000 
#    z 0.000000 0.000000 3.921630 
# 
# 
# High freq. dielectric constant tensor:
#      x y z
#    x 1.835900 0.000000 0.000000 
#    y 0.000000 1.813300 0.000000 
#    z 0.000000 0.000000 1.845580 
# 
# From -- ./inp_files/12962.got.cif
#   From: 2010.03.12/outbox.cif.g09.slc.cpg/sg42_7_cif.got.tgz:12962.got - 2010.04.14 02:04:31.
