data_PCOD8186056
_publ_section_title
;
Structure prediction by ZEFSAII (Michael W. Deem and Ramdas Pophale) SiO2 
 PCOD8186056
Probable space group: F M M 2
;
_chemical_formula_sum "Si O2"
_cell_formula_units_Z 80
_cell_length_a 17.569203
_cell_length_b 15.748414
_cell_length_c 15.398646
_cell_angle_alpha 90.000000
_cell_angle_beta 90.000000
_cell_angle_gamma 90.000000
_cell_volume 4260.606436
_symmetry_space_group_name_H-M "F M M 2"
_symmetry_group_IT_number 42
_symmetry_cell_setting 'orthorhombic'
loop_
_space_group_symop_operation_xyz
x,y,z
-x,-y,z
-x,y,z
x,-y,z
x,1/2+y,1/2+z
-x,1/2-y,1/2+z
-x,1/2+y,1/2+z
x,1/2-y,1/2+z
1/2+x,y,1/2+z
1/2-x,-y,1/2+z
1/2-x,y,1/2+z
1/2+x,-y,1/2+z
1/2+x,1/2+y,z
1/2-x,1/2-y,z
1/2-x,1/2+y,z
1/2+x,1/2-y,z
loop_
_atom_site_type_symbol
_atom_site_label
_atom_site_fract_x
_atom_site_fract_y
_atom_site_fract_z
Si Si1 0.740557 0.151200 0.326500
Si Si2 0.084818 0.401560 0.392740
Si Si3 0.692433 0.593660 0.151968
Si Si4 0.913904 0.785701 0.060199
Si Si5 0.295576 0.163086 0.011525
O O1 0.750000 0.250000 0.306958
O O2 0.650434 0.129350 0.327606
O O3 0.777203 0.098178 0.249556
O O4 0.784073 0.123293 0.415526
O O5 0.095873 0.500000 0.415595
O O6 0.095121 0.349745 0.480628
O O7 0.000000 0.385161 0.353116
O O8 0.655993 0.500000 0.139647
O O9 0.631057 0.668789 0.138825
O O10 0.763225 0.600787 0.084873
O O11 0.881936 0.691971 0.034213
O O12 0.000000 0.772088 0.089942
O O13 0.250000 0.250000 0.014207
#
# Coordination Sequence:
#
# PCOD8186056 Si02
#       5
#    16  16  16  16  16
#     4  11  19  35  56  79 115 152 188 230 278 340
#     4  10  19  32  55  85 112 140 181 237 292 330
#     4  11  22  34  55  85 114 148 189 232 283 337
#     4  10  19  36  58  81 110 143 186 237 284 331
#     4   9  18  36  54  77 108 146 187 228 274 333
#
# _framework density 18.776668999999998
#
# number of rings (size 3 to 8) (size 9 to 14) (size 15 to 20)
#    0.000    1.800    6.000    3.000    0.000    2.000 
#    0.000    5.000    0.000    1.800    0.000    0.000 
#    0.000    0.000    0.000    0.000    0.000    0.000 
#
# Total GULP energy -247909.843950 kJ/mol
# GULP energy per Si atom -12395.492198 kJ/mol
# Density = 1.873393 g / cm^3
# Si number density = 18.776669 Si / 1000 Ang^3
#
#
#
# Elastic Constant Matrix: (Units=GPa)
#
#
# Indices 1 2 3 4 5 6 
#
# 1 140.7099 28.6408 42.7552 0.0000 0.0000 0.0000
# 2 28.6408 48.2735 18.2950 0.0000 0.0000 0.0000
# 3 42.7552 18.2950 110.0465 0.0000 0.0000 0.0000
# 4 0.0000 0.0000 0.0000 11.8127 0.0000 0.0000
# 5 0.0000 0.0000 0.0000 0.0000 20.8061 0.0000
# 6 0.0000 0.0000 0.0000 0.0000 0.0000 25.9466
#
#
#
# Elastic Compliance Matrix: (Units=1/GPa)
#
#
# Indices 1 2 3 4 5 6 
#
# 1 0.008784 -0.004181 -0.002717 0.000000 0.000000 0.000000
# 2 -0.004181 0.024099 -0.002382 0.000000 0.000000 0.000000
# 3 -0.002717 -0.002382 0.010539 0.000000 0.000000 0.000000
# 4 0.000000 0.000000 0.000000 0.084655 0.000000 0.000000
# 5 0.000000 0.000000 0.000000 0.000000 0.048063 0.000000
# 6 0.000000 0.000000 0.000000 0.000000 0.000000 0.038541
#
#
# Mechanical properties :
#
#
# Convention : Reuss Voigt Hill
#
# Bulk Modulus (GPa) = 40.22547 53.15685 46.69116
# Shear Modulus (GPa) = 20.70157 25.66902 23.18529
#
# Velocity S-wave (km/s) = 3.32402 3.70140 3.51777
# Velocity P-wave (km/s) = 6.01679 6.82925 6.43585
#
# Compressibility (1/GPa) = 0.02485987
#
# Stress axis : x y z
#
# Youngs Moduli (GPa) = 113.84792 41.49572 94.88730
#
# Poissons Ratio (x) = 0.17351 0.25785
# Poissons Ratio (y) = 0.47605 0.22600
# Poissons Ratio (z) = 0.30938 0.09883
#
# Static dielectric constant tensor:
#      x y z
#    x 3.955380 0.000000 0.000000 
#    y 0.000000 3.490270 0.000000 
#    z 0.000000 0.000000 3.397400 
# 
# 
# High freq. dielectric constant tensor:
#      x y z
#    x 1.718900 0.000000 0.000000 
#    y 0.000000 1.717970 0.000000 
#    z 0.000000 0.000000 1.717830 
# 
# From -- ./inp_files/14959.got.cif
#   From: 2010.03.12/outbox.cif.g09.slc.cpg/sg42_8_cif.got.tgz:14959.got - 2010.04.14 02:04:31.
