data_PCOD8186688
_publ_section_title
;
Structure prediction by ZEFSAII (Michael W. Deem and Ramdas Pophale) SiO2 
 PCOD8186688
Probable space group: F M M 2
;
_chemical_formula_sum "Si O2"
_cell_formula_units_Z 64
_cell_length_a 16.664684
_cell_length_b 18.123692
_cell_length_c 9.265671
_cell_angle_alpha 90.000000
_cell_angle_beta 90.000000
_cell_angle_gamma 90.000000
_cell_volume 2798.469844
_symmetry_space_group_name_H-M "F M M 2"
_symmetry_group_IT_number 42
_symmetry_cell_setting 'orthorhombic'
loop_
_space_group_symop_operation_xyz
x,y,z
-x,-y,z
-x,y,z
x,-y,z
x,1/2+y,1/2+z
-x,1/2-y,1/2+z
-x,1/2+y,1/2+z
x,1/2-y,1/2+z
1/2+x,y,1/2+z
1/2-x,-y,1/2+z
1/2-x,y,1/2+z
1/2+x,-y,1/2+z
1/2+x,1/2+y,z
1/2-x,1/2-y,z
1/2-x,1/2+y,z
1/2+x,1/2-y,z
loop_
_atom_site_type_symbol
_atom_site_label
_atom_site_fract_x
_atom_site_fract_y
_atom_site_fract_z
Si Si1 0.094451 0.320619 0.377540
Si Si2 0.413056 0.917654 0.814487
Si Si3 0.640969 0.318428 0.549628
Si Si4 0.801128 0.913515 0.055565
O O1 0.106963 0.306875 0.208949
O O2 0.143381 0.260664 0.471903
O O3 0.136452 0.397681 0.424380
O O4 0.000000 0.320128 0.413722
O O5 0.500000 0.912764 0.736396
O O6 0.344262 0.892043 0.705299
O O7 0.394497 0.000000 0.866877
O O8 0.419110 0.867953 0.956373
O O9 0.725635 0.359951 0.546684
O O10 0.777232 0.000000 0.048756
#
# Coordination Sequence:
#
# PCOD8186688 Si02
#       4
#    16  16  16  16
#     4  12  26  44  68  98 134 175 221 273 327 388
#     4  10  21  40  67  98 134 175 217 266 328 395
#     4  12  25  44  67  97 133 173 222 273 328 388
#     4  11  25  45  69  99 135 174 217 269 330 393
#
# _framework density 22.869638999999999
#
# number of rings (size 3 to 8) (size 9 to 14) (size 15 to 20)
#    0.000    0.750    0.000    7.500    0.000    7.500 
#    0.000    0.000    0.000    0.000    0.000    0.000 
#    0.000    0.000    0.000    0.000    0.000    0.000 
#
# Total GULP energy -198371.112553 kJ/mol
# GULP energy per Si atom -12398.194535 kJ/mol
# Density = 2.281759 g / cm^3
# Si number density = 22.869639 Si / 1000 Ang^3
#
#
#
# Elastic Constant Matrix: (Units=GPa)
#
#
# Indices 1 2 3 4 5 6 
#
# 1 150.8442 57.9653 34.1216 0.0000 0.0000 0.0000
# 2 57.9653 79.8255 34.9513 0.0000 0.0000 0.0000
# 3 34.1216 34.9513 123.9700 0.0000 0.0000 0.0000
# 4 0.0000 0.0000 0.0000 43.1860 0.0000 0.0000
# 5 0.0000 0.0000 0.0000 0.0000 35.8928 0.0000
# 6 0.0000 0.0000 0.0000 0.0000 0.0000 44.8822
#
#
#
# Elastic Compliance Matrix: (Units=1/GPa)
#
#
# Indices 1 2 3 4 5 6 
#
# 1 0.009255 -0.006395 -0.000745 0.000000 0.000000 0.000000
# 2 -0.006395 0.018710 -0.003515 0.000000 0.000000 0.000000
# 3 -0.000745 -0.003515 0.009262 0.000000 0.000000 0.000000
# 4 0.000000 0.000000 0.000000 0.023156 0.000000 0.000000
# 5 0.000000 0.000000 0.000000 0.000000 0.027861 0.000000
# 6 0.000000 0.000000 0.000000 0.000000 0.000000 0.022281
#
#
# Mechanical properties :
#
#
# Convention : Reuss Voigt Hill
#
# Bulk Modulus (GPa) = 62.81717 67.63511 65.22614
# Shear Modulus (GPa) = 36.45957 39.96563 38.21260
#
# Velocity S-wave (km/s) = 3.99712 4.18490 4.09208
# Velocity P-wave (km/s) = 6.98783 7.27939 7.13510
#
# Compressibility (1/GPa) = 0.01591922
#
# Stress axis : x y z
#
# Youngs Moduli (GPa) = 108.04948 53.44829 107.96408
#
# Poissons Ratio (x) = 0.34178 0.08038
# Poissons Ratio (y) = 0.69093 0.37948
# Poissons Ratio (z) = 0.08044 0.18786
#
# Static dielectric constant tensor:
#      x y z
#    x 4.164060 0.000000 0.000000 
#    y 0.000000 4.322980 0.000000 
#    z 0.000000 0.000000 4.150830 
# 
# 
# High freq. dielectric constant tensor:
#      x y z
#    x 1.919380 0.000000 0.000000 
#    y 0.000000 1.911780 0.000000 
#    z 0.000000 0.000000 1.902490 
# 
# From -- ./inp_files/3216.got.cif
#   From: 2010.03.12/outbox.cif.g09.slc.cpg/sg42_2_cif.got.tgz:3216.got - 2010.04.14 02:04:31.
