data_PCOD8186937
_publ_section_title
;
Structure prediction by ZEFSAII (Michael W. Deem and Ramdas Pophale) SiO2 
 PCOD8186937
Probable space group: F D D 2
;
_chemical_formula_sum "Si O2"
_cell_formula_units_Z 120
_cell_length_a 16.619119
_cell_length_b 24.342434
_cell_length_c 15.568856
_cell_angle_alpha 90.000000
_cell_angle_beta 90.000000
_cell_angle_gamma 90.000000
_cell_volume 6298.377696
_symmetry_space_group_name_H-M "F D D 2"
_symmetry_group_IT_number 43
_symmetry_cell_setting 'orthorhombic'
loop_
_space_group_symop_operation_xyz
x,y,z
-x,-y,z
1/4-x,1/4+y,1/4+z
1/4+x,1/4-y,1/4+z
x,1/2+y,1/2+z
-x,1/2-y,1/2+z
1/4-x,3/4+y,3/4+z
1/4+x,3/4-y,3/4+z
1/2+x,y,1/2+z
1/2-x,-y,1/2+z
3/4-x,1/4+y,3/4+z
3/4+x,1/4-y,3/4+z
1/2+x,1/2+y,z
1/2-x,1/2-y,z
3/4-x,3/4+y,1/4+z
3/4+x,3/4-y,1/4+z
loop_
_atom_site_type_symbol
_atom_site_label
_atom_site_fract_x
_atom_site_fract_y
_atom_site_fract_z
Si Si1 0.190249 0.109579 0.389280
Si Si2 0.305737 0.928567 0.702939
Si Si3 0.101721 0.215478 0.352684
Si Si4 0.000000 0.000000 0.629862
Si Si5 0.364811 0.070740 0.417560
Si Si6 0.668624 0.846089 0.791247
Si Si7 0.639223 0.478415 0.738856
Si Si8 0.547503 0.839812 0.931877
O O1 0.165979 0.076748 0.302246
O O2 0.170475 0.174795 0.388770
O O3 0.283062 0.105180 0.411759
O O4 0.138143 0.081342 0.462286
O O5 0.316599 0.867841 0.663529
O O6 0.211451 0.942425 0.699893
O O7 0.355864 0.975504 0.651018
O O8 0.116792 0.219371 0.250418
O O9 0.015322 0.187410 0.366288
O O10 0.941477 0.037834 0.687899
O O11 0.054684 0.036786 0.570410
O O12 0.376699 0.030850 0.338504
O O13 0.613775 0.872622 0.870787
O O14 0.747777 0.878503 0.756975
O O15 0.654603 0.543210 0.732618
#
# Coordination Sequence:
#
# PCOD8186937 Si02
#       8
#    16  16  16   8  16  16  16  16
#     4   9  18  33  57  80 121 148 187 245 299 346
#     4   9  19  35  56  84 114 149 197 239 294 346
#     4   9  17  33  54  83 113 152 187 244 291 352
#     4  10  22  42  58  78 122 154 190 248 294 340
#     4  10  18  35  57  83 112 155 189 238 293 345
#     4  10  19  38  58  89 115 157 198 243 301 361
#     4   9  20  40  56  80 116 154 189 239 288 348
#     4   9  18  36  59  82 122 151 194 244 301 348
#
# _framework density 19.052523999999998
#
# number of rings (size 3 to 8) (size 9 to 14) (size 15 to 20)
#    0.000    2.667    1.333    0.000    0.000    0.533 
#   16.800    2.667    0.000    0.000    0.000    0.000 
#    0.000    0.000    0.000    0.000    0.000    0.000 
#
# Total GULP energy -371641.690060 kJ/mol
# GULP energy per Si atom -12388.056335 kJ/mol
# Density = 1.900916 g / cm^3
# Si number density = 19.052524 Si / 1000 Ang^3
#
#
#
# Elastic Constant Matrix: (Units=GPa)
#
#
# Indices 1 2 3 4 5 6 
#
# 1 77.0637 29.1241 50.4868 0.0000 0.0000 0.0000
# 2 29.1241 65.5758 55.9250 0.0000 0.0000 0.0000
# 3 50.4868 55.9250 124.9520 0.0000 0.0000 0.0000
# 4 0.0000 0.0000 0.0000 27.3547 0.0000 0.0000
# 5 0.0000 0.0000 0.0000 0.0000 29.9453 0.0000
# 6 0.0000 0.0000 0.0000 0.0000 0.0000 24.9963
#
#
#
# Elastic Compliance Matrix: (Units=1/GPa)
#
#
# Indices 1 2 3 4 5 6 
#
# 1 0.017981 -0.002895 -0.005970 0.000000 0.000000 0.000000
# 2 -0.002895 0.025130 -0.010078 0.000000 0.000000 0.000000
# 3 -0.005970 -0.010078 0.014926 0.000000 0.000000 0.000000
# 4 0.000000 0.000000 0.000000 0.036557 0.000000 0.000000
# 5 0.000000 0.000000 0.000000 0.000000 0.033394 0.000000
# 6 0.000000 0.000000 0.000000 0.000000 0.000000 0.040006
#
#
# Mechanical properties :
#
#
# Convention : Reuss Voigt Hill
#
# Bulk Modulus (GPa) = 49.62253 59.85148 54.73701
# Shear Modulus (GPa) = 23.51887 25.26298 24.39093
#
# Velocity S-wave (km/s) = 3.51725 3.64533 3.58186
# Velocity P-wave (km/s) = 6.52659 7.01427 6.77482
#
# Compressibility (1/GPa) = 0.02015214
#
# Stress axis : x y z
#
# Youngs Moduli (GPa) = 55.61363 39.79343 66.99900
#
# Poissons Ratio (x) = 0.11520 0.39996
# Poissons Ratio (y) = 0.16100 0.67520
# Poissons Ratio (z) = 0.33199 0.40103
#
# Static dielectric constant tensor:
#      x y z
#    x 3.799410 0.000000 0.000000 
#    y 0.000000 3.195690 0.000000 
#    z 0.000000 0.000000 3.713700 
# 
# 
# High freq. dielectric constant tensor:
#      x y z
#    x 1.745700 0.000000 0.000000 
#    y 0.000000 1.708230 0.000000 
#    z 0.000000 0.000000 1.750460 
# 
# From -- ./inp_files/10699.got.cif
#   From: 2010.06.25/outbox.cif.g09.slc.cpg/sg43_6_cif.got.tgz:10699.got - 2010.06.26 16:48:59.
