data_PCOD8186204
_publ_section_title
;
Structure prediction by ZEFSAII (Michael W. Deem and Ramdas Pophale) SiO2 
 PCOD8186204
Probable space group: F M M 2
;
_chemical_formula_sum "Si O2"
_cell_formula_units_Z 80
_cell_length_a 7.882891
_cell_length_b 18.055992
_cell_length_c 29.516357
_cell_angle_alpha 90.000000
_cell_angle_beta 90.000000
_cell_angle_gamma 90.000000
_cell_volume 4201.163944
_symmetry_space_group_name_H-M "F M M 2"
_symmetry_group_IT_number 42
_symmetry_cell_setting 'orthorhombic'
loop_
_space_group_symop_operation_xyz
x,y,z
-x,-y,z
-x,y,z
x,-y,z
x,1/2+y,1/2+z
-x,1/2-y,1/2+z
-x,1/2+y,1/2+z
x,1/2-y,1/2+z
1/2+x,y,1/2+z
1/2-x,-y,1/2+z
1/2-x,y,1/2+z
1/2+x,-y,1/2+z
1/2+x,1/2+y,z
1/2-x,1/2-y,z
1/2-x,1/2+y,z
1/2+x,1/2-y,z
loop_
_atom_site_type_symbol
_atom_site_label
_atom_site_fract_x
_atom_site_fract_y
_atom_site_fract_z
Si Si1 0.000000 0.412028 0.425088
Si Si2 0.801298 0.665334 0.668651
Si Si3 0.500000 0.412391 0.822896
Si Si4 0.684158 0.329855 0.996341
Si Si5 0.804999 0.587420 0.759927
Si Si6 0.296504 0.583380 0.080286
O O1 0.832011 0.380900 0.451004
O O2 0.000000 0.500000 0.427585
O O3 0.000000 0.381386 0.373951
O O4 0.750000 0.750000 0.668638
O O5 0.737737 0.626262 0.714378
O O6 0.723782 0.624214 0.624903
O O7 0.000000 0.656764 0.666190
O O8 0.500000 0.500000 0.824206
O O9 0.326246 0.385374 0.798642
O O10 0.500000 0.314293 0.017551
O O11 0.750000 0.250000 0.981900
O O12 0.782207 0.373352 0.036452
O O13 0.793767 0.500000 0.752236
O O14 0.000000 0.610056 0.772472
O O15 0.500000 0.580988 0.079105
O O16 0.224905 0.500000 0.079636
#
# Coordination Sequence:
#
# PCOD8186204 Si02
#       6
#     8  16   8  16  16  16
#     4   9  18  34  58  81 103 143 189 224 273 344
#     4  10  20  31  48  72 105 141 177 219 270 329
#     4   9  18  34  58  81 106 141 185 236 282 326
#     4   9  18  31  54  78 108 139 173 222 275 328
#     4   9  18  34  55  78 105 140 185 232 275 325
#     4   9  16  29  51  77 101 137 185 222 262 326
#
# _framework density 19.042342999999999
#
# number of rings (size 3 to 8) (size 9 to 14) (size 15 to 20)
#    0.600    2.200    0.000    1.800    1.400    2.400 
#    0.000    2.000    0.000    4.800    0.000    0.000 
#    0.000    0.000    0.000    0.000    0.000    0.000 
#
# Total GULP energy -247784.774422 kJ/mol
# GULP energy per Si atom -12389.238721 kJ/mol
# Density = 1.899900 g / cm^3
# Si number density = 19.042343 Si / 1000 Ang^3
#
#
#
# Elastic Constant Matrix: (Units=GPa)
#
#
# Indices 1 2 3 4 5 6 
#
# 1 44.7833 21.8636 43.7422 0.0000 0.0000 0.0000
# 2 21.8636 120.6394 72.8283 0.0000 0.0000 0.0000
# 3 43.7422 72.8283 195.6383 0.0000 0.0000 0.0000
# 4 0.0000 0.0000 0.0000 19.4507 0.0000 0.0000
# 5 0.0000 0.0000 0.0000 0.0000 1.8899 0.0000
# 6 0.0000 0.0000 0.0000 0.0000 0.0000 27.4154
#
#
#
# Elastic Compliance Matrix: (Units=1/GPa)
#
#
# Indices 1 2 3 4 5 6 
#
# 1 0.028843 -0.001721 -0.005808 0.000000 0.000000 0.000000
# 2 -0.001721 0.010795 -0.003634 0.000000 0.000000 0.000000
# 3 -0.005808 -0.003634 0.007763 0.000000 0.000000 0.000000
# 4 0.000000 0.000000 0.000000 0.051412 0.000000 0.000000
# 5 0.000000 0.000000 0.000000 0.000000 0.529136 0.000000
# 6 0.000000 0.000000 0.000000 0.000000 0.000000 0.036476
#
#
# Mechanical properties :
#
#
# Convention : Reuss Voigt Hill
#
# Bulk Modulus (GPa) = 39.88048 70.88102 55.38075
# Shear Modulus (GPa) = 7.19312 24.59299 15.89306
#
# Velocity S-wave (km/s) = 1.94567 3.59763 2.89211
# Velocity P-wave (km/s) = 5.10255 7.38654 6.34811
#
# Compressibility (1/GPa) = 0.02507492
#
# Stress axis : x y z
#
# Youngs Moduli (GPa) = 34.67019 92.63881 128.81940
#
# Poissons Ratio (x) = 0.15942 0.74823
# Poissons Ratio (y) = 0.05966 0.46808
# Poissons Ratio (z) = 0.20138 0.33662
#
# Static dielectric constant tensor:
#      x y z
#    x 3.231560 0.000000 0.000000 
#    y 0.000000 3.390700 0.000000 
#    z 0.000000 0.000000 3.683500 
# 
# 
# High freq. dielectric constant tensor:
#      x y z
#    x 1.705970 0.000000 0.000000 
#    y 0.000000 1.738320 0.000000 
#    z 0.000000 0.000000 1.740920 
# 
# From -- ./inp_files/33587.got.cif
#   From: 2010.03.12/outbox.cif.g09.slc.cpg/sg42_17_cif.got.tgz:33587.got - 2010.04.14 02:04:31.
