data_PCOD8186876
_publ_section_title
;
Structure prediction by ZEFSAII (Michael W. Deem and Ramdas Pophale) SiO2 
 PCOD8186876
Probable space group: F M M 2
;
_chemical_formula_sum "Si O2"
_cell_formula_units_Z 112
_cell_length_a 13.117665
_cell_length_b 30.930661
_cell_length_c 13.842833
_cell_angle_alpha 90.000000
_cell_angle_beta 90.000000
_cell_angle_gamma 90.000000
_cell_volume 5616.564057
_symmetry_space_group_name_H-M "F M M 2"
_symmetry_group_IT_number 42
_symmetry_cell_setting 'orthorhombic'
loop_
_space_group_symop_operation_xyz
x,y,z
-x,-y,z
-x,y,z
x,-y,z
x,1/2+y,1/2+z
-x,1/2-y,1/2+z
-x,1/2+y,1/2+z
x,1/2-y,1/2+z
1/2+x,y,1/2+z
1/2-x,-y,1/2+z
1/2-x,y,1/2+z
1/2+x,-y,1/2+z
1/2+x,1/2+y,z
1/2-x,1/2-y,z
1/2-x,1/2+y,z
1/2+x,1/2-y,z
loop_
_atom_site_type_symbol
_atom_site_label
_atom_site_fract_x
_atom_site_fract_y
_atom_site_fract_z
Si Si1 0.620510 0.730796 0.933080
Si Si2 0.380212 0.817049 0.029189
Si Si3 0.116759 0.549911 0.437355
Si Si4 0.119788 0.682951 0.623449
Si Si5 0.883241 0.549911 0.215282
Si Si6 0.750000 0.392170 0.576318
Si Si7 0.879490 0.769204 0.719557
O O1 0.500000 0.736797 0.935327
O O2 0.659190 0.717309 0.826319
O O3 0.665152 0.778461 0.961313
O O4 0.648287 0.694678 0.012042
O O5 0.500000 0.822748 0.012336
O O6 0.325432 0.862645 0.010737
O O7 0.351711 0.805322 0.140595
O O8 0.132761 0.500000 0.464670
O O9 0.146341 0.557980 0.326318
O O10 0.187857 0.578462 0.503591
O O11 0.000000 0.563579 0.455328
O O12 0.174568 0.637355 0.641900
O O13 0.165151 0.721539 0.691324
O O14 0.000000 0.677252 0.640302
O O15 0.867241 0.500000 0.187967
O O16 0.812143 0.578461 0.149045
O O17 0.000000 0.563579 0.197309
O O18 0.000000 0.763204 0.717309
#
# Coordination Sequence:
#
# PCOD8186876 Si02
#       7
#    16  16  16  16  16  16  16
#     4   8  15  31  50  64  93 145 190 221 257 303
#     4   9  19  32  46  72 105 136 178 225 266 312
#     4   9  20  40  62  82 107 141 179 217 263 327
#     4   9  19  32  46  72 105 136 178 225 266 312
#     4   9  20  40  62  82 107 141 179 217 263 327
#     4  12  21  31  54  86 112 136 172 227 281 324
#     4   8  15  31  50  64  93 145 190 221 257 303
#
# _framework density 19.941016999999999
#
# number of rings (size 3 to 8) (size 9 to 14) (size 15 to 20)
#    0.000    2.857    0.000    3.857    0.000    4.571 
#    0.000    4.286    0.000    2.571    0.000   10.000 
#    0.000    0.000    0.000    0.000    0.000    0.000 
#
# Total GULP energy -347112.152331 kJ/mol
# GULP energy per Si atom -12396.862583 kJ/mol
# Density = 1.989563 g / cm^3
# Si number density = 19.941017 Si / 1000 Ang^3
#
#
#
# Elastic Constant Matrix: (Units=GPa)
#
#
# Indices 1 2 3 4 5 6 
#
# 1 45.3505 46.3886 15.9943 0.0000 0.0000 0.0000
# 2 46.3886 107.1056 45.8838 0.0000 0.0000 0.0000
# 3 15.9943 45.8838 102.9486 0.0000 0.0000 0.0000
# 4 0.0000 0.0000 0.0000 18.2245 0.0000 0.0000
# 5 0.0000 0.0000 0.0000 0.0000 26.2420 0.0000
# 6 0.0000 0.0000 0.0000 0.0000 0.0000 40.5488
#
#
#
# Elastic Compliance Matrix: (Units=1/GPa)
#
#
# Indices 1 2 3 4 5 6 
#
# 1 0.039875 -0.018066 0.001857 0.000000 0.000000 0.000000
# 2 -0.018066 0.019725 -0.005985 0.000000 0.000000 0.000000
# 3 0.001857 -0.005985 0.012092 0.000000 0.000000 0.000000
# 4 0.000000 0.000000 0.000000 0.054871 0.000000 0.000000
# 5 0.000000 0.000000 0.000000 0.000000 0.038107 0.000000
# 6 0.000000 0.000000 0.000000 0.000000 0.000000 0.024662
#
#
# Mechanical properties :
#
#
# Convention : Reuss Voigt Hill
#
# Bulk Modulus (GPa) = 36.62318 52.43756 44.53037
# Shear Modulus (GPa) = 20.59140 26.81227 23.70183
#
# Velocity S-wave (km/s) = 3.21692 3.67083 3.45134
# Velocity P-wave (km/s) = 5.67483 6.65733 6.18562
#
# Compressibility (1/GPa) = 0.02730511
#
# Stress axis : x y z
#
# Youngs Moduli (GPa) = 25.07856 50.69778 82.69659
#
# Poissons Ratio (x) = 0.91588 -0.15355
# Poissons Ratio (y) = 0.45306 0.49490
# Poissons Ratio (z) = -0.04656 0.30340
#
# Static dielectric constant tensor:
#      x y z
#    x 3.754410 0.000000 0.000000 
#    y 0.000000 3.514050 0.000000 
#    z 0.000000 0.000000 3.776970 
# 
# 
# High freq. dielectric constant tensor:
#      x y z
#    x 1.803020 0.000000 0.000000 
#    y 0.000000 1.763070 0.000000 
#    z 0.000000 0.000000 1.762850 
# 
# From -- ./inp_files/14498.got.cif
#   From: 2010.03.12/outbox.cif.g09.slc.cpg/sg42_8_cif.got.tgz:14498.got - 2010.04.14 02:04:31.
