data_PCOD8186464
_publ_section_title
;
Structure prediction by ZEFSAII (Michael W. Deem and Ramdas Pophale) SiO2 
 PCOD8186464
Probable space group: F M M 2
;
_chemical_formula_sum "Si O2"
_cell_formula_units_Z 80
_cell_length_a 16.526473
_cell_length_b 9.637885
_cell_length_c 25.606734
_cell_angle_alpha 90.000000
_cell_angle_beta 90.000000
_cell_angle_gamma 90.000000
_cell_volume 4078.646897
_symmetry_space_group_name_H-M "F M M 2"
_symmetry_group_IT_number 42
_symmetry_cell_setting 'orthorhombic'
loop_
_space_group_symop_operation_xyz
x,y,z
-x,-y,z
-x,y,z
x,-y,z
x,1/2+y,1/2+z
-x,1/2-y,1/2+z
-x,1/2+y,1/2+z
x,1/2-y,1/2+z
1/2+x,y,1/2+z
1/2-x,-y,1/2+z
1/2-x,y,1/2+z
1/2+x,-y,1/2+z
1/2+x,1/2+y,z
1/2-x,1/2-y,z
1/2-x,1/2+y,z
1/2+x,1/2-y,z
loop_
_atom_site_type_symbol
_atom_site_label
_atom_site_fract_x
_atom_site_fract_y
_atom_site_fract_z
Si Si1 0.163703 0.000000 0.018230
Si Si2 0.095936 0.000000 0.401021
Si Si3 0.408085 0.500000 0.668116
Si Si4 0.596130 0.500000 0.283515
Si Si5 0.593833 0.500000 0.128903
Si Si6 0.594154 0.726097 0.481598
Si Si7 0.847066 0.000000 0.555244
Si Si8 0.344154 0.221659 0.704689
O O1 0.101991 0.000000 0.066813
O O2 0.254396 0.000000 0.038307
O O3 0.147116 0.865327 0.982942
O O4 0.130513 0.000000 0.342503
O O5 0.125360 0.137130 0.431908
O O6 0.000000 0.000000 0.401184
O O7 0.500000 0.500000 0.648503
O O8 0.349684 0.500000 0.617829
O O9 0.391445 0.366580 0.703890
O O10 0.500000 0.500000 0.282449
O O11 0.628337 0.362259 0.255624
O O12 0.500000 0.500000 0.145126
O O13 0.636022 0.363376 0.152195
O O14 0.500000 0.764866 0.477106
O O15 0.608065 0.637009 0.534142
O O16 0.250000 0.250000 0.707776
#
# Coordination Sequence:
#
# PCOD8186464 Si02
#       8
#     8   8   8   8   8  16   8  16
#     4  12  22  34  55  86 117 145 184 236 274 310
#     4   8  18  38  64  82 104 144 189 227 276 338
#     4  12  22  35  55  83 113 148 190 233 266 313
#     4  10  20  41  64  81 105 148 189 223 277 348
#     4  11  22  38  56  79 113 159 192 214 262 337
#     4  10  20  37  57  81 108 145 190 231 270 325
#     4  11  22  36  52  77 117 158 182 215 276 338
#     4  11  22  37  56  83 114 144 182 232 279 325
#
# _framework density 19.614350000000002
#
# number of rings (size 3 to 8) (size 9 to 14) (size 15 to 20)
#    0.000    1.400    0.000    9.000    0.000    0.000 
#    0.000    5.000    0.000    2.400    0.000    0.000 
#    0.000    0.000    0.000    0.000    0.000    0.000 
#
# Total GULP energy -248103.133274 kJ/mol
# GULP energy per Si atom -12405.156664 kJ/mol
# Density = 1.956971 g / cm^3
# Si number density = 19.614350 Si / 1000 Ang^3
#
#
#
# Elastic Constant Matrix: (Units=GPa)
#
#
# Indices 1 2 3 4 5 6 
#
# 1 119.6619 43.8156 29.3928 0.0000 0.0000 0.0000
# 2 43.8156 169.7497 65.6743 0.0000 0.0000 0.0000
# 3 29.3928 65.6743 134.5936 0.0000 0.0000 0.0000
# 4 0.0000 0.0000 0.0000 -91.6154 0.0000 0.0000
# 5 0.0000 0.0000 0.0000 0.0000 -15.0971 0.0000
# 6 0.0000 0.0000 0.0000 0.0000 0.0000 28.0936
#
#
#
# Elastic Compliance Matrix: (Units=1/GPa)
#
#
# Indices 1 2 3 4 5 6 
#
# 1 0.009352 -0.002002 -0.001066 0.000000 0.000000 0.000000
# 2 -0.002002 0.007690 -0.003315 0.000000 0.000000 0.000000
# 3 -0.001066 -0.003315 0.009280 0.000000 0.000000 0.000000
# 4 0.000000 0.000000 0.000000 -0.010915 0.000000 0.000000
# 5 0.000000 0.000000 0.000000 0.000000 -0.066238 0.000000
# 6 0.000000 0.000000 0.000000 0.000000 0.000000 0.035595
#
#
# Mechanical properties :
#
#
# Convention : Reuss Voigt Hill
#
# Bulk Modulus (GPa) = 73.76209 77.97452 75.86830
# Shear Modulus (GPa) = 2441.07797 3.28439 1222.18118
#
# Velocity S-wave (km/s) = 35.31626 1.29542 24.98916
# Velocity P-wave (km/s) = 41.23921 6.48673 29.51906
#
# Compressibility (1/GPa) = 0.01355710
#
# Stress axis : x y z
#
# Youngs Moduli (GPa) = 106.93468 130.03325 107.75639
#
# Poissons Ratio (x) = 0.26027 0.11482
# Poissons Ratio (y) = 0.21403 0.35725
# Poissons Ratio (z) = 0.11394 0.43111
#
# Static dielectric constant tensor:
#      x y z
#    x 3.526440 0.000000 0.000000 
#    y 0.000000 3.722350 0.000000 
#    z 0.000000 0.000000 3.598720 
# 
# 
# High freq. dielectric constant tensor:
#      x y z
#    x 1.769150 0.000000 0.000000 
#    y 0.000000 1.776140 0.000000 
#    z 0.000000 0.000000 1.740950 
# 
# From -- ./inp_files/32804.got.cif
#   From: 2010.03.12/outbox.cif.g09.slc.cpg/sg42_17_cif.got.tgz:32804.got - 2010.04.14 02:04:31.
