data_PCOD8186075
_publ_section_title
;
Structure prediction by ZEFSAII (Michael W. Deem and Ramdas Pophale) SiO2 
 PCOD8186075
Probable space group: F M M 2
;
_chemical_formula_sum "Si O2"
_cell_formula_units_Z 128
_cell_length_a 18.914608
_cell_length_b 21.693165
_cell_length_c 15.388865
_cell_angle_alpha 90.000000
_cell_angle_beta 90.000000
_cell_angle_gamma 90.000000
_cell_volume 6314.323881
_symmetry_space_group_name_H-M "F M M 2"
_symmetry_group_IT_number 42
_symmetry_cell_setting 'orthorhombic'
loop_
_space_group_symop_operation_xyz
x,y,z
-x,-y,z
-x,y,z
x,-y,z
x,1/2+y,1/2+z
-x,1/2-y,1/2+z
-x,1/2+y,1/2+z
x,1/2-y,1/2+z
1/2+x,y,1/2+z
1/2-x,-y,1/2+z
1/2-x,y,1/2+z
1/2+x,-y,1/2+z
1/2+x,1/2+y,z
1/2-x,1/2-y,z
1/2-x,1/2+y,z
1/2+x,1/2-y,z
loop_
_atom_site_type_symbol
_atom_site_label
_atom_site_fract_x
_atom_site_fract_y
_atom_site_fract_z
Si Si1 0.780184 0.066849 0.970070
Si Si2 0.920402 0.620102 0.725776
Si Si3 0.921163 0.737455 0.225688
Si Si4 0.781274 0.811333 0.777378
Si Si5 0.420402 0.379898 0.022027
Si Si6 0.921164 0.262546 0.022116
Si Si7 0.281274 0.188667 0.970425
Si Si8 0.719816 0.933151 0.777733
O O1 0.750000 0.063322 0.873902
O O2 0.765977 0.000000 0.015397
O O3 0.864609 0.079040 0.968595
O O4 0.742069 0.124925 0.018824
O O5 0.906674 0.691473 0.748125
O O6 0.909298 0.608216 0.623901
O O7 0.864609 0.579039 0.779208
O O8 0.000000 0.601093 0.752925
O O9 0.866283 0.694321 0.277918
O O10 0.911968 0.725511 0.123902
O O11 0.000000 0.718768 0.255805
O O12 0.750000 0.750000 0.729381
O O13 0.757930 0.875075 0.728979
O O14 0.750000 0.813806 0.873901
O O15 0.500000 0.398907 0.994878
O O16 0.406676 0.308527 0.999678
O O17 0.866283 0.305679 0.969885
O O18 0.000000 0.281234 0.992000
O O19 0.250000 0.250000 0.018422
O O20 0.734023 0.000000 0.732406
#
# Coordination Sequence:
#
# PCOD8186075 Si02
#       8
#    16  16  16  16  16  16  16  16
#     4  10  21  36  52  73 108 145 175 212 260 313
#     4   9  18  33  54  81 109 135 168 212 265 321
#     4   9  18  33  54  80 108 138 172 213 263 312
#     4  10  19  33  53  78 106 134 176 218 255 306
#     4   9  18  33  54  81 109 135 168 212 265 321
#     4   9  18  33  54  80 108 138 172 213 263 312
#     4  10  19  33  53  78 106 134 176 218 255 306
#     4  10  21  36  52  73 108 145 175 212 260 313
#
# _framework density 20.271370999999998
#
# number of rings (size 3 to 8) (size 9 to 14) (size 15 to 20)
#    0.000    2.500    2.500    1.500    0.000    2.500 
#    0.000    8.750    0.000    2.250    0.000    1.750 
#    0.000    0.000    0.000    0.000    0.000    0.000 
#
# Total GULP energy -396452.451175 kJ/mol
# GULP energy per Si atom -12389.139099 kJ/mol
# Density = 2.022523 g / cm^3
# Si number density = 20.271371 Si / 1000 Ang^3
#
#
#
# Elastic Constant Matrix: (Units=GPa)
#
#
# Indices 1 2 3 4 5 6 
#
# 1 179.1364 89.7157 40.5545 0.0000 0.0000 0.0000
# 2 89.7157 182.3204 11.9502 0.0000 0.0000 0.0000
# 3 40.5545 11.9502 37.9662 0.0000 0.0000 0.0000
# 4 0.0000 0.0000 0.0000 20.2721 0.0000 0.0000
# 5 0.0000 0.0000 0.0000 0.0000 34.9901 0.0000
# 6 0.0000 0.0000 0.0000 0.0000 0.0000 18.3126
#
#
#
# Elastic Compliance Matrix: (Units=1/GPa)
#
#
# Indices 1 2 3 4 5 6 
#
# 1 0.009741 -0.004198 -0.009084 0.000000 0.000000 0.000000
# 2 -0.004198 0.007410 0.002152 0.000000 0.000000 0.000000
# 3 -0.009084 0.002152 0.035365 0.000000 0.000000 0.000000
# 4 0.000000 0.000000 0.000000 0.049329 0.000000 0.000000
# 5 0.000000 0.000000 0.000000 0.000000 0.028580 0.000000
# 6 0.000000 0.000000 0.000000 0.000000 0.000000 0.054607
#
#
# Mechanical properties :
#
#
# Convention : Reuss Voigt Hill
#
# Bulk Modulus (GPa) = 33.05140 75.98489 54.51814
# Shear Modulus (GPa) = 23.00148 31.86180 27.43164
#
# Velocity S-wave (km/s) = 3.37215 3.96885 3.68261
# Velocity P-wave (km/s) = 5.61264 7.65294 6.71079
#
# Compressibility (1/GPa) = 0.03025591
#
# Stress axis : x y z
#
# Youngs Moduli (GPa) = 102.65477 134.96045 28.27636
#
# Poissons Ratio (x) = 0.56658 0.25687
# Poissons Ratio (y) = 0.43095 -0.06085
# Poissons Ratio (z) = 0.93253 -0.29044
#
# Static dielectric constant tensor:
#      x y z
#    x 3.931670 0.000000 0.000000 
#    y 0.000000 5.102520 0.000000 
#    z 0.000000 0.000000 3.168040 
# 
# 
# High freq. dielectric constant tensor:
#      x y z
#    x 1.803760 0.000000 0.000000 
#    y 0.000000 1.782840 0.000000 
#    z 0.000000 0.000000 1.748590 
# 
# From -- ./inp_files/21218.got.cif
#   From: 2010.03.12/outbox.cif.g09.slc.cpg/sg42_11_cif.got.tgz:21218.got - 2010.04.14 02:04:31.
