data_PCOD8186537
_publ_section_title
;
Structure prediction by ZEFSAII (Michael W. Deem and Ramdas Pophale) SiO2 
 PCOD8186537
Probable space group: F M M 2
;
_chemical_formula_sum "Si O2"
_cell_formula_units_Z 72
_cell_length_a 16.712596
_cell_length_b 22.709511
_cell_length_c 8.521493
_cell_angle_alpha 90.000000
_cell_angle_beta 90.000000
_cell_angle_gamma 90.000000
_cell_volume 3234.203846
_symmetry_space_group_name_H-M "F M M 2"
_symmetry_group_IT_number 42
_symmetry_cell_setting 'orthorhombic'
loop_
_space_group_symop_operation_xyz
x,y,z
-x,-y,z
-x,y,z
x,-y,z
x,1/2+y,1/2+z
-x,1/2-y,1/2+z
-x,1/2+y,1/2+z
x,1/2-y,1/2+z
1/2+x,y,1/2+z
1/2-x,-y,1/2+z
1/2-x,y,1/2+z
1/2+x,-y,1/2+z
1/2+x,1/2+y,z
1/2-x,1/2-y,z
1/2-x,1/2+y,z
1/2+x,1/2-y,z
loop_
_atom_site_type_symbol
_atom_site_label
_atom_site_fract_x
_atom_site_fract_y
_atom_site_fract_z
Si Si1 0.500000 0.906093 0.755510
Si Si2 0.000000 0.778398 0.313468
Si Si3 0.671619 0.434327 0.236087
Si Si4 0.500000 0.364431 0.582860
Si Si5 0.364004 0.313292 0.746335
Si Si6 0.743237 0.857493 0.993813
O O1 0.500000 0.837070 0.705979
O O2 0.578426 0.936988 0.686268
O O3 0.500000 0.914014 0.947788
O O4 0.082203 0.744135 0.275759
O O5 0.000000 0.798936 0.496915
O O6 0.700381 0.500000 0.282468
O O7 0.679334 0.386508 0.375436
O O8 0.724535 0.412556 0.092248
O O9 0.422107 0.367690 0.695729
O O10 0.300013 0.308175 0.602735
O O11 0.316738 0.326531 0.905607
#
# Coordination Sequence:
#
# PCOD8186537 Si02
#       6
#     8   8  16   8  16  16
#     4  10  21  41  60  89 116 159 209 247 296 366
#     4   9  21  39  62  85 119 167 200 244 294 371
#     4  11  22  41  63  88 122 162 206 258 307 358
#     4   9  19  40  60  84 120 162 205 237 298 355
#     4  10  20  40  63  90 128 161 198 251 305 373
#     4  10  22  38  63  95 124 158 202 253 312 367
#
# _framework density 22.262046999999999
#
# number of rings (size 3 to 8) (size 9 to 14) (size 15 to 20)
#    0.667    1.333    2.222    1.000    0.000    5.333 
#    0.000   18.889    0.000    0.000    0.000    0.000 
#    0.000    0.000    0.000    0.000    0.000    0.000 
#
# Total GULP energy -223059.727602 kJ/mol
# GULP energy per Si atom -12392.207089 kJ/mol
# Density = 2.221138 g / cm^3
# Si number density = 22.262047 Si / 1000 Ang^3
#
#
#
# Elastic Constant Matrix: (Units=GPa)
#
#
# Indices 1 2 3 4 5 6 
#
# 1 134.9283 27.0887 42.4896 0.0000 0.0000 0.0000
# 2 27.0887 92.6703 26.8238 0.0000 0.0000 0.0000
# 3 42.4896 26.8238 77.7311 0.0001 -0.0003 0.0000
# 4 0.0000 0.0000 0.0001 14.0350 0.0000 0.0000
# 5 0.0000 0.0000 -0.0003 0.0000 36.8185 0.0000
# 6 0.0000 0.0000 0.0000 0.0000 0.0000 17.9623
#
#
#
# Elastic Compliance Matrix: (Units=1/GPa)
#
#
# Indices 1 2 3 4 5 6 
#
# 1 0.009103 -0.001356 -0.004508 0.000000 0.000000 0.000000
# 2 -0.001356 0.012190 -0.003465 0.000000 0.000000 0.000000
# 3 -0.004508 -0.003465 0.016525 0.000000 0.000000 0.000000
# 4 0.000000 0.000000 0.000000 0.071250 0.000000 0.000000
# 5 0.000000 0.000000 0.000000 0.000000 0.027160 0.000000
# 6 0.000000 0.000000 0.000000 0.000000 0.000000 0.055672
#
#
# Mechanical properties :
#
#
# Convention : Reuss Voigt Hill
#
# Bulk Modulus (GPa) = 52.19378 55.34821 53.77100
# Shear Modulus (GPa) = 23.04710 27.69167 25.36938
#
# Velocity S-wave (km/s) = 3.22104 3.53072 3.37943
# Velocity P-wave (km/s) = 6.10979 6.44495 6.27961
#
# Compressibility (1/GPa) = 0.01915937
#
# Stress axis : x y z
#
# Youngs Moduli (GPa) = 109.85133 82.03150 60.51454
#
# Poissons Ratio (x) = 0.11124 0.27280
# Poissons Ratio (y) = 0.14897 0.20971
# Poissons Ratio (z) = 0.49522 0.28428
#
# Static dielectric constant tensor:
#      x y z
#    x 4.134240 0.000000 0.000000 
#    y 0.000000 3.541600 0.000000 
#    z 0.000000 0.000000 3.979920 
# 
# 
# High freq. dielectric constant tensor:
#      x y z
#    x 1.899240 0.000000 0.000000 
#    y 0.000000 1.836770 0.000000 
#    z 0.000000 0.000000 1.865960 
# 
# From -- ./inp_files/2872.got.cif
#   From: 2010.03.12/outbox.cif.g09.slc.cpg/sg42_2_cif.got.tgz:2872.got - 2010.04.14 02:04:31.
