data_PCOD8186837
_publ_section_title
;
Structure prediction by ZEFSAII (Michael W. Deem and Ramdas Pophale) SiO2 
 PCOD8186837
Probable space group: F M M 2
;
_chemical_formula_sum "Si O2"
_cell_formula_units_Z 80
_cell_length_a 8.774700
_cell_length_b 15.622202
_cell_length_c 28.574039
_cell_angle_alpha 90.000000
_cell_angle_beta 90.000000
_cell_angle_gamma 90.000000
_cell_volume 3916.933149
_symmetry_space_group_name_H-M "F M M 2"
_symmetry_group_IT_number 42
_symmetry_cell_setting 'orthorhombic'
loop_
_space_group_symop_operation_xyz
x,y,z
-x,-y,z
-x,y,z
x,-y,z
x,1/2+y,1/2+z
-x,1/2-y,1/2+z
-x,1/2+y,1/2+z
x,1/2-y,1/2+z
1/2+x,y,1/2+z
1/2-x,-y,1/2+z
1/2-x,y,1/2+z
1/2+x,-y,1/2+z
1/2+x,1/2+y,z
1/2-x,1/2-y,z
1/2-x,1/2+y,z
1/2+x,1/2-y,z
loop_
_atom_site_type_symbol
_atom_site_label
_atom_site_fract_x
_atom_site_fract_y
_atom_site_fract_z
Si Si1 0.674947 0.100572 0.756100
Si Si2 0.320821 0.161465 0.166222
Si Si3 0.819080 0.500000 0.507479
Si Si4 0.321015 0.663200 0.951666
Si Si5 0.323214 0.400996 0.361725
Si Si6 0.818960 0.500000 0.614322
O O1 0.500000 0.123442 0.744368
O O2 0.784932 0.151908 0.721378
O O3 0.715732 0.128233 0.808953
O O4 0.701727 0.000000 0.749406
O O5 0.500000 0.161500 0.157722
O O6 0.250000 0.250000 0.147319
O O7 0.245264 0.084278 0.138340
O O8 0.753750 0.583993 0.481484
O O9 0.763661 0.500000 0.560768
O O10 0.000000 0.500000 0.504129
O O11 0.500000 0.669022 0.956852
O O12 0.250000 0.750000 0.972308
O O13 0.277777 0.653919 0.897154
O O14 0.500000 0.385228 0.372806
O O15 0.280835 0.500000 0.368016
O O16 0.000000 0.500000 0.619197
#
# Coordination Sequence:
#
# PCOD8186837 Si02
#       6
#    16  16   8  16  16   8
#     4   9  18  35  60  88 123 164 203 248 301 355
#     4  12  25  41  63  94 126 162 207 251 303 367
#     4   9  22  43  66  89 118 155 196 247 310 365
#     4  11  22  39  61  90 123 159 201 247 299 358
#     4   9  18  34  58  89 122 161 205 246 294 353
#     4  11  23  45  70  91 122 157 196 257 318 369
#
# _framework density 20.424143000000001
#
# number of rings (size 3 to 8) (size 9 to 14) (size 15 to 20)
#    0.000    1.800    2.000    3.900    0.000    2.400 
#    0.000    8.000    0.000    0.000    0.000    0.000 
#    0.000    0.000    0.000    0.000    0.000    0.000 
#
# Total GULP energy -248061.871377 kJ/mol
# GULP energy per Si atom -12403.093569 kJ/mol
# Density = 2.037766 g / cm^3
# Si number density = 20.424143 Si / 1000 Ang^3
#
#
#
# Elastic Constant Matrix: (Units=GPa)
#
#
# Indices 1 2 3 4 5 6 
#
# 1 96.3299 53.2130 41.1622 0.0000 0.0000 0.0000
# 2 53.2130 154.9437 67.4181 0.0000 0.0000 0.0000
# 3 41.1622 67.4181 122.9046 0.0000 0.0000 0.0000
# 4 0.0000 0.0000 0.0000 7.7084 0.0000 0.0000
# 5 0.0000 0.0000 0.0000 0.0000 24.0757 0.0000
# 6 0.0000 0.0000 0.0000 0.0000 0.0000 32.3345
#
#
#
# Elastic Compliance Matrix: (Units=1/GPa)
#
#
# Indices 1 2 3 4 5 6 
#
# 1 0.013407 -0.003482 -0.002580 0.000000 0.000000 0.000000
# 2 -0.003482 0.009381 -0.003980 0.000000 0.000000 0.000000
# 3 -0.002580 -0.003980 0.011184 0.000000 0.000000 0.000000
# 4 0.000000 0.000000 0.000000 0.129728 0.000000 0.000000
# 5 0.000000 0.000000 0.000000 0.000000 0.041536 0.000000
# 6 0.000000 0.000000 0.000000 0.000000 0.000000 0.030927
#
#
# Mechanical properties :
#
#
# Convention : Reuss Voigt Hill
#
# Bulk Modulus (GPa) = 72.00416 77.52944 74.76680
# Shear Modulus (GPa) = 19.16617 26.98271 23.07444
#
# Velocity S-wave (km/s) = 3.06667 3.63866 3.36484
# Velocity P-wave (km/s) = 6.91883 7.46293 7.19602
#
# Compressibility (1/GPa) = 0.01388809
#
# Stress axis : x y z
#
# Youngs Moduli (GPa) = 74.58878 106.59327 89.41523
#
# Poissons Ratio (x) = 0.37112 0.23072
# Poissons Ratio (y) = 0.25969 0.35588
# Poissons Ratio (z) = 0.19246 0.42425
#
# Static dielectric constant tensor:
#      x y z
#    x 3.490490 0.000000 0.000000 
#    y 0.000000 3.810310 0.000000 
#    z 0.000000 0.000000 3.791330 
# 
# 
# High freq. dielectric constant tensor:
#      x y z
#    x 1.784930 0.000000 0.000000 
#    y 0.000000 1.805600 0.000000 
#    z 0.000000 0.000000 1.796390 
# 
# From -- ./inp_files/31351.got.cif
#   From: 2010.03.12/outbox.cif.g09.slc.cpg/sg42_16_cif.got.tgz:31351.got - 2010.04.14 02:04:31.
