data_PCOD8186382
_publ_section_title
;
Structure prediction by ZEFSAII (Michael W. Deem and Ramdas Pophale) SiO2 
 PCOD8186382
Probable space group: F M M 2
;
_chemical_formula_sum "Si O2"
_cell_formula_units_Z 80
_cell_length_a 22.540742
_cell_length_b 9.107376
_cell_length_c 19.892712
_cell_angle_alpha 90.000000
_cell_angle_beta 90.000000
_cell_angle_gamma 90.000000
_cell_volume 4083.715421
_symmetry_space_group_name_H-M "F M M 2"
_symmetry_group_IT_number 42
_symmetry_cell_setting 'orthorhombic'
loop_
_space_group_symop_operation_xyz
x,y,z
-x,-y,z
-x,y,z
x,-y,z
x,1/2+y,1/2+z
-x,1/2-y,1/2+z
-x,1/2+y,1/2+z
x,1/2-y,1/2+z
1/2+x,y,1/2+z
1/2-x,-y,1/2+z
1/2-x,y,1/2+z
1/2+x,-y,1/2+z
1/2+x,1/2+y,z
1/2-x,1/2-y,z
1/2-x,1/2+y,z
1/2+x,1/2-y,z
loop_
_atom_site_type_symbol
_atom_site_label
_atom_site_fract_x
_atom_site_fract_y
_atom_site_fract_z
Si Si1 0.000000 0.172221 0.210351
Si Si2 0.691564 0.667942 0.268939
Si Si3 0.387400 0.168799 0.893780
Si Si4 0.500000 0.673741 0.854781
Si Si5 0.121839 0.827800 0.139412
Si Si6 0.313040 0.172380 0.023068
O O1 0.943272 0.215494 0.165707
O O2 0.000000 0.257245 0.280574
O O3 0.000000 0.000000 0.228640
O O4 0.709327 0.500000 0.269572
O O5 0.750000 0.750000 0.291591
O O6 0.639417 0.700469 0.320857
O O7 0.669668 0.716809 0.195772
O O8 0.443942 0.274285 0.899007
O O9 0.407848 0.000000 0.901205
O O10 0.338199 0.207863 0.949326
O O11 0.500000 0.500000 0.848113
O O12 0.137840 0.733517 0.074349
O O13 0.124842 0.000000 0.122269
O O14 0.250000 0.250000 0.033088
O O15 0.304073 0.000000 0.035108
#
# Coordination Sequence:
#
# PCOD8186382 Si02
#       6
#     8  16  16   8  16  16
#     4  10  20  41  66  87 121 165 203 247 302 362
#     4  10  20  35  58  85 114 154 202 248 297 355
#     4  10  22  42  63  84 119 166 204 242 302 365
#     4  12  24  37  62  97 125 153 197 259 306 354
#     4  10  21  38  63  89 119 162 203 248 303 359
#     4  11  24  41  63  89 124 164 202 252 303 359
#
# _framework density 19.590002999999999
#
# number of rings (size 3 to 8) (size 9 to 14) (size 15 to 20)
#    0.000    1.600    2.000    2.700    0.000    6.400 
#    0.000    2.000    0.000    0.000    0.000    0.000 
#    0.000    0.000    0.000    0.000    0.000    0.000 
#
# Total GULP energy -248070.185033 kJ/mol
# GULP energy per Si atom -12403.509252 kJ/mol
# Density = 1.954542 g / cm^3
# Si number density = 19.590003 Si / 1000 Ang^3
#
#
#
# Elastic Constant Matrix: (Units=GPa)
#
#
# Indices 1 2 3 4 5 6 
#
# 1 112.1219 60.7030 24.5086 0.0000 0.0000 0.0000
# 2 60.7030 87.8951 40.7543 0.0000 0.0000 0.0000
# 3 24.5086 40.7543 73.0837 0.0000 0.0000 0.0000
# 4 0.0000 0.0000 0.0000 29.5816 0.0000 0.0000
# 5 0.0000 0.0000 0.0000 0.0000 47.0286 0.0000
# 6 0.0000 0.0000 0.0000 0.0000 0.0000 34.3442
#
#
#
# Elastic Compliance Matrix: (Units=1/GPa)
#
#
# Indices 1 2 3 4 5 6 
#
# 1 0.014295 -0.010317 0.000960 0.000000 0.000000 0.000000
# 2 -0.010317 0.022791 -0.009249 0.000000 0.000000 0.000000
# 3 0.000960 -0.009249 0.018519 0.000000 0.000000 0.000000
# 4 0.000000 0.000000 0.000000 0.033805 0.000000 0.000000
# 5 0.000000 0.000000 0.000000 0.000000 0.021264 0.000000
# 6 0.000000 0.000000 0.000000 0.000000 0.000000 0.029117
#
#
# Mechanical properties :
#
#
# Convention : Reuss Voigt Hill
#
# Bulk Modulus (GPa) = 54.37500 58.33694 56.35597
# Shear Modulus (GPa) = 27.30215 31.99987 29.65101
#
# Velocity S-wave (km/s) = 3.73725 4.04602 3.89469
# Velocity P-wave (km/s) = 6.81465 7.18823 7.00393
#
# Compressibility (1/GPa) = 0.01839080
#
# Stress axis : x y z
#
# Youngs Moduli (GPa) = 69.95445 43.87614 53.99873
#
# Poissons Ratio (x) = 0.45269 -0.05182
# Poissons Ratio (y) = 0.72175 0.49946
# Poissons Ratio (z) = -0.06713 0.40583
#
# Static dielectric constant tensor:
#      x y z
#    x 3.584800 0.000000 0.000000 
#    y 0.000000 3.482730 0.000000 
#    z 0.000000 0.000000 3.688260 
# 
# 
# High freq. dielectric constant tensor:
#      x y z
#    x 1.776090 0.000000 0.000000 
#    y 0.000000 1.755150 0.000000 
#    z 0.000000 0.000000 1.766510 
# 
# From -- ./inp_files/23465.got.cif
#   From: 2010.03.12/outbox.cif.g09.slc.cpg/sg42_12_cif.got.tgz:23465.got - 2010.04.14 02:04:31.
