data_PCOD8186272
_publ_section_title
;
Structure prediction by ZEFSAII (Michael W. Deem and Ramdas Pophale) SiO2 
 PCOD8186272
Probable space group: F M M 2
;
_chemical_formula_sum "Si O2"
_cell_formula_units_Z 128
_cell_length_a 19.110195
_cell_length_b 18.487737
_cell_length_c 20.021967
_cell_angle_alpha 90.000000
_cell_angle_beta 90.000000
_cell_angle_gamma 90.000000
_cell_volume 7073.846218
_symmetry_space_group_name_H-M "F M M 2"
_symmetry_group_IT_number 42
_symmetry_cell_setting 'orthorhombic'
loop_
_space_group_symop_operation_xyz
x,y,z
-x,-y,z
-x,y,z
x,-y,z
x,1/2+y,1/2+z
-x,1/2-y,1/2+z
-x,1/2+y,1/2+z
x,1/2-y,1/2+z
1/2+x,y,1/2+z
1/2-x,-y,1/2+z
1/2-x,y,1/2+z
1/2+x,-y,1/2+z
1/2+x,1/2+y,z
1/2-x,1/2-y,z
1/2-x,1/2+y,z
1/2+x,1/2-y,z
loop_
_atom_site_type_symbol
_atom_site_label
_atom_site_fract_x
_atom_site_fract_y
_atom_site_fract_z
Si Si1 0.309101 0.082486 0.154040
Si Si2 0.921692 0.276407 0.935625
Si Si3 0.421462 0.165928 0.317914
Si Si4 0.578794 0.317064 0.066505
Si Si5 0.420201 0.298874 0.670217
Si Si6 0.277045 0.831660 0.917571
Si Si7 0.295648 0.415489 0.036203
Si Si8 0.787294 0.582008 0.304268
O O1 0.375476 0.133755 0.143679
O O2 0.252582 0.102969 0.098899
O O3 0.272639 0.094111 0.225910
O O4 0.335374 0.000000 0.146580
O O5 0.904577 0.217239 0.879553
O O6 0.860863 0.336698 0.930366
O O7 0.000000 0.309436 0.924595
O O8 0.916520 0.240679 0.007498
O O9 0.500000 0.134378 0.322395
O O10 0.411009 0.211733 0.249715
O O11 0.368816 0.098480 0.319975
O O12 0.500000 0.347362 0.073532
O O13 0.602890 0.275351 0.133906
O O14 0.627838 0.384952 0.052307
O O15 0.500000 0.316727 0.650705
O O16 0.250000 0.750000 0.923310
O O17 0.262870 0.863551 0.844145
O O18 0.236276 0.879817 0.970652
O O19 0.303190 0.500000 0.022835
O O20 0.771713 0.500000 0.326027
#
# Coordination Sequence:
#
# PCOD8186272 Si02
#       8
#    16  16  16  16  16  16  16  16
#     4   9  20  35  52  77 111 145 181 221 268 316
#     4  10  20  34  52  76 109 137 171 221 264 308
#     4   9  17  31  50  78 111 141 175 216 266 323
#     4  10  20  35  54  78 105 138 176 220 270 323
#     4   9  18  31  51  78 108 141 181 220 262 316
#     4  12  21  35  57  83 106 139 181 220 266 319
#     4  11  23  38  55  79 108 141 177 222 272 325
#     4  10  20  35  53  78 111 144 178 224 270 319
#
# _framework density 18.094823000000002
#
# number of rings (size 3 to 8) (size 9 to 14) (size 15 to 20)
#    0.000    2.000    2.500    1.125    0.000    1.750 
#    0.000    2.500    0.000    6.000    0.000    1.750 
#    0.000    0.000    0.000    0.250    0.000    0.125 
#
# Total GULP energy -396805.845236 kJ/mol
# GULP energy per Si atom -12400.182664 kJ/mol
# Density = 1.805364 g / cm^3
# Si number density = 18.094823 Si / 1000 Ang^3
#
#
#
# Elastic Constant Matrix: (Units=GPa)
#
#
# Indices 1 2 3 4 5 6 
#
# 1 83.9573 40.4076 18.1017 0.0000 0.0000 0.0000
# 2 40.4076 72.6233 26.0074 0.0000 0.0000 0.0000
# 3 18.1017 26.0074 74.2571 0.0000 0.0000 0.0000
# 4 0.0000 0.0000 0.0000 27.4843 0.0000 0.0000
# 5 0.0000 0.0000 0.0000 0.0000 26.8056 0.0000
# 6 0.0000 0.0000 0.0000 0.0000 0.0000 27.2158
#
#
#
# Elastic Compliance Matrix: (Units=1/GPa)
#
#
# Indices 1 2 3 4 5 6 
#
# 1 0.016321 -0.008754 -0.000913 0.000000 0.000000 0.000000
# 2 -0.008754 0.020440 -0.005025 0.000000 0.000000 0.000000
# 3 -0.000913 -0.005025 0.015449 0.000000 0.000000 0.000000
# 4 0.000000 0.000000 0.000000 0.036384 0.000000 0.000000
# 5 0.000000 0.000000 0.000000 0.000000 0.037306 0.000000
# 6 0.000000 0.000000 0.000000 0.000000 0.000000 0.036743
#
#
# Mechanical properties :
#
#
# Convention : Reuss Voigt Hill
#
# Bulk Modulus (GPa) = 43.80797 44.43015 44.11906
# Shear Modulus (GPa) = 25.04571 26.05588 25.55079
#
# Velocity S-wave (km/s) = 3.72444 3.79880 3.76180
# Velocity P-wave (km/s) = 6.53896 6.62182 6.58052
#
# Compressibility (1/GPa) = 0.02282689
#
# Stress axis : x y z
#
# Youngs Moduli (GPa) = 61.27143 48.92386 64.72903
#
# Poissons Ratio (x) = 0.42829 0.05907
# Poissons Ratio (y) = 0.53638 0.32525
# Poissons Ratio (z) = 0.05591 0.24583
#
# Static dielectric constant tensor:
#      x y z
#    x 3.551120 0.000000 0.000000 
#    y 0.000000 3.109950 0.000000 
#    z 0.000000 0.000000 3.563280 
# 
# 
# High freq. dielectric constant tensor:
#      x y z
#    x 1.704330 0.000000 0.000000 
#    y 0.000000 1.673140 0.000000 
#    z 0.000000 0.000000 1.719070 
# 
# From -- ./inp_files/26605.got.cif
#   From: 2010.03.12/outbox.cif.g09.slc.cpg/sg42_14_cif.got.tgz:26605.got - 2010.04.14 02:04:31.
