data_PCOD8186297
_publ_section_title
;
Structure prediction by ZEFSAII (Michael W. Deem and Ramdas Pophale) SiO2 
 PCOD8186297
Probable space group: F M M 2
;
_chemical_formula_sum "Si O2"
_cell_formula_units_Z 104
_cell_length_a 13.415020
_cell_length_b 24.132789
_cell_length_c 16.310236
_cell_angle_alpha 90.000000
_cell_angle_beta 90.000000
_cell_angle_gamma 90.000000
_cell_volume 5280.305929
_symmetry_space_group_name_H-M "F M M 2"
_symmetry_group_IT_number 42
_symmetry_cell_setting 'orthorhombic'
loop_
_space_group_symop_operation_xyz
x,y,z
-x,-y,z
-x,y,z
x,-y,z
x,1/2+y,1/2+z
-x,1/2-y,1/2+z
-x,1/2+y,1/2+z
x,1/2-y,1/2+z
1/2+x,y,1/2+z
1/2-x,-y,1/2+z
1/2-x,y,1/2+z
1/2+x,-y,1/2+z
1/2+x,1/2+y,z
1/2-x,1/2-y,z
1/2-x,1/2+y,z
1/2+x,1/2-y,z
loop_
_atom_site_type_symbol
_atom_site_label
_atom_site_fract_x
_atom_site_fract_y
_atom_site_fract_z
Si Si1 0.250000 0.750000 0.413710
Si Si2 0.115180 0.618026 0.815491
Si Si3 0.807538 0.937752 0.771199
Si Si4 0.615010 0.260805 0.267850
Si Si5 0.613101 0.563503 0.952009
Si Si6 0.883236 0.339515 0.160786
Si Si7 0.712032 0.860489 0.988256
O O1 0.346845 0.755812 0.357116
O O2 0.239184 0.698294 0.472421
O O3 0.188217 0.571117 0.780231
O O4 0.136952 0.673210 0.759796
O O5 0.139542 0.625151 0.911995
O O6 0.000000 0.599737 0.806737
O O7 0.863886 0.929378 0.856509
O O8 0.854892 0.893182 0.712126
O O9 0.824489 0.000000 0.737463
O O10 0.500000 0.248979 0.268613
O O11 0.662883 0.218379 0.199658
O O12 0.500000 0.584767 0.969670
O O13 0.622821 0.500000 0.979395
O O14 0.696705 0.596874 0.002858
O O15 0.000000 0.331820 0.159198
O O16 0.850538 0.353577 0.069733
#
# Coordination Sequence:
#
# PCOD8186297 Si02
#       7
#     8  16  16  16  16  16  16
#     4  10  20  34  54  78 110 144 176 222 260 308
#     4   9  18  36  59  81 109 142 179 222 263 312
#     4  10  21  35  55  82 107 140 187 226 261 312
#     4   9  18  33  56  82 105 139 181 216 260 315
#     4   9  18  36  60  81 104 139 185 229 262 305
#     4  11  22  36  55  79 110 142 175 222 275 323
#     4  10  21  34  53  83 113 141 176 217 271 326
#
# _framework density 19.695829
#
# number of rings (size 3 to 8) (size 9 to 14) (size 15 to 20)
#    0.000    2.308    0.000    3.692    0.000    6.154 
#    0.000    0.769    0.000    3.692    0.000    0.000 
#    0.000    0.000    0.000    0.000    0.000    0.000 
#
# Total GULP energy -322137.230363 kJ/mol
# GULP energy per Si atom -12389.893476 kJ/mol
# Density = 1.965100 g / cm^3
# Si number density = 19.695829 Si / 1000 Ang^3
#
#
#
# Elastic Constant Matrix: (Units=GPa)
#
#
# Indices 1 2 3 4 5 6 
#
# 1 73.7806 27.6351 6.1784 0.0000 0.0000 0.0000
# 2 27.6351 87.0303 34.3446 0.0000 0.0000 0.0000
# 3 6.1784 34.3446 58.7776 0.0000 0.0000 0.0000
# 4 0.0000 0.0000 0.0000 18.9426 0.0000 0.0000
# 5 0.0000 0.0000 0.0000 0.0000 17.7018 0.0000
# 6 0.0000 0.0000 0.0000 0.0000 0.0000 32.6909
#
#
#
# Elastic Compliance Matrix: (Units=1/GPa)
#
#
# Indices 1 2 3 4 5 6 
#
# 1 0.015501 -0.005562 0.001620 0.000000 0.000000 0.000000
# 2 -0.005562 0.016929 -0.009307 0.000000 0.000000 0.000000
# 3 0.001620 -0.009307 0.022281 0.000000 0.000000 0.000000
# 4 0.000000 0.000000 0.000000 0.052791 0.000000 0.000000
# 5 0.000000 0.000000 0.000000 0.000000 0.056491 0.000000
# 6 0.000000 0.000000 0.000000 0.000000 0.000000 0.030590
#
#
# Mechanical properties :
#
#
# Convention : Reuss Voigt Hill
#
# Bulk Modulus (GPa) = 35.44281 39.54495 37.49388
# Shear Modulus (GPa) = 21.69331 23.96242 22.82787
#
# Velocity S-wave (km/s) = 3.32236 3.49180 3.40813
# Velocity P-wave (km/s) = 5.72290 6.03144 5.87920
#
# Compressibility (1/GPa) = 0.02821447
#
# Stress axis : x y z
#
# Youngs Moduli (GPa) = 64.51140 59.06962 44.88056
#
# Poissons Ratio (x) = 0.32852 -0.07272
# Poissons Ratio (y) = 0.35878 0.41772
# Poissons Ratio (z) = -0.10453 0.54978
#
# Static dielectric constant tensor:
#      x y z
#    x 5.031020 0.000000 0.000000 
#    y 0.000000 3.854420 0.000000 
#    z 0.000000 0.000000 3.417270 
# 
# 
# High freq. dielectric constant tensor:
#      x y z
#    x 1.779310 0.000000 0.000000 
#    y 0.000000 1.773290 0.000000 
#    z 0.000000 0.000000 1.739970 
# 
# From -- ./inp_files/14212.got.cif
#   From: 2010.03.12/outbox.cif.g09.slc.cpg/sg42_8_cif.got.tgz:14212.got - 2010.04.14 02:04:31.
