data_PCOD8186695
_publ_section_title
;
Structure prediction by ZEFSAII (Michael W. Deem and Ramdas Pophale) SiO2 
 PCOD8186695
Probable space group: F M M 2
;
_chemical_formula_sum "Si O2"
_cell_formula_units_Z 112
_cell_length_a 20.595608
_cell_length_b 23.656215
_cell_length_c 10.306640
_cell_angle_alpha 90.000000
_cell_angle_beta 90.000000
_cell_angle_gamma 90.000000
_cell_volume 5021.540650
_symmetry_space_group_name_H-M "F M M 2"
_symmetry_group_IT_number 42
_symmetry_cell_setting 'orthorhombic'
loop_
_space_group_symop_operation_xyz
x,y,z
-x,-y,z
-x,y,z
x,-y,z
x,1/2+y,1/2+z
-x,1/2-y,1/2+z
-x,1/2+y,1/2+z
x,1/2-y,1/2+z
1/2+x,y,1/2+z
1/2-x,-y,1/2+z
1/2-x,y,1/2+z
1/2+x,-y,1/2+z
1/2+x,1/2+y,z
1/2-x,1/2-y,z
1/2-x,1/2+y,z
1/2+x,1/2-y,z
loop_
_atom_site_type_symbol
_atom_site_label
_atom_site_fract_x
_atom_site_fract_y
_atom_site_fract_z
Si Si1 0.428213 0.753895 0.953680
Si Si2 0.873710 0.648020 0.580743
Si Si3 0.761610 0.109780 0.921556
Si Si4 0.425747 0.123867 0.045829
Si Si5 0.307468 0.208376 0.804712
Si Si6 0.310559 0.063979 0.160270
Si Si7 0.424407 0.062969 0.783114
O O1 0.500000 0.755165 0.887250
O O2 0.421665 0.808345 0.046779
O O3 0.371887 0.757179 0.846061
O O4 0.423675 0.696752 0.037438
O O5 0.835921 0.624497 0.456337
O O6 0.819570 0.674275 0.673962
O O7 0.910309 0.596727 0.651348
O O8 0.716679 0.165922 0.917430
O O9 0.764403 0.081280 0.780036
O O10 0.731765 0.068733 0.029518
O O11 0.500000 0.104213 0.074374
O O12 0.400052 0.099407 0.906605
O O13 0.377034 0.100644 0.155377
O O14 0.250000 0.250000 0.768690
O O15 0.333189 0.000000 0.177679
O O16 0.500000 0.054916 0.796096
O O17 0.391934 0.000000 0.781294
#
# Coordination Sequence:
#
# PCOD8186695 Si02
#       7
#    16  16  16  16  16  16  16
#     4  11  24  41  68 105 142 182 231 290 352 426
#     4  12  25  42  70 100 144 185 235 293 358 427
#     4  12  26  45  67 103 138 185 237 290 357 422
#     4  10  22  43  70 103 137 181 240 296 358 428
#     4  12  25  43  70  99 142 184 235 288 356 423
#     4  12  26  46  70 101 140 185 239 295 355 424
#     4  10  21  41  71 104 139 185 243 300 358 428
#
# _framework density 22.303910999999999
#
# number of rings (size 3 to 8) (size 9 to 14) (size 15 to 20)
#    0.000    0.714    5.714    1.286    4.000    2.571 
#    0.000    2.857    0.000    0.000    0.000    0.000 
#    0.000    0.000    0.000    0.000    0.000    0.000 
#
# Total GULP energy -347260.402391 kJ/mol
# GULP energy per Si atom -12402.157228 kJ/mol
# Density = 2.225315 g / cm^3
# Si number density = 22.303911 Si / 1000 Ang^3
#
#
#
# Elastic Constant Matrix: (Units=GPa)
#
#
# Indices 1 2 3 4 5 6 
#
# 1 94.7287 24.8584 24.8760 0.0000 0.0000 0.0000
# 2 24.8584 117.5206 17.5921 0.0000 0.0000 0.0000
# 3 24.8760 17.5921 85.6000 -0.0002 0.0002 0.0000
# 4 0.0000 0.0000 -0.0002 26.5106 0.0001 0.0000
# 5 0.0000 0.0000 0.0002 0.0001 26.3389 0.0000
# 6 0.0000 0.0000 0.0000 0.0000 0.0000 33.1663
#
#
#
# Elastic Compliance Matrix: (Units=1/GPa)
#
#
# Indices 1 2 3 4 5 6 
#
# 1 0.011894 -0.002062 -0.003033 0.000000 0.000000 0.000000
# 2 -0.002062 0.009137 -0.001279 0.000000 0.000000 0.000000
# 3 -0.003033 -0.001279 0.012826 0.000000 0.000000 0.000000
# 4 0.000000 0.000000 0.000000 0.037721 0.000000 0.000000
# 5 0.000000 0.000000 0.000000 0.000000 0.037967 0.000000
# 6 0.000000 0.000000 0.000000 0.000000 0.000000 0.030151
#
#
# Mechanical properties :
#
#
# Convention : Reuss Voigt Hill
#
# Bulk Modulus (GPa) = 47.36935 48.05580 47.71258
# Shear Modulus (GPa) = 31.35215 32.57133 31.96174
#
# Velocity S-wave (km/s) = 3.75331 3.82559 3.78962
# Velocity P-wave (km/s) = 6.32988 6.41141 6.37077
#
# Compressibility (1/GPa) = 0.02111070
#
# Stress axis : x y z
#
# Youngs Moduli (GPa) = 84.07647 109.44910 77.96461
#
# Poissons Ratio (x) = 0.22567 0.23645
# Poissons Ratio (y) = 0.17335 0.09968
# Poissons Ratio (z) = 0.25498 0.13993
#
# Static dielectric constant tensor:
#      x y z
#    x 4.035260 0.000000 0.000000 
#    y 0.000000 4.214990 0.000000 
#    z 0.000000 0.000000 3.743210 
# 
# 
# High freq. dielectric constant tensor:
#      x y z
#    x 1.889670 0.000000 0.000000 
#    y 0.000000 1.883680 0.000000 
#    z 0.000000 0.000000 1.853140 
# 
# From -- ./inp_files/9662.got.cif
#   From: 2010.03.12/outbox.cif.g09.slc.cpg/sg42_5_cif.got.tgz:9662.got - 2010.04.14 02:04:31.
