data_PCOD8186399
_publ_section_title
;
Structure prediction by ZEFSAII (Michael W. Deem and Ramdas Pophale) SiO2 
 PCOD8186399
Probable space group: F M M 2
;
_chemical_formula_sum "Si O2"
_cell_formula_units_Z 112
_cell_length_a 35.200827
_cell_length_b 14.166928
_cell_length_c 11.193681
_cell_angle_alpha 90.000000
_cell_angle_beta 90.000000
_cell_angle_gamma 90.000000
_cell_volume 5582.149708
_symmetry_space_group_name_H-M "F M M 2"
_symmetry_group_IT_number 42
_symmetry_cell_setting 'orthorhombic'
loop_
_space_group_symop_operation_xyz
x,y,z
-x,-y,z
-x,y,z
x,-y,z
x,1/2+y,1/2+z
-x,1/2-y,1/2+z
-x,1/2+y,1/2+z
x,1/2-y,1/2+z
1/2+x,y,1/2+z
1/2-x,-y,1/2+z
1/2-x,y,1/2+z
1/2+x,-y,1/2+z
1/2+x,1/2+y,z
1/2-x,1/2-y,z
1/2-x,1/2+y,z
1/2+x,1/2-y,z
loop_
_atom_site_type_symbol
_atom_site_label
_atom_site_fract_x
_atom_site_fract_y
_atom_site_fract_z
Si Si1 0.347942 0.610825 0.546340
Si Si2 0.233462 0.647615 0.119286
Si Si3 0.270351 0.899181 0.377284
Si Si4 0.543027 0.892592 0.366051
Si Si5 0.896903 0.890561 0.073417
Si Si6 0.342676 0.713395 0.908614
Si Si7 0.097720 0.789656 0.708825
O O1 0.350024 0.500000 0.516978
O O2 0.312360 0.637442 0.632918
O O3 0.342536 0.673520 0.427226
O O4 0.388606 0.647363 0.596685
O O5 0.250000 0.750000 0.099951
O O6 0.250787 0.610032 0.246546
O O7 0.243382 0.594716 0.994578
O O8 0.299101 0.812539 0.386926
O O9 0.291992 0.000000 0.374464
O O10 0.500000 0.863537 0.397355
O O11 0.568222 0.878376 0.483142
O O12 0.557651 0.826789 0.258403
O O13 0.545567 0.000000 0.321430
O O14 0.906893 0.822368 0.184706
O O15 0.891769 0.000000 0.112729
O O16 0.857568 0.848872 0.020897
O O17 0.369124 0.686893 0.800443
#
# Coordination Sequence:
#
# PCOD8186399 Si02
#       7
#    16  16  16  16  16  16  16
#     4  11  22  39  59  83 113 152 199 249 304 361
#     4  12  25  42  61  85 119 156 199 258 314 372
#     4  12  24  41  62  86 115 154 201 253 313 374
#     4   9  18  34  57  87 121 155 195 240 287 349
#     4   9  19  35  55  85 117 150 191 238 295 354
#     4  10  21  37  57  81 110 150 191 246 297 359
#     4  10  20  35  61  86 115 155 197 241 298 354
#
# _framework density 20.063955
#
# number of rings (size 3 to 8) (size 9 to 14) (size 15 to 20)
#    0.000    1.571    2.857    2.571    0.000    2.286 
#    0.000    0.000    0.000    0.000    0.000    0.000 
#    0.000    0.000    0.000    0.000    0.000    0.000 
#
# Total GULP energy -346900.390717 kJ/mol
# GULP energy per Si atom -12389.299668 kJ/mol
# Density = 2.001829 g / cm^3
# Si number density = 20.063955 Si / 1000 Ang^3
#
#
#
# Elastic Constant Matrix: (Units=GPa)
#
#
# Indices 1 2 3 4 5 6 
#
# 1 67.4346 17.3913 16.9132 0.0000 0.0000 0.0000
# 2 17.3913 128.5815 8.2740 0.0000 0.0000 0.0000
# 3 16.9132 8.2740 85.2429 0.0000 0.0000 0.0000
# 4 0.0000 0.0000 0.0000 -0.6320 0.0000 0.0000
# 5 0.0000 0.0000 0.0000 0.0000 18.7457 0.0000
# 6 0.0000 0.0000 0.0000 0.0000 0.0000 24.8006
#
#
#
# Elastic Compliance Matrix: (Units=1/GPa)
#
#
# Indices 1 2 3 4 5 6 
#
# 1 0.016093 -0.001984 -0.003001 0.000000 0.000000 0.000000
# 2 -0.001984 0.008071 -0.000390 0.000000 0.000000 0.000000
# 3 -0.003001 -0.000390 0.012364 0.000000 0.000000 0.000000
# 4 0.000000 0.000000 0.000000 -1.582200 0.000000 0.000000
# 5 0.000000 0.000000 0.000000 0.000000 0.053346 0.000000
# 6 0.000000 0.000000 0.000000 0.000000 0.000000 0.040322
#
#
# Mechanical properties :
#
#
# Convention : Reuss Voigt Hill
#
# Bulk Modulus (GPa) = 38.78932 40.71289 39.75110
# Shear Modulus (GPa) = -3.49001 24.49488 10.50244
#
# Velocity S-wave (km/s) = -1.32031 3.49784 2.29038
# Velocity P-wave (km/s) = 4.12923 6.05383 5.18167
#
# Compressibility (1/GPa) = 0.02578029
#
# Stress axis : x y z
#
# Youngs Moduli (GPa) = 62.13757 123.90737 80.87763
#
# Poissons Ratio (x) = 0.24578 0.24268
# Poissons Ratio (y) = 0.12326 0.03153
# Poissons Ratio (z) = 0.18645 0.04830
#
# Static dielectric constant tensor:
#      x y z
#    x 3.523410 0.000000 0.000000 
#    y 0.000000 3.742400 0.000000 
#    z 0.000000 0.000000 3.741780 
# 
# 
# High freq. dielectric constant tensor:
#      x y z
#    x 1.757050 0.000000 0.000000 
#    y 0.000000 1.792720 0.000000 
#    z 0.000000 0.000000 1.775830 
# 
# From -- ./inp_files/11103.got.cif
#   From: 2010.03.12/outbox.cif.g09.slc.cpg/sg42_6_cif.got.tgz:11103.got - 2010.04.14 02:04:31.
