data_PCOD8186852
_publ_section_title
;
Structure prediction by ZEFSAII (Michael W. Deem and Ramdas Pophale) SiO2 
 PCOD8186852
Probable space group: F M M 2
;
_chemical_formula_sum "Si O2"
_cell_formula_units_Z 96
_cell_length_a 8.743407
_cell_length_b 27.802571
_cell_length_c 20.111796
_cell_angle_alpha 90.000000
_cell_angle_beta 90.000000
_cell_angle_gamma 90.000000
_cell_volume 4888.960278
_symmetry_space_group_name_H-M "F M M 2"
_symmetry_group_IT_number 42
_symmetry_cell_setting 'orthorhombic'
loop_
_space_group_symop_operation_xyz
x,y,z
-x,-y,z
-x,y,z
x,-y,z
x,1/2+y,1/2+z
-x,1/2-y,1/2+z
-x,1/2+y,1/2+z
x,1/2-y,1/2+z
1/2+x,y,1/2+z
1/2-x,-y,1/2+z
1/2-x,y,1/2+z
1/2+x,-y,1/2+z
1/2+x,1/2+y,z
1/2-x,1/2-y,z
1/2-x,1/2+y,z
1/2+x,1/2-y,z
loop_
_atom_site_type_symbol
_atom_site_label
_atom_site_fract_x
_atom_site_fract_y
_atom_site_fract_z
Si Si1 0.320121 0.145524 0.886660
Si Si2 0.823262 0.945611 0.944647
Si Si3 0.679638 0.800768 0.509048
Si Si4 0.679486 0.802276 0.265974
Si Si5 0.177020 0.646895 0.129034
Si Si6 0.321897 0.946168 0.599024
O O1 0.500000 0.152416 0.887769
O O2 0.279178 0.090138 0.901156
O O3 0.247404 0.181264 0.940027
O O4 0.255719 0.159462 0.814954
O O5 0.000000 0.931609 0.934638
O O6 0.792277 0.000000 0.920148
O O7 0.778841 0.940579 0.021634
O O8 0.500000 0.795947 0.501034
O O9 0.750000 0.750000 0.528992
O O10 0.718264 0.837417 0.567669
O O11 0.500000 0.799844 0.279954
O O12 0.750000 0.750000 0.276843
O O13 0.716131 0.820414 0.192047
O O14 0.221638 0.591184 0.142332
O O15 0.000000 0.651288 0.109598
O O16 0.500000 0.935814 0.610395
O O17 0.280674 0.000000 0.623087
#
# Coordination Sequence:
#
# PCOD8186852 Si02
#       6
#    16  16  16  16  16  16
#     4  12  24  39  61  90 121 155 201 248 298 356
#     4   9  18  35  60  90 123 159 197 242 299 354
#     4  12  24  39  60  86 119 154 195 248 301 353
#     4  11  25  44  63  85 119 161 203 247 302 360
#     4  11  23  39  61  91 121 155 200 247 298 356
#     4   9  18  34  59  90 123 160 198 242 298 353
#
# _framework density 19.636077
#
# number of rings (size 3 to 8) (size 9 to 14) (size 15 to 20)
#    0.000    1.333    1.667    6.000    0.000    4.667 
#    0.000    2.500    0.000    1.000    0.000    0.000 
#    0.000    0.000    0.000    0.000    0.000    0.000 
#
# Total GULP energy -297714.721779 kJ/mol
# GULP energy per Si atom -12404.780074 kJ/mol
# Density = 1.959138 g / cm^3
# Si number density = 19.636077 Si / 1000 Ang^3
#
#
#
# Elastic Constant Matrix: (Units=GPa)
#
#
# Indices 1 2 3 4 5 6 
#
# 1 119.8834 35.6070 39.8867 0.0000 0.0000 0.0000
# 2 35.6070 106.9894 16.6292 0.0000 0.0000 0.0000
# 3 39.8867 16.6292 51.0677 0.0000 0.0000 0.0000
# 4 0.0000 0.0000 0.0000 32.9837 0.0000 0.0000
# 5 0.0000 0.0000 0.0000 0.0000 28.3845 0.0000
# 6 0.0000 0.0000 0.0000 0.0000 0.0000 39.7439
#
#
#
# Elastic Compliance Matrix: (Units=1/GPa)
#
#
# Indices 1 2 3 4 5 6 
#
# 1 0.011948 -0.002661 -0.008466 0.000000 0.000000 0.000000
# 2 -0.002661 0.010437 -0.001321 0.000000 0.000000 0.000000
# 3 -0.008466 -0.001321 0.026624 0.000000 0.000000 0.000000
# 4 0.000000 0.000000 0.000000 0.030318 0.000000 0.000000
# 5 0.000000 0.000000 0.000000 0.000000 0.035230 0.000000
# 6 0.000000 0.000000 0.000000 0.000000 0.000000 0.025161
#
#
# Mechanical properties :
#
#
# Convention : Reuss Voigt Hill
#
# Bulk Modulus (GPa) = 41.46688 51.35403 46.41046
# Shear Modulus (GPa) = 28.95982 32.61026 30.78504
#
# Velocity S-wave (km/s) = 3.84451 4.07963 3.96381
# Velocity P-wave (km/s) = 6.39301 6.95707 6.68100
#
# Compressibility (1/GPa) = 0.02411563
#
# Stress axis : x y z
#
# Youngs Moduli (GPa) = 83.69283 95.80859 37.55963
#
# Poissons Ratio (x) = 0.25492 0.31798
# Poissons Ratio (y) = 0.22268 0.04960
# Poissons Ratio (z) = 0.70854 0.12653
#
# Static dielectric constant tensor:
#      x y z
#    x 3.564790 0.000000 0.000000 
#    y 0.000000 3.809130 0.000000 
#    z 0.000000 0.000000 3.380070 
# 
# 
# High freq. dielectric constant tensor:
#      x y z
#    x 1.771210 0.000000 0.000000 
#    y 0.000000 1.784450 0.000000 
#    z 0.000000 0.000000 1.743880 
# 
# From -- ./inp_files/23708.got.cif
#   From: 2010.03.12/outbox.cif.g09.slc.cpg/sg42_12_cif.got.tgz:23708.got - 2010.04.14 02:04:31.
