data_PCOD8186560
_publ_section_title
;
Structure prediction by ZEFSAII (Michael W. Deem and Ramdas Pophale) SiO2 
 PCOD8186560
Probable space group: F M M 2
;
_chemical_formula_sum "Si O2"
_cell_formula_units_Z 96
_cell_length_a 10.684985
_cell_length_b 18.149523
_cell_length_c 25.122274
_cell_angle_alpha 90.000000
_cell_angle_beta 90.000000
_cell_angle_gamma 90.000000
_cell_volume 4871.896802
_symmetry_space_group_name_H-M "F M M 2"
_symmetry_group_IT_number 42
_symmetry_cell_setting 'orthorhombic'
loop_
_space_group_symop_operation_xyz
x,y,z
-x,-y,z
-x,y,z
x,-y,z
x,1/2+y,1/2+z
-x,1/2-y,1/2+z
-x,1/2+y,1/2+z
x,1/2-y,1/2+z
1/2+x,y,1/2+z
1/2-x,-y,1/2+z
1/2-x,y,1/2+z
1/2+x,-y,1/2+z
1/2+x,1/2+y,z
1/2-x,1/2-y,z
1/2-x,1/2+y,z
1/2+x,1/2-y,z
loop_
_atom_site_type_symbol
_atom_site_label
_atom_site_fract_x
_atom_site_fract_y
_atom_site_fract_z
Si Si1 0.500000 0.082419 0.570360
Si Si2 0.748605 0.162496 0.193883
Si Si3 0.857055 0.579523 0.980676
Si Si4 0.251379 0.663175 0.072498
Si Si5 0.000000 0.417222 0.695967
Si Si6 0.142125 0.087781 0.365272
Si Si7 0.360270 0.914186 0.287771
O O1 0.381162 0.129127 0.551436
O O2 0.500000 0.076160 0.633197
O O3 0.500000 0.000000 0.545389
O O4 0.750000 0.250000 0.198951
O O5 0.720533 0.138530 0.132872
O O6 0.642291 0.128652 0.231411
O O7 0.879264 0.128220 0.214633
O O8 0.791300 0.500000 0.993005
O O9 0.810970 0.613955 0.924234
O O10 0.000000 0.563349 0.969631
O O11 0.849328 0.633464 0.030973
O O12 0.250000 0.750000 0.068967
O O13 0.000000 0.500000 0.721369
O O14 0.249477 0.118056 0.325303
O O15 0.000000 0.116153 0.350551
O O16 0.142281 0.000000 0.364404
O O17 0.500000 0.901523 0.312191
O O18 0.337508 0.000000 0.276485
#
# Coordination Sequence:
#
# PCOD8186560 Si02
#       7
#     8  16  16  16   8  16  16
#     4   9  18  34  52  76 110 145 191 239 272 327
#     4  10  22  36  54  79 115 154 186 229 289 345
#     4   9  18  34  58  84 108 139 185 233 274 331
#     4  10  21  35  54  80 114 152 185 226 285 343
#     4   9  18  34  56  78 102 145 205 241 260 329
#     4   8  16  34  58  82 108 144 190 233 277 336
#     4  10  21  36  56  85 116 143 182 236 289 343
#
# _framework density 19.70485
#
# number of rings (size 3 to 8) (size 9 to 14) (size 15 to 20)
#    0.000    2.667    0.000    2.000    3.500    2.667 
#    1.500    2.500    0.000    2.000    0.000    0.000 
#    0.000    0.000    0.000    0.000    0.000    0.000 
#
# Total GULP energy -297386.641676 kJ/mol
# GULP energy per Si atom -12391.110070 kJ/mol
# Density = 1.966000 g / cm^3
# Si number density = 19.704850 Si / 1000 Ang^3
#
#
#
# Elastic Constant Matrix: (Units=GPa)
#
#
# Indices 1 2 3 4 5 6 
#
# 1 94.2472 34.8262 49.3166 0.0000 0.0000 0.0000
# 2 34.8262 77.1865 34.9094 0.0000 0.0000 0.0000
# 3 49.3166 34.9094 120.7378 0.0000 0.0000 0.0000
# 4 0.0000 0.0000 0.0000 19.5898 0.0000 0.0000
# 5 0.0000 0.0000 0.0000 0.0000 27.9167 0.0000
# 6 0.0000 0.0000 0.0000 0.0000 0.0000 26.3601
#
#
#
# Elastic Compliance Matrix: (Units=1/GPa)
#
#
# Indices 1 2 3 4 5 6 
#
# 1 0.014750 -0.004521 -0.004717 0.000000 0.000000 0.000000
# 2 -0.004521 0.016291 -0.002863 0.000000 0.000000 0.000000
# 3 -0.004717 -0.002863 0.011037 0.000000 0.000000 0.000000
# 4 0.000000 0.000000 0.000000 0.051047 0.000000 0.000000
# 5 0.000000 0.000000 0.000000 0.000000 0.035821 0.000000
# 6 0.000000 0.000000 0.000000 0.000000 0.000000 0.037936
#
#
# Mechanical properties :
#
#
# Convention : Reuss Voigt Hill
#
# Bulk Modulus (GPa) = 55.94972 58.91955 57.43464
# Shear Modulus (GPa) = 25.37513 26.31460 25.84487
#
# Velocity S-wave (km/s) = 3.59243 3.65833 3.62553
# Velocity P-wave (km/s) = 6.75744 6.91451 6.83642
#
# Compressibility (1/GPa) = 0.01787319
#
# Stress axis : x y z
#
# Youngs Moduli (GPa) = 67.79853 61.38472 90.60314
#
# Poissons Ratio (x) = 0.27755 0.42740
# Poissons Ratio (y) = 0.30655 0.25943
# Poissons Ratio (z) = 0.31983 0.17577
#
# Static dielectric constant tensor:
#      x y z
#    x 3.659530 0.000000 0.000000 
#    y 0.000000 3.316110 0.000000 
#    z 0.000000 0.000000 3.634110 
# 
# 
# High freq. dielectric constant tensor:
#      x y z
#    x 1.762160 0.000000 0.000000 
#    y 0.000000 1.743750 0.000000 
#    z 0.000000 0.000000 1.763410 
# 
# From -- ./inp_files/28872.got.cif
#   From: 2010.03.12/outbox.cif.g09.slc.cpg/sg42_15_cif.got.tgz:28872.got - 2010.04.14 02:04:31.
