data_PCOD8186601
_publ_section_title
;
Structure prediction by ZEFSAII (Michael W. Deem and Ramdas Pophale) SiO2 
 PCOD8186601
Probable space group: F M M 2
;
_chemical_formula_sum "Si O2"
_cell_formula_units_Z 104
_cell_length_a 13.349164
_cell_length_b 23.204513
_cell_length_c 16.886060
_cell_angle_alpha 90.000000
_cell_angle_beta 90.000000
_cell_angle_gamma 90.000000
_cell_volume 5230.640292
_symmetry_space_group_name_H-M "F M M 2"
_symmetry_group_IT_number 42
_symmetry_cell_setting 'orthorhombic'
loop_
_space_group_symop_operation_xyz
x,y,z
-x,-y,z
-x,y,z
x,-y,z
x,1/2+y,1/2+z
-x,1/2-y,1/2+z
-x,1/2+y,1/2+z
x,1/2-y,1/2+z
1/2+x,y,1/2+z
1/2-x,-y,1/2+z
1/2-x,y,1/2+z
1/2+x,-y,1/2+z
1/2+x,1/2+y,z
1/2-x,1/2-y,z
1/2-x,1/2+y,z
1/2+x,1/2-y,z
loop_
_atom_site_type_symbol
_atom_site_label
_atom_site_fract_x
_atom_site_fract_y
_atom_site_fract_z
Si Si1 0.614532 0.722962 0.307710
Si Si2 0.883898 0.931970 0.163998
Si Si3 0.741003 0.935180 0.816078
Si Si4 0.616621 0.123335 0.926525
Si Si5 0.250000 0.250000 0.165981
Si Si6 0.769213 0.148260 0.049355
Si Si7 0.116446 0.842675 0.891555
O O1 0.500000 0.706959 0.295455
O O2 0.658518 0.675464 0.369245
O O3 0.661081 0.725052 0.220268
O O4 0.633908 0.785611 0.341731
O O5 0.814197 0.912436 0.237131
O O6 0.835775 0.901568 0.088397
O O7 0.000000 0.912659 0.177246
O O8 0.879178 0.000000 0.150411
O O9 0.653796 0.934688 0.883189
O O10 0.833054 0.895370 0.843658
O O11 0.781444 0.000000 0.805215
O O12 0.500000 0.125711 0.940071
O O13 0.666358 0.124090 0.012738
O O14 0.272464 0.196657 0.108566
O O15 0.838473 0.170881 0.977831
O O16 0.000000 0.857847 0.900498
#
# Coordination Sequence:
#
# PCOD8186601 Si02
#       7
#    16  16  16  16   8  16  16
#     4  10  21  37  58  81 106 145 191 228 271 324
#     4  10  21  38  59  83 112 144 182 230 278 327
#     4  10  21  37  59  84 107 141 189 231 272 324
#     4  10  21  38  58  80 110 146 186 231 274 324
#     4  12  22  34  54  82 116 146 178 228 278 324
#     4  11  22  34  54  83 114 147 181 221 280 337
#     4  10  21  38  58  81 112 147 185 228 272 325
#
# _framework density 19.882843000000001
#
# number of rings (size 3 to 8) (size 9 to 14) (size 15 to 20)
#    0.000    1.692    0.000    5.538    0.000    6.769 
#    0.000    0.769    0.000    0.923    0.000    0.000 
#    0.000    0.000    0.000    0.000    0.000    0.000 
#
# Total GULP energy -322244.243888 kJ/mol
# GULP energy per Si atom -12394.009380 kJ/mol
# Density = 1.983759 g / cm^3
# Si number density = 19.882843 Si / 1000 Ang^3
#
#
#
# Elastic Constant Matrix: (Units=GPa)
#
#
# Indices 1 2 3 4 5 6 
#
# 1 23.7136 6.4105 14.7792 0.0000 0.0000 0.0000
# 2 6.4105 37.2499 11.0208 0.0000 0.0000 0.0000
# 3 14.7792 11.0208 98.8515 0.0000 0.0000 0.0000
# 4 0.0000 0.0000 0.0000 25.1071 0.0000 0.0000
# 5 0.0000 0.0000 0.0000 0.0000 26.3551 0.0000
# 6 0.0000 0.0000 0.0000 0.0000 0.0000 27.3259
#
#
#
# Elastic Compliance Matrix: (Units=1/GPa)
#
#
# Indices 1 2 3 4 5 6 
#
# 1 0.047906 -0.006334 -0.006456 0.000000 0.000000 0.000000
# 2 -0.006334 0.028599 -0.002241 0.000000 0.000000 0.000000
# 3 -0.006456 -0.002241 0.011331 0.000000 0.000000 0.000000
# 4 0.000000 0.000000 0.000000 0.039829 0.000000 0.000000
# 5 0.000000 0.000000 0.000000 0.000000 0.037943 0.000000
# 6 0.000000 0.000000 0.000000 0.000000 0.000000 0.036595
#
#
# Mechanical properties :
#
#
# Convention : Reuss Voigt Hill
#
# Bulk Modulus (GPa) = 17.30924 24.91508 21.11216
# Shear Modulus (GPa) = 19.87870 24.26458 22.07164
#
# Velocity S-wave (km/s) = 3.16538 3.49718 3.33541
# Velocity P-wave (km/s) = 4.69936 5.37263 5.04724
#
# Compressibility (1/GPa) = 0.05777262
#
# Stress axis : x y z
#
# Youngs Moduli (GPa) = 20.87422 34.96632 88.25086
#
# Poissons Ratio (x) = 0.22148 0.56976
# Poissons Ratio (y) = 0.13222 0.19781
# Poissons Ratio (z) = 0.13477 0.07837
#
# Static dielectric constant tensor:
#      x y z
#    x 3.688410 0.000000 0.000000 
#    y 0.000000 3.583620 0.000000 
#    z 0.000000 0.000000 3.726220 
# 
# 
# High freq. dielectric constant tensor:
#      x y z
#    x 1.780250 0.000000 0.000000 
#    y 0.000000 1.776360 0.000000 
#    z 0.000000 0.000000 1.782690 
# 
# From -- ./inp_files/14266.got.cif
#   From: 2010.03.12/outbox.cif.g09.slc.cpg/sg42_8_cif.got.tgz:14266.got - 2010.04.14 02:04:31.
