data_PCOD8186291
_publ_section_title
;
Structure prediction by ZEFSAII (Michael W. Deem and Ramdas Pophale) SiO2 
 PCOD8186291
Probable space group: F M M 2
;
_chemical_formula_sum "Si O2"
_cell_formula_units_Z 88
_cell_length_a 27.608444
_cell_length_b 18.847949
_cell_length_c 9.139978
_cell_angle_alpha 90.000000
_cell_angle_beta 90.000000
_cell_angle_gamma 90.000000
_cell_volume 4756.102209
_symmetry_space_group_name_H-M "F M M 2"
_symmetry_group_IT_number 42
_symmetry_cell_setting 'orthorhombic'
loop_
_space_group_symop_operation_xyz
x,y,z
-x,-y,z
-x,y,z
x,-y,z
x,1/2+y,1/2+z
-x,1/2-y,1/2+z
-x,1/2+y,1/2+z
x,1/2-y,1/2+z
1/2+x,y,1/2+z
1/2-x,-y,1/2+z
1/2-x,y,1/2+z
1/2+x,-y,1/2+z
1/2+x,1/2+y,z
1/2-x,1/2-y,z
1/2-x,1/2+y,z
1/2+x,1/2-y,z
loop_
_atom_site_type_symbol
_atom_site_label
_atom_site_fract_x
_atom_site_fract_y
_atom_site_fract_z
Si Si1 0.095851 0.205183 0.718710
Si Si2 0.554885 0.677166 0.027038
Si Si3 0.814579 0.800708 0.226666
Si Si4 0.607246 0.918749 0.731325
Si Si5 0.750000 0.750000 0.480958
Si Si6 0.056288 0.081626 0.536055
O O1 0.058727 0.261439 0.648595
O O2 0.150760 0.232479 0.701045
O O3 0.088530 0.128447 0.645708
O O4 0.086442 0.201083 0.890234
O O5 0.500000 0.665128 0.977945
O O6 0.575508 0.603675 0.091122
O O7 0.843960 0.873378 0.238035
O O8 0.785643 0.795061 0.378279
O O9 0.779068 0.804219 0.086607
O O10 0.574192 0.904610 0.872369
O O11 0.622619 0.000000 0.715733
O O12 0.000000 0.103630 0.545725
O O13 0.063605 0.000000 0.581968
#
# Coordination Sequence:
#
# PCOD8186291 Si02
#       6
#    16  16  16  16   8  16
#     4  11  21  35  54  79 110 141 180 225 265 313
#     4  11  21  32  52  79 109 147 185 222 257 299
#     4  10  20  36  57  81 102 133 172 220 276 324
#     4  10  21  37  55  77 110 146 180 218 263 315
#     4  10  20  36  60  80 100 124 170 226 276 334
#     4  10  20  34  53  78 112 153 187 215 252 303
#
# _framework density 18.502545999999999
#
# number of rings (size 3 to 8) (size 9 to 14) (size 15 to 20)
#    0.000    1.636    0.000    7.636    0.000    1.818 
#    0.000    0.909    0.000    4.364    0.000    0.000 
#    0.000    0.000    0.000    0.000    0.000    0.000 
#
# Total GULP energy -272867.774268 kJ/mol
# GULP energy per Si atom -12403.080649 kJ/mol
# Density = 1.846043 g / cm^3
# Si number density = 18.502546 Si / 1000 Ang^3
#
#
#
# Elastic Constant Matrix: (Units=GPa)
#
#
# Indices 1 2 3 4 5 6 
#
# 1 108.4346 52.1785 40.2226 0.0000 0.0000 0.0000
# 2 52.1785 117.1659 51.3446 0.0000 0.0000 0.0000
# 3 40.2226 51.3446 113.2897 -0.0002 0.0000 0.0000
# 4 0.0000 0.0000 -0.0002 28.5954 0.0000 0.0000
# 5 0.0000 0.0000 0.0000 0.0000 34.2345 0.0000
# 6 0.0000 0.0000 0.0000 0.0000 0.0000 24.1343
#
#
#
# Elastic Compliance Matrix: (Units=1/GPa)
#
#
# Indices 1 2 3 4 5 6 
#
# 1 0.012213 -0.004416 -0.002335 0.000000 0.000000 0.000000
# 2 -0.004416 0.012247 -0.003983 0.000000 0.000000 0.000000
# 3 -0.002335 -0.003983 0.011461 0.000000 0.000000 0.000000
# 4 0.000000 0.000000 0.000000 0.034971 0.000000 0.000000
# 5 0.000000 0.000000 0.000000 0.000000 0.029210 0.000000
# 6 0.000000 0.000000 0.000000 0.000000 0.000000 0.041435
#
#
# Mechanical properties :
#
#
# Convention : Reuss Voigt Hill
#
# Bulk Modulus (GPa) = 69.18413 69.59796 69.39104
# Shear Modulus (GPa) = 29.79366 30.40247 30.09806
#
# Velocity S-wave (km/s) = 4.01714 4.05798 4.03761
# Velocity P-wave (km/s) = 7.68046 7.72355 7.70203
#
# Compressibility (1/GPa) = 0.01445418
#
# Stress axis : x y z
#
# Youngs Moduli (GPa) = 81.87919 81.65474 87.25338
#
# Poissons Ratio (x) = 0.36057 0.20373
# Poissons Ratio (y) = 0.36156 0.34749
# Poissons Ratio (z) = 0.19118 0.32520
#
# Static dielectric constant tensor:
#      x y z
#    x 3.439140 0.000000 0.000000 
#    y 0.000000 3.321520 0.000000 
#    z 0.000000 0.000000 3.487090 
# 
# 
# High freq. dielectric constant tensor:
#      x y z
#    x 1.718960 0.000000 0.000000 
#    y 0.000000 1.702910 0.000000 
#    z 0.000000 0.000000 1.732430 
# 
# From -- ./inp_files/3632.got.cif
#   From: 2010.03.12/outbox.cif.g09.slc.cpg/sg42_2_cif.got.tgz:3632.got - 2010.04.14 02:04:31.
