data_PCOD8186990
_publ_section_title
;
Structure prediction by ZEFSAII (Michael W. Deem and Ramdas Pophale) SiO2 
 PCOD8186990
Probable space group: F D D 2
;
_chemical_formula_sum "Si O2"
_cell_formula_units_Z 96
_cell_length_a 31.738581
_cell_length_b 12.273354
_cell_length_c 12.265768
_cell_angle_alpha 90.000000
_cell_angle_beta 90.000000
_cell_angle_gamma 90.000000
_cell_volume 4777.993039
_symmetry_space_group_name_H-M "F D D 2"
_symmetry_group_IT_number 43
_symmetry_cell_setting 'orthorhombic'
loop_
_space_group_symop_operation_xyz
x,y,z
-x,-y,z
1/4-x,1/4+y,1/4+z
1/4+x,1/4-y,1/4+z
x,1/2+y,1/2+z
-x,1/2-y,1/2+z
1/4-x,3/4+y,3/4+z
1/4+x,3/4-y,3/4+z
1/2+x,y,1/2+z
1/2-x,-y,1/2+z
3/4-x,1/4+y,3/4+z
3/4+x,1/4-y,3/4+z
1/2+x,1/2+y,z
1/2-x,1/2-y,z
3/4-x,3/4+y,1/4+z
3/4+x,3/4-y,1/4+z
loop_
_atom_site_type_symbol
_atom_site_label
_atom_site_fract_x
_atom_site_fract_y
_atom_site_fract_z
Si Si1 0.834764 0.667516 0.654740
Si Si2 0.090291 0.995447 0.820952
Si Si3 0.751904 0.428174 0.390800
Si Si4 0.500000 0.000000 0.320895
Si Si5 0.159670 0.423808 0.887298
Si Si6 0.084109 0.262050 0.227239
Si Si7 0.000000 0.500000 0.960428
O O1 0.839913 0.655586 0.783914
O O2 0.873760 0.738741 0.614339
O O3 0.833878 0.553299 0.590661
O O4 0.790610 0.730240 0.633542
O O5 0.044779 0.006094 0.885324
O O6 0.088800 0.890736 0.743350
O O7 0.098704 0.101152 0.745105
O O8 0.126307 0.973405 0.907494
O O9 0.752041 0.355984 0.497868
O O10 0.705531 0.484482 0.389301
O O11 0.791010 0.511789 0.407518
O O12 0.759154 0.356982 0.282667
#
# Coordination Sequence:
#
# PCOD8186990 Si02
#       7
#    16  16  16   8  16  16   8
#     4  11  22  35  55  85 118 146 183 241 298 342
#     4  10  19  36  58  79 106 146 190 227 273 340
#     4   8  16  33  55  75  99 140 192 229 262 327
#     4   7  14  30  54  75  96 130 184 231 252 301
#     4  10  20  37  59  81 108 151 197 235 279 352
#     4  11  21  35  54  84 116 142 177 236 292 332
#     4   9  18  36  56  75 102 150 198 229 272 353
#
# _framework density 20.092119
#
# number of rings (size 3 to 8) (size 9 to 14) (size 15 to 20)
#    0.000    2.333    0.000    6.000    0.000    1.333 
#    0.000   13.333    0.000    1.000    0.000    0.000 
#    0.000    0.000    0.000    0.000    0.000    0.000 
#
# Total GULP energy -297352.291495 kJ/mol
# GULP energy per Si atom -12389.678812 kJ/mol
# Density = 2.004639 g / cm^3
# Si number density = 20.092119 Si / 1000 Ang^3
#
#
#
# Elastic Constant Matrix: (Units=GPa)
#
#
# Indices 1 2 3 4 5 6 
#
# 1 199.9329 39.6002 39.4249 0.0000 0.0000 0.0000
# 2 39.6002 52.2515 6.9023 0.0000 0.0000 0.0000
# 3 39.4249 6.9023 51.2351 0.0000 0.0000 0.0000
# 4 0.0000 0.0000 0.0000 23.3854 0.0000 0.0000
# 5 0.0000 0.0000 0.0000 0.0000 30.3108 0.0000
# 6 0.0000 0.0000 0.0000 0.0000 0.0000 30.7480
#
#
#
# Elastic Compliance Matrix: (Units=1/GPa)
#
#
# Indices 1 2 3 4 5 6 
#
# 1 0.006817 -0.004555 -0.004632 0.000000 0.000000 0.000000
# 2 -0.004555 0.022528 0.000470 0.000000 0.000000 0.000000
# 3 -0.004632 0.000470 0.023019 0.000000 0.000000 0.000000
# 4 0.000000 0.000000 0.000000 0.042762 0.000000 0.000000
# 5 0.000000 0.000000 0.000000 0.000000 0.032992 0.000000
# 6 0.000000 0.000000 0.000000 0.000000 0.000000 0.032522
#
#
# Mechanical properties :
#
#
# Convention : Reuss Voigt Hill
#
# Bulk Modulus (GPa) = 28.62851 52.80825 40.71838
# Shear Modulus (GPa) = 26.35496 31.38830 28.87163
#
# Velocity S-wave (km/s) = 3.62568 3.95678 3.79484
# Velocity P-wave (km/s) = 5.63976 6.87131 6.28577
#
# Compressibility (1/GPa) = 0.03493021
#
# Stress axis : x y z
#
# Youngs Moduli (GPa) = 146.68672 44.38913 43.44234
#
# Poissons Ratio (x) = 0.20218 0.20123
# Poissons Ratio (y) = 0.66812 -0.02041
# Poissons Ratio (z) = 0.67948 -0.02086
#
# Static dielectric constant tensor:
#      x y z
#    x 4.681670 0.000000 0.000000 
#    y 0.000000 3.244090 0.000000 
#    z 0.000000 0.000000 3.227710 
# 
# 
# High freq. dielectric constant tensor:
#      x y z
#    x 1.820140 0.000000 0.000000 
#    y 0.000000 1.749690 0.000000 
#    z 0.000000 0.000000 1.748220 
# 
# From -- ./inp_files/6289.got.cif
#   From: 2010.06.25/outbox.cif.g09.slc.cpg/sg43_4_cif.got.tgz:6289.got - 2010.06.26 16:48:59.
