data_PCOD8186354
_publ_section_title
;
Structure prediction by ZEFSAII (Michael W. Deem and Ramdas Pophale) SiO2 
 PCOD8186354
Probable space group: F M M 2
;
_chemical_formula_sum "Si O2"
_cell_formula_units_Z 96
_cell_length_a 18.575470
_cell_length_b 9.041385
_cell_length_c 30.278986
_cell_angle_alpha 90.000000
_cell_angle_beta 90.000000
_cell_angle_gamma 90.000000
_cell_volume 5085.294409
_symmetry_space_group_name_H-M "F M M 2"
_symmetry_group_IT_number 42
_symmetry_cell_setting 'orthorhombic'
loop_
_space_group_symop_operation_xyz
x,y,z
-x,-y,z
-x,y,z
x,-y,z
x,1/2+y,1/2+z
-x,1/2-y,1/2+z
-x,1/2+y,1/2+z
x,1/2-y,1/2+z
1/2+x,y,1/2+z
1/2-x,-y,1/2+z
1/2-x,y,1/2+z
1/2+x,-y,1/2+z
1/2+x,1/2+y,z
1/2-x,1/2-y,z
1/2-x,1/2+y,z
1/2+x,1/2-y,z
loop_
_atom_site_type_symbol
_atom_site_label
_atom_site_fract_x
_atom_site_fract_y
_atom_site_fract_z
Si Si1 0.083040 0.328003 0.883730
Si Si2 0.917121 0.327929 0.544177
Si Si3 0.085123 0.167389 0.632109
Si Si4 0.678519 0.170772 0.802655
Si Si5 0.172905 0.174533 0.958675
Si Si6 0.823766 0.674848 0.702758
O O1 0.093601 0.500000 0.895805
O O2 0.111722 0.293739 0.834510
O O3 0.126688 0.228591 0.917519
O O4 0.000000 0.281327 0.885206
O O5 0.908290 0.500000 0.555311
O O6 0.888139 0.236255 0.585948
O O7 0.869158 0.279578 0.502832
O O8 0.000000 0.289349 0.533131
O O9 0.112621 0.264039 0.672735
O O10 0.000000 0.173449 0.634256
O O11 0.114118 0.000000 0.635435
O O12 0.750000 0.250000 0.820550
O O13 0.658412 0.222053 0.753130
O O14 0.698157 0.000000 0.802691
O O15 0.250000 0.250000 0.958753
O O16 0.183164 0.000000 0.954927
O O17 0.817627 0.500000 0.697026
O O18 0.750000 0.750000 0.686956
#
# Coordination Sequence:
#
# PCOD8186354 Si02
#       6
#    16  16  16  16  16  16
#     4  10  21  37  57  82 112 144 179 221 269 321
#     4   9  19  37  58  78 104 141 183 225 270 321
#     4  10  21  36  55  81 112 144 180 223 270 321
#     4   9  19  35  55  79 107 142 182 223 268 319
#     4  11  23  38  57  82 111 143 181 223 268 320
#     4  10  20  35  56  80 109 145 183 224 270 320
#
# _framework density 18.877965
#
# number of rings (size 3 to 8) (size 9 to 14) (size 15 to 20)
#    0.000    2.167    0.000    2.500    0.000    7.333 
#    0.000    5.000    0.000    0.000    0.000    0.000 
#    0.000    0.000    0.000    0.000    0.000    0.000 
#
# Total GULP energy -297683.491834 kJ/mol
# GULP energy per Si atom -12403.478826 kJ/mol
# Density = 1.883500 g / cm^3
# Si number density = 18.877965 Si / 1000 Ang^3
#
#
#
# Elastic Constant Matrix: (Units=GPa)
#
#
# Indices 1 2 3 4 5 6 
#
# 1 101.8430 45.6525 64.4436 0.0000 0.0000 0.0000
# 2 45.6525 82.3976 56.5907 0.0000 0.0000 0.0000
# 3 64.4436 56.5907 122.3762 0.0000 0.0000 0.0000
# 4 0.0000 0.0000 0.0000 30.9834 0.0000 0.0000
# 5 0.0000 0.0000 0.0000 0.0000 34.3875 0.0000
# 6 0.0000 0.0000 0.0000 0.0000 0.0000 25.2458
#
#
#
# Elastic Compliance Matrix: (Units=1/GPa)
#
#
# Indices 1 2 3 4 5 6 
#
# 1 0.015763 -0.004444 -0.006246 0.000000 0.000000 0.000000
# 2 -0.004444 0.019038 -0.006463 0.000000 0.000000 0.000000
# 3 -0.006246 -0.006463 0.014450 0.000000 0.000000 0.000000
# 4 0.000000 0.000000 0.000000 0.032275 0.000000 0.000000
# 5 0.000000 0.000000 0.000000 0.000000 0.029080 0.000000
# 6 0.000000 0.000000 0.000000 0.000000 0.000000 0.039611
#
#
# Mechanical properties :
#
#
# Convention : Reuss Voigt Hill
#
# Bulk Modulus (GPa) = 66.91743 71.11006 69.01375
# Shear Modulus (GPa) = 26.38457 27.45200 26.91829
#
# Velocity S-wave (km/s) = 3.74256 3.81751 3.78022
# Velocity P-wave (km/s) = 7.36206 7.56183 7.46261
#
# Compressibility (1/GPa) = 0.01494379
#
# Stress axis : x y z
#
# Youngs Moduli (GPa) = 63.43795 52.52789 69.20631
#
# Poissons Ratio (x) = 0.23343 0.43226
# Poissons Ratio (y) = 0.28192 0.44730
# Poissons Ratio (z) = 0.39623 0.33951
#
# Static dielectric constant tensor:
#      x y z
#    x 3.479310 0.000000 0.000000 
#    y 0.000000 3.533650 0.000000 
#    z 0.000000 0.000000 3.618880 
# 
# 
# High freq. dielectric constant tensor:
#      x y z
#    x 1.730630 0.000000 0.000000 
#    y 0.000000 1.738230 0.000000 
#    z 0.000000 0.000000 1.743720 
# 
# From -- ./inp_files/31425.got.cif
#   From: 2010.03.12/outbox.cif.g09.slc.cpg/sg42_16_cif.got.tgz:31425.got - 2010.04.14 02:04:31.
