data_PCOD8186993
_publ_section_title
;
Structure prediction by ZEFSAII (Michael W. Deem and Ramdas Pophale) SiO2 
 PCOD8186993
Probable space group: F D D 2
;
_chemical_formula_sum "Si O2"
_cell_formula_units_Z 96
_cell_length_a 26.824276
_cell_length_b 22.503243
_cell_length_c 7.656801
_cell_angle_alpha 90.000000
_cell_angle_beta 90.000000
_cell_angle_gamma 90.000000
_cell_volume 4621.899298
_symmetry_space_group_name_H-M "F D D 2"
_symmetry_group_IT_number 43
_symmetry_cell_setting 'orthorhombic'
loop_
_space_group_symop_operation_xyz
x,y,z
-x,-y,z
1/4-x,1/4+y,1/4+z
1/4+x,1/4-y,1/4+z
x,1/2+y,1/2+z
-x,1/2-y,1/2+z
1/4-x,3/4+y,3/4+z
1/4+x,3/4-y,3/4+z
1/2+x,y,1/2+z
1/2-x,-y,1/2+z
3/4-x,1/4+y,3/4+z
3/4+x,1/4-y,3/4+z
1/2+x,1/2+y,z
1/2-x,1/2-y,z
3/4-x,3/4+y,1/4+z
3/4+x,3/4-y,1/4+z
loop_
_atom_site_type_symbol
_atom_site_label
_atom_site_fract_x
_atom_site_fract_y
_atom_site_fract_z
Si Si1 0.979992 0.936223 0.918580
Si Si2 0.713748 0.069770 0.723766
Si Si3 0.316111 0.622807 0.361207
Si Si4 0.774547 0.967876 0.855212
Si Si5 0.825780 0.896148 0.561405
Si Si6 0.268418 0.187436 0.555787
O O1 0.939003 0.914187 0.781691
O O2 0.024024 0.887306 0.918063
O O3 0.956801 0.942604 0.113110
O O4 0.000000 0.000000 0.854622
O O5 0.698933 0.034617 0.545962
O O6 0.670519 0.069867 0.872510
O O7 0.762264 0.036178 0.807643
O O8 0.279009 0.566692 0.363219
O O9 0.374889 0.607388 0.353416
O O10 0.308032 0.661749 0.188917
O O11 0.813646 0.942735 0.715343
O O12 0.780010 0.852647 0.542595
O O13 0.250000 0.250000 0.628605
#
# Coordination Sequence:
#
# PCOD8186993 Si02
#       6
#    16  16  16  16  16  16
#     4   9  19  37  61  82 115 154 196 239 295 345
#     4  10  19  36  61  83 113 157 188 239 290 343
#     4  10  21  35  57  87 116 151 197 246 290 354
#     4  10  20  37  59  83 119 154 191 243 294 346
#     4  10  21  36  56  88 114 151 200 236 298 351
#     4   9  19  37  58  77 116 156 188 240 292 346
#
# _framework density 20.770679999999999
#
# number of rings (size 3 to 8) (size 9 to 14) (size 15 to 20)
#    0.000    2.333    1.667    0.500    0.000    2.667 
#    0.000    3.333    0.000    0.000    0.000    0.000 
#    0.000    0.000    0.000    0.000    0.000    0.000 
#
# Total GULP energy -297398.385496 kJ/mol
# GULP energy per Si atom -12391.599396 kJ/mol
# Density = 2.072340 g / cm^3
# Si number density = 20.770680 Si / 1000 Ang^3
#
#
#
# Elastic Constant Matrix: (Units=GPa)
#
#
# Indices 1 2 3 4 5 6 
#
# 1 78.3964 3.0889 27.7021 0.0026 0.0026 -0.0009
# 2 3.0889 78.8696 10.6399 0.0085 0.0034 -0.0013
# 3 27.7021 10.6399 135.2222 0.0092 0.0067 -0.0018
# 4 0.0026 0.0085 0.0092 37.9834 0.0019 0.0010
# 5 0.0026 0.0034 0.0067 0.0019 19.3584 0.0014
# 6 -0.0009 -0.0013 -0.0018 0.0010 0.0014 12.6231
#
#
#
# Elastic Compliance Matrix: (Units=1/GPa)
#
#
# Indices 1 2 3 4 5 6 
#
# 1 0.013753 -0.000160 -0.002805 0.000000 -0.000001 0.000001
# 2 -0.000160 0.012817 -0.000976 -0.000003 -0.000002 0.000001
# 3 -0.002805 -0.000976 0.008047 -0.000002 -0.000002 0.000001
# 4 0.000000 -0.000003 -0.000002 0.026327 -0.000003 -0.000002
# 5 -0.000001 -0.000002 -0.000002 -0.000003 0.051657 -0.000006
# 6 0.000001 0.000001 0.000001 -0.000002 -0.000006 0.079220
#
#
# Mechanical properties :
#
#
# Convention : Reuss Voigt Hill
#
# Bulk Modulus (GPa) = 37.40387 41.70553 39.55470
# Shear Modulus (GPa) = 23.96768 30.73014 27.34891
#
# Velocity S-wave (km/s) = 3.40062 3.85059 3.63258
# Velocity P-wave (km/s) = 5.78499 6.31602 6.05633
#
# Compressibility (1/GPa) = 0.02673520
#
# Stress axis : x y z
#
# Youngs Moduli (GPa) = 72.71064 78.02100 124.27566
#
# Poissons Ratio (x) = 0.01250 0.34858
# Poissons Ratio (y) = 0.01165 0.12125
# Poissons Ratio (z) = 0.20395 0.07612
#
# Static dielectric constant tensor:
#      x y z
#    x 3.190520 -0.000080 -0.000010 
#    y -0.000080 3.632440 0.000070 
#    z -0.000010 0.000070 4.432680 
# 
# 
# High freq. dielectric constant tensor:
#      x y z
#    x 1.755710 0.000000 0.000000 
#    y 0.000000 1.811180 0.000000 
#    z 0.000000 0.000000 1.843760 
# 
# From -- ./inp_files/3729.got.cif
#   From: 2010.06.25/outbox.cif.g09.slc.cpg/sg43_2_cif.got.tgz:3729.got - 2010.06.26 16:48:59.
