data_PCOD8186316
_publ_section_title
;
Structure prediction by ZEFSAII (Michael W. Deem and Ramdas Pophale) SiO2 
 PCOD8186316
Probable space group: F M M 2
;
_chemical_formula_sum "Si O2"
_cell_formula_units_Z 96
_cell_length_a 14.110418
_cell_length_b 21.049850
_cell_length_c 18.225082
_cell_angle_alpha 90.000000
_cell_angle_beta 90.000000
_cell_angle_gamma 90.000000
_cell_volume 5413.253629
_symmetry_space_group_name_H-M "F M M 2"
_symmetry_group_IT_number 42
_symmetry_cell_setting 'orthorhombic'
loop_
_space_group_symop_operation_xyz
x,y,z
-x,-y,z
-x,y,z
x,-y,z
x,1/2+y,1/2+z
-x,1/2-y,1/2+z
-x,1/2+y,1/2+z
x,1/2-y,1/2+z
1/2+x,y,1/2+z
1/2-x,-y,1/2+z
1/2-x,y,1/2+z
1/2+x,-y,1/2+z
1/2+x,1/2+y,z
1/2-x,1/2-y,z
1/2-x,1/2+y,z
1/2+x,1/2-y,z
loop_
_atom_site_type_symbol
_atom_site_label
_atom_site_fract_x
_atom_site_fract_y
_atom_site_fract_z
Si Si1 0.722705 0.572959 0.405570
Si Si2 0.895574 0.073950 0.266968
Si Si3 0.291751 0.820203 0.499089
Si Si4 0.297320 0.837807 0.663614
Si Si5 0.109404 0.287097 0.214989
Si Si6 0.394729 0.356885 0.864738
O O1 0.718277 0.500000 0.434248
O O2 0.638574 0.588704 0.349488
O O3 0.717293 0.624501 0.472178
O O4 0.821666 0.584010 0.360939
O O5 0.824097 0.097645 0.204185
O O6 0.000000 0.104485 0.258126
O O7 0.900040 0.000000 0.254048
O O8 0.250000 0.750000 0.503018
O O9 0.329730 0.839476 0.579160
O O10 0.378560 0.818714 0.441252
O O11 0.183011 0.827928 0.665554
O O12 0.357099 0.785276 0.708390
O O13 0.122040 0.307258 0.299240
O O14 0.000000 0.296419 0.188584
O O15 0.500000 0.385332 0.862176
#
# Coordination Sequence:
#
# PCOD8186316 Si02
#       6
#    16  16  16  16  16  16
#     4   9  20  37  57  80 112 146 183 228 275 330
#     4  10  21  37  59  84 107 143 191 233 278 336
#     4  10  21  36  55  79 116 148 181 228 279 336
#     4  11  20  37  56  79 117 146 175 233 290 330
#     4  10  20  34  56  82 107 143 187 226 275 335
#     4   9  20  35  57  79 106 142 186 227 271 334
#
# _framework density 17.734252000000001
#
# number of rings (size 3 to 8) (size 9 to 14) (size 15 to 20)
#    1.000    1.167    3.333    0.500    4.667    2.333 
#    0.000    0.833    0.000    0.500    0.000    0.000 
#    0.000    0.000    0.000    0.000    0.000    0.000 
#
# Total GULP energy -297346.333840 kJ/mol
# GULP energy per Si atom -12389.430577 kJ/mol
# Density = 1.769389 g / cm^3
# Si number density = 17.734252 Si / 1000 Ang^3
#
#
#
# Elastic Constant Matrix: (Units=GPa)
#
#
# Indices 1 2 3 4 5 6 
#
# 1 93.3806 21.2936 20.1288 0.0000 0.0000 0.0000
# 2 21.2936 76.9655 41.7541 0.0000 0.0000 0.0000
# 3 20.1288 41.7541 98.6480 0.0000 0.0000 0.0000
# 4 0.0000 0.0000 0.0000 19.1037 0.0000 0.0000
# 5 0.0000 0.0000 0.0000 0.0000 12.6178 0.0000
# 6 0.0000 0.0000 0.0000 0.0000 0.0000 20.8004
#
#
#
# Elastic Compliance Matrix: (Units=1/GPa)
#
#
# Indices 1 2 3 4 5 6 
#
# 1 0.011558 -0.002490 -0.001304 0.000000 0.000000 0.000000
# 2 -0.002490 0.017402 -0.006858 0.000000 0.000000 0.000000
# 3 -0.001304 -0.006858 0.013306 0.000000 0.000000 0.000000
# 4 0.000000 0.000000 0.000000 0.052346 0.000000 0.000000
# 5 0.000000 0.000000 0.000000 0.000000 0.079253 0.000000
# 6 0.000000 0.000000 0.000000 0.000000 0.000000 0.048076
#
#
# Mechanical properties :
#
#
# Convention : Reuss Voigt Hill
#
# Bulk Modulus (GPa) = 47.70611 48.37188 48.03900
# Shear Modulus (GPa) = 19.98149 22.89223 21.43686
#
# Velocity S-wave (km/s) = 3.36030 3.59674 3.48053
# Velocity P-wave (km/s) = 6.48186 6.67711 6.58021
#
# Compressibility (1/GPa) = 0.02096168
#
# Stress axis : x y z
#
# Youngs Moduli (GPa) = 86.52146 57.46470 75.15535
#
# Poissons Ratio (x) = 0.14309 0.09803
# Poissons Ratio (y) = 0.21544 0.51538
# Poissons Ratio (z) = 0.11286 0.39407
#
# Static dielectric constant tensor:
#      x y z
#    x 3.401980 0.000000 0.000000 
#    y 0.000000 3.103660 0.000000 
#    z 0.000000 0.000000 3.231140 
# 
# 
# High freq. dielectric constant tensor:
#      x y z
#    x 1.680360 0.000000 0.000000 
#    y 0.000000 1.674750 0.000000 
#    z 0.000000 0.000000 1.679460 
# 
# From -- ./inp_files/25349.got.cif
#   From: 2010.03.12/outbox.cif.g09.slc.cpg/sg42_13_cif.got.tgz:25349.got - 2010.04.14 02:04:31.
