data_PCOD8186879
_publ_section_title
;
Structure prediction by ZEFSAII (Michael W. Deem and Ramdas Pophale) SiO2 
 PCOD8186879
Probable space group: F M M 2
;
_chemical_formula_sum "Si O2"
_cell_formula_units_Z 64
_cell_length_a 14.927582
_cell_length_b 9.937546
_cell_length_c 20.330206
_cell_angle_alpha 90.000000
_cell_angle_beta 90.000000
_cell_angle_gamma 90.000000
_cell_volume 3015.854580
_symmetry_space_group_name_H-M "F M M 2"
_symmetry_group_IT_number 42
_symmetry_cell_setting 'orthorhombic'
loop_
_space_group_symop_operation_xyz
x,y,z
-x,-y,z
-x,y,z
x,-y,z
x,1/2+y,1/2+z
-x,1/2-y,1/2+z
-x,1/2+y,1/2+z
x,1/2-y,1/2+z
1/2+x,y,1/2+z
1/2-x,-y,1/2+z
1/2-x,y,1/2+z
1/2+x,-y,1/2+z
1/2+x,1/2+y,z
1/2-x,1/2-y,z
1/2-x,1/2+y,z
1/2+x,1/2-y,z
loop_
_atom_site_type_symbol
_atom_site_label
_atom_site_fract_x
_atom_site_fract_y
_atom_site_fract_z
Si Si1 0.000000 0.283132 0.521050
Si Si2 0.835440 0.500000 0.728535
Si Si3 0.829496 0.347241 0.434046
Si Si4 0.500000 0.500000 0.584382
Si Si5 0.000000 0.500000 0.630615
Si Si6 0.101805 0.259896 0.294591
Si Si7 0.635023 0.500000 0.699159
O O1 0.913503 0.322410 0.480105
O O2 0.000000 0.126162 0.535948
O O3 0.000000 0.364580 0.588812
O O4 0.839930 0.369618 0.775015
O O5 0.741757 0.500000 0.689919
O O6 0.912863 0.500000 0.675319
O O7 0.796056 0.500000 0.441961
O O8 0.750000 0.250000 0.456939
O O9 0.855429 0.323947 0.358808
O O10 0.590076 0.500000 0.627719
O O11 0.102048 0.367853 0.236604
O O12 0.000000 0.213931 0.308235
#
# Coordination Sequence:
#
# PCOD8186879 Si02
#       7
#     8   8  16   4   4  16   8
#     4  12  28  48  75  95 143 193 242 287 341 415
#     4  12  26  43  71 108 141 181 229 288 346 411
#     4  12  27  48  75 105 139 183 232 294 360 422
#     4  12  28  44  72 108 136 190 250 286 338 412
#     4  12  24  48  70  98 138 192 242 280 340 410
#     4  12  23  44  73 105 142 180 222 285 361 422
#     4  12  24  45  73 102 141 181 227 286 352 413
#
# _framework density 21.221181999999999
#
# number of rings (size 3 to 8) (size 9 to 14) (size 15 to 20)
#    0.000    0.000    6.250    3.750    3.500    2.000 
#    0.000    0.000    0.000    0.000    0.000    0.000 
#    0.000    0.000    0.000    0.000    0.000    0.000 
#
# Total GULP energy -198550.197357 kJ/mol
# GULP energy per Si atom -12409.387335 kJ/mol
# Density = 2.117288 g / cm^3
# Si number density = 21.221182 Si / 1000 Ang^3
#
#
#
# Elastic Constant Matrix: (Units=GPa)
#
#
# Indices 1 2 3 4 5 6 
#
# 1 160.8391 36.1240 30.5616 0.0000 0.0000 0.0000
# 2 36.1240 178.8434 44.5206 0.0000 0.0000 0.0000
# 3 30.5616 44.5206 85.9231 0.0000 0.0000 0.0000
# 4 0.0000 0.0000 0.0000 42.7981 0.0000 0.0000
# 5 0.0000 0.0000 0.0000 0.0000 -23.8932 0.0000
# 6 0.0000 0.0000 0.0000 0.0000 0.0000 29.3865
#
#
#
# Elastic Compliance Matrix: (Units=1/GPa)
#
#
# Indices 1 2 3 4 5 6 
#
# 1 0.006788 -0.000884 -0.001956 0.000000 0.000000 0.000000
# 2 -0.000884 0.006535 -0.003071 0.000000 0.000000 0.000000
# 3 -0.001956 -0.003071 0.013926 0.000000 0.000000 0.000000
# 4 0.000000 0.000000 0.000000 0.023366 0.000000 0.000000
# 5 0.000000 0.000000 0.000000 0.000000 -0.041853 0.000000
# 6 0.000000 0.000000 0.000000 0.000000 0.000000 0.034029
#
#
# Mechanical properties :
#
#
# Convention : Reuss Voigt Hill
#
# Bulk Modulus (GPa) = 64.83210 72.00201 68.41705
# Shear Modulus (GPa) = 83.67558 30.61824 57.14691
#
# Velocity S-wave (km/s) = 6.28616 3.80256 5.19496
# Velocity P-wave (km/s) = 9.12714 7.29947 8.26399
#
# Compressibility (1/GPa) = 0.01542446
#
# Stress axis : x y z
#
# Youngs Moduli (GPa) = 147.32633 153.03056 71.81037
#
# Poissons Ratio (x) = 0.13529 0.14048
# Poissons Ratio (y) = 0.13024 0.22056
# Poissons Ratio (z) = 0.28820 0.47003
#
# Static dielectric constant tensor:
#      x y z
#    x 4.064320 0.000000 0.000000 
#    y 0.000000 4.397240 0.000000 
#    z 0.000000 0.000000 3.767930 
# 
# 
# High freq. dielectric constant tensor:
#      x y z
#    x 1.850530 0.000000 0.000000 
#    y 0.000000 1.851380 0.000000 
#    z 0.000000 0.000000 1.828370 
# 
# From -- ./inp_files/19637.got.cif
#   From: 2010.03.12/outbox.cif.g09.slc.cpg/sg42_10_cif.got.tgz:19637.got - 2010.04.14 02:04:31.
