data_PCOD8186991
_publ_section_title
;
Structure prediction by ZEFSAII (Michael W. Deem and Ramdas Pophale) SiO2 
 PCOD8186991
Probable space group: F D D 2
;
_chemical_formula_sum "Si O2"
_cell_formula_units_Z 112
_cell_length_a 21.976710
_cell_length_b 12.407926
_cell_length_c 22.268127
_cell_angle_alpha 90.000000
_cell_angle_beta 90.000000
_cell_angle_gamma 90.000000
_cell_volume 6072.192927
_symmetry_space_group_name_H-M "F D D 2"
_symmetry_group_IT_number 43
_symmetry_cell_setting 'orthorhombic'
loop_
_space_group_symop_operation_xyz
x,y,z
-x,-y,z
1/4-x,1/4+y,1/4+z
1/4+x,1/4-y,1/4+z
x,1/2+y,1/2+z
-x,1/2-y,1/2+z
1/4-x,3/4+y,3/4+z
1/4+x,3/4-y,3/4+z
1/2+x,y,1/2+z
1/2-x,-y,1/2+z
3/4-x,1/4+y,3/4+z
3/4+x,1/4-y,3/4+z
1/2+x,1/2+y,z
1/2-x,1/2-y,z
3/4-x,3/4+y,1/4+z
3/4+x,3/4-y,1/4+z
loop_
_atom_site_type_symbol
_atom_site_label
_atom_site_fract_x
_atom_site_fract_y
_atom_site_fract_z
Si Si1 0.306376 0.669774 0.799860
Si Si2 0.317584 0.770466 0.112425
Si Si3 0.920833 0.810465 0.291112
Si Si4 0.865015 0.070783 0.683882
Si Si5 0.168204 0.409497 0.949425
Si Si6 0.954587 0.759273 0.161823
Si Si7 0.549113 0.250907 0.321809
O O1 0.250000 0.750000 0.786763
O O2 0.362984 0.745377 0.813545
O O3 0.325812 0.598833 0.742614
O O4 0.292943 0.589267 0.855109
O O5 0.250000 0.750000 0.138507
O O6 0.338076 0.677074 0.068399
O O7 0.361967 0.779170 0.168911
O O8 0.320025 0.874979 0.069917
O O9 0.933016 0.826715 0.220105
O O10 0.976815 0.741096 0.316291
O O11 0.905077 0.165634 0.655604
O O12 0.910062 0.969295 0.694097
O O13 0.813361 0.048327 0.635851
O O14 0.230014 0.452197 0.919140
O O15 0.166220 0.437569 0.019551
#
# Coordination Sequence:
#
# PCOD8186991 Si02
#       7
#    16  16  16  16  16  16  16
#     4  11  23  37  56  85 115 144 188 244 291 337
#     4   9  18  34  53  79 109 139 184 231 277 339
#     4   9  20  36  54  79 111 149 185 222 284 350
#     4  10  21  38  56  81 113 145 188 235 285 346
#     4  10  19  36  58  80 109 146 187 233 283 342
#     4  10  21  36  57  82 110 147 187 231 285 346
#     4   9  19  35  57  78 105 148 185 224 277 342
#
# _framework density 18.444735999999999
#
# number of rings (size 3 to 8) (size 9 to 14) (size 15 to 20)
#    0.000    2.286    0.000    2.143    0.000    6.286 
#    0.000   17.143    0.000    0.000    0.000    0.000 
#    0.000    0.000    0.000    0.000    0.000    0.000 
#
# Total GULP energy -347084.341070 kJ/mol
# GULP energy per Si atom -12395.869324 kJ/mol
# Density = 1.840276 g / cm^3
# Si number density = 18.444736 Si / 1000 Ang^3
#
#
#
# Elastic Constant Matrix: (Units=GPa)
#
#
# Indices 1 2 3 4 5 6 
#
# 1 109.9187 61.4986 57.0598 0.0000 0.0000 0.0000
# 2 61.4986 108.6084 61.3860 0.0000 0.0000 0.0000
# 3 57.0598 61.3860 91.7852 0.0000 0.0000 0.0000
# 4 0.0000 0.0000 0.0000 34.0159 0.0000 0.0000
# 5 0.0000 0.0000 0.0000 0.0000 29.9646 0.0000
# 6 0.0000 0.0000 0.0000 0.0000 0.0000 25.0196
#
#
#
# Elastic Compliance Matrix: (Units=1/GPa)
#
#
# Indices 1 2 3 4 5 6 
#
# 1 0.015064 -0.005204 -0.005884 0.000000 0.000000 0.000000
# 2 -0.005204 0.016601 -0.007868 0.000000 0.000000 0.000000
# 3 -0.005884 -0.007868 0.019815 0.000000 0.000000 0.000000
# 4 0.000000 0.000000 0.000000 0.029398 0.000000 0.000000
# 5 0.000000 0.000000 0.000000 0.000000 0.033373 0.000000
# 6 0.000000 0.000000 0.000000 0.000000 0.000000 0.039969
#
#
# Mechanical properties :
#
#
# Convention : Reuss Voigt Hill
#
# Bulk Modulus (GPa) = 73.70267 74.46676 74.08471
# Shear Modulus (GPa) = 25.42550 26.49121 25.95836
#
# Velocity S-wave (km/s) = 3.71680 3.79390 3.75555
# Velocity P-wave (km/s) = 7.64623 7.72348 7.68495
#
# Compressibility (1/GPa) = 0.01356803
#
# Stress axis : x y z
#
# Youngs Moduli (GPa) = 66.38453 60.23792 50.46717
#
# Poissons Ratio (x) = 0.31347 0.29696
# Poissons Ratio (y) = 0.34546 0.39705
# Poissons Ratio (z) = 0.39062 0.47392
#
# Static dielectric constant tensor:
#      x y z
#    x 3.536370 0.000000 0.000000 
#    y 0.000000 3.547620 0.000000 
#    z 0.000000 0.000000 3.385930 
# 
# 
# High freq. dielectric constant tensor:
#      x y z
#    x 1.725470 0.000000 0.000000 
#    y 0.000000 1.725150 0.000000 
#    z 0.000000 0.000000 1.713690 
# 
# From -- ./inp_files/17208.got.cif
#   From: 2010.06.25/outbox.cif.g09.slc.cpg/sg43_9_cif.got.tgz:17208.got - 2010.06.26 16:48:59.
