data_PCOD8186153
_publ_section_title
;
Structure prediction by ZEFSAII (Michael W. Deem and Ramdas Pophale) SiO2 
 PCOD8186153
Probable space group: F M M 2
;
_chemical_formula_sum "Si O2"
_cell_formula_units_Z 80
_cell_length_a 15.113672
_cell_length_b 28.398600
_cell_length_c 7.931116
_cell_angle_alpha 90.000000
_cell_angle_beta 90.000000
_cell_angle_gamma 90.000000
_cell_volume 3404.091502
_symmetry_space_group_name_H-M "F M M 2"
_symmetry_group_IT_number 42
_symmetry_cell_setting 'orthorhombic'
loop_
_space_group_symop_operation_xyz
x,y,z
-x,-y,z
-x,y,z
x,-y,z
x,1/2+y,1/2+z
-x,1/2-y,1/2+z
-x,1/2+y,1/2+z
x,1/2-y,1/2+z
1/2+x,y,1/2+z
1/2-x,-y,1/2+z
1/2-x,y,1/2+z
1/2+x,-y,1/2+z
1/2+x,1/2+y,z
1/2-x,1/2-y,z
1/2-x,1/2+y,z
1/2+x,1/2-y,z
loop_
_atom_site_type_symbol
_atom_site_label
_atom_site_fract_x
_atom_site_fract_y
_atom_site_fract_z
Si Si1 0.104400 0.393830 0.441380
Si Si2 0.605451 0.052690 0.117428
Si Si3 0.666455 0.716608 0.424506
Si Si4 0.597096 0.699523 0.774880
Si Si5 0.894241 0.618946 0.811462
O O1 0.143271 0.428784 0.297936
O O2 0.135510 0.340673 0.398505
O O3 0.134278 0.405450 0.633287
O O4 0.000000 0.397694 0.433976
O O5 0.500000 0.052724 0.118666
O O6 0.641888 0.000000 0.088830
O O7 0.638585 0.085718 0.964098
O O8 0.750000 0.750000 0.378793
O O9 0.664112 0.703692 0.619919
O O10 0.585917 0.751390 0.375029
O O11 0.658089 0.668461 0.319028
O O12 0.500000 0.684039 0.707474
O O13 0.000000 0.627686 0.819011
#
# Coordination Sequence:
#
# PCOD8186153 Si02
#       5
#    16  16  16  16  16
#     4   9  18  32  54  83 116 158 207 256 310 374
#     4   9  17  31  54  88 126 160 206 270 325 372
#     4  12  24  37  55  86 126 161 210 262 313 372
#     4  11  21  37  58  81 117 167 213 255 310 380
#     4  10  19  35  58  84 123 173 214 257 319 390
#
# _framework density 23.501131000000001
#
# number of rings (size 3 to 8) (size 9 to 14) (size 15 to 20)
#    0.000    1.800    2.000    3.600    0.000    2.400 
#    0.000    5.000    0.000    0.000    0.000    1.400 
#    0.000    0.000    0.000    0.000    0.000    0.800 
#
# Total GULP energy -247846.635590 kJ/mol
# GULP energy per Si atom -12392.331779 kJ/mol
# Density = 2.344764 g / cm^3
# Si number density = 23.501131 Si / 1000 Ang^3
#
#
#
# Elastic Constant Matrix: (Units=GPa)
#
#
# Indices 1 2 3 4 5 6 
#
# 1 37.7486 15.4922 22.6216 0.0000 -0.0002 0.0000
# 2 15.4922 179.7030 80.7761 0.0000 0.0000 0.0000
# 3 22.6216 80.7761 197.6114 0.0000 -0.0005 0.0000
# 4 0.0000 0.0000 0.0000 37.0967 0.0000 0.0000
# 5 -0.0002 0.0000 -0.0005 0.0000 20.0350 0.0000
# 6 0.0000 0.0000 0.0000 0.0000 0.0000 14.2330
#
#
#
# Elastic Compliance Matrix: (Units=1/GPa)
#
#
# Indices 1 2 3 4 5 6 
#
# 1 0.028659 -0.001220 -0.002782 0.000000 0.000000 0.000000
# 2 -0.001220 0.006869 -0.002668 0.000000 0.000000 0.000000
# 3 -0.002782 -0.002668 0.006470 0.000000 0.000000 0.000000
# 4 0.000000 0.000000 0.000000 0.026957 0.000000 0.000000
# 5 0.000000 0.000000 0.000000 0.000000 0.049913 0.000000
# 6 0.000000 0.000000 0.000000 0.000000 0.000000 0.070259
#
#
# Mechanical properties :
#
#
# Convention : Reuss Voigt Hill
#
# Bulk Modulus (GPa) = 34.89542 72.53808 53.71675
# Shear Modulus (GPa) = 23.58278 34.01783 28.80030
#
# Velocity S-wave (km/s) = 3.17120 3.80873 3.50449
# Velocity P-wave (km/s) = 5.31877 7.09046 6.26754
#
# Compressibility (1/GPa) = 0.02865705
#
# Stress axis : x y z
#
# Youngs Moduli (GPa) = 34.89309 145.57543 154.56970
#
# Poissons Ratio (x) = 0.17763 0.43001
# Poissons Ratio (y) = 0.04258 0.41243
# Poissons Ratio (z) = 0.09707 0.38843
#
# Static dielectric constant tensor:
#      x y z
#    x 3.767690 0.000000 0.000000 
#    y 0.000000 4.395900 0.000000 
#    z 0.000000 0.000000 4.434230 
# 
# 
# High freq. dielectric constant tensor:
#      x y z
#    x 1.893920 0.000000 0.000000 
#    y 0.000000 1.919230 0.000000 
#    z 0.000000 0.000000 1.943300 
# 
# From -- ./inp_files/3471.got.cif
#   From: 2010.03.12/outbox.cif.g09.slc.cpg/sg42_2_cif.got.tgz:3471.got - 2010.04.14 02:04:31.
