data_PCOD8186833
_publ_section_title
;
Structure prediction by ZEFSAII (Michael W. Deem and Ramdas Pophale) SiO2 
 PCOD8186833
Probable space group: F M M 2
;
_chemical_formula_sum "Si O2"
_cell_formula_units_Z 64
_cell_length_a 19.587281
_cell_length_b 15.289071
_cell_length_c 9.268076
_cell_angle_alpha 90.000000
_cell_angle_beta 90.000000
_cell_angle_gamma 90.000000
_cell_volume 2775.523045
_symmetry_space_group_name_H-M "F M M 2"
_symmetry_group_IT_number 42
_symmetry_cell_setting 'orthorhombic'
loop_
_space_group_symop_operation_xyz
x,y,z
-x,-y,z
-x,y,z
x,-y,z
x,1/2+y,1/2+z
-x,1/2-y,1/2+z
-x,1/2+y,1/2+z
x,1/2-y,1/2+z
1/2+x,y,1/2+z
1/2-x,-y,1/2+z
1/2-x,y,1/2+z
1/2+x,-y,1/2+z
1/2+x,1/2+y,z
1/2-x,1/2-y,z
1/2-x,1/2+y,z
1/2+x,1/2-y,z
loop_
_atom_site_type_symbol
_atom_site_label
_atom_site_fract_x
_atom_site_fract_y
_atom_site_fract_z
Si Si1 0.795206 0.665756 0.665710
Si Si2 0.078924 0.102896 0.009733
Si Si3 0.424859 0.396029 0.683250
Si Si4 0.689977 0.902570 0.975578
O O1 0.750000 0.750000 0.622190
O O2 0.873918 0.663340 0.612563
O O3 0.756228 0.588968 0.578815
O O4 0.793986 0.655573 0.836980
O O5 0.000000 0.123322 0.046253
O O6 0.093330 0.000000 0.034871
O O7 0.095963 0.131071 0.845349
O O8 0.500000 0.359816 0.644593
O O9 0.424500 0.500000 0.675751
O O10 0.371354 0.357753 0.567808
O O11 0.669630 0.000000 0.924451
#
# Coordination Sequence:
#
# PCOD8186833 Si02
#       4
#    16  16  16  16
#     4  12  25  40  58  90 131 166 204 260 327 381
#     4   9  18  37  67  99 129 165 215 271 323 382
#     4   8  16  33  60  94 125 153 198 266 328 370
#     4  11  22  38  62  88 120 167 220 264 305 372
#
# _framework density 23.058717000000001
#
# number of rings (size 3 to 8) (size 9 to 14) (size 15 to 20)
#    0.000    2.000    0.000    6.000    0.000    3.000 
#    0.000    5.000    0.000    4.500    0.000    0.000 
#    0.000    0.000    0.000    0.000    0.000    0.000 
#
# Total GULP energy -198347.417412 kJ/mol
# GULP energy per Si atom -12396.713588 kJ/mol
# Density = 2.300623 g / cm^3
# Si number density = 23.058717 Si / 1000 Ang^3
#
#
#
# Elastic Constant Matrix: (Units=GPa)
#
#
# Indices 1 2 3 4 5 6 
#
# 1 168.5092 35.9556 90.5980 0.0000 0.0000 0.0000
# 2 35.9556 53.2364 22.9562 0.0000 0.0000 0.0000
# 3 90.5980 22.9562 160.7351 0.0000 0.0000 0.0000
# 4 0.0000 0.0000 0.0000 24.1595 0.0000 0.0000
# 5 0.0000 0.0000 0.0000 0.0000 50.9625 0.0000
# 6 0.0000 0.0000 0.0000 0.0000 0.0000 34.1659
#
#
#
# Elastic Compliance Matrix: (Units=1/GPa)
#
#
# Indices 1 2 3 4 5 6 
#
# 1 0.009360 -0.004312 -0.004660 0.000000 0.000000 0.000000
# 2 -0.004312 0.022004 -0.000712 0.000000 0.000000 0.000000
# 3 -0.004660 -0.000712 0.008950 0.000000 0.000000 0.000000
# 4 0.000000 0.000000 0.000000 0.041392 0.000000 0.000000
# 5 0.000000 0.000000 0.000000 0.000000 0.019622 0.000000
# 6 0.000000 0.000000 0.000000 0.000000 0.000000 0.029269
#
#
# Mechanical properties :
#
#
# Convention : Reuss Voigt Hill
#
# Bulk Modulus (GPa) = 47.74396 75.72223 61.73310
# Shear Modulus (GPa) = 31.85822 37.38898 34.62360
#
# Velocity S-wave (km/s) = 3.72104 4.03111 3.87918
# Velocity P-wave (km/s) = 6.26194 7.38760 6.84794
#
# Compressibility (1/GPa) = 0.02094506
#
# Stress axis : x y z
#
# Youngs Moduli (GPa) = 106.83981 45.44709 111.73730
#
# Poissons Ratio (x) = 0.19598 0.52067
# Poissons Ratio (y) = 0.46072 0.07955
# Poissons Ratio (z) = 0.49785 0.03236
#
# Static dielectric constant tensor:
#      x y z
#    x 4.561200 0.000000 0.000000 
#    y 0.000000 3.616440 0.000000 
#    z 0.000000 0.000000 3.979930 
# 
# 
# High freq. dielectric constant tensor:
#      x y z
#    x 1.923470 0.000000 0.000000 
#    y 0.000000 1.883980 0.000000 
#    z 0.000000 0.000000 1.906520 
# 
# From -- ./inp_files/3225.got.cif
#   From: 2010.03.12/outbox.cif.g09.slc.cpg/sg42_2_cif.got.tgz:3225.got - 2010.04.14 02:04:31.
