data_PCOD8186022
_publ_section_title
;
Structure prediction by ZEFSAII (Michael W. Deem and Ramdas Pophale) SiO2 
 PCOD8186022
Probable space group: F M M 2
;
_chemical_formula_sum "Si O2"
_cell_formula_units_Z 112
_cell_length_a 16.854547
_cell_length_b 18.309606
_cell_length_c 20.199696
_cell_angle_alpha 90.000000
_cell_angle_beta 90.000000
_cell_angle_gamma 90.000000
_cell_volume 6233.628506
_symmetry_space_group_name_H-M "F M M 2"
_symmetry_group_IT_number 42
_symmetry_cell_setting 'orthorhombic'
loop_
_space_group_symop_operation_xyz
x,y,z
-x,-y,z
-x,y,z
x,-y,z
x,1/2+y,1/2+z
-x,1/2-y,1/2+z
-x,1/2+y,1/2+z
x,1/2-y,1/2+z
1/2+x,y,1/2+z
1/2-x,-y,1/2+z
1/2-x,y,1/2+z
1/2+x,-y,1/2+z
1/2+x,1/2+y,z
1/2-x,1/2-y,z
1/2-x,1/2+y,z
1/2+x,1/2-y,z
loop_
_atom_site_type_symbol
_atom_site_label
_atom_site_fract_x
_atom_site_fract_y
_atom_site_fract_z
Si Si1 0.093006 0.922377 0.197870
Si Si2 0.808222 0.082093 0.927019
Si Si3 0.817791 0.808075 0.461021
Si Si4 0.089264 0.723043 0.080923
Si Si5 0.593698 0.293955 0.862862
Si Si6 0.405812 0.734050 0.222659
Si Si7 0.088395 0.610227 0.548789
O O1 0.129676 0.848755 0.230326
O O2 0.110315 0.920421 0.120075
O O3 0.000000 0.922642 0.211778
O O4 0.128890 0.000000 0.225184
O O5 0.864601 0.129917 0.879794
O O6 0.799531 0.000000 0.898425
O O7 0.720757 0.118147 0.931723
O O8 0.847482 0.077855 0.999092
O O9 0.750000 0.750000 0.477039
O O10 0.860269 0.827835 0.531003
O O11 0.878481 0.774027 0.407666
O O12 0.126248 0.726660 0.155515
O O13 0.091180 0.802388 0.047281
O O14 0.000000 0.692040 0.084118
O O15 0.500000 0.302566 0.871510
O O16 0.618317 0.279279 0.786876
O O17 0.500000 0.726750 0.213295
O O18 0.000000 0.584676 0.527871
#
# Coordination Sequence:
#
# PCOD8186022 Si02
#       7
#    16  16  16  16  16  16  16
#     4   8  13  22  39  67 104 133 154 195 257 313
#     4  11  22  33  49  73 108 140 168 212 266 315
#     4  10  19  32  50  72 102 139 174 208 251 312
#     4   9  15  29  53  79 101 128 170 219 261 301
#     4  10  19  34  55  78 101 132 177 223 262 305
#     4   8  16  28  47  76 104 129 170 222 267 306
#     4   9  15  25  46  77 104 128 161 206 260 312
#
# _framework density 17.967063
#
# number of rings (size 3 to 8) (size 9 to 14) (size 15 to 20)
#    0.000    2.714    2.857    3.000    0.000    1.714 
#    0.000    2.857    0.000    3.429    0.000    2.000 
#    0.000    0.000    0.000    0.000    0.000    0.000 
#
# Total GULP energy -346953.054746 kJ/mol
# GULP energy per Si atom -12391.180527 kJ/mol
# Density = 1.792617 g / cm^3
# Si number density = 17.967063 Si / 1000 Ang^3
#
#
#
# Elastic Constant Matrix: (Units=GPa)
#
#
# Indices 1 2 3 4 5 6 
#
# 1 55.2335 42.6685 40.2481 0.0000 0.0000 0.0000
# 2 42.6685 110.8617 47.8134 0.0000 0.0000 0.0000
# 3 40.2481 47.8134 100.2318 0.0000 0.0000 0.0000
# 4 0.0000 0.0000 0.0000 14.7751 0.0000 0.0000
# 5 0.0000 0.0000 0.0000 0.0000 7.1525 0.0000
# 6 0.0000 0.0000 0.0000 0.0000 0.0000 13.0722
#
#
#
# Elastic Compliance Matrix: (Units=1/GPa)
#
#
# Indices 1 2 3 4 5 6 
#
# 1 0.030472 -0.008122 -0.008362 0.000000 0.000000 0.000000
# 2 -0.008122 0.013521 -0.003189 0.000000 0.000000 0.000000
# 3 -0.008362 -0.003189 0.014856 0.000000 0.000000 0.000000
# 4 0.000000 0.000000 0.000000 0.067681 0.000000 0.000000
# 5 0.000000 0.000000 0.000000 0.000000 0.139811 0.000000
# 6 0.000000 0.000000 0.000000 0.000000 0.000000 0.076498
#
#
# Mechanical properties :
#
#
# Convention : Reuss Voigt Hill
#
# Bulk Modulus (GPa) = 51.26997 58.64300 54.95649
# Shear Modulus (GPa) = 12.86383 16.03977 14.45180
#
# Velocity S-wave (km/s) = 2.67866 2.99110 2.83918
# Velocity P-wave (km/s) = 6.17774 6.68124 6.43442
#
# Compressibility (1/GPa) = 0.01950459
#
# Stress axis : x y z
#
# Youngs Moduli (GPa) = 32.81663 73.95640 67.31419
#
# Poissons Ratio (x) = 0.60066 0.56287
# Poissons Ratio (y) = 0.26653 0.21465
# Poissons Ratio (z) = 0.27441 0.23583
#
# Static dielectric constant tensor:
#      x y z
#    x 3.203050 0.000000 0.000000 
#    y 0.000000 3.327820 0.000000 
#    z 0.000000 0.000000 3.317680 
# 
# 
# High freq. dielectric constant tensor:
#      x y z
#    x 1.666650 0.000000 0.000000 
#    y 0.000000 1.670830 0.000000 
#    z 0.000000 0.000000 1.688980 
# 
# From -- ./inp_files/26049.got.cif
#   From: 2010.03.12/outbox.cif.g09.slc.cpg/sg42_14_cif.got.tgz:26049.got - 2010.04.14 02:04:31.
