data_PCOD8186946
_publ_section_title
;
Structure prediction by ZEFSAII (Michael W. Deem and Ramdas Pophale) SiO2 
 PCOD8186946
Probable space group: F D D 2
;
_chemical_formula_sum "Si O2"
_cell_formula_units_Z 88
_cell_length_a 10.806910
_cell_length_b 15.657061
_cell_length_c 23.149257
_cell_angle_alpha 90.000000
_cell_angle_beta 90.000000
_cell_angle_gamma 90.000000
_cell_volume 3916.957278
_symmetry_space_group_name_H-M "F D D 2"
_symmetry_group_IT_number 43
_symmetry_cell_setting 'orthorhombic'
loop_
_space_group_symop_operation_xyz
x,y,z
-x,-y,z
1/4-x,1/4+y,1/4+z
1/4+x,1/4-y,1/4+z
x,1/2+y,1/2+z
-x,1/2-y,1/2+z
1/4-x,3/4+y,3/4+z
1/4+x,3/4-y,3/4+z
1/2+x,y,1/2+z
1/2-x,-y,1/2+z
3/4-x,1/4+y,3/4+z
3/4+x,1/4-y,3/4+z
1/2+x,1/2+y,z
1/2-x,1/2-y,z
3/4-x,3/4+y,1/4+z
3/4+x,3/4-y,1/4+z
loop_
_atom_site_type_symbol
_atom_site_label
_atom_site_fract_x
_atom_site_fract_y
_atom_site_fract_z
Si Si1 0.639777 0.009348 0.000000
Si Si2 0.608502 0.656394 0.097880
Si Si3 0.836786 0.865079 0.975049
Si Si4 0.080138 0.418543 0.673066
Si Si5 0.750000 0.750000 0.182713
Si Si6 0.195733 0.987400 0.628772
O O1 0.639807 0.023581 0.069323
O O2 0.500000 0.000000 0.978255
O O3 0.691105 0.096003 0.971438
O O4 0.715327 0.924803 0.979440
O O5 0.474042 0.616038 0.111397
O O6 0.630211 0.734558 0.141787
O O7 0.713008 0.587761 0.111994
O O8 0.633053 0.689116 0.032888
O O9 0.835963 0.799435 0.920789
O O10 0.960998 0.922462 0.973261
O O11 0.224647 0.440773 0.662982
O O12 0.000000 0.500000 0.694074
#
# Coordination Sequence:
#
# PCOD8186946 Si02
#       6
#    16  16  16  16   8  16
#     4  11  24  44  65  92 134 174 213 268 327 391
#     4   9  19  35  65  95 124 161 215 262 322 383
#     4  10  21  40  66  93 129 171 212 272 323 388
#     4  10  21  41  66 100 128 166 217 270 321 391
#     4  10  18  36  64  96 120 160 220 264 316 384
#     4   9  22  40  62  95 126 169 213 271 325 381
#
# _framework density 22.466417
#
# number of rings (size 3 to 8) (size 9 to 14) (size 15 to 20)
#    0.000    2.182    1.818    0.000    6.364    1.455 
#   11.455    4.545    0.000    0.000    0.000    0.000 
#    0.000    0.000    0.000    0.000    0.000    0.000 
#
# Total GULP energy -272594.802904 kJ/mol
# GULP energy per Si atom -12390.672859 kJ/mol
# Density = 2.241528 g / cm^3
# Si number density = 22.466417 Si / 1000 Ang^3
#
#
#
# Elastic Constant Matrix: (Units=GPa)
#
#
# Indices 1 2 3 4 5 6 
#
# 1 98.5201 40.5574 44.2360 0.0000 0.0000 0.0000
# 2 40.5574 68.8621 38.6612 0.0000 0.0000 0.0000
# 3 44.2360 38.6612 134.9031 0.0000 0.0000 0.0000
# 4 0.0000 0.0000 0.0000 31.2501 0.0000 0.0000
# 5 0.0000 0.0000 0.0000 0.0000 24.4833 0.0000
# 6 0.0000 0.0000 0.0000 0.0000 0.0000 36.6158
#
#
#
# Elastic Compliance Matrix: (Units=1/GPa)
#
#
# Indices 1 2 3 4 5 6 
#
# 1 0.014172 -0.006838 -0.002687 0.000000 0.000000 0.000000
# 2 -0.006838 0.020606 -0.003663 0.000000 0.000000 0.000000
# 3 -0.002687 -0.003663 0.009344 0.000000 0.000000 0.000000
# 4 0.000000 0.000000 0.000000 0.032000 0.000000 0.000000
# 5 0.000000 0.000000 0.000000 0.000000 0.040844 0.000000
# 6 0.000000 0.000000 0.000000 0.000000 0.000000 0.027311
#
#
# Mechanical properties :
#
#
# Convention : Reuss Voigt Hill
#
# Bulk Modulus (GPa) = 56.35585 61.02163 58.68874
# Shear Modulus (GPa) = 28.31780 30.39189 29.35485
#
# Velocity S-wave (km/s) = 3.55413 3.68199 3.61863
# Velocity P-wave (km/s) = 6.47931 6.73025 6.60597
#
# Compressibility (1/GPa) = 0.01774439
#
# Stress axis : x y z
#
# Youngs Moduli (GPa) = 70.56254 48.53048 107.02360
#
# Poissons Ratio (x) = 0.33185 0.28762
# Poissons Ratio (y) = 0.48250 0.39203
# Poissons Ratio (z) = 0.18963 0.17777
#
# Static dielectric constant tensor:
#      x y z
#    x 3.972310 0.000000 0.000000 
#    y 0.000000 4.007910 0.000000 
#    z 0.000000 0.000000 4.224590 
# 
# 
# High freq. dielectric constant tensor:
#      x y z
#    x 1.878410 0.000000 0.000000 
#    y 0.000000 1.873960 0.000000 
#    z 0.000000 0.000000 1.883740 
# 
# From -- ./inp_files/17051.got.cif
#   From: 2010.06.25/outbox.cif.g09.slc.cpg/sg43_9_cif.got.tgz:17051.got - 2010.06.26 16:48:59.
