data_PCOD8186220
_publ_section_title
;
Structure prediction by ZEFSAII (Michael W. Deem and Ramdas Pophale) SiO2 
 PCOD8186220
Probable space group: F M M 2
;
_chemical_formula_sum "Si O2"
_cell_formula_units_Z 104
_cell_length_a 9.199347
_cell_length_b 25.722483
_cell_length_c 21.869386
_cell_angle_alpha 90.000000
_cell_angle_beta 90.000000
_cell_angle_gamma 90.000000
_cell_volume 5174.953833
_symmetry_space_group_name_H-M "F M M 2"
_symmetry_group_IT_number 42
_symmetry_cell_setting 'orthorhombic'
loop_
_space_group_symop_operation_xyz
x,y,z
-x,-y,z
-x,y,z
x,-y,z
x,1/2+y,1/2+z
-x,1/2-y,1/2+z
-x,1/2+y,1/2+z
x,1/2-y,1/2+z
1/2+x,y,1/2+z
1/2-x,-y,1/2+z
1/2-x,y,1/2+z
1/2+x,-y,1/2+z
1/2+x,1/2+y,z
1/2-x,1/2-y,z
1/2-x,1/2+y,z
1/2+x,1/2-y,z
loop_
_atom_site_type_symbol
_atom_site_label
_atom_site_fract_x
_atom_site_fract_y
_atom_site_fract_z
Si Si1 0.336087 0.906058 0.778680
Si Si2 0.327119 0.301494 0.576420
Si Si3 0.832459 0.386411 0.501389
Si Si4 0.327638 0.000000 0.456872
Si Si5 0.829980 0.000000 0.817650
Si Si6 0.341339 0.155470 0.369895
Si Si7 0.750000 0.250000 0.802260
Si Si8 0.658266 0.316572 0.193812
O O1 0.500000 0.925606 0.788920
O O2 0.224186 0.952656 0.777090
O O3 0.292152 0.871291 0.836483
O O4 0.319710 0.876296 0.714252
O O5 0.500000 0.298545 0.566913
O O6 0.250000 0.250000 0.546856
O O7 0.265319 0.356229 0.551072
O O8 0.288650 0.300325 0.648871
O O9 0.777048 0.446377 0.490788
O O10 0.814184 0.350943 0.441553
O O11 0.000000 0.387527 0.523429
O O12 0.500000 0.000000 0.453271
O O13 0.266078 0.000000 0.387212
O O14 0.000000 0.000000 0.820897
O O15 0.500000 0.130110 0.354453
O O16 0.347584 0.215245 0.347919
O O17 0.652000 0.215578 0.756913
O O18 0.500000 0.309673 0.161313
#
# Coordination Sequence:
#
# PCOD8186220 Si02
#       8
#    16  16  16   8   8  16   8  16
#     4  10  21  35  56  89 124 155 195 246 297 352
#     4  12  26  43  64  89 120 159 206 257 309 364
#     4  10  21  40  63  90 124 162 205 249 302 364
#     4   9  18  37  64  89 118 159 204 248 297 361
#     4  11  19  35  60  89 122 161 202 240 295 361
#     4  10  20  35  57  87 121 159 198 241 294 361
#     4  10  20  32  58  92 122 158 198 242 290 354
#     4  10  21  39  60  85 120 160 201 243 295 357
#
# _framework density 20.096798
#
# number of rings (size 3 to 8) (size 9 to 14) (size 15 to 20)
#    0.000    1.692    2.308    2.538    1.077    4.308 
#    0.000    1.154    0.000    1.846    0.000    0.000 
#    0.000    0.000    0.000    0.000    0.000    0.000 
#
# Total GULP energy -322159.236730 kJ/mol
# GULP energy per Si atom -12390.739874 kJ/mol
# Density = 2.005106 g / cm^3
# Si number density = 20.096798 Si / 1000 Ang^3
#
#
#
# Elastic Constant Matrix: (Units=GPa)
#
#
# Indices 1 2 3 4 5 6 
#
# 1 107.7264 42.9128 27.5656 0.0000 0.0000 0.0000
# 2 42.9128 137.3013 41.6462 0.0000 0.0000 0.0000
# 3 27.5656 41.6462 60.3212 0.0000 0.0000 0.0000
# 4 0.0000 0.0000 0.0000 25.2116 0.0000 0.0000
# 5 0.0000 0.0000 0.0000 0.0000 28.7562 0.0000
# 6 0.0000 0.0000 0.0000 0.0000 0.0000 28.3765
#
#
#
# Elastic Compliance Matrix: (Units=1/GPa)
#
#
# Indices 1 2 3 4 5 6 
#
# 1 0.011127 -0.002448 -0.003395 0.000000 0.000000 0.000000
# 2 -0.002448 0.009751 -0.005614 0.000000 0.000000 0.000000
# 3 -0.003395 -0.005614 0.022005 0.000000 0.000000 0.000000
# 4 0.000000 0.000000 0.000000 0.039664 0.000000 0.000000
# 5 0.000000 0.000000 0.000000 0.000000 0.034775 0.000000
# 6 0.000000 0.000000 0.000000 0.000000 0.000000 0.035240
#
#
# Mechanical properties :
#
#
# Convention : Reuss Voigt Hill
#
# Bulk Modulus (GPa) = 50.07422 58.84421 54.45922
# Shear Modulus (GPa) = 27.45278 29.35047 28.40162
#
# Velocity S-wave (km/s) = 3.69999 3.82574 3.76339
# Velocity P-wave (km/s) = 6.57448 6.98992 6.78538
#
# Compressibility (1/GPa) = 0.01997036
#
# Stress axis : x y z
#
# Youngs Moduli (GPa) = 89.87541 102.55335 45.44467
#
# Poissons Ratio (x) = 0.25104 0.15426
# Poissons Ratio (y) = 0.22001 0.25511
# Poissons Ratio (z) = 0.30509 0.57569
#
# Static dielectric constant tensor:
#      x y z
#    x 3.508860 0.000000 0.000000 
#    y 0.000000 4.494200 0.000000 
#    z 0.000000 0.000000 3.427810 
# 
# 
# High freq. dielectric constant tensor:
#      x y z
#    x 1.774030 0.000000 0.000000 
#    y 0.000000 1.795400 0.000000 
#    z 0.000000 0.000000 1.759820 
# 
# From -- ./inp_files/23850.got.cif
#   From: 2010.03.12/outbox.cif.g09.slc.cpg/sg42_12_cif.got.tgz:23850.got - 2010.04.14 02:04:31.
