data_PCOD8186031
_publ_section_title
;
Structure prediction by ZEFSAII (Michael W. Deem and Ramdas Pophale) SiO2 
 PCOD8186031
Probable space group: F M M 2
;
_chemical_formula_sum "Si O2"
_cell_formula_units_Z 72
_cell_length_a 10.265287
_cell_length_b 14.921416
_cell_length_c 26.614572
_cell_angle_alpha 90.000000
_cell_angle_beta 90.000000
_cell_angle_gamma 90.000000
_cell_volume 4076.623662
_symmetry_space_group_name_H-M "F M M 2"
_symmetry_group_IT_number 42
_symmetry_cell_setting 'orthorhombic'
loop_
_space_group_symop_operation_xyz
x,y,z
-x,-y,z
-x,y,z
x,-y,z
x,1/2+y,1/2+z
-x,1/2-y,1/2+z
-x,1/2+y,1/2+z
x,1/2-y,1/2+z
1/2+x,y,1/2+z
1/2-x,-y,1/2+z
1/2-x,y,1/2+z
1/2+x,-y,1/2+z
1/2+x,1/2+y,z
1/2-x,1/2-y,z
1/2-x,1/2+y,z
1/2+x,1/2-y,z
loop_
_atom_site_type_symbol
_atom_site_label
_atom_site_fract_x
_atom_site_fract_y
_atom_site_fract_z
Si Si1 0.855558 0.686241 0.828260
Si Si2 0.154760 0.668746 0.609962
Si Si3 0.652839 0.100287 0.499826
Si Si4 0.653648 0.000000 0.675807
Si Si5 0.153321 0.500000 0.787571
Si Si6 0.750000 0.750000 0.424900
O O1 0.750000 0.750000 0.800364
O O2 0.802729 0.586064 0.819425
O O3 0.861695 0.710051 0.887845
O O4 0.000000 0.699803 0.805142
O O5 0.250000 0.750000 0.624584
O O6 0.190887 0.638082 0.554000
O O7 0.197635 0.588987 0.646816
O O8 0.000000 0.693149 0.614748
O O9 0.500000 0.093944 0.494435
O O10 0.704524 0.167090 0.457879
O O11 0.712387 0.000000 0.492850
O O12 0.715948 0.000000 0.731709
O O13 0.500000 0.000000 0.678472
O O14 0.000000 0.500000 0.781276
#
# Coordination Sequence:
#
# PCOD8186031 Si02
#       6
#    16  16  16   8   8   8
#     4   9  20  35  53  76 106 135 175 218 257 306
#     4  10  19  34  54  80 106 137 175 213 255 308
#     4  10  19  32  51  75 106 141 175 209 249 310
#     4   9  18  34  58  77 101 141 179 207 256 321
#     4   9  18  36  56  77 103 137 175 219 262 305
#     4  10  20  30  54  74 110 130 178 202 272 286
#
# _framework density 17.661674000000001
#
# number of rings (size 3 to 8) (size 9 to 14) (size 15 to 20)
#    0.667    1.778    2.222    0.667    1.556    0.889 
#    0.000    1.111    0.000    4.000    0.000    0.000 
#    0.000    0.000    0.000    0.000    0.000    0.000 
#
# Total GULP energy -223000.621172 kJ/mol
# GULP energy per Si atom -12388.923398 kJ/mol
# Density = 1.762148 g / cm^3
# Si number density = 17.661674 Si / 1000 Ang^3
#
#
#
# Elastic Constant Matrix: (Units=GPa)
#
#
# Indices 1 2 3 4 5 6 
#
# 1 47.6014 57.4920 27.6652 0.0000 0.0000 0.0000
# 2 57.4920 178.3850 56.2170 0.0000 0.0000 0.0000
# 3 27.6652 56.2170 74.9986 0.0000 0.0000 0.0000
# 4 0.0000 0.0000 0.0000 15.8416 0.0000 0.0000
# 5 0.0000 0.0000 0.0000 0.0000 5.2642 0.0000
# 6 0.0000 0.0000 0.0000 0.0000 0.0000 30.4941
#
#
#
# Elastic Compliance Matrix: (Units=1/GPa)
#
#
# Indices 1 2 3 4 5 6 
#
# 1 0.036389 -0.009816 -0.006065 0.000000 0.000000 0.000000
# 2 -0.009816 0.009988 -0.003866 0.000000 0.000000 0.000000
# 3 -0.006065 -0.003866 0.018468 0.000000 0.000000 0.000000
# 4 0.000000 0.000000 0.000000 0.063125 0.000000 0.000000
# 5 0.000000 0.000000 0.000000 0.000000 0.189962 0.000000
# 6 0.000000 0.000000 0.000000 0.000000 0.000000 0.032793
#
#
# Mechanical properties :
#
#
# Convention : Reuss Voigt Hill
#
# Bulk Modulus (GPa) = 39.44592 64.85928 52.15260
# Shear Modulus (GPa) = 12.54172 20.96070 16.75121
#
# Velocity S-wave (km/s) = 2.66768 3.44872 3.08303
# Velocity P-wave (km/s) = 5.64547 7.25680 6.50125
#
# Compressibility (1/GPa) = 0.02535116
#
# Stress axis : x y z
#
# Youngs Moduli (GPa) = 27.48111 100.12191 54.14708
#
# Poissons Ratio (x) = 0.98284 0.32839
# Poissons Ratio (y) = 0.26977 0.20931
# Poissons Ratio (z) = 0.16667 0.38703
#
# Static dielectric constant tensor:
#      x y z
#    x 2.954090 0.000000 0.000000 
#    y 0.000000 3.563150 0.000000 
#    z 0.000000 0.000000 3.395460 
# 
# 
# High freq. dielectric constant tensor:
#      x y z
#    x 1.647280 0.000000 0.000000 
#    y 0.000000 1.698760 0.000000 
#    z 0.000000 0.000000 1.680430 
# 
# From -- ./inp_files/28602.got.cif
#   From: 2010.03.12/outbox.cif.g09.slc.cpg/sg42_15_cif.got.tgz:28602.got - 2010.04.14 02:04:31.
