data_PCOD8186123
_publ_section_title
;
Structure prediction by ZEFSAII (Michael W. Deem and Ramdas Pophale) SiO2 
 PCOD8186123
Probable space group: F M M 2
;
_chemical_formula_sum "Si O2"
_cell_formula_units_Z 96
_cell_length_a 28.143429
_cell_length_b 8.678343
_cell_length_c 20.730670
_cell_angle_alpha 90.000000
_cell_angle_beta 90.000000
_cell_angle_gamma 90.000000
_cell_volume 5063.224222
_symmetry_space_group_name_H-M "F M M 2"
_symmetry_group_IT_number 42
_symmetry_cell_setting 'orthorhombic'
loop_
_space_group_symop_operation_xyz
x,y,z
-x,-y,z
-x,y,z
x,-y,z
x,1/2+y,1/2+z
-x,1/2-y,1/2+z
-x,1/2+y,1/2+z
x,1/2-y,1/2+z
1/2+x,y,1/2+z
1/2-x,-y,1/2+z
1/2-x,y,1/2+z
1/2+x,-y,1/2+z
1/2+x,1/2+y,z
1/2-x,1/2-y,z
1/2-x,1/2+y,z
1/2+x,1/2-y,z
loop_
_atom_site_type_symbol
_atom_site_label
_atom_site_fract_x
_atom_site_fract_y
_atom_site_fract_z
Si Si1 0.391370 0.183368 0.785080
Si Si2 0.053081 0.183300 0.160283
Si Si3 0.199668 0.317593 0.232910
Si Si4 0.604099 0.679070 0.032050
Si Si5 0.701075 0.820182 0.594350
Si Si6 0.946419 0.681922 0.910919
O O1 0.419371 0.245140 0.722589
O O2 0.339316 0.259277 0.784120
O O3 0.420110 0.244181 0.847154
O O4 0.386084 0.000000 0.785311
O O5 0.078016 0.243367 0.095550
O O6 0.000000 0.250082 0.162026
O O7 0.053037 0.000000 0.161458
O O8 0.202203 0.500000 0.232769
O O9 0.250000 0.250000 0.255424
O O10 0.186362 0.258616 0.161458
O O11 0.592705 0.500000 0.021350
O O12 0.660438 0.707714 0.040970
O O13 0.585161 0.772294 0.971635
O O14 0.750000 0.750000 0.566800
O O15 0.707798 0.000000 0.609009
O O16 0.949889 0.500000 0.907473
O O17 0.000000 0.751271 0.915179
#
# Coordination Sequence:
#
# PCOD8186123 Si02
#       6
#    16  16  16  16  16  16
#     4  10  19  36  57  80 111 147 190 231 273 329
#     4   9  16  29  53  80 104 137 185 233 273 321
#     4  11  21  34  56  85 115 146 181 227 283 334
#     4  10  20  35  56  81 111 148 189 230 276 332
#     4  10  19  34  56  84 113 146 185 228 280 334
#     4  10  22  38  57  82 114 152 188 229 281 332
#
# _framework density 18.960249999999998
#
# number of rings (size 3 to 8) (size 9 to 14) (size 15 to 20)
#    0.000    2.000    1.667    4.000    0.000    5.000 
#    0.000    0.833    0.000    3.500    0.000    0.000 
#    0.000    0.000    0.000    0.000    0.000    0.000 
#
# Total GULP energy -297626.119363 kJ/mol
# GULP energy per Si atom -12401.088307 kJ/mol
# Density = 1.891710 g / cm^3
# Si number density = 18.960250 Si / 1000 Ang^3
#
#
#
# Elastic Constant Matrix: (Units=GPa)
#
#
# Indices 1 2 3 4 5 6 
#
# 1 157.8195 39.0391 72.2296 0.0000 0.0000 0.0000
# 2 39.0391 62.0888 26.6964 0.0000 0.0000 0.0000
# 3 72.2296 26.6964 132.5874 0.0000 0.0000 0.0000
# 4 0.0000 0.0000 0.0000 25.2290 0.0000 0.0000
# 5 0.0000 0.0000 0.0000 0.0000 34.6174 0.0000
# 6 0.0000 0.0000 0.0000 0.0000 0.0000 26.1528
#
#
#
# Elastic Compliance Matrix: (Units=1/GPa)
#
#
# Indices 1 2 3 4 5 6 
#
# 1 0.009269 -0.004003 -0.004243 0.000000 0.000000 0.000000
# 2 -0.004003 0.019362 -0.001718 0.000000 0.000000 0.000000
# 3 -0.004243 -0.001718 0.010200 0.000000 0.000000 0.000000
# 4 0.000000 0.000000 0.000000 0.039637 0.000000 0.000000
# 5 0.000000 0.000000 0.000000 0.000000 0.028887 0.000000
# 6 0.000000 0.000000 0.000000 0.000000 0.000000 0.038237
#
#
# Mechanical properties :
#
#
# Convention : Reuss Voigt Hill
#
# Bulk Modulus (GPa) = 52.90540 69.82510 61.36525
# Shear Modulus (GPa) = 29.10029 31.50187 30.30108
#
# Velocity S-wave (km/s) = 3.92191 4.08053 4.00201
# Velocity P-wave (km/s) = 6.96221 7.68818 7.33418
#
# Compressibility (1/GPa) = 0.01890166
#
# Stress axis : x y z
#
# Youngs Moduli (GPa) = 107.89080 51.64861 98.04314
#
# Poissons Ratio (x) = 0.20677 0.41602
# Poissons Ratio (y) = 0.43192 0.16840
# Poissons Ratio (z) = 0.45780 0.08871
#
# Static dielectric constant tensor:
#      x y z
#    x 3.737560 0.000000 0.000000 
#    y 0.000000 3.200720 0.000000 
#    z 0.000000 0.000000 3.360320 
# 
# 
# High freq. dielectric constant tensor:
#      x y z
#    x 1.757120 0.000000 0.000000 
#    y 0.000000 1.715150 0.000000 
#    z 0.000000 0.000000 1.719670 
# 
# From -- ./inp_files/23692.got.cif
#   From: 2010.03.12/outbox.cif.g09.slc.cpg/sg42_12_cif.got.tgz:23692.got - 2010.04.14 02:04:31.
