data_PCOD8186398
_publ_section_title
;
Structure prediction by ZEFSAII (Michael W. Deem and Ramdas Pophale) SiO2 
 PCOD8186398
Probable space group: F M M 2
;
_chemical_formula_sum "Si O2"
_cell_formula_units_Z 96
_cell_length_a 23.770383
_cell_length_b 14.277047
_cell_length_c 14.343704
_cell_angle_alpha 90.000000
_cell_angle_beta 90.000000
_cell_angle_gamma 90.000000
_cell_volume 4867.835382
_symmetry_space_group_name_H-M "F M M 2"
_symmetry_group_IT_number 42
_symmetry_cell_setting 'orthorhombic'
loop_
_space_group_symop_operation_xyz
x,y,z
-x,-y,z
-x,y,z
x,-y,z
x,1/2+y,1/2+z
-x,1/2-y,1/2+z
-x,1/2+y,1/2+z
x,1/2-y,1/2+z
1/2+x,y,1/2+z
1/2-x,-y,1/2+z
1/2-x,y,1/2+z
1/2+x,-y,1/2+z
1/2+x,1/2+y,z
1/2-x,1/2-y,z
1/2-x,1/2+y,z
1/2+x,1/2-y,z
loop_
_atom_site_type_symbol
_atom_site_label
_atom_site_fract_x
_atom_site_fract_y
_atom_site_fract_z
Si Si1 0.000000 0.607479 0.837270
Si Si2 0.814771 0.249130 0.440459
Si Si3 0.670955 0.888730 0.283485
Si Si4 0.202510 0.397567 0.789225
Si Si5 0.606898 0.292237 0.612699
Si Si6 0.591507 0.396205 0.189720
Si Si7 0.000000 0.389862 0.039896
O O1 0.943180 0.631819 0.782001
O O2 0.000000 0.500000 0.862863
O O3 0.000000 0.659388 0.937289
O O4 0.750000 0.250000 0.472106
O O5 0.835263 0.346130 0.389242
O O6 0.823694 0.170180 0.364237
O O7 0.849128 0.215691 0.529446
O O8 0.735641 0.869872 0.252586
O O9 0.634637 0.830589 0.208462
O O10 0.655642 0.000000 0.284079
O O11 0.205992 0.500000 0.835922
O O12 0.158785 0.397901 0.704028
O O13 0.580050 0.187839 0.618851
O O14 0.556189 0.361518 0.593211
O O15 0.571951 0.500000 0.153643
O O16 0.000000 0.500000 0.035408
#
# Coordination Sequence:
#
# PCOD8186398 Si02
#       7
#     8  16  16  16  16  16   8
#     4   9  19  38  62  82 113 151 196 259 311 360
#     4  10  22  37  60  91 127 162 207 255 316 380
#     4  10  22  40  60  87 129 169 204 254 321 386
#     4   9  18  36  59  85 120 161 202 252 313 374
#     4  12  24  38  65  92 121 170 212 264 311 378
#     4  10  20  35  60  89 118 158 204 255 311 370
#     4  11  25  42  61  94 125 155 215 271 316 376
#
# _framework density 19.721291999999998
#
# number of rings (size 3 to 8) (size 9 to 14) (size 15 to 20)
#    0.000    1.833    1.667    2.000    2.333    3.333 
#    0.000    0.000    0.000    0.000    0.000    0.000 
#    0.000    0.000    0.000    0.000    0.000    0.000 
#
# Total GULP energy -297347.564135 kJ/mol
# GULP energy per Si atom -12389.481839 kJ/mol
# Density = 1.967641 g / cm^3
# Si number density = 19.721292 Si / 1000 Ang^3
#
#
#
# Elastic Constant Matrix: (Units=GPa)
#
#
# Indices 1 2 3 4 5 6 
#
# 1 99.6580 24.0345 36.4764 0.0000 0.0000 0.0000
# 2 24.0345 117.1289 33.9903 0.0000 0.0000 0.0000
# 3 36.4764 33.9903 65.5119 0.0000 0.0000 0.0000
# 4 0.0000 0.0000 0.0000 21.6781 0.0000 0.0000
# 5 0.0000 0.0000 0.0000 0.0000 2.6219 0.0000
# 6 0.0000 0.0000 0.0000 0.0000 0.0000 25.0589
#
#
#
# Elastic Compliance Matrix: (Units=1/GPa)
#
#
# Indices 1 2 3 4 5 6 
#
# 1 0.012644 -0.000649 -0.006703 0.000000 0.000000 0.000000
# 2 -0.000649 0.010084 -0.004871 0.000000 0.000000 0.000000
# 3 -0.006703 -0.004871 0.021524 0.000000 0.000000 0.000000
# 4 0.000000 0.000000 0.000000 0.046129 0.000000 0.000000
# 5 0.000000 0.000000 0.000000 0.000000 0.381408 0.000000
# 6 0.000000 0.000000 0.000000 0.000000 0.000000 0.039906
#
#
# Mechanical properties :
#
#
# Convention : Reuss Voigt Hill
#
# Bulk Modulus (GPa) = 50.48994 52.36679 51.42836
# Shear Modulus (GPa) = 9.21243 22.39162 15.80202
#
# Velocity S-wave (km/s) = 2.16367 3.37323 2.83374
# Velocity P-wave (km/s) = 5.64794 6.46395 6.06967
#
# Compressibility (1/GPa) = 0.01980593
#
# Stress axis : x y z
#
# Youngs Moduli (GPa) = 79.08599 99.16431 46.46006
#
# Poissons Ratio (x) = 0.06439 0.31144
# Poissons Ratio (y) = 0.05135 0.22629
# Poissons Ratio (z) = 0.53015 0.48299
#
# Static dielectric constant tensor:
#      x y z
#    x 3.737330 0.000000 0.000000 
#    y 0.000000 3.929210 0.000000 
#    z 0.000000 0.000000 3.442370 
# 
# 
# High freq. dielectric constant tensor:
#      x y z
#    x 1.773380 0.000000 0.000000 
#    y 0.000000 1.781990 0.000000 
#    z 0.000000 0.000000 1.740080 
# 
# From -- ./inp_files/15863.got.cif
#   From: 2010.03.12/outbox.cif.g09.slc.cpg/sg42_8_cif.got.tgz:15863.got - 2010.04.14 02:04:31.
