data_PCOD8186477
_publ_section_title
;
Structure prediction by ZEFSAII (Michael W. Deem and Ramdas Pophale) SiO2 
 PCOD8186477
Probable space group: F M M 2
;
_chemical_formula_sum "Si O2"
_cell_formula_units_Z 72
_cell_length_a 16.909735
_cell_length_b 15.579120
_cell_length_c 14.271421
_cell_angle_alpha 90.000000
_cell_angle_beta 90.000000
_cell_angle_gamma 90.000000
_cell_volume 3759.645890
_symmetry_space_group_name_H-M "F M M 2"
_symmetry_group_IT_number 42
_symmetry_cell_setting 'orthorhombic'
loop_
_space_group_symop_operation_xyz
x,y,z
-x,-y,z
-x,y,z
x,-y,z
x,1/2+y,1/2+z
-x,1/2-y,1/2+z
-x,1/2+y,1/2+z
x,1/2-y,1/2+z
1/2+x,y,1/2+z
1/2-x,-y,1/2+z
1/2-x,y,1/2+z
1/2+x,-y,1/2+z
1/2+x,1/2+y,z
1/2-x,1/2-y,z
1/2-x,1/2+y,z
1/2+x,1/2-y,z
loop_
_atom_site_type_symbol
_atom_site_label
_atom_site_fract_x
_atom_site_fract_y
_atom_site_fract_z
Si Si1 0.907868 0.163485 0.630780
Si Si2 0.242621 0.000000 0.863994
Si Si3 0.821306 0.000000 0.549387
Si Si4 0.353493 0.500000 0.036118
Si Si5 0.189240 0.325402 0.312945
Si Si6 0.089897 0.177316 0.000507
O O1 0.865234 0.084372 0.582135
O O2 0.879517 0.176475 0.736516
O O3 0.887573 0.248386 0.572783
O O4 0.000000 0.143082 0.633147
O O5 0.160949 0.000000 0.923773
O O6 0.239828 0.913675 0.802200
O O7 0.317827 0.000000 0.935073
O O8 0.731260 0.000000 0.589860
O O9 0.401644 0.412801 0.057524
O O10 0.250000 0.250000 0.293256
O O11 0.150735 0.315086 0.415065
O O12 0.000000 0.186941 0.964469
#
# Coordination Sequence:
#
# PCOD8186477 Si02
#       6
#    16   8   8   8  16  16
#     4  11  24  38  59  89 122 162 202 250 310 362
#     4   8  19  36  53  87 111 148 195 240 296 347
#     4  10  20  37  61  82 116 151 197 247 297 356
#     4   8  19  33  62  83 111 153 192 243 301 351
#     4  11  22  36  60  87 121 158 203 251 300 360
#     4  10  21  39  60  86 121 157 199 253 308 365
#
# _framework density 19.150741
#
# number of rings (size 3 to 8) (size 9 to 14) (size 15 to 20)
#    0.667    1.333    0.000    3.333    3.111    0.000 
#    0.000    3.333    0.000    0.000    0.000    6.222 
#    0.000    0.000    0.000    0.000    0.000    0.000 
#
# Total GULP energy -223131.112028 kJ/mol
# GULP energy per Si atom -12396.172890 kJ/mol
# Density = 1.910715 g / cm^3
# Si number density = 19.150741 Si / 1000 Ang^3
#
#
#
# Elastic Constant Matrix: (Units=GPa)
#
#
# Indices 1 2 3 4 5 6 
#
# 1 79.4651 43.1198 37.5575 0.0000 0.0000 0.0000
# 2 43.1198 159.3512 39.9950 0.0000 0.0000 0.0000
# 3 37.5575 39.9950 79.0360 0.0000 0.0000 0.0000
# 4 0.0000 0.0000 0.0000 13.3805 0.0000 0.0000
# 5 0.0000 0.0000 0.0000 0.0000 36.9331 0.0000
# 6 0.0000 0.0000 0.0000 0.0000 0.0000 36.9963
#
#
#
# Elastic Compliance Matrix: (Units=1/GPa)
#
#
# Indices 1 2 3 4 5 6 
#
# 1 0.017410 -0.003018 -0.006746 0.000000 0.000000 0.000000
# 2 -0.003018 0.007712 -0.002468 0.000000 0.000000 0.000000
# 3 -0.006746 -0.002468 0.017107 0.000000 0.000000 0.000000
# 4 0.000000 0.000000 0.000000 0.074735 0.000000 0.000000
# 5 0.000000 0.000000 0.000000 0.000000 0.027076 0.000000
# 6 0.000000 0.000000 0.000000 0.000000 0.000000 0.027030
#
#
# Mechanical properties :
#
#
# Convention : Reuss Voigt Hill
#
# Bulk Modulus (GPa) = 56.29209 62.13298 59.21253
# Shear Modulus (GPa) = 24.81933 30.60731 27.71332
#
# Velocity S-wave (km/s) = 3.60390 4.00213 3.80822
# Velocity P-wave (km/s) = 6.83926 7.33966 7.09387
#
# Compressibility (1/GPa) = 0.01776449
#
# Stress axis : x y z
#
# Youngs Moduli (GPa) = 57.43788 129.67512 58.45517
#
# Poissons Ratio (x) = 0.39135 0.39434
# Poissons Ratio (y) = 0.17334 0.14428
# Poissons Ratio (z) = 0.38748 0.32007
#
# Static dielectric constant tensor:
#      x y z
#    x 3.451610 0.000000 0.000000 
#    y 0.000000 3.829910 0.000000 
#    z 0.000000 0.000000 3.247570 
# 
# 
# High freq. dielectric constant tensor:
#      x y z
#    x 1.736490 0.000000 0.000000 
#    y 0.000000 1.768330 0.000000 
#    z 0.000000 0.000000 1.724840 
# 
# From -- ./inp_files/14899.got.cif
#   From: 2010.03.12/outbox.cif.g09.slc.cpg/sg42_8_cif.got.tgz:14899.got - 2010.04.14 02:04:31.
