data_PCOD8186673
_publ_section_title
;
Structure prediction by ZEFSAII (Michael W. Deem and Ramdas Pophale) SiO2 
 PCOD8186673
Probable space group: F M M 2
;
_chemical_formula_sum "Si O2"
_cell_formula_units_Z 112
_cell_length_a 14.368210
_cell_length_b 15.032589
_cell_length_c 22.947364
_cell_angle_alpha 90.000000
_cell_angle_beta 90.000000
_cell_angle_gamma 90.000000
_cell_volume 4956.433176
_symmetry_space_group_name_H-M "F M M 2"
_symmetry_group_IT_number 42
_symmetry_cell_setting 'orthorhombic'
loop_
_space_group_symop_operation_xyz
x,y,z
-x,-y,z
-x,y,z
x,-y,z
x,1/2+y,1/2+z
-x,1/2-y,1/2+z
-x,1/2+y,1/2+z
x,1/2-y,1/2+z
1/2+x,y,1/2+z
1/2-x,-y,1/2+z
1/2-x,y,1/2+z
1/2+x,-y,1/2+z
1/2+x,1/2+y,z
1/2-x,1/2-y,z
1/2-x,1/2+y,z
1/2+x,1/2-y,z
loop_
_atom_site_type_symbol
_atom_site_label
_atom_site_fract_x
_atom_site_fract_y
_atom_site_fract_z
Si Si1 0.276533 0.846384 0.110910
Si Si2 0.110074 0.098788 0.296083
Si Si3 0.599932 0.601445 0.170371
Si Si4 0.389231 0.280595 0.398455
Si Si5 0.106909 0.099687 0.503649
Si Si6 0.893381 0.103206 0.717297
Si Si7 0.888977 0.098362 0.848715
O O1 0.250000 0.750000 0.087660
O O2 0.177309 0.893110 0.120814
O O3 0.333561 0.898438 0.062380
O O4 0.334665 0.839550 0.170956
O O5 0.132084 0.143036 0.232625
O O6 0.154052 0.162577 0.345238
O O7 0.000000 0.093307 0.304971
O O8 0.154309 0.000000 0.303371
O O9 0.500000 0.642294 0.149050
O O10 0.582237 0.500000 0.186677
O O11 0.500000 0.283724 0.396014
O O12 0.355059 0.326331 0.458341
O O13 0.354247 0.177681 0.392047
O O14 0.000000 0.120108 0.519993
O O15 0.115456 0.000000 0.476842
O O16 0.853246 0.116937 0.782703
O O17 0.000000 0.135114 0.713736
O O18 0.884063 0.000000 0.699416
O O19 0.000000 0.098009 0.845820
O O20 0.855097 0.000000 0.870382
#
# Coordination Sequence:
#
# PCOD8186673 Si02
#       7
#    16  16  16  16  16  16  16
#     4  12  25  36  55  85 124 165 204 257 311 365
#     4   8  14  26  48  81 117 151 188 238 303 366
#     4   9  19  36  57  82 117 159 202 249 304 366
#     4   9  16  28  55  90 123 154 194 248 305 368
#     4  10  21  39  64  92 122 162 211 263 316 367
#     4   9  18  35  60  89 123 164 205 247 303 370
#     4   8  15  28  51  87 127 163 200 245 302 371
#
# _framework density 22.596895
#
# number of rings (size 3 to 8) (size 9 to 14) (size 15 to 20)
#    0.000    2.714    0.000    3.857    2.000    4.000 
#    0.000    0.000    3.143    2.571    0.000    2.000 
#    0.000    0.000    0.000    0.286    0.000    0.286 
#
# Total GULP energy -346997.662081 kJ/mol
# GULP energy per Si atom -12392.773646 kJ/mol
# Density = 2.254546 g / cm^3
# Si number density = 22.596895 Si / 1000 Ang^3
#
#
#
# Elastic Constant Matrix: (Units=GPa)
#
#
# Indices 1 2 3 4 5 6 
#
# 1 70.0162 22.2126 49.9839 0.0000 0.0000 0.0000
# 2 22.2126 120.5520 60.9621 0.0000 0.0000 0.0000
# 3 49.9839 60.9621 124.3533 0.0000 0.0000 0.0000
# 4 0.0000 0.0000 0.0000 36.3888 0.0000 0.0000
# 5 0.0000 0.0000 0.0000 0.0000 14.0857 0.0000
# 6 0.0000 0.0000 0.0000 0.0000 0.0000 18.4173
#
#
#
# Elastic Compliance Matrix: (Units=1/GPa)
#
#
# Indices 1 2 3 4 5 6 
#
# 1 0.020053 0.000507 -0.008309 0.000000 0.000000 0.000000
# 2 0.000507 0.011042 -0.005617 0.000000 0.000000 0.000000
# 3 -0.008309 -0.005617 0.014135 0.000000 0.000000 0.000000
# 4 0.000000 0.000000 0.000000 0.027481 0.000000 0.000000
# 5 0.000000 0.000000 0.000000 0.000000 0.070994 0.000000
# 6 0.000000 0.000000 0.000000 0.000000 0.000000 0.054297
#
#
# Mechanical properties :
#
#
# Convention : Reuss Voigt Hill
#
# Bulk Modulus (GPa) = 54.37040 64.58209 59.47625
# Shear Modulus (GPa) = 21.64772 25.89588 23.77180
#
# Velocity S-wave (km/s) = 3.09851 3.38892 3.24696
# Velocity P-wave (km/s) = 6.07571 6.62987 6.35883
#
# Compressibility (1/GPa) = 0.01839236
#
# Stress axis : x y z
#
# Youngs Moduli (GPa) = 49.86718 90.56117 70.74641
#
# Poissons Ratio (x) = -0.04589 0.58782
# Poissons Ratio (y) = -0.02527 0.39738
# Poissons Ratio (z) = 0.41434 0.50868
#
# Static dielectric constant tensor:
#      x y z
#    x 3.855590 0.000000 0.000000 
#    y 0.000000 4.166580 0.000000 
#    z 0.000000 0.000000 3.778980 
# 
# 
# High freq. dielectric constant tensor:
#      x y z
#    x 1.879100 0.000000 0.000000 
#    y 0.000000 1.888700 0.000000 
#    z 0.000000 0.000000 1.860190 
# 
# From -- ./inp_files/29501.got.cif
#   From: 2010.03.12/outbox.cif.g09.slc.cpg/sg42_15_cif.got.tgz:29501.got - 2010.04.14 02:04:31.
