data_PCOD8186868
_publ_section_title
;
Structure prediction by ZEFSAII (Michael W. Deem and Ramdas Pophale) SiO2 
 PCOD8186868
Probable space group: F M M 2
;
_chemical_formula_sum "Si O2"
_cell_formula_units_Z 64
_cell_length_a 7.610169
_cell_length_b 15.419564
_cell_length_c 27.136290
_cell_angle_alpha 90.000000
_cell_angle_beta 90.000000
_cell_angle_gamma 90.000000
_cell_volume 3184.321191
_symmetry_space_group_name_H-M "F M M 2"
_symmetry_group_IT_number 42
_symmetry_cell_setting 'orthorhombic'
loop_
_space_group_symop_operation_xyz
x,y,z
-x,-y,z
-x,y,z
x,-y,z
x,1/2+y,1/2+z
-x,1/2-y,1/2+z
-x,1/2+y,1/2+z
x,1/2-y,1/2+z
1/2+x,y,1/2+z
1/2-x,-y,1/2+z
1/2-x,y,1/2+z
1/2+x,-y,1/2+z
1/2+x,1/2+y,z
1/2-x,1/2-y,z
1/2-x,1/2+y,z
1/2+x,1/2-y,z
loop_
_atom_site_type_symbol
_atom_site_label
_atom_site_fract_x
_atom_site_fract_y
_atom_site_fract_z
Si Si1 0.000000 0.602474 0.257041
Si Si2 0.201254 0.844088 0.328725
Si Si3 0.500000 0.397736 0.644450
Si Si4 0.699116 0.000000 0.010138
Si Si5 0.697986 0.343036 0.073663
Si Si6 0.207157 0.000000 0.898711
O O1 0.823984 0.638994 0.281769
O O2 0.000000 0.500000 0.263641
O O3 0.000000 0.633110 0.200771
O O4 0.250000 0.750000 0.351074
O O5 0.000000 0.847161 0.310686
O O6 0.230755 0.914265 0.371006
O O7 0.500000 0.500000 0.640287
O O8 0.324114 0.362151 0.619463
O O9 0.791324 0.086036 0.030599
O O10 0.500000 0.000000 0.029524
O O11 0.703506 0.000000 0.951653
O O12 0.500000 0.341116 0.094326
O O13 0.750000 0.250000 0.050423
O O14 0.000000 0.000000 0.904127
#
# Coordination Sequence:
#
# PCOD8186868 Si02
#       6
#     8  16   8   8  16   8
#     4  11  24  44  68  94 132 176 218 271 326 385
#     4  12  23  43  67  95 135 173 214 273 324 384
#     4  11  24  44  68  94 132 176 218 271 326 385
#     4  12  24  44  68  98 131 171 220 268 326 393
#     4  12  23  43  67  95 135 173 214 273 324 384
#     4  12  24  44  68  98 131 171 220 268 326 393
#
# _framework density 20.098474
#
# number of rings (size 3 to 8) (size 9 to 14) (size 15 to 20)
#    0.000    0.250    7.500    2.250    0.000    3.000 
#    0.000    7.500    0.000    0.000    0.000    0.000 
#    0.000    0.000    0.000    0.000    0.000    0.000 
#
# Total GULP energy -198483.109056 kJ/mol
# GULP energy per Si atom -12405.194316 kJ/mol
# Density = 2.005273 g / cm^3
# Si number density = 20.098474 Si / 1000 Ang^3
#
#
#
# Elastic Constant Matrix: (Units=GPa)
#
#
# Indices 1 2 3 4 5 6 
#
# 1 171.7859 34.5426 43.1831 0.0000 0.0000 0.0000
# 2 34.5426 165.4207 66.2896 0.0000 0.0000 0.0000
# 3 43.1831 66.2896 132.3486 0.0000 0.0000 0.0000
# 4 0.0000 0.0000 0.0000 12.2522 0.0000 0.0000
# 5 0.0000 0.0000 0.0000 0.0000 33.5680 0.0000
# 6 0.0000 0.0000 0.0000 0.0000 0.0000 34.7232
#
#
#
# Elastic Compliance Matrix: (Units=1/GPa)
#
#
# Indices 1 2 3 4 5 6 
#
# 1 0.006392 -0.000624 -0.001773 0.000000 0.000000 0.000000
# 2 -0.000624 0.007624 -0.003615 0.000000 0.000000 0.000000
# 3 -0.001773 -0.003615 0.009945 0.000000 0.000000 0.000000
# 4 0.000000 0.000000 0.000000 0.081618 0.000000 0.000000
# 5 0.000000 0.000000 0.000000 0.000000 0.029790 0.000000
# 6 0.000000 0.000000 0.000000 0.000000 0.000000 0.028799
#
#
# Mechanical properties :
#
#
# Convention : Reuss Voigt Hill
#
# Bulk Modulus (GPa) = 83.77437 84.17622 83.97529
# Shear Modulus (GPa) = 27.75110 37.81134 32.78122
#
# Velocity S-wave (km/s) = 3.71988 4.34211 4.04298
# Velocity P-wave (km/s) = 7.76032 8.19215 7.97915
#
# Compressibility (1/GPa) = 0.01193683
#
# Stress axis : x y z
#
# Youngs Moduli (GPa) = 156.43478 131.16072 100.55317
#
# Poissons Ratio (x) = 0.08189 0.17828
# Poissons Ratio (y) = 0.09767 0.36350
# Poissons Ratio (z) = 0.27736 0.47415
#
# Static dielectric constant tensor:
#      x y z
#    x 3.936490 0.000000 0.000000 
#    y 0.000000 4.042460 0.000000 
#    z 0.000000 0.000000 3.543200 
# 
# 
# High freq. dielectric constant tensor:
#      x y z
#    x 1.808800 0.000000 0.000000 
#    y 0.000000 1.806810 0.000000 
#    z 0.000000 0.000000 1.766150 
# 
# From -- ./inp_files/16794.got.cif
#   From: 2010.03.12/outbox.cif.g09.slc.cpg/sg42_9_cif.got.tgz:16794.got - 2010.04.14 02:04:31.
