data_PCOD8186683
_publ_section_title
;
Structure prediction by ZEFSAII (Michael W. Deem and Ramdas Pophale) SiO2 
 PCOD8186683
Probable space group: F M M 2
;
_chemical_formula_sum "Si O2"
_cell_formula_units_Z 88
_cell_length_a 12.097636
_cell_length_b 19.182160
_cell_length_c 16.391234
_cell_angle_alpha 90.000000
_cell_angle_beta 90.000000
_cell_angle_gamma 90.000000
_cell_volume 3803.729918
_symmetry_space_group_name_H-M "F M M 2"
_symmetry_group_IT_number 42
_symmetry_cell_setting 'orthorhombic'
loop_
_space_group_symop_operation_xyz
x,y,z
-x,-y,z
-x,y,z
x,-y,z
x,1/2+y,1/2+z
-x,1/2-y,1/2+z
-x,1/2+y,1/2+z
x,1/2-y,1/2+z
1/2+x,y,1/2+z
1/2-x,-y,1/2+z
1/2-x,y,1/2+z
1/2+x,-y,1/2+z
1/2+x,1/2+y,z
1/2-x,1/2-y,z
1/2-x,1/2+y,z
1/2+x,1/2-y,z
loop_
_atom_site_type_symbol
_atom_site_label
_atom_site_fract_x
_atom_site_fract_y
_atom_site_fract_z
Si Si1 0.131339 0.853047 0.960970
Si Si2 0.250000 0.750000 0.214055
Si Si3 0.631880 0.000000 0.723798
Si Si4 0.872088 0.000000 0.031902
Si Si5 0.123644 0.077205 0.480326
Si Si6 0.129059 0.285444 0.059678
Si Si7 0.209094 0.873943 0.320303
O O1 0.176020 0.855691 0.867794
O O2 0.000000 0.850818 0.959483
O O3 0.177989 0.926949 0.996825
O O4 0.173115 0.785278 0.014054
O O5 0.157130 0.716119 0.155520
O O6 0.182341 0.804202 0.270026
O O7 0.705506 0.064892 0.754086
O O8 0.500000 0.000000 0.748867
O O9 0.641927 0.000000 0.627709
O O10 0.000000 0.000000 0.006507
O O11 0.183111 0.142832 0.524521
O O12 0.118141 0.100944 0.385727
O O13 0.000000 0.068189 0.512749
O O14 0.181454 0.000000 0.493365
O O15 0.000000 0.290108 0.045359
#
# Coordination Sequence:
#
# PCOD8186683 Si02
#       7
#    16   8   8   8  16  16  16
#     4  10  21  40  65  92 123 169 224 266 315 387
#     4  12  26  40  58  98 138 166 210 266 336 394
#     4  11  23  40  63  97 131 169 216 267 330 386
#     4   9  19  36  60  87 119 159 209 263 309 372
#     4  10  21  40  65  91 119 163 223 273 314 378
#     4  10  22  42  65  90 125 174 221 265 322 386
#     4  12  23  38  61  94 132 167 208 266 330 382
#
# _framework density 23.135186000000001
#
# number of rings (size 3 to 8) (size 9 to 14) (size 15 to 20)
#    0.000    1.455    0.909    4.364    0.000    3.636 
#    1.636    0.000    0.000    0.000    0.000    0.000 
#    0.000    0.000    0.000    0.000    0.000    0.000 
#
# Total GULP energy -272567.053405 kJ/mol
# GULP energy per Si atom -12389.411518 kJ/mol
# Density = 2.308253 g / cm^3
# Si number density = 23.135186 Si / 1000 Ang^3
#
#
#
# Elastic Constant Matrix: (Units=GPa)
#
#
# Indices 1 2 3 4 5 6 
#
# 1 72.7260 79.7426 16.8642 0.0000 0.0000 0.0000
# 2 79.7426 236.4916 89.9049 0.0000 0.0000 0.0000
# 3 16.8642 89.9049 123.4989 0.0000 0.0000 0.0000
# 4 0.0000 0.0000 0.0000 37.8690 0.0000 0.0000
# 5 0.0000 0.0000 0.0000 0.0000 31.2178 0.0000
# 6 0.0000 0.0000 0.0000 0.0000 0.0000 41.4575
#
#
#
# Elastic Compliance Matrix: (Units=1/GPa)
#
#
# Indices 1 2 3 4 5 6 
#
# 1 0.022825 -0.009003 0.003437 0.000000 0.000000 0.000000
# 2 -0.009003 0.009398 -0.005612 0.000000 0.000000 0.000000
# 3 0.003437 -0.005612 0.011713 0.000000 0.000000 0.000000
# 4 0.000000 0.000000 0.000000 0.026407 0.000000 0.000000
# 5 0.000000 0.000000 0.000000 0.000000 0.032033 0.000000
# 6 0.000000 0.000000 0.000000 0.000000 0.000000 0.024121
#
#
# Mechanical properties :
#
#
# Convention : Reuss Voigt Hill
#
# Bulk Modulus (GPa) = 46.33864 89.52664 67.93264
# Shear Modulus (GPa) = 32.04198 38.52252 35.28225
#
# Velocity S-wave (km/s) = 3.72558 4.08500 3.90942
# Velocity P-wave (km/s) = 6.21125 7.81222 7.05728
#
# Compressibility (1/GPa) = 0.02158026
#
# Stress axis : x y z
#
# Youngs Moduli (GPa) = 43.81208 106.40999 85.37353
#
# Poissons Ratio (x) = 0.95801 -0.29345
# Poissons Ratio (y) = 0.39444 0.47911
# Poissons Ratio (z) = -0.15059 0.59716
#
# Static dielectric constant tensor:
#      x y z
#    x 4.289800 0.000000 0.000000 
#    y 0.000000 4.952090 0.000000 
#    z 0.000000 0.000000 3.978960 
# 
# 
# High freq. dielectric constant tensor:
#      x y z
#    x 1.946970 0.000000 0.000000 
#    y 0.000000 1.955750 0.000000 
#    z 0.000000 0.000000 1.894170 
# 
# From -- ./inp_files/19943.got.cif
#   From: 2010.03.12/outbox.cif.g09.slc.cpg/sg42_10_cif.got.tgz:19943.got - 2010.04.14 02:04:31.
