data_PCOD8186521
_publ_section_title
;
Structure prediction by ZEFSAII (Michael W. Deem and Ramdas Pophale) SiO2 
 PCOD8186521
Probable space group: F M M 2
;
_chemical_formula_sum "Si O2"
_cell_formula_units_Z 112
_cell_length_a 14.280455
_cell_length_b 29.021415
_cell_length_c 14.450802
_cell_angle_alpha 90.000000
_cell_angle_beta 90.000000
_cell_angle_gamma 90.000000
_cell_volume 5988.976088
_symmetry_space_group_name_H-M "F M M 2"
_symmetry_group_IT_number 42
_symmetry_cell_setting 'orthorhombic'
loop_
_space_group_symop_operation_xyz
x,y,z
-x,-y,z
-x,y,z
x,-y,z
x,1/2+y,1/2+z
-x,1/2-y,1/2+z
-x,1/2+y,1/2+z
x,1/2-y,1/2+z
1/2+x,y,1/2+z
1/2-x,-y,1/2+z
1/2-x,y,1/2+z
1/2+x,-y,1/2+z
1/2+x,1/2+y,z
1/2-x,1/2-y,z
1/2-x,1/2+y,z
1/2+x,1/2-y,z
loop_
_atom_site_type_symbol
_atom_site_label
_atom_site_fract_x
_atom_site_fract_y
_atom_site_fract_z
Si Si1 0.201804 0.947127 0.511670
Si Si2 0.193935 0.590652 0.677096
Si Si3 0.000000 0.945784 0.253299
Si Si4 0.000000 0.446125 0.959907
Si Si5 0.752068 0.627014 0.365158
Si Si6 0.606636 0.180195 0.622807
Si Si7 0.391372 0.203748 0.420817
Si Si8 0.608379 0.296018 0.326607
O O1 0.247121 0.943828 0.613107
O O2 0.092686 0.931783 0.516519
O O3 0.253469 0.912940 0.441540
O O4 0.211867 0.000000 0.476815
O O5 0.093100 0.570205 0.701719
O O6 0.256375 0.600953 0.767136
O O7 0.177230 0.637394 0.619880
O O8 0.000000 0.924002 0.356688
O O9 0.000000 0.000000 0.255410
O O10 0.000000 0.500000 0.943871
O O11 0.842776 0.658657 0.378918
O O12 0.660279 0.659508 0.368477
O O13 0.500000 0.161812 0.622807
O O14 0.626519 0.209979 0.530952
O O15 0.624512 0.209488 0.716120
O O16 0.500000 0.197639 0.397492
O O17 0.351260 0.249719 0.372946
O O18 0.500000 0.303014 0.351643
#
# Coordination Sequence:
#
# PCOD8186521 Si02
#       8
#    16  16   8   8  16  16  16  16
#     4  11  23  39  60  89 121 156 199 250 304 355
#     4  11  21  36  58  90 119 153 197 249 302 349
#     4  11  20  34  62  91 114 152 206 260 300 349
#     4   9  20  38  60  83 114 156 200 250 302 353
#     4  11  22  37  61  87 116 156 199 251 298 359
#     4   9  17  33  58  82 110 144 186 234 292 346
#     4  10  20  39  58  82 120 157 190 237 303 362
#     4   9  20  36  60  88 115 147 194 249 296 355
#
# _framework density 18.701027
#
# number of rings (size 3 to 8) (size 9 to 14) (size 15 to 20)
#    0.000    1.857    3.571    0.857    2.000    0.571 
#    3.857    1.429    0.000    0.000    0.000    0.000 
#    0.000    0.000    0.000    0.000    0.000    0.000 
#
# Total GULP energy -347156.001908 kJ/mol
# GULP energy per Si atom -12398.428640 kJ/mol
# Density = 1.865846 g / cm^3
# Si number density = 18.701027 Si / 1000 Ang^3
#
#
#
# Elastic Constant Matrix: (Units=GPa)
#
#
# Indices 1 2 3 4 5 6 
#
# 1 77.6213 28.2032 49.9364 0.0000 0.0000 0.0000
# 2 28.2032 97.6365 50.2471 0.0000 0.0000 0.0000
# 3 49.9364 50.2471 114.8784 0.0000 0.0000 0.0000
# 4 0.0000 0.0000 0.0000 33.7160 0.0000 0.0000
# 5 0.0000 0.0000 0.0000 0.0000 34.8337 0.0000
# 6 0.0000 0.0000 0.0000 0.0000 0.0000 26.0230
#
#
#
# Elastic Compliance Matrix: (Units=1/GPa)
#
#
# Indices 1 2 3 4 5 6 
#
# 1 0.018057 -0.001518 -0.007185 0.000000 0.000000 0.000000
# 2 -0.001518 0.013345 -0.005177 0.000000 0.000000 0.000000
# 3 -0.007185 -0.005177 0.014093 0.000000 0.000000 0.000000
# 4 0.000000 0.000000 0.000000 0.029659 0.000000 0.000000
# 5 0.000000 0.000000 0.000000 0.000000 0.028708 0.000000
# 6 0.000000 0.000000 0.000000 0.000000 0.000000 0.038427
#
#
# Mechanical properties :
#
#
# Convention : Reuss Voigt Hill
#
# Bulk Modulus (GPa) = 56.38961 60.76773 58.57867
# Shear Modulus (GPa) = 28.41530 29.69785 29.05657
#
# Velocity S-wave (km/s) = 3.90224 3.98934 3.94603
# Velocity P-wave (km/s) = 7.10788 7.33380 7.22172
#
# Compressibility (1/GPa) = 0.01773376
#
# Stress axis : x y z
#
# Youngs Moduli (GPa) = 55.37967 74.93501 70.95944
#
# Poissons Ratio (x) = 0.11377 0.50986
# Poissons Ratio (y) = 0.08408 0.36736
# Poissons Ratio (z) = 0.39791 0.38794
#
# Static dielectric constant tensor:
#      x y z
#    x 3.384090 0.000000 0.000000 
#    y 0.000000 3.441110 0.000000 
#    z 0.000000 0.000000 3.480810 
# 
# 
# High freq. dielectric constant tensor:
#      x y z
#    x 1.721460 0.000000 0.000000 
#    y 0.000000 1.722620 0.000000 
#    z 0.000000 0.000000 1.723830 
# 
# From -- ./inp_files/14448.got.cif
#   From: 2010.03.12/outbox.cif.g09.slc.cpg/sg42_8_cif.got.tgz:14448.got - 2010.04.14 02:04:31.
