data_PCOD8186165
_publ_section_title
;
Structure prediction by ZEFSAII (Michael W. Deem and Ramdas Pophale) SiO2 
 PCOD8186165
Probable space group: F M M 2
;
_chemical_formula_sum "Si O2"
_cell_formula_units_Z 48
_cell_length_a 7.492725
_cell_length_b 17.695002
_cell_length_c 19.105475
_cell_angle_alpha 90.000000
_cell_angle_beta 90.000000
_cell_angle_gamma 90.000000
_cell_volume 2533.076168
_symmetry_space_group_name_H-M "F M M 2"
_symmetry_group_IT_number 42
_symmetry_cell_setting 'orthorhombic'
loop_
_space_group_symop_operation_xyz
x,y,z
-x,-y,z
-x,y,z
x,-y,z
x,1/2+y,1/2+z
-x,1/2-y,1/2+z
-x,1/2+y,1/2+z
x,1/2-y,1/2+z
1/2+x,y,1/2+z
1/2-x,-y,1/2+z
1/2-x,y,1/2+z
1/2+x,-y,1/2+z
1/2+x,1/2+y,z
1/2-x,1/2-y,z
1/2-x,1/2+y,z
1/2+x,1/2-y,z
loop_
_atom_site_type_symbol
_atom_site_label
_atom_site_fract_x
_atom_site_fract_y
_atom_site_fract_z
Si Si1 0.205904 0.662769 0.808270
Si Si2 0.500000 0.089172 0.557699
Si Si3 0.500000 0.589518 0.901404
Si Si4 0.796267 0.587181 0.163862
O O1 0.250000 0.750000 0.816611
O O2 0.321578 0.616132 0.863183
O O3 0.253930 0.638022 0.730295
O O4 0.000000 0.646468 0.824864
O O5 0.500000 0.124128 0.479930
O O6 0.675776 0.115956 0.599520
O O7 0.500000 0.000000 0.550400
O O8 0.500000 0.500000 0.901616
O O9 0.753885 0.500000 0.182871
O O10 0.000000 0.597691 0.140527
#
# Coordination Sequence:
#
# PCOD8186165 Si02
#       4
#    16   8   8  16
#     4  12  23  39  64  88 124 162 205 250 305 356
#     4   9  20  37  58  86 123 155 194 251 301 348
#     4  11  24  41  62  94 126 157 202 253 300 360
#     4  10  19  35  62  92 119 154 201 249 297 357
#
# _framework density 18.949292
#
# number of rings (size 3 to 8) (size 9 to 14) (size 15 to 20)
#    0.000    1.333    5.000    1.000    0.000    3.333 
#    0.000    5.000    0.000    0.000    0.000    0.000 
#    0.000    0.000    0.000    0.000    0.000    0.000 
#
# Total GULP energy -148835.617558 kJ/mol
# GULP energy per Si atom -12402.968130 kJ/mol
# Density = 1.890616 g / cm^3
# Si number density = 18.949292 Si / 1000 Ang^3
#
#
#
# Elastic Constant Matrix: (Units=GPa)
#
#
# Indices 1 2 3 4 5 6 
#
# 1 181.4452 31.4949 76.5202 0.0000 0.0000 0.0000
# 2 31.4949 65.2428 35.0521 0.0000 0.0000 0.0000
# 3 76.5202 35.0521 165.9603 0.0000 0.0000 0.0000
# 4 0.0000 0.0000 0.0000 1.9183 0.0000 0.0000
# 5 0.0000 0.0000 0.0000 0.0000 46.1687 0.0000
# 6 0.0000 0.0000 0.0000 0.0000 0.0000 24.9515
#
#
#
# Elastic Compliance Matrix: (Units=1/GPa)
#
#
# Indices 1 2 3 4 5 6 
#
# 1 0.007037 -0.001866 -0.002851 0.000000 0.000000 0.000000
# 2 -0.001866 0.017784 -0.002896 0.000000 0.000000 0.000000
# 3 -0.002851 -0.002896 0.007952 0.000000 0.000000 0.000000
# 4 0.000000 0.000000 0.000000 0.521290 0.000000 0.000000
# 5 0.000000 0.000000 0.000000 0.000000 0.021660 0.000000
# 6 0.000000 0.000000 0.000000 0.000000 0.000000 0.040078
#
#
# Mechanical properties :
#
#
# Convention : Reuss Voigt Hill
#
# Bulk Modulus (GPa) = 56.98562 77.64253 67.31408
# Shear Modulus (GPa) = 7.85085 32.57977 20.21531
#
# Velocity S-wave (km/s) = 2.03766 4.15096 3.26975
# Velocity P-wave (km/s) = 5.97278 8.00230 7.06084
#
# Compressibility (1/GPa) = 0.01754829
#
# Stress axis : x y z
#
# Youngs Moduli (GPa) = 142.09875 56.23098 125.76138
#
# Poissons Ratio (x) = 0.10490 0.35851
# Poissons Ratio (y) = 0.26510 0.36419
# Poissons Ratio (z) = 0.40508 0.16284
#
# Static dielectric constant tensor:
#      x y z
#    x 3.832510 0.000000 0.000000 
#    y 0.000000 3.314060 0.000000 
#    z 0.000000 0.000000 3.656280 
# 
# 
# High freq. dielectric constant tensor:
#      x y z
#    x 1.757600 0.000000 0.000000 
#    y 0.000000 1.722420 0.000000 
#    z 0.000000 0.000000 1.734730 
# 
# From -- ./inp_files/11586.got.cif
#   From: 2010.03.12/outbox.cif.g09.slc.cpg/sg42_6_cif.got.tgz:11586.got - 2010.04.14 02:04:31.
