data_PCOD8186743
_publ_section_title
;
Structure prediction by ZEFSAII (Michael W. Deem and Ramdas Pophale) SiO2 
 PCOD8186743
Probable space group: F M M 2
;
_chemical_formula_sum "Si O2"
_cell_formula_units_Z 80
_cell_length_a 16.787025
_cell_length_b 18.843466
_cell_length_c 11.936148
_cell_angle_alpha 90.000000
_cell_angle_beta 90.000000
_cell_angle_gamma 90.000000
_cell_volume 3775.710787
_symmetry_space_group_name_H-M "F M M 2"
_symmetry_group_IT_number 42
_symmetry_cell_setting 'orthorhombic'
loop_
_space_group_symop_operation_xyz
x,y,z
-x,-y,z
-x,y,z
x,-y,z
x,1/2+y,1/2+z
-x,1/2-y,1/2+z
-x,1/2+y,1/2+z
x,1/2-y,1/2+z
1/2+x,y,1/2+z
1/2-x,-y,1/2+z
1/2-x,y,1/2+z
1/2+x,-y,1/2+z
1/2+x,1/2+y,z
1/2-x,1/2-y,z
1/2-x,1/2+y,z
1/2+x,1/2-y,z
loop_
_atom_site_type_symbol
_atom_site_label
_atom_site_fract_x
_atom_site_fract_y
_atom_site_fract_z
Si Si1 0.198851 0.183751 0.297050
Si Si2 0.906107 0.078302 0.652741
Si Si3 0.909339 0.350735 0.598687
Si Si4 0.410464 0.800189 0.995706
Si Si5 0.328322 0.582155 0.885787
O O1 0.250000 0.250000 0.247733
O O2 0.151601 0.139665 0.202161
O O3 0.136822 0.218096 0.383569
O O4 0.249244 0.128055 0.369472
O O5 0.869898 0.135314 0.565859
O O6 0.883432 0.097602 0.778917
O O7 0.000000 0.081658 0.645456
O O8 0.873909 0.000000 0.619967
O O9 0.909838 0.267640 0.574494
O O10 0.877394 0.396482 0.495567
O O11 0.000000 0.375731 0.627638
O O12 0.500000 0.820381 0.959950
O O13 0.304332 0.500000 0.895678
#
# Coordination Sequence:
#
# PCOD8186743 Si02
#       5
#    16  16  16  16  16
#     4  12  25  41  66  96 134 170 214 272 333 383
#     4   9  19  38  64  93 127 168 215 266 319 382
#     4  11  25  44  68  96 132 177 220 266 322 392
#     4  10  22  40  65  96 130 171 218 266 322 393
#     4  11  25  42  66  96 131 171 216 267 326 388
#
# _framework density 21.188063
#
# number of rings (size 3 to 8) (size 9 to 14) (size 15 to 20)
#    0.000    1.400    2.000    2.400    5.600    2.800 
#    0.000    0.000    0.000    3.600    0.000    0.000 
#    0.000    0.000    0.000    0.000    0.000    0.000 
#
# Total GULP energy -248020.611642 kJ/mol
# GULP energy per Si atom -12401.030582 kJ/mol
# Density = 2.113984 g / cm^3
# Si number density = 21.188063 Si / 1000 Ang^3
#
#
#
# Elastic Constant Matrix: (Units=GPa)
#
#
# Indices 1 2 3 4 5 6 
#
# 1 90.1478 34.6244 40.5897 0.0000 0.0000 0.0000
# 2 34.6244 82.8747 17.8468 0.0000 0.0000 0.0000
# 3 40.5897 17.8468 86.0118 0.0000 0.0000 0.0000
# 4 0.0000 0.0000 0.0000 39.7228 0.0000 0.0000
# 5 0.0000 0.0000 0.0000 0.0000 44.5787 0.0000
# 6 0.0000 0.0000 0.0000 0.0000 0.0000 19.2983
#
#
#
# Elastic Compliance Matrix: (Units=1/GPa)
#
#
# Indices 1 2 3 4 5 6 
#
# 1 0.016046 -0.005310 -0.006470 0.000000 0.000000 0.000000
# 2 -0.005310 0.014388 -0.000479 0.000000 0.000000 0.000000
# 3 -0.006470 -0.000479 0.014779 0.000000 0.000000 0.000000
# 4 0.000000 0.000000 0.000000 0.025174 0.000000 0.000000
# 5 0.000000 0.000000 0.000000 0.000000 0.022432 0.000000
# 6 0.000000 0.000000 0.000000 0.000000 0.000000 0.051818
#
#
# Mechanical properties :
#
#
# Convention : Reuss Voigt Hill
#
# Bulk Modulus (GPa) = 48.32555 49.46180 48.89368
# Shear Modulus (GPa) = 28.40004 31.78484 30.09244
#
# Velocity S-wave (km/s) = 3.66509 3.87735 3.77271
# Velocity P-wave (km/s) = 6.38498 6.59090 6.48876
#
# Compressibility (1/GPa) = 0.02069299
#
# Stress axis : x y z
#
# Youngs Moduli (GPa) = 62.32138 69.50080 67.66278
#
# Poissons Ratio (x) = 0.36908 0.43780
# Poissons Ratio (y) = 0.33096 0.03244
# Poissons Ratio (z) = 0.40324 0.03332
#
# Static dielectric constant tensor:
#      x y z
#    x 3.936920 0.000000 0.000000 
#    y 0.000000 3.952050 0.000000 
#    z 0.000000 0.000000 3.732540 
# 
# 
# High freq. dielectric constant tensor:
#      x y z
#    x 1.834310 0.000000 0.000000 
#    y 0.000000 1.829470 0.000000 
#    z 0.000000 0.000000 1.827990 
# 
# From -- ./inp_files/7767.got.cif
#   From: 2010.03.12/outbox.cif.g09.slc.cpg/sg42_4_cif.got.tgz:7767.got - 2010.04.14 02:04:31.
