data_PCOD8186622
_publ_section_title
;
Structure prediction by ZEFSAII (Michael W. Deem and Ramdas Pophale) SiO2 
 PCOD8186622
Probable space group: F M M 2
;
_chemical_formula_sum "Si O2"
_cell_formula_units_Z 80
_cell_length_a 17.448973
_cell_length_b 22.935290
_cell_length_c 9.432417
_cell_angle_alpha 90.000000
_cell_angle_beta 90.000000
_cell_angle_gamma 90.000000
_cell_volume 3774.827400
_symmetry_space_group_name_H-M "F M M 2"
_symmetry_group_IT_number 42
_symmetry_cell_setting 'orthorhombic'
loop_
_space_group_symop_operation_xyz
x,y,z
-x,-y,z
-x,y,z
x,-y,z
x,1/2+y,1/2+z
-x,1/2-y,1/2+z
-x,1/2+y,1/2+z
x,1/2-y,1/2+z
1/2+x,y,1/2+z
1/2-x,-y,1/2+z
1/2-x,y,1/2+z
1/2+x,-y,1/2+z
1/2+x,1/2+y,z
1/2-x,1/2-y,z
1/2-x,1/2+y,z
1/2+x,1/2-y,z
loop_
_atom_site_type_symbol
_atom_site_label
_atom_site_fract_x
_atom_site_fract_y
_atom_site_fract_z
Si Si1 0.785534 0.637983 0.030170
Si Si2 0.086450 0.293448 0.871246
Si Si3 0.740027 0.565163 0.275202
Si Si4 0.914144 0.064052 0.114056
Si Si5 0.871057 0.814150 0.046851
O O1 0.793427 0.609827 0.186092
O O2 0.863395 0.664488 0.970837
O O3 0.754084 0.583754 0.937715
O O4 0.720982 0.688300 0.031675
O O5 0.091848 0.227871 0.930711
O O6 0.110090 0.294076 0.707113
O O7 0.000000 0.315964 0.884885
O O8 0.771465 0.500000 0.257078
O O9 0.649841 0.570878 0.235793
O O10 0.902725 0.120314 0.012566
O O11 0.000000 0.067246 0.180302
O O12 0.903944 0.000000 0.038366
#
# Coordination Sequence:
#
# PCOD8186622 Si02
#       5
#    16  16  16  16  16
#     4  11  22  40  65  95 130 171 216 271 318 392
#     4  12  25  43  66  95 132 172 216 269 326 387
#     4  10  21  37  62  96 130 170 219 270 324 383
#     4   9  17  35  62  91 124 163 212 265 315 375
#     4  11  25  41  63  96 131 171 218 264 324 388
#
# _framework density 21.193021999999999
#
# number of rings (size 3 to 8) (size 9 to 14) (size 15 to 20)
#    0.000    1.400    4.000    3.000    2.800    2.400 
#    0.000    0.000    0.000    1.800    0.000    0.000 
#    0.000    0.000    0.000    0.000    0.000    0.000 
#
# Total GULP energy -247842.868305 kJ/mol
# GULP energy per Si atom -12392.143415 kJ/mol
# Density = 2.114479 g / cm^3
# Si number density = 21.193022 Si / 1000 Ang^3
#
#
#
# Elastic Constant Matrix: (Units=GPa)
#
#
# Indices 1 2 3 4 5 6 
#
# 1 120.8645 31.6943 30.0488 0.0000 0.0000 0.0000
# 2 31.6943 138.4947 36.3710 0.0000 0.0000 0.0000
# 3 30.0488 36.3710 51.9712 0.0000 0.0000 0.0000
# 4 0.0000 0.0000 0.0000 32.0659 0.0000 0.0000
# 5 0.0000 0.0000 0.0000 0.0000 16.1766 0.0000
# 6 0.0000 0.0000 0.0000 0.0000 0.0000 25.3359
#
#
#
# Elastic Compliance Matrix: (Units=1/GPa)
#
#
# Indices 1 2 3 4 5 6 
#
# 1 0.009758 -0.000921 -0.004997 0.000000 0.000000 0.000000
# 2 -0.000921 0.008933 -0.005719 0.000000 0.000000 0.000000
# 3 -0.004997 -0.005719 0.026133 0.000000 0.000000 0.000000
# 4 0.000000 0.000000 0.000000 0.031186 0.000000 0.000000
# 5 0.000000 0.000000 0.000000 0.000000 0.061818 0.000000
# 6 0.000000 0.000000 0.000000 0.000000 0.000000 0.039470
#
#
# Mechanical properties :
#
#
# Convention : Reuss Voigt Hill
#
# Bulk Modulus (GPa) = 46.40510 56.39542 51.40026
# Shear Modulus (GPa) = 24.06675 28.93008 26.49842
#
# Velocity S-wave (km/s) = 3.37352 3.69870 3.53985
# Velocity P-wave (km/s) = 6.09246 6.70139 6.40417
#
# Compressibility (1/GPa) = 0.02154936
#
# Stress axis : x y z
#
# Youngs Moduli (GPa) = 102.48451 111.94207 38.26512
#
# Poissons Ratio (x) = 0.10305 0.19123
# Poissons Ratio (y) = 0.09435 0.21886
# Poissons Ratio (z) = 0.51215 0.64025
#
# Static dielectric constant tensor:
#      x y z
#    x 3.958770 0.000000 0.000000 
#    y 0.000000 4.224040 0.000000 
#    z 0.000000 0.000000 3.568850 
# 
# 
# High freq. dielectric constant tensor:
#      x y z
#    x 1.829780 0.000000 0.000000 
#    y 0.000000 1.851310 0.000000 
#    z 0.000000 0.000000 1.801490 
# 
# From -- ./inp_files/3467.got.cif
#   From: 2010.03.12/outbox.cif.g09.slc.cpg/sg42_2_cif.got.tgz:3467.got - 2010.04.14 02:04:31.
