data_PCOD8186761
_publ_section_title
;
Structure prediction by ZEFSAII (Michael W. Deem and Ramdas Pophale) SiO2 
 PCOD8186761
Probable space group: F M M 2
;
_chemical_formula_sum "Si O2"
_cell_formula_units_Z 72
_cell_length_a 23.825234
_cell_length_b 10.359481
_cell_length_c 13.761684
_cell_angle_alpha 90.000000
_cell_angle_beta 90.000000
_cell_angle_gamma 90.000000
_cell_volume 3396.618371
_symmetry_space_group_name_H-M "F M M 2"
_symmetry_group_IT_number 42
_symmetry_cell_setting 'orthorhombic'
loop_
_space_group_symop_operation_xyz
x,y,z
-x,-y,z
-x,y,z
x,-y,z
x,1/2+y,1/2+z
-x,1/2-y,1/2+z
-x,1/2+y,1/2+z
x,1/2-y,1/2+z
1/2+x,y,1/2+z
1/2-x,-y,1/2+z
1/2-x,y,1/2+z
1/2+x,-y,1/2+z
1/2+x,1/2+y,z
1/2-x,1/2-y,z
1/2-x,1/2+y,z
1/2+x,1/2-y,z
loop_
_atom_site_type_symbol
_atom_site_label
_atom_site_fract_x
_atom_site_fract_y
_atom_site_fract_z
Si Si1 0.500000 0.000000 0.511611
Si Si2 0.088887 0.500000 0.344143
Si Si3 0.201299 0.850261 0.094371
Si Si4 0.500000 0.276015 0.526857
Si Si5 0.500000 0.000000 0.179478
Si Si6 0.118137 0.257482 0.438709
Si Si7 0.206471 0.141984 0.317712
O O1 0.553268 0.000000 0.442666
O O2 0.500000 0.131445 0.574473
O O3 0.123391 0.367694 0.353968
O O4 0.055415 0.500000 0.244010
O O5 0.250000 0.750000 0.062744
O O6 0.187242 0.831818 0.207577
O O7 0.218402 0.000000 0.071632
O O8 0.144847 0.811061 0.038168
O O9 0.500000 0.373908 0.614432
O O10 0.445057 0.292963 0.458819
O O11 0.153393 0.141874 0.390670
O O12 0.250000 0.250000 0.354044
O O13 0.234575 0.000000 0.325393
#
# Coordination Sequence:
#
# PCOD8186761 Si02
#       7
#     4   8  16   8   4  16  16
#     4   7  16  42  60  81 118 170 207 244 312 391
#     4   9  20  38  64  86 124 173 211 254 317 389
#     4  10  22  43  66  95 125 167 216 266 321 390
#     4  10  24  40  64  97 131 169 218 266 319 380
#     4  11  24  42  64  95 130 168 233 270 308 365
#     4  11  22  41  67  92 133 173 214 259 328 391
#     4  10  24  42  65  95 131 167 216 269 327 385
#
# _framework density 21.197554
#
# number of rings (size 3 to 8) (size 9 to 14) (size 15 to 20)
#    0.000    2.000    1.111    1.333    6.222    2.667 
#    0.000    0.000    0.000    4.000    0.000    0.000 
#    0.000    0.000    0.000    0.000    0.000    0.000 
#
# Total GULP energy -223106.050882 kJ/mol
# GULP energy per Si atom -12394.780605 kJ/mol
# Density = 2.114931 g / cm^3
# Si number density = 21.197554 Si / 1000 Ang^3
#
#
#
# Elastic Constant Matrix: (Units=GPa)
#
#
# Indices 1 2 3 4 5 6 
#
# 1 124.6988 46.9543 48.8098 0.0000 0.0000 0.0000
# 2 46.9543 137.6785 55.0285 0.0000 0.0000 0.0000
# 3 48.8098 55.0285 93.0649 0.0000 0.0000 0.0000
# 4 0.0000 0.0000 0.0000 29.5150 0.0000 0.0000
# 5 0.0000 0.0000 0.0000 0.0000 40.9604 0.0000
# 6 0.0000 0.0000 0.0000 0.0000 0.0000 26.2001
#
#
#
# Elastic Compliance Matrix: (Units=1/GPa)
#
#
# Indices 1 2 3 4 5 6 
#
# 1 0.010418 -0.001793 -0.004404 0.000000 0.000000 0.000000
# 2 -0.001793 0.009820 -0.004866 0.000000 0.000000 0.000000
# 3 -0.004404 -0.004866 0.015932 0.000000 0.000000 0.000000
# 4 0.000000 0.000000 0.000000 0.033881 0.000000 0.000000
# 5 0.000000 0.000000 0.000000 0.000000 0.024414 0.000000
# 6 0.000000 0.000000 0.000000 0.000000 0.000000 0.038168
#
#
# Mechanical properties :
#
#
# Convention : Reuss Voigt Hill
#
# Bulk Modulus (GPa) = 71.20256 73.00305 72.10280
# Shear Modulus (GPa) = 31.35984 32.97841 32.16912
#
# Velocity S-wave (km/s) = 3.85048 3.94860 3.89985
# Velocity P-wave (km/s) = 7.30966 7.43658 7.37339
#
# Compressibility (1/GPa) = 0.01404444
#
# Stress axis : x y z
#
# Youngs Moduli (GPa) = 95.98584 101.83719 62.76631
#
# Poissons Ratio (x) = 0.18258 0.27642
# Poissons Ratio (y) = 0.17209 0.30542
# Poissons Ratio (z) = 0.42272 0.49553
#
# Static dielectric constant tensor:
#      x y z
#    x 3.625600 0.000000 0.000000 
#    y 0.000000 4.256620 0.000000 
#    z 0.000000 0.000000 3.618440 
# 
# 
# High freq. dielectric constant tensor:
#      x y z
#    x 1.823580 0.000000 0.000000 
#    y 0.000000 1.843030 0.000000 
#    z 0.000000 0.000000 1.821510 
# 
# From -- ./inp_files/10562.got.cif
#   From: 2010.03.12/outbox.cif.g09.slc.cpg/sg42_6_cif.got.tgz:10562.got - 2010.04.14 02:04:31.
