data_PCOD8186624
_publ_section_title
;
Structure prediction by ZEFSAII (Michael W. Deem and Ramdas Pophale) SiO2 
 PCOD8186624
Probable space group: F M M 2
;
_chemical_formula_sum "Si O2"
_cell_formula_units_Z 116
_cell_length_a 22.247564
_cell_length_b 25.935035
_cell_length_c 9.864535
_cell_angle_alpha 90.000000
_cell_angle_beta 90.000000
_cell_angle_gamma 90.000000
_cell_volume 5691.751377
_symmetry_space_group_name_H-M "F M M 2"
_symmetry_group_IT_number 42
_symmetry_cell_setting 'orthorhombic'
loop_
_space_group_symop_operation_xyz
x,y,z
-x,-y,z
-x,y,z
x,-y,z
x,1/2+y,1/2+z
-x,1/2-y,1/2+z
-x,1/2+y,1/2+z
x,1/2-y,1/2+z
1/2+x,y,1/2+z
1/2-x,-y,1/2+z
1/2-x,y,1/2+z
1/2+x,-y,1/2+z
1/2+x,1/2+y,z
1/2-x,1/2-y,z
1/2-x,1/2+y,z
1/2+x,1/2-y,z
loop_
_atom_site_type_symbol
_atom_site_label
_atom_site_fract_x
_atom_site_fract_y
_atom_site_fract_z
Si Si1 0.192596 0.442019 0.339210
Si Si2 0.678158 0.393826 0.332410
Si Si3 0.654715 0.865061 0.117685
Si Si4 0.568572 0.718601 0.731931
Si Si5 0.107488 0.198091 0.028397
Si Si6 0.394271 0.418650 0.076052
Si Si7 0.000000 0.500000 0.596175
Si Si8 0.272698 0.804895 0.665251
O O1 0.188351 0.500000 0.285367
O O2 0.262227 0.427503 0.351150
O O3 0.155494 0.407373 0.234643
O O4 0.161531 0.436718 0.484507
O O5 0.641963 0.391670 0.473624
O O6 0.631783 0.419959 0.228772
O O7 0.695391 0.335825 0.286626
O O8 0.602669 0.825035 0.148669
O O9 0.718587 0.837256 0.103464
O O10 0.500000 0.701752 0.737703
O O11 0.575801 0.772443 0.653096
O O12 0.592805 0.724432 0.884790
O O13 0.085393 0.139021 0.032814
O O14 0.179705 0.202061 0.043393
O O15 0.450435 0.456043 0.067532
O O16 0.250000 0.750000 0.721881
#
# Coordination Sequence:
#
# PCOD8186624 Si02
#       8
#    16  16  16  16  16  16   4  16
#     4  11  22  44  71  99 132 173 224 284 344 401
#     4  10  24  40  66 103 139 169 215 284 348 406
#     4  11  24  41  65 103 136 176 222 275 341 402
#     4  12  27  44  66  94 139 184 227 267 327 399
#     4  11  25  45  68 102 135 177 227 278 335 403
#     4  11  25  46  71 100 130 181 236 272 339 397
#     4  12  28  48  76  94 128 192 240 296 306 408
#     4  10  21  37  67  99 141 176 218 270 336 409
#
# _framework density 20.380369000000002
#
# number of rings (size 3 to 8) (size 9 to 14) (size 15 to 20)
#    0.000    1.103    3.448    2.897    8.690    2.207 
#    1.241    0.000    0.000    0.828    0.000    0.000 
#    0.000    0.000    0.000    0.000    0.000    0.000 
#
# Total GULP energy -359271.287943 kJ/mol
# GULP energy per Si atom -12388.665101 kJ/mol
# Density = 2.033398 g / cm^3
# Si number density = 20.380369 Si / 1000 Ang^3
#
#
#
# Elastic Constant Matrix: (Units=GPa)
#
#
# Indices 1 2 3 4 5 6 
#
# 1 115.2977 38.6416 43.2448 0.0001 -0.0004 -0.0001
# 2 38.6416 132.2853 28.6443 0.0000 -0.0003 -0.0001
# 3 43.2448 28.6443 124.3459 0.0009 -0.0008 -0.0008
# 4 0.0001 0.0000 0.0009 15.3118 -0.0004 -0.0001
# 5 -0.0004 -0.0003 -0.0008 -0.0004 5.5701 0.0002
# 6 -0.0001 -0.0001 -0.0008 -0.0001 0.0002 26.6094
#
#
#
# Elastic Compliance Matrix: (Units=1/GPa)
#
#
# Indices 1 2 3 4 5 6 
#
# 1 0.010671 -0.002435 -0.003150 0.000000 0.000000 0.000000
# 2 -0.002435 0.008512 -0.001114 0.000000 0.000000 0.000000
# 3 -0.003150 -0.001114 0.009394 -0.000001 0.000001 0.000000
# 4 0.000000 0.000000 -0.000001 0.065309 0.000005 0.000000
# 5 0.000000 0.000000 0.000001 0.000005 0.179528 -0.000001
# 6 0.000000 0.000000 0.000000 0.000000 -0.000001 0.037581
#
#
# Mechanical properties :
#
#
# Convention : Reuss Voigt Hill
#
# Bulk Modulus (GPa) = 65.88129 65.88783 65.88456
# Shear Modulus (GPa) = 15.17668 26.92482 21.05075
#
# Velocity S-wave (km/s) = 2.73183 3.63866 3.21735
# Velocity P-wave (km/s) = 6.50742 7.07477 6.79702
#
# Compressibility (1/GPa) = 0.01517882
#
# Stress axis : x y z
#
# Youngs Moduli (GPa) = 93.71385 117.48276 106.44794
#
# Poissons Ratio (x) = 0.28606 0.33533
# Poissons Ratio (y) = 0.22818 0.11858
# Poissons Ratio (z) = 0.29521 0.13087
#
# Static dielectric constant tensor:
#      x y z
#    x 4.525870 0.000000 0.000000 
#    y 0.000000 4.525350 0.000000 
#    z 0.000000 0.000000 3.651040 
# 
# 
# High freq. dielectric constant tensor:
#      x y z
#    x 1.795680 0.000000 0.000000 
#    y 0.000000 1.808930 0.000000 
#    z 0.000000 0.000000 1.789500 
# 
# From -- ./inp_files/4868.got.cif
#   From: 2010.03.12/outbox.cif.g09.slc.cpg/sg42_3_cif.got.tgz:4868.got - 2010.04.14 02:04:31.
