data_PCOD8186774
_publ_section_title
;
Structure prediction by ZEFSAII (Michael W. Deem and Ramdas Pophale) SiO2 
 PCOD8186774
Probable space group: F M M 2
;
_chemical_formula_sum "Si O2"
_cell_formula_units_Z 72
_cell_length_a 14.966208
_cell_length_b 9.163886
_cell_length_c 25.875662
_cell_angle_alpha 90.000000
_cell_angle_beta 90.000000
_cell_angle_gamma 90.000000
_cell_volume 3548.811437
_symmetry_space_group_name_H-M "F M M 2"
_symmetry_group_IT_number 42
_symmetry_cell_setting 'orthorhombic'
loop_
_space_group_symop_operation_xyz
x,y,z
-x,-y,z
-x,y,z
x,-y,z
x,1/2+y,1/2+z
-x,1/2-y,1/2+z
-x,1/2+y,1/2+z
x,1/2-y,1/2+z
1/2+x,y,1/2+z
1/2-x,-y,1/2+z
1/2-x,y,1/2+z
1/2+x,-y,1/2+z
1/2+x,1/2+y,z
1/2-x,1/2-y,z
1/2-x,1/2+y,z
1/2+x,1/2-y,z
loop_
_atom_site_type_symbol
_atom_site_label
_atom_site_fract_x
_atom_site_fract_y
_atom_site_fract_z
Si Si1 0.750000 0.750000 0.446131
Si Si2 0.329322 0.339205 0.044897
Si Si3 0.898855 0.663409 0.867325
Si Si4 0.000000 0.674249 0.077705
Si Si5 0.500000 0.827583 0.195221
Si Si6 0.158257 0.326833 0.267398
O O1 0.698086 0.861773 0.484488
O O2 0.825933 0.828334 0.412505
O O3 0.343453 0.500000 0.069541
O O4 0.250000 0.250000 0.074415
O O5 0.415927 0.239560 0.048372
O O6 0.893321 0.500000 0.843940
O O7 0.875238 0.780936 0.823872
O O8 0.000000 0.694001 0.887863
O O9 0.000000 0.500000 0.073133
O O10 0.000000 0.730348 0.136819
O O11 0.587707 0.771336 0.224840
O O12 0.500000 0.000000 0.195740
O O13 0.170753 0.500000 0.267463
O O14 0.250000 0.250000 0.252564
#
# Coordination Sequence:
#
# PCOD8186774 Si02
#       6
#     8  16  16   8   8  16
#     4  10  24  38  66  90 130 164 212 252 320 362
#     4  10  23  42  64  93 127 163 212 263 316 377
#     4  11  23  39  62  93 127 167 211 253 306 369
#     4  11  23  43  70  93 126 165 210 269 324 375
#     4   9  22  43  64  91 124 165 206 255 322 373
#     4  11  22  40  63  90 127 165 207 255 308 370
#
# _framework density 20.288482999999999
#
# number of rings (size 3 to 8) (size 9 to 14) (size 15 to 20)
#    0.667    0.889    2.222    2.333    1.556    1.778 
#    0.000    6.667    0.000    0.000    0.000    0.000 
#    0.000    0.000    0.000    0.000    0.000    0.000 
#
# Total GULP energy -223086.334564 kJ/mol
# GULP energy per Si atom -12393.685254 kJ/mol
# Density = 2.024231 g / cm^3
# Si number density = 20.288483 Si / 1000 Ang^3
#
#
#
# Elastic Constant Matrix: (Units=GPa)
#
#
# Indices 1 2 3 4 5 6 
#
# 1 197.3958 62.7069 56.1753 0.0000 0.0000 0.0000
# 2 62.7069 127.0995 24.5301 0.0000 0.0000 0.0000
# 3 56.1753 24.5301 93.3766 0.0000 0.0000 0.0000
# 4 0.0000 0.0000 0.0000 12.3644 0.0000 0.0000
# 5 0.0000 0.0000 0.0000 0.0000 58.8502 0.0000
# 6 0.0000 0.0000 0.0000 0.0000 0.0000 32.9524
#
#
#
# Elastic Compliance Matrix: (Units=1/GPa)
#
#
# Indices 1 2 3 4 5 6 
#
# 1 0.006918 -0.002749 -0.003440 0.000000 0.000000 0.000000
# 2 -0.002749 0.009381 -0.000810 0.000000 0.000000 0.000000
# 3 -0.003440 -0.000810 0.012992 0.000000 0.000000 0.000000
# 4 0.000000 0.000000 0.000000 0.080877 0.000000 0.000000
# 5 0.000000 0.000000 0.000000 0.000000 0.016992 0.000000
# 6 0.000000 0.000000 0.000000 0.000000 0.000000 0.030347
#
#
# Mechanical properties :
#
#
# Convention : Reuss Voigt Hill
#
# Bulk Modulus (GPa) = 65.39523 78.29963 71.84743
# Shear Modulus (GPa) = 28.31208 39.13072 33.72140
#
# Velocity S-wave (km/s) = 3.73966 4.39648 4.08130
# Velocity P-wave (km/s) = 7.13788 8.02801 7.59600
#
# Compressibility (1/GPa) = 0.01529163
#
# Stress axis : x y z
#
# Youngs Moduli (GPa) = 144.54521 106.60196 76.97323
#
# Poissons Ratio (x) = 0.29309 0.26477
# Poissons Ratio (y) = 0.39741 0.06237
# Poissons Ratio (z) = 0.49720 0.08638
#
# Static dielectric constant tensor:
#      x y z
#    x 3.507470 0.000000 0.000000 
#    y 0.000000 3.517830 0.000000 
#    z 0.000000 0.000000 3.563280 
# 
# 
# High freq. dielectric constant tensor:
#      x y z
#    x 1.814560 0.000000 0.000000 
#    y 0.000000 1.789630 0.000000 
#    z 0.000000 0.000000 1.770240 
# 
# From -- ./inp_files/32450.got.cif
#   From: 2010.03.12/outbox.cif.g09.slc.cpg/sg42_17_cif.got.tgz:32450.got - 2010.04.14 02:04:31.
