data_PCOD8186660
_publ_section_title
;
Structure prediction by ZEFSAII (Michael W. Deem and Ramdas Pophale) SiO2 
 PCOD8186660
Probable space group: F M M 2
;
_chemical_formula_sum "Si O2"
_cell_formula_units_Z 112
_cell_length_a 13.295076
_cell_length_b 22.568954
_cell_length_c 17.322175
_cell_angle_alpha 90.000000
_cell_angle_beta 90.000000
_cell_angle_gamma 90.000000
_cell_volume 5197.621826
_symmetry_space_group_name_H-M "F M M 2"
_symmetry_group_IT_number 42
_symmetry_cell_setting 'orthorhombic'
loop_
_space_group_symop_operation_xyz
x,y,z
-x,-y,z
-x,y,z
x,-y,z
x,1/2+y,1/2+z
-x,1/2-y,1/2+z
-x,1/2+y,1/2+z
x,1/2-y,1/2+z
1/2+x,y,1/2+z
1/2-x,-y,1/2+z
1/2-x,y,1/2+z
1/2+x,-y,1/2+z
1/2+x,1/2+y,z
1/2-x,1/2-y,z
1/2-x,1/2+y,z
1/2+x,1/2-y,z
loop_
_atom_site_type_symbol
_atom_site_label
_atom_site_fract_x
_atom_site_fract_y
_atom_site_fract_z
Si Si1 0.382613 0.434383 0.664600
Si Si2 0.619044 0.172297 0.265185
Si Si3 0.118515 0.800908 0.219218
Si Si4 0.615928 0.217962 0.423133
Si Si5 0.791300 0.932016 0.504571
Si Si6 0.619428 0.344638 0.384898
Si Si7 0.384514 0.138056 0.565816
O O1 0.500000 0.437590 0.680019
O O2 0.334998 0.500000 0.681011
O O3 0.333972 0.384966 0.721660
O O4 0.365998 0.416822 0.575175
O O5 0.500000 0.168063 0.258814
O O6 0.659475 0.232990 0.224883
O O7 0.657068 0.174569 0.354746
O O8 0.147757 0.840086 0.294121
O O9 0.160487 0.836591 0.145641
O O10 0.000000 0.795647 0.210835
O O11 0.500000 0.228820 0.399915
O O12 0.663239 0.283932 0.423404
O O13 0.628519 0.191736 0.506816
O O14 0.822695 0.897227 0.427638
O O15 0.679126 0.917126 0.534605
O O16 0.794564 0.000000 0.480526
O O17 0.500000 0.353713 0.396019
O O18 0.500000 0.117009 0.572661
#
# Coordination Sequence:
#
# PCOD8186660 Si02
#       7
#    16  16  16  16  16  16  16
#     4   9  18  33  54  82 118 156 191 232 286 352
#     4   8  14  29  54  84 117 149 185 231 287 348
#     4   8  16  33  59  88 114 147 191 240 295 348
#     4   8  16  32  57  87 116 148 185 234 291 348
#     4  11  24  39  55  82 117 155 200 241 285 348
#     4   9  18  36  62  90 121 149 182 238 301 353
#     4  10  21  39  61  82 112 152 199 246 293 344
#
# _framework density 21.548314999999999
#
# number of rings (size 3 to 8) (size 9 to 14) (size 15 to 20)
#    0.000    3.000    0.000    2.143    2.000    1.714 
#    2.571    1.429    0.000    5.143    0.000    0.000 
#    0.000    0.000    0.000    0.000    0.000    0.000 
#
# Total GULP energy -347039.492280 kJ/mol
# GULP energy per Si atom -12394.267581 kJ/mol
# Density = 2.149927 g / cm^3
# Si number density = 21.548315 Si / 1000 Ang^3
#
#
#
# Elastic Constant Matrix: (Units=GPa)
#
#
# Indices 1 2 3 4 5 6 
#
# 1 29.4268 33.9168 28.5112 0.0000 0.0000 0.0000
# 2 33.9168 146.8482 88.6492 0.0000 0.0000 0.0000
# 3 28.5112 88.6492 142.5956 0.0000 0.0000 0.0000
# 4 0.0000 0.0000 0.0000 40.3396 0.0000 0.0000
# 5 0.0000 0.0000 0.0000 0.0000 18.2657 0.0000
# 6 0.0000 0.0000 0.0000 0.0000 0.0000 5.5990
#
#
#
# Elastic Compliance Matrix: (Units=1/GPa)
#
#
# Indices 1 2 3 4 5 6 
#
# 1 0.047920 -0.008458 -0.004323 0.000000 0.000000 0.000000
# 2 -0.008458 0.012394 -0.006014 0.000000 0.000000 0.000000
# 3 -0.004323 -0.006014 0.011616 0.000000 0.000000 0.000000
# 4 0.000000 0.000000 0.000000 0.024790 0.000000 0.000000
# 5 0.000000 0.000000 0.000000 0.000000 0.054747 0.000000
# 6 0.000000 0.000000 0.000000 0.000000 0.000000 0.178603
#
#
# Mechanical properties :
#
#
# Convention : Reuss Voigt Hill
#
# Bulk Modulus (GPa) = 29.12097 69.00277 49.06187
# Shear Modulus (GPa) = 13.18894 24.02710 18.60802
#
# Velocity S-wave (km/s) = 2.47668 3.34283 2.94181
# Velocity P-wave (km/s) = 4.66070 6.85502 5.86146
#
# Compressibility (1/GPa) = 0.03433952
#
# Stress axis : x y z
#
# Youngs Moduli (GPa) = 20.86821 80.68636 86.08909
#
# Poissons Ratio (x) = 0.68245 0.37217
# Poissons Ratio (y) = 0.17650 0.51772
# Poissons Ratio (z) = 0.09021 0.48523
#
# Static dielectric constant tensor:
#      x y z
#    x 3.904790 0.000000 0.000000 
#    y 0.000000 3.966460 0.000000 
#    z 0.000000 0.000000 3.931140 
# 
# 
# High freq. dielectric constant tensor:
#      x y z
#    x 1.854930 0.000000 0.000000 
#    y 0.000000 1.824480 0.000000 
#    z 0.000000 0.000000 1.846750 
# 
# From -- ./inp_files/14280.got.cif
#   From: 2010.03.12/outbox.cif.g09.slc.cpg/sg42_8_cif.got.tgz:14280.got - 2010.04.14 02:04:31.
