data_PCOD8186529
_publ_section_title
;
Structure prediction by ZEFSAII (Michael W. Deem and Ramdas Pophale) SiO2 
 PCOD8186529
Probable space group: F M M 2
;
_chemical_formula_sum "Si O2"
_cell_formula_units_Z 80
_cell_length_a 14.087247
_cell_length_b 23.169998
_cell_length_c 10.943984
_cell_angle_alpha 90.000000
_cell_angle_beta 90.000000
_cell_angle_gamma 90.000000
_cell_volume 3572.132627
_symmetry_space_group_name_H-M "F M M 2"
_symmetry_group_IT_number 42
_symmetry_cell_setting 'orthorhombic'
loop_
_space_group_symop_operation_xyz
x,y,z
-x,-y,z
-x,y,z
x,-y,z
x,1/2+y,1/2+z
-x,1/2-y,1/2+z
-x,1/2+y,1/2+z
x,1/2-y,1/2+z
1/2+x,y,1/2+z
1/2-x,-y,1/2+z
1/2-x,y,1/2+z
1/2+x,-y,1/2+z
1/2+x,1/2+y,z
1/2-x,1/2-y,z
1/2-x,1/2+y,z
1/2+x,1/2-y,z
loop_
_atom_site_type_symbol
_atom_site_label
_atom_site_fract_x
_atom_site_fract_y
_atom_site_fract_z
Si Si1 0.000000 0.063579 0.893970
Si Si2 0.807747 0.388302 0.067636
Si Si3 0.000000 0.180034 0.041351
Si Si4 0.150617 0.728856 0.963911
Si Si5 0.000000 0.333092 0.815489
Si Si6 0.790700 0.434476 0.322306
Si Si7 0.000000 0.064701 0.491496
O O1 0.000000 0.119731 0.975135
O O2 0.904837 0.067285 0.813711
O O3 0.000000 0.000000 0.961597
O O4 0.754095 0.404009 0.195651
O O5 0.832024 0.319958 0.067719
O O6 0.746253 0.403138 0.945844
O O7 0.905939 0.423626 0.070180
O O8 0.905717 0.217141 0.019138
O O9 0.000000 0.156853 0.175469
O O10 0.250000 0.750000 0.909798
O O11 0.093232 0.702202 0.852209
O O12 0.000000 0.396140 0.872107
O O13 0.752250 0.500000 0.324838
O O14 0.000000 0.000000 0.443608
#
# Coordination Sequence:
#
# PCOD8186529 Si02
#       7
#     8  16   8  16   8  16   8
#     4  10  24  43  65  91 124 164 208 255 317 389
#     4  11  24  41  64  96 127 165 216 261 311 378
#     4  11  23  42  64  92 125 164 211 267 318 374
#     4  10  23  41  61  88 124 168 210 257 315 379
#     4   9  23  40  60  92 125 158 213 263 308 370
#     4  11  23  42  66  95 129 168 212 263 317 376
#     4  10  20  39  63  89 124 166 204 251 313 379
#
# _framework density 22.395586999999999
#
# number of rings (size 3 to 8) (size 9 to 14) (size 15 to 20)
#    0.000    1.600    0.000    4.200    0.000   13.200 
#    0.000    2.000    0.000    0.000    0.000    0.000 
#    0.000    0.000    0.000    0.000    0.000    0.000 
#
# Total GULP energy -247890.291344 kJ/mol
# GULP energy per Si atom -12394.514567 kJ/mol
# Density = 2.234461 g / cm^3
# Si number density = 22.395587 Si / 1000 Ang^3
#
#
#
# Elastic Constant Matrix: (Units=GPa)
#
#
# Indices 1 2 3 4 5 6 
#
# 1 120.0634 32.0309 21.2829 0.0000 0.0000 0.0000
# 2 32.0309 185.6522 66.9976 0.0000 0.0000 0.0000
# 3 21.2829 66.9976 150.7943 0.0000 0.0000 0.0000
# 4 0.0000 0.0000 0.0000 18.4835 0.0000 0.0000
# 5 0.0000 0.0000 0.0000 0.0000 -3.9580 0.0000
# 6 0.0000 0.0000 0.0000 0.0000 0.0000 29.7881
#
#
#
# Elastic Compliance Matrix: (Units=1/GPa)
#
#
# Indices 1 2 3 4 5 6 
#
# 1 0.008788 -0.001273 -0.000675 0.000000 0.000000 0.000000
# 2 -0.001273 0.006599 -0.002752 0.000000 0.000000 0.000000
# 3 -0.000675 -0.002752 0.007950 0.000000 0.000000 0.000000
# 4 0.000000 0.000000 0.000000 0.054102 0.000000 0.000000
# 5 0.000000 0.000000 0.000000 0.000000 -0.252651 0.000000
# 6 0.000000 0.000000 0.000000 0.000000 0.000000 0.033570
#
#
# Mechanical properties :
#
#
# Convention : Reuss Voigt Hill
#
# Bulk Modulus (GPa) = 71.75097 77.45919 74.60508
# Shear Modulus (GPa) = -39.18624 31.27594 -3.95515
#
# Velocity S-wave (km/s) = -4.18752 3.74106 -1.33037
# Velocity P-wave (km/s) = 2.95418 7.30223 5.57000
#
# Compressibility (1/GPa) = 0.01393709
#
# Stress axis : x y z
#
# Youngs Moduli (GPa) = 113.79033 151.53162 125.79086
#
# Poissons Ratio (x) = 0.19285 0.08490
# Poissons Ratio (y) = 0.14482 0.34623
# Poissons Ratio (z) = 0.07680 0.41708
#
# Static dielectric constant tensor:
#      x y z
#    x 4.309300 0.000000 0.000000 
#    y 0.000000 4.277760 0.000000 
#    z 0.000000 0.000000 3.637590 
# 
# 
# High freq. dielectric constant tensor:
#      x y z
#    x 1.890950 0.000000 0.000000 
#    y 0.000000 1.901580 0.000000 
#    z 0.000000 0.000000 1.859970 
# 
# From -- ./inp_files/7814.got.cif
#   From: 2010.03.12/outbox.cif.g09.slc.cpg/sg42_4_cif.got.tgz:7814.got - 2010.04.14 02:04:31.
