data_PCOD8186335
_publ_section_title
;
Structure prediction by ZEFSAII (Michael W. Deem and Ramdas Pophale) SiO2 
 PCOD8186335
Probable space group: F M M 2
;
_chemical_formula_sum "Si O2"
_cell_formula_units_Z 112
_cell_length_a 24.577650
_cell_length_b 16.614113
_cell_length_c 14.578569
_cell_angle_alpha 90.000000
_cell_angle_beta 90.000000
_cell_angle_gamma 90.000000
_cell_volume 5952.952428
_symmetry_space_group_name_H-M "F M M 2"
_symmetry_group_IT_number 42
_symmetry_cell_setting 'orthorhombic'
loop_
_space_group_symop_operation_xyz
x,y,z
-x,-y,z
-x,y,z
x,-y,z
x,1/2+y,1/2+z
-x,1/2-y,1/2+z
-x,1/2+y,1/2+z
x,1/2-y,1/2+z
1/2+x,y,1/2+z
1/2-x,-y,1/2+z
1/2-x,y,1/2+z
1/2+x,-y,1/2+z
1/2+x,1/2+y,z
1/2-x,1/2-y,z
1/2-x,1/2+y,z
1/2+x,1/2-y,z
loop_
_atom_site_type_symbol
_atom_site_label
_atom_site_fract_x
_atom_site_fract_y
_atom_site_fract_z
Si Si1 0.627819 0.729439 0.375000
Si Si2 0.300925 0.092797 0.792058
Si Si3 0.435918 0.671214 0.748867
Si Si4 0.941499 0.000000 0.769011
Si Si5 0.280334 0.166444 0.424019
Si Si6 0.374231 0.654135 0.565932
Si Si7 0.560158 0.500000 0.552923
Si Si8 0.252879 0.905174 0.101803
O O1 0.649779 0.650512 0.322465
O O2 0.573375 0.757247 0.321926
O O3 0.665889 0.809060 0.367979
O O4 0.620342 0.717525 0.483429
O O5 0.253128 0.101823 0.865533
O O6 0.276777 0.121375 0.694997
O O7 0.320899 0.000000 0.789786
O O8 0.500000 0.663409 0.727485
O O9 0.412777 0.585520 0.791328
O O10 0.404339 0.690719 0.654611
O O11 0.948449 0.000000 0.660326
O O12 0.000000 0.000000 0.818919
O O13 0.250000 0.250000 0.441526
O O14 0.288557 0.123590 0.522286
O O15 0.404687 0.576875 0.524039
O O16 0.311381 0.637350 0.590043
O O17 0.500000 0.500000 0.505330
O O18 0.262821 0.000000 0.100074
#
# Coordination Sequence:
#
# PCOD8186335 Si02
#       8
#    16  16  16   8  16  16   8  16
#     4  11  24  37  59  85 119 158 192 239 292 354
#     4  10  22  37  57  82 120 157 193 236 285 346
#     4  10  22  40  61  87 116 147 193 247 295 347
#     4   7  14  34  58  79 106 136 178 239 291 332
#     4  10  20  35  52  82 116 152 189 234 282 344
#     4  11  20  35  62  85 116 151 194 241 296 343
#     4   9  18  32  56  87 112 142 192 245 296 336
#     4  11  21  35  57  83 115 156 192 237 285 348
#
# _framework density 18.814194000000001
#
# number of rings (size 3 to 8) (size 9 to 14) (size 15 to 20)
#    0.000    1.857    3.571    2.571    3.000    2.857 
#    2.571    0.000    0.000    0.000    0.000    0.000 
#    0.000    0.000    0.000    0.000    0.000    0.000 
#
# Total GULP energy -346942.115779 kJ/mol
# GULP energy per Si atom -12390.789849 kJ/mol
# Density = 1.877137 g / cm^3
# Si number density = 18.814194 Si / 1000 Ang^3
#
#
#
# Elastic Constant Matrix: (Units=GPa)
#
#
# Indices 1 2 3 4 5 6 
#
# 1 50.8830 30.8204 15.4164 0.0000 0.0000 0.0000
# 2 30.8204 75.7683 44.9232 0.0000 0.0000 0.0000
# 3 15.4164 44.9232 103.1555 0.0000 0.0000 0.0000
# 4 0.0000 0.0000 0.0000 33.3579 0.0000 0.0000
# 5 0.0000 0.0000 0.0000 0.0000 20.9368 0.0000
# 6 0.0000 0.0000 0.0000 0.0000 0.0000 16.5308
#
#
#
# Elastic Compliance Matrix: (Units=1/GPa)
#
#
# Indices 1 2 3 4 5 6 
#
# 1 0.026151 -0.011216 0.000976 0.000000 0.000000 0.000000
# 2 -0.011216 0.022603 -0.008167 0.000000 0.000000 0.000000
# 3 0.000976 -0.008167 0.013105 0.000000 0.000000 0.000000
# 4 0.000000 0.000000 0.000000 0.029978 0.000000 0.000000
# 5 0.000000 0.000000 0.000000 0.000000 0.047763 0.000000
# 6 0.000000 0.000000 0.000000 0.000000 0.000000 0.060493
#
#
# Mechanical properties :
#
#
# Convention : Reuss Voigt Hill
#
# Bulk Modulus (GPa) = 39.92869 45.79187 42.86028
# Shear Modulus (GPa) = 20.38694 23.40822 21.89758
#
# Velocity S-wave (km/s) = 3.29537 3.53112 3.41528
# Velocity P-wave (km/s) = 5.97896 6.40444 6.19536
#
# Compressibility (1/GPa) = 0.02504465
#
# Stress axis : x y z
#
# Youngs Moduli (GPa) = 38.23945 44.24209 76.30761
#
# Poissons Ratio (x) = 0.49624 -0.07451
# Poissons Ratio (y) = 0.42891 0.62321
# Poissons Ratio (z) = -0.03734 0.36133
#
# Static dielectric constant tensor:
#      x y z
#    x 3.491830 0.000000 0.000000 
#    y 0.000000 3.792100 0.000000 
#    z 0.000000 0.000000 3.403160 
# 
# 
# High freq. dielectric constant tensor:
#      x y z
#    x 1.707650 0.000000 0.000000 
#    y 0.000000 1.733950 0.000000 
#    z 0.000000 0.000000 1.722930 
# 
# From -- ./inp_files/17085.got.cif
#   From: 2010.03.12/outbox.cif.g09.slc.cpg/sg42_9_cif.got.tgz:17085.got - 2010.04.14 02:04:31.
