data_PCOD8186463
_publ_section_title
;
Structure prediction by ZEFSAII (Michael W. Deem and Ramdas Pophale) SiO2 
 PCOD8186463
Probable space group: F M M 2
;
_chemical_formula_sum "Si O2"
_cell_formula_units_Z 112
_cell_length_a 30.312879
_cell_length_b 13.521750
_cell_length_c 13.836318
_cell_angle_alpha 90.000000
_cell_angle_beta 90.000000
_cell_angle_gamma 90.000000
_cell_volume 5671.273905
_symmetry_space_group_name_H-M "F M M 2"
_symmetry_group_IT_number 42
_symmetry_cell_setting 'orthorhombic'
loop_
_space_group_symop_operation_xyz
x,y,z
-x,-y,z
-x,y,z
x,-y,z
x,1/2+y,1/2+z
-x,1/2-y,1/2+z
-x,1/2+y,1/2+z
x,1/2-y,1/2+z
1/2+x,y,1/2+z
1/2-x,-y,1/2+z
1/2-x,y,1/2+z
1/2+x,-y,1/2+z
1/2+x,1/2+y,z
1/2-x,1/2-y,z
1/2-x,1/2+y,z
1/2+x,1/2-y,z
loop_
_atom_site_type_symbol
_atom_site_label
_atom_site_fract_x
_atom_site_fract_y
_atom_site_fract_z
Si Si1 0.223841 0.116669 0.709080
Si Si2 0.414314 0.117191 0.463211
Si Si3 0.500000 0.617610 0.629086
Si Si4 0.676697 0.612035 0.523017
Si Si5 0.091043 0.707915 0.094048
Si Si6 0.311615 0.887400 0.806948
Si Si7 0.500000 0.615945 0.846720
Si Si8 0.861781 0.798400 0.791412
O O1 0.211561 0.154905 0.601305
O O2 0.271255 0.159035 0.744244
O O3 0.184879 0.148307 0.779445
O O4 0.229430 0.000000 0.715202
O O5 0.412376 0.175482 0.565681
O O6 0.458344 0.149930 0.408191
O O7 0.376230 0.154758 0.392318
O O8 0.410941 0.000000 0.483859
O O9 0.500000 0.500000 0.625564
O O10 0.543839 0.656584 0.574491
O O11 0.500000 0.661507 0.738716
O O12 0.665933 0.500000 0.552326
O O13 0.629370 0.666059 0.524408
O O14 0.700711 0.619389 0.420136
O O15 0.103698 0.683380 0.204937
O O16 0.354729 0.820168 0.791358
O O17 0.323249 0.000000 0.777248
O O18 0.500000 0.500000 0.832366
#
# Coordination Sequence:
#
# PCOD8186463 Si02
#       8
#    16  16   8  16  16  16   8  16
#     4   9  19  35  56  82 110 147 196 248 294 349
#     4  11  22  39  61  88 121 159 200 245 298 357
#     4  11  21  36  63  94 118 152 199 249 298 351
#     4   9  18  35  58  83 114 152 193 242 299 354
#     4  11  22  37  60  91 121 151 197 249 298 355
#     4  10  20  37  57  80 116 156 195 245 302 356
#     4   9  19  36  60  86 114 152 196 243 291 345
#     4  11  21  37  58  85 118 154 198 244 299 361
#
# _framework density 19.748650000000001
#
# number of rings (size 3 to 8) (size 9 to 14) (size 15 to 20)
#    0.000    1.857    2.857    1.714    0.000    1.714 
#    2.571    1.429    0.000    0.000    0.000    0.000 
#    0.000    0.000    0.000    0.000    0.000    0.000 
#
# Total GULP energy -347053.068495 kJ/mol
# GULP energy per Si atom -12394.752446 kJ/mol
# Density = 1.970370 g / cm^3
# Si number density = 19.748650 Si / 1000 Ang^3
#
#
#
# Elastic Constant Matrix: (Units=GPa)
#
#
# Indices 1 2 3 4 5 6 
#
# 1 92.2451 38.7196 19.0141 0.0000 0.0000 0.0000
# 2 38.7196 67.5101 19.2663 0.0000 0.0000 0.0000
# 3 19.0141 19.2663 52.9551 0.0000 0.0000 0.0000
# 4 0.0000 0.0000 0.0000 28.6028 0.0000 0.0000
# 5 0.0000 0.0000 0.0000 0.0000 12.0844 0.0000
# 6 0.0000 0.0000 0.0000 0.0000 0.0000 29.8238
#
#
#
# Elastic Compliance Matrix: (Units=1/GPa)
#
#
# Indices 1 2 3 4 5 6 
#
# 1 0.014556 -0.007651 -0.002443 0.000000 0.000000 0.000000
# 2 -0.007651 0.020551 -0.004730 0.000000 0.000000 0.000000
# 3 -0.002443 -0.004730 0.021482 0.000000 0.000000 0.000000
# 4 0.000000 0.000000 0.000000 0.034962 0.000000 0.000000
# 5 0.000000 0.000000 0.000000 0.000000 0.082751 0.000000
# 6 0.000000 0.000000 0.000000 0.000000 0.000000 0.033530
#
#
# Mechanical properties :
#
#
# Convention : Reuss Voigt Hill
#
# Bulk Modulus (GPa) = 37.11787 40.74556 38.93172
# Shear Modulus (GPa) = 20.28741 23.14957 21.71849
#
# Velocity S-wave (km/s) = 3.20860 3.42747 3.31984
# Velocity P-wave (km/s) = 5.70638 6.02829 5.86954
#
# Compressibility (1/GPa) = 0.02694120
#
# Stress axis : x y z
#
# Youngs Moduli (GPa) = 68.70138 48.66043 46.55120
#
# Poissons Ratio (x) = 0.37231 0.11371
# Poissons Ratio (y) = 0.52565 0.22017
# Poissons Ratio (z) = 0.16782 0.23014
#
# Static dielectric constant tensor:
#      x y z
#    x 3.680370 0.000000 0.000000 
#    y 0.000000 3.588460 0.000000 
#    z 0.000000 0.000000 3.558840 
# 
# 
# High freq. dielectric constant tensor:
#      x y z
#    x 1.767810 0.000000 0.000000 
#    y 0.000000 1.770140 0.000000 
#    z 0.000000 0.000000 1.760310 
# 
# From -- ./inp_files/14460.got.cif
#   From: 2010.03.12/outbox.cif.g09.slc.cpg/sg42_8_cif.got.tgz:14460.got - 2010.04.14 02:04:31.
