data_PCOD8186002
_publ_section_title
;
Structure prediction by ZEFSAII (Michael W. Deem and Ramdas Pophale) SiO2 
 PCOD8186002
Probable space group: F M M 2
;
_chemical_formula_sum "Si O2"
_cell_formula_units_Z 96
_cell_length_a 9.532878
_cell_length_b 18.154815
_cell_length_c 31.171663
_cell_angle_alpha 90.000000
_cell_angle_beta 90.000000
_cell_angle_gamma 90.000000
_cell_volume 5394.806041
_symmetry_space_group_name_H-M "F M M 2"
_symmetry_group_IT_number 42
_symmetry_cell_setting 'orthorhombic'
loop_
_space_group_symop_operation_xyz
x,y,z
-x,-y,z
-x,y,z
x,-y,z
x,1/2+y,1/2+z
-x,1/2-y,1/2+z
-x,1/2+y,1/2+z
x,1/2-y,1/2+z
1/2+x,y,1/2+z
1/2-x,-y,1/2+z
1/2-x,y,1/2+z
1/2+x,-y,1/2+z
1/2+x,1/2+y,z
1/2-x,1/2-y,z
1/2-x,1/2+y,z
1/2+x,1/2-y,z
loop_
_atom_site_type_symbol
_atom_site_label
_atom_site_fract_x
_atom_site_fract_y
_atom_site_fract_z
Si Si1 0.333679 0.824567 0.734600
Si Si2 0.656061 0.587709 0.060357
Si Si3 0.666711 0.918045 0.654335
Si Si4 0.662303 0.915148 0.981953
Si Si5 0.165713 0.082084 0.316773
Si Si6 0.834379 0.824940 0.397775
O O1 0.500000 0.808964 0.734403
O O2 0.250000 0.750000 0.741119
O O3 0.280396 0.862170 0.690660
O O4 0.289380 0.878288 0.773067
O O5 0.500000 0.619261 0.052371
O O6 0.652795 0.500000 0.059924
O O7 0.713414 0.612178 0.107359
O O8 0.755361 0.618125 0.022777
O O9 0.500000 0.923691 0.655531
O O10 0.728805 0.000000 0.662912
O O11 0.500000 0.906649 0.992847
O O12 0.705129 0.870021 0.940163
O O13 0.702337 0.000000 0.973403
O O14 0.220676 0.128208 0.357344
O O15 0.000000 0.075534 0.319736
O O16 0.231755 0.000000 0.317595
O O17 0.750000 0.750000 0.398534
O O18 0.000000 0.808758 0.394814
#
# Coordination Sequence:
#
# PCOD8186002 Si02
#       6
#    16  16  16  16  16  16
#     4  10  19  31  49  72  98 126 154 188 231 278
#     4   8  14  26  46  70  93 118 153 198 239 271
#     4   8  14  27  48  71  92 119 159 199 230 267
#     4   9  17  30  48  69  93 122 157 195 233 274
#     4   9  17  31  53  76  93 117 158 198 228 268
#     4  10  20  33  49  70  97 126 154 189 233 278
#
# _framework density 17.794893999999999
#
# number of rings (size 3 to 8) (size 9 to 14) (size 15 to 20)
#    0.000    3.000    0.000    2.500    0.000    4.667 
#    0.000    1.667    0.000    9.500    0.000    0.000 
#    0.000    0.000    0.000    0.000    0.000    0.000 
#
# Total GULP energy -297518.261659 kJ/mol
# GULP energy per Si atom -12396.594236 kJ/mol
# Density = 1.775439 g / cm^3
# Si number density = 17.794894 Si / 1000 Ang^3
#
#
#
# Elastic Constant Matrix: (Units=GPa)
#
#
# Indices 1 2 3 4 5 6 
#
# 1 36.7453 41.2558 50.1760 0.0000 0.0000 0.0000
# 2 41.2558 113.2024 76.0744 0.0000 0.0000 0.0000
# 3 50.1760 76.0744 182.1624 0.0000 0.0000 0.0000
# 4 0.0000 0.0000 0.0000 5.0902 0.0000 0.0000
# 5 0.0000 0.0000 0.0000 0.0000 23.5340 0.0000
# 6 0.0000 0.0000 0.0000 0.0000 0.0000 24.4810
#
#
#
# Elastic Compliance Matrix: (Units=1/GPa)
#
#
# Indices 1 2 3 4 5 6 
#
# 1 0.055981 -0.013956 -0.009591 0.000000 0.000000 0.000000
# 2 -0.013956 0.015759 -0.002737 0.000000 0.000000 0.000000
# 3 -0.009591 -0.002737 0.009275 0.000000 0.000000 0.000000
# 4 0.000000 0.000000 0.000000 0.196456 0.000000 0.000000
# 5 0.000000 0.000000 0.000000 0.000000 0.042492 0.000000
# 6 0.000000 0.000000 0.000000 0.000000 0.000000 0.040848
#
#
# Mechanical properties :
#
#
# Convention : Reuss Voigt Hill
#
# Bulk Modulus (GPa) = 35.15528 74.12471 54.64000
# Shear Modulus (GPa) = 11.82420 21.59463 16.70941
#
# Velocity S-wave (km/s) = 2.58053 3.48735 3.06764
# Velocity P-wave (km/s) = 5.35514 7.61321 6.58174
#
# Compressibility (1/GPa) = 0.02844523
#
# Stress axis : x y z
#
# Youngs Moduli (GPa) = 17.86333 63.45401 107.82095
#
# Poissons Ratio (x) = 0.88557 1.03415
# Poissons Ratio (y) = 0.24930 0.29513
# Poissons Ratio (z) = 0.17133 0.17369
#
# Static dielectric constant tensor:
#      x y z
#    x 2.978330 0.000000 0.000000 
#    y 0.000000 3.223370 0.000000 
#    z 0.000000 0.000000 3.738020 
# 
# 
# High freq. dielectric constant tensor:
#      x y z
#    x 1.645600 0.000000 0.000000 
#    y 0.000000 1.673880 0.000000 
#    z 0.000000 0.000000 1.710550 
# 
# From -- ./inp_files/28836.got.cif
#   From: 2010.03.12/outbox.cif.g09.slc.cpg/sg42_15_cif.got.tgz:28836.got - 2010.04.14 02:04:31.
