data_PCOD8186461
_publ_section_title
;
Structure prediction by ZEFSAII (Michael W. Deem and Ramdas Pophale) SiO2 
 PCOD8186461
Probable space group: F M M 2
;
_chemical_formula_sum "Si O2"
_cell_formula_units_Z 80
_cell_length_a 15.486720
_cell_length_b 27.503125
_cell_length_c 9.912729
_cell_angle_alpha 90.000000
_cell_angle_beta 90.000000
_cell_angle_gamma 90.000000
_cell_volume 4222.160344
_symmetry_space_group_name_H-M "F M M 2"
_symmetry_group_IT_number 42
_symmetry_cell_setting 'orthorhombic'
loop_
_space_group_symop_operation_xyz
x,y,z
-x,-y,z
-x,y,z
x,-y,z
x,1/2+y,1/2+z
-x,1/2-y,1/2+z
-x,1/2+y,1/2+z
x,1/2-y,1/2+z
1/2+x,y,1/2+z
1/2-x,-y,1/2+z
1/2-x,y,1/2+z
1/2+x,-y,1/2+z
1/2+x,1/2+y,z
1/2-x,1/2-y,z
1/2-x,1/2+y,z
1/2+x,1/2-y,z
loop_
_atom_site_type_symbol
_atom_site_label
_atom_site_fract_x
_atom_site_fract_y
_atom_site_fract_z
Si Si1 0.903668 0.789341 0.855010
Si Si2 0.170972 0.108289 0.834273
Si Si3 0.000000 0.055092 0.151006
Si Si4 0.171571 0.390267 0.647355
Si Si5 0.500000 0.445573 0.831071
Si Si6 0.839693 0.775605 0.138910
O O1 0.842917 0.834259 0.814814
O O2 0.908450 0.749071 0.738667
O O3 0.000000 0.809333 0.884511
O O4 0.866503 0.763037 0.987154
O O5 0.250402 0.091276 0.741330
O O6 0.086273 0.080843 0.779083
O O7 0.190668 0.096128 0.991224
O O8 0.914605 0.083207 0.201367
O O9 0.000000 0.055000 0.991118
O O10 0.000000 0.000000 0.207952
O O11 0.159633 0.332870 0.664081
O O12 0.500000 0.500000 0.773104
O O13 0.750000 0.750000 0.173734
#
# Coordination Sequence:
#
# PCOD8186461 Si02
#       6
#    16  16   8  16   8  16
#     4  11  22  35  53  79 114 150 189 223 268 330
#     4  10  20  37  56  83 113 145 185 233 277 335
#     4   9  20  40  62  83 109 149 195 237 284 343
#     4  10  22  36  59  83 114 148 189 233 279 335
#     4   9  18  36  62  83 105 143 187 229 282 343
#     4  11  22  35  53  81 114 152 187 225 273 326
#
# _framework density 18.947645999999999
#
# number of rings (size 3 to 8) (size 9 to 14) (size 15 to 20)
#    0.000    1.800    3.000    1.200    8.400    0.800 
#    0.000    1.000    0.000    1.200    0.000    0.000 
#    0.000    0.000    0.000    0.000    0.000    0.000 
#
# Total GULP energy -248028.794785 kJ/mol
# GULP energy per Si atom -12401.439739 kJ/mol
# Density = 1.890452 g / cm^3
# Si number density = 18.947646 Si / 1000 Ang^3
#
#
#
# Elastic Constant Matrix: (Units=GPa)
#
#
# Indices 1 2 3 4 5 6 
#
# 1 152.8524 56.5889 51.5882 0.0000 0.0000 0.0000
# 2 56.5889 102.1274 45.9303 0.0000 0.0000 0.0000
# 3 51.5882 45.9303 73.7625 0.0000 0.0000 0.0000
# 4 0.0000 0.0000 0.0000 11.2366 0.0000 0.0000
# 5 0.0000 0.0000 0.0000 0.0000 18.7670 0.0000
# 6 0.0000 0.0000 0.0000 0.0000 0.0000 25.1897
#
#
#
# Elastic Compliance Matrix: (Units=1/GPa)
#
#
# Indices 1 2 3 4 5 6 
#
# 1 0.009205 -0.003063 -0.004531 0.000000 0.000000 0.000000
# 2 -0.003063 0.014620 -0.006961 0.000000 0.000000 0.000000
# 3 -0.004531 -0.006961 0.021060 0.000000 0.000000 0.000000
# 4 0.000000 0.000000 0.000000 0.088995 0.000000 0.000000
# 5 0.000000 0.000000 0.000000 0.000000 0.053285 0.000000
# 6 0.000000 0.000000 0.000000 0.000000 0.000000 0.039699
#
#
# Mechanical properties :
#
#
# Convention : Reuss Voigt Hill
#
# Bulk Modulus (GPa) = 63.38964 70.77302 67.08133
# Shear Modulus (GPa) = 19.14008 22.68099 20.91053
#
# Velocity S-wave (km/s) = 3.18174 3.46357 3.32564
# Velocity P-wave (km/s) = 6.85753 7.30945 7.08710
#
# Compressibility (1/GPa) = 0.01577545
#
# Stress axis : x y z
#
# Youngs Moduli (GPa) = 108.63150 68.40153 47.48276
#
# Poissons Ratio (x) = 0.20952 0.21514
# Poissons Ratio (y) = 0.33275 0.33053
# Poissons Ratio (z) = 0.49219 0.47614
#
# Static dielectric constant tensor:
#      x y z
#    x 3.556020 0.000000 0.000000 
#    y 0.000000 3.429250 0.000000 
#    z 0.000000 0.000000 3.282600 
# 
# 
# High freq. dielectric constant tensor:
#      x y z
#    x 1.747880 0.000000 0.000000 
#    y 0.000000 1.729460 0.000000 
#    z 0.000000 0.000000 1.712720 
# 
# From -- ./inp_files/3522.got.cif
#   From: 2010.03.12/outbox.cif.g09.slc.cpg/sg42_2_cif.got.tgz:3522.got - 2010.04.14 02:04:31.
