data_PCOD8186069
_publ_section_title
;
Structure prediction by ZEFSAII (Michael W. Deem and Ramdas Pophale) SiO2 
 PCOD8186069
Probable space group: F M M 2
;
_chemical_formula_sum "Si O2"
_cell_formula_units_Z 112
_cell_length_a 15.711168
_cell_length_b 17.391502
_cell_length_c 22.961505
_cell_angle_alpha 90.000000
_cell_angle_beta 90.000000
_cell_angle_gamma 90.000000
_cell_volume 6274.020218
_symmetry_space_group_name_H-M "F M M 2"
_symmetry_group_IT_number 42
_symmetry_cell_setting 'orthorhombic'
loop_
_space_group_symop_operation_xyz
x,y,z
-x,-y,z
-x,y,z
x,-y,z
x,1/2+y,1/2+z
-x,1/2-y,1/2+z
-x,1/2+y,1/2+z
x,1/2-y,1/2+z
1/2+x,y,1/2+z
1/2-x,-y,1/2+z
1/2-x,y,1/2+z
1/2+x,-y,1/2+z
1/2+x,1/2+y,z
1/2-x,1/2-y,z
1/2-x,1/2+y,z
1/2+x,1/2-y,z
loop_
_atom_site_type_symbol
_atom_site_label
_atom_site_fract_x
_atom_site_fract_y
_atom_site_fract_z
Si Si1 0.095787 0.763640 0.504160
Si Si2 0.097366 0.854658 0.323688
Si Si3 0.690734 0.087113 0.019023
Si Si4 0.699646 0.321780 0.101493
Si Si5 0.245260 0.586315 0.393565
Si Si6 0.404326 0.198483 0.377914
Si Si7 0.399960 0.087070 0.697090
O O1 0.112417 0.854486 0.511515
O O2 0.152878 0.711681 0.545191
O O3 0.115410 0.741856 0.437955
O O4 0.000000 0.746316 0.521921
O O5 0.161924 0.891346 0.369693
O O6 0.102188 0.762011 0.326977
O O7 0.126289 0.880956 0.259940
O O8 0.000000 0.882004 0.337579
O O9 0.740559 0.109928 0.077860
O O10 0.656172 0.000000 0.025361
O O11 0.753477 0.093978 0.963440
O O12 0.750000 0.250000 0.130564
O O13 0.637790 0.357039 0.148830
O O14 0.225016 0.500000 0.374330
O O15 0.168006 0.635499 0.366484
O O16 0.500000 0.162017 0.378525
O O17 0.500000 0.088889 0.688595
O O18 0.365468 0.000000 0.690308
#
# Coordination Sequence:
#
# PCOD8186069 Si02
#       7
#    16  16  16  16  16  16  16
#     4  10  19  33  52  75 104 141 182 224 266 320
#     4  10  21  36  57  82 108 143 187 227 275 331
#     4  10  20  32  49  76 107 140 179 223 269 323
#     4  10  20  34  55  78 108 142 186 221 265 325
#     4  11  21  33  53  78 110 146 179 226 279 325
#     4  10  20  35  54  76 107 145 185 227 270 325
#     4  10  21  38  57  80 112 144 180 231 278 320
#
# _framework density 17.851393000000002
#
# number of rings (size 3 to 8) (size 9 to 14) (size 15 to 20)
#    0.000    1.857    2.857    1.714    0.000    2.571 
#    0.000    1.429    0.000    0.000    0.000    0.000 
#    0.000    6.857    0.000    0.000    0.000    0.000 
#
# Total GULP energy -347153.190716 kJ/mol
# GULP energy per Si atom -12398.328240 kJ/mol
# Density = 1.781076 g / cm^3
# Si number density = 17.851393 Si / 1000 Ang^3
#
#
#
# Elastic Constant Matrix: (Units=GPa)
#
#
# Indices 1 2 3 4 5 6 
#
# 1 66.2567 39.7345 22.9360 0.0000 0.0000 0.0000
# 2 39.7345 110.3150 34.6868 0.0000 0.0000 0.0000
# 3 22.9360 34.6868 62.8144 0.0000 0.0000 0.0000
# 4 0.0000 0.0000 0.0000 22.2067 0.0000 0.0000
# 5 0.0000 0.0000 0.0000 0.0000 23.3537 0.0000
# 6 0.0000 0.0000 0.0000 0.0000 0.0000 25.5053
#
#
#
# Elastic Compliance Matrix: (Units=1/GPa)
#
#
# Indices 1 2 3 4 5 6 
#
# 1 0.020063 -0.005957 -0.004036 0.000000 0.000000 0.000000
# 2 -0.005957 0.012739 -0.004859 0.000000 0.000000 0.000000
# 3 -0.004036 -0.004859 0.020077 0.000000 0.000000 0.000000
# 4 0.000000 0.000000 0.000000 0.045031 0.000000 0.000000
# 5 0.000000 0.000000 0.000000 0.000000 0.042820 0.000000
# 6 0.000000 0.000000 0.000000 0.000000 0.000000 0.039208
#
#
# Mechanical properties :
#
#
# Convention : Reuss Voigt Hill
#
# Bulk Modulus (GPa) = 43.15323 48.23341 45.69332
# Shear Modulus (GPa) = 23.00268 23.68173 23.34220
#
# Velocity S-wave (km/s) = 3.59355 3.64621 3.61998
# Velocity P-wave (km/s) = 6.43772 6.69362 6.56692
#
# Compressibility (1/GPa) = 0.02317324
#
# Stress axis : x y z
#
# Youngs Moduli (GPa) = 49.84403 78.50148 49.80852
#
# Poissons Ratio (x) = 0.46766 0.20102
# Poissons Ratio (y) = 0.29694 0.24203
# Poissons Ratio (z) = 0.20117 0.38145
#
# Static dielectric constant tensor:
#      x y z
#    x 3.268790 0.000000 0.000000 
#    y 0.000000 3.401280 0.000000 
#    z 0.000000 0.000000 3.152120 
# 
# 
# High freq. dielectric constant tensor:
#      x y z
#    x 1.686470 0.000000 0.000000 
#    y 0.000000 1.696480 0.000000 
#    z 0.000000 0.000000 1.674080 
# 
# From -- ./inp_files/26061.got.cif
#   From: 2010.03.12/outbox.cif.g09.slc.cpg/sg42_14_cif.got.tgz:26061.got - 2010.04.14 02:04:31.
