data_PCOD8186077
_publ_section_title
;
Structure prediction by ZEFSAII (Michael W. Deem and Ramdas Pophale) SiO2 
 PCOD8186077
Probable space group: F M M 2
;
_chemical_formula_sum "Si O2"
_cell_formula_units_Z 112
_cell_length_a 17.183833
_cell_length_b 28.009898
_cell_length_c 14.094205
_cell_angle_alpha 90.000000
_cell_angle_beta 90.000000
_cell_angle_gamma 90.000000
_cell_volume 6783.786241
_symmetry_space_group_name_H-M "F M M 2"
_symmetry_group_IT_number 42
_symmetry_cell_setting 'orthorhombic'
loop_
_space_group_symop_operation_xyz
x,y,z
-x,-y,z
-x,y,z
x,-y,z
x,1/2+y,1/2+z
-x,1/2-y,1/2+z
-x,1/2+y,1/2+z
x,1/2-y,1/2+z
1/2+x,y,1/2+z
1/2-x,-y,1/2+z
1/2-x,y,1/2+z
1/2+x,-y,1/2+z
1/2+x,1/2+y,z
1/2-x,1/2-y,z
1/2-x,1/2+y,z
1/2+x,1/2-y,z
loop_
_atom_site_type_symbol
_atom_site_label
_atom_site_fract_x
_atom_site_fract_y
_atom_site_fract_z
Si Si1 0.825093 0.719114 0.371890
Si Si2 0.729360 0.863831 0.951162
Si Si3 0.089464 0.701197 0.978682
Si Si4 0.589702 0.677151 0.692642
Si Si5 0.179615 0.911926 0.632785
Si Si6 0.913627 0.000000 0.551106
Si Si7 0.273727 0.552643 0.306036
Si Si8 0.084851 0.000000 0.326825
O O1 0.750000 0.750000 0.345565
O O2 0.798509 0.673859 0.434586
O O3 0.887150 0.747834 0.435247
O O4 0.862951 0.705122 0.272372
O O5 0.644261 0.840011 0.933521
O O6 0.746579 0.907375 0.881515
O O7 0.732589 0.882793 0.058374
O O8 0.000000 0.688950 0.953375
O O9 0.101307 0.703943 0.092166
O O10 0.500000 0.675567 0.722748
O O11 0.620017 0.623016 0.686127
O O12 0.130750 0.952521 0.581139
O O13 0.238932 0.935115 0.705067
O O14 0.920756 0.000000 0.439343
O O15 0.000000 0.000000 0.596809
O O16 0.241830 0.500000 0.339749
O O17 0.367641 0.547439 0.294181
O O18 0.000000 0.000000 0.279190
#
# Coordination Sequence:
#
# PCOD8186077 Si02
#       8
#    16  16  16  16  16   8  16   8
#     4  10  20  35  54  76 104 139 171 212 259 316
#     4  10  20  34  52  81 106 134 176 217 259 304
#     4   9  20  36  54  77 106 134 170 219 267 311
#     4  10  20  33  54  77 102 135 171 217 266 310
#     4  11  19  33  52  76 106 137 176 213 258 310
#     4  11  19  30  50  77 107 135 169 219 265 302
#     4  10  19  33  53  78 106 141 172 211 259 304
#     4   9  19  32  52  77 103 135 173 213 259 306
#
# _framework density 16.509955000000001
#
# number of rings (size 3 to 8) (size 9 to 14) (size 15 to 20)
#    0.429    1.571    3.571    0.857    0.000    4.000 
#    0.000    0.000    0.000    1.714    0.000    1.000 
#    0.000    0.000    0.000    0.000    0.000    0.000 
#
# Total GULP energy -347072.409711 kJ/mol
# GULP energy per Si atom -12395.443204 kJ/mol
# Density = 1.647238 g / cm^3
# Si number density = 16.509955 Si / 1000 Ang^3
#
#
#
# Elastic Constant Matrix: (Units=GPa)
#
#
# Indices 1 2 3 4 5 6 
#
# 1 77.7862 35.0822 46.6864 0.0000 0.0000 0.0000
# 2 35.0822 107.4017 43.5687 0.0000 0.0000 0.0000
# 3 46.6864 43.5687 66.8098 0.0000 0.0000 0.0000
# 4 0.0000 0.0000 0.0000 31.1120 0.0000 0.0000
# 5 0.0000 0.0000 0.0000 0.0000 26.8240 0.0000
# 6 0.0000 0.0000 0.0000 0.0000 0.0000 23.7660
#
#
#
# Elastic Compliance Matrix: (Units=1/GPa)
#
#
# Indices 1 2 3 4 5 6 
#
# 1 0.022277 -0.001308 -0.014714 0.000000 0.000000 0.000000
# 2 -0.001308 0.012737 -0.007392 0.000000 0.000000 0.000000
# 3 -0.014714 -0.007392 0.030071 0.000000 0.000000 0.000000
# 4 0.000000 0.000000 0.000000 0.032142 0.000000 0.000000
# 5 0.000000 0.000000 0.000000 0.000000 0.037280 0.000000
# 6 0.000000 0.000000 0.000000 0.000000 0.000000 0.042077
#
#
# Mechanical properties :
#
#
# Convention : Reuss Voigt Hill
#
# Bulk Modulus (GPa) = 54.77595 55.85249 55.31422
# Shear Modulus (GPa) = 21.78680 24.78443 23.28562
#
# Velocity S-wave (km/s) = 3.63659 3.87871 3.75960
# Velocity P-wave (km/s) = 7.13321 7.34590 7.24033
#
# Compressibility (1/GPa) = 0.01825619
#
# Stress axis : x y z
#
# Youngs Moduli (GPa) = 44.88971 78.51319 33.25482
#
# Poissons Ratio (x) = 0.10266 0.48932
# Poissons Ratio (y) = 0.05870 0.24583
# Poissons Ratio (z) = 0.66052 0.58039
#
# Static dielectric constant tensor:
#      x y z
#    x 3.228780 0.000000 0.000000 
#    y 0.000000 3.237920 0.000000 
#    z 0.000000 0.000000 3.033250 
# 
# 
# High freq. dielectric constant tensor:
#      x y z
#    x 1.630950 0.000000 0.000000 
#    y 0.000000 1.644280 0.000000 
#    z 0.000000 0.000000 1.627100 
# 
# From -- ./inp_files/14459.got.cif
#   From: 2010.03.12/outbox.cif.g09.slc.cpg/sg42_8_cif.got.tgz:14459.got - 2010.04.14 02:04:31.
