data_PCOD8186575
_publ_section_title
;
Structure prediction by ZEFSAII (Michael W. Deem and Ramdas Pophale) SiO2 
 PCOD8186575
Probable space group: F M M 2
;
_chemical_formula_sum "Si O2"
_cell_formula_units_Z 96
_cell_length_a 18.681482
_cell_length_b 9.120703
_cell_length_c 29.818434
_cell_angle_alpha 90.000000
_cell_angle_beta 90.000000
_cell_angle_gamma 90.000000
_cell_volume 5080.710755
_symmetry_space_group_name_H-M "F M M 2"
_symmetry_group_IT_number 42
_symmetry_cell_setting 'orthorhombic'
loop_
_space_group_symop_operation_xyz
x,y,z
-x,-y,z
-x,y,z
x,-y,z
x,1/2+y,1/2+z
-x,1/2-y,1/2+z
-x,1/2+y,1/2+z
x,1/2-y,1/2+z
1/2+x,y,1/2+z
1/2-x,-y,1/2+z
1/2-x,y,1/2+z
1/2+x,-y,1/2+z
1/2+x,1/2+y,z
1/2-x,1/2-y,z
1/2-x,1/2+y,z
1/2+x,1/2-y,z
loop_
_atom_site_type_symbol
_atom_site_label
_atom_site_fract_x
_atom_site_fract_y
_atom_site_fract_z
Si Si1 0.082436 0.829156 0.552870
Si Si2 0.174358 0.827546 0.979734
Si Si3 0.677161 0.172068 0.823883
Si Si4 0.178802 0.829781 0.220954
Si Si5 0.582719 0.330299 0.892832
Si Si6 0.584050 0.162658 0.154967
O O1 0.134612 0.730348 0.523618
O O2 0.103878 0.795304 0.604113
O O3 0.000000 0.785160 0.543800
O O4 0.094007 0.000000 0.541710
O O5 0.250000 0.750000 0.973341
O O6 0.125554 0.787895 0.937342
O O7 0.186780 0.000000 0.984811
O O8 0.750000 0.250000 0.840083
O O9 0.660710 0.210327 0.772262
O O10 0.610621 0.232576 0.851894
O O11 0.686127 0.000000 0.832160
O O12 0.250000 0.750000 0.204444
O O13 0.114503 0.780114 0.189467
O O14 0.191593 0.000000 0.214933
O O15 0.500000 0.292264 0.901195
O O16 0.593404 0.500000 0.880294
O O17 0.500000 0.163879 0.160928
O O18 0.613806 0.000000 0.166060
#
# Coordination Sequence:
#
# PCOD8186575 Si02
#       6
#    16  16  16  16  16  16
#     4   9  19  37  59  82 109 142 181 224 270 321
#     4  11  23  38  57  82 111 143 181 223 268 320
#     4  10  21  37  57  81 109 143 183 225 270 320
#     4  10  21  36  55  80 110 144 183 226 270 319
#     4  10  22  39  58  82 111 142 178 221 269 322
#     4   9  19  36  57  81 110 144 181 222 270 323
#
# _framework density 18.894994000000001
#
# number of rings (size 3 to 8) (size 9 to 14) (size 15 to 20)
#    0.000    2.167    0.000    3.500    0.000    8.333 
#    0.000    5.000    0.000    0.000    0.000    0.000 
#    0.000    0.000    0.000    0.000    0.000    0.000 
#
# Total GULP energy -297693.612655 kJ/mol
# GULP energy per Si atom -12403.900527 kJ/mol
# Density = 1.885199 g / cm^3
# Si number density = 18.894994 Si / 1000 Ang^3
#
#
#
# Elastic Constant Matrix: (Units=GPa)
#
#
# Indices 1 2 3 4 5 6 
#
# 1 115.3040 60.7509 69.6171 0.0000 0.0000 0.0000
# 2 60.7509 90.1046 61.2556 0.0000 0.0000 0.0000
# 3 69.6171 61.2556 105.4531 0.0000 0.0000 0.0000
# 4 0.0000 0.0000 0.0000 -9.9511 0.0000 0.0000
# 5 0.0000 0.0000 0.0000 0.0000 38.0468 0.0000
# 6 0.0000 0.0000 0.0000 0.0000 0.0000 35.5238
#
#
#
# Elastic Compliance Matrix: (Units=1/GPa)
#
#
# Indices 1 2 3 4 5 6 
#
# 1 0.016187 -0.006030 -0.007183 0.000000 0.000000 0.000000
# 2 -0.006030 0.020588 -0.007978 0.000000 0.000000 0.000000
# 3 -0.007183 -0.007978 0.018859 0.000000 0.000000 0.000000
# 4 0.000000 0.000000 0.000000 -0.100491 0.000000 0.000000
# 5 0.000000 0.000000 0.000000 0.000000 0.026283 0.000000
# 6 0.000000 0.000000 0.000000 0.000000 0.000000 0.028150
#
#
# Mechanical properties :
#
#
# Convention : Reuss Voigt Hill
#
# Bulk Modulus (GPa) = 75.46660 77.12320 76.29490
# Shear Modulus (GPa) = 88.68949 20.67311 54.68130
#
# Velocity S-wave (km/s) = 6.85857 3.31131 5.38539
# Velocity P-wave (km/s) = 10.13640 7.45152 8.89584
#
# Compressibility (1/GPa) = 0.01325090
#
# Stress axis : x y z
#
# Youngs Moduli (GPa) = 61.77789 48.57297 53.02427
#
# Poissons Ratio (x) = 0.29291 0.38089
# Poissons Ratio (y) = 0.37254 0.42302
# Poissons Ratio (z) = 0.44377 0.38751
#
# Static dielectric constant tensor:
#      x y z
#    x 3.419180 0.000000 0.000000 
#    y 0.000000 3.891710 0.000000 
#    z 0.000000 0.000000 3.509910 
# 
# 
# High freq. dielectric constant tensor:
#      x y z
#    x 1.735130 0.000000 0.000000 
#    y 0.000000 1.738360 0.000000 
#    z 0.000000 0.000000 1.740350 
# 
# From -- ./inp_files/31427.got.cif
#   From: 2010.03.12/outbox.cif.g09.slc.cpg/sg42_16_cif.got.tgz:31427.got - 2010.04.14 02:04:31.
