data_PCOD8186564
_publ_section_title
;
Structure prediction by ZEFSAII (Michael W. Deem and Ramdas Pophale) SiO2 
 PCOD8186564
Probable space group: F M M 2
;
_chemical_formula_sum "Si O2"
_cell_formula_units_Z 112
_cell_length_a 16.684524
_cell_length_b 23.138985
_cell_length_c 13.514712
_cell_angle_alpha 90.000000
_cell_angle_beta 90.000000
_cell_angle_gamma 90.000000
_cell_volume 5217.529591
_symmetry_space_group_name_H-M "F M M 2"
_symmetry_group_IT_number 42
_symmetry_cell_setting 'orthorhombic'
loop_
_space_group_symop_operation_xyz
x,y,z
-x,-y,z
-x,y,z
x,-y,z
x,1/2+y,1/2+z
-x,1/2-y,1/2+z
-x,1/2+y,1/2+z
x,1/2-y,1/2+z
1/2+x,y,1/2+z
1/2-x,-y,1/2+z
1/2-x,y,1/2+z
1/2+x,-y,1/2+z
1/2+x,1/2+y,z
1/2-x,1/2-y,z
1/2-x,1/2+y,z
1/2+x,1/2-y,z
loop_
_atom_site_type_symbol
_atom_site_label
_atom_site_fract_x
_atom_site_fract_y
_atom_site_fract_z
Si Si1 0.184270 0.933899 0.046070
Si Si2 0.688057 0.364619 0.417629
Si Si3 0.906781 0.111629 0.239157
Si Si4 0.092930 0.063752 0.851784
Si Si5 0.331887 0.823033 0.304092
Si Si6 0.911047 0.738879 0.678338
Si Si7 0.909994 0.757116 0.462950
O O1 0.149912 0.910977 0.150455
O O2 0.211307 0.000000 0.061432
O O3 0.261044 0.899887 0.999744
O O4 0.112416 0.928273 0.967689
O O5 0.632653 0.405917 0.346148
O O6 0.741722 0.326634 0.341520
O O7 0.637605 0.316854 0.474907
O O8 0.904071 0.181111 0.242841
O O9 0.000000 0.089678 0.229968
O O10 0.138029 0.111384 0.786467
O O11 0.000000 0.072146 0.836402
O O12 0.120940 0.000000 0.816018
O O13 0.342477 0.786240 0.204094
O O14 0.386170 0.788665 0.381317
O O15 0.899156 0.721622 0.564438
O O16 0.000000 0.766123 0.693794
O O17 0.000000 0.776346 0.441619
#
# Coordination Sequence:
#
# PCOD8186564 Si02
#       7
#    16  16  16  16  16  16  16
#     4  10  23  42  63  90 125 164 212 273 338 395
#     4  11  24  39  61  93 131 167 209 275 335 399
#     4  11  23  41  66  99 133 170 223 277 332 402
#     4   9  17  32  57  86 119 160 207 259 314 377
#     4  11  21  36  56  89 125 165 209 260 321 390
#     4  10  21  35  58  88 125 166 209 262 322 393
#     4  11  22  38  59  86 126 172 213 263 330 397
#
# _framework density 21.466097999999999
#
# number of rings (size 3 to 8) (size 9 to 14) (size 15 to 20)
#    0.000    1.571    1.429    4.286    2.000    2.571 
#    0.000    0.000    0.000    1.286    0.000    0.000 
#    0.000    0.000    0.000    0.000    0.000    0.000 
#
# Total GULP energy -347008.358830 kJ/mol
# GULP energy per Si atom -12393.155672 kJ/mol
# Density = 2.141724 g / cm^3
# Si number density = 21.466098 Si / 1000 Ang^3
#
#
#
# Elastic Constant Matrix: (Units=GPa)
#
#
# Indices 1 2 3 4 5 6 
#
# 1 112.5949 36.4440 30.2755 0.0000 0.0000 0.0000
# 2 36.4440 85.1768 15.6363 0.0000 0.0000 0.0000
# 3 30.2755 15.6363 65.2367 0.0000 0.0000 0.0000
# 4 0.0000 0.0000 0.0000 30.2820 0.0000 0.0000
# 5 0.0000 0.0000 0.0000 0.0000 33.7189 0.0000
# 6 0.0000 0.0000 0.0000 0.0000 0.0000 15.4770
#
#
#
# Elastic Compliance Matrix: (Units=1/GPa)
#
#
# Indices 1 2 3 4 5 6 
#
# 1 0.011353 -0.004069 -0.004293 0.000000 0.000000 0.000000
# 2 -0.004069 0.013739 -0.001405 0.000000 0.000000 0.000000
# 3 -0.004293 -0.001405 0.017658 0.000000 0.000000 0.000000
# 4 0.000000 0.000000 0.000000 0.033023 0.000000 0.000000
# 5 0.000000 0.000000 0.000000 0.000000 0.029657 0.000000
# 6 0.000000 0.000000 0.000000 0.000000 0.000000 0.064612
#
#
# Mechanical properties :
#
#
# Convention : Reuss Voigt Hill
#
# Bulk Modulus (GPa) = 43.07461 47.52446 45.29953
# Shear Modulus (GPa) = 25.34017 27.93910 26.63963
#
# Velocity S-wave (km/s) = 3.43953 3.61161 3.52662
# Velocity P-wave (km/s) = 5.99030 6.29118 6.14259
#
# Compressibility (1/GPa) = 0.02321553
#
# Stress axis : x y z
#
# Youngs Moduli (GPa) = 88.08256 72.78413 56.63170
#
# Poissons Ratio (x) = 0.29619 0.24314
# Poissons Ratio (y) = 0.35844 0.07954
# Poissons Ratio (z) = 0.37817 0.10223
#
# Static dielectric constant tensor:
#      x y z
#    x 4.016130 0.000000 0.000000 
#    y 0.000000 4.083740 0.000000 
#    z 0.000000 0.000000 3.792860 
# 
# 
# High freq. dielectric constant tensor:
#      x y z
#    x 1.848900 0.000000 0.000000 
#    y 0.000000 1.830380 0.000000 
#    z 0.000000 0.000000 1.832080 
# 
# From -- ./inp_files/14262.got.cif
#   From: 2010.03.12/outbox.cif.g09.slc.cpg/sg42_8_cif.got.tgz:14262.got - 2010.04.14 02:04:31.
