data_PCOD8186508
_publ_section_title
;
Structure prediction by ZEFSAII (Michael W. Deem and Ramdas Pophale) SiO2 
 PCOD8186508
Probable space group: F M M 2
;
_chemical_formula_sum "Si O2"
_cell_formula_units_Z 88
_cell_length_a 31.649296
_cell_length_b 10.100864
_cell_length_c 14.208588
_cell_angle_alpha 90.000000
_cell_angle_beta 90.000000
_cell_angle_gamma 90.000000
_cell_volume 4542.275788
_symmetry_space_group_name_H-M "F M M 2"
_symmetry_group_IT_number 42
_symmetry_cell_setting 'orthorhombic'
loop_
_space_group_symop_operation_xyz
x,y,z
-x,-y,z
-x,y,z
x,-y,z
x,1/2+y,1/2+z
-x,1/2-y,1/2+z
-x,1/2+y,1/2+z
x,1/2-y,1/2+z
1/2+x,y,1/2+z
1/2-x,-y,1/2+z
1/2-x,y,1/2+z
1/2+x,-y,1/2+z
1/2+x,1/2+y,z
1/2-x,1/2-y,z
1/2-x,1/2+y,z
1/2+x,1/2-y,z
loop_
_atom_site_type_symbol
_atom_site_label
_atom_site_fract_x
_atom_site_fract_y
_atom_site_fract_z
Si Si1 0.888153 0.850396 0.853970
Si Si2 0.686129 0.850981 0.822130
Si Si3 0.907608 0.348390 0.564068
Si Si4 0.183644 0.348057 0.612065
Si Si5 0.048174 0.651185 0.190298
Si Si6 0.250000 0.750000 0.962871
O O1 0.848729 0.751903 0.856286
O O2 0.921682 0.807050 0.775955
O O3 0.871167 0.000000 0.836646
O O4 0.912456 0.843036 0.952250
O O5 0.700911 0.810638 0.716070
O O6 0.725736 0.850796 0.893525
O O7 0.667440 0.000000 0.821602
O O8 0.913824 0.500000 0.600036
O O9 0.862302 0.283166 0.594338
O O10 0.943479 0.252927 0.605616
O O11 0.173544 0.500000 0.603116
O O12 0.216760 0.318801 0.530756
O O13 0.057091 0.500000 0.157878
O O14 0.000000 0.666600 0.223756
#
# Coordination Sequence:
#
# PCOD8186508 Si02
#       6
#    16  16  16  16  16   8
#     4  10  21  39  63  87 118 160 196 237 295 359
#     4  11  23  38  60  87 118 156 200 250 296 346
#     4  10  20  38  63  87 118 159 197 239 292 352
#     4  10  21  38  56  83 120 154 196 247 293 345
#     4  10  22  40  62  91 122 151 193 247 296 351
#     4  12  22  38  58  86 118 160 200 246 296 350
#
# _framework density 19.373548
#
# number of rings (size 3 to 8) (size 9 to 14) (size 15 to 20)
#    0.000    1.636    3.636    1.091    0.000    2.545 
#    0.000    3.636    0.000    0.000    0.000    0.000 
#    0.000    0.000    0.000    0.000    0.000    0.000 
#
# Total GULP energy -272717.155192 kJ/mol
# GULP energy per Si atom -12396.234327 kJ/mol
# Density = 1.932945 g / cm^3
# Si number density = 19.373548 Si / 1000 Ang^3
#
#
#
# Elastic Constant Matrix: (Units=GPa)
#
#
# Indices 1 2 3 4 5 6 
#
# 1 83.3111 40.0729 30.5418 0.0000 0.0000 0.0000
# 2 40.0729 86.4074 40.5766 0.0000 0.0000 0.0000
# 3 30.5418 40.5766 109.0051 0.0000 0.0000 0.0000
# 4 0.0000 0.0000 0.0000 26.0836 0.0000 0.0000
# 5 0.0000 0.0000 0.0000 0.0000 29.2966 0.0000
# 6 0.0000 0.0000 0.0000 0.0000 0.0000 26.4190
#
#
#
# Elastic Compliance Matrix: (Units=1/GPa)
#
#
# Indices 1 2 3 4 5 6 
#
# 1 0.015823 -0.006370 -0.002062 0.000000 0.000000 0.000000
# 2 -0.006370 0.016589 -0.004390 0.000000 0.000000 0.000000
# 3 -0.002062 -0.004390 0.011386 0.000000 0.000000 0.000000
# 4 0.000000 0.000000 0.000000 0.038338 0.000000 0.000000
# 5 0.000000 0.000000 0.000000 0.000000 0.034134 0.000000
# 6 0.000000 0.000000 0.000000 0.000000 0.000000 0.037851
#
#
# Mechanical properties :
#
#
# Convention : Reuss Voigt Hill
#
# Bulk Modulus (GPa) = 55.08719 55.67847 55.38283
# Shear Modulus (GPa) = 26.90812 27.52866 27.21839
#
# Velocity S-wave (km/s) = 3.73085 3.77363 3.75230
# Velocity P-wave (km/s) = 6.85966 6.91295 6.88636
#
# Compressibility (1/GPa) = 0.01815304
#
# Stress axis : x y z
#
# Youngs Moduli (GPa) = 63.19860 60.28129 87.82694
#
# Poissons Ratio (x) = 0.38398 0.18113
# Poissons Ratio (y) = 0.40256 0.38560
# Poissons Ratio (z) = 0.13034 0.26466
#
# Static dielectric constant tensor:
#      x y z
#    x 3.561300 0.000000 0.000000 
#    y 0.000000 3.465520 0.000000 
#    z 0.000000 0.000000 3.758590 
# 
# 
# High freq. dielectric constant tensor:
#      x y z
#    x 1.743770 0.000000 0.000000 
#    y 0.000000 1.744600 0.000000 
#    z 0.000000 0.000000 1.767620 
# 
# From -- ./inp_files/7068.got.cif
#   From: 2010.03.12/outbox.cif.g09.slc.cpg/sg42_4_cif.got.tgz:7068.got - 2010.04.14 02:04:31.
