data_PCOD8186016
_publ_section_title
;
Structure prediction by ZEFSAII (Michael W. Deem and Ramdas Pophale) SiO2 
 PCOD8186016
Probable space group: F M M 2
;
_chemical_formula_sum "Si O2"
_cell_formula_units_Z 80
_cell_length_a 18.341544
_cell_length_b 8.787861
_cell_length_c 26.312335
_cell_angle_alpha 90.000000
_cell_angle_beta 90.000000
_cell_angle_gamma 90.000000
_cell_volume 4241.099492
_symmetry_space_group_name_H-M "F M M 2"
_symmetry_group_IT_number 42
_symmetry_cell_setting 'orthorhombic'
loop_
_space_group_symop_operation_xyz
x,y,z
-x,-y,z
-x,y,z
x,-y,z
x,1/2+y,1/2+z
-x,1/2-y,1/2+z
-x,1/2+y,1/2+z
x,1/2-y,1/2+z
1/2+x,y,1/2+z
1/2-x,-y,1/2+z
1/2-x,y,1/2+z
1/2+x,-y,1/2+z
1/2+x,1/2+y,z
1/2-x,1/2-y,z
1/2-x,1/2+y,z
1/2+x,1/2-y,z
loop_
_atom_site_type_symbol
_atom_site_label
_atom_site_fract_x
_atom_site_fract_y
_atom_site_fract_z
Si Si1 0.170680 0.321637 0.158090
Si Si2 0.170645 0.678170 0.268139
Si Si3 0.170308 0.178895 0.058007
Si Si4 0.170576 0.678814 0.867848
Si Si5 0.085118 0.175788 0.468121
O O1 0.176718 0.500000 0.147305
O O2 0.250000 0.250000 0.160790
O O3 0.131495 0.291749 0.213094
O O4 0.131574 0.242489 0.109848
O O5 0.177337 0.500000 0.278426
O O6 0.250000 0.750000 0.265769
O O7 0.131188 0.756053 0.316507
O O8 0.250000 0.250000 0.049490
O O9 0.178957 0.000000 0.062093
O O10 0.118493 0.219755 0.011602
O O11 0.179104 0.500000 0.862317
O O12 0.250000 0.750000 0.876433
O O13 0.119912 0.724722 0.914724
O O14 0.000000 0.208424 0.464626
O O15 0.101997 0.000000 0.480516
#
# Coordination Sequence:
#
# PCOD8186016 Si02
#       5
#    16  16  16  16  16
#     4   9  16  27  45  71 102 133 164 201 249 299
#     4   9  16  26  44  71 102 132 162 200 246 294
#     4  11  21  33  53  79 105 134 170 211 254 300
#     4  10  19  31  51  76 101 131 166 205 250 299
#     4  10  22  39  55  72  99 135 172 212 260 308
#
# _framework density 18.863033999999999
#
# number of rings (size 3 to 8) (size 9 to 14) (size 15 to 20)
#    0.000    2.200    0.000    6.600    0.000    6.000 
#    0.000    0.000    0.000    1.200    0.000    5.600 
#    0.000    0.000    0.000    0.000    0.000    0.000 
#
# Total GULP energy -247823.470776 kJ/mol
# GULP energy per Si atom -12391.173539 kJ/mol
# Density = 1.882010 g / cm^3
# Si number density = 18.863034 Si / 1000 Ang^3
#
#
#
# Elastic Constant Matrix: (Units=GPa)
#
#
# Indices 1 2 3 4 5 6 
#
# 1 50.1891 32.0929 50.2001 0.0000 0.0000 0.0000
# 2 32.0929 131.4227 86.7811 0.0000 0.0000 0.0000
# 3 50.2001 86.7811 206.2308 0.0000 0.0000 0.0000
# 4 0.0000 0.0000 0.0000 39.4627 0.0000 0.0000
# 5 0.0000 0.0000 0.0000 0.0000 -2.5415 0.0000
# 6 0.0000 0.0000 0.0000 0.0000 0.0000 15.2715
#
#
#
# Elastic Compliance Matrix: (Units=1/GPa)
#
#
# Indices 1 2 3 4 5 6 
#
# 1 0.027247 -0.003149 -0.005307 0.000000 0.000000 0.000000
# 2 -0.003149 0.010901 -0.003820 0.000000 0.000000 0.000000
# 3 -0.005307 -0.003820 0.007748 0.000000 0.000000 0.000000
# 4 0.000000 0.000000 0.000000 0.025340 0.000000 0.000000
# 5 0.000000 0.000000 0.000000 0.000000 -0.393474 0.000000
# 6 0.000000 0.000000 0.000000 0.000000 0.000000 0.065481
#
#
# Mechanical properties :
#
#
# Convention : Reuss Voigt Hill
#
# Bulk Modulus (GPa) = 46.85510 80.66564 63.76037
# Shear Modulus (GPa) = -22.21344 25.02312 1.40484
#
# Velocity S-wave (km/s) = -3.43537 3.64616 0.86393
# Velocity P-wave (km/s) = 3.02620 7.78349 5.90511
#
# Compressibility (1/GPa) = 0.02134239
#
# Stress axis : x y z
#
# Youngs Moduli (GPa) = 36.70177 91.73683 129.05851
#
# Poissons Ratio (x) = 0.28889 0.68494
# Poissons Ratio (y) = 0.11558 0.49306
# Poissons Ratio (z) = 0.19478 0.35048
#
# Static dielectric constant tensor:
#      x y z
#    x 2.882880 0.000000 0.000000 
#    y 0.000000 3.568470 0.000000 
#    z 0.000000 0.000000 4.661890 
# 
# 
# High freq. dielectric constant tensor:
#      x y z
#    x 1.661660 0.000000 0.000000 
#    y 0.000000 1.746800 0.000000 
#    z 0.000000 0.000000 1.769450 
# 
# From -- ./inp_files/31248.got.cif
#   From: 2010.03.12/outbox.cif.g09.slc.cpg/sg42_16_cif.got.tgz:31248.got - 2010.04.14 02:04:31.
