data_PCOD8186134
_publ_section_title
;
Structure prediction by ZEFSAII (Michael W. Deem and Ramdas Pophale) SiO2 
 PCOD8186134
Probable space group: F M M 2
;
_chemical_formula_sum "Si O2"
_cell_formula_units_Z 80
_cell_length_a 13.164942
_cell_length_b 18.562828
_cell_length_c 17.568841
_cell_angle_alpha 90.000000
_cell_angle_beta 90.000000
_cell_angle_gamma 90.000000
_cell_volume 4293.447959
_symmetry_space_group_name_H-M "F M M 2"
_symmetry_group_IT_number 42
_symmetry_cell_setting 'orthorhombic'
loop_
_space_group_symop_operation_xyz
x,y,z
-x,-y,z
-x,y,z
x,-y,z
x,1/2+y,1/2+z
-x,1/2-y,1/2+z
-x,1/2+y,1/2+z
x,1/2-y,1/2+z
1/2+x,y,1/2+z
1/2-x,-y,1/2+z
1/2-x,y,1/2+z
1/2+x,-y,1/2+z
1/2+x,1/2+y,z
1/2-x,1/2-y,z
1/2-x,1/2+y,z
1/2+x,1/2-y,z
loop_
_atom_site_type_symbol
_atom_site_label
_atom_site_fract_x
_atom_site_fract_y
_atom_site_fract_z
Si Si1 0.618314 0.082304 0.001770
Si Si2 0.191006 0.858276 0.345668
Si Si3 0.383528 0.294799 0.790268
Si Si4 0.212792 0.176530 0.629345
Si Si5 0.115186 0.918680 0.199635
O O1 0.500000 0.085478 0.984513
O O2 0.641718 0.128474 0.076449
O O3 0.654392 0.000000 0.013972
O O4 0.675826 0.118094 0.931636
O O5 0.312726 0.850655 0.336062
O O6 0.133840 0.784456 0.323947
O O7 0.146953 0.918233 0.288579
O O8 0.500000 0.318108 0.800596
O O9 0.352016 0.297749 0.702020
O O10 0.250000 0.250000 0.587507
O O11 0.312321 0.131539 0.650556
O O12 0.000000 0.890484 0.190146
O O13 0.124934 0.000000 0.169742
#
# Coordination Sequence:
#
# PCOD8186134 Si02
#       5
#    16  16  16  16  16
#     4  11  24  40  59  84 118 159 198 240 291 348
#     4  10  20  35  57  87 113 148 193 242 284 344
#     4  10  19  36  59  87 117 147 189 243 295 343
#     4  11  22  37  57  87 119 152 194 237 289 349
#     4  10  19  34  58  84 112 149 194 243 288 334
#
# _framework density 18.633043000000001
#
# number of rings (size 3 to 8) (size 9 to 14) (size 15 to 20)
#    0.000    1.600    4.000    3.600    2.800    2.400 
#    0.000    1.000    0.000   13.200    0.000    0.000 
#    0.000    0.000    0.000    0.000    0.000    0.000 
#
# Total GULP energy -247995.831649 kJ/mol
# GULP energy per Si atom -12399.791582 kJ/mol
# Density = 1.859063 g / cm^3
# Si number density = 18.633043 Si / 1000 Ang^3
#
#
#
# Elastic Constant Matrix: (Units=GPa)
#
#
# Indices 1 2 3 4 5 6 
#
# 1 134.9783 40.4593 18.5730 0.0000 0.0000 0.0000
# 2 40.4593 104.5516 40.3781 0.0000 0.0000 0.0000
# 3 18.5730 40.3781 72.2286 0.0000 0.0000 0.0000
# 4 0.0000 0.0000 0.0000 22.6565 0.0000 0.0000
# 5 0.0000 0.0000 0.0000 0.0000 19.5288 0.0000
# 6 0.0000 0.0000 0.0000 0.0000 0.0000 25.6343
#
#
#
# Elastic Compliance Matrix: (Units=1/GPa)
#
#
# Indices 1 2 3 4 5 6 
#
# 1 0.008392 -0.003079 -0.000437 0.000000 0.000000 0.000000
# 2 -0.003079 0.013328 -0.006659 0.000000 0.000000 0.000000
# 3 -0.000437 -0.006659 0.017680 0.000000 0.000000 0.000000
# 4 0.000000 0.000000 0.000000 0.044137 0.000000 0.000000
# 5 0.000000 0.000000 0.000000 0.000000 0.051206 0.000000
# 6 0.000000 0.000000 0.000000 0.000000 0.000000 0.039010
#
#
# Mechanical properties :
#
#
# Convention : Reuss Voigt Hill
#
# Bulk Modulus (GPa) = 52.49259 56.73103 54.61181
# Shear Modulus (GPa) = 24.94362 27.72046 26.33204
#
# Velocity S-wave (km/s) = 3.66276 3.86126 3.76332
# Velocity P-wave (km/s) = 6.79122 7.09871 6.94667
#
# Compressibility (1/GPa) = 0.01905031
#
# Stress axis : x y z
#
# Youngs Moduli (GPa) = 119.16802 75.03138 56.56161
#
# Poissons Ratio (x) = 0.23100 0.02470
# Poissons Ratio (y) = 0.36688 0.37664
# Poissons Ratio (z) = 0.05204 0.49963
#
# Static dielectric constant tensor:
#      x y z
#    x 3.514780 0.000000 0.000000 
#    y 0.000000 3.530400 0.000000 
#    z 0.000000 0.000000 3.245440 
# 
# 
# High freq. dielectric constant tensor:
#      x y z
#    x 1.729480 0.000000 0.000000 
#    y 0.000000 1.729300 0.000000 
#    z 0.000000 0.000000 1.705860 
# 
# From -- ./inp_files/19830.got.cif
#   From: 2010.03.12/outbox.cif.g09.slc.cpg/sg42_10_cif.got.tgz:19830.got - 2010.04.14 02:04:31.
