data_PCOD8186129
_publ_section_title
;
Structure prediction by ZEFSAII (Michael W. Deem and Ramdas Pophale) SiO2 
 PCOD8186129
Probable space group: F M M 2
;
_chemical_formula_sum "Si O2"
_cell_formula_units_Z 96
_cell_length_a 25.447355
_cell_length_b 8.843450
_cell_length_c 23.347012
_cell_angle_alpha 90.000000
_cell_angle_beta 90.000000
_cell_angle_gamma 90.000000
_cell_volume 5254.067884
_symmetry_space_group_name_H-M "F M M 2"
_symmetry_group_IT_number 42
_symmetry_cell_setting 'orthorhombic'
loop_
_space_group_symop_operation_xyz
x,y,z
-x,-y,z
-x,y,z
x,-y,z
x,1/2+y,1/2+z
-x,1/2-y,1/2+z
-x,1/2+y,1/2+z
x,1/2-y,1/2+z
1/2+x,y,1/2+z
1/2-x,-y,1/2+z
1/2-x,y,1/2+z
1/2+x,-y,1/2+z
1/2+x,1/2+y,z
1/2-x,1/2-y,z
1/2-x,1/2+y,z
1/2+x,1/2-y,z
loop_
_atom_site_type_symbol
_atom_site_label
_atom_site_fract_x
_atom_site_fract_y
_atom_site_fract_z
Si Si1 0.398731 0.821156 0.395640
Si Si2 0.305434 0.678311 0.326648
Si Si3 0.194896 0.822480 0.196341
Si Si4 0.500000 0.180234 0.199976
Si Si5 0.439135 0.175578 0.006608
Si Si6 0.100598 0.176360 0.632558
Si Si7 0.000000 0.820403 0.828104
O O1 0.347495 0.743108 0.370565
O O2 0.407190 0.774827 0.461220
O O3 0.448647 0.759621 0.360234
O O4 0.392340 0.000000 0.390732
O O5 0.301575 0.500000 0.334187
O O6 0.250000 0.750000 0.343535
O O7 0.320719 0.723312 0.261428
O O8 0.250000 0.750000 0.178838
O O9 0.152097 0.764589 0.151684
O O10 0.200742 0.000000 0.190273
O O11 0.551621 0.241707 0.168447
O O12 0.500000 0.245007 0.264115
O O13 0.500000 0.000000 0.197705
O O14 0.500000 0.226794 0.010044
O O15 0.435637 0.000000 0.989871
O O16 0.410579 0.207397 0.066340
O O17 0.108927 0.000000 0.645182
O O18 0.000000 0.000000 0.827435
#
# Coordination Sequence:
#
# PCOD8186129 Si02
#       7
#    16  16  16   8  16  16   8
#     4  11  21  35  55  82 113 149 190 231 277 331
#     4  10  21  38  59  84 113 147 185 229 282 338
#     4  10  21  37  58  84 114 147 184 227 281 334
#     4   9  16  29  51  79 109 141 178 221 270 329
#     4  10  20  36  56  80 111 151 193 233 278 329
#     4  10  19  34  57  82 110 147 190 229 274 330
#     4   9  18  29  47  79 113 141 176 223 274 325
#
# _framework density 18.271557000000001
#
# number of rings (size 3 to 8) (size 9 to 14) (size 15 to 20)
#    0.000    2.000    1.667    2.500    0.000    4.000 
#    0.000    1.250    0.000    7.000    0.000    0.000 
#    0.000    0.000    0.000    0.000    0.000    0.000 
#
# Total GULP energy -297680.223685 kJ/mol
# GULP energy per Si atom -12403.342654 kJ/mol
# Density = 1.822997 g / cm^3
# Si number density = 18.271557 Si / 1000 Ang^3
#
#
#
# Elastic Constant Matrix: (Units=GPa)
#
#
# Indices 1 2 3 4 5 6 
#
# 1 149.1958 53.0754 70.5995 0.0000 0.0000 0.0000
# 2 53.0754 63.4862 40.8788 0.0000 0.0000 0.0000
# 3 70.5995 40.8788 108.1360 0.0000 0.0000 0.0000
# 4 0.0000 0.0000 0.0000 28.6158 0.0000 0.0000
# 5 0.0000 0.0000 0.0000 0.0000 24.2763 0.0000
# 6 0.0000 0.0000 0.0000 0.0000 0.0000 27.8387
#
#
#
# Elastic Compliance Matrix: (Units=1/GPa)
#
#
# Indices 1 2 3 4 5 6 
#
# 1 0.011286 -0.006200 -0.005024 0.000000 0.000000 0.000000
# 2 -0.006200 0.024225 -0.005110 0.000000 0.000000 0.000000
# 3 -0.005024 -0.005110 0.014460 0.000000 0.000000 0.000000
# 4 0.000000 0.000000 0.000000 0.034946 0.000000 0.000000
# 5 0.000000 0.000000 0.000000 0.000000 0.041192 0.000000
# 6 0.000000 0.000000 0.000000 0.000000 0.000000 0.035921
#
#
# Mechanical properties :
#
#
# Convention : Reuss Voigt Hill
#
# Bulk Modulus (GPa) = 57.79773 72.21394 65.00583
# Shear Modulus (GPa) = 24.94192 26.56378 25.75285
#
# Velocity S-wave (km/s) = 3.69869 3.81705 3.75834
# Velocity P-wave (km/s) = 7.06695 7.68342 7.38162
#
# Compressibility (1/GPa) = 0.01730172
#
# Stress axis : x y z
#
# Youngs Moduli (GPa) = 88.60765 41.27978 69.15750
#
# Poissons Ratio (x) = 0.25592 0.34748
# Poissons Ratio (y) = 0.54935 0.35340
# Poissons Ratio (z) = 0.44521 0.21094
#
# Static dielectric constant tensor:
#      x y z
#    x 3.402560 0.000000 0.000000 
#    y 0.000000 3.200530 0.000000 
#    z 0.000000 0.000000 3.393270 
# 
# 
# High freq. dielectric constant tensor:
#      x y z
#    x 1.712910 0.000000 0.000000 
#    y 0.000000 1.696890 0.000000 
#    z 0.000000 0.000000 1.710120 
# 
# From -- ./inp_files/28084.got.cif
#   From: 2010.03.12/outbox.cif.g09.slc.cpg/sg42_15_cif.got.tgz:28084.got - 2010.04.14 02:04:31.
