data_PCOD8186183
_publ_section_title
;
Structure prediction by ZEFSAII (Michael W. Deem and Ramdas Pophale) SiO2 
 PCOD8186183
Probable space group: F M M 2
;
_chemical_formula_sum "Si O2"
_cell_formula_units_Z 96
_cell_length_a 8.889137
_cell_length_b 27.885461
_cell_length_c 20.011611
_cell_angle_alpha 90.000000
_cell_angle_beta 90.000000
_cell_angle_gamma 90.000000
_cell_volume 4960.431771
_symmetry_space_group_name_H-M "F M M 2"
_symmetry_group_IT_number 42
_symmetry_cell_setting 'orthorhombic'
loop_
_space_group_symop_operation_xyz
x,y,z
-x,-y,z
-x,y,z
x,-y,z
x,1/2+y,1/2+z
-x,1/2-y,1/2+z
-x,1/2+y,1/2+z
x,1/2-y,1/2+z
1/2+x,y,1/2+z
1/2-x,-y,1/2+z
1/2-x,y,1/2+z
1/2+x,-y,1/2+z
1/2+x,1/2+y,z
1/2-x,1/2-y,z
1/2-x,1/2+y,z
1/2+x,1/2-y,z
loop_
_atom_site_type_symbol
_atom_site_label
_atom_site_fract_x
_atom_site_fract_y
_atom_site_fract_z
Si Si1 0.823392 0.393758 0.243280
Si Si2 0.824615 0.444864 0.621765
Si Si3 0.170871 0.555800 0.861525
Si Si4 0.676014 0.298285 0.432114
Si Si5 0.325189 0.396386 0.498655
Si Si6 0.177607 0.299168 0.778747
O O1 0.765192 0.430111 0.187511
O O2 0.785335 0.415456 0.315471
O O3 0.744240 0.342240 0.234538
O O4 0.000000 0.386839 0.236225
O O5 0.786161 0.500000 0.605329
O O6 0.775912 0.411793 0.560420
O O7 0.000000 0.437562 0.635796
O O8 0.192135 0.500000 0.848334
O O9 0.000000 0.572484 0.844751
O O10 0.206531 0.566996 0.938383
O O11 0.500000 0.290824 0.435127
O O12 0.750000 0.250000 0.460965
O O13 0.726092 0.343131 0.477098
O O14 0.725941 0.307743 0.355760
O O15 0.500000 0.397487 0.519525
O O16 0.250000 0.250000 0.752083
O O17 0.000000 0.296882 0.769289
#
# Coordination Sequence:
#
# PCOD8186183 Si02
#       6
#    16  16  16  16  16  16
#     4  12  24  38  59  87 118 156 201 247 295 350
#     4  11  25  43  61  83 116 158 200 248 306 360
#     4  10  20  36  59  85 116 153 193 244 302 355
#     4   9  18  33  57  87 120 154 190 233 287 346
#     4  10  20  38  61  87 117 154 196 240 294 357
#     4  10  19  36  60  89 123 156 194 240 296 353
#
# _framework density 19.353152999999999
#
# number of rings (size 3 to 8) (size 9 to 14) (size 15 to 20)
#    0.000    1.667    1.667    3.500    0.000    6.333 
#    0.000    0.833    0.000    2.000    0.000    0.000 
#    0.000    0.000    0.000    0.000    0.000    0.000 
#
# Total GULP energy -297717.179749 kJ/mol
# GULP energy per Si atom -12404.882490 kJ/mol
# Density = 1.930910 g / cm^3
# Si number density = 19.353153 Si / 1000 Ang^3
#
#
#
# Elastic Constant Matrix: (Units=GPa)
#
#
# Indices 1 2 3 4 5 6 
#
# 1 91.0056 47.7355 27.1460 0.0000 0.0000 0.0000
# 2 47.7355 110.7577 24.9037 0.0000 0.0000 0.0000
# 3 27.1460 24.9037 52.2275 0.0000 0.0000 0.0000
# 4 0.0000 0.0000 0.0000 31.9606 0.0000 0.0000
# 5 0.0000 0.0000 0.0000 0.0000 31.3986 0.0000
# 6 0.0000 0.0000 0.0000 0.0000 0.0000 35.1331
#
#
#
# Elastic Compliance Matrix: (Units=1/GPa)
#
#
# Indices 1 2 3 4 5 6 
#
# 1 0.015467 -0.005442 -0.005444 0.000000 0.000000 0.000000
# 2 -0.005442 0.012028 -0.002907 0.000000 0.000000 0.000000
# 3 -0.005444 -0.002907 0.023363 0.000000 0.000000 0.000000
# 4 0.000000 0.000000 0.000000 0.031289 0.000000 0.000000
# 5 0.000000 0.000000 0.000000 0.000000 0.031849 0.000000
# 6 0.000000 0.000000 0.000000 0.000000 0.000000 0.028463
#
#
# Mechanical properties :
#
#
# Convention : Reuss Voigt Hill
#
# Bulk Modulus (GPa) = 42.97087 50.39569 46.68328
# Shear Modulus (GPa) = 28.12147 29.97882 29.05014
#
# Velocity S-wave (km/s) = 3.81605 3.94006 3.87855
# Velocity P-wave (km/s) = 6.45508 6.84071 6.65069
#
# Compressibility (1/GPa) = 0.02327158
#
# Stress axis : x y z
#
# Youngs Moduli (GPa) = 64.65492 83.14151 42.80334
#
# Poissons Ratio (x) = 0.45245 0.23303
# Poissons Ratio (y) = 0.35185 0.12442
# Poissons Ratio (z) = 0.35199 0.24167
#
# Static dielectric constant tensor:
#      x y z
#    x 3.470440 0.000000 0.000000 
#    y 0.000000 3.788790 0.000000 
#    z 0.000000 0.000000 3.336410 
# 
# 
# High freq. dielectric constant tensor:
#      x y z
#    x 1.751270 0.000000 0.000000 
#    y 0.000000 1.771040 0.000000 
#    z 0.000000 0.000000 1.733040 
# 
# From -- ./inp_files/23713.got.cif
#   From: 2010.03.12/outbox.cif.g09.slc.cpg/sg42_12_cif.got.tgz:23713.got - 2010.04.14 02:04:31.
