data_PCOD8186823
_publ_section_title
;
Structure prediction by ZEFSAII (Michael W. Deem and Ramdas Pophale) SiO2 
 PCOD8186823
Probable space group: F M M 2
;
_chemical_formula_sum "Si O2"
_cell_formula_units_Z 80
_cell_length_a 8.867346
_cell_length_b 16.073134
_cell_length_c 28.766025
_cell_angle_alpha 90.000000
_cell_angle_beta 90.000000
_cell_angle_gamma 90.000000
_cell_volume 4099.907644
_symmetry_space_group_name_H-M "F M M 2"
_symmetry_group_IT_number 42
_symmetry_cell_setting 'orthorhombic'
loop_
_space_group_symop_operation_xyz
x,y,z
-x,-y,z
-x,y,z
x,-y,z
x,1/2+y,1/2+z
-x,1/2-y,1/2+z
-x,1/2+y,1/2+z
x,1/2-y,1/2+z
1/2+x,y,1/2+z
1/2-x,-y,1/2+z
1/2-x,y,1/2+z
1/2+x,-y,1/2+z
1/2+x,1/2+y,z
1/2-x,1/2-y,z
1/2-x,1/2+y,z
1/2+x,1/2-y,z
loop_
_atom_site_type_symbol
_atom_site_label
_atom_site_fract_x
_atom_site_fract_y
_atom_site_fract_z
Si Si1 0.680129 0.163710 0.362990
Si Si2 0.835254 0.592069 0.268676
Si Si3 0.679334 0.664291 0.036355
Si Si4 0.320767 0.500000 0.090519
Si Si5 0.823159 0.500000 0.695013
Si Si6 0.827280 0.405730 0.948611
O O1 0.500000 0.162728 0.365252
O O2 0.750000 0.250000 0.379614
O O3 0.736382 0.147055 0.309944
O O4 0.748434 0.096424 0.398214
O O5 0.854280 0.500000 0.290530
O O6 0.731964 0.583925 0.222266
O O7 0.000000 0.627235 0.254038
O O8 0.500000 0.671371 0.037196
O O9 0.750000 0.750000 0.056709
O O10 0.737369 0.584614 0.065999
O O11 0.736643 0.653242 0.983771
O O12 0.500000 0.500000 0.089881
O O13 0.256751 0.500000 0.143097
O O14 0.000000 0.500000 0.693688
O O15 0.818670 0.500000 0.966855
O O16 0.000000 0.375142 0.945272
#
# Coordination Sequence:
#
# PCOD8186823 Si02
#       6
#    16  16  16   8   8  16
#     4  11  22  36  54  78 114 154 192 233 284 340
#     4   8  17  35  54  77 105 140 181 224 279 338
#     4  11  22  40  62  87 120 158 198 242 294 349
#     4   9  20  39  62  87 116 153 194 239 302 359
#     4   9  17  33  60  85 106 139 186 237 282 341
#     4  11  23  38  57  85 116 149 196 241 285 345
#
# _framework density 19.512636000000001
#
# number of rings (size 3 to 8) (size 9 to 14) (size 15 to 20)
#    0.600    1.400    1.000    3.000    0.000    3.600 
#    0.000    5.000    0.000    4.800    0.000    0.000 
#    0.000    0.000    0.000    0.000    0.000    0.000 
#
# Total GULP energy -247867.725744 kJ/mol
# GULP energy per Si atom -12393.386287 kJ/mol
# Density = 1.946822 g / cm^3
# Si number density = 19.512636 Si / 1000 Ang^3
#
#
#
# Elastic Constant Matrix: (Units=GPa)
#
#
# Indices 1 2 3 4 5 6 
#
# 1 89.5098 34.4676 47.8009 0.0000 0.0000 0.0000
# 2 34.4676 98.4441 42.8666 0.0000 0.0000 0.0000
# 3 47.8009 42.8666 131.6428 0.0000 0.0000 0.0000
# 4 0.0000 0.0000 0.0000 19.8781 0.0000 0.0000
# 5 0.0000 0.0000 0.0000 0.0000 27.0790 0.0000
# 6 0.0000 0.0000 0.0000 0.0000 0.0000 26.7682
#
#
#
# Elastic Compliance Matrix: (Units=1/GPa)
#
#
# Indices 1 2 3 4 5 6 
#
# 1 0.014722 -0.003294 -0.004273 0.000000 0.000000 0.000000
# 2 -0.003294 0.012573 -0.002898 0.000000 0.000000 0.000000
# 3 -0.004273 -0.002898 0.010092 0.000000 0.000000 0.000000
# 4 0.000000 0.000000 0.000000 0.050307 0.000000 0.000000
# 5 0.000000 0.000000 0.000000 0.000000 0.036929 0.000000
# 6 0.000000 0.000000 0.000000 0.000000 0.000000 0.037358
#
#
# Mechanical properties :
#
#
# Convention : Reuss Voigt Hill
#
# Bulk Modulus (GPa) = 60.76546 63.31856 62.04201
# Shear Modulus (GPa) = 26.53968 27.70916 27.12442
#
# Velocity S-wave (km/s) = 3.69199 3.77246 3.73244
# Velocity P-wave (km/s) = 7.02735 7.17605 7.10209
#
# Compressibility (1/GPa) = 0.01645672
#
# Stress axis : x y z
#
# Youngs Moduli (GPa) = 67.92372 79.53356 99.09124
#
# Poissons Ratio (x) = 0.26198 0.42344
# Poissons Ratio (y) = 0.22373 0.28718
# Poissons Ratio (z) = 0.29026 0.23050
#
# Static dielectric constant tensor:
#      x y z
#    x 3.411550 0.000000 0.000000 
#    y 0.000000 3.483920 0.000000 
#    z 0.000000 0.000000 3.524170 
# 
# 
# High freq. dielectric constant tensor:
#      x y z
#    x 1.755780 0.000000 0.000000 
#    y 0.000000 1.748190 0.000000 
#    z 0.000000 0.000000 1.751360 
# 
# From -- ./inp_files/33597.got.cif
#   From: 2010.03.12/outbox.cif.g09.slc.cpg/sg42_17_cif.got.tgz:33597.got - 2010.04.14 02:04:31.
