data_PCOD8186259
_publ_section_title
;
Structure prediction by ZEFSAII (Michael W. Deem and Ramdas Pophale) SiO2 
 PCOD8186259
Probable space group: F M M 2
;
_chemical_formula_sum "Si O2"
_cell_formula_units_Z 88
_cell_length_a 23.606793
_cell_length_b 14.972195
_cell_length_c 13.481020
_cell_angle_alpha 90.000000
_cell_angle_beta 90.000000
_cell_angle_gamma 90.000000
_cell_volume 4764.805964
_symmetry_space_group_name_H-M "F M M 2"
_symmetry_group_IT_number 42
_symmetry_cell_setting 'orthorhombic'
loop_
_space_group_symop_operation_xyz
x,y,z
-x,-y,z
-x,y,z
x,-y,z
x,1/2+y,1/2+z
-x,1/2-y,1/2+z
-x,1/2+y,1/2+z
x,1/2-y,1/2+z
1/2+x,y,1/2+z
1/2-x,-y,1/2+z
1/2-x,y,1/2+z
1/2+x,-y,1/2+z
1/2+x,1/2+y,z
1/2-x,1/2-y,z
1/2-x,1/2+y,z
1/2+x,1/2-y,z
loop_
_atom_site_type_symbol
_atom_site_label
_atom_site_fract_x
_atom_site_fract_y
_atom_site_fract_z
Si Si1 0.000000 0.295515 0.152120
Si Si2 0.121501 0.104020 0.361347
Si Si3 0.316799 0.754811 0.990464
Si Si4 0.000000 0.103496 0.843334
Si Si5 0.390711 0.601303 0.954027
Si Si6 0.000000 0.898117 0.449535
Si Si7 0.889445 0.816654 0.152361
O O1 0.054659 0.237945 0.177144
O O2 0.000000 0.379169 0.226545
O O3 0.000000 0.330612 0.040821
O O4 0.161580 0.154450 0.439673
O O5 0.055261 0.121126 0.383607
O O6 0.135346 0.138911 0.251240
O O7 0.136861 0.000000 0.369302
O O8 0.250000 0.750000 0.995173
O O9 0.338632 0.667865 0.928225
O O10 0.342403 0.749340 0.102501
O O11 0.056069 0.142905 0.894851
O O12 0.000000 0.000000 0.866609
O O13 0.375815 0.500000 0.922433
O O14 0.404263 0.605718 0.072082
O O15 0.000000 0.000000 0.488487
#
# Coordination Sequence:
#
# PCOD8186259 Si02
#       7
#     8  16  16   8  16   8  16
#     4  12  19  34  57  86 127 162 189 237 311 359
#     4  11  22  40  62  91 123 158 196 245 303 362
#     4  10  23  40  60  88 119 158 209 250 296 345
#     4  10  20  33  57  91 123 154 193 240 302 370
#     4   9  19  37  59  85 119 152 194 246 296 349
#     4  10  20  35  57  89 126 156 192 239 301 371
#     4  10  22  34  61  85 118 153 199 242 298 350
#
# _framework density 18.468748000000001
#
# number of rings (size 3 to 8) (size 9 to 14) (size 15 to 20)
#    1.091    0.727    1.818    3.000    0.000    3.636 
#    0.000    3.636    0.000    0.000    0.000    0.000 
#    0.000    0.000    0.000    0.000    0.000    0.000 
#
# Total GULP energy -272692.652811 kJ/mol
# GULP energy per Si atom -12395.120582 kJ/mol
# Density = 1.842671 g / cm^3
# Si number density = 18.468748 Si / 1000 Ang^3
#
#
#
# Elastic Constant Matrix: (Units=GPa)
#
#
# Indices 1 2 3 4 5 6 
#
# 1 146.8919 50.7898 38.0555 0.0000 0.0000 0.0000
# 2 50.7898 100.0820 48.1302 0.0000 0.0000 0.0000
# 3 38.0555 48.1302 106.5441 0.0000 0.0000 0.0000
# 4 0.0000 0.0000 0.0000 35.3879 0.0000 0.0000
# 5 0.0000 0.0000 0.0000 0.0000 -36.1179 0.0000
# 6 0.0000 0.0000 0.0000 0.0000 0.0000 20.5701
#
#
#
# Elastic Compliance Matrix: (Units=1/GPa)
#
#
# Indices 1 2 3 4 5 6 
#
# 1 0.008411 -0.003607 -0.001375 0.000000 0.000000 0.000000
# 2 -0.003607 0.014312 -0.005177 0.000000 0.000000 0.000000
# 3 -0.001375 -0.005177 0.012215 0.000000 0.000000 0.000000
# 4 0.000000 0.000000 0.000000 0.028258 0.000000 0.000000
# 5 0.000000 0.000000 0.000000 0.000000 -0.027687 0.000000
# 6 0.000000 0.000000 0.000000 0.000000 0.000000 0.048614
#
#
# Mechanical properties :
#
#
# Convention : Reuss Voigt Hill
#
# Bulk Modulus (GPa) = 68.39597 69.71878 69.05738
# Shear Modulus (GPa) = 45.73916 18.40419 32.07167
#
# Velocity S-wave (km/s) = 4.98191 3.16017 4.17170
# Velocity P-wave (km/s) = 8.37892 7.15172 7.78953
#
# Compressibility (1/GPa) = 0.01462074
#
# Stress axis : x y z
#
# Youngs Moduli (GPa) = 118.88924 69.87098 81.86402
#
# Poissons Ratio (x) = 0.25205 0.11254
# Poissons Ratio (y) = 0.42888 0.42380
# Poissons Ratio (z) = 0.16344 0.36171
#
# Static dielectric constant tensor:
#      x y z
#    x 3.187810 0.000000 0.000000 
#    y 0.000000 3.317430 0.000000 
#    z 0.000000 0.000000 3.260240 
# 
# 
# High freq. dielectric constant tensor:
#      x y z
#    x 1.697700 0.000000 0.000000 
#    y 0.000000 1.719680 0.000000 
#    z 0.000000 0.000000 1.711610 
# 
# From -- ./inp_files/15952.got.cif
#   From: 2010.03.12/outbox.cif.g09.slc.cpg/sg42_8_cif.got.tgz:15952.got - 2010.04.14 02:04:31.
