data_PCOD8186726
_publ_section_title
;
Structure prediction by ZEFSAII (Michael W. Deem and Ramdas Pophale) SiO2 
 PCOD8186726
Probable space group: F M M 2
;
_chemical_formula_sum "Si O2"
_cell_formula_units_Z 96
_cell_length_a 19.139279
_cell_length_b 20.861101
_cell_length_c 12.088544
_cell_angle_alpha 90.000000
_cell_angle_beta 90.000000
_cell_angle_gamma 90.000000
_cell_volume 4826.549834
_symmetry_space_group_name_H-M "F M M 2"
_symmetry_group_IT_number 42
_symmetry_cell_setting 'orthorhombic'
loop_
_space_group_symop_operation_xyz
x,y,z
-x,-y,z
-x,y,z
x,-y,z
x,1/2+y,1/2+z
-x,1/2-y,1/2+z
-x,1/2+y,1/2+z
x,1/2-y,1/2+z
1/2+x,y,1/2+z
1/2-x,-y,1/2+z
1/2-x,y,1/2+z
1/2+x,-y,1/2+z
1/2+x,1/2+y,z
1/2-x,1/2-y,z
1/2-x,1/2+y,z
1/2+x,1/2-y,z
loop_
_atom_site_type_symbol
_atom_site_label
_atom_site_fract_x
_atom_site_fract_y
_atom_site_fract_z
Si Si1 0.847409 0.698084 0.219670
Si Si2 0.818184 0.075811 0.364883
Si Si3 0.082431 0.000000 0.673478
Si Si4 0.417245 0.000000 0.420228
Si Si5 0.808137 0.165513 0.173296
Si Si6 0.833707 0.120789 0.937485
Si Si7 0.581527 0.122622 0.043141
O O1 0.845727 0.774842 0.235132
O O2 0.774553 0.673592 0.172687
O O3 0.863988 0.664302 0.337378
O O4 0.904671 0.682506 0.124691
O O5 0.826142 0.099981 0.238452
O O6 0.741200 0.090382 0.410137
O O7 0.873940 0.119473 0.431258
O O8 0.834799 0.000000 0.370463
O O9 0.113324 0.000000 0.795699
O O10 0.110021 0.061880 0.611286
O O11 0.000000 0.000000 0.680776
O O12 0.387201 0.935266 0.472567
O O13 0.500000 0.000000 0.431218
O O14 0.830981 0.164766 0.045891
O O15 0.500000 0.119598 0.012251
#
# Coordination Sequence:
#
# PCOD8186726 Si02
#       7
#    16  16   8   8  16  16  16
#     4  10  22  39  63  93 120 161 212 258 306 362
#     4  11  23  38  62  96 126 161 209 254 310 372
#     4   9  18  33  57  89 121 154 204 258 304 345
#     4  11  22  37  59  93 128 164 206 256 317 367
#     4  10  24  39  63  92 127 162 202 257 313 371
#     4  11  22  39  64  92 125 164 207 258 307 370
#     4  11  21  38  63  91 125 164 210 260 304 358
#
# _framework density 19.889983999999998
#
# number of rings (size 3 to 8) (size 9 to 14) (size 15 to 20)
#    0.000    1.500    5.000    0.000    3.500    1.333 
#    0.000    2.500    0.000    0.000    0.000    0.000 
#    0.000    0.000    0.000    0.000    0.000    0.000 
#
# Total GULP energy -297564.373221 kJ/mol
# GULP energy per Si atom -12398.515551 kJ/mol
# Density = 1.984471 g / cm^3
# Si number density = 19.889984 Si / 1000 Ang^3
#
#
#
# Elastic Constant Matrix: (Units=GPa)
#
#
# Indices 1 2 3 4 5 6 
#
# 1 80.6980 28.9447 24.8403 0.0000 0.0000 0.0000
# 2 28.9447 96.7007 38.0465 0.0000 0.0000 0.0000
# 3 24.8403 38.0465 104.7563 0.0000 0.0000 0.0000
# 4 0.0000 0.0000 0.0000 27.1762 0.0000 0.0000
# 5 0.0000 0.0000 0.0000 0.0000 24.0605 0.0000
# 6 0.0000 0.0000 0.0000 0.0000 0.0000 22.0094
#
#
#
# Elastic Compliance Matrix: (Units=1/GPa)
#
#
# Indices 1 2 3 4 5 6 
#
# 1 0.014282 -0.003433 -0.002140 0.000000 0.000000 0.000000
# 2 -0.003433 0.012890 -0.003868 0.000000 0.000000 0.000000
# 3 -0.002140 -0.003868 0.011458 0.000000 0.000000 0.000000
# 4 0.000000 0.000000 0.000000 0.036797 0.000000 0.000000
# 5 0.000000 0.000000 0.000000 0.000000 0.041562 0.000000
# 6 0.000000 0.000000 0.000000 0.000000 0.000000 0.045435
#
#
# Mechanical properties :
#
#
# Convention : Reuss Voigt Hill
#
# Bulk Modulus (GPa) = 50.63398 51.75756 51.19577
# Shear Modulus (GPa) = 26.61155 27.33745 26.97450
#
# Velocity S-wave (km/s) = 3.66175 3.71136 3.68664
# Velocity P-wave (km/s) = 6.58712 6.66663 6.62700
#
# Compressibility (1/GPa) = 0.01974958
#
# Stress axis : x y z
#
# Youngs Moduli (GPa) = 70.01875 77.57664 87.27494
#
# Poissons Ratio (x) = 0.26632 0.18675
# Poissons Ratio (y) = 0.24038 0.33755
# Poissons Ratio (z) = 0.14982 0.30004
#
# Static dielectric constant tensor:
#      x y z
#    x 3.317420 0.000000 0.000000 
#    y 0.000000 3.655150 0.000000 
#    z 0.000000 0.000000 3.606090 
# 
# 
# High freq. dielectric constant tensor:
#      x y z
#    x 1.753330 0.000000 0.000000 
#    y 0.000000 1.777800 0.000000 
#    z 0.000000 0.000000 1.775250 
# 
# From -- ./inp_files/9562.got.cif
#   From: 2010.03.12/outbox.cif.g09.slc.cpg/sg42_5_cif.got.tgz:9562.got - 2010.04.14 02:04:31.
