data_PCOD8186009
_publ_section_title
;
Structure prediction by ZEFSAII (Michael W. Deem and Ramdas Pophale) SiO2 
 PCOD8186009
Probable space group: F M M 2
;
_chemical_formula_sum "Si O2"
_cell_formula_units_Z 96
_cell_length_a 25.310060
_cell_length_b 8.762599
_cell_length_c 23.407221
_cell_angle_alpha 90.000000
_cell_angle_beta 90.000000
_cell_angle_gamma 90.000000
_cell_volume 5191.298098
_symmetry_space_group_name_H-M "F M M 2"
_symmetry_group_IT_number 42
_symmetry_cell_setting 'orthorhombic'
loop_
_space_group_symop_operation_xyz
x,y,z
-x,-y,z
-x,y,z
x,-y,z
x,1/2+y,1/2+z
-x,1/2-y,1/2+z
-x,1/2+y,1/2+z
x,1/2-y,1/2+z
1/2+x,y,1/2+z
1/2-x,-y,1/2+z
1/2-x,y,1/2+z
1/2+x,-y,1/2+z
1/2+x,1/2+y,z
1/2-x,1/2-y,z
1/2-x,1/2+y,z
1/2+x,1/2-y,z
loop_
_atom_site_type_symbol
_atom_site_label
_atom_site_fract_x
_atom_site_fract_y
_atom_site_fract_z
Si Si1 0.804649 0.677770 0.800560
Si Si2 0.000000 0.824463 0.440669
Si Si3 0.415099 0.174556 0.847780
Si Si4 0.500000 0.679667 0.061665
Si Si5 0.559130 0.833928 0.236377
Si Si6 0.305213 0.179318 0.178382
Si Si7 0.099292 0.323581 0.632247
O O1 0.794859 0.500000 0.787838
O O2 0.750000 0.750000 0.824159
O O3 0.851205 0.700743 0.848012
O O4 0.822294 0.758567 0.741351
O O5 0.054490 0.787143 0.406671
O O6 0.000000 0.717448 0.495412
O O7 0.000000 0.000000 0.460213
O O8 0.440389 0.285978 0.801910
O O9 0.427635 0.000000 0.831133
O O10 0.500000 0.500000 0.072145
O O11 0.446300 0.744840 0.090814
O O12 0.500000 0.857006 0.216092
O O13 0.583159 0.699810 0.198146
O O14 0.588206 0.000000 0.228023
O O15 0.250000 0.250000 0.159931
O O16 0.346120 0.228727 0.128096
O O17 0.299552 0.000000 0.181112
O O18 0.110195 0.500000 0.619479
#
# Coordination Sequence:
#
# PCOD8186009 Si02
#       7
#    16   8  16   8  16  16  16
#     4  10  19  31  49  76 111 148 181 213 258 318
#     4  10  22  39  58  79 103 138 184 234 279 322
#     4  10  20  34  54  77 107 146 180 215 269 329
#     4  10  24  41  58  79 105 142 184 230 283 328
#     4  11  21  30  47  80 112 140 176 218 267 326
#     4  11  21  33  51  80 114 148 183 218 267 322
#     4  11  21  36  55  77 109 147 182 222 274 331
#
# _framework density 18.492486
#
# number of rings (size 3 to 8) (size 9 to 14) (size 15 to 20)
#    0.000    1.500    3.333    4.000    0.000    3.333 
#    0.000    0.000    0.000    1.000    0.000    4.667 
#    0.000    0.000    0.000    0.000    0.000    0.000 
#
# Total GULP energy -297415.685730 kJ/mol
# GULP energy per Si atom -12392.320239 kJ/mol
# Density = 1.845040 g / cm^3
# Si number density = 18.492486 Si / 1000 Ang^3
#
#
#
# Elastic Constant Matrix: (Units=GPa)
#
#
# Indices 1 2 3 4 5 6 
#
# 1 154.1205 42.8660 51.9851 0.0000 0.0000 0.0000
# 2 42.8660 91.7233 24.0545 0.0000 0.0000 0.0001
# 3 51.9851 24.0545 70.4488 0.0000 0.0000 0.0000
# 4 0.0000 0.0000 0.0000 23.7585 0.0000 0.0000
# 5 0.0000 0.0000 0.0000 0.0000 17.7896 0.0000
# 6 0.0000 0.0001 0.0000 0.0000 0.0000 26.8623
#
#
#
# Elastic Compliance Matrix: (Units=1/GPa)
#
#
# Indices 1 2 3 4 5 6 
#
# 1 0.009242 -0.002779 -0.005870 0.000000 0.000000 0.000000
# 2 -0.002779 0.012811 -0.002323 0.000000 0.000000 0.000000
# 3 -0.005870 -0.002323 0.019320 0.000000 0.000000 0.000000
# 4 0.000000 0.000000 0.000000 0.042090 0.000000 0.000000
# 5 0.000000 0.000000 0.000000 0.000000 0.056212 0.000000
# 6 0.000000 0.000000 0.000000 0.000000 0.000000 0.037227
#
#
# Mechanical properties :
#
#
# Convention : Reuss Voigt Hill
#
# Bulk Modulus (GPa) = 51.47769 61.56708 56.52239
# Shear Modulus (GPa) = 24.35189 26.84123 25.59656
#
# Velocity S-wave (km/s) = 3.63278 3.81395 3.72447
# Velocity P-wave (km/s) = 6.74490 7.26362 7.00906
#
# Compressibility (1/GPa) = 0.01942589
#
# Stress axis : x y z
#
# Youngs Moduli (GPa) = 108.20641 78.06070 51.76031
#
# Poissons Ratio (x) = 0.21696 0.30386
# Poissons Ratio (y) = 0.30075 0.12025
# Poissons Ratio (z) = 0.63522 0.18135
#
# Static dielectric constant tensor:
#      x y z
#    x 3.891930 0.000000 0.000000 
#    y 0.000000 3.500450 0.000000 
#    z 0.000000 0.000000 2.903650 
# 
# 
# High freq. dielectric constant tensor:
#      x y z
#    x 1.741690 0.000000 0.000000 
#    y 0.000000 1.726240 0.000000 
#    z 0.000000 0.000000 1.655290 
# 
# From -- ./inp_files/30630.got.cif
#   From: 2010.03.12/outbox.cif.g09.slc.cpg/sg42_16_cif.got.tgz:30630.got - 2010.04.14 02:04:31.
