data_PCOD8186449
_publ_section_title
;
Structure prediction by ZEFSAII (Michael W. Deem and Ramdas Pophale) SiO2 
 PCOD8186449
Probable space group: F M M 2
;
_chemical_formula_sum "Si O2"
_cell_formula_units_Z 80
_cell_length_a 8.727153
_cell_length_b 15.607446
_cell_length_c 28.881914
_cell_angle_alpha 90.000000
_cell_angle_beta 90.000000
_cell_angle_gamma 90.000000
_cell_volume 3933.964181
_symmetry_space_group_name_H-M "F M M 2"
_symmetry_group_IT_number 42
_symmetry_cell_setting 'orthorhombic'
loop_
_space_group_symop_operation_xyz
x,y,z
-x,-y,z
-x,y,z
x,-y,z
x,1/2+y,1/2+z
-x,1/2-y,1/2+z
-x,1/2+y,1/2+z
x,1/2-y,1/2+z
1/2+x,y,1/2+z
1/2-x,-y,1/2+z
1/2-x,y,1/2+z
1/2+x,-y,1/2+z
1/2+x,1/2+y,z
1/2-x,1/2-y,z
1/2-x,1/2+y,z
1/2+x,1/2-y,z
loop_
_atom_site_type_symbol
_atom_site_label
_atom_site_fract_x
_atom_site_fract_y
_atom_site_fract_z
Si Si1 0.181905 0.905061 0.379150
Si Si2 0.819525 0.663107 0.783711
Si Si3 0.324223 0.101760 0.981016
Si Si4 0.318994 0.000000 0.723870
Si Si5 0.820163 0.339218 0.571545
Si Si6 0.180602 0.500000 0.123858
O O1 0.243382 0.848236 0.336446
O O2 0.227809 0.867474 0.429548
O O3 0.000000 0.912545 0.376555
O O4 0.252019 0.000000 0.373491
O O5 0.750000 0.750000 0.762689
O O6 0.768201 0.583299 0.752613
O O7 0.000000 0.671098 0.783438
O O8 0.500000 0.127663 0.991215
O O9 0.305075 0.000000 0.985393
O O10 0.215143 0.149290 0.017168
O O11 0.223240 0.000000 0.677291
O O12 0.500000 0.000000 0.713317
O O13 0.750000 0.250000 0.589568
O O14 0.747149 0.415708 0.600332
O O15 0.000000 0.338631 0.580107
O O16 0.000000 0.500000 0.116802
#
# Coordination Sequence:
#
# PCOD8186449 Si02
#       6
#    16  16  16   8  16   8
#     4   8  14  29  55  85 117 161 207 242 285 349
#     4  10  20  36  60  88 120 157 202 247 295 354
#     4   9  17  32  58  89 124 164 207 249 296 355
#     4  10  22  42  65  86 115 157 200 245 303 370
#     4  12  25  42  65  93 126 162 205 252 304 366
#     4  12  26  46  69  92 121 155 198 255 317 374
#
# _framework density 20.335720999999999
#
# number of rings (size 3 to 8) (size 9 to 14) (size 15 to 20)
#    0.000    2.000    2.000    3.900    0.000    2.400 
#    0.000    5.000    0.000    1.200    0.000    0.000 
#    0.000    0.000    0.000    0.000    0.000    0.000 
#
# Total GULP energy -247973.200410 kJ/mol
# GULP energy per Si atom -12398.660021 kJ/mol
# Density = 2.028944 g / cm^3
# Si number density = 20.335721 Si / 1000 Ang^3
#
#
#
# Elastic Constant Matrix: (Units=GPa)
#
#
# Indices 1 2 3 4 5 6 
#
# 1 96.7777 55.7842 51.6184 0.0000 0.0000 0.0000
# 2 55.7842 156.9081 72.0890 0.0000 0.0000 0.0000
# 3 51.6184 72.0890 133.6491 0.0000 0.0000 0.0000
# 4 0.0000 0.0000 0.0000 2.1123 0.0000 0.0000
# 5 0.0000 0.0000 0.0000 0.0000 31.2444 0.0000
# 6 0.0000 0.0000 0.0000 0.0000 0.0000 29.5352
#
#
#
# Elastic Compliance Matrix: (Units=1/GPa)
#
#
# Indices 1 2 3 4 5 6 
#
# 1 0.014240 -0.003371 -0.003681 0.000000 0.000000 0.000000
# 2 -0.003371 0.009271 -0.003699 0.000000 0.000000 0.000000
# 3 -0.003681 -0.003699 0.010899 0.000000 0.000000 0.000000
# 4 0.000000 0.000000 0.000000 0.473424 0.000000 0.000000
# 5 0.000000 0.000000 0.000000 0.000000 0.032006 0.000000
# 6 0.000000 0.000000 0.000000 0.000000 0.000000 0.033858
#
#
# Mechanical properties :
#
#
# Convention : Reuss Voigt Hill
#
# Bulk Modulus (GPa) = 77.47453 82.92422 80.19937
# Shear Modulus (GPa) = 8.34025 26.43462 17.38744
#
# Velocity S-wave (km/s) = 2.02736 3.60934 2.92724
# Velocity P-wave (km/s) = 6.60762 7.63125 7.13781
#
# Compressibility (1/GPa) = 0.01290747
#
# Stress axis : x y z
#
# Youngs Moduli (GPa) = 70.22641 107.86360 91.75082
#
# Poissons Ratio (x) = 0.36363 0.33776
# Poissons Ratio (y) = 0.23675 0.33935
# Poissons Ratio (z) = 0.25852 0.39895
#
# Static dielectric constant tensor:
#      x y z
#    x 3.360150 0.000000 0.000000 
#    y 0.000000 3.940080 0.000000 
#    z 0.000000 0.000000 3.956330 
# 
# 
# High freq. dielectric constant tensor:
#      x y z
#    x 1.765860 0.000000 0.000000 
#    y 0.000000 1.797650 0.000000 
#    z 0.000000 0.000000 1.800750 
# 
# From -- ./inp_files/31294.got.cif
#   From: 2010.03.12/outbox.cif.g09.slc.cpg/sg42_16_cif.got.tgz:31294.got - 2010.04.14 02:04:31.
