data_PCOD8186547
_publ_section_title
;
Structure prediction by ZEFSAII (Michael W. Deem and Ramdas Pophale) SiO2 
 PCOD8186547
Probable space group: F M M 2
;
_chemical_formula_sum "Si O2"
_cell_formula_units_Z 112
_cell_length_a 13.825297
_cell_length_b 28.888060
_cell_length_c 13.948997
_cell_angle_alpha 90.000000
_cell_angle_beta 90.000000
_cell_angle_gamma 90.000000
_cell_volume 5571.034245
_symmetry_space_group_name_H-M "F M M 2"
_symmetry_group_IT_number 42
_symmetry_cell_setting 'orthorhombic'
loop_
_space_group_symop_operation_xyz
x,y,z
-x,-y,z
-x,y,z
x,-y,z
x,1/2+y,1/2+z
-x,1/2-y,1/2+z
-x,1/2+y,1/2+z
x,1/2-y,1/2+z
1/2+x,y,1/2+z
1/2-x,-y,1/2+z
1/2-x,y,1/2+z
1/2+x,-y,1/2+z
1/2+x,1/2+y,z
1/2-x,1/2-y,z
1/2-x,1/2+y,z
1/2+x,1/2-y,z
loop_
_atom_site_type_symbol
_atom_site_label
_atom_site_fract_x
_atom_site_fract_y
_atom_site_fract_z
Si Si1 0.811820 0.791690 0.014630
Si Si2 0.890607 0.186044 0.822758
Si Si3 0.111540 0.552660 0.173260
Si Si4 0.733802 0.390787 0.057280
Si Si5 0.388124 0.774678 0.718101
Si Si6 0.613094 0.121239 0.738955
Si Si7 0.712391 0.907445 0.343026
O O1 0.750000 0.750000 0.970351
O O2 0.744307 0.836519 0.037001
O O3 0.865542 0.771838 0.106594
O O4 0.892165 0.805394 0.936908
O O5 0.839335 0.230020 0.769465
O O6 0.827426 0.141043 0.800617
O O7 0.000000 0.176847 0.788262
O O8 0.121523 0.500000 0.137524
O O9 0.171123 0.585250 0.100469
O O10 0.153438 0.554463 0.282262
O O11 0.000000 0.568649 0.172238
O O12 0.644053 0.393809 0.131237
O O13 0.701274 0.415142 0.957027
O O14 0.500000 0.767404 0.736778
O O15 0.360085 0.824965 0.759452
O O16 0.500000 0.110760 0.751421
O O17 0.673255 0.091221 0.816147
#
# Coordination Sequence:
#
# PCOD8186547 Si02
#       7
#    16  16  16  16  16  16  16
#     4  10  21  32  51  76 111 149 194 232 271 331
#     4  10  21  34  51  77 111 150 192 237 281 332
#     4  10  22  41  63  89 118 146 187 245 303 355
#     4   9  21  38  57  84 113 157 189 233 286 347
#     4   9  19  32  48  69 102 149 189 225 274 323
#     4   9  19  35  54  79 112 149 191 233 277 327
#     4  10  21  36  60  84 110 146 192 235 289 343
#
# _framework density 20.103988000000001
#
# number of rings (size 3 to 8) (size 9 to 14) (size 15 to 20)
#    0.000    2.429    0.000    0.857   10.000    5.143 
#    0.000    0.714    0.000    6.857    0.000    0.000 
#    0.000    0.000    0.000    0.000    0.000    0.000 
#
# Total GULP energy -347052.936622 kJ/mol
# GULP energy per Si atom -12394.747737 kJ/mol
# Density = 2.005823 g / cm^3
# Si number density = 20.103988 Si / 1000 Ang^3
#
#
#
# Elastic Constant Matrix: (Units=GPa)
#
#
# Indices 1 2 3 4 5 6 
#
# 1 72.3741 27.5077 3.1876 0.0000 0.0000 0.0000
# 2 27.5077 62.2255 24.7308 0.0000 0.0000 0.0000
# 3 3.1876 24.7308 82.3882 0.0000 0.0000 0.0000
# 4 0.0000 0.0000 0.0000 17.6714 0.0000 0.0000
# 5 0.0000 0.0000 0.0000 0.0000 21.6971 0.0000
# 6 0.0000 0.0000 0.0000 0.0000 0.0000 24.8745
#
#
#
# Elastic Compliance Matrix: (Units=1/GPa)
#
#
# Indices 1 2 3 4 5 6 
#
# 1 0.016839 -0.008158 0.001797 0.000000 0.000000 0.000000
# 2 -0.008158 0.022200 -0.006348 0.000000 0.000000 0.000000
# 3 0.001797 -0.006348 0.013974 0.000000 0.000000 0.000000
# 4 0.000000 0.000000 0.000000 0.056589 0.000000 0.000000
# 5 0.000000 0.000000 0.000000 0.000000 0.046089 0.000000
# 6 0.000000 0.000000 0.000000 0.000000 0.000000 0.040202
#
#
# Mechanical properties :
#
#
# Convention : Reuss Voigt Hill
#
# Bulk Modulus (GPa) = 36.23923 36.42667 36.33295
# Shear Modulus (GPa) = 21.69122 23.61938 22.65530
#
# Velocity S-wave (km/s) = 3.28830 3.43134 3.36058
# Velocity P-wave (km/s) = 5.69932 5.81870 5.75932
#
# Compressibility (1/GPa) = 0.02759441
#
# Stress axis : x y z
#
# Youngs Moduli (GPa) = 59.38715 45.04500 71.56303
#
# Poissons Ratio (x) = 0.36748 -0.12863
# Poissons Ratio (y) = 0.48449 0.45430
# Poissons Ratio (z) = -0.10674 0.28596
#
# Static dielectric constant tensor:
#      x y z
#    x 3.564510 0.000000 0.000000 
#    y 0.000000 3.737680 0.000000 
#    z 0.000000 0.000000 3.632170 
# 
# 
# High freq. dielectric constant tensor:
#      x y z
#    x 1.779870 0.000000 0.000000 
#    y 0.000000 1.764510 0.000000 
#    z 0.000000 0.000000 1.783210 
# 
# From -- ./inp_files/14417.got.cif
#   From: 2010.03.12/outbox.cif.g09.slc.cpg/sg42_8_cif.got.tgz:14417.got - 2010.04.14 02:04:31.
