data_PCOD8186164
_publ_section_title
;
Structure prediction by ZEFSAII (Michael W. Deem and Ramdas Pophale) SiO2 
 PCOD8186164
Probable space group: F M M 2
;
_chemical_formula_sum "Si O2"
_cell_formula_units_Z 96
_cell_length_a 30.988801
_cell_length_b 18.791604
_cell_length_c 8.205886
_cell_angle_alpha 90.000000
_cell_angle_beta 90.000000
_cell_angle_gamma 90.000000
_cell_volume 4778.527660
_symmetry_space_group_name_H-M "F M M 2"
_symmetry_group_IT_number 42
_symmetry_cell_setting 'orthorhombic'
loop_
_space_group_symop_operation_xyz
x,y,z
-x,-y,z
-x,y,z
x,-y,z
x,1/2+y,1/2+z
-x,1/2-y,1/2+z
-x,1/2+y,1/2+z
x,1/2-y,1/2+z
1/2+x,y,1/2+z
1/2-x,-y,1/2+z
1/2-x,y,1/2+z
1/2+x,-y,1/2+z
1/2+x,1/2+y,z
1/2-x,1/2-y,z
1/2-x,1/2+y,z
1/2+x,1/2-y,z
loop_
_atom_site_type_symbol
_atom_site_label
_atom_site_fract_x
_atom_site_fract_y
_atom_site_fract_z
Si Si1 0.128008 0.420350 0.121650
Si Si2 0.294830 0.584342 0.852627
Si Si3 0.644124 0.684057 0.344432
Si Si4 0.271781 0.824049 0.655501
Si Si5 0.049273 0.840532 0.741736
Si Si6 0.589106 0.212466 0.552683
O O1 0.129478 0.500000 0.063882
O O2 0.157441 0.406069 0.279050
O O3 0.079032 0.400894 0.163829
O O4 0.146685 0.381668 0.964533
O O5 0.284490 0.500000 0.881996
O O6 0.261000 0.618682 0.728719
O O7 0.295042 0.631805 0.013977
O O8 0.692645 0.700491 0.287270
O O9 0.626508 0.751746 0.443337
O O10 0.612879 0.665994 0.191352
O O11 0.250000 0.750000 0.593865
O O12 0.058194 0.767975 0.644698
O O13 0.000000 0.863585 0.718181
O O14 0.059114 0.834296 0.934925
#
# Coordination Sequence:
#
# PCOD8186164 Si02
#       6
#    16  16  16  16  16  16
#     4  10  23  42  61  83 117 165 208 247 299 367
#     4  11  25  44  60  84 125 169 209 248 311 380
#     4  10  22  38  60  84 125 157 198 246 306 361
#     4  12  26  37  64  94 121 159 210 267 307 348
#     4  10  19  35  62  91 119 153 195 250 306 367
#     4   9  20  36  59  89 124 156 190 240 312 375
#
# _framework density 20.089870999999999
#
# number of rings (size 3 to 8) (size 9 to 14) (size 15 to 20)
#    0.000    1.667    0.000    3.500   11.667    3.000 
#    0.000    1.667    0.000    0.000    0.000    0.000 
#    0.000    0.000    0.000    0.000    0.000    0.000 
#
# Total GULP energy -297582.217159 kJ/mol
# GULP energy per Si atom -12399.259048 kJ/mol
# Density = 2.004415 g / cm^3
# Si number density = 20.089871 Si / 1000 Ang^3
#
#
#
# Elastic Constant Matrix: (Units=GPa)
#
#
# Indices 1 2 3 4 5 6 
#
# 1 111.6549 47.6647 19.7279 0.0000 0.0000 0.0000
# 2 47.6647 94.0764 49.9153 0.0000 0.0000 0.0000
# 3 19.7279 49.9153 93.4424 0.0001 0.0000 0.0000
# 4 0.0000 0.0000 0.0001 21.7679 0.0000 0.0000
# 5 0.0000 0.0000 0.0000 0.0000 27.2456 0.0000
# 6 0.0000 0.0000 0.0000 0.0000 0.0000 16.1708
#
#
#
# Elastic Compliance Matrix: (Units=1/GPa)
#
#
# Indices 1 2 3 4 5 6 
#
# 1 0.011489 -0.006327 0.000954 0.000000 0.000000 0.000000
# 2 -0.006327 0.018319 -0.008450 0.000000 0.000000 0.000000
# 3 0.000954 -0.008450 0.015014 0.000000 0.000000 0.000000
# 4 0.000000 0.000000 0.000000 0.045939 0.000000 0.000000
# 5 0.000000 0.000000 0.000000 0.000000 0.036703 0.000000
# 6 0.000000 0.000000 0.000000 0.000000 0.000000 0.061840
#
#
# Mechanical properties :
#
#
# Convention : Reuss Voigt Hill
#
# Bulk Modulus (GPa) = 58.22015 59.30996 58.76506
# Shear Modulus (GPa) = 22.45436 25.16124 23.80780
#
# Velocity S-wave (km/s) = 3.34682 3.54281 3.44621
# Velocity P-wave (km/s) = 6.63157 6.80601 6.71936
#
# Compressibility (1/GPa) = 0.01717618
#
# Stress axis : x y z
#
# Youngs Moduli (GPa) = 87.04304 54.58915 66.60460
#
# Poissons Ratio (x) = 0.34539 -0.06356
# Poissons Ratio (y) = 0.55074 0.56279
# Poissons Ratio (z) = -0.08307 0.46126
#
# Static dielectric constant tensor:
#      x y z
#    x 3.619850 0.000000 0.000000 
#    y 0.000000 3.521830 0.000000 
#    z 0.000000 0.000000 3.905660 
# 
# 
# High freq. dielectric constant tensor:
#      x y z
#    x 1.785660 0.000000 0.000000 
#    y 0.000000 1.764480 0.000000 
#    z 0.000000 0.000000 1.800150 
# 
# From -- ./inp_files/5172.got.cif
#   From: 2010.03.12/outbox.cif.g09.slc.cpg/sg42_3_cif.got.tgz:5172.got - 2010.04.14 02:04:31.
