data_PCOD8186240
_publ_section_title
;
Structure prediction by ZEFSAII (Michael W. Deem and Ramdas Pophale) SiO2 
 PCOD8186240
Probable space group: F M M 2
;
_chemical_formula_sum "Si O2"
_cell_formula_units_Z 96
_cell_length_a 9.196502
_cell_length_b 30.566249
_cell_length_c 18.711074
_cell_angle_alpha 90.000000
_cell_angle_beta 90.000000
_cell_angle_gamma 90.000000
_cell_volume 5259.730990
_symmetry_space_group_name_H-M "F M M 2"
_symmetry_group_IT_number 42
_symmetry_cell_setting 'orthorhombic'
loop_
_space_group_symop_operation_xyz
x,y,z
-x,-y,z
-x,y,z
x,-y,z
x,1/2+y,1/2+z
-x,1/2-y,1/2+z
-x,1/2+y,1/2+z
x,1/2-y,1/2+z
1/2+x,y,1/2+z
1/2-x,-y,1/2+z
1/2-x,y,1/2+z
1/2+x,-y,1/2+z
1/2+x,1/2+y,z
1/2-x,1/2-y,z
1/2-x,1/2+y,z
1/2+x,1/2-y,z
loop_
_atom_site_type_symbol
_atom_site_label
_atom_site_fract_x
_atom_site_fract_y
_atom_site_fract_z
Si Si1 0.669723 0.376826 0.473860
Si Si2 0.331805 0.449464 0.890545
Si Si3 0.829442 0.870447 0.639778
Si Si4 0.827565 0.452004 0.230598
Si Si5 0.669375 0.293698 0.385915
Si Si6 0.670526 0.705931 0.220733
O O1 0.500000 0.382288 0.459829
O O2 0.744708 0.420587 0.446557
O O3 0.706273 0.371339 0.556616
O O4 0.729183 0.334302 0.432016
O O5 0.500000 0.436841 0.896523
O O6 0.306208 0.500000 0.910360
O O7 0.273162 0.439859 0.810350
O O8 0.774741 0.916096 0.673955
O O9 0.735034 0.832631 0.674081
O O10 0.000000 0.862401 0.654914
O O11 0.766385 0.500000 0.208237
O O12 0.000000 0.454560 0.232775
O O13 0.500000 0.285904 0.399498
O O14 0.750000 0.250000 0.411772
O O15 0.703535 0.304064 0.303478
O O16 0.500000 0.710825 0.205828
O O17 0.750000 0.750000 0.196266
#
# Coordination Sequence:
#
# PCOD8186240 Si02
#       6
#    16  16  16  16  16  16
#     4  10  21  34  49  75 108 136 164 202 250 303
#     4   9  18  33  53  75  98 129 172 215 250 291
#     4  10  20  33  51  76 105 135 167 204 248 300
#     4   8  15  30  52  75  98 129 171 213 250 293
#     4   9  19  35  53  74  99 129 168 210 250 296
#     4  10  20  35  55  75  98 130 168 210 252 295
#
# _framework density 18.251885000000001
#
# number of rings (size 3 to 8) (size 9 to 14) (size 15 to 20)
#    0.000    2.667    0.000    2.500    0.000    3.667 
#    0.000    3.333    0.000    1.500    0.000    0.000 
#    0.000    0.000    0.000    0.000    0.000    0.000 
#
# Total GULP energy -297615.981108 kJ/mol
# GULP energy per Si atom -12400.665879 kJ/mol
# Density = 1.821034 g / cm^3
# Si number density = 18.251885 Si / 1000 Ang^3
#
#
#
# Elastic Constant Matrix: (Units=GPa)
#
#
# Indices 1 2 3 4 5 6 
#
# 1 53.7918 59.2314 50.5497 0.0000 0.0000 0.0000
# 2 59.2314 151.6221 87.1522 0.0000 0.0000 0.0000
# 3 50.5497 87.1522 105.8265 0.0000 0.0000 0.0000
# 4 0.0000 0.0000 0.0000 2.4279 0.0000 0.0000
# 5 0.0000 0.0000 0.0000 0.0000 17.9529 0.0000
# 6 0.0000 0.0000 0.0000 0.0000 0.0000 33.2289
#
#
#
# Elastic Compliance Matrix: (Units=1/GPa)
#
#
# Indices 1 2 3 4 5 6 
#
# 1 0.038811 -0.008555 -0.011493 0.000000 0.000000 0.000000
# 2 -0.008555 0.014410 -0.007780 0.000000 0.000000 0.000000
# 3 -0.011493 -0.007780 0.021347 0.000000 0.000000 0.000000
# 4 0.000000 0.000000 0.000000 0.411873 0.000000 0.000000
# 5 0.000000 0.000000 0.000000 0.000000 0.055701 0.000000
# 6 0.000000 0.000000 0.000000 0.000000 0.000000 0.030094
#
#
# Mechanical properties :
#
#
# Convention : Reuss Voigt Hill
#
# Bulk Modulus (GPa) = 52.88230 78.34522 65.61376
# Shear Modulus (GPa) = 7.88399 18.34241 13.11320
#
# Velocity S-wave (km/s) = 2.08061 3.17355 2.68331
# Velocity P-wave (km/s) = 5.89987 7.51307 6.75480
#
# Compressibility (1/GPa) = 0.01890992
#
# Stress axis : x y z
#
# Youngs Moduli (GPa) = 25.76586 69.39813 46.84604
#
# Poissons Ratio (x) = 0.59373 0.53840
# Poissons Ratio (y) = 0.22044 0.36447
# Poissons Ratio (z) = 0.29613 0.53993
#
# Static dielectric constant tensor:
#      x y z
#    x 3.138520 0.000000 0.000000 
#    y 0.000000 3.823230 0.000000 
#    z 0.000000 0.000000 3.376930 
# 
# 
# High freq. dielectric constant tensor:
#      x y z
#    x 1.685740 0.000000 0.000000 
#    y 0.000000 1.720430 0.000000 
#    z 0.000000 0.000000 1.704790 
# 
# From -- ./inp_files/19143.got.cif
#   From: 2010.03.12/outbox.cif.g09.slc.cpg/sg42_10_cif.got.tgz:19143.got - 2010.04.14 02:04:31.
