data_PCOD8186839
_publ_section_title
;
Structure prediction by ZEFSAII (Michael W. Deem and Ramdas Pophale) SiO2 
 PCOD8186839
Probable space group: F M M 2
;
_chemical_formula_sum "Si O2"
_cell_formula_units_Z 80
_cell_length_a 29.177971
_cell_length_b 8.370981
_cell_length_c 15.543700
_cell_angle_alpha 90.000000
_cell_angle_beta 90.000000
_cell_angle_gamma 90.000000
_cell_volume 3796.521381
_symmetry_space_group_name_H-M "F M M 2"
_symmetry_group_IT_number 42
_symmetry_cell_setting 'orthorhombic'
loop_
_space_group_symop_operation_xyz
x,y,z
-x,-y,z
-x,y,z
x,-y,z
x,1/2+y,1/2+z
-x,1/2-y,1/2+z
-x,1/2+y,1/2+z
x,1/2-y,1/2+z
1/2+x,y,1/2+z
1/2-x,-y,1/2+z
1/2-x,y,1/2+z
1/2+x,-y,1/2+z
1/2+x,1/2+y,z
1/2-x,1/2-y,z
1/2-x,1/2+y,z
1/2+x,1/2-y,z
loop_
_atom_site_type_symbol
_atom_site_label
_atom_site_fract_x
_atom_site_fract_y
_atom_site_fract_z
Si Si1 0.644056 0.187321 0.754230
Si Si2 0.950141 0.810374 0.184247
Si Si3 0.699112 0.313786 0.594100
Si Si4 0.353834 0.686744 0.933321
Si Si5 0.450605 0.189377 0.490895
O O1 0.592280 0.255464 0.740060
O O2 0.674399 0.221622 0.671127
O O3 0.664930 0.274672 0.838033
O O4 0.644040 0.000000 0.771968
O O5 0.000000 0.755573 0.221727
O O6 0.947235 0.000000 0.181576
O O7 0.944701 0.743742 0.087555
O O8 0.698979 0.500000 0.615251
O O9 0.750000 0.250000 0.585914
O O10 0.674503 0.283269 0.503611
O O11 0.348873 0.500000 0.954075
O O12 0.407016 0.746723 0.935585
O O13 0.500000 0.251001 0.453394
O O14 0.451379 0.000000 0.494096
#
# Coordination Sequence:
#
# PCOD8186839 Si02
#       5
#    16  16  16  16  16
#     4  11  22  39  63  94 128 165 206 252 303 362
#     4   8  14  28  54  86 121 164 208 248 294 350
#     4  12  26  46  69  92 119 155 200 255 315 374
#     4  11  22  39  63  94 128 165 206 252 303 362
#     4   8  14  28  54  86 121 164 208 248 294 350
#
# _framework density 21.071919999999999
#
# number of rings (size 3 to 8) (size 9 to 14) (size 15 to 20)
#    0.000    2.000    2.000    4.200    0.000    1.600 
#    0.000    4.000    0.000    4.800    0.000    0.000 
#    0.000    0.000    0.000    0.000    0.000    0.000 
#
# Total GULP energy -247896.913198 kJ/mol
# GULP energy per Si atom -12394.845660 kJ/mol
# Density = 2.102396 g / cm^3
# Si number density = 21.071920 Si / 1000 Ang^3
#
#
#
# Elastic Constant Matrix: (Units=GPa)
#
#
# Indices 1 2 3 4 5 6 
#
# 1 130.1734 13.3243 41.7573 0.0000 0.0000 0.0000
# 2 13.3243 45.9751 0.2640 0.0000 0.0000 0.0000
# 3 41.7573 0.2640 111.7902 0.0000 0.0000 0.0000
# 4 0.0000 0.0000 0.0000 27.4764 0.0000 0.0000
# 5 0.0000 0.0000 0.0000 0.0000 8.4806 0.0000
# 6 0.0000 0.0000 0.0000 0.0000 0.0000 21.4414
#
#
#
# Elastic Compliance Matrix: (Units=1/GPa)
#
#
# Indices 1 2 3 4 5 6 
#
# 1 0.009028 -0.002597 -0.003366 0.000000 0.000000 0.000000
# 2 -0.002597 0.022498 0.000917 0.000000 0.000000 0.000000
# 3 -0.003366 0.000917 0.010200 0.000000 0.000000 0.000000
# 4 0.000000 0.000000 0.000000 0.036395 0.000000 0.000000
# 5 0.000000 0.000000 0.000000 0.000000 0.117916 0.000000
# 6 0.000000 0.000000 0.000000 0.000000 0.000000 0.046639
#
#
# Mechanical properties :
#
#
# Convention : Reuss Voigt Hill
#
# Bulk Modulus (GPa) = 31.61126 44.29220 37.95173
# Shear Modulus (GPa) = 18.98882 26.98590 22.98736
#
# Velocity S-wave (km/s) = 3.00516 3.58251 3.30646
# Velocity P-wave (km/s) = 5.20341 6.17881 5.71197
#
# Compressibility (1/GPa) = 0.03163430
#
# Stress axis : x y z
#
# Youngs Moduli (GPa) = 110.77094 44.44777 98.03469
#
# Poissons Ratio (x) = 0.11543 0.32998
# Poissons Ratio (y) = 0.28767 -0.08989
# Poissons Ratio (z) = 0.37285 -0.04076
#
# Static dielectric constant tensor:
#      x y z
#    x 4.239300 0.000000 0.000000 
#    y 0.000000 3.381320 0.000000 
#    z 0.000000 0.000000 3.683490 
# 
# 
# High freq. dielectric constant tensor:
#      x y z
#    x 1.835100 0.000000 0.000000 
#    y 0.000000 1.792400 0.000000 
#    z 0.000000 0.000000 1.821320 
# 
# From -- ./inp_files/22709.got.cif
#   From: 2010.03.12/outbox.cif.g09.slc.cpg/sg42_12_cif.got.tgz:22709.got - 2010.04.14 02:04:31.
