data_PCOD8186658
_publ_section_title
;
Structure prediction by ZEFSAII (Michael W. Deem and Ramdas Pophale) SiO2 
 PCOD8186658
Probable space group: F M M 2
;
_chemical_formula_sum "Si O2"
_cell_formula_units_Z 88
_cell_length_a 12.624916
_cell_length_b 28.096248
_cell_length_c 13.778858
_cell_angle_alpha 90.000000
_cell_angle_beta 90.000000
_cell_angle_gamma 90.000000
_cell_volume 4887.536901
_symmetry_space_group_name_H-M "F M M 2"
_symmetry_group_IT_number 42
_symmetry_cell_setting 'orthorhombic'
loop_
_space_group_symop_operation_xyz
x,y,z
-x,-y,z
-x,y,z
x,-y,z
x,1/2+y,1/2+z
-x,1/2-y,1/2+z
-x,1/2+y,1/2+z
x,1/2-y,1/2+z
1/2+x,y,1/2+z
1/2-x,-y,1/2+z
1/2-x,y,1/2+z
1/2+x,-y,1/2+z
1/2+x,1/2+y,z
1/2-x,1/2-y,z
1/2-x,1/2+y,z
1/2+x,1/2-y,z
loop_
_atom_site_type_symbol
_atom_site_label
_atom_site_fract_x
_atom_site_fract_y
_atom_site_fract_z
Si Si1 0.119608 0.944586 0.290170
Si Si2 0.664950 0.788042 0.912860
Si Si3 0.000000 0.834753 0.872010
Si Si4 0.500000 0.261652 0.037256
Si Si5 0.216223 0.617396 0.408378
Si Si6 0.380120 0.553923 0.064641
Si Si7 0.500000 0.264324 0.265656
O O1 0.212344 0.914161 0.337910
O O2 0.127913 0.933566 0.176934
O O3 0.000000 0.930985 0.326219
O O4 0.140289 0.000000 0.311850
O O5 0.750000 0.750000 0.882864
O O6 0.716578 0.837490 0.942147
O O7 0.598105 0.792074 0.813770
O O8 0.601423 0.769419 0.006768
O O9 0.894483 0.866796 0.857257
O O10 0.000000 0.791679 0.794187
O O11 0.000000 0.812209 0.980702
O O12 0.500000 0.271843 0.151044
O O13 0.196497 0.588303 0.506020
O O14 0.500000 0.561217 0.027495
O O15 0.343653 0.500000 0.045457
#
# Coordination Sequence:
#
# PCOD8186658 Si02
#       7
#    16  16   8   8  16  16   8
#     4   9  21  39  59  87 116 146 190 238 286 345
#     4  10  21  39  54  82 114 145 188 233 276 343
#     4  10  22  38  53  88 120 140 199 246 266 340
#     4  10  22  40  56  75 112 154 190 237 284 325
#     4  12  20  36  61  86 116 152 190 237 290 328
#     4   9  19  37  60  85 112 147 191 233 282 342
#     4  10  22  40  56  75 114 158 184 231 292 329
#
# _framework density 18.004978999999999
#
# number of rings (size 3 to 8) (size 9 to 14) (size 15 to 20)
#    0.000    2.182    4.545    1.636    2.545    3.636 
#    0.000    0.000    2.000    0.000    0.000    0.000 
#    0.000    0.000    0.000    0.000    0.000    0.000 
#
# Total GULP energy -272709.337422 kJ/mol
# GULP energy per Si atom -12395.878974 kJ/mol
# Density = 1.796400 g / cm^3
# Si number density = 18.004979 Si / 1000 Ang^3
#
#
#
# Elastic Constant Matrix: (Units=GPa)
#
#
# Indices 1 2 3 4 5 6 
#
# 1 129.6687 65.3032 44.0334 0.0000 0.0000 0.0000
# 2 65.3032 102.8269 41.9784 0.0000 0.0000 0.0000
# 3 44.0334 41.9784 96.1563 0.0000 0.0000 0.0000
# 4 0.0000 0.0000 0.0000 19.8513 0.0000 0.0000
# 5 0.0000 0.0000 0.0000 0.0000 25.3051 0.0000
# 6 0.0000 0.0000 0.0000 0.0000 0.0000 44.6835
#
#
#
# Elastic Compliance Matrix: (Units=1/GPa)
#
#
# Indices 1 2 3 4 5 6 
#
# 1 0.011852 -0.006463 -0.002606 0.000000 0.000000 0.000000
# 2 -0.006463 0.015359 -0.003745 0.000000 0.000000 0.000000
# 3 -0.002606 -0.003745 0.013228 0.000000 0.000000 0.000000
# 4 0.000000 0.000000 0.000000 0.050375 0.000000 0.000000
# 5 0.000000 0.000000 0.000000 0.000000 0.039518 0.000000
# 6 0.000000 0.000000 0.000000 0.000000 0.000000 0.022380
#
#
# Mechanical properties :
#
#
# Convention : Reuss Voigt Hill
#
# Bulk Modulus (GPa) = 67.52152 70.14242 68.83197
# Shear Modulus (GPa) = 27.28135 29.79045 28.53590
#
# Velocity S-wave (km/s) = 3.89679 4.07205 3.98539
# Velocity P-wave (km/s) = 7.60458 7.81988 7.71298
#
# Compressibility (1/GPa) = 0.01481009
#
# Stress axis : x y z
#
# Youngs Moduli (GPa) = 84.37601 65.11009 75.59646
#
# Poissons Ratio (x) = 0.42080 0.19699
# Poissons Ratio (y) = 0.54532 0.28314
# Poissons Ratio (z) = 0.21987 0.24386
#
# Static dielectric constant tensor:
#      x y z
#    x 3.499480 0.000000 0.000000 
#    y 0.000000 3.774890 0.000000 
#    z 0.000000 0.000000 3.015690 
# 
# 
# High freq. dielectric constant tensor:
#      x y z
#    x 1.708260 0.000000 0.000000 
#    y 0.000000 1.706460 0.000000 
#    z 0.000000 0.000000 1.672700 
# 
# From -- ./inp_files/7075.got.cif
#   From: 2010.03.12/outbox.cif.g09.slc.cpg/sg42_4_cif.got.tgz:7075.got - 2010.04.14 02:04:31.
