data_PCOD8186958
_publ_section_title
;
Structure prediction by ZEFSAII (Michael W. Deem and Ramdas Pophale) SiO2 
 PCOD8186958
Probable space group: F D D 2
;
_chemical_formula_sum "Si O2"
_cell_formula_units_Z 64
_cell_length_a 11.890784
_cell_length_b 7.253517
_cell_length_c 32.107646
_cell_angle_alpha 90.000000
_cell_angle_beta 90.000000
_cell_angle_gamma 90.000000
_cell_volume 2769.284592
_symmetry_space_group_name_H-M "F D D 2"
_symmetry_group_IT_number 43
_symmetry_cell_setting 'orthorhombic'
loop_
_space_group_symop_operation_xyz
x,y,z
-x,-y,z
1/4-x,1/4+y,1/4+z
1/4+x,1/4-y,1/4+z
x,1/2+y,1/2+z
-x,1/2-y,1/2+z
1/4-x,3/4+y,3/4+z
1/4+x,3/4-y,3/4+z
1/2+x,y,1/2+z
1/2-x,-y,1/2+z
3/4-x,1/4+y,3/4+z
3/4+x,1/4-y,3/4+z
1/2+x,1/2+y,z
1/2-x,1/2-y,z
3/4-x,3/4+y,1/4+z
3/4+x,3/4-y,1/4+z
loop_
_atom_site_type_symbol
_atom_site_label
_atom_site_fract_x
_atom_site_fract_y
_atom_site_fract_z
Si Si1 0.500000 0.000000 0.123721
Si Si2 0.901105 0.642995 0.660925
Si Si3 0.911550 0.854494 0.322196
Si Si4 0.667318 0.019647 0.304364
Si Si5 0.750000 0.250000 0.232100
O O1 0.552721 0.150751 0.154151
O O2 0.402147 0.084940 0.092738
O O3 0.822558 0.587503 0.621974
O O4 0.829170 0.626254 0.702929
O O5 0.000000 0.500000 0.665782
O O6 0.788030 0.928229 0.312965
O O7 0.926211 0.645758 0.303560
O O8 0.000000 0.000000 0.302508
O O9 0.669499 0.120981 0.260102
#
# Coordination Sequence:
#
# PCOD8186958 Si02
#       5
#     8  16  16  16   8
#     4   9  18  40  66  88 128 178 222 274 332 414
#     4  11  21  41  67  97 134 173 228 287 339 417
#     4  10  18  39  71  94 127 184 233 274 342 422
#     4   9  20  41  61  94 140 172 225 293 334 416
#     4  11  24  42  62  98 142 174 224 294 364 386
#
# _framework density 23.110662999999999
#
# number of rings (size 3 to 8) (size 9 to 14) (size 15 to 20)
#    0.000    2.000    6.250    0.000    0.000    1.000 
#   13.500   15.000    0.000    0.000    0.000    0.000 
#    0.000    0.000    0.000    0.000    0.000    0.000 
#
# Total GULP energy -198352.789482 kJ/mol
# GULP energy per Si atom -12397.049343 kJ/mol
# Density = 2.305806 g / cm^3
# Si number density = 23.110663 Si / 1000 Ang^3
#
#
#
# Elastic Constant Matrix: (Units=GPa)
#
#
# Indices 1 2 3 4 5 6 
#
# 1 41.5069 49.4103 21.3032 0.0000 0.0000 0.0000
# 2 49.4103 173.0652 41.7709 0.0000 0.0000 0.0000
# 3 21.3032 41.7709 106.6202 0.0000 0.0000 0.0000
# 4 0.0000 0.0000 0.0000 -2.7667 0.0000 0.0000
# 5 0.0000 0.0000 0.0000 0.0000 -5.5180 0.0000
# 6 0.0000 0.0000 0.0000 0.0000 0.0000 53.6162
#
#
#
# Elastic Compliance Matrix: (Units=1/GPa)
#
#
# Indices 1 2 3 4 5 6 
#
# 1 0.037751 -0.009893 -0.003667 0.000000 0.000000 0.000000
# 2 -0.009893 0.008974 -0.001539 0.000000 0.000000 0.000000
# 3 -0.003667 -0.001539 0.010715 0.000000 0.000000 0.000000
# 4 0.000000 0.000000 0.000000 -0.361447 0.000000 0.000000
# 5 0.000000 0.000000 0.000000 0.000000 -0.181225 0.000000
# 6 0.000000 0.000000 0.000000 0.000000 0.000000 0.018651
#
#
# Mechanical properties :
#
#
# Convention : Reuss Voigt Hill
#
# Bulk Modulus (GPa) = 36.70839 60.68457 48.69648
# Shear Modulus (GPa) = -11.70135 22.98017 5.63941
#
# Velocity S-wave (km/s) = -2.25259 3.15676 1.56380
# Velocity P-wave (km/s) = 3.02534 6.29302 4.93735
#
# Compressibility (1/GPa) = 0.02724173
#
# Stress axis : x y z
#
# Youngs Moduli (GPa) = 26.48925 111.43179 93.32900
#
# Poissons Ratio (x) = 1.10239 0.34225
# Poissons Ratio (y) = 0.26206 0.14365
# Poissons Ratio (z) = 0.09714 0.17151
#
# Static dielectric constant tensor:
#      x y z
#    x 4.026830 0.000000 0.000000 
#    y 0.000000 4.832500 0.000000 
#    z 0.000000 0.000000 4.093020 
# 
# 
# High freq. dielectric constant tensor:
#      x y z
#    x 1.902440 0.000000 0.000000 
#    y 0.000000 1.933270 0.000000 
#    z 0.000000 0.000000 1.889800 
# 
# From -- ./inp_files/25463.got.cif
#   From: 2010.06.25/outbox.cif.g09.slc.cpg/sg43_13_cif.got.tgz:25463.got - 2010.06.26 16:48:59.
