data_PCOD8186163
_publ_section_title
;
Structure prediction by ZEFSAII (Michael W. Deem and Ramdas Pophale) SiO2 
 PCOD8186163
Probable space group: F M M 2
;
_chemical_formula_sum "Si O2"
_cell_formula_units_Z 104
_cell_length_a 18.864821
_cell_length_b 16.388659
_cell_length_c 17.472281
_cell_angle_alpha 90.000000
_cell_angle_beta 90.000000
_cell_angle_gamma 90.000000
_cell_volume 5401.889714
_symmetry_space_group_name_H-M "F M M 2"
_symmetry_group_IT_number 42
_symmetry_cell_setting 'orthorhombic'
loop_
_space_group_symop_operation_xyz
x,y,z
-x,-y,z
-x,y,z
x,-y,z
x,1/2+y,1/2+z
-x,1/2-y,1/2+z
-x,1/2+y,1/2+z
x,1/2-y,1/2+z
1/2+x,y,1/2+z
1/2-x,-y,1/2+z
1/2-x,y,1/2+z
1/2+x,-y,1/2+z
1/2+x,1/2+y,z
1/2-x,1/2-y,z
1/2-x,1/2+y,z
1/2+x,1/2-y,z
loop_
_atom_site_type_symbol
_atom_site_label
_atom_site_fract_x
_atom_site_fract_y
_atom_site_fract_z
Si Si1 0.636077 0.339125 0.164110
Si Si2 0.175684 0.408206 0.940343
Si Si3 0.918607 0.500000 0.405213
Si Si4 0.750000 0.750000 0.258412
Si Si5 0.422781 0.406949 0.304900
Si Si6 0.915113 0.000000 0.087501
Si Si7 0.324697 0.649084 0.887005
Si Si8 0.167523 0.259423 0.028901
O O1 0.711136 0.317768 0.205010
O O2 0.578710 0.346515 0.231885
O O3 0.631186 0.423691 0.117497
O O4 0.620100 0.268736 0.101349
O O5 0.155738 0.500000 0.961580
O O6 0.134232 0.377444 0.865665
O O7 0.257690 0.398503 0.921442
O O8 0.151822 0.354356 0.012857
O O9 0.909928 0.500000 0.496377
O O10 0.883702 0.581233 0.368648
O O11 0.000000 0.500000 0.380249
O O12 0.694060 0.799475 0.311037
O O13 0.500000 0.401396 0.342905
O O14 0.406459 0.500000 0.277444
O O15 0.000000 0.000000 0.112282
O O16 0.352857 0.710450 0.952093
O O17 0.250000 0.250000 0.049449
#
# Coordination Sequence:
#
# PCOD8186163 Si02
#       8
#    16  16   8   8  16   8  16  16
#     4  12  21  37  59  89 125 161 194 257 314 368
#     4  10  19  35  62  88 115 164 206 251 311 357
#     4  11  24  39  62  92 121 163 206 249 307 368
#     4  12  24  36  60  92 126 162 208 246 316 366
#     4  10  20  35  57  88 120 151 197 256 308 357
#     4  11  24  41  62  90 124 159 206 259 312 368
#     4  11  19  38  60  84 124 160 199 258 292 363
#     4  10  20  35  55  87 122 152 200 251 302 359
#
# _framework density 19.252521000000002
#
# number of rings (size 3 to 8) (size 9 to 14) (size 15 to 20)
#    0.000    1.231    7.692    0.462    0.000    0.615 
#    0.000    5.385    1.692    0.000    0.000    0.000 
#    0.000    0.000    0.000    0.000    0.000    0.000 
#
# Total GULP energy -322177.386432 kJ/mol
# GULP energy per Si atom -12391.437940 kJ/mol
# Density = 1.920870 g / cm^3
# Si number density = 19.252521 Si / 1000 Ang^3
#
#
#
# Elastic Constant Matrix: (Units=GPa)
#
#
# Indices 1 2 3 4 5 6 
#
# 1 75.6468 46.2102 31.5363 0.0000 0.0000 0.0000
# 2 46.2102 117.5408 63.5595 0.0000 0.0000 0.0000
# 3 31.5363 63.5595 101.0163 0.0000 0.0000 0.0000
# 4 0.0000 0.0000 0.0000 29.6419 0.0000 0.0000
# 5 0.0000 0.0000 0.0000 0.0000 14.2170 0.0000
# 6 0.0000 0.0000 0.0000 0.0000 0.0000 22.1245
#
#
#
# Elastic Compliance Matrix: (Units=1/GPa)
#
#
# Indices 1 2 3 4 5 6 
#
# 1 0.017594 -0.005982 -0.001729 0.000000 0.000000 0.000000
# 2 -0.005982 0.014929 -0.007526 0.000000 0.000000 0.000000
# 3 -0.001729 -0.007526 0.015174 0.000000 0.000000 0.000000
# 4 0.000000 0.000000 0.000000 0.033736 0.000000 0.000000
# 5 0.000000 0.000000 0.000000 0.000000 0.070338 0.000000
# 6 0.000000 0.000000 0.000000 0.000000 0.000000 0.045199
#
#
# Mechanical properties :
#
#
# Convention : Reuss Voigt Hill
#
# Bulk Modulus (GPa) = 58.05787 64.09066 61.07426
# Shear Modulus (GPa) = 21.44211 23.38987 22.41599
#
# Velocity S-wave (km/s) = 3.34088 3.48932 3.41591
# Velocity P-wave (km/s) = 6.71591 7.04241 6.88110
#
# Compressibility (1/GPa) = 0.01722419
#
# Stress axis : x y z
#
# Youngs Moduli (GPa) = 56.83622 66.98328 65.90085
#
# Poissons Ratio (x) = 0.40071 0.11392
# Poissons Ratio (y) = 0.34001 0.49596
# Poissons Ratio (z) = 0.09825 0.50410
#
# Static dielectric constant tensor:
#      x y z
#    x 3.329450 0.000000 0.000000 
#    y 0.000000 3.687930 0.000000 
#    z 0.000000 0.000000 3.582490 
# 
# 
# High freq. dielectric constant tensor:
#      x y z
#    x 1.718810 0.000000 0.000000 
#    y 0.000000 1.751570 0.000000 
#    z 0.000000 0.000000 1.744830 
# 
# From -- ./inp_files/20918.got.cif
#   From: 2010.03.12/outbox.cif.g09.slc.cpg/sg42_11_cif.got.tgz:20918.got - 2010.04.14 02:04:31.
