data_PCOD8186110
_publ_section_title
;
Structure prediction by ZEFSAII (Michael W. Deem and Ramdas Pophale) SiO2 
 PCOD8186110
Probable space group: F M M 2
;
_chemical_formula_sum "Si O2"
_cell_formula_units_Z 104
_cell_length_a 32.082051
_cell_length_b 9.713293
_cell_length_c 18.872538
_cell_angle_alpha 90.000000
_cell_angle_beta 90.000000
_cell_angle_gamma 90.000000
_cell_volume 5881.104857
_symmetry_space_group_name_H-M "F M M 2"
_symmetry_group_IT_number 42
_symmetry_cell_setting 'orthorhombic'
loop_
_space_group_symop_operation_xyz
x,y,z
-x,-y,z
-x,y,z
x,-y,z
x,1/2+y,1/2+z
-x,1/2-y,1/2+z
-x,1/2+y,1/2+z
x,1/2-y,1/2+z
1/2+x,y,1/2+z
1/2-x,-y,1/2+z
1/2-x,y,1/2+z
1/2+x,-y,1/2+z
1/2+x,1/2+y,z
1/2-x,1/2-y,z
1/2-x,1/2+y,z
1/2+x,1/2-y,z
loop_
_atom_site_type_symbol
_atom_site_label
_atom_site_fract_x
_atom_site_fract_y
_atom_site_fract_z
Si Si1 0.121349 0.342039 0.683850
Si Si2 0.829992 0.345119 0.085868
Si Si3 0.636667 0.842907 0.843981
Si Si4 0.047062 0.840545 0.084253
Si Si5 0.750000 0.750000 0.511085
Si Si6 0.285592 0.344496 0.874624
Si Si7 0.405379 0.155044 0.984927
O O1 0.131755 0.500000 0.667132
O O2 0.159367 0.254392 0.651508
O O3 0.117193 0.315024 0.767196
O O4 0.077334 0.298069 0.648929
O O5 0.836129 0.500000 0.113268
O O6 0.782439 0.328478 0.061245
O O7 0.860586 0.312610 0.020308
O O8 0.671153 0.729753 0.859968
O O9 0.599578 0.823493 0.900701
O O10 0.654716 0.000000 0.849976
O O11 0.000000 0.804049 0.106966
O O12 0.051699 0.000000 0.064968
O O13 0.059282 0.756761 0.013848
O O14 0.724390 0.853638 0.459203
O O15 0.286286 0.500000 0.843834
O O16 0.250000 0.250000 0.836713
O O17 0.419651 0.000000 0.002498
#
# Coordination Sequence:
#
# PCOD8186110 Si02
#       7
#    16  16  16  16   8  16  16
#     4   9  20  36  54  77 106 142 175 209 261 320
#     4  10  19  34  53  74 102 136 176 221 260 304
#     4  10  19  35  54  75 107 140 174 218 265 315
#     4   9  18  34  55  80 108 136 171 215 261 314
#     4  10  20  32  52  74 102 138 180 222 266 304
#     4  10  20  32  51  75 101 134 176 222 268 312
#     4   9  17  32  54  78 103 133 171 215 263 310
#
# _framework density 17.683751999999998
#
# number of rings (size 3 to 8) (size 9 to 14) (size 15 to 20)
#    0.462    2.000    1.538    0.923    0.000    2.769 
#    1.385    0.769    0.000    2.769    0.000    0.000 
#    0.000    0.000    0.000    0.000    0.000    0.000 
#
# Total GULP energy -322297.558736 kJ/mol
# GULP energy per Si atom -12396.059951 kJ/mol
# Density = 1.764350 g / cm^3
# Si number density = 17.683752 Si / 1000 Ang^3
#
#
#
# Elastic Constant Matrix: (Units=GPa)
#
#
# Indices 1 2 3 4 5 6 
#
# 1 95.4363 50.6554 41.6539 0.0000 0.0000 0.0000
# 2 50.6554 100.9328 46.4367 0.0000 0.0000 0.0000
# 3 41.6539 46.4367 109.1272 0.0000 0.0000 0.0000
# 4 0.0000 0.0000 0.0000 17.7197 0.0000 0.0000
# 5 0.0000 0.0000 0.0000 0.0000 18.0270 0.0000
# 6 0.0000 0.0000 0.0000 0.0000 0.0000 24.3945
#
#
#
# Elastic Compliance Matrix: (Units=1/GPa)
#
#
# Indices 1 2 3 4 5 6 
#
# 1 0.015111 -0.006130 -0.003159 0.000000 0.000000 0.000000
# 2 -0.006130 0.014806 -0.003961 0.000000 0.000000 0.000000
# 3 -0.003159 -0.003961 0.012055 0.000000 0.000000 0.000000
# 4 0.000000 0.000000 0.000000 0.056434 0.000000 0.000000
# 5 0.000000 0.000000 0.000000 0.000000 0.055472 0.000000
# 6 0.000000 0.000000 0.000000 0.000000 0.000000 0.040993
#
#
# Mechanical properties :
#
#
# Convention : Reuss Voigt Hill
#
# Bulk Modulus (GPa) = 64.63328 64.77649 64.70488
# Shear Modulus (GPa) = 22.07221 23.14492 22.60857
#
# Velocity S-wave (km/s) = 3.53677 3.62169 3.57948
# Velocity P-wave (km/s) = 7.30118 7.36199 7.33165
#
# Compressibility (1/GPa) = 0.01547191
#
# Stress axis : x y z
#
# Youngs Moduli (GPa) = 66.17760 67.53849 82.95415
#
# Poissons Ratio (x) = 0.41403 0.26207
# Poissons Ratio (y) = 0.40568 0.32855
# Poissons Ratio (z) = 0.20907 0.26749
#
# Static dielectric constant tensor:
#      x y z
#    x 3.106040 0.000000 0.000000 
#    y 0.000000 3.281400 0.000000 
#    z 0.000000 0.000000 3.198310 
# 
# 
# High freq. dielectric constant tensor:
#      x y z
#    x 1.663750 0.000000 0.000000 
#    y 0.000000 1.686760 0.000000 
#    z 0.000000 0.000000 1.666600 
# 
# From -- ./inp_files/27351.got.cif
#   From: 2010.03.12/outbox.cif.g09.slc.cpg/sg42_14_cif.got.tgz:27351.got - 2010.04.14 02:04:31.
