data_PCOD8186736
_publ_section_title
;
Structure prediction by ZEFSAII (Michael W. Deem and Ramdas Pophale) SiO2 
 PCOD8186736
Probable space group: F M M 2
;
_chemical_formula_sum "Si O2"
_cell_formula_units_Z 80
_cell_length_a 26.438224
_cell_length_b 18.198501
_cell_length_c 7.592393
_cell_angle_alpha 90.000000
_cell_angle_beta 90.000000
_cell_angle_gamma 90.000000
_cell_volume 3652.973947
_symmetry_space_group_name_H-M "F M M 2"
_symmetry_group_IT_number 42
_symmetry_cell_setting 'orthorhombic'
loop_
_space_group_symop_operation_xyz
x,y,z
-x,-y,z
-x,y,z
x,-y,z
x,1/2+y,1/2+z
-x,1/2-y,1/2+z
-x,1/2+y,1/2+z
x,1/2-y,1/2+z
1/2+x,y,1/2+z
1/2-x,-y,1/2+z
1/2-x,y,1/2+z
1/2+x,-y,1/2+z
1/2+x,1/2+y,z
1/2-x,1/2-y,z
1/2-x,1/2+y,z
1/2+x,1/2-y,z
loop_
_atom_site_type_symbol
_atom_site_label
_atom_site_fract_x
_atom_site_fract_y
_atom_site_fract_z
Si Si1 0.892032 0.329838 0.030330
Si Si2 0.057183 0.685774 0.391955
Si Si3 0.796271 0.581857 0.658260
Si Si4 0.779772 0.826098 0.476823
Si Si5 0.908436 0.581712 0.680253
O O1 0.922370 0.348624 0.208945
O O2 0.832474 0.325590 0.084966
O O3 0.907266 0.252147 0.948713
O O4 0.904385 0.390441 0.882198
O O5 0.055561 0.628168 0.552714
O O6 0.000000 0.713380 0.359727
O O7 0.784317 0.500000 0.736315
O O8 0.754781 0.602142 0.513574
O O9 0.853443 0.581090 0.586039
O O10 0.794345 0.654945 0.778564
O O11 0.750000 0.750000 0.491263
O O12 0.931081 0.500000 0.691401
#
# Coordination Sequence:
#
# PCOD8186736 Si02
#       5
#    16  16  16  16  16
#     4  11  25  42  68  99 134 172 222 272 329 392
#     4  12  25  44  71  98 126 174 226 277 336 390
#     4  10  22  40  61  91 132 175 208 251 322 390
#     4  11  23  36  62  94 129 167 214 266 315 377
#     4  10  24  46  68  98 138 173 215 272 329 391
#
# _framework density 21.899964000000001
#
# number of rings (size 3 to 8) (size 9 to 14) (size 15 to 20)
#    0.000    1.200    2.000    3.000    8.400    2.800 
#    0.000    0.000    0.000    0.000    0.000    0.000 
#    0.000    0.000    0.000    0.000    0.000    0.000 
#
# Total GULP energy -247847.155725 kJ/mol
# GULP energy per Si atom -12392.357786 kJ/mol
# Density = 2.185012 g / cm^3
# Si number density = 21.899964 Si / 1000 Ang^3
#
#
#
# Elastic Constant Matrix: (Units=GPa)
#
#
# Indices 1 2 3 4 5 6 
#
# 1 77.8748 18.3143 13.5100 0.0001 0.0000 0.0000
# 2 18.3143 113.8288 12.6609 -0.0003 0.0000 0.0000
# 3 13.5100 12.6609 71.0812 -0.0008 0.0001 0.0003
# 4 0.0001 -0.0003 -0.0008 26.5947 0.0001 0.0002
# 5 0.0000 0.0000 0.0001 0.0001 25.6211 0.0000
# 6 0.0000 0.0000 0.0003 0.0002 0.0000 17.1258
#
#
#
# Elastic Compliance Matrix: (Units=1/GPa)
#
#
# Indices 1 2 3 4 5 6 
#
# 1 0.013691 -0.001952 -0.002255 0.000000 0.000000 0.000000
# 2 -0.001952 0.009241 -0.001275 0.000000 0.000000 0.000000
# 3 -0.002255 -0.001275 0.014724 0.000000 0.000000 0.000000
# 4 0.000000 0.000000 0.000000 0.037601 0.000000 0.000000
# 5 0.000000 0.000000 0.000000 0.000000 0.039030 0.000000
# 6 0.000000 0.000000 0.000000 0.000000 0.000000 0.058392
#
#
# Mechanical properties :
#
#
# Convention : Reuss Voigt Hill
#
# Bulk Modulus (GPa) = 37.46273 39.08390 38.27332
# Shear Modulus (GPa) = 25.96855 28.42162 27.19509
#
# Velocity S-wave (km/s) = 3.44725 3.60640 3.52772
# Velocity P-wave (km/s) = 5.74353 5.93521 5.84016
#
# Compressibility (1/GPa) = 0.02669320
#
# Stress axis : x y z
#
# Youngs Moduli (GPa) = 73.03895 108.21322 67.91620
#
# Poissons Ratio (x) = 0.21124 0.15312
# Poissons Ratio (y) = 0.14258 0.08659
# Poissons Ratio (z) = 0.16467 0.13797
#
# Static dielectric constant tensor:
#      x y z
#    x 4.391990 0.000000 0.000000 
#    y 0.000000 3.874310 0.000000 
#    z 0.000000 0.000000 3.911140 
# 
# 
# High freq. dielectric constant tensor:
#      x y z
#    x 1.869240 0.000000 0.000000 
#    y 0.000000 1.861890 0.000000 
#    z 0.000000 0.000000 1.849420 
# 
# From -- ./inp_files/3473.got.cif
#   From: 2010.03.12/outbox.cif.g09.slc.cpg/sg42_2_cif.got.tgz:3473.got - 2010.04.14 02:04:31.
