data_PCOD8186878
_publ_section_title
;
Structure prediction by ZEFSAII (Michael W. Deem and Ramdas Pophale) SiO2 
 PCOD8186878
Probable space group: F M M 2
;
_chemical_formula_sum "Si O2"
_cell_formula_units_Z 80
_cell_length_a 10.318122
_cell_length_b 15.419265
_cell_length_c 25.707398
_cell_angle_alpha 90.000000
_cell_angle_beta 90.000000
_cell_angle_gamma 90.000000
_cell_volume 4089.991942
_symmetry_space_group_name_H-M "F M M 2"
_symmetry_group_IT_number 42
_symmetry_cell_setting 'orthorhombic'
loop_
_space_group_symop_operation_xyz
x,y,z
-x,-y,z
-x,y,z
x,-y,z
x,1/2+y,1/2+z
-x,1/2-y,1/2+z
-x,1/2+y,1/2+z
x,1/2-y,1/2+z
1/2+x,y,1/2+z
1/2-x,-y,1/2+z
1/2-x,y,1/2+z
1/2+x,-y,1/2+z
1/2+x,1/2+y,z
1/2-x,1/2-y,z
1/2-x,1/2+y,z
1/2+x,1/2-y,z
loop_
_atom_site_type_symbol
_atom_site_label
_atom_site_fract_x
_atom_site_fract_y
_atom_site_fract_z
Si Si1 0.000000 0.752050 0.077300
Si Si2 0.354577 0.601557 0.835586
Si Si3 0.000000 0.596641 0.997356
Si Si4 0.652262 0.599984 0.717494
Si Si5 0.750060 0.651524 0.438627
Si Si6 0.250000 0.250000 0.147878
Si Si7 0.500000 0.595301 0.996097
O O1 0.874256 0.758872 0.112196
O O2 0.000000 0.833857 0.040235
O O3 0.000000 0.662523 0.045379
O O4 0.500000 0.638410 0.843663
O O5 0.353916 0.500000 0.846422
O O6 0.308560 0.620284 0.776916
O O7 0.255583 0.647273 0.875716
O O8 0.877225 0.606269 0.960092
O O9 0.000000 0.500000 0.021518
O O10 0.500000 0.617827 0.708454
O O11 0.684415 0.500000 0.703432
O O12 0.738346 0.663318 0.682353
O O13 0.750000 0.750000 0.458278
O O14 0.875139 0.602714 0.459880
O O15 0.500000 0.500000 0.022033
#
# Coordination Sequence:
#
# PCOD8186878 Si02
#       7
#     8  16   8  16  16   8   8
#     4  12  26  44  62  94 124 156 218 270 320 368
#     4   9  18  35  63  95 126 166 209 243 295 380
#     4  12  26  44  63  89 130 171 207 256 317 372
#     4   9  20  41  66  94 127 166 208 248 309 385
#     4  12  22  39  63  96 131 163 208 253 306 374
#     4  12  24  42  68  92 126 156 212 276 316 362
#     4  12  24  44  67  87 120 165 213 258 311 376
#
# _framework density 19.559939
#
# number of rings (size 3 to 8) (size 9 to 14) (size 15 to 20)
#    0.000    1.200    4.000    4.200    1.400    1.600 
#    0.000    1.000    0.000    2.400    0.000    0.000 
#    0.000    0.000    0.000    0.000    0.000    0.000 
#
# Total GULP energy -248040.389248 kJ/mol
# GULP energy per Si atom -12402.019462 kJ/mol
# Density = 1.951542 g / cm^3
# Si number density = 19.559939 Si / 1000 Ang^3
#
#
#
# Elastic Constant Matrix: (Units=GPa)
#
#
# Indices 1 2 3 4 5 6 
#
# 1 135.4564 47.5069 69.5115 0.0000 0.0000 0.0000
# 2 47.5069 146.0183 68.5275 0.0000 0.0000 0.0000
# 3 69.5115 68.5275 134.3523 0.0000 0.0000 0.0000
# 4 0.0000 0.0000 0.0000 1.3415 0.0000 0.0000
# 5 0.0000 0.0000 0.0000 0.0000 37.6344 0.0000
# 6 0.0000 0.0000 0.0000 0.0000 0.0000 30.7236
#
#
#
# Elastic Compliance Matrix: (Units=1/GPa)
#
#
# Indices 1 2 3 4 5 6 
#
# 1 0.010185 -0.001105 -0.004706 0.000000 0.000000 0.000000
# 2 -0.001105 0.009124 -0.004082 0.000000 0.000000 0.000000
# 3 -0.004706 -0.004082 0.011960 0.000000 0.000000 0.000000
# 4 0.000000 0.000000 0.000000 0.745410 0.000000 0.000000
# 5 0.000000 0.000000 0.000000 0.000000 0.026571 0.000000
# 6 0.000000 0.000000 0.000000 0.000000 0.000000 0.032548
#
#
# Mechanical properties :
#
#
# Convention : Reuss Voigt Hill
#
# Bulk Modulus (GPa) = 87.08682 87.43542 87.26112
# Shear Modulus (GPa) = 5.81794 29.29197 17.55495
#
# Velocity S-wave (km/s) = 1.72652 3.87402 2.99907
# Velocity P-wave (km/s) = 6.97095 8.05040 7.53005
#
# Compressibility (1/GPa) = 0.01148279
#
# Stress axis : x y z
#
# Youngs Moduli (GPa) = 98.18453 109.60532 83.61378
#
# Poissons Ratio (x) = 0.12114 0.39347
# Poissons Ratio (y) = 0.10851 0.34129
# Poissons Ratio (z) = 0.46203 0.44739
#
# Static dielectric constant tensor:
#      x y z
#    x 3.471990 0.000000 0.000000 
#    y 0.000000 3.630000 0.000000 
#    z 0.000000 0.000000 3.704950 
# 
# 
# High freq. dielectric constant tensor:
#      x y z
#    x 1.753110 0.000000 0.000000 
#    y 0.000000 1.768940 0.000000 
#    z 0.000000 0.000000 1.768590 
# 
# From -- ./inp_files/32075.got.cif
#   From: 2010.03.12/outbox.cif.g09.slc.cpg/sg42_17_cif.got.tgz:32075.got - 2010.04.14 02:04:31.
