data_PCOD8186326
_publ_section_title
;
Structure prediction by ZEFSAII (Michael W. Deem and Ramdas Pophale) SiO2 
 PCOD8186326
Probable space group: F M M 2
;
_chemical_formula_sum "Si O2"
_cell_formula_units_Z 80
_cell_length_a 28.643133
_cell_length_b 8.811991
_cell_length_c 15.555949
_cell_angle_alpha 90.000000
_cell_angle_beta 90.000000
_cell_angle_gamma 90.000000
_cell_volume 3926.368665
_symmetry_space_group_name_H-M "F M M 2"
_symmetry_group_IT_number 42
_symmetry_cell_setting 'orthorhombic'
loop_
_space_group_symop_operation_xyz
x,y,z
-x,-y,z
-x,y,z
x,-y,z
x,1/2+y,1/2+z
-x,1/2-y,1/2+z
-x,1/2+y,1/2+z
x,1/2-y,1/2+z
1/2+x,y,1/2+z
1/2-x,-y,1/2+z
1/2-x,y,1/2+z
1/2+x,-y,1/2+z
1/2+x,1/2+y,z
1/2-x,1/2-y,z
1/2-x,1/2+y,z
1/2+x,1/2-y,z
loop_
_atom_site_type_symbol
_atom_site_label
_atom_site_fract_x
_atom_site_fract_y
_atom_site_fract_z
Si Si1 0.552218 0.674041 0.835810
Si Si2 0.199499 0.821512 0.249648
Si Si3 0.142555 0.825791 0.599201
Si Si4 0.863163 0.175254 0.408120
Si Si5 0.052738 0.676789 0.655023
O O1 0.500000 0.693881 0.873717
O O2 0.560936 0.500000 0.808787
O O3 0.589447 0.725834 0.906820
O O4 0.559882 0.781364 0.754245
O O5 0.250000 0.750000 0.251057
O O6 0.172775 0.775095 0.163261
O O7 0.171797 0.765520 0.334213
O O8 0.205272 0.000000 0.249910
O O9 0.160760 0.802687 0.501500
O O10 0.088440 0.775292 0.599148
O O11 0.146765 0.000000 0.627995
O O12 0.876215 0.000000 0.393021
O O13 0.064063 0.500000 0.643423
O O14 0.000000 0.715033 0.625225
#
# Coordination Sequence:
#
# PCOD8186326 Si02
#       5
#    16  16  16  16  16
#     4  10  20  34  57  89 123 162 207 250 295 353
#     4  11  24  44  67  90 119 157 199 251 311 366
#     4  11  23  40  63  93 125 160 203 252 302 358
#     4  10  23  41  62  90 125 161 201 247 302 361
#     4  10  20  35  57  86 123 166 207 249 300 356
#
# _framework density 20.375060999999999
#
# number of rings (size 3 to 8) (size 9 to 14) (size 15 to 20)
#    0.000    1.600    2.000    2.400    0.000    6.400 
#    0.000    6.000    0.000    0.000    0.000    0.000 
#    0.000    0.000    0.000    0.000    0.000    0.000 
#
# Total GULP energy -248046.809503 kJ/mol
# GULP energy per Si atom -12402.340475 kJ/mol
# Density = 2.032869 g / cm^3
# Si number density = 20.375061 Si / 1000 Ang^3
#
#
#
# Elastic Constant Matrix: (Units=GPa)
#
#
# Indices 1 2 3 4 5 6 
#
# 1 126.7731 38.1624 55.3871 0.0000 0.0000 0.0000
# 2 38.1624 59.7081 28.8194 0.0000 0.0000 0.0000
# 3 55.3871 28.8194 112.6779 0.0000 0.0000 0.0000
# 4 0.0000 0.0000 0.0000 27.7545 0.0000 0.0000
# 5 0.0000 0.0000 0.0000 0.0000 10.2727 0.0000
# 6 0.0000 0.0000 0.0000 0.0000 0.0000 38.5613
#
#
#
# Elastic Compliance Matrix: (Units=1/GPa)
#
#
# Indices 1 2 3 4 5 6 
#
# 1 0.011294 -0.005178 -0.004227 0.000000 0.000000 0.000000
# 2 -0.005178 0.021481 -0.002949 0.000000 0.000000 0.000000
# 3 -0.004227 -0.002949 0.011707 0.000000 0.000000 0.000000
# 4 0.000000 0.000000 0.000000 0.036030 0.000000 0.000000
# 5 0.000000 0.000000 0.000000 0.000000 0.097345 0.000000
# 6 0.000000 0.000000 0.000000 0.000000 0.000000 0.025933
#
#
# Mechanical properties :
#
#
# Convention : Reuss Voigt Hill
#
# Bulk Modulus (GPa) = 50.57240 60.43301 55.50271
# Shear Modulus (GPa) = 21.26857 27.10372 24.18615
#
# Velocity S-wave (km/s) = 3.23438 3.65120 3.44909
# Velocity P-wave (km/s) = 6.23080 6.89200 6.56973
#
# Compressibility (1/GPa) = 0.01977363
#
# Stress axis : x y z
#
# Youngs Moduli (GPa) = 88.54538 46.55264 85.41979
#
# Poissons Ratio (x) = 0.24105 0.36107
# Poissons Ratio (y) = 0.45849 0.25189
# Poissons Ratio (z) = 0.37428 0.13728
#
# Static dielectric constant tensor:
#      x y z
#    x 3.776700 0.000000 0.000000 
#    y 0.000000 3.692610 0.000000 
#    z 0.000000 0.000000 3.601460 
# 
# 
# High freq. dielectric constant tensor:
#      x y z
#    x 1.792820 0.000000 0.000000 
#    y 0.000000 1.803810 0.000000 
#    z 0.000000 0.000000 1.790750 
# 
# From -- ./inp_files/18196.got.cif
#   From: 2010.03.12/outbox.cif.g09.slc.cpg/sg42_10_cif.got.tgz:18196.got - 2010.04.14 02:04:31.
