data_PCOD8186940
_publ_section_title
;
Structure prediction by ZEFSAII (Michael W. Deem and Ramdas Pophale) SiO2 
 PCOD8186940
Probable space group: F D D 2
;
_chemical_formula_sum "Si O2"
_cell_formula_units_Z 104
_cell_length_a 30.069727
_cell_length_b 15.019890
_cell_length_c 11.673506
_cell_angle_alpha 90.000000
_cell_angle_beta 90.000000
_cell_angle_gamma 90.000000
_cell_volume 5272.268849
_symmetry_space_group_name_H-M "F D D 2"
_symmetry_group_IT_number 43
_symmetry_cell_setting 'orthorhombic'
loop_
_space_group_symop_operation_xyz
x,y,z
-x,-y,z
1/4-x,1/4+y,1/4+z
1/4+x,1/4-y,1/4+z
x,1/2+y,1/2+z
-x,1/2-y,1/2+z
1/4-x,3/4+y,3/4+z
1/4+x,3/4-y,3/4+z
1/2+x,y,1/2+z
1/2-x,-y,1/2+z
3/4-x,1/4+y,3/4+z
3/4+x,1/4-y,3/4+z
1/2+x,1/2+y,z
1/2-x,1/2-y,z
3/4-x,3/4+y,1/4+z
3/4+x,3/4-y,1/4+z
loop_
_atom_site_type_symbol
_atom_site_label
_atom_site_fract_x
_atom_site_fract_y
_atom_site_fract_z
Si Si1 0.660726 0.885597 0.237390
Si Si2 0.653341 0.762396 0.853752
Si Si3 0.236218 0.423151 0.079518
Si Si4 0.126433 0.691005 0.716162
Si Si5 0.407933 0.296805 0.673781
Si Si6 0.175549 0.009519 0.172954
Si Si7 0.500000 0.500000 0.684199
O O1 0.710652 0.902605 0.197054
O O2 0.653754 0.781853 0.210089
O O3 0.660049 0.922854 0.367075
O O4 0.621264 0.931947 0.166855
O O5 0.633198 0.762813 0.722935
O O6 0.642508 0.850170 0.928342
O O7 0.706691 0.749163 0.851990
O O8 0.276360 0.487703 0.113768
O O9 0.201296 0.475276 0.999300
O O10 0.253454 0.335493 0.015534
O O11 0.160280 0.610127 0.697115
O O12 0.103532 0.696257 0.840476
O O13 0.423690 0.286237 0.544598
#
# Coordination Sequence:
#
# PCOD8186940 Si02
#       7
#    16  16  16  16  16  16   8
#     4  10  19  36  58  90 115 146 198 244 297 339
#     4  10  20  37  60  84 118 152 192 246 291 348
#     4  10  21  33  59  85 111 147 189 251 281 347
#     4  10  21  35  60  83 113 156 190 238 295 351
#     4  10  22  39  56  85 118 157 193 236 300 348
#     4  11  22  38  58  81 119 157 193 239 292 362
#     4  10  18  36  58  88 114 144 200 240 298 342
#
# _framework density 19.725852
#
# number of rings (size 3 to 8) (size 9 to 14) (size 15 to 20)
#    0.000    1.846    0.000    6.462    2.154    0.000 
#    8.308    0.000    0.000    0.000    0.000    0.000 
#    0.000    0.000    0.000    0.000    0.000    0.000 
#
# Total GULP energy -322128.799271 kJ/mol
# GULP energy per Si atom -12389.569203 kJ/mol
# Density = 1.968096 g / cm^3
# Si number density = 19.725852 Si / 1000 Ang^3
#
#
#
# Elastic Constant Matrix: (Units=GPa)
#
#
# Indices 1 2 3 4 5 6 
#
# 1 114.5321 25.0783 42.3100 0.0000 0.0000 0.0000
# 2 25.0783 51.7062 32.2397 0.0000 0.0000 0.0000
# 3 42.3100 32.2397 113.2289 0.0000 0.0000 0.0000
# 4 0.0000 0.0000 0.0000 29.1185 0.0000 0.0000
# 5 0.0000 0.0000 0.0000 0.0000 32.5851 0.0000
# 6 0.0000 0.0000 0.0000 0.0000 0.0000 19.3162
#
#
#
# Elastic Compliance Matrix: (Units=1/GPa)
#
#
# Indices 1 2 3 4 5 6 
#
# 1 0.010556 -0.003235 -0.003024 0.000000 0.000000 0.000000
# 2 -0.003235 0.024506 -0.005769 0.000000 0.000000 0.000000
# 3 -0.003024 -0.005769 0.011604 0.000000 0.000000 0.000000
# 4 0.000000 0.000000 0.000000 0.034342 0.000000 0.000000
# 5 0.000000 0.000000 0.000000 0.000000 0.030689 0.000000
# 6 0.000000 0.000000 0.000000 0.000000 0.000000 0.051770
#
#
# Mechanical properties :
#
#
# Convention : Reuss Voigt Hill
#
# Bulk Modulus (GPa) = 44.22423 53.19144 48.70783
# Shear Modulus (GPa) = 25.63319 28.19323 26.91321
#
# Velocity S-wave (km/s) = 3.60873 3.78465 3.69773
# Velocity P-wave (km/s) = 6.31126 6.79131 6.55568
#
# Compressibility (1/GPa) = 0.02261204
#
# Stress axis : x y z
#
# Youngs Moduli (GPa) = 94.72906 40.80642 86.17692
#
# Poissons Ratio (x) = 0.13200 0.26056
# Poissons Ratio (y) = 0.30643 0.49714
# Poissons Ratio (z) = 0.28642 0.23541
#
# Static dielectric constant tensor:
#      x y z
#    x 3.537500 0.000000 0.000000 
#    y 0.000000 3.619560 0.000000 
#    z 0.000000 0.000000 3.863880 
# 
# 
# High freq. dielectric constant tensor:
#      x y z
#    x 1.762680 0.000000 0.000000 
#    y 0.000000 1.764550 0.000000 
#    z 0.000000 0.000000 1.774770 
# 
# From -- ./inp_files/6870.got.cif
#   From: 2010.06.25/outbox.cif.g09.slc.cpg/sg43_4_cif.got.tgz:6870.got - 2010.06.26 16:48:59.
