data_PCOD8186084
_publ_section_title
;
Structure prediction by ZEFSAII (Michael W. Deem and Ramdas Pophale) SiO2 
 PCOD8186084
Probable space group: F M M 2
;
_chemical_formula_sum "Si O2"
_cell_formula_units_Z 96
_cell_length_a 18.634243
_cell_length_b 8.693175
_cell_length_c 30.814304
_cell_angle_alpha 90.000000
_cell_angle_beta 90.000000
_cell_angle_gamma 90.000000
_cell_volume 4991.631766
_symmetry_space_group_name_H-M "F M M 2"
_symmetry_group_IT_number 42
_symmetry_cell_setting 'orthorhombic'
loop_
_space_group_symop_operation_xyz
x,y,z
-x,-y,z
-x,y,z
x,-y,z
x,1/2+y,1/2+z
-x,1/2-y,1/2+z
-x,1/2+y,1/2+z
x,1/2-y,1/2+z
1/2+x,y,1/2+z
1/2-x,-y,1/2+z
1/2-x,y,1/2+z
1/2+x,-y,1/2+z
1/2+x,1/2+y,z
1/2-x,1/2-y,z
1/2-x,1/2+y,z
1/2+x,1/2-y,z
loop_
_atom_site_type_symbol
_atom_site_label
_atom_site_fract_x
_atom_site_fract_y
_atom_site_fract_z
Si Si1 0.080565 0.817141 0.194160
Si Si2 0.173527 0.180462 0.865928
Si Si3 0.672571 0.317555 0.275334
Si Si4 0.917338 0.179651 0.029546
Si Si5 0.584562 0.174929 0.939946
Si Si6 0.328834 0.182348 0.612854
O O1 0.116893 0.761965 0.238830
O O2 0.126608 0.753033 0.153835
O O3 0.000000 0.749479 0.191915
O O4 0.077902 0.000000 0.192002
O O5 0.250000 0.250000 0.878924
O O6 0.144594 0.254804 0.821378
O O7 0.118281 0.215344 0.904016
O O8 0.181593 0.000000 0.859095
O O9 0.678435 0.500000 0.277508
O O10 0.750000 0.250000 0.263615
O O11 0.869359 0.237053 0.069518
O O12 0.000000 0.217037 0.040567
O O13 0.906883 0.000000 0.020330
O O14 0.890270 0.271549 0.987461
O O15 0.500000 0.192867 0.935800
O O16 0.609774 0.000000 0.932561
O O17 0.250000 0.250000 0.613790
O O18 0.323998 0.000000 0.614822
#
# Coordination Sequence:
#
# PCOD8186084 Si02
#       6
#    16  16  16  16  16  16
#     4   9  18  33  54  79 105 137 178 219 259 308
#     4  11  22  37  57  80 109 143 181 224 270 321
#     4  10  19  33  54  78 106 140 177 219 267 317
#     4   9  18  34  55  77 103 139 182 223 263 310
#     4  10  21  37  57  81 110 143 179 221 270 323
#     4  10  20  34  54  79 107 139 175 217 263 313
#
# _framework density 19.232187
#
# number of rings (size 3 to 8) (size 9 to 14) (size 15 to 20)
#    0.000    2.167    0.000    4.500    0.000    5.000 
#    0.000    4.167    0.000    5.000    0.000    0.000 
#    0.000    0.000    0.000    0.000    0.000    0.000 
#
# Total GULP energy -297665.886952 kJ/mol
# GULP energy per Si atom -12402.745290 kJ/mol
# Density = 1.918841 g / cm^3
# Si number density = 19.232187 Si / 1000 Ang^3
#
#
#
# Elastic Constant Matrix: (Units=GPa)
#
#
# Indices 1 2 3 4 5 6 
#
# 1 116.6284 29.4914 90.1589 0.0000 0.0000 0.0000
# 2 29.4914 68.0496 41.5226 0.0000 0.0000 0.0000
# 3 90.1589 41.5226 164.7600 0.0000 0.0000 0.0000
# 4 0.0000 0.0000 0.0000 23.0517 0.0000 0.0000
# 5 0.0000 0.0000 0.0000 0.0000 42.0454 0.0000
# 6 0.0000 0.0000 0.0000 0.0000 0.0000 29.4988
#
#
#
# Elastic Compliance Matrix: (Units=1/GPa)
#
#
# Indices 1 2 3 4 5 6 
#
# 1 0.015038 -0.001768 -0.007784 0.000000 0.000000 0.000000
# 2 -0.001768 0.017573 -0.003461 0.000000 0.000000 0.000000
# 3 -0.007784 -0.003461 0.011201 0.000000 0.000000 0.000000
# 4 0.000000 0.000000 0.000000 0.043381 0.000000 0.000000
# 5 0.000000 0.000000 0.000000 0.000000 0.023784 0.000000
# 6 0.000000 0.000000 0.000000 0.000000 0.000000 0.033900
#
#
# Mechanical properties :
#
#
# Convention : Reuss Voigt Hill
#
# Bulk Modulus (GPa) = 56.22095 74.64263 65.43179
# Shear Modulus (GPa) = 28.27540 31.47019 29.87280
#
# Velocity S-wave (km/s) = 3.83849 4.04955 3.94543
# Velocity P-wave (km/s) = 6.99583 7.79491 7.40615
#
# Compressibility (1/GPa) = 0.01778696
#
# Stress axis : x y z
#
# Youngs Moduli (GPa) = 66.49632 56.90411 89.27683
#
# Poissons Ratio (x) = 0.10060 0.69490
# Poissons Ratio (y) = 0.11756 0.30902
# Poissons Ratio (z) = 0.51759 0.19697
#
# Static dielectric constant tensor:
#      x y z
#    x 3.504650 0.000000 0.000000 
#    y 0.000000 3.374180 0.000000 
#    z 0.000000 0.000000 3.719650 
# 
# 
# High freq. dielectric constant tensor:
#      x y z
#    x 1.746150 0.000000 0.000000 
#    y 0.000000 1.734720 0.000000 
#    z 0.000000 0.000000 1.763960 
# 
# From -- ./inp_files/31456.got.cif
#   From: 2010.03.12/outbox.cif.g09.slc.cpg/sg42_16_cif.got.tgz:31456.got - 2010.04.14 02:04:31.
