data_PCOD8186061
_publ_section_title
;
Structure prediction by ZEFSAII (Michael W. Deem and Ramdas Pophale) SiO2 
 PCOD8186061
Probable space group: F M M 2
;
_chemical_formula_sum "Si O2"
_cell_formula_units_Z 128
_cell_length_a 14.848157
_cell_length_b 26.226302
_cell_length_c 18.081531
_cell_angle_alpha 90.000000
_cell_angle_beta 90.000000
_cell_angle_gamma 90.000000
_cell_volume 7041.169663
_symmetry_space_group_name_H-M "F M M 2"
_symmetry_group_IT_number 42
_symmetry_cell_setting 'orthorhombic'
loop_
_space_group_symop_operation_xyz
x,y,z
-x,-y,z
-x,y,z
x,-y,z
x,1/2+y,1/2+z
-x,1/2-y,1/2+z
-x,1/2+y,1/2+z
x,1/2-y,1/2+z
1/2+x,y,1/2+z
1/2-x,-y,1/2+z
1/2-x,y,1/2+z
1/2+x,-y,1/2+z
1/2+x,1/2+y,z
1/2-x,1/2-y,z
1/2-x,1/2+y,z
1/2+x,1/2-y,z
loop_
_atom_site_type_symbol
_atom_site_label
_atom_site_fract_x
_atom_site_fract_y
_atom_site_fract_z
Si Si1 0.101614 0.217407 0.767970
Si Si2 0.104474 0.058721 0.026095
Si Si3 0.722209 0.859559 0.607526
Si Si4 0.103863 0.825912 0.339864
Si Si5 0.821732 0.792721 0.491955
Si Si6 0.098928 0.765420 0.119535
Si Si7 0.271359 0.628144 0.769564
Si Si8 0.899618 0.439806 0.358085
O O1 0.121365 0.271813 0.802835
O O2 0.117634 0.221644 0.679947
O O3 0.172102 0.176810 0.799266
O O4 0.000000 0.199418 0.786472
O O5 0.162639 0.093362 0.080457
O O6 0.000000 0.065146 0.046962
O O7 0.134403 0.000000 0.036246
O O8 0.120976 0.077409 0.942133
O O9 0.783576 0.839363 0.540739
O O10 0.664398 0.811842 0.634821
O O11 0.775372 0.878047 0.680699
O O12 0.127343 0.820339 0.425801
O O13 0.169292 0.867316 0.300752
O O14 0.000000 0.843812 0.330687
O O15 0.750000 0.750000 0.464757
O O16 0.892515 0.760350 0.539834
O O17 0.000000 0.788482 0.128984
O O18 0.321745 0.579681 0.803817
O O19 0.898288 0.500000 0.354058
O O20 0.000000 0.420272 0.335055
#
# Coordination Sequence:
#
# PCOD8186061 Si02
#       8
#    16  16  16  16  16  16  16  16
#     4  10  20  34  52  77 108 148 185 221 269 316
#     4   9  19  37  58  78 103 134 175 229 280 324
#     4  11  21  31  53  81 108 143 178 219 272 323
#     4  11  23  35  51  76 111 152 189 226 266 316
#     4  10  20  34  50  75 103 144 189 229 270 312
#     4  10  19  33  50  72 109 147 183 220 264 318
#     4  12  21  34  57  82 112 142 182 223 273 331
#     4   9  20  40  63  85 107 134 175 232 289 331
#
# _framework density 18.178798
#
# number of rings (size 3 to 8) (size 9 to 14) (size 15 to 20)
#    0.000    1.750    2.500    3.750    0.000    2.000 
#    0.000    2.500    0.000    0.375    0.000    0.000 
#    0.000    0.000    0.000    0.000    0.000    0.000 
#
# Total GULP energy -396741.871511 kJ/mol
# GULP energy per Si atom -12398.183485 kJ/mol
# Density = 1.813742 g / cm^3
# Si number density = 18.178798 Si / 1000 Ang^3
#
#
#
# Elastic Constant Matrix: (Units=GPa)
#
#
# Indices 1 2 3 4 5 6 
#
# 1 91.3789 27.1552 34.4336 0.0000 0.0000 0.0000
# 2 27.1552 45.1244 22.3559 0.0000 0.0000 0.0000
# 3 34.4336 22.3559 82.1921 0.0000 0.0000 0.0000
# 4 0.0000 0.0000 0.0000 20.4499 0.0000 0.0000
# 5 0.0000 0.0000 0.0000 0.0000 27.0911 0.0000
# 6 0.0000 0.0000 0.0000 0.0000 0.0000 27.5470
#
#
#
# Elastic Compliance Matrix: (Units=1/GPa)
#
#
# Indices 1 2 3 4 5 6 
#
# 1 0.014525 -0.006618 -0.004285 0.000000 0.000000 0.000000
# 2 -0.006618 0.028628 -0.005014 0.000000 0.000000 0.000000
# 3 -0.004285 -0.005014 0.015326 0.000000 0.000000 0.000000
# 4 0.000000 0.000000 0.000000 0.048900 0.000000 0.000000
# 5 0.000000 0.000000 0.000000 0.000000 0.036913 0.000000
# 6 0.000000 0.000000 0.000000 0.000000 0.000000 0.036302
#
#
# Mechanical properties :
#
#
# Convention : Reuss Voigt Hill
#
# Bulk Modulus (GPa) = 37.53179 42.95385 40.24282
# Shear Modulus (GPa) = 22.59301 24.00098 23.29700
#
# Velocity S-wave (km/s) = 3.52919 3.63750 3.58375
# Velocity P-wave (km/s) = 6.10718 6.42820 6.26974
#
# Compressibility (1/GPa) = 0.02664408
#
# Stress axis : x y z
#
# Youngs Moduli (GPa) = 68.84789 34.93125 65.25047
#
# Poissons Ratio (x) = 0.23117 0.27960
# Poissons Ratio (y) = 0.45563 0.32717
# Poissons Ratio (z) = 0.29501 0.17515
#
# Static dielectric constant tensor:
#      x y z
#    x 3.466460 0.000000 0.000000 
#    y 0.000000 3.056540 0.000000 
#    z 0.000000 0.000000 3.481870 
# 
# 
# High freq. dielectric constant tensor:
#      x y z
#    x 1.707780 0.000000 0.000000 
#    y 0.000000 1.673660 0.000000 
#    z 0.000000 0.000000 1.711360 
# 
# From -- ./inp_files/21228.got.cif
#   From: 2010.03.12/outbox.cif.g09.slc.cpg/sg42_11_cif.got.tgz:21228.got - 2010.04.14 02:04:31.
