data_PCOD8186918
_publ_section_title
;
Structure prediction by ZEFSAII (Michael W. Deem and Ramdas Pophale) SiO2 
 PCOD8186918
Probable space group: F D D 2
;
_chemical_formula_sum "Si O2"
_cell_formula_units_Z 120
_cell_length_a 23.676971
_cell_length_b 8.093426
_cell_length_c 33.888582
_cell_angle_alpha 90.000000
_cell_angle_beta 90.000000
_cell_angle_gamma 90.000000
_cell_volume 6493.994844
_symmetry_space_group_name_H-M "F D D 2"
_symmetry_group_IT_number 43
_symmetry_cell_setting 'orthorhombic'
loop_
_space_group_symop_operation_xyz
x,y,z
-x,-y,z
1/4-x,1/4+y,1/4+z
1/4+x,1/4-y,1/4+z
x,1/2+y,1/2+z
-x,1/2-y,1/2+z
1/4-x,3/4+y,3/4+z
1/4+x,3/4-y,3/4+z
1/2+x,y,1/2+z
1/2-x,-y,1/2+z
3/4-x,1/4+y,3/4+z
3/4+x,1/4-y,3/4+z
1/2+x,1/2+y,z
1/2-x,1/2-y,z
3/4-x,3/4+y,1/4+z
3/4+x,3/4-y,1/4+z
loop_
_atom_site_type_symbol
_atom_site_label
_atom_site_fract_x
_atom_site_fract_y
_atom_site_fract_z
Si Si1 0.690954 0.972595 0.921700
Si Si2 0.724610 0.927287 0.483196
Si Si3 0.500000 0.000000 0.108147
Si Si4 0.919648 0.644463 0.892905
Si Si5 0.550905 0.387718 0.805432
Si Si6 0.107676 0.333301 0.094173
Si Si7 0.790893 0.539505 0.637285
Si Si8 0.151099 0.332594 0.413909
O O1 0.725450 0.961470 0.962973
O O2 0.686022 0.163383 0.908510
O O3 0.723732 0.889151 0.886033
O O4 0.629165 0.883647 0.926199
O O5 0.750000 0.750000 0.494244
O O6 0.672356 0.921747 0.453062
O O7 0.695661 0.998078 0.522286
O O8 0.450959 0.079397 0.080432
O O9 0.899378 0.775003 0.860438
O O10 0.934192 0.466950 0.873422
O O11 0.980237 0.706501 0.909804
O O12 0.500000 0.500000 0.790908
O O13 0.609955 0.490436 0.808492
O O14 0.535241 0.315987 0.847855
O O15 0.088889 0.202213 0.127155
O O16 0.834183 0.454337 0.667814
#
# Coordination Sequence:
#
# PCOD8186918 Si02
#       8
#    16  16   8  16  16  16  16  16
#     4   9  18  32  50  82 108 139 181 230 283 322
#     4  10  21  34  51  77 117 147 183 231 297 347
#     4  10  18  30  56  76 112 136 190 234 274 322
#     4   9  17  30  54  78 109 137 182 228 276 327
#     4  11  22  32  50  79 117 143 182 229 291 345
#     4  10  19  32  51  82 108 140 187 232 276 331
#     4   9  18  33  52  77 111 142 183 228 278 331
#     4   9  18  33  51  76 112 141 182 232 276 329
#
# _framework density 18.478608999999999
#
# number of rings (size 3 to 8) (size 9 to 14) (size 15 to 20)
#    0.000    2.400    2.667    0.000    2.800    0.000 
#    0.000    0.000    0.000    0.000    0.000   48.533 
#    0.000    0.000    0.000    0.000    0.000    0.000 
#
# Total GULP energy -371658.896566 kJ/mol
# GULP energy per Si atom -12388.629886 kJ/mol
# Density = 1.843655 g / cm^3
# Si number density = 18.478609 Si / 1000 Ang^3
#
#
#
# Elastic Constant Matrix: (Units=GPa)
#
#
# Indices 1 2 3 4 5 6 
#
# 1 159.2416 47.9589 52.0463 -0.0008 0.0003 0.0000
# 2 47.9589 65.6680 27.5839 -0.0009 0.0004 0.0033
# 3 52.0463 27.5839 67.7533 0.0003 -0.0002 0.0004
# 4 -0.0008 -0.0009 0.0003 20.3214 -0.0002 0.0007
# 5 0.0003 0.0004 -0.0002 -0.0002 19.8739 -0.0003
# 6 0.0000 0.0033 0.0004 0.0007 -0.0003 32.2425
#
#
#
# Elastic Compliance Matrix: (Units=1/GPa)
#
#
# Indices 1 2 3 4 5 6 
#
# 1 0.009425 -0.004635 -0.005353 0.000000 0.000000 0.000001
# 2 -0.004635 0.020649 -0.004846 0.000001 0.000000 -0.000002
# 3 -0.005353 -0.004846 0.020845 -0.000001 0.000000 0.000000
# 4 0.000000 0.000001 -0.000001 0.049209 0.000001 -0.000001
# 5 0.000000 0.000000 0.000000 0.000001 0.050317 0.000000
# 6 0.000001 -0.000002 0.000000 -0.000001 0.000000 0.031015
#
#
# Mechanical properties :
#
#
# Convention : Reuss Voigt Hill
#
# Bulk Modulus (GPa) = 47.05883 60.87123 53.96503
# Shear Modulus (GPa) = 22.91348 25.49248 24.20298
#
# Velocity S-wave (km/s) = 3.52518 3.71828 3.62302
# Velocity P-wave (km/s) = 6.48777 7.17267 6.83880
#
# Compressibility (1/GPa) = 0.02125000
#
# Stress axis : x y z
#
# Youngs Moduli (GPa) = 106.09717 48.42920 47.97384
#
# Poissons Ratio (x) = 0.22446 0.25682
# Poissons Ratio (y) = 0.49175 0.23249
# Poissons Ratio (z) = 0.56797 0.23470
#
# Static dielectric constant tensor:
#      x y z
#    x 3.898250 0.000000 0.000000 
#    y 0.000000 3.737940 0.000000 
#    z 0.000000 0.000000 2.829170 
# 
# 
# High freq. dielectric constant tensor:
#      x y z
#    x 1.736330 0.000000 0.000000 
#    y 0.000000 1.739620 0.000000 
#    z 0.000000 0.000000 1.646090 
# 
# From -- ./inp_files/29988.got.cif
#   From: 2010.06.25/outbox.cif.g09.slc.cpg/sg43_15_cif.got.tgz:29988.got - 2010.06.26 16:48:59.
