data_PCOD8186363
_publ_section_title
;
Structure prediction by ZEFSAII (Michael W. Deem and Ramdas Pophale) SiO2 
 PCOD8186363
Probable space group: F M M 2
;
_chemical_formula_sum "Si O2"
_cell_formula_units_Z 96
_cell_length_a 21.944888
_cell_length_b 13.960973
_cell_length_c 18.127133
_cell_angle_alpha 90.000000
_cell_angle_beta 90.000000
_cell_angle_gamma 90.000000
_cell_volume 5553.645789
_symmetry_space_group_name_H-M "F M M 2"
_symmetry_group_IT_number 42
_symmetry_cell_setting 'orthorhombic'
loop_
_space_group_symop_operation_xyz
x,y,z
-x,-y,z
-x,y,z
x,-y,z
x,1/2+y,1/2+z
-x,1/2-y,1/2+z
-x,1/2+y,1/2+z
x,1/2-y,1/2+z
1/2+x,y,1/2+z
1/2-x,-y,1/2+z
1/2-x,y,1/2+z
1/2+x,-y,1/2+z
1/2+x,1/2+y,z
1/2-x,1/2-y,z
1/2-x,1/2+y,z
1/2+x,1/2-y,z
loop_
_atom_site_type_symbol
_atom_site_label
_atom_site_fract_x
_atom_site_fract_y
_atom_site_fract_z
Si Si1 0.714733 0.393456 0.940900
Si Si2 0.642437 0.395835 0.230136
Si Si3 0.070539 0.888301 0.374425
Si Si4 0.270774 0.143750 0.281349
Si Si5 0.180167 0.277505 0.143730
Si Si6 0.160469 0.199499 0.483704
O O1 0.704132 0.500000 0.975285
O O2 0.698717 0.401331 0.853721
O O3 0.785134 0.363072 0.949454
O O4 0.672162 0.314264 0.979267
O O5 0.618636 0.500000 0.201675
O O6 0.600683 0.358209 0.297073
O O7 0.711163 0.414220 0.258020
O O8 0.641265 0.317155 0.165241
O O9 0.099287 0.827115 0.440886
O O10 0.000000 0.861607 0.370676
O O11 0.081486 0.000000 0.390414
O O12 0.250000 0.250000 0.302973
O O13 0.319112 0.148324 0.213032
O O14 0.250000 0.250000 0.125322
O O15 0.151643 0.324938 0.070633
#
# Coordination Sequence:
#
# PCOD8186363 Si02
#       6
#    16  16  16  16  16  16
#     4  11  19  29  50  74 101 136 168 203 252 307
#     4   9  16  28  47  70  95 125 168 211 242 287
#     4  10  20  35  57  78  96 131 179 220 256 292
#     4   9  15  28  45  67  99 133 161 196 244 297
#     4   9  18  30  45  70 105 137 156 194 256 315
#     4  11  19  34  47  74 111 134 164 208 257 306
#
# _framework density 17.285943
#
# number of rings (size 3 to 8) (size 9 to 14) (size 15 to 20)
#    0.000    2.500    5.000    2.000    0.000    0.667 
#    0.000    3.333    0.000    0.500    0.000    0.000 
#    0.000    0.000    0.000    0.000    0.000    0.000 
#
# Total GULP energy -297428.587183 kJ/mol
# GULP energy per Si atom -12392.857799 kJ/mol
# Density = 1.724660 g / cm^3
# Si number density = 17.285943 Si / 1000 Ang^3
#
#
#
# Elastic Constant Matrix: (Units=GPa)
#
#
# Indices 1 2 3 4 5 6 
#
# 1 63.4911 29.1875 37.3147 0.0000 0.0000 0.0000
# 2 29.1875 88.6448 28.9530 0.0000 0.0000 0.0000
# 3 37.3147 28.9530 117.9729 0.0000 0.0000 0.0000
# 4 0.0000 0.0000 0.0000 10.1933 0.0000 0.0000
# 5 0.0000 0.0000 0.0000 0.0000 12.4331 0.0000
# 6 0.0000 0.0000 0.0000 0.0000 0.0000 15.5413
#
#
#
# Elastic Compliance Matrix: (Units=1/GPa)
#
#
# Indices 1 2 3 4 5 6 
#
# 1 0.021382 -0.005252 -0.005474 0.000000 0.000000 0.000000
# 2 -0.005252 0.013554 -0.001665 0.000000 0.000000 0.000000
# 3 -0.005474 -0.001665 0.010617 0.000000 0.000000 0.000000
# 4 0.000000 0.000000 0.000000 0.098104 0.000000 0.000000
# 5 0.000000 0.000000 0.000000 0.000000 0.080430 0.000000
# 6 0.000000 0.000000 0.000000 0.000000 0.000000 0.064345
#
#
# Mechanical properties :
#
#
# Convention : Reuss Voigt Hill
#
# Bulk Modulus (GPa) = 48.14716 51.22437 49.68576
# Shear Modulus (GPa) = 15.61825 19.27711 17.44768
#
# Velocity S-wave (km/s) = 3.00913 3.34307 3.18048
# Velocity P-wave (km/s) = 6.32352 6.67827 6.50332
#
# Compressibility (1/GPa) = 0.02076966
#
# Stress axis : x y z
#
# Youngs Moduli (GPa) = 46.76827 73.77740 94.19183
#
# Poissons Ratio (x) = 0.38751 0.51561
# Poissons Ratio (y) = 0.24565 0.15685
# Poissons Ratio (z) = 0.25601 0.12285
#
# Static dielectric constant tensor:
#      x y z
#    x 2.784500 0.000000 0.000000 
#    y 0.000000 3.232860 0.000000 
#    z 0.000000 0.000000 3.347520 
# 
# 
# High freq. dielectric constant tensor:
#      x y z
#    x 1.601820 0.000000 0.000000 
#    y 0.000000 1.663910 0.000000 
#    z 0.000000 0.000000 1.673100 
# 
# From -- ./inp_files/25366.got.cif
#   From: 2010.03.12/outbox.cif.g09.slc.cpg/sg42_13_cif.got.tgz:25366.got - 2010.04.14 02:04:31.
