data_PCOD8186292
_publ_section_title
;
Structure prediction by ZEFSAII (Michael W. Deem and Ramdas Pophale) SiO2 
 PCOD8186292
Probable space group: F M M 2
;
_chemical_formula_sum "Si O2"
_cell_formula_units_Z 112
_cell_length_a 31.927971
_cell_length_b 13.655972
_cell_length_c 13.311909
_cell_angle_alpha 90.000000
_cell_angle_beta 90.000000
_cell_angle_gamma 90.000000
_cell_volume 5804.091870
_symmetry_space_group_name_H-M "F M M 2"
_symmetry_group_IT_number 42
_symmetry_cell_setting 'orthorhombic'
loop_
_space_group_symop_operation_xyz
x,y,z
-x,-y,z
-x,y,z
x,-y,z
x,1/2+y,1/2+z
-x,1/2-y,1/2+z
-x,1/2+y,1/2+z
x,1/2-y,1/2+z
1/2+x,y,1/2+z
1/2-x,-y,1/2+z
1/2-x,y,1/2+z
1/2+x,-y,1/2+z
1/2+x,1/2+y,z
1/2-x,1/2-y,z
1/2-x,1/2+y,z
1/2+x,1/2-y,z
loop_
_atom_site_type_symbol
_atom_site_label
_atom_site_fract_x
_atom_site_fract_y
_atom_site_fract_z
Si Si1 0.951433 0.283039 0.183000
Si Si2 0.451501 0.612840 0.478617
Si Si3 0.237083 0.612683 0.778118
Si Si4 0.691100 0.718124 0.870686
Si Si5 0.691849 0.611758 0.073976
Si Si6 0.404120 0.388213 0.085809
Si Si7 0.406150 0.213736 0.379204
O O1 0.931016 0.177725 0.160612
O O2 0.931570 0.327373 0.284135
O O3 0.000000 0.265109 0.200597
O O4 0.942618 0.359851 0.094318
O O5 0.500000 0.633492 0.452171
O O6 0.439628 0.500000 0.461837
O O7 0.422183 0.677407 0.406811
O O8 0.231581 0.500000 0.805610
O O9 0.285272 0.647026 0.790944
O O10 0.208281 0.671941 0.856956
O O11 0.223361 0.635289 0.664327
O O12 0.642195 0.716208 0.848324
O O13 0.702187 0.684187 0.983115
O O14 0.696977 0.500000 0.036130
O O15 0.644510 0.628903 0.111785
O O16 0.417621 0.500000 0.102832
O O17 0.413927 0.360270 0.970608
#
# Coordination Sequence:
#
# PCOD8186292 Si02
#       7
#    16  16  16  16  16  16  16
#     4  10  20  34  53  79 110 141 178 226 272 316
#     4   9  19  36  55  77 109 146 181 219 265 318
#     4  10  21  36  55  78 105 141 181 220 269 327
#     4  10  21  35  56  82 110 140 179 227 272 316
#     4   9  18  36  58  79 110 148 182 222 271 319
#     4   9  19  35  55  79 109 147 186 222 264 318
#     4  10  20  35  56  81 109 142 181 224 269 318
#
# _framework density 19.296731000000001
#
# number of rings (size 3 to 8) (size 9 to 14) (size 15 to 20)
#    0.000    2.429    0.000    1.714    0.000    5.429 
#    0.000    0.000    0.000    4.286    0.000    0.000 
#    0.000    0.000    0.000    0.000    0.000    0.000 
#
# Total GULP energy -347248.325655 kJ/mol
# GULP energy per Si atom -12401.725916 kJ/mol
# Density = 1.925281 g / cm^3
# Si number density = 19.296731 Si / 1000 Ang^3
#
#
#
# Elastic Constant Matrix: (Units=GPa)
#
#
# Indices 1 2 3 4 5 6 
#
# 1 106.0009 32.4189 56.7365 0.0000 0.0000 0.0000
# 2 32.4189 90.8284 23.6494 0.0000 0.0000 0.0000
# 3 56.7365 23.6494 84.1982 0.0000 0.0000 0.0000
# 4 0.0000 0.0000 0.0000 25.1933 0.0000 0.0000
# 5 0.0000 0.0000 0.0000 0.0000 37.4278 0.0000
# 6 0.0000 0.0000 0.0000 0.0000 0.0000 28.2297
#
#
#
# Elastic Compliance Matrix: (Units=1/GPa)
#
#
# Indices 1 2 3 4 5 6 
#
# 1 0.015494 -0.003034 -0.009588 0.000000 0.000000 0.000000
# 2 -0.003034 0.012472 -0.001459 0.000000 0.000000 0.000000
# 3 -0.009588 -0.001459 0.018748 0.000000 0.000000 0.000000
# 4 0.000000 0.000000 0.000000 0.039693 0.000000 0.000000
# 5 0.000000 0.000000 0.000000 0.000000 0.026718 0.000000
# 6 0.000000 0.000000 0.000000 0.000000 0.000000 0.035424
#
#
# Mechanical properties :
#
#
# Convention : Reuss Voigt Hill
#
# Bulk Modulus (GPa) = 53.90293 56.29302 55.09797
# Shear Modulus (GPa) = 27.33816 29.38502 28.36159
#
# Velocity S-wave (km/s) = 3.76802 3.90654 3.83791
# Velocity P-wave (km/s) = 6.85018 7.04157 6.94654
#
# Compressibility (1/GPa) = 0.01855187
#
# Stress axis : x y z
#
# Youngs Moduli (GPa) = 64.54212 80.17688 53.34015
#
# Poissons Ratio (x) = 0.24322 0.51144
# Poissons Ratio (y) = 0.19579 0.07783
# Poissons Ratio (z) = 0.61885 0.11698
#
# Static dielectric constant tensor:
#      x y z
#    x 3.588670 0.000000 0.000000 
#    y 0.000000 3.495660 0.000000 
#    z 0.000000 0.000000 3.480480 
# 
# 
# High freq. dielectric constant tensor:
#      x y z
#    x 1.753330 0.000000 0.000000 
#    y 0.000000 1.746980 0.000000 
#    z 0.000000 0.000000 1.750560 
# 
# From -- ./inp_files/8118.got.cif
#   From: 2010.03.12/outbox.cif.g09.slc.cpg/sg42_5_cif.got.tgz:8118.got - 2010.04.14 02:04:31.
