data_PCOD8186944
_publ_section_title
;
Structure prediction by ZEFSAII (Michael W. Deem and Ramdas Pophale) SiO2 
 PCOD8186944
Probable space group: F D D 2
;
_chemical_formula_sum "Si O2"
_cell_formula_units_Z 88
_cell_length_a 16.815916
_cell_length_b 9.732830
_cell_length_c 24.037021
_cell_angle_alpha 90.000000
_cell_angle_beta 90.000000
_cell_angle_gamma 90.000000
_cell_volume 3934.053937
_symmetry_space_group_name_H-M "F D D 2"
_symmetry_group_IT_number 43
_symmetry_cell_setting 'orthorhombic'
loop_
_space_group_symop_operation_xyz
x,y,z
-x,-y,z
1/4-x,1/4+y,1/4+z
1/4+x,1/4-y,1/4+z
x,1/2+y,1/2+z
-x,1/2-y,1/2+z
1/4-x,3/4+y,3/4+z
1/4+x,3/4-y,3/4+z
1/2+x,y,1/2+z
1/2-x,-y,1/2+z
3/4-x,1/4+y,3/4+z
3/4+x,1/4-y,3/4+z
1/2+x,1/2+y,z
1/2-x,1/2-y,z
3/4-x,3/4+y,1/4+z
3/4+x,3/4-y,1/4+z
loop_
_atom_site_type_symbol
_atom_site_label
_atom_site_fract_x
_atom_site_fract_y
_atom_site_fract_z
Si Si1 0.250000 0.750000 0.680761
Si Si2 0.370379 0.066802 0.861855
Si Si3 0.250000 0.750000 0.425131
Si Si4 0.459918 0.825765 0.332894
Si Si5 0.148061 0.678385 0.523003
Si Si6 0.721539 0.035723 0.760987
Si Si7 0.250000 0.250000 0.698499
O O1 0.303033 0.646810 0.643196
O O2 0.190353 0.648108 0.715982
O O3 0.293039 0.141039 0.885595
O O4 0.431520 0.170688 0.832433
O O5 0.338680 0.966179 0.813061
O O6 0.420289 0.993737 0.910590
O O7 0.185087 0.665660 0.461197
O O8 0.553342 0.832438 0.316239
O O9 0.408976 0.910307 0.288128
O O10 0.055819 0.641700 0.526622
O O11 0.741599 0.885146 0.736448
#
# Coordination Sequence:
#
# PCOD8186944 Si02
#       7
#     8  16   8  16  16  16   8
#     4  10  21  42  62  90 132 184 219 276 344 408
#     4  12  24  39  72 106 141 183 232 291 354 413
#     4  10  18  36  62 104 132 178 226 278 338 420
#     4   9  19  39  65  97 132 183 227 277 343 424
#     4   9  19  35  66  98 129 175 239 280 328 416
#     4  12  24  42  69  97 137 184 236 287 350 418
#     4  12  25  44  68 104 144 178 231 304 346 412
#
# _framework density 22.368783000000001
#
# number of rings (size 3 to 8) (size 9 to 14) (size 15 to 20)
#    0.000    1.818    3.636    2.727    2.545    2.909 
#    0.000    0.000    8.000    0.000    0.000    0.000 
#    0.000    0.000    0.000    0.000    0.000    0.000 
#
# Total GULP energy -272626.221546 kJ/mol
# GULP energy per Si atom -12392.100979 kJ/mol
# Density = 2.231787 g / cm^3
# Si number density = 22.368783 Si / 1000 Ang^3
#
#
#
# Elastic Constant Matrix: (Units=GPa)
#
#
# Indices 1 2 3 4 5 6 
#
# 1 105.4264 11.8900 33.7187 0.0000 0.0000 0.0000
# 2 11.8900 59.1420 22.8255 0.0000 0.0000 0.0000
# 3 33.7187 22.8255 105.3480 0.0000 0.0000 0.0000
# 4 0.0000 0.0000 0.0000 9.2194 0.0000 0.0000
# 5 0.0000 0.0000 0.0000 0.0000 35.8607 0.0000
# 6 0.0000 0.0000 0.0000 0.0000 0.0000 28.5365
#
#
#
# Elastic Compliance Matrix: (Units=1/GPa)
#
#
# Indices 1 2 3 4 5 6 
#
# 1 0.010611 -0.000897 -0.003202 0.000000 0.000000 0.000000
# 2 -0.000897 0.018527 -0.003727 0.000000 0.000000 0.000000
# 3 -0.003202 -0.003727 0.011325 0.000000 0.000000 0.000000
# 4 0.000000 0.000000 0.000000 0.108467 0.000000 0.000000
# 5 0.000000 0.000000 0.000000 0.000000 0.027886 0.000000
# 6 0.000000 0.000000 0.000000 0.000000 0.000000 0.035043
#
#
# Mechanical properties :
#
#
# Convention : Reuss Voigt Hill
#
# Bulk Modulus (GPa) = 40.30608 45.19830 42.75219
# Shear Modulus (GPa) = 21.20618 28.15544 24.68081
#
# Velocity S-wave (km/s) = 3.08234 3.55166 3.32529
# Velocity P-wave (km/s) = 5.54309 6.08842 5.82214
#
# Compressibility (1/GPa) = 0.02481015
#
# Stress axis : x y z
#
# Youngs Moduli (GPa) = 94.24625 53.97434 88.30312
#
# Poissons Ratio (x) = 0.04844 0.28272
# Poissons Ratio (y) = 0.08458 0.32911
# Poissons Ratio (z) = 0.30174 0.20116
#
# Static dielectric constant tensor:
#      x y z
#    x 3.943960 0.000000 0.000000 
#    y 0.000000 3.828330 0.000000 
#    z 0.000000 0.000000 4.281940 
# 
# 
# High freq. dielectric constant tensor:
#      x y z
#    x 1.866120 0.000000 0.000000 
#    y 0.000000 1.863860 0.000000 
#    z 0.000000 0.000000 1.893020 
# 
# From -- ./inp_files/17974.got.cif
#   From: 2010.06.25/outbox.cif.g09.slc.cpg/sg43_9_cif.got.tgz:17974.got - 2010.06.26 16:48:59.
