data_PCOD8186015
_publ_section_title
;
Structure prediction by ZEFSAII (Michael W. Deem and Ramdas Pophale) SiO2 
 PCOD8186015
Probable space group: F M M 2
;
_chemical_formula_sum "Si O2"
_cell_formula_units_Z 80
_cell_length_a 19.190357
_cell_length_b 8.907691
_cell_length_c 25.866767
_cell_angle_alpha 90.000000
_cell_angle_beta 90.000000
_cell_angle_gamma 90.000000
_cell_volume 4421.710944
_symmetry_space_group_name_H-M "F M M 2"
_symmetry_group_IT_number 42
_symmetry_cell_setting 'orthorhombic'
loop_
_space_group_symop_operation_xyz
x,y,z
-x,-y,z
-x,y,z
x,-y,z
x,1/2+y,1/2+z
-x,1/2-y,1/2+z
-x,1/2+y,1/2+z
x,1/2-y,1/2+z
1/2+x,y,1/2+z
1/2-x,-y,1/2+z
1/2-x,y,1/2+z
1/2+x,-y,1/2+z
1/2+x,1/2+y,z
1/2-x,1/2-y,z
1/2-x,1/2+y,z
1/2+x,1/2-y,z
loop_
_atom_site_type_symbol
_atom_site_label
_atom_site_fract_x
_atom_site_fract_y
_atom_site_fract_z
Si Si1 0.081304 0.174089 0.656660
Si Si2 0.824865 0.325460 0.571958
Si Si3 0.174160 0.677809 0.857607
Si Si4 0.420051 0.674876 0.261839
Si Si5 0.324516 0.325294 0.957725
O O1 0.120491 0.258801 0.611430
O O2 0.106750 0.234857 0.711990
O O3 0.000000 0.207192 0.649403
O O4 0.099438 0.000000 0.653422
O O5 0.814180 0.500000 0.583224
O O6 0.750000 0.250000 0.578635
O O7 0.858068 0.300372 0.514431
O O8 0.180927 0.500000 0.861860
O O9 0.250000 0.750000 0.849709
O O10 0.126060 0.727105 0.810059
O O11 0.136734 0.742218 0.909955
O O12 0.500000 0.714276 0.274679
O O13 0.410557 0.500000 0.249900
O O14 0.317704 0.500000 0.944337
O O15 0.250000 0.250000 0.960590
#
# Coordination Sequence:
#
# PCOD8186015 Si02
#       5
#    16  16  16  16  16
#     4  10  21  36  54  76 102 134 171 211 256 304
#     4  10  20  34  54  78 104 135 170 210 254 301
#     4  10  19  31  51  76 101 130 164 204 248 295
#     4   9  19  36  54  71  96 133 172 207 249 300
#     4   9  17  30  49  73 101 132 164 200 246 296
#
# _framework density 18.092542999999999
#
# number of rings (size 3 to 8) (size 9 to 14) (size 15 to 20)
#    0.000    2.400    0.000    3.600    0.000    6.000 
#    0.000    3.000    0.000    3.600    0.000    0.000 
#    0.000    0.000    0.000    0.000    0.000    0.000 
#
# Total GULP energy -247916.800656 kJ/mol
# GULP energy per Si atom -12395.840033 kJ/mol
# Density = 1.805136 g / cm^3
# Si number density = 18.092543 Si / 1000 Ang^3
#
#
#
# Elastic Constant Matrix: (Units=GPa)
#
#
# Indices 1 2 3 4 5 6 
#
# 1 52.3732 42.7385 67.7586 0.0000 0.0000 -0.0001
# 2 42.7385 115.0311 88.9414 0.0000 0.0000 -0.0001
# 3 67.7586 88.9414 191.0056 0.0000 0.0000 0.0000
# 4 0.0000 0.0000 0.0000 34.8554 0.0000 0.0000
# 5 0.0000 0.0000 0.0000 0.0000 -14.4965 0.0000
# 6 -0.0001 -0.0001 0.0000 0.0000 0.0000 25.6594
#
#
#
# Elastic Compliance Matrix: (Units=1/GPa)
#
#
# Indices 1 2 3 4 5 6 
#
# 1 0.037543 -0.005705 -0.010662 0.000000 0.000000 0.000000
# 2 -0.005705 0.014451 -0.004705 0.000000 0.000000 0.000000
# 3 -0.010662 -0.004705 0.011209 0.000000 0.000000 0.000000
# 4 0.000000 0.000000 0.000000 0.028690 0.000000 0.000000
# 5 0.000000 0.000000 0.000000 0.000000 -0.068982 0.000000
# 6 0.000000 0.000000 0.000000 0.000000 0.000000 0.038972
#
#
# Mechanical properties :
#
#
# Convention : Reuss Voigt Hill
#
# Bulk Modulus (GPa) = 47.48644 84.14300 65.81472
# Shear Modulus (GPa) = 45.02624 19.80174 32.41399
#
# Velocity S-wave (km/s) = 4.99406 3.31187 4.23728
# Velocity P-wave (km/s) = 7.71736 7.82512 7.77143
#
# Compressibility (1/GPa) = 0.02105864
#
# Stress axis : x y z
#
# Youngs Moduli (GPa) = 26.63602 69.19919 89.21699
#
# Poissons Ratio (x) = 0.39479 0.95121
# Poissons Ratio (y) = 0.15196 0.41978
# Poissons Ratio (z) = 0.28399 0.32560
#
# Static dielectric constant tensor:
#      x y z
#    x 3.074560 0.000000 0.000000 
#    y 0.000000 3.472940 0.000000 
#    z 0.000000 0.000000 4.028800 
# 
# 
# High freq. dielectric constant tensor:
#      x y z
#    x 1.664900 0.000000 0.000000 
#    y 0.000000 1.716270 0.000000 
#    z 0.000000 0.000000 1.722680 
# 
# From -- ./inp_files/31258.got.cif
#   From: 2010.03.12/outbox.cif.g09.slc.cpg/sg42_16_cif.got.tgz:31258.got - 2010.04.14 02:04:31.
