data_PCOD8186116
_publ_section_title
;
Structure prediction by ZEFSAII (Michael W. Deem and Ramdas Pophale) SiO2 
 PCOD8186116
Probable space group: F M M 2
;
_chemical_formula_sum "Si O2"
_cell_formula_units_Z 112
_cell_length_a 14.004910
_cell_length_b 15.204329
_cell_length_c 22.948290
_cell_angle_alpha 90.000000
_cell_angle_beta 90.000000
_cell_angle_gamma 90.000000
_cell_volume 4886.500081
_symmetry_space_group_name_H-M "F M M 2"
_symmetry_group_IT_number 42
_symmetry_cell_setting 'orthorhombic'
loop_
_space_group_symop_operation_xyz
x,y,z
-x,-y,z
-x,y,z
x,-y,z
x,1/2+y,1/2+z
-x,1/2-y,1/2+z
-x,1/2+y,1/2+z
x,1/2-y,1/2+z
1/2+x,y,1/2+z
1/2-x,-y,1/2+z
1/2-x,y,1/2+z
1/2+x,-y,1/2+z
1/2+x,1/2+y,z
1/2-x,1/2-y,z
1/2-x,1/2+y,z
1/2+x,1/2-y,z
loop_
_atom_site_type_symbol
_atom_site_label
_atom_site_fract_x
_atom_site_fract_y
_atom_site_fract_z
Si Si1 0.886518 0.402454 0.156640
Si Si2 0.107058 0.826108 0.328010
Si Si3 0.613329 0.403809 0.210508
Si Si4 0.386418 0.219749 0.610855
Si Si5 0.608256 0.370534 0.786523
Si Si6 0.767649 0.404066 0.393063
Si Si7 0.888533 0.602341 0.503408
O O1 0.856422 0.500000 0.132864
O O2 0.849567 0.321784 0.115010
O O3 0.846948 0.390716 0.222678
O O4 0.000000 0.394566 0.159686
O O5 0.144351 0.891505 0.277557
O O6 0.112787 0.732329 0.298385
O O7 0.179561 0.837001 0.382137
O O8 0.000000 0.847397 0.349953
O O9 0.500000 0.394288 0.208477
O O10 0.646676 0.500000 0.189338
O O11 0.657745 0.332705 0.166184
O O12 0.500000 0.216524 0.612941
O O13 0.351313 0.168938 0.553249
O O14 0.500000 0.405716 0.788987
O O15 0.667544 0.418296 0.836210
O O16 0.725494 0.500000 0.409257
O O17 0.831871 0.368378 0.445792
O O18 0.869915 0.500000 0.520670
O O19 0.000000 0.616807 0.490529
#
# Coordination Sequence:
#
# PCOD8186116 Si02
#       7
#    16  16  16  16  16  16  16
#     4   9  16  27  48  83 125 162 200 248 302 367
#     4  10  20  35  54  82 121 163 209 257 306 365
#     4   9  15  25  46  77 114 156 197 240 298 365
#     4   9  15  27  48  79 121 161 199 246 303 362
#     4  10  19  34  55  83 122 164 203 247 301 365
#     4  11  22  34  52  84 125 165 207 254 307 367
#     4   9  18  32  51  81 124 169 209 252 305 367
#
# _framework density 22.920290999999999
#
# number of rings (size 3 to 8) (size 9 to 14) (size 15 to 20)
#    0.000    2.429    1.429    2.143    0.000    4.000 
#    0.000    0.000    0.000    0.000    7.429    6.000 
#    0.000   17.143    0.000    5.571    0.000    0.429 
#
# Total GULP energy -347028.755921 kJ/mol
# GULP energy per Si atom -12393.884140 kJ/mol
# Density = 2.286812 g / cm^3
# Si number density = 22.920291 Si / 1000 Ang^3
#
#
#
# Elastic Constant Matrix: (Units=GPa)
#
#
# Indices 1 2 3 4 5 6 
#
# 1 55.2708 27.3979 45.9596 0.0000 0.0000 0.0000
# 2 27.3979 151.4971 72.0106 0.0000 0.0000 0.0000
# 3 45.9596 72.0106 125.7247 0.0000 0.0000 0.0000
# 4 0.0000 0.0000 0.0000 30.3790 0.0000 0.0000
# 5 0.0000 0.0000 0.0000 0.0000 24.9395 0.0000
# 6 0.0000 0.0000 0.0000 0.0000 0.0000 -8.6435
#
#
#
# Elastic Compliance Matrix: (Units=1/GPa)
#
#
# Indices 1 2 3 4 5 6 
#
# 1 0.026001 -0.000253 -0.009360 0.000000 0.000000 0.000000
# 2 -0.000253 0.009073 -0.005104 0.000000 0.000000 0.000000
# 3 -0.009360 -0.005104 0.014299 0.000000 0.000000 0.000000
# 4 0.000000 0.000000 0.000000 0.032917 0.000000 0.000000
# 5 0.000000 0.000000 0.000000 0.000000 0.040097 0.000000
# 6 0.000000 0.000000 0.000000 0.000000 0.000000 -0.115694
#
#
# Mechanical properties :
#
#
# Convention : Reuss Voigt Hill
#
# Bulk Modulus (GPa) = 50.15387 69.24764 59.70076
# Shear Modulus (GPa) = 116.89576 21.80998 69.35287
#
# Velocity S-wave (km/s) = 7.14925 3.08808 5.50672
# Velocity P-wave (km/s) = 9.49096 6.55690 8.15694
#
# Compressibility (1/GPa) = 0.01993864
#
# Stress axis : x y z
#
# Youngs Moduli (GPa) = 38.45945 110.22201 69.93600
#
# Poissons Ratio (x) = 0.02792 0.65460
# Poissons Ratio (y) = 0.00974 0.35694
# Poissons Ratio (z) = 0.35998 0.56256
#
# Static dielectric constant tensor:
#      x y z
#    x 3.925950 0.000000 0.000000 
#    y 0.000000 4.334730 0.000000 
#    z 0.000000 0.000000 3.950770 
# 
# 
# High freq. dielectric constant tensor:
#      x y z
#    x 1.893720 0.000000 0.000000 
#    y 0.000000 1.916520 0.000000 
#    z 0.000000 0.000000 1.871890 
# 
# From -- ./inp_files/29466.got.cif
#   From: 2010.03.12/outbox.cif.g09.slc.cpg/sg42_15_cif.got.tgz:29466.got - 2010.04.14 02:04:31.
