data_PCOD8186568
_publ_section_title
;
Structure prediction by ZEFSAII (Michael W. Deem and Ramdas Pophale) SiO2 
 PCOD8186568
Probable space group: F M M 2
;
_chemical_formula_sum "Si O2"
_cell_formula_units_Z 96
_cell_length_a 8.898988
_cell_length_b 18.968618
_cell_length_c 30.779604
_cell_angle_alpha 90.000000
_cell_angle_beta 90.000000
_cell_angle_gamma 90.000000
_cell_volume 5195.643446
_symmetry_space_group_name_H-M "F M M 2"
_symmetry_group_IT_number 42
_symmetry_cell_setting 'orthorhombic'
loop_
_space_group_symop_operation_xyz
x,y,z
-x,-y,z
-x,y,z
x,-y,z
x,1/2+y,1/2+z
-x,1/2-y,1/2+z
-x,1/2+y,1/2+z
x,1/2-y,1/2+z
1/2+x,y,1/2+z
1/2-x,-y,1/2+z
1/2-x,y,1/2+z
1/2+x,-y,1/2+z
1/2+x,1/2+y,z
1/2-x,1/2-y,z
1/2-x,1/2+y,z
1/2+x,1/2-y,z
loop_
_atom_site_type_symbol
_atom_site_label
_atom_site_fract_x
_atom_site_fract_y
_atom_site_fract_z
Si Si1 0.321953 0.176994 0.419340
Si Si2 0.174916 0.677362 0.322106
Si Si3 0.175675 0.418119 0.242866
Si Si4 0.678284 0.579339 0.090088
Si Si5 0.821426 0.921851 0.994163
Si Si6 0.821615 0.173257 0.168867
O O1 0.500000 0.182161 0.422837
O O2 0.250000 0.250000 0.432555
O O3 0.271804 0.155087 0.370566
O O4 0.254097 0.123432 0.454766
O O5 0.250000 0.750000 0.306327
O O6 0.215524 0.613293 0.290185
O O7 0.000000 0.693489 0.322009
O O8 0.222063 0.500000 0.242497
O O9 0.274116 0.375951 0.208527
O O10 0.000000 0.408358 0.232125
O O11 0.500000 0.576228 0.092885
O O12 0.740562 0.500000 0.099441
O O13 0.739698 0.635161 0.125197
O O14 0.729316 0.605374 0.042018
O O15 0.000000 0.921945 0.991739
O O16 0.757872 0.000000 0.987585
O O17 0.750000 0.250000 0.173069
O O18 0.000000 0.181639 0.168859
#
# Coordination Sequence:
#
# PCOD8186568 Si02
#       6
#    16  16  16  16  16  16
#     4   9  17  29  47  71  97 126 159 195 236 282
#     4   9  18  32  49  70  97 128 160 196 239 285
#     4  10  21  36  53  74 100 128 160 202 249 294
#     4   8  15  29  48  70  96 125 158 198 242 286
#     4   8  14  26  46  71  96 123 158 198 237 280
#     4  11  22  35  52  74 100 130 165 203 244 291
#
# _framework density 18.477017
#
# number of rings (size 3 to 8) (size 9 to 14) (size 15 to 20)
#    0.000    2.833    0.000    2.500    0.000    4.333 
#    0.000    3.333    0.000    1.500    0.000    9.333 
#    0.000    0.000    0.000    0.000    0.000    0.000 
#
# Total GULP energy -297476.836087 kJ/mol
# GULP energy per Si atom -12394.868170 kJ/mol
# Density = 1.843496 g / cm^3
# Si number density = 18.477017 Si / 1000 Ang^3
#
#
#
# Elastic Constant Matrix: (Units=GPa)
#
#
# Indices 1 2 3 4 5 6 
#
# 1 26.5595 31.0294 29.8516 0.0000 0.0000 0.0000
# 2 31.0294 143.5836 96.4777 0.0000 0.0000 0.0000
# 3 29.8516 96.4777 147.6919 0.0000 0.0000 0.0000
# 4 0.0000 0.0000 0.0000 40.7264 0.0000 0.0000
# 5 0.0000 0.0000 0.0000 0.0000 17.9868 0.0000
# 6 0.0000 0.0000 0.0000 0.0000 0.0000 19.8486
#
#
#
# Elastic Compliance Matrix: (Units=1/GPa)
#
#
# Indices 1 2 3 4 5 6 
#
# 1 0.052978 -0.007582 -0.005755 0.000000 0.000000 0.000000
# 2 -0.007582 0.013498 -0.007285 0.000000 0.000000 0.000000
# 3 -0.005755 -0.007285 0.012693 0.000000 0.000000 0.000000
# 4 0.000000 0.000000 0.000000 0.024554 0.000000 0.000000
# 5 0.000000 0.000000 0.000000 0.000000 0.055596 0.000000
# 6 0.000000 0.000000 0.000000 0.000000 0.000000 0.050381
#
#
# Mechanical properties :
#
#
# Convention : Reuss Voigt Hill
#
# Bulk Modulus (GPa) = 26.36803 70.28359 48.32581
# Shear Modulus (GPa) = 18.96914 26.41077 22.68996
#
# Velocity S-wave (km/s) = 3.20759 3.78482 3.50810
# Velocity P-wave (km/s) = 5.29338 7.56444 6.52843
#
# Compressibility (1/GPa) = 0.03792471
#
# Stress axis : x y z
#
# Youngs Moduli (GPa) = 18.87587 74.08492 78.78421
#
# Poissons Ratio (x) = 0.56170 0.45342
# Poissons Ratio (y) = 0.14311 0.57394
# Poissons Ratio (z) = 0.10863 0.53971
#
# Static dielectric constant tensor:
#      x y z
#    x 3.027100 0.000000 0.000000 
#    y 0.000000 3.741460 0.000000 
#    z 0.000000 0.000000 3.870560 
# 
# 
# High freq. dielectric constant tensor:
#      x y z
#    x 1.678070 0.000000 0.000000 
#    y 0.000000 1.716100 0.000000 
#    z 0.000000 0.000000 1.734230 
# 
# From -- ./inp_files/31423.got.cif
#   From: 2010.03.12/outbox.cif.g09.slc.cpg/sg42_16_cif.got.tgz:31423.got - 2010.04.14 02:04:31.
