data_PCOD8186708
_publ_section_title
;
Structure prediction by ZEFSAII (Michael W. Deem and Ramdas Pophale) SiO2 
 PCOD8186708
Probable space group: F M M 2
;
_chemical_formula_sum "Si O2"
_cell_formula_units_Z 88
_cell_length_a 14.311166
_cell_length_b 10.293049
_cell_length_c 29.527405
_cell_angle_alpha 90.000000
_cell_angle_beta 90.000000
_cell_angle_gamma 90.000000
_cell_volume 4349.550128
_symmetry_space_group_name_H-M "F M M 2"
_symmetry_group_IT_number 42
_symmetry_cell_setting 'orthorhombic'
loop_
_space_group_symop_operation_xyz
x,y,z
-x,-y,z
-x,y,z
x,-y,z
x,1/2+y,1/2+z
-x,1/2-y,1/2+z
-x,1/2+y,1/2+z
x,1/2-y,1/2+z
1/2+x,y,1/2+z
1/2-x,-y,1/2+z
1/2-x,y,1/2+z
1/2+x,-y,1/2+z
1/2+x,1/2+y,z
1/2-x,1/2-y,z
1/2-x,1/2+y,z
1/2+x,1/2-y,z
loop_
_atom_site_type_symbol
_atom_site_label
_atom_site_fract_x
_atom_site_fract_y
_atom_site_fract_z
Si Si1 0.250000 0.250000 0.865520
Si Si2 0.392120 0.276895 0.292542
Si Si3 0.750000 0.750000 0.601301
Si Si4 0.391344 0.646938 0.031985
Si Si5 0.732287 0.500000 0.660269
Si Si6 0.602063 0.149318 0.432920
Si Si7 0.393854 0.500000 0.223368
Si Si8 0.108014 0.500000 0.249686
O O1 0.325110 0.176194 0.833600
O O2 0.313985 0.339821 0.897200
O O3 0.500000 0.292738 0.307347
O O4 0.368362 0.370338 0.250963
O O5 0.368554 0.127692 0.279529
O O6 0.660743 0.772024 0.570001
O O7 0.717395 0.629093 0.631480
O O8 0.500000 0.653008 0.043539
O O9 0.353147 0.500000 0.034223
O O10 0.372496 0.710690 0.982011
O O11 0.838867 0.500000 0.676791
O O12 0.664962 0.500000 0.703541
O O13 0.500000 0.204112 0.415447
O O14 0.586380 0.000000 0.443388
O O15 0.500000 0.500000 0.208445
O O16 0.000000 0.500000 0.235767
#
# Coordination Sequence:
#
# PCOD8186708 Si02
#       8
#     8  16   8  16   8  16   8   8
#     4  12  21  31  58  90 118 146 196 251 301 318
#     4  10  22  37  59  83 116 160 203 240 289 354
#     4  12  23  37  60  98 118 148 200 253 297 352
#     4   9  19  40  63  84 120 165 198 234 296 363
#     4  12  24  36  60  90 120 146 198 254 300 352
#     4   9  20  37  59  86 117 156 200 240 287 356
#     4  10  22  42  58  79 116 162 198 235 296 360
#     4  10  22  42  58  79 116 162 198 239 294 354
#
# _framework density 20.231977000000001
#
# number of rings (size 3 to 8) (size 9 to 14) (size 15 to 20)
#    0.000    1.818    0.909    4.364    2.545    1.455 
#    0.000    0.000    0.000    0.000    0.000    0.000 
#    0.000    0.000    0.000    0.000    0.000    0.000 
#
# Total GULP energy -272666.215652 kJ/mol
# GULP energy per Si atom -12393.918893 kJ/mol
# Density = 2.018593 g / cm^3
# Si number density = 20.231977 Si / 1000 Ang^3
#
#
#
# Elastic Constant Matrix: (Units=GPa)
#
#
# Indices 1 2 3 4 5 6 
#
# 1 120.8851 31.1311 77.4378 0.0000 0.0000 0.0000
# 2 31.1311 93.4828 37.5526 0.0000 0.0000 0.0000
# 3 77.4378 37.5526 125.0831 0.0000 0.0000 0.0000
# 4 0.0000 0.0000 0.0000 -85.2060 0.0000 0.0000
# 5 0.0000 0.0000 0.0000 0.0000 38.8338 0.0000
# 6 0.0000 0.0000 0.0000 0.0000 0.0000 23.1688
#
#
#
# Elastic Compliance Matrix: (Units=1/GPa)
#
#
# Indices 1 2 3 4 5 6 
#
# 1 0.013853 -0.001328 -0.008177 0.000000 0.000000 0.000000
# 2 -0.001328 0.012292 -0.002868 0.000000 0.000000 0.000000
# 3 -0.008177 -0.002868 0.013918 0.000000 0.000000 0.000000
# 4 0.000000 0.000000 0.000000 -0.011736 0.000000 0.000000
# 5 0.000000 0.000000 0.000000 0.000000 0.025751 0.000000
# 6 0.000000 0.000000 0.000000 0.000000 0.000000 0.043161
#
#
# Mechanical properties :
#
#
# Convention : Reuss Voigt Hill
#
# Bulk Modulus (GPa) = 65.29323 70.18824 67.74073
# Shear Modulus (GPa) = 39.34208 8.24795 23.79502
#
# Velocity S-wave (km/s) = 4.41449 2.02127 3.43317
# Velocity P-wave (km/s) = 7.63714 6.34149 7.01927
#
# Compressibility (1/GPa) = 0.01531552
#
# Stress axis : x y z
#
# Youngs Moduli (GPa) = 72.18820 81.35683 71.84851
#
# Poissons Ratio (x) = 0.10806 0.58753
# Poissons Ratio (y) = 0.09589 0.20605
# Poissons Ratio (z) = 0.59030 0.23332
#
# Static dielectric constant tensor:
#      x y z
#    x 3.833470 0.000000 0.000000 
#    y 0.000000 3.501450 0.000000 
#    z 0.000000 0.000000 3.722060 
# 
# 
# High freq. dielectric constant tensor:
#      x y z
#    x 1.806540 0.000000 0.000000 
#    y 0.000000 1.765300 0.000000 
#    z 0.000000 0.000000 1.798170 
# 
# From -- ./inp_files/32549.got.cif
#   From: 2010.03.12/outbox.cif.g09.slc.cpg/sg42_17_cif.got.tgz:32549.got - 2010.04.14 02:04:31.
