data_PCOD8186653
_publ_section_title
;
Structure prediction by ZEFSAII (Michael W. Deem and Ramdas Pophale) SiO2 
 PCOD8186653
Probable space group: F M M 2
;
_chemical_formula_sum "Si O2"
_cell_formula_units_Z 96
_cell_length_a 14.011637
_cell_length_b 17.193373
_cell_length_c 20.030470
_cell_angle_alpha 90.000000
_cell_angle_beta 90.000000
_cell_angle_gamma 90.000000
_cell_volume 4825.486471
_symmetry_space_group_name_H-M "F M M 2"
_symmetry_group_IT_number 42
_symmetry_cell_setting 'orthorhombic'
loop_
_space_group_symop_operation_xyz
x,y,z
-x,-y,z
-x,y,z
x,-y,z
x,1/2+y,1/2+z
-x,1/2-y,1/2+z
-x,1/2+y,1/2+z
x,1/2-y,1/2+z
1/2+x,y,1/2+z
1/2-x,-y,1/2+z
1/2-x,y,1/2+z
1/2+x,-y,1/2+z
1/2+x,1/2+y,z
1/2-x,1/2-y,z
1/2-x,1/2+y,z
1/2+x,1/2-y,z
loop_
_atom_site_type_symbol
_atom_site_label
_atom_site_fract_x
_atom_site_fract_y
_atom_site_fract_z
Si Si1 0.500000 0.162672 0.503041
Si Si2 0.206418 0.665969 0.346704
Si Si3 0.500000 0.784281 0.359648
Si Si4 0.500000 0.223119 0.124819
Si Si5 0.700994 0.410391 0.983388
Si Si6 0.793659 0.832374 0.603279
Si Si7 0.198439 0.089343 0.227373
Si Si8 0.000000 0.666930 0.748151
O O1 0.500000 0.223533 0.440607
O O2 0.500000 0.207752 0.572005
O O3 0.407960 0.107780 0.502308
O O4 0.250000 0.750000 0.330020
O O5 0.235873 0.641321 0.421152
O O6 0.245865 0.602111 0.296141
O O7 0.092460 0.667176 0.337336
O O8 0.500000 0.699803 0.324251
O O9 0.592923 0.169947 0.114512
O O10 0.500000 0.259215 0.198771
O O11 0.709366 0.500000 0.963683
O O12 0.771213 0.393345 0.044949
O O13 0.750000 0.750000 0.580605
O O14 0.743697 0.856477 0.671442
O O15 0.089210 0.111868 0.236585
O O16 0.206397 0.000000 0.205722
#
# Coordination Sequence:
#
# PCOD8186653 Si02
#       8
#     8  16   8   8  16  16  16   8
#     4  10  21  38  63  94 123 158 206 261 300 355
#     4  11  22  41  64  92 125 165 209 252 299 367
#     4  10  22  36  65  94 119 157 211 259 295 355
#     4  12  24  38  65  95 118 156 214 254 300 360
#     4  11  23  40  63  94 128 163 203 254 312 361
#     4  12  23  42  64  91 122 163 206 253 303 369
#     4  12  25  41  63  93 127 163 202 255 315 363
#     4  12  21  40  63  93 124 155 205 262 303 360
#
# _framework density 19.894366000000002
#
# number of rings (size 3 to 8) (size 9 to 14) (size 15 to 20)
#    0.000    0.667    5.000    3.500    2.333    0.000 
#    0.000    6.250    0.000    0.000    0.000    0.000 
#    0.000    0.000    0.000    0.000    0.000    0.000 
#
# Total GULP energy -297756.307929 kJ/mol
# GULP energy per Si atom -12406.512830 kJ/mol
# Density = 1.984909 g / cm^3
# Si number density = 19.894366 Si / 1000 Ang^3
#
#
#
# Elastic Constant Matrix: (Units=GPa)
#
#
# Indices 1 2 3 4 5 6 
#
# 1 123.9663 26.8810 26.3615 0.0000 0.0000 0.0000
# 2 26.8810 84.0155 16.2200 0.0000 0.0000 0.0000
# 3 26.3615 16.2200 83.2368 0.0000 0.0000 0.0000
# 4 0.0000 0.0000 0.0000 29.4475 0.0000 0.0000
# 5 0.0000 0.0000 0.0000 0.0000 30.8081 0.0000
# 6 0.0000 0.0000 0.0000 0.0000 0.0000 -1.4752
#
#
#
# Elastic Compliance Matrix: (Units=1/GPa)
#
#
# Indices 1 2 3 4 5 6 
#
# 1 0.009110 -0.002450 -0.002408 0.000000 0.000000 0.000000
# 2 -0.002450 0.013027 -0.001763 0.000000 0.000000 0.000000
# 3 -0.002408 -0.001763 0.013120 0.000000 0.000000 0.000000
# 4 0.000000 0.000000 0.000000 0.033959 0.000000 0.000000
# 5 0.000000 0.000000 0.000000 0.000000 0.032459 0.000000
# 6 0.000000 0.000000 0.000000 0.000000 0.000000 -0.677896
#
#
# Mechanical properties :
#
#
# Convention : Reuss Voigt Hill
#
# Bulk Modulus (GPa) = 45.42125 47.79372 46.60748
# Shear Modulus (GPa) = -8.99860 26.53983 8.77062
#
# Velocity S-wave (km/s) = -2.12909 3.65641 2.10194
# Velocity P-wave (km/s) = 4.10326 6.47315 5.41934
#
# Compressibility (1/GPa) = 0.02201613
#
# Stress axis : x y z
#
# Youngs Moduli (GPa) = 109.76993 76.76541 76.21990
#
# Poissons Ratio (x) = 0.18807 0.18352
# Poissons Ratio (y) = 0.26893 0.13434
# Poissons Ratio (z) = 0.26430 0.13530
#
# Static dielectric constant tensor:
#      x y z
#    x 4.324710 0.000000 0.000000 
#    y 0.000000 3.359030 0.000000 
#    z 0.000000 0.000000 3.756120 
# 
# 
# High freq. dielectric constant tensor:
#      x y z
#    x 1.788750 0.000000 0.000000 
#    y 0.000000 1.757300 0.000000 
#    z 0.000000 0.000000 1.791250 
# 
# From -- ./inp_files/25170.got.cif
#   From: 2010.03.12/outbox.cif.g09.slc.cpg/sg42_13_cif.got.tgz:25170.got - 2010.04.14 02:04:31.
