data_PCOD8186995
_publ_section_title
;
Structure prediction by ZEFSAII (Michael W. Deem and Ramdas Pophale) SiO2 
 PCOD8186995
Probable space group: F D D 2
;
_chemical_formula_sum "Si O2"
_cell_formula_units_Z 96
_cell_length_a 18.100655
_cell_length_b 7.763825
_cell_length_c 25.116270
_cell_angle_alpha 90.000000
_cell_angle_beta 90.000000
_cell_angle_gamma 90.000000
_cell_volume 3529.597405
_symmetry_space_group_name_H-M "F D D 2"
_symmetry_group_IT_number 43
_symmetry_cell_setting 'orthorhombic'
loop_
_space_group_symop_operation_xyz
x,y,z
-x,-y,z
1/4-x,1/4+y,1/4+z
1/4+x,1/4-y,1/4+z
x,1/2+y,1/2+z
-x,1/2-y,1/2+z
1/4-x,3/4+y,3/4+z
1/4+x,3/4-y,3/4+z
1/2+x,y,1/2+z
1/2-x,-y,1/2+z
3/4-x,1/4+y,3/4+z
3/4+x,1/4-y,3/4+z
1/2+x,1/2+y,z
1/2-x,1/2-y,z
3/4-x,3/4+y,1/4+z
3/4+x,3/4-y,1/4+z
loop_
_atom_site_type_symbol
_atom_site_label
_atom_site_fract_x
_atom_site_fract_y
_atom_site_fract_z
Si Si1 0.438828 0.133016 0.053440
Si Si2 0.141676 0.303615 0.158536
Si Si3 0.148173 0.195224 0.660071
Si Si4 0.251052 0.058004 0.975334
Si Si5 0.088178 0.922320 0.287809
Si Si6 0.956594 0.737221 0.466682
O O1 0.393387 0.228952 0.100044
O O2 0.500000 0.000000 0.078263
O O3 0.379789 0.012599 0.023512
O O4 0.475089 0.263011 0.009932
O O5 0.177534 0.496254 0.166775
O O6 0.206018 0.166730 0.172975
O O7 0.075877 0.277039 0.198655
O O8 0.063863 0.212328 0.679466
O O9 0.153121 0.235203 0.597479
O O10 0.296031 0.171381 0.687246
O O11 0.250000 0.250000 0.001373
O O12 0.256352 0.899096 0.019640
O O13 0.131016 0.052601 0.249564
#
# Coordination Sequence:
#
# PCOD8186995 Si02
#       6
#    16  16  16  16  16  16
#     4   9  18  38  66  91 129 186 221 271 356 420
#     4  10  19  36  65  98 125 165 229 276 335 412
#     4   9  19  37  60  87 121 172 220 274 335 413
#     4   9  17  33  62  85 116 161 206 266 328 395
#     4   9  18  35  62  83 125 170 218 265 345 409
#     4  10  20  36  64  92 131 165 223 289 335 405
#
# _framework density 27.19857
#
# number of rings (size 3 to 8) (size 9 to 14) (size 15 to 20)
#    0.000    2.667    0.000    3.500    0.000    2.667 
#    0.000   15.000   51.333   13.000    0.000    0.000 
#    0.000    0.000    0.000    0.000    0.000    0.000 
#
# Total GULP energy -297342.012974 kJ/mol
# GULP energy per Si atom -12389.250541 kJ/mol
# Density = 2.713666 g / cm^3
# Si number density = 27.198570 Si / 1000 Ang^3
#
#
#
# Elastic Constant Matrix: (Units=GPa)
#
#
# Indices 1 2 3 4 5 6 
#
# 1 81.6684 44.8566 31.1941 0.0000 0.0000 -0.0001
# 2 44.8566 121.8092 71.0110 0.0000 0.0000 -0.0002
# 3 31.1941 71.0110 173.4890 0.0000 0.0000 0.0000
# 4 0.0000 0.0000 0.0000 29.5636 0.0000 0.0000
# 5 0.0000 0.0000 0.0000 0.0000 42.9946 0.0000
# 6 -0.0001 -0.0002 0.0000 0.0000 0.0000 39.2344
#
#
#
# Elastic Compliance Matrix: (Units=1/GPa)
#
#
# Indices 1 2 3 4 5 6 
#
# 1 0.015395 -0.005326 -0.000588 0.000000 0.000000 0.000000
# 2 -0.005326 0.012625 -0.004210 0.000000 0.000000 0.000000
# 3 -0.000588 -0.004210 0.007593 0.000000 0.000000 0.000000
# 4 0.000000 0.000000 0.000000 0.033825 0.000000 0.000000
# 5 0.000000 0.000000 0.000000 0.000000 0.023259 0.000000
# 6 0.000000 0.000000 0.000000 0.000000 0.000000 0.025488
#
#
# Mechanical properties :
#
#
# Convention : Reuss Voigt Hill
#
# Bulk Modulus (GPa) = 65.08538 74.56557 69.82548
# Shear Modulus (GPa) = 34.82986 37.68552 36.25769
#
# Velocity S-wave (km/s) = 3.58240 3.72636 3.65509
# Velocity P-wave (km/s) = 6.41039 6.78153 6.59857
#
# Compressibility (1/GPa) = 0.01536443
#
# Stress axis : x y z
#
# Youngs Moduli (GPa) = 64.95725 79.20590 131.70122
#
# Poissons Ratio (x) = 0.42189 0.07742
# Poissons Ratio (y) = 0.34599 0.55446
# Poissons Ratio (z) = 0.03819 0.33345
#
# Static dielectric constant tensor:
#      x y z
#    x 5.801970 0.000000 0.000000 
#    y 0.000000 5.274570 0.000000 
#    z 0.000000 0.000000 4.972810 
# 
# 
# High freq. dielectric constant tensor:
#      x y z
#    x 2.140140 0.000000 0.000000 
#    y 0.000000 2.084060 0.000000 
#    z 0.000000 0.000000 2.092630 
# 
# From -- ./inp_files/26297.got.cif
#   From: 2010.06.25/outbox.cif.g09.slc.cpg/sg43_14_cif.got.tgz:26297.got - 2010.06.26 16:48:59.
