data_PCOD8186469
_publ_section_title
;
Structure prediction by ZEFSAII (Michael W. Deem and Ramdas Pophale) SiO2 
 PCOD8186469
Probable space group: F M M 2
;
_chemical_formula_sum "Si O2"
_cell_formula_units_Z 96
_cell_length_a 23.568937
_cell_length_b 8.694877
_cell_length_c 25.101256
_cell_angle_alpha 90.000000
_cell_angle_beta 90.000000
_cell_angle_gamma 90.000000
_cell_volume 5143.975498
_symmetry_space_group_name_H-M "F M M 2"
_symmetry_group_IT_number 42
_symmetry_cell_setting 'orthorhombic'
loop_
_space_group_symop_operation_xyz
x,y,z
-x,-y,z
-x,y,z
x,-y,z
x,1/2+y,1/2+z
-x,1/2-y,1/2+z
-x,1/2+y,1/2+z
x,1/2-y,1/2+z
1/2+x,y,1/2+z
1/2-x,-y,1/2+z
1/2-x,y,1/2+z
1/2+x,-y,1/2+z
1/2+x,1/2+y,z
1/2-x,1/2-y,z
1/2-x,1/2+y,z
1/2+x,1/2-y,z
loop_
_atom_site_type_symbol
_atom_site_label
_atom_site_fract_x
_atom_site_fract_y
_atom_site_fract_z
Si Si1 0.308138 0.820772 0.457450
Si Si2 0.500000 0.678200 0.714139
Si Si3 0.378631 0.180321 0.169128
Si Si4 0.500000 0.318187 0.329461
Si Si5 0.688298 0.181495 0.766207
Si Si6 0.310242 0.182652 0.577794
Si Si7 0.615801 0.318667 0.860415
O O1 0.250000 0.750000 0.435320
O O2 0.321946 0.763168 0.517117
O O3 0.359018 0.775389 0.418120
O O4 0.297898 0.000000 0.458226
O O5 0.500000 0.500000 0.731777
O O6 0.444752 0.718205 0.679180
O O7 0.500000 0.780232 0.766960
O O8 0.339316 0.262981 0.211794
O O9 0.361598 0.245748 0.111591
O O10 0.366912 0.000000 0.171980
O O11 0.500000 0.500000 0.336513
O O12 0.447379 0.244099 0.359815
O O13 0.750000 0.250000 0.773348
O O14 0.650481 0.233923 0.815084
O O15 0.692596 0.000000 0.765317
O O16 0.250000 0.250000 0.597654
O O17 0.309459 0.000000 0.584316
O O18 0.617160 0.500000 0.849103
#
# Coordination Sequence:
#
# PCOD8186469 Si02
#       7
#    16   8  16   8  16  16  16
#     4   9  20  37  60  86 115 152 191 234 289 345
#     4  10  22  40  61  80 111 153 194 236 290 345
#     4  11  22  38  59  84 113 151 193 236 290 346
#     4  12  24  38  59  86 115 153 198 238 286 343
#     4  12  24  37  55  84 117 150 188 236 291 348
#     4  10  20  37  59  86 117 151 191 237 288 344
#     4  11  22  39  60  84 116 153 193 238 289 344
#
# _framework density 18.662607999999999
#
# number of rings (size 3 to 8) (size 9 to 14) (size 15 to 20)
#    0.000    1.333    1.667    4.750    0.000    4.000 
#    0.000    0.833    0.000    3.000    0.000    0.000 
#    0.000    0.000    0.000    0.000    0.000    0.000 
#
# Total GULP energy -297705.817505 kJ/mol
# GULP energy per Si atom -12404.409063 kJ/mol
# Density = 1.862013 g / cm^3
# Si number density = 18.662608 Si / 1000 Ang^3
#
#
#
# Elastic Constant Matrix: (Units=GPa)
#
#
# Indices 1 2 3 4 5 6 
#
# 1 84.3958 -0.0352 36.0421 0.0000 0.0000 0.0000
# 2 -0.0352 64.1363 20.6863 0.0000 0.0000 0.0000
# 3 36.0421 20.6863 94.6226 0.0000 0.0000 0.0000
# 4 0.0000 0.0000 0.0000 28.7837 0.0000 0.0000
# 5 0.0000 0.0000 0.0000 0.0000 31.8038 0.0000
# 6 0.0000 0.0000 0.0000 0.0000 0.0000 31.1121
#
#
#
# Elastic Compliance Matrix: (Units=1/GPa)
#
#
# Indices 1 2 3 4 5 6 
#
# 1 0.014364 0.001907 -0.005888 0.000000 0.000000 0.000000
# 2 0.001907 0.017028 -0.004449 0.000000 0.000000 0.000000
# 3 -0.005888 -0.004449 0.013784 0.000000 0.000000 0.000000
# 4 0.000000 0.000000 0.000000 0.034742 0.000000 0.000000
# 5 0.000000 0.000000 0.000000 0.000000 0.031443 0.000000
# 6 0.000000 0.000000 0.000000 0.000000 0.000000 0.032142
#
#
# Mechanical properties :
#
#
# Convention : Reuss Voigt Hill
#
# Bulk Modulus (GPa) = 35.31642 39.61568 37.46605
# Shear Modulus (GPa) = 29.44614 30.77071 30.10842
#
# Velocity S-wave (km/s) = 3.97648 4.06493 4.02095
# Velocity P-wave (km/s) = 6.32834 6.58065 6.45573
#
# Compressibility (1/GPa) = 0.02831544
#
# Stress axis : x y z
#
# Youngs Moduli (GPa) = 69.61650 58.72751 72.54869
#
# Poissons Ratio (x) = -0.11200 0.42719
# Poissons Ratio (y) = -0.13276 0.32277
# Poissons Ratio (z) = 0.40993 0.26128
#
# Static dielectric constant tensor:
#      x y z
#    x 3.586010 0.000000 0.000000 
#    y 0.000000 3.563070 0.000000 
#    z 0.000000 0.000000 3.742780 
# 
# 
# High freq. dielectric constant tensor:
#      x y z
#    x 1.728810 0.000000 0.000000 
#    y 0.000000 1.737820 0.000000 
#    z 0.000000 0.000000 1.725780 
# 
# From -- ./inp_files/28103.got.cif
#   From: 2010.03.12/outbox.cif.g09.slc.cpg/sg42_15_cif.got.tgz:28103.got - 2010.04.14 02:04:31.
