data_PCOD8186048
_publ_section_title
;
Structure prediction by ZEFSAII (Michael W. Deem and Ramdas Pophale) SiO2 
 PCOD8186048
Probable space group: F M M 2
;
_chemical_formula_sum "Si O2"
_cell_formula_units_Z 96
_cell_length_a 24.451893
_cell_length_b 20.651241
_cell_length_c 9.115493
_cell_angle_alpha 90.000000
_cell_angle_beta 90.000000
_cell_angle_gamma 90.000000
_cell_volume 4602.976986
_symmetry_space_group_name_H-M "F M M 2"
_symmetry_group_IT_number 42
_symmetry_cell_setting 'orthorhombic'
loop_
_space_group_symop_operation_xyz
x,y,z
-x,-y,z
-x,y,z
x,-y,z
x,1/2+y,1/2+z
-x,1/2-y,1/2+z
-x,1/2+y,1/2+z
x,1/2-y,1/2+z
1/2+x,y,1/2+z
1/2-x,-y,1/2+z
1/2-x,y,1/2+z
1/2+x,-y,1/2+z
1/2+x,1/2+y,z
1/2-x,1/2-y,z
1/2-x,1/2+y,z
1/2+x,1/2-y,z
loop_
_atom_site_type_symbol
_atom_site_label
_atom_site_fract_x
_atom_site_fract_y
_atom_site_fract_z
Si Si1 0.867964 0.312218 0.791480
Si Si2 0.061164 0.924943 0.789349
Si Si3 0.252542 0.150005 0.250021
Si Si4 0.280080 0.568892 0.008695
Si Si5 0.598623 0.428549 0.098289
Si Si6 0.867839 0.315296 0.140031
O O1 0.803945 0.310104 0.744969
O O2 0.899596 0.375287 0.727553
O O3 0.894300 0.248063 0.717840
O O4 0.876202 0.311497 0.965654
O O5 0.103550 0.879797 0.701488
O O6 0.000000 0.912422 0.728343
O O7 0.078434 0.000000 0.764412
O O8 0.058620 0.909256 0.964520
O O9 0.262963 0.131701 0.417610
O O10 0.303586 0.187278 0.180156
O O11 0.244793 0.081233 0.169070
O O12 0.256818 0.500000 0.951437
O O13 0.344657 0.566390 0.012959
O O14 0.583583 0.500000 0.164952
#
# Coordination Sequence:
#
# PCOD8186048 Si02
#       6
#    16  16  16  16  16  16
#     4  11  25  39  60  92 126 170 209 251 306 373
#     4  10  22  43  71  97 121 157 205 260 320 374
#     4  11  21  35  55  86 124 169 207 248 300 367
#     4  10  19  32  52  85 124 161 202 245 297 363
#     4   9  19  39  63  90 124 157 200 253 306 368
#     4  12  24  40  61  88 127 167 212 259 309 365
#
# _framework density 20.856066999999999
#
# number of rings (size 3 to 8) (size 9 to 14) (size 15 to 20)
#    0.000    1.500    3.333    2.000    2.333    3.333 
#    0.000    4.167    0.000    2.000    0.000    0.000 
#    0.000    0.000    0.000    0.000    0.000    0.000 
#
# Total GULP energy -297395.621883 kJ/mol
# GULP energy per Si atom -12391.484245 kJ/mol
# Density = 2.080860 g / cm^3
# Si number density = 20.856067 Si / 1000 Ang^3
#
#
#
# Elastic Constant Matrix: (Units=GPa)
#
#
# Indices 1 2 3 4 5 6 
#
# 1 47.3087 27.7035 21.1806 0.0000 0.0000 0.0000
# 2 27.7035 142.2395 73.5132 0.0004 -0.0001 -0.0001
# 3 21.1806 73.5132 135.8053 0.0008 -0.0002 -0.0001
# 4 0.0000 0.0004 0.0008 35.0518 -0.0001 -0.0001
# 5 0.0000 -0.0001 -0.0002 -0.0001 14.9716 0.0000
# 6 0.0000 -0.0001 -0.0001 -0.0001 0.0000 9.8020
#
#
#
# Elastic Compliance Matrix: (Units=1/GPa)
#
#
# Indices 1 2 3 4 5 6 
#
# 1 0.024136 -0.003826 -0.001693 0.000000 0.000000 0.000000
# 2 -0.003826 0.010368 -0.005015 0.000000 0.000000 0.000000
# 3 -0.001693 -0.005015 0.010343 0.000000 0.000000 0.000000
# 4 0.000000 0.000000 0.000000 0.028529 0.000000 0.000000
# 5 0.000000 0.000000 0.000000 0.000000 0.066793 0.000000
# 6 0.000000 0.000000 0.000000 0.000000 0.000000 0.102020
#
#
# Mechanical properties :
#
#
# Convention : Reuss Voigt Hill
#
# Bulk Modulus (GPa) = 42.05719 63.34978 52.70348
# Shear Modulus (GPa) = 18.43765 25.49547 21.96656
#
# Velocity S-wave (km/s) = 2.97651 3.50015 3.24890
# Velocity P-wave (km/s) = 5.65880 6.83925 6.27684
#
# Compressibility (1/GPa) = 0.02377715
#
# Stress axis : x y z
#
# Youngs Moduli (GPa) = 41.43149 96.45393 96.68804
#
# Poissons Ratio (x) = 0.36900 0.16374
# Poissons Ratio (y) = 0.15850 0.48494
# Poissons Ratio (z) = 0.07016 0.48376
#
# Static dielectric constant tensor:
#      x y z
#    x 3.528080 0.000000 0.000000 
#    y 0.000000 3.933810 0.000000 
#    z 0.000000 0.000000 3.631780 
# 
# 
# High freq. dielectric constant tensor:
#      x y z
#    x 1.784370 0.000000 0.000000 
#    y 0.000000 1.828140 0.000000 
#    z 0.000000 0.000000 1.812930 
# 
# From -- ./inp_files/4178.got.cif
#   From: 2010.03.12/outbox.cif.g09.slc.cpg/sg42_3_cif.got.tgz:4178.got - 2010.04.14 02:04:31.
