data_PCOD8186324
_publ_section_title
;
Structure prediction by ZEFSAII (Michael W. Deem and Ramdas Pophale) SiO2 
 PCOD8186324
Probable space group: F M M 2
;
_chemical_formula_sum "Si O2"
_cell_formula_units_Z 80
_cell_length_a 15.572965
_cell_length_b 8.822210
_cell_length_c 28.693778
_cell_angle_alpha 90.000000
_cell_angle_beta 90.000000
_cell_angle_gamma 90.000000
_cell_volume 3942.179841
_symmetry_space_group_name_H-M "F M M 2"
_symmetry_group_IT_number 42
_symmetry_cell_setting 'orthorhombic'
loop_
_space_group_symop_operation_xyz
x,y,z
-x,-y,z
-x,y,z
x,-y,z
x,1/2+y,1/2+z
-x,1/2-y,1/2+z
-x,1/2+y,1/2+z
x,1/2-y,1/2+z
1/2+x,y,1/2+z
1/2-x,-y,1/2+z
1/2-x,y,1/2+z
1/2+x,-y,1/2+z
1/2+x,1/2+y,z
1/2-x,1/2-y,z
1/2-x,1/2+y,z
1/2+x,1/2-y,z
loop_
_atom_site_type_symbol
_atom_site_label
_atom_site_fract_x
_atom_site_fract_y
_atom_site_fract_z
Si Si1 0.000000 0.320300 0.038420
Si Si2 0.161288 0.321584 0.380875
Si Si3 0.662708 0.820934 0.095327
Si Si4 0.000000 0.819921 0.432049
Si Si5 0.401179 0.674040 0.780326
Si Si6 0.899643 0.675428 0.686523
O O1 0.915707 0.256233 0.064437
O O2 0.000000 0.500000 0.041718
O O3 0.000000 0.264796 0.985444
O O4 0.159500 0.500000 0.390633
O O5 0.250000 0.250000 0.399047
O O6 0.152922 0.285423 0.326070
O O7 0.084522 0.244926 0.408492
O O8 0.750000 0.750000 0.074978
O O9 0.651477 0.772514 0.148847
O O10 0.668848 0.000000 0.092233
O O11 0.000000 0.000000 0.427601
O O12 0.500000 0.710202 0.792083
O O13 0.389677 0.500000 0.765576
O O14 0.367417 0.777221 0.737905
O O15 0.879487 0.500000 0.678359
O O16 0.000000 0.713369 0.681805
#
# Coordination Sequence:
#
# PCOD8186324 Si02
#       6
#     8  16  16   8  16  16
#     4   9  22  43  66  89 118 155 198 247 308 367
#     4  11  23  41  63  93 126 163 207 252 303 364
#     4  11  22  40  63  89 121 159 200 246 299 358
#     4  11  23  43  68  93 122 157 200 255 314 371
#     4   9  18  35  58  83 119 165 206 246 295 352
#     4  10  20  34  56  89 124 159 203 246 292 353
#
# _framework density 20.293340000000001
#
# number of rings (size 3 to 8) (size 9 to 14) (size 15 to 20)
#    0.000    1.800    2.000    2.100    0.000    4.000 
#    0.000    8.000    0.000    0.000    0.000    0.000 
#    0.000    0.000    0.000    0.000    0.000    0.000 
#
# Total GULP energy -248088.765122 kJ/mol
# GULP energy per Si atom -12404.438256 kJ/mol
# Density = 2.024715 g / cm^3
# Si number density = 20.293340 Si / 1000 Ang^3
#
#
#
# Elastic Constant Matrix: (Units=GPa)
#
#
# Indices 1 2 3 4 5 6 
#
# 1 154.1283 55.4120 66.9767 0.0000 0.0000 0.0000
# 2 55.4120 90.6484 49.8949 0.0000 0.0000 0.0000
# 3 66.9767 49.8949 113.4914 0.0000 0.0000 0.0000
# 4 0.0000 0.0000 0.0000 24.8514 0.0000 0.0000
# 5 0.0000 0.0000 0.0000 0.0000 -4.7191 0.0000
# 6 0.0000 0.0000 0.0000 0.0000 0.0000 34.7107
#
#
#
# Elastic Compliance Matrix: (Units=1/GPa)
#
#
# Indices 1 2 3 4 5 6 
#
# 1 0.009543 -0.003606 -0.004046 0.000000 0.000000 0.000000
# 2 -0.003606 0.015916 -0.004869 0.000000 0.000000 0.000000
# 3 -0.004046 -0.004869 0.013340 0.000000 0.000000 0.000000
# 4 0.000000 0.000000 0.000000 0.040239 0.000000 0.000000
# 5 0.000000 0.000000 0.000000 0.000000 -0.211906 0.000000
# 6 0.000000 0.000000 0.000000 0.000000 0.000000 0.028810
#
#
# Mechanical properties :
#
#
# Convention : Reuss Voigt Hill
#
# Bulk Modulus (GPa) = 72.69785 78.09281 75.39533
# Shear Modulus (GPa) = -67.17782 23.36755 -21.90514
#
# Velocity S-wave (km/s) = -5.75980 3.39704 -3.28902
# Velocity P-wave (km/s) = 2.88659 7.34521 4.77596
#
# Compressibility (1/GPa) = 0.01375557
#
# Stress axis : x y z
#
# Youngs Moduli (GPa) = 104.78935 62.82925 74.96378
#
# Poissons Ratio (x) = 0.22658 0.30333
# Poissons Ratio (y) = 0.37790 0.36500
# Poissons Ratio (z) = 0.42401 0.30592
#
# Static dielectric constant tensor:
#      x y z
#    x 3.781010 0.000000 0.000000 
#    y 0.000000 3.578740 0.000000 
#    z 0.000000 0.000000 3.707290 
# 
# 
# High freq. dielectric constant tensor:
#      x y z
#    x 1.798540 0.000000 0.000000 
#    y 0.000000 1.788600 0.000000 
#    z 0.000000 0.000000 1.789210 
# 
# From -- ./inp_files/31293.got.cif
#   From: 2010.03.12/outbox.cif.g09.slc.cpg/sg42_16_cif.got.tgz:31293.got - 2010.04.14 02:04:31.
