data_PCOD8186290
_publ_section_title
;
Structure prediction by ZEFSAII (Michael W. Deem and Ramdas Pophale) SiO2 
 PCOD8186290
Probable space group: F M M 2
;
_chemical_formula_sum "Si O2"
_cell_formula_units_Z 112
_cell_length_a 28.041481
_cell_length_b 13.303572
_cell_length_c 15.459030
_cell_angle_alpha 90.000000
_cell_angle_beta 90.000000
_cell_angle_gamma 90.000000
_cell_volume 5767.019918
_symmetry_space_group_name_H-M "F M M 2"
_symmetry_group_IT_number 42
_symmetry_cell_setting 'orthorhombic'
loop_
_space_group_symop_operation_xyz
x,y,z
-x,-y,z
-x,y,z
x,-y,z
x,1/2+y,1/2+z
-x,1/2-y,1/2+z
-x,1/2+y,1/2+z
x,1/2-y,1/2+z
1/2+x,y,1/2+z
1/2-x,-y,1/2+z
1/2-x,y,1/2+z
1/2+x,-y,1/2+z
1/2+x,1/2+y,z
1/2-x,1/2-y,z
1/2-x,1/2+y,z
1/2+x,1/2-y,z
loop_
_atom_site_type_symbol
_atom_site_label
_atom_site_fract_x
_atom_site_fract_y
_atom_site_fract_z
Si Si1 0.860967 0.245307 0.960540
Si Si2 0.554438 0.113743 0.992009
Si Si3 0.776448 0.117563 0.421135
Si Si4 0.799912 0.118851 0.066820
Si Si5 0.755694 0.617534 0.234895
Si Si6 0.448673 0.885144 0.194783
Si Si7 0.857507 0.619646 0.289951
O O1 0.912965 0.296614 0.954858
O O2 0.824883 0.337641 0.956799
O O3 0.854224 0.167485 0.883452
O O4 0.849157 0.180462 0.048236
O O5 0.500000 0.135504 0.963784
O O6 0.568768 0.000000 0.961457
O O7 0.560534 0.120433 0.093909
O O8 0.732986 0.145933 0.484206
O O9 0.766045 0.159061 0.324663
O O10 0.784051 0.000000 0.420202
O O11 0.773963 0.161264 0.153542
O O12 0.810416 0.000000 0.074146
O O13 0.750405 0.500000 0.231091
O O14 0.811506 0.647917 0.231348
O O15 0.500000 0.833859 0.218145
O O16 0.404308 0.834034 0.243548
O O17 0.451021 0.000000 0.224854
O O18 0.859424 0.500000 0.302625
#
# Coordination Sequence:
#
# PCOD8186290 Si02
#       7
#    16  16  16  16  16  16  16
#     4  12  22  33  54  85 110 144 187 235 278 334
#     4   9  20  39  59  81 110 142 183 235 286 339
#     4  10  21  38  52  74 111 147 189 230 268 327
#     4  10  21  37  55  77 111 152 187 226 279 332
#     4   9  19  36  54  72 109 157 188 222 276 334
#     4   8  16  33  55  77 102 136 182 234 284 334
#     4  10  20  34  53  78 112 149 184 231 288 336
#
# _framework density 19.420776
#
# number of rings (size 3 to 8) (size 9 to 14) (size 15 to 20)
#    0.000    2.286    1.429    2.143    2.000    1.714 
#    2.571    0.000    0.000    1.286    0.000    0.000 
#    0.000    3.429    0.000    0.000    0.000    0.000 
#
# Total GULP energy -346957.259585 kJ/mol
# GULP energy per Si atom -12391.330699 kJ/mol
# Density = 1.937657 g / cm^3
# Si number density = 19.420776 Si / 1000 Ang^3
#
#
#
# Elastic Constant Matrix: (Units=GPa)
#
#
# Indices 1 2 3 4 5 6 
#
# 1 88.3239 45.5152 23.1540 0.0000 0.0000 0.0000
# 2 45.5152 68.1467 22.7601 0.0000 0.0000 0.0000
# 3 23.1540 22.7601 86.6521 0.0000 0.0000 0.0000
# 4 0.0000 0.0000 0.0000 1.3091 0.0000 0.0000
# 5 0.0000 0.0000 0.0000 0.0000 27.7707 0.0000
# 6 0.0000 0.0000 0.0000 0.0000 0.0000 25.3352
#
#
#
# Elastic Compliance Matrix: (Units=1/GPa)
#
#
# Indices 1 2 3 4 5 6 
#
# 1 0.017506 -0.011104 -0.001761 0.000000 0.000000 0.000000
# 2 -0.011104 0.023129 -0.003108 0.000000 0.000000 0.000000
# 3 -0.001761 -0.003108 0.012827 0.000000 0.000000 0.000000
# 4 0.000000 0.000000 0.000000 0.763874 0.000000 0.000000
# 5 0.000000 0.000000 0.000000 0.000000 0.036009 0.000000
# 6 0.000000 0.000000 0.000000 0.000000 0.000000 0.039471
#
#
# Mechanical properties :
#
#
# Convention : Reuss Voigt Hill
#
# Bulk Modulus (GPa) = 46.47759 47.33125 46.90442
# Shear Modulus (GPa) = 5.36519 20.99590 13.18055
#
# Velocity S-wave (km/s) = 1.66391 3.29158 2.60798
# Velocity P-wave (km/s) = 5.26073 6.23461 5.76826
#
# Compressibility (1/GPa) = 0.02151575
#
# Stress axis : x y z
#
# Youngs Moduli (GPa) = 57.12421 43.23660 77.95871
#
# Poissons Ratio (x) = 0.48010 0.13729
# Poissons Ratio (y) = 0.63430 0.24229
# Poissons Ratio (z) = 0.10060 0.13438
#
# Static dielectric constant tensor:
#      x y z
#    x 3.884300 0.000000 0.000000 
#    y 0.000000 3.469020 0.000000 
#    z 0.000000 0.000000 3.600070 
# 
# 
# High freq. dielectric constant tensor:
#      x y z
#    x 1.748390 0.000000 0.000000 
#    y 0.000000 1.753250 0.000000 
#    z 0.000000 0.000000 1.744570 
# 
# From -- ./inp_files/14411.got.cif
#   From: 2010.03.12/outbox.cif.g09.slc.cpg/sg42_8_cif.got.tgz:14411.got - 2010.04.14 02:04:31.
