data_PCOD8186886
_publ_section_title
;
Structure prediction by ZEFSAII (Michael W. Deem and Ramdas Pophale) SiO2 
 PCOD8186886
Probable space group: F M M 2
;
_chemical_formula_sum "Si O2"
_cell_formula_units_Z 88
_cell_length_a 18.933057
_cell_length_b 14.814067
_cell_length_c 21.782722
_cell_angle_alpha 90.000000
_cell_angle_beta 90.000000
_cell_angle_gamma 90.000000
_cell_volume 6109.521476
_symmetry_space_group_name_H-M "F M M 2"
_symmetry_group_IT_number 42
_symmetry_cell_setting 'orthorhombic'
loop_
_space_group_symop_operation_xyz
x,y,z
-x,-y,z
-x,y,z
x,-y,z
x,1/2+y,1/2+z
-x,1/2-y,1/2+z
-x,1/2+y,1/2+z
x,1/2-y,1/2+z
1/2+x,y,1/2+z
1/2-x,-y,1/2+z
1/2-x,y,1/2+z
1/2+x,-y,1/2+z
1/2+x,1/2+y,z
1/2-x,1/2-y,z
1/2-x,1/2+y,z
1/2+x,1/2-y,z
loop_
_atom_site_type_symbol
_atom_site_label
_atom_site_fract_x
_atom_site_fract_y
_atom_site_fract_z
Si Si1 0.327908 0.741239 0.779670
Si Si2 0.418624 0.897227 0.823255
Si Si3 0.839202 0.103184 0.448774
Si Si4 0.417174 0.104407 0.202287
Si Si5 0.750000 0.250000 0.895596
Si Si6 0.922381 0.606858 0.065546
O O1 0.250000 0.750000 0.747444
O O2 0.371458 0.835372 0.777847
O O3 0.372274 0.661916 0.749784
O O4 0.314899 0.717546 0.851747
O O5 0.500000 0.867177 0.818333
O O6 0.395869 0.888289 0.894199
O O7 0.408283 0.000000 0.800796
O O8 0.770851 0.164558 0.436776
O O9 0.871971 0.142379 0.511753
O O10 0.813814 0.000000 0.456256
O O11 0.500000 0.123109 0.211865
O O12 0.394030 0.132904 0.133257
O O13 0.399815 0.000000 0.214495
O O14 0.929024 0.500000 0.060678
O O15 0.000000 0.649613 0.056054
#
# Coordination Sequence:
#
# PCOD8186886 Si02
#       6
#    16  16  16  16   8  16
#     4   9  18  29  40  58  90 113 139 165 201 240
#     4   9  16  26  43  64  83 107 139 174 211 245
#     4   9  15  26  42  60  84 108 130 168 213 246
#     4   9  17  29  45  63  83 110 141 172 205 241
#     4   8  18  28  36  62  84 110 140 162 194 252
#     4   8  14  25  42  63  81  99 131 172 210 244
#
# _framework density 14.403746
#
# number of rings (size 3 to 8) (size 9 to 14) (size 15 to 20)
#    0.545    2.727    0.000    2.182    0.000    3.636 
#    1.636    0.000    0.000    0.000    0.000    0.000 
#    0.000    0.000    0.000    0.727    0.000    0.000 
#
# Total GULP energy -272578.022187 kJ/mol
# GULP energy per Si atom -12389.910099 kJ/mol
# Density = 1.437096 g / cm^3
# Si number density = 14.403746 Si / 1000 Ang^3
#
#
#
# Elastic Constant Matrix: (Units=GPa)
#
#
# Indices 1 2 3 4 5 6 
#
# 1 84.6978 59.5582 38.8674 0.0000 0.0000 0.0000
# 2 59.5582 80.3666 47.4197 0.0000 0.0000 0.0000
# 3 38.8674 47.4197 70.6571 0.0000 0.0000 0.0000
# 4 0.0000 0.0000 0.0000 12.2471 0.0000 0.0000
# 5 0.0000 0.0000 0.0000 0.0000 17.3164 0.0000
# 6 0.0000 0.0000 0.0000 0.0000 0.0000 25.0175
#
#
#
# Elastic Compliance Matrix: (Units=1/GPa)
#
#
# Indices 1 2 3 4 5 6 
#
# 1 0.024854 -0.017139 -0.002170 0.000000 0.000000 0.000000
# 2 -0.017139 0.032419 -0.012330 0.000000 0.000000 0.000000
# 3 -0.002170 -0.012330 0.023621 0.000000 0.000000 0.000000
# 4 0.000000 0.000000 0.000000 0.081652 0.000000 0.000000
# 5 0.000000 0.000000 0.000000 0.000000 0.057749 0.000000
# 6 0.000000 0.000000 0.000000 0.000000 0.000000 0.039972
#
#
# Mechanical properties :
#
#
# Convention : Reuss Voigt Hill
#
# Bulk Modulus (GPa) = 56.75874 58.60134 57.68004
# Shear Modulus (GPa) = 15.17843 16.90795 16.04319
#
# Velocity S-wave (km/s) = 3.24972 3.42988 3.34102
# Velocity P-wave (km/s) = 7.31929 7.51389 7.41723
#
# Compressibility (1/GPa) = 0.01761843
#
# Stress axis : x y z
#
# Youngs Moduli (GPa) = 40.23510 30.84611 42.33527
#
# Poissons Ratio (x) = 0.52866 0.09185
# Poissons Ratio (y) = 0.68957 0.52197
# Poissons Ratio (z) = 0.08729 0.38032
#
# Static dielectric constant tensor:
#      x y z
#    x 2.802790 0.000000 0.000000 
#    y 0.000000 2.638130 0.000000 
#    z 0.000000 0.000000 2.780060 
# 
# 
# High freq. dielectric constant tensor:
#      x y z
#    x 1.543130 0.000000 0.000000 
#    y 0.000000 1.529860 0.000000 
#    z 0.000000 0.000000 1.536530 
# 
# From -- ./inp_files/20032.got.cif
#   From: 2010.03.12/outbox.cif.g09.slc.cpg/sg42_11_cif.got.tgz:20032.got - 2010.04.14 02:04:31.
