data_PCOD8186176
_publ_section_title
;
Structure prediction by ZEFSAII (Michael W. Deem and Ramdas Pophale) SiO2 
 PCOD8186176
Probable space group: F M M 2
;
_chemical_formula_sum "Si O2"
_cell_formula_units_Z 96
_cell_length_a 13.818708
_cell_length_b 14.033995
_cell_length_c 23.707352
_cell_angle_alpha 90.000000
_cell_angle_beta 90.000000
_cell_angle_gamma 90.000000
_cell_volume 4597.606577
_symmetry_space_group_name_H-M "F M M 2"
_symmetry_group_IT_number 42
_symmetry_cell_setting 'orthorhombic'
loop_
_space_group_symop_operation_xyz
x,y,z
-x,-y,z
-x,y,z
x,-y,z
x,1/2+y,1/2+z
-x,1/2-y,1/2+z
-x,1/2+y,1/2+z
x,1/2-y,1/2+z
1/2+x,y,1/2+z
1/2-x,-y,1/2+z
1/2-x,y,1/2+z
1/2+x,-y,1/2+z
1/2+x,1/2+y,z
1/2-x,1/2-y,z
1/2-x,1/2+y,z
1/2+x,1/2-y,z
loop_
_atom_site_type_symbol
_atom_site_label
_atom_site_fract_x
_atom_site_fract_y
_atom_site_fract_z
Si Si1 0.609769 0.102041 0.793140
Si Si2 0.385839 0.106318 0.442497
Si Si3 0.725509 0.644437 0.719435
Si Si4 0.885859 0.694014 0.328027
Si Si5 0.209767 0.394009 0.097742
Si Si6 0.613040 0.210394 0.555719
O O1 0.500000 0.120635 0.773323
O O2 0.675422 0.092475 0.737472
O O3 0.646398 0.193758 0.829013
O O4 0.616642 0.000000 0.826418
O O5 0.500000 0.100346 0.436475
O O6 0.341338 0.145265 0.383781
O O7 0.359018 0.179644 0.492132
O O8 0.344372 0.000000 0.454757
O O9 0.750000 0.750000 0.700320
O O10 0.651769 0.640693 0.772185
O O11 0.680077 0.596487 0.663797
O O12 0.000000 0.684613 0.328145
O O13 0.200787 0.500000 0.070960
O O14 0.320790 0.355717 0.095843
O O15 0.138951 0.322017 0.064056
O O16 0.500000 0.192792 0.569252
#
# Coordination Sequence:
#
# PCOD8186176 Si02
#       6
#    16  16  16  16  16  16
#     4   9  18  33  53  80 117 157 195 234 282 347
#     4   9  18  36  62  88 113 149 202 254 296 349
#     4  10  19  36  55  84 120 159 192 241 295 355
#     4   9  19  35  59  89 119 150 190 242 297 356
#     4  11  23  40  61  90 125 159 203 254 303 363
#     4  10  22  42  64  86 119 161 206 255 304 351
#
# _framework density 20.880427999999998
#
# number of rings (size 3 to 8) (size 9 to 14) (size 15 to 20)
#    0.000    2.333    1.667    1.000    0.000    4.000 
#    9.000    0.833    0.000    3.000    0.000    0.000 
#    0.000    0.000    0.000    0.000    0.000    0.000 
#
# Total GULP energy -297382.153737 kJ/mol
# GULP energy per Si atom -12390.923072 kJ/mol
# Density = 2.083290 g / cm^3
# Si number density = 20.880428 Si / 1000 Ang^3
#
#
#
# Elastic Constant Matrix: (Units=GPa)
#
#
# Indices 1 2 3 4 5 6 
#
# 1 48.6905 31.1429 28.3561 0.0000 0.0000 0.0000
# 2 31.1429 162.1266 59.4977 0.0000 0.0000 0.0000
# 3 28.3561 59.4977 136.8679 0.0000 0.0000 0.0000
# 4 0.0000 0.0000 0.0000 9.7528 0.0000 0.0000
# 5 0.0000 0.0000 0.0000 0.0000 27.3347 0.0000
# 6 0.0000 0.0000 0.0000 0.0000 0.0000 15.8909
#
#
#
# Elastic Compliance Matrix: (Units=1/GPa)
#
#
# Indices 1 2 3 4 5 6 
#
# 1 0.024865 -0.003434 -0.003659 0.000000 0.000000 0.000000
# 2 -0.003434 0.007813 -0.002685 0.000000 0.000000 0.000000
# 3 -0.003659 -0.002685 0.009232 0.000000 0.000000 0.000000
# 4 0.000000 0.000000 0.000000 0.102534 0.000000 0.000000
# 5 0.000000 0.000000 0.000000 0.000000 0.036584 0.000000
# 6 0.000000 0.000000 0.000000 0.000000 0.000000 0.062929
#
#
# Mechanical properties :
#
#
# Convention : Reuss Voigt Hill
#
# Bulk Modulus (GPa) = 44.73374 65.07539 54.90456
# Shear Modulus (GPa) = 18.45273 25.84157 22.14715
#
# Velocity S-wave (km/s) = 2.97599 3.52177 3.26032
# Velocity P-wave (km/s) = 5.76879 6.91162 6.36590
#
# Compressibility (1/GPa) = 0.02235449
#
# Stress axis : x y z
#
# Youngs Moduli (GPa) = 40.21743 127.99319 108.32421
#
# Poissons Ratio (x) = 0.43947 0.39634
# Poissons Ratio (y) = 0.13809 0.29085
# Poissons Ratio (z) = 0.14715 0.34366
#
# Static dielectric constant tensor:
#      x y z
#    x 3.662490 0.000000 0.000000 
#    y 0.000000 4.145030 0.000000 
#    z 0.000000 0.000000 3.704400 
# 
# 
# High freq. dielectric constant tensor:
#      x y z
#    x 1.801650 0.000000 0.000000 
#    y 0.000000 1.830380 0.000000 
#    z 0.000000 0.000000 1.796840 
# 
# From -- ./inp_files/25104.got.cif
#   From: 2010.03.12/outbox.cif.g09.slc.cpg/sg42_13_cif.got.tgz:25104.got - 2010.04.14 02:04:31.
