data_PCOD8186663
_publ_section_title
;
Structure prediction by ZEFSAII (Michael W. Deem and Ramdas Pophale) SiO2 
 PCOD8186663
Probable space group: F M M 2
;
_chemical_formula_sum "Si O2"
_cell_formula_units_Z 80
_cell_length_a 16.317719
_cell_length_b 24.326238
_cell_length_c 9.217064
_cell_angle_alpha 90.000000
_cell_angle_beta 90.000000
_cell_angle_gamma 90.000000
_cell_volume 3658.701720
_symmetry_space_group_name_H-M "F M M 2"
_symmetry_group_IT_number 42
_symmetry_cell_setting 'orthorhombic'
loop_
_space_group_symop_operation_xyz
x,y,z
-x,-y,z
-x,y,z
x,-y,z
x,1/2+y,1/2+z
-x,1/2-y,1/2+z
-x,1/2+y,1/2+z
x,1/2-y,1/2+z
1/2+x,y,1/2+z
1/2-x,-y,1/2+z
1/2-x,y,1/2+z
1/2+x,-y,1/2+z
1/2+x,1/2+y,z
1/2-x,1/2-y,z
1/2-x,1/2+y,z
1/2+x,1/2-y,z
loop_
_atom_site_type_symbol
_atom_site_label
_atom_site_fract_x
_atom_site_fract_y
_atom_site_fract_z
Si Si1 0.196889 0.500000 0.177171
Si Si2 0.907696 0.200873 0.429536
Si Si3 0.666544 0.783710 0.625344
Si Si4 0.405171 0.895758 0.139337
Si Si5 0.351530 0.500000 0.998036
Si Si6 0.592388 0.379790 0.966930
O O1 0.150748 0.552068 0.111005
O O2 0.290883 0.500000 0.132872
O O3 0.199566 0.500000 0.349916
O O4 0.846850 0.212346 0.296908
O O5 0.905216 0.250710 0.543849
O O6 0.879806 0.146420 0.514070
O O7 0.000000 0.194888 0.370698
O O8 0.750000 0.750000 0.593569
O O9 0.660483 0.845589 0.558818
O O10 0.500000 0.913288 0.129590
O O11 0.387889 0.869265 0.297276
O O12 0.405466 0.555253 0.004501
O O13 0.500000 0.360035 0.004091
#
# Coordination Sequence:
#
# PCOD8186663 Si02
#       6
#     8  16  16  16   8  16
#     4  10  21  39  61  95 139 170 212 265 329 389
#     4  11  23  42  65  92 126 172 220 268 325 392
#     4  12  26  42  64  94 131 168 215 275 331 386
#     4   9  20  39  68  95 127 172 222 268 324 392
#     4  10  23  39  65  97 133 174 212 265 327 393
#     4  10  21  43  70  97 129 171 221 270 325 395
#
# _framework density 21.865677999999999
#
# number of rings (size 3 to 8) (size 9 to 14) (size 15 to 20)
#    0.000    1.600    0.000    4.200    2.800    5.600 
#    0.000    1.000    0.000    3.600    0.000    0.000 
#    0.000    0.000    0.000    0.000    0.000    0.000 
#
# Total GULP energy -248010.210014 kJ/mol
# GULP energy per Si atom -12400.510501 kJ/mol
# Density = 2.181591 g / cm^3
# Si number density = 21.865678 Si / 1000 Ang^3
#
#
#
# Elastic Constant Matrix: (Units=GPa)
#
#
# Indices 1 2 3 4 5 6 
#
# 1 77.3637 41.2931 42.3450 0.0000 0.0000 0.0000
# 2 41.2931 119.0586 51.4513 0.0000 0.0000 0.0000
# 3 42.3450 51.4513 110.3279 0.0000 0.0000 0.0000
# 4 0.0000 0.0000 0.0000 37.4863 0.0000 0.0000
# 5 0.0000 0.0000 0.0000 0.0000 32.6871 0.0000
# 6 0.0000 0.0000 0.0000 0.0000 0.0000 37.6657
#
#
#
# Elastic Compliance Matrix: (Units=1/GPa)
#
#
# Indices 1 2 3 4 5 6 
#
# 1 0.017785 -0.004031 -0.004946 0.000000 0.000000 0.000000
# 2 -0.004031 0.011433 -0.003785 0.000000 0.000000 0.000000
# 3 -0.004946 -0.003785 0.012727 0.000000 0.000000 0.000000
# 4 0.000000 0.000000 0.000000 0.026676 0.000000 0.000000
# 5 0.000000 0.000000 0.000000 0.000000 0.030593 0.000000
# 6 0.000000 0.000000 0.000000 0.000000 0.000000 0.026549
#
#
# Mechanical properties :
#
#
# Convention : Reuss Voigt Hill
#
# Bulk Modulus (GPa) = 60.89562 64.10321 62.49942
# Shear Modulus (GPa) = 31.89579 33.01188 32.45384
#
# Velocity S-wave (km/s) = 3.82346 3.88978 3.85676
# Velocity P-wave (km/s) = 6.88492 7.03948 6.96263
#
# Compressibility (1/GPa) = 0.01642154
#
# Stress axis : x y z
#
# Youngs Moduli (GPa) = 56.22808 87.46817 78.57169
#
# Poissons Ratio (x) = 0.35256 0.38863
# Poissons Ratio (y) = 0.22664 0.29736
# Poissons Ratio (z) = 0.27812 0.33103
#
# Static dielectric constant tensor:
#      x y z
#    x 3.660600 0.000000 0.000000 
#    y 0.000000 4.066960 0.000000 
#    z 0.000000 0.000000 3.813840 
# 
# 
# High freq. dielectric constant tensor:
#      x y z
#    x 1.851650 0.000000 0.000000 
#    y 0.000000 1.870790 0.000000 
#    z 0.000000 0.000000 1.856250 
# 
# From -- ./inp_files/3518.got.cif
#   From: 2010.03.12/outbox.cif.g09.slc.cpg/sg42_2_cif.got.tgz:3518.got - 2010.04.14 02:04:31.
