data_PCOD8186334
_publ_section_title
;
Structure prediction by ZEFSAII (Michael W. Deem and Ramdas Pophale) SiO2 
 PCOD8186334
Probable space group: F M M 2
;
_chemical_formula_sum "Si O2"
_cell_formula_units_Z 96
_cell_length_a 13.478278
_cell_length_b 21.109423
_cell_length_c 18.062481
_cell_angle_alpha 90.000000
_cell_angle_beta 90.000000
_cell_angle_gamma 90.000000
_cell_volume 5139.113100
_symmetry_space_group_name_H-M "F M M 2"
_symmetry_group_IT_number 42
_symmetry_cell_setting 'orthorhombic'
loop_
_space_group_symop_operation_xyz
x,y,z
-x,-y,z
-x,y,z
x,-y,z
x,1/2+y,1/2+z
-x,1/2-y,1/2+z
-x,1/2+y,1/2+z
x,1/2-y,1/2+z
1/2+x,y,1/2+z
1/2-x,-y,1/2+z
1/2-x,y,1/2+z
1/2+x,-y,1/2+z
1/2+x,1/2+y,z
1/2-x,1/2-y,z
1/2-x,1/2+y,z
1/2+x,1/2-y,z
loop_
_atom_site_type_symbol
_atom_site_label
_atom_site_fract_x
_atom_site_fract_y
_atom_site_fract_z
Si Si1 0.229007 0.175041 0.576180
Si Si2 0.196361 0.342729 0.915710
Si Si3 0.891096 0.717882 0.366410
Si Si4 0.115233 0.926775 0.133990
Si Si5 0.215342 0.571170 0.784380
Si Si6 0.387341 0.348444 0.721157
O O1 0.250000 0.250000 0.562706
O O2 0.176450 0.146131 0.502668
O O3 0.322617 0.128616 0.592606
O O4 0.149325 0.173241 0.641303
O O5 0.121698 0.291166 0.883378
O O6 0.311727 0.322565 0.911592
O O7 0.178308 0.402330 0.863151
O O8 0.878635 0.710826 0.277545
O O9 0.000000 0.694765 0.391709
O O10 0.131562 0.918524 0.222006
O O11 0.000000 0.915375 0.115711
O O12 0.145755 0.000000 0.111501
O O13 0.237321 0.500000 0.802507
O O14 0.320046 0.596820 0.755120
O O15 0.500000 0.373222 0.714759
#
# Coordination Sequence:
#
# PCOD8186334 Si02
#       6
#    16  16  16  16  16  16
#     4  11  22  35  53  85 122 151 186 232 285 345
#     4  10  20  35  51  79 114 142 181 223 275 338
#     4   9  18  34  53  72 102 143 181 223 268 315
#     4   9  20  39  61  84 111 149 197 241 281 333
#     4   9  19  36  60  81 105 143 189 236 275 325
#     4   9  20  35  55  80 108 143 185 228 275 330
#
# _framework density 18.680267000000001
#
# number of rings (size 3 to 8) (size 9 to 14) (size 15 to 20)
#    0.000    2.500    1.667    0.000    7.000    3.667 
#    0.000    0.000    0.000    0.000    0.000    2.333 
#    0.000    0.000    0.000    0.000    0.000    0.000 
#
# Total GULP energy -297381.637175 kJ/mol
# GULP energy per Si atom -12390.901549 kJ/mol
# Density = 1.863775 g / cm^3
# Si number density = 18.680267 Si / 1000 Ang^3
#
#
#
# Elastic Constant Matrix: (Units=GPa)
#
#
# Indices 1 2 3 4 5 6 
#
# 1 58.5906 11.2759 2.9729 0.0000 0.0000 0.0000
# 2 11.2759 99.0761 42.2573 0.0000 0.0000 0.0000
# 3 2.9729 42.2573 116.8998 0.0000 0.0000 0.0000
# 4 0.0000 0.0000 0.0000 19.9389 0.0000 0.0000
# 5 0.0000 0.0000 0.0000 0.0000 17.2291 0.0000
# 6 0.0000 0.0000 0.0000 0.0000 0.0000 17.6609
#
#
#
# Elastic Compliance Matrix: (Units=1/GPa)
#
#
# Indices 1 2 3 4 5 6 
#
# 1 0.017460 -0.002125 0.000324 0.000000 0.000000 0.000000
# 2 -0.002125 0.012192 -0.004353 0.000000 0.000000 0.000000
# 3 0.000324 -0.004353 0.010120 0.000000 0.000000 0.000000
# 4 0.000000 0.000000 0.000000 0.050153 0.000000 0.000000
# 5 0.000000 0.000000 0.000000 0.000000 0.058041 0.000000
# 6 0.000000 0.000000 0.000000 0.000000 0.000000 0.056622
#
#
# Mechanical properties :
#
#
# Convention : Reuss Voigt Hill
#
# Bulk Modulus (GPa) = 36.41249 43.06433 39.73841
# Shear Modulus (GPa) = 22.11886 25.50313 23.81099
#
# Velocity S-wave (km/s) = 3.44477 3.69893 3.57411
# Velocity P-wave (km/s) = 5.94616 6.43010 6.19286
#
# Compressibility (1/GPa) = 0.02746310
#
# Stress axis : x y z
#
# Youngs Moduli (GPa) = 57.27317 82.02239 98.81766
#
# Poissons Ratio (x) = 0.17434 -0.03204
# Poissons Ratio (y) = 0.12173 0.43016
# Poissons Ratio (z) = -0.01857 0.35705
#
# Static dielectric constant tensor:
#      x y z
#    x 3.473400 0.000000 0.000000 
#    y 0.000000 3.421110 0.000000 
#    z 0.000000 0.000000 3.543410 
# 
# 
# High freq. dielectric constant tensor:
#      x y z
#    x 1.718030 0.000000 0.000000 
#    y 0.000000 1.712860 0.000000 
#    z 0.000000 0.000000 1.729340 
# 
# From -- ./inp_files/14016.got.cif
#   From: 2010.03.12/outbox.cif.g09.slc.cpg/sg42_8_cif.got.tgz:14016.got - 2010.04.14 02:04:31.
