data_PCOD8186332
_publ_section_title
;
Structure prediction by ZEFSAII (Michael W. Deem and Ramdas Pophale) SiO2 
 PCOD8186332
Probable space group: F M M 2
;
_chemical_formula_sum "Si O2"
_cell_formula_units_Z 96
_cell_length_a 14.095263
_cell_length_b 13.949272
_cell_length_c 23.903069
_cell_angle_alpha 90.000000
_cell_angle_beta 90.000000
_cell_angle_gamma 90.000000
_cell_volume 4699.789337
_symmetry_space_group_name_H-M "F M M 2"
_symmetry_group_IT_number 42
_symmetry_cell_setting 'orthorhombic'
loop_
_space_group_symop_operation_xyz
x,y,z
-x,-y,z
-x,y,z
x,-y,z
x,1/2+y,1/2+z
-x,1/2-y,1/2+z
-x,1/2+y,1/2+z
x,1/2-y,1/2+z
1/2+x,y,1/2+z
1/2-x,-y,1/2+z
1/2-x,y,1/2+z
1/2+x,-y,1/2+z
1/2+x,1/2+y,z
1/2-x,1/2-y,z
1/2-x,1/2+y,z
1/2+x,1/2-y,z
loop_
_atom_site_type_symbol
_atom_site_label
_atom_site_fract_x
_atom_site_fract_y
_atom_site_fract_z
Si Si1 0.216697 0.887422 0.933480
Si Si2 0.290593 0.607105 0.806485
Si Si3 0.887945 0.285595 0.980737
Si Si4 0.612045 0.107317 0.092689
Si Si5 0.108557 0.300729 0.204460
Si Si6 0.105339 0.604581 0.745941
O O1 0.186639 0.863552 0.869900
O O2 0.146862 0.824533 0.973013
O O3 0.326462 0.855392 0.940784
O O4 0.205013 0.000000 0.947450
O O5 0.327301 0.500000 0.795064
O O6 0.342550 0.674899 0.762907
O O7 0.177553 0.615036 0.797514
O O8 0.000000 0.295786 0.967653
O O9 0.862096 0.319217 0.043487
O O10 0.500000 0.102341 0.098937
O O11 0.656000 0.147546 0.150952
O O12 0.652347 0.000000 0.080961
O O13 0.121246 0.185593 0.198272
O O14 0.000000 0.332183 0.209019
O O15 0.117801 0.500000 0.716972
O O16 0.000000 0.615937 0.771838
#
# Coordination Sequence:
#
# PCOD8186332 Si02
#       6
#    16  16  16  16  16  16
#     4  10  23  41  60  88 126 160 201 254 303 362
#     4  10  21  37  56  82 118 155 190 237 296 356
#     4  10  22  40  64  88 117 160 208 254 303 352
#     4   9  18  36  61  88 116 149 198 253 298 350
#     4  10  20  34  59  89 118 151 190 239 297 359
#     4   9  19  35  53  78 116 157 196 235 280 345
#
# _framework density 20.426447
#
# number of rings (size 3 to 8) (size 9 to 14) (size 15 to 20)
#    0.000    2.333    0.000    1.500    4.667    3.667 
#    6.000    4.167    0.000    3.000    0.000    0.000 
#    0.000    0.000    0.000    0.000    0.000    0.000 
#
# Total GULP energy -297414.931119 kJ/mol
# GULP energy per Si atom -12392.288797 kJ/mol
# Density = 2.037996 g / cm^3
# Si number density = 20.426447 Si / 1000 Ang^3
#
#
#
# Elastic Constant Matrix: (Units=GPa)
#
#
# Indices 1 2 3 4 5 6 
#
# 1 77.7893 43.3399 39.4518 0.0000 0.0000 0.0000
# 2 43.3399 167.7395 80.4094 0.0000 0.0000 0.0000
# 3 39.4518 80.4094 122.6702 0.0000 0.0000 0.0000
# 4 0.0000 0.0000 0.0000 32.0664 0.0000 0.0000
# 5 0.0000 0.0000 0.0000 0.0000 23.3472 0.0000
# 6 0.0000 0.0000 0.0000 0.0000 0.0000 27.2972
#
#
#
# Elastic Compliance Matrix: (Units=1/GPa)
#
#
# Indices 1 2 3 4 5 6 
#
# 1 0.016014 -0.002433 -0.003555 0.000000 0.000000 0.000000
# 2 -0.002433 0.009063 -0.005158 0.000000 0.000000 0.000000
# 3 -0.003555 -0.005158 0.012676 0.000000 0.000000 0.000000
# 4 0.000000 0.000000 0.000000 0.031185 0.000000 0.000000
# 5 0.000000 0.000000 0.000000 0.000000 0.042832 0.000000
# 6 0.000000 0.000000 0.000000 0.000000 0.000000 0.036634
#
#
# Mechanical properties :
#
#
# Convention : Reuss Voigt Hill
#
# Bulk Modulus (GPa) = 64.68279 77.17791 70.93035
# Shear Modulus (GPa) = 28.43316 30.20870 29.32093
#
# Velocity S-wave (km/s) = 3.73497 3.84982 3.79283
# Velocity P-wave (km/s) = 7.09471 7.59123 7.34717
#
# Compressibility (1/GPa) = 0.01546006
#
# Stress axis : x y z
#
# Youngs Moduli (GPa) = 62.44523 110.33854 78.88649
#
# Poissons Ratio (x) = 0.26850 0.28046
# Poissons Ratio (y) = 0.15195 0.40691
# Poissons Ratio (z) = 0.22200 0.56914
#
# Static dielectric constant tensor:
#      x y z
#    x 3.693500 0.000000 0.000000 
#    y 0.000000 4.080530 0.000000 
#    z 0.000000 0.000000 3.568460 
# 
# 
# High freq. dielectric constant tensor:
#      x y z
#    x 1.785730 0.000000 0.000000 
#    y 0.000000 1.817900 0.000000 
#    z 0.000000 0.000000 1.775800 
# 
# From -- ./inp_files/25090.got.cif
#   From: 2010.03.12/outbox.cif.g09.slc.cpg/sg42_13_cif.got.tgz:25090.got - 2010.04.14 02:04:31.
