data_PCOD8186047
_publ_section_title
;
Structure prediction by ZEFSAII (Michael W. Deem and Ramdas Pophale) SiO2 
 PCOD8186047
Probable space group: F M M 2
;
_chemical_formula_sum "Si O2"
_cell_formula_units_Z 80
_cell_length_a 17.783853
_cell_length_b 7.820634
_cell_length_c 29.094333
_cell_angle_alpha 90.000000
_cell_angle_beta 90.000000
_cell_angle_gamma 90.000000
_cell_volume 4046.469086
_symmetry_space_group_name_H-M "F M M 2"
_symmetry_group_IT_number 42
_symmetry_cell_setting 'orthorhombic'
loop_
_space_group_symop_operation_xyz
x,y,z
-x,-y,z
-x,y,z
x,-y,z
x,1/2+y,1/2+z
-x,1/2-y,1/2+z
-x,1/2+y,1/2+z
x,1/2-y,1/2+z
1/2+x,y,1/2+z
1/2-x,-y,1/2+z
1/2-x,y,1/2+z
1/2+x,-y,1/2+z
1/2+x,1/2+y,z
1/2-x,1/2-y,z
1/2-x,1/2+y,z
1/2+x,1/2-y,z
loop_
_atom_site_type_symbol
_atom_site_label
_atom_site_fract_x
_atom_site_fract_y
_atom_site_fract_z
Si Si1 0.589295 0.692658 0.985370
Si Si2 0.835527 0.193820 0.800137
Si Si3 0.910963 0.500000 0.746924
Si Si4 0.089648 0.000000 0.142868
Si Si5 0.085920 0.695736 0.887242
Si Si6 0.910557 0.688140 0.082585
O O1 0.500000 0.699616 0.986967
O O2 0.619199 0.500000 0.984915
O O3 0.617763 0.785279 0.939034
O O4 0.621401 0.784164 0.030965
O O5 0.750000 0.250000 0.798362
O O6 0.883852 0.325248 0.770232
O O7 0.863764 0.194070 0.852727
O O8 0.844237 0.000000 0.781008
O O9 0.880487 0.500000 0.694793
O O10 0.000000 0.500000 0.749219
O O11 0.121646 0.831534 0.117121
O O12 0.000000 0.000000 0.141759
O O13 0.090947 0.500000 0.871550
O O14 0.000000 0.762166 0.884765
O O15 0.885122 0.500000 0.099701
O O16 0.000000 0.702535 0.081437
#
# Coordination Sequence:
#
# PCOD8186047 Si02
#       6
#    16  16   8   8  16  16
#     4   9  15  24  41  71 111 153 191 230 285 347
#     4  12  24  42  64  86 120 160 205 249 305 365
#     4  11  24  42  64  93 123 155 201 258 309 357
#     4   9  18  32  50  75 112 147 183 238 300 349
#     4  10  19  32  52  83 121 156 196 245 293 349
#     4   9  15  25  43  69 108 151 186 229 289 350
#
# _framework density 19.770323000000001
#
# number of rings (size 3 to 8) (size 9 to 14) (size 15 to 20)
#    0.000    2.000    3.000    1.800    0.000    5.600 
#    0.000    2.000    0.000    0.000    0.000    1.400 
#    0.000    0.000    0.000    0.000    0.000    0.000 
#
# Total GULP energy -247948.643278 kJ/mol
# GULP energy per Si atom -12397.432164 kJ/mol
# Density = 1.972532 g / cm^3
# Si number density = 19.770323 Si / 1000 Ang^3
#
#
#
# Elastic Constant Matrix: (Units=GPa)
#
#
# Indices 1 2 3 4 5 6 
#
# 1 43.6000 27.0126 28.9538 0.0000 0.0000 0.0000
# 2 27.0126 166.8538 68.9619 0.0000 0.0000 0.0000
# 3 28.9538 68.9619 146.3368 0.0000 0.0000 0.0000
# 4 0.0000 0.0000 0.0000 25.4104 0.0000 0.0000
# 5 0.0000 0.0000 0.0000 0.0000 0.2675 0.0000
# 6 0.0000 0.0000 0.0000 0.0000 0.0000 17.4263
#
#
#
# Elastic Compliance Matrix: (Units=1/GPa)
#
#
# Indices 1 2 3 4 5 6 
#
# 1 0.027366 -0.002723 -0.004131 0.000000 0.000000 0.000000
# 2 -0.002723 0.007714 -0.003096 0.000000 0.000000 0.000000
# 3 -0.004131 -0.003096 0.009110 0.000000 0.000000 0.000000
# 4 0.000000 0.000000 0.000000 0.039354 0.000000 0.000000
# 5 0.000000 0.000000 0.000000 0.000000 3.738605 0.000000
# 6 0.000000 0.000000 0.000000 0.000000 0.000000 0.057385
#
#
# Mechanical properties :
#
#
# Convention : Reuss Voigt Hill
#
# Bulk Modulus (GPa) = 41.17119 67.40525 54.28822
# Shear Modulus (GPa) = 1.27958 24.07833 12.67895
#
# Velocity S-wave (km/s) = 0.80537 3.49363 2.53516
# Velocity P-wave (km/s) = 4.66206 7.10226 6.00737
#
# Compressibility (1/GPa) = 0.02428883
#
# Stress axis : x y z
#
# Youngs Moduli (GPa) = 36.54124 129.63652 109.76692
#
# Poissons Ratio (x) = 0.35298 0.45350
# Poissons Ratio (y) = 0.09950 0.33989
# Poissons Ratio (z) = 0.15097 0.40141
#
# Static dielectric constant tensor:
#      x y z
#    x 3.021690 0.000000 0.000000 
#    y 0.000000 3.874380 0.000000 
#    z 0.000000 0.000000 3.822510 
# 
# 
# High freq. dielectric constant tensor:
#      x y z
#    x 1.704450 0.000000 0.000000 
#    y 0.000000 1.786630 0.000000 
#    z 0.000000 0.000000 1.775900 
# 
# From -- ./inp_files/32774.got.cif
#   From: 2010.03.12/outbox.cif.g09.slc.cpg/sg42_17_cif.got.tgz:32774.got - 2010.04.14 02:04:31.
