data_PCOD8186317
_publ_section_title
;
Structure prediction by ZEFSAII (Michael W. Deem and Ramdas Pophale) SiO2 
 PCOD8186317
Probable space group: F M M 2
;
_chemical_formula_sum "Si O2"
_cell_formula_units_Z 80
_cell_length_a 8.729230
_cell_length_b 15.739322
_cell_length_c 28.495239
_cell_angle_alpha 90.000000
_cell_angle_beta 90.000000
_cell_angle_gamma 90.000000
_cell_volume 3915.022487
_symmetry_space_group_name_H-M "F M M 2"
_symmetry_group_IT_number 42
_symmetry_cell_setting 'orthorhombic'
loop_
_space_group_symop_operation_xyz
x,y,z
-x,-y,z
-x,y,z
x,-y,z
x,1/2+y,1/2+z
-x,1/2-y,1/2+z
-x,1/2+y,1/2+z
x,1/2-y,1/2+z
1/2+x,y,1/2+z
1/2-x,-y,1/2+z
1/2-x,y,1/2+z
1/2+x,-y,1/2+z
1/2+x,1/2+y,z
1/2-x,1/2-y,z
1/2-x,1/2+y,z
1/2+x,1/2-y,z
loop_
_atom_site_type_symbol
_atom_site_label
_atom_site_fract_x
_atom_site_fract_y
_atom_site_fract_z
Si Si1 0.318359 0.000000 0.594190
Si Si2 0.181302 0.000000 0.201993
Si Si3 0.180840 0.160340 0.259328
Si Si4 0.680966 0.161865 0.042833
Si Si5 0.819203 0.160519 0.365912
Si Si6 0.326886 0.404289 0.953582
O O1 0.251032 0.915313 0.571854
O O2 0.500000 0.000000 0.587668
O O3 0.267868 0.000000 0.648335
O O4 0.247078 0.915180 0.226949
O O5 0.000000 0.000000 0.207980
O O6 0.250000 0.250000 0.242719
O O7 0.229218 0.138466 0.312740
O O8 0.000000 0.168480 0.254795
O O9 0.500000 0.162412 0.048689
O O10 0.750000 0.250000 0.062564
O O11 0.725804 0.153211 0.988165
O O12 0.750000 0.250000 0.381326
O O13 0.745540 0.093267 0.401563
O O14 0.000000 0.160784 0.371655
O O15 0.500000 0.368577 0.952282
O O16 0.326142 0.500000 0.973218
#
# Coordination Sequence:
#
# PCOD8186317 Si02
#       6
#     8   8  16  16  16  16
#     4  11  23  43  66  93 126 157 200 257 312 369
#     4   9  20  39  64  89 118 157 196 245 306 361
#     4   9  19  37  60  87 120 159 201 246 295 353
#     4  12  25  43  67  92 123 162 205 251 306 367
#     4  10  20  34  56  83 119 159 203 246 291 352
#     4  11  23  38  58  86 124 161 201 250 301 357
#
# _framework density 20.434111999999999
#
# number of rings (size 3 to 8) (size 9 to 14) (size 15 to 20)
#    0.000    1.600    1.000    3.900    1.400    2.800 
#    0.000    4.500    0.000    0.000    0.000    0.000 
#    0.000    0.000    0.000    0.000    0.000    0.000 
#
# Total GULP energy -248052.841292 kJ/mol
# GULP energy per Si atom -12402.642065 kJ/mol
# Density = 2.038760 g / cm^3
# Si number density = 20.434112 Si / 1000 Ang^3
#
#
#
# Elastic Constant Matrix: (Units=GPa)
#
#
# Indices 1 2 3 4 5 6 
#
# 1 106.1318 51.0029 47.4865 0.0000 0.0000 0.0000
# 2 51.0029 157.2503 75.2500 0.0000 0.0000 0.0000
# 3 47.4865 75.2500 124.6944 0.0000 0.0000 0.0000
# 4 0.0000 0.0000 0.0000 24.8085 0.0000 0.0000
# 5 0.0000 0.0000 0.0000 0.0000 25.5610 0.0000
# 6 0.0000 0.0000 0.0000 0.0000 0.0000 33.1370
#
#
#
# Elastic Compliance Matrix: (Units=1/GPa)
#
#
# Indices 1 2 3 4 5 6 
#
# 1 0.011964 -0.002390 -0.003114 0.000000 0.000000 0.000000
# 2 -0.002390 0.009419 -0.004774 0.000000 0.000000 0.000000
# 3 -0.003114 -0.004774 0.012086 0.000000 0.000000 0.000000
# 4 0.000000 0.000000 0.000000 0.040309 0.000000 0.000000
# 5 0.000000 0.000000 0.000000 0.000000 0.039122 0.000000
# 6 0.000000 0.000000 0.000000 0.000000 0.000000 0.030178
#
#
# Mechanical properties :
#
#
# Convention : Reuss Voigt Hill
#
# Bulk Modulus (GPa) = 77.43788 81.72837 79.58312
# Shear Modulus (GPa) = 29.77282 30.99045 30.38164
#
# Velocity S-wave (km/s) = 3.82123 3.89858 3.86010
# Velocity P-wave (km/s) = 7.57943 7.76841 7.67450
#
# Compressibility (1/GPa) = 0.01291358
#
# Stress axis : x y z
#
# Youngs Moduli (GPa) = 83.58305 106.16754 82.73884
#
# Poissons Ratio (x) = 0.25379 0.25762
# Poissons Ratio (y) = 0.19981 0.39498
# Poissons Ratio (z) = 0.26025 0.50682
#
# Static dielectric constant tensor:
#      x y z
#    x 3.607530 0.000000 0.000000 
#    y 0.000000 3.769310 0.000000 
#    z 0.000000 0.000000 3.764970 
# 
# 
# High freq. dielectric constant tensor:
#      x y z
#    x 1.793860 0.000000 0.000000 
#    y 0.000000 1.807140 0.000000 
#    z 0.000000 0.000000 1.797070 
# 
# From -- ./inp_files/31328.got.cif
#   From: 2010.03.12/outbox.cif.g09.slc.cpg/sg42_16_cif.got.tgz:31328.got - 2010.04.14 02:04:31.
