data_PCOD8186003
_publ_section_title
;
Structure prediction by ZEFSAII (Michael W. Deem and Ramdas Pophale) SiO2 
 PCOD8186003
Probable space group: F M M 2
;
_chemical_formula_sum "Si O2"
_cell_formula_units_Z 96
_cell_length_a 18.431751
_cell_length_b 8.732829
_cell_length_c 31.508451
_cell_angle_alpha 90.000000
_cell_angle_beta 90.000000
_cell_angle_gamma 90.000000
_cell_volume 5071.642168
_symmetry_space_group_name_H-M "F M M 2"
_symmetry_group_IT_number 42
_symmetry_cell_setting 'orthorhombic'
loop_
_space_group_symop_operation_xyz
x,y,z
-x,-y,z
-x,y,z
x,-y,z
x,1/2+y,1/2+z
-x,1/2-y,1/2+z
-x,1/2+y,1/2+z
x,1/2-y,1/2+z
1/2+x,y,1/2+z
1/2-x,-y,1/2+z
1/2-x,y,1/2+z
1/2+x,-y,1/2+z
1/2+x,1/2+y,z
1/2-x,1/2-y,z
1/2-x,1/2+y,z
1/2+x,1/2-y,z
loop_
_atom_site_type_symbol
_atom_site_label
_atom_site_fract_x
_atom_site_fract_y
_atom_site_fract_z
Si Si1 0.582947 0.317239 0.290380
Si Si2 0.828971 0.817959 0.027758
Si Si3 0.171113 0.318651 0.366310
Si Si4 0.418431 0.316615 0.107586
Si Si5 0.085818 0.832892 0.198409
Si Si6 0.581400 0.317965 0.947049
O O1 0.500000 0.271287 0.301073
O O2 0.591727 0.500000 0.291847
O O3 0.636619 0.237314 0.322692
O O4 0.605458 0.251975 0.243286
O O5 0.750000 0.750000 0.022951
O O6 0.876890 0.757500 0.988536
O O7 0.824616 0.000000 0.027726
O O8 0.865053 0.755552 0.071124
O O9 0.176653 0.500000 0.365957
O O10 0.250000 0.250000 0.372292
O O11 0.122089 0.258233 0.405119
O O12 0.500000 0.259771 0.097154
O O13 0.417859 0.500000 0.109503
O O14 0.391625 0.250124 0.153880
O O15 0.000000 0.853876 0.196943
O O16 0.122878 0.000000 0.199100
O O17 0.500000 0.250414 0.947151
O O18 0.578812 0.500000 0.947371
#
# Coordination Sequence:
#
# PCOD8186003 Si02
#       6
#    16  16  16  16  16  16
#     4   9  17  31  52  76 101 129 163 204 247 291
#     4  10  19  31  49  72  99 128 156 191 235 284
#     4  11  22  35  51  71  99 132 164 201 245 293
#     4   8  13  24  46  73  95 121 162 202 232 271
#     4   7  11  22  43  71  98 122 154 199 242 276
#     4   9  18  33  53  75  95 119 157 202 242 282
#
# _framework density 18.92878
#
# number of rings (size 3 to 8) (size 9 to 14) (size 15 to 20)
#    0.000    3.000    0.000    4.000    0.000    3.000 
#    0.000    1.667    0.000    7.000    0.000    2.333 
#    0.000    0.000    0.000    0.000    0.000    0.000 
#
# Total GULP energy -297362.844989 kJ/mol
# GULP energy per Si atom -12390.118541 kJ/mol
# Density = 1.888570 g / cm^3
# Si number density = 18.928780 Si / 1000 Ang^3
#
#
#
# Elastic Constant Matrix: (Units=GPa)
#
#
# Indices 1 2 3 4 5 6 
#
# 1 142.5133 21.8786 94.5599 0.0000 0.0000 0.0000
# 2 21.8786 21.9569 23.8566 0.0000 0.0000 0.0000
# 3 94.5599 23.8566 202.0714 0.0000 0.0000 0.0000
# 4 0.0000 0.0000 0.0000 15.1581 0.0000 0.0000
# 5 0.0000 0.0000 0.0000 0.0000 12.8114 0.0000
# 6 0.0000 0.0000 0.0000 0.0000 0.0000 17.2623
#
#
#
# Elastic Compliance Matrix: (Units=1/GPa)
#
#
# Indices 1 2 3 4 5 6 
#
# 1 0.010838 -0.006067 -0.004355 0.000000 0.000000 0.000000
# 2 -0.006067 0.055642 -0.003730 0.000000 0.000000 0.000000
# 3 -0.004355 -0.003730 0.007427 0.000000 0.000000 0.000000
# 4 0.000000 0.000000 0.000000 0.065972 0.000000 0.000000
# 5 0.000000 0.000000 0.000000 0.000000 0.078055 0.000000
# 6 0.000000 0.000000 0.000000 0.000000 0.000000 0.057930
#
#
# Mechanical properties :
#
#
# Convention : Reuss Voigt Hill
#
# Bulk Modulus (GPa) = 21.92882 71.90353 46.91617
# Shear Modulus (GPa) = 15.65581 24.12946 19.89263
#
# Velocity S-wave (km/s) = 2.87904 3.57424 3.24531
# Velocity P-wave (km/s) = 4.76045 7.42310 6.23555
#
# Compressibility (1/GPa) = 0.04560210
#
# Stress axis : x y z
#
# Youngs Moduli (GPa) = 92.26549 17.97206 134.63914
#
# Poissons Ratio (x) = 0.10904 0.58642
# Poissons Ratio (y) = 0.55980 0.50219
# Poissons Ratio (z) = 0.40186 0.06703
#
# Static dielectric constant tensor:
#      x y z
#    x 3.355280 0.000000 0.000000 
#    y 0.000000 2.900260 0.000000 
#    z 0.000000 0.000000 4.113600 
# 
# 
# High freq. dielectric constant tensor:
#      x y z
#    x 1.719440 0.000000 0.000000 
#    y 0.000000 1.675830 0.000000 
#    z 0.000000 0.000000 1.765800 
# 
# From -- ./inp_files/31442.got.cif
#   From: 2010.03.12/outbox.cif.g09.slc.cpg/sg42_16_cif.got.tgz:31442.got - 2010.04.14 02:04:31.
