data_PCOD8186487
_publ_section_title
;
Structure prediction by ZEFSAII (Michael W. Deem and Ramdas Pophale) SiO2 
 PCOD8186487
Probable space group: F M M 2
;
_chemical_formula_sum "Si O2"
_cell_formula_units_Z 80
_cell_length_a 17.836128
_cell_length_b 7.576749
_cell_length_c 29.334793
_cell_angle_alpha 90.000000
_cell_angle_beta 90.000000
_cell_angle_gamma 90.000000
_cell_volume 3964.299965
_symmetry_space_group_name_H-M "F M M 2"
_symmetry_group_IT_number 42
_symmetry_cell_setting 'orthorhombic'
loop_
_space_group_symop_operation_xyz
x,y,z
-x,-y,z
-x,y,z
x,-y,z
x,1/2+y,1/2+z
-x,1/2-y,1/2+z
-x,1/2+y,1/2+z
x,1/2-y,1/2+z
1/2+x,y,1/2+z
1/2-x,-y,1/2+z
1/2-x,y,1/2+z
1/2+x,-y,1/2+z
1/2+x,1/2+y,z
1/2-x,1/2-y,z
1/2-x,1/2+y,z
1/2+x,1/2-y,z
loop_
_atom_site_type_symbol
_atom_site_label
_atom_site_fract_x
_atom_site_fract_y
_atom_site_fract_z
Si Si1 0.416100 0.290924 0.773160
Si Si2 0.663001 0.792758 0.365205
Si Si3 0.411154 0.500000 0.527678
Si Si4 0.335949 0.293604 0.683108
Si Si5 0.914682 0.696135 0.592870
Si Si6 0.089269 0.500000 0.924985
O O1 0.500000 0.213954 0.778342
O O2 0.418077 0.500000 0.770921
O O3 0.366529 0.229810 0.815944
O O4 0.379703 0.216291 0.726876
O O5 0.750000 0.750000 0.368073
O O6 0.619290 0.679410 0.402602
O O7 0.647415 0.000000 0.374090
O O8 0.500000 0.500000 0.524935
O O9 0.381907 0.327749 0.554741
O O10 0.379236 0.500000 0.476652
O O11 0.350234 0.500000 0.677384
O O12 0.250000 0.250000 0.690641
O O13 0.365381 0.198335 0.638206
O O14 0.910942 0.500000 0.571982
O O15 0.000000 0.749115 0.605651
O O16 0.000000 0.500000 0.922491
#
# Coordination Sequence:
#
# PCOD8186487 Si02
#       6
#    16  16   8  16  16   8
#     4   9  19  35  58  89 122 164 210 254 307 369
#     4  11  22  41  66  91 132 170 210 260 322 379
#     4   9  20  40  64  89 120 155 201 260 316 366
#     4  11  21  35  56  82 125 165 205 248 306 366
#     4  10  20  37  62  89 118 155 201 253 307 366
#     4  11  24  42  68  99 125 163 217 266 323 388
#
# _framework density 20.180108000000001
#
# number of rings (size 3 to 8) (size 9 to 14) (size 15 to 20)
#    0.000    1.800    2.000    2.400    0.000    2.800 
#    3.600    3.000    0.000    0.000    0.000    0.000 
#    0.000    0.000    0.000    0.000    0.000    0.000 
#
# Total GULP energy -248042.340848 kJ/mol
# GULP energy per Si atom -12402.117042 kJ/mol
# Density = 2.013418 g / cm^3
# Si number density = 20.180108 Si / 1000 Ang^3
#
#
#
# Elastic Constant Matrix: (Units=GPa)
#
#
# Indices 1 2 3 4 5 6 
#
# 1 113.9898 26.4573 54.2447 0.0000 0.0000 0.0000
# 2 26.4573 112.7263 60.1889 0.0000 0.0000 0.0000
# 3 54.2447 60.1889 173.5887 0.0000 0.0000 0.0000
# 4 0.0000 0.0000 0.0000 8.7032 0.0000 0.0000
# 5 0.0000 0.0000 0.0000 0.0000 13.7603 0.0000
# 6 0.0000 0.0000 0.0000 0.0000 0.0000 21.0555
#
#
#
# Elastic Compliance Matrix: (Units=1/GPa)
#
#
# Indices 1 2 3 4 5 6 
#
# 1 0.010373 -0.000864 -0.002942 0.000000 0.000000 0.000000
# 2 -0.000864 0.010958 -0.003530 0.000000 0.000000 0.000000
# 3 -0.002942 -0.003530 0.007904 0.000000 0.000000 0.000000
# 4 0.000000 0.000000 0.000000 0.114900 0.000000 0.000000
# 5 0.000000 0.000000 0.000000 0.000000 0.072673 0.000000
# 6 0.000000 0.000000 0.000000 0.000000 0.000000 0.047494
#
#
# Mechanical properties :
#
#
# Convention : Reuss Voigt Hill
#
# Bulk Modulus (GPa) = 68.65976 75.78739 72.22358
# Shear Modulus (GPa) = 17.61633 25.99807 21.80720
#
# Velocity S-wave (km/s) = 2.95779 3.59319 3.29086
# Velocity P-wave (km/s) = 6.76476 7.40619 7.09273
#
# Compressibility (1/GPa) = 0.01456457
#
# Stress axis : x y z
#
# Youngs Moduli (GPa) = 96.40197 91.25390 126.51865
#
# Poissons Ratio (x) = 0.07882 0.37222
# Poissons Ratio (y) = 0.08327 0.44658
# Poissons Ratio (z) = 0.28362 0.32210
#
# Static dielectric constant tensor:
#      x y z
#    x 3.593730 0.000000 0.000000 
#    y 0.000000 3.751260 0.000000 
#    z 0.000000 0.000000 3.781210 
# 
# 
# High freq. dielectric constant tensor:
#      x y z
#    x 1.783410 0.000000 0.000000 
#    y 0.000000 1.793010 0.000000 
#    z 0.000000 0.000000 1.785510 
# 
# From -- ./inp_files/31283.got.cif
#   From: 2010.03.12/outbox.cif.g09.slc.cpg/sg42_16_cif.got.tgz:31283.got - 2010.04.14 02:04:31.
