data_PCOD8186545
_publ_section_title
;
Structure prediction by ZEFSAII (Michael W. Deem and Ramdas Pophale) SiO2 
 PCOD8186545
Probable space group: F M M 2
;
_chemical_formula_sum "Si O2"
_cell_formula_units_Z 88
_cell_length_a 17.165857
_cell_length_b 27.133597
_cell_length_c 8.707145
_cell_angle_alpha 90.000000
_cell_angle_beta 90.000000
_cell_angle_gamma 90.000000
_cell_volume 4055.539517
_symmetry_space_group_name_H-M "F M M 2"
_symmetry_group_IT_number 42
_symmetry_cell_setting 'orthorhombic'
loop_
_space_group_symop_operation_xyz
x,y,z
-x,-y,z
-x,y,z
x,-y,z
x,1/2+y,1/2+z
-x,1/2-y,1/2+z
-x,1/2+y,1/2+z
x,1/2-y,1/2+z
1/2+x,y,1/2+z
1/2-x,-y,1/2+z
1/2-x,y,1/2+z
1/2+x,-y,1/2+z
1/2+x,1/2+y,z
1/2-x,1/2-y,z
1/2-x,1/2+y,z
1/2+x,1/2-y,z
loop_
_atom_site_type_symbol
_atom_site_label
_atom_site_fract_x
_atom_site_fract_y
_atom_site_fract_z
Si Si1 0.500000 0.416489 0.105911
Si Si2 0.129514 0.000000 0.612269
Si Si3 0.837579 0.236211 0.879658
Si Si4 0.500000 0.000000 0.857518
Si Si5 0.591069 0.813013 0.088657
Si Si6 0.842040 0.366261 0.529794
Si Si7 0.807472 0.601455 0.190540
Si Si8 0.500000 0.000000 0.361165
O O1 0.500000 0.450282 0.257245
O O2 0.425097 0.381283 0.099703
O O3 0.500000 0.450538 0.957601
O O4 0.185854 0.953142 0.622228
O O5 0.076513 0.000000 0.760987
O O6 0.078390 0.000000 0.458051
O O7 0.750000 0.250000 0.831904
O O8 0.885617 0.219389 0.733684
O O9 0.880517 0.284970 0.937746
O O10 0.838869 0.192605 0.005726
O O11 0.500000 0.822120 0.083515
O O12 0.630381 0.866296 0.096447
O O13 0.823813 0.395377 0.372175
O O14 0.779280 0.379410 0.659516
#
# Coordination Sequence:
#
# PCOD8186545 Si02
#       8
#     8   8  16   4  16  16  16   4
#     4  11  24  48  70 100 140 173 235 282 345 408
#     4  11  24  44  70 100 135 181 225 280 345 413
#     4  11  23  44  66  96 138 182 226 284 343 398
#     4  10  28  44  72 102 144 174 232 288 356 402
#     4  11  25  42  67 100 134 179 232 279 338 407
#     4  11  26  44  72  99 136 185 230 288 344 412
#     4  11  26  44  69  99 138 178 235 280 349 411
#     4  10  20  44  72  92 126 186 212 284 332 392
#
# _framework density 21.698716000000001
#
# number of rings (size 3 to 8) (size 9 to 14) (size 15 to 20)
#    0.000    1.091    3.636    1.091   14.000    2.182 
#    0.000    0.000    0.000    0.000    0.000    0.000 
#    0.000    0.000    0.000    0.000    0.000    0.000 
#
# Total GULP energy -272927.230986 kJ/mol
# GULP energy per Si atom -12405.783227 kJ/mol
# Density = 2.164933 g / cm^3
# Si number density = 21.698716 Si / 1000 Ang^3
#
#
#
# Elastic Constant Matrix: (Units=GPa)
#
#
# Indices 1 2 3 4 5 6 
#
# 1 150.9558 15.6263 13.9984 0.0000 0.0001 0.0000
# 2 15.6263 86.1188 14.0850 0.0000 0.0000 0.0000
# 3 13.9984 14.0850 51.5704 0.0000 0.0002 0.0000
# 4 0.0000 0.0000 0.0000 20.3122 0.0000 0.0000
# 5 0.0001 0.0000 0.0002 0.0000 12.4938 0.0000
# 6 0.0000 0.0000 0.0000 0.0000 0.0000 32.8441
#
#
#
# Elastic Compliance Matrix: (Units=1/GPa)
#
#
# Indices 1 2 3 4 5 6 
#
# 1 0.006875 -0.000986 -0.001597 0.000000 0.000000 0.000000
# 2 -0.000986 0.012296 -0.003091 0.000000 0.000000 0.000000
# 3 -0.001597 -0.003091 0.020669 0.000000 0.000000 0.000000
# 4 0.000000 0.000000 0.000000 0.049231 0.000000 0.000000
# 5 0.000000 0.000000 0.000000 0.000000 0.080040 0.000000
# 6 0.000000 0.000000 0.000000 0.000000 0.000000 0.030447
#
#
# Mechanical properties :
#
#
# Convention : Reuss Voigt Hill
#
# Bulk Modulus (GPa) = 35.09736 41.78494 38.44115
# Shear Modulus (GPa) = 22.68581 29.45904 26.07243
#
# Velocity S-wave (km/s) = 3.23691 3.68861 3.47012
# Velocity P-wave (km/s) = 5.49364 6.11881 5.81463
#
# Compressibility (1/GPa) = 0.02849218
#
# Stress axis : x y z
#
# Youngs Moduli (GPa) = 145.46278 81.32523 48.38275
#
# Poissons Ratio (x) = 0.08021 0.07725
# Poissons Ratio (y) = 0.14346 0.14954
# Poissons Ratio (z) = 0.23226 0.25135
#
# Static dielectric constant tensor:
#      x y z
#    x 3.894770 0.000000 0.000000 
#    y 0.000000 4.177120 0.000000 
#    z 0.000000 0.000000 3.855120 
# 
# 
# High freq. dielectric constant tensor:
#      x y z
#    x 1.858610 0.000000 0.000000 
#    y 0.000000 1.864350 0.000000 
#    z 0.000000 0.000000 1.852570 
# 
# From -- ./inp_files/3670.got.cif
#   From: 2010.03.12/outbox.cif.g09.slc.cpg/sg42_2_cif.got.tgz:3670.got - 2010.04.14 02:04:31.
