data_PCOD8186005
_publ_section_title
;
Structure prediction by ZEFSAII (Michael W. Deem and Ramdas Pophale) SiO2 
 PCOD8186005
Probable space group: F M M 2
;
_chemical_formula_sum "Si O2"
_cell_formula_units_Z 80
_cell_length_a 9.029553
_cell_length_b 27.542792
_cell_length_c 20.314065
_cell_angle_alpha 90.000000
_cell_angle_beta 90.000000
_cell_angle_gamma 90.000000
_cell_volume 5052.089686
_symmetry_space_group_name_H-M "F M M 2"
_symmetry_group_IT_number 42
_symmetry_cell_setting 'orthorhombic'
loop_
_space_group_symop_operation_xyz
x,y,z
-x,-y,z
-x,y,z
x,-y,z
x,1/2+y,1/2+z
-x,1/2-y,1/2+z
-x,1/2+y,1/2+z
x,1/2-y,1/2+z
1/2+x,y,1/2+z
1/2-x,-y,1/2+z
1/2-x,y,1/2+z
1/2+x,-y,1/2+z
1/2+x,1/2+y,z
1/2-x,1/2-y,z
1/2-x,1/2+y,z
1/2+x,1/2-y,z
loop_
_atom_site_type_symbol
_atom_site_label
_atom_site_fract_x
_atom_site_fract_y
_atom_site_fract_z
Si Si1 0.333092 0.107240 0.450380
Si Si2 0.332446 0.799423 0.380479
Si Si3 0.824956 0.116124 0.323771
Si Si4 0.330319 0.443712 0.715229
Si Si5 0.171457 0.055283 0.563914
O O1 0.500000 0.087034 0.444469
O O2 0.331996 0.166358 0.445936
O O3 0.238195 0.086942 0.387932
O O4 0.265535 0.091482 0.519432
O O5 0.500000 0.788485 0.357275
O O6 0.250000 0.750000 0.397669
O O7 0.246613 0.829507 0.322923
O O8 0.780402 0.088332 0.257910
O O9 0.000000 0.120137 0.328515
O O10 0.500000 0.430829 0.732576
O O11 0.299373 0.500000 0.729497
O O12 0.296464 0.431633 0.639426
O O13 0.000000 0.062547 0.547403
O O14 0.219075 0.000000 0.549139
#
# Coordination Sequence:
#
# PCOD8186005 Si02
#       5
#    16  16  16  16  16
#     4   9  19  32  48  72  98 126 160 201 242 286
#     4   9  18  32  51  74  97 124 157 197 247 292
#     4  10  19  31  49  73  98 127 163 203 240 283
#     4   9  18  33  50  69  98 133 165 200 243 287
#     4   9  18  32  50  71  97 131 166 199 239 287
#
# _framework density 15.835031000000001
#
# number of rings (size 3 to 8) (size 9 to 14) (size 15 to 20)
#    1.200    1.600    0.000    3.600    0.000    2.400 
#    0.000    2.000    0.000    1.200    0.000    2.800 
#    0.000    0.000    0.000    0.000    0.000    0.000 
#
# Total GULP energy -247827.398941 kJ/mol
# GULP energy per Si atom -12391.369947 kJ/mol
# Density = 1.579899 g / cm^3
# Si number density = 15.835031 Si / 1000 Ang^3
#
#
#
# Elastic Constant Matrix: (Units=GPa)
#
#
# Indices 1 2 3 4 5 6 
#
# 1 135.4685 52.2418 57.5440 0.0000 0.0000 0.0000
# 2 52.2418 72.7406 46.0461 0.0000 0.0000 0.0000
# 3 57.5440 46.0461 79.7004 0.0000 0.0000 0.0000
# 4 0.0000 0.0000 0.0000 6.5956 0.0000 0.0000
# 5 0.0000 0.0000 0.0000 0.0000 31.0185 0.0000
# 6 0.0000 0.0000 0.0000 0.0000 0.0000 22.1949
#
#
#
# Elastic Compliance Matrix: (Units=1/GPa)
#
#
# Indices 1 2 3 4 5 6 
#
# 1 0.011614 -0.004782 -0.005623 0.000000 0.000000 0.000000
# 2 -0.004782 0.023643 -0.010207 0.000000 0.000000 0.000000
# 3 -0.005623 -0.010207 0.022504 0.000000 0.000000 0.000000
# 4 0.000000 0.000000 0.000000 0.151616 0.000000 0.000000
# 5 0.000000 0.000000 0.000000 0.000000 0.032239 0.000000
# 6 0.000000 0.000000 0.000000 0.000000 0.000000 0.045055
#
#
# Mechanical properties :
#
#
# Convention : Reuss Voigt Hill
#
# Bulk Modulus (GPa) = 60.46851 66.61924 63.54388
# Shear Modulus (GPa) = 14.99668 20.76698 17.88183
#
# Velocity S-wave (km/s) = 3.08077 3.62534 3.36409
# Velocity P-wave (km/s) = 7.13613 7.72568 7.43675
#
# Compressibility (1/GPa) = 0.01653753
#
# Stress axis : x y z
#
# Youngs Moduli (GPa) = 86.10013 42.29579 44.43718
#
# Poissons Ratio (x) = 0.20226 0.24987
# Poissons Ratio (y) = 0.41173 0.45357
# Poissons Ratio (z) = 0.48413 0.43171
#
# Static dielectric constant tensor:
#      x y z
#    x 3.003220 0.000000 0.000000 
#    y 0.000000 2.789030 0.000000 
#    z 0.000000 0.000000 2.784110 
# 
# 
# High freq. dielectric constant tensor:
#      x y z
#    x 1.620970 0.000000 0.000000 
#    y 0.000000 1.587480 0.000000 
#    z 0.000000 0.000000 1.588660 
# 
# From -- ./inp_files/23854.got.cif
#   From: 2010.03.12/outbox.cif.g09.slc.cpg/sg42_12_cif.got.tgz:23854.got - 2010.04.14 02:04:31.
