data_PCOD8186696
_publ_section_title
;
Structure prediction by ZEFSAII (Michael W. Deem and Ramdas Pophale) SiO2 
 PCOD8186696
Probable space group: F M M 2
;
_chemical_formula_sum "Si O2"
_cell_formula_units_Z 40
_cell_length_a 14.020714
_cell_length_b 9.656219
_cell_length_c 11.448930
_cell_angle_alpha 90.000000
_cell_angle_beta 90.000000
_cell_angle_gamma 90.000000
_cell_volume 1550.037258
_symmetry_space_group_name_H-M "F M M 2"
_symmetry_group_IT_number 42
_symmetry_cell_setting 'orthorhombic'
loop_
_space_group_symop_operation_xyz
x,y,z
-x,-y,z
-x,y,z
x,-y,z
x,1/2+y,1/2+z
-x,1/2-y,1/2+z
-x,1/2+y,1/2+z
x,1/2-y,1/2+z
1/2+x,y,1/2+z
1/2-x,-y,1/2+z
1/2-x,y,1/2+z
1/2+x,-y,1/2+z
1/2+x,1/2+y,z
1/2-x,1/2-y,z
1/2-x,1/2+y,z
1/2+x,1/2-y,z
loop_
_atom_site_type_symbol
_atom_site_label
_atom_site_fract_x
_atom_site_fract_y
_atom_site_fract_z
Si Si1 0.607140 0.500000 0.110400
Si Si2 0.290689 0.500000 0.740198
Si Si3 0.890159 0.793643 0.905598
Si Si4 0.110914 0.500000 0.993084
O O1 0.500000 0.500000 0.162663
O O2 0.676220 0.500000 0.222492
O O3 0.624373 0.635385 0.031313
O O4 0.324222 0.362816 0.807931
O O5 0.332349 0.500000 0.611711
O O6 0.000000 0.809517 0.865516
O O7 0.859031 0.633991 0.917797
O O8 0.000000 0.500000 0.024084
#
# Coordination Sequence:
#
# PCOD8186696 Si02
#       4
#     8   8  16   8
#     4   9  20  42  71 103 144 191 243 301 356 418
#     4  11  21  41  76 102 140 198 244 288 356 426
#     4   9  20  43  73 107 145 185 235 295 358 432
#     4  10  21  41  73 111 148 185 231 291 360 434
#
# _framework density 25.805833
#
# number of rings (size 3 to 8) (size 9 to 14) (size 15 to 20)
#    0.000    2.400    0.000    3.000    0.000    1.600 
#    0.000   22.000    0.000   48.000    0.000    0.000 
#    0.000    0.000    0.000    0.000    0.000    0.000 
#
# Total GULP energy -124051.587459 kJ/mol
# GULP energy per Si atom -12405.158746 kJ/mol
# Density = 2.574710 g / cm^3
# Si number density = 25.805833 Si / 1000 Ang^3
#
#
#
# Elastic Constant Matrix: (Units=GPa)
#
#
# Indices 1 2 3 4 5 6 
#
# 1 180.8294 78.3240 112.3304 0.0000 0.0000 0.0000
# 2 78.3240 232.7442 73.8800 0.0000 0.0000 0.0000
# 3 112.3304 73.8800 121.7375 0.0000 0.0000 0.0000
# 4 0.0000 0.0000 0.0000 37.6571 0.0000 0.0000
# 5 0.0000 0.0000 0.0000 0.0000 61.6614 0.0000
# 6 0.0000 0.0000 0.0000 0.0000 0.0000 -3.2094
#
#
#
# Elastic Compliance Matrix: (Units=1/GPa)
#
#
# Indices 1 2 3 4 5 6 
#
# 1 0.013050 -0.000705 -0.011613 0.000000 0.000000 0.000000
# 2 -0.000705 0.005360 -0.002602 0.000000 0.000000 0.000000
# 3 -0.011613 -0.002602 0.020510 0.000000 0.000000 0.000000
# 4 0.000000 0.000000 0.000000 0.026555 0.000000 0.000000
# 5 0.000000 0.000000 0.000000 0.000000 0.016218 0.000000
# 6 0.000000 0.000000 0.000000 0.000000 0.000000 -0.311581
#
#
# Mechanical properties :
#
#
# Convention : Reuss Voigt Hill
#
# Bulk Modulus (GPa) = 110.15872 118.26443 114.21157
# Shear Modulus (GPa) = -25.37789 37.27360 5.94786
#
# Velocity S-wave (km/s) = -3.13935 3.80463 1.51982
# Velocity P-wave (km/s) = 5.44422 8.07641 6.88723
#
# Compressibility (1/GPa) = 0.00907781
#
# Stress axis : x y z
#
# Youngs Moduli (GPa) = 76.63069 186.57227 48.75788
#
# Poissons Ratio (x) = 0.13155 0.56624
# Poissons Ratio (y) = 0.05403 0.12688
# Poissons Ratio (z) = 0.88994 0.48549
#
# Static dielectric constant tensor:
#      x y z
#    x 4.996140 0.000000 0.000000 
#    y 0.000000 4.618160 0.000000 
#    z 0.000000 0.000000 4.339050 
# 
# 
# High freq. dielectric constant tensor:
#      x y z
#    x 2.051590 0.000000 0.000000 
#    y 0.000000 2.041710 0.000000 
#    z 0.000000 0.000000 2.025720 
# 
# From -- ./inp_files/7202.got.cif
#   From: 2010.03.12/outbox.cif.g09.slc.cpg/sg42_4_cif.got.tgz:7202.got - 2010.04.14 02:04:31.
