data_PCOD8186020
_publ_section_title
;
Structure prediction by ZEFSAII (Michael W. Deem and Ramdas Pophale) SiO2 
 PCOD8186020
Probable space group: F M M 2
;
_chemical_formula_sum "Si O2"
_cell_formula_units_Z 96
_cell_length_a 25.605815
_cell_length_b 9.273261
_cell_length_c 23.473989
_cell_angle_alpha 90.000000
_cell_angle_beta 90.000000
_cell_angle_gamma 90.000000
_cell_volume 5573.884735
_symmetry_space_group_name_H-M "F M M 2"
_symmetry_group_IT_number 42
_symmetry_cell_setting 'orthorhombic'
loop_
_space_group_symop_operation_xyz
x,y,z
-x,-y,z
-x,y,z
x,-y,z
x,1/2+y,1/2+z
-x,1/2-y,1/2+z
-x,1/2+y,1/2+z
x,1/2-y,1/2+z
1/2+x,y,1/2+z
1/2-x,-y,1/2+z
1/2-x,y,1/2+z
1/2+x,-y,1/2+z
1/2+x,1/2+y,z
1/2-x,1/2-y,z
1/2-x,1/2+y,z
1/2+x,1/2-y,z
loop_
_atom_site_type_symbol
_atom_site_label
_atom_site_fract_x
_atom_site_fract_y
_atom_site_fract_z
Si Si1 0.401117 0.670784 0.471260
Si Si2 0.403464 0.328989 0.740164
Si Si3 0.198143 0.831930 0.544464
Si Si4 0.060768 0.829499 0.863801
Si Si5 0.500000 0.328980 0.541783
Si Si6 0.302174 0.169146 0.175133
Si Si7 0.000000 0.827345 0.668657
O O1 0.403632 0.500000 0.461640
O O2 0.348418 0.717876 0.503234
O O3 0.404780 0.749637 0.410969
O O4 0.448998 0.726915 0.509374
O O5 0.405102 0.500000 0.736605
O O6 0.413667 0.278092 0.804500
O O7 0.348189 0.272812 0.716094
O O8 0.449140 0.266086 0.700433
O O9 0.250000 0.750000 0.524833
O O10 0.183146 0.794430 0.609677
O O11 0.209248 0.000000 0.537816
O O12 0.000000 0.782175 0.866164
O O13 0.065686 0.000000 0.872033
O O14 0.500000 0.500000 0.545200
O O15 0.500000 0.264015 0.605048
O O16 0.250000 0.250000 0.194290
O O17 0.292925 0.000000 0.183109
O O18 0.000000 0.000000 0.668672
#
# Coordination Sequence:
#
# PCOD8186020 Si02
#       7
#    16  16  16  16   8  16   8
#     4  10  19  32  49  72  99 128 162 199 241 290
#     4   9  16  28  47  71  97 123 158 200 238 280
#     4   9  18  32  51  74  99 127 162 200 243 292
#     4  10  19  32  49  71  98 131 166 199 238 286
#     4   9  16  25  43  71  99 121 148 193 246 290
#     4   9  17  31  51  74  99 126 157 198 244 288
#     4   9  14  23  44  73  97 117 148 197 246 282
#
# _framework density 17.223177
#
# number of rings (size 3 to 8) (size 9 to 14) (size 15 to 20)
#    0.000    2.667    1.667    1.000    0.000    4.667 
#    0.000    1.667    0.000    4.000    0.000    2.333 
#    0.000    0.000    0.000    0.000    0.000    0.000 
#
# Total GULP energy -297583.766220 kJ/mol
# GULP energy per Si atom -12399.323593 kJ/mol
# Density = 1.718398 g / cm^3
# Si number density = 17.223177 Si / 1000 Ang^3
#
#
#
# Elastic Constant Matrix: (Units=GPa)
#
#
# Indices 1 2 3 4 5 6 
#
# 1 160.2460 35.3008 88.7041 0.0000 0.0000 0.0000
# 2 35.3008 21.7167 30.2562 0.0000 0.0000 0.0000
# 3 88.7041 30.2562 145.3230 0.0000 0.0000 0.0000
# 4 0.0000 0.0000 0.0000 23.4767 0.0000 0.0000
# 5 0.0000 0.0000 0.0000 0.0000 31.1046 0.0000
# 6 0.0000 0.0000 0.0000 0.0000 0.0000 24.2795
#
#
#
# Elastic Compliance Matrix: (Units=1/GPa)
#
#
# Indices 1 2 3 4 5 6 
#
# 1 0.011399 -0.012446 -0.004367 0.000000 0.000000 0.000000
# 2 -0.012446 0.078450 -0.008736 0.000000 0.000000 0.000000
# 3 -0.004367 -0.008736 0.011366 0.000000 0.000000 0.000000
# 4 0.000000 0.000000 0.000000 0.042595 0.000000 0.000000
# 5 0.000000 0.000000 0.000000 0.000000 0.032150 0.000000
# 6 0.000000 0.000000 0.000000 0.000000 0.000000 0.041187
#
#
# Mechanical properties :
#
#
# Convention : Reuss Voigt Hill
#
# Bulk Modulus (GPa) = 19.95333 70.64532 45.29933
# Shear Modulus (GPa) = 17.54685 27.30715 22.42700
#
# Velocity S-wave (km/s) = 3.19532 3.98614 3.61243
# Velocity P-wave (km/s) = 5.02232 7.89255 6.61499
#
# Compressibility (1/GPa) = 0.05011695
#
# Stress axis : x y z
#
# Youngs Moduli (GPa) = 87.72383 12.74692 87.98423
#
# Poissons Ratio (x) = 0.15865 0.38422
# Poissons Ratio (y) = 1.09180 0.76867
# Poissons Ratio (z) = 0.38308 0.11136
#
# Static dielectric constant tensor:
#      x y z
#    x 3.327070 0.000000 0.000000 
#    y 0.000000 2.800390 0.000000 
#    z 0.000000 0.000000 3.313190 
# 
# 
# High freq. dielectric constant tensor:
#      x y z
#    x 1.670450 0.000000 0.000000 
#    y 0.000000 1.622840 0.000000 
#    z 0.000000 0.000000 1.669270 
# 
# From -- ./inp_files/19155.got.cif
#   From: 2010.03.12/outbox.cif.g09.slc.cpg/sg42_10_cif.got.tgz:19155.got - 2010.04.14 02:04:31.
