data_PCOD8186722
_publ_section_title
;
Structure prediction by ZEFSAII (Michael W. Deem and Ramdas Pophale) SiO2 
 PCOD8186722
Probable space group: F M M 2
;
_chemical_formula_sum "Si O2"
_cell_formula_units_Z 80
_cell_length_a 8.797637
_cell_length_b 22.979712
_cell_length_c 20.145353
_cell_angle_alpha 90.000000
_cell_angle_beta 90.000000
_cell_angle_gamma 90.000000
_cell_volume 4072.728895
_symmetry_space_group_name_H-M "F M M 2"
_symmetry_group_IT_number 42
_symmetry_cell_setting 'orthorhombic'
loop_
_space_group_symop_operation_xyz
x,y,z
-x,-y,z
-x,y,z
x,-y,z
x,1/2+y,1/2+z
-x,1/2-y,1/2+z
-x,1/2+y,1/2+z
x,1/2-y,1/2+z
1/2+x,y,1/2+z
1/2-x,-y,1/2+z
1/2-x,y,1/2+z
1/2+x,-y,1/2+z
1/2+x,1/2+y,z
1/2-x,1/2-y,z
1/2-x,1/2+y,z
1/2+x,1/2-y,z
loop_
_atom_site_type_symbol
_atom_site_label
_atom_site_fract_x
_atom_site_fract_y
_atom_site_fract_z
Si Si1 0.822793 0.188145 0.320520
Si Si2 0.819852 0.186588 0.576328
Si Si3 0.676784 0.119049 0.949926
Si Si4 0.180241 0.500000 0.736593
Si Si5 0.820394 0.117189 0.705921
Si Si6 0.318016 0.000000 0.889263
O O1 0.750000 0.250000 0.307347
O O2 0.793118 0.168771 0.395587
O O3 0.741155 0.141797 0.274508
O O4 0.000000 0.190135 0.302727
O O5 0.750000 0.250000 0.568447
O O6 0.755001 0.143673 0.518749
O O7 0.769830 0.159404 0.646263
O O8 0.000000 0.192665 0.570035
O O9 0.500000 0.107464 0.959355
O O10 0.748202 0.057112 0.927104
O O11 0.244542 0.554656 0.696038
O O12 0.239029 0.500000 0.812981
O O13 0.000000 0.500000 0.734016
O O14 0.000000 0.110203 0.708511
O O15 0.500000 0.000000 0.888309
#
# Coordination Sequence:
#
# PCOD8186722 Si02
#       6
#    16  16  16   8  16   8
#     4  11  21  35  57  85 114 151 199 246 294 345
#     4  10  22  39  59  84 117 156 195 240 291 344
#     4   9  18  34  58  85 112 148 196 242 289 344
#     4  11  21  38  63  89 117 154 194 239 293 349
#     4  11  23  38  58  87 119 153 193 241 294 346
#     4   9  16  32  59  87 111 142 188 237 285 341
#
# _framework density 19.642848999999998
#
# number of rings (size 3 to 8) (size 9 to 14) (size 15 to 20)
#    0.000    1.800    2.000    2.700    0.000    4.000 
#    0.000    4.000    0.000    0.000    0.000    0.000 
#    0.000    0.000    0.000    0.000    0.000    0.000 
#
# Total GULP energy -248019.124009 kJ/mol
# GULP energy per Si atom -12400.956200 kJ/mol
# Density = 1.959814 g / cm^3
# Si number density = 19.642849 Si / 1000 Ang^3
#
#
#
# Elastic Constant Matrix: (Units=GPa)
#
#
# Indices 1 2 3 4 5 6 
#
# 1 49.9517 33.8490 30.3070 0.0000 0.0000 0.0000
# 2 33.8490 134.9818 27.3362 0.0000 0.0000 0.0000
# 3 30.3070 27.3362 84.5485 0.0000 0.0000 0.0000
# 4 0.0000 0.0000 0.0000 32.6462 0.0000 0.0000
# 5 0.0000 0.0000 0.0000 0.0000 20.3338 0.0000
# 6 0.0000 0.0000 0.0000 0.0000 0.0000 32.4797
#
#
#
# Elastic Compliance Matrix: (Units=1/GPa)
#
#
# Indices 1 2 3 4 5 6 
#
# 1 0.028983 -0.005526 -0.008603 0.000000 0.000000 0.000000
# 2 -0.005526 0.008981 -0.000923 0.000000 0.000000 0.000000
# 3 -0.008603 -0.000923 0.015210 0.000000 0.000000 0.000000
# 4 0.000000 0.000000 0.000000 0.030631 0.000000 0.000000
# 5 0.000000 0.000000 0.000000 0.000000 0.049179 0.000000
# 6 0.000000 0.000000 0.000000 0.000000 0.000000 0.030788
#
#
# Mechanical properties :
#
#
# Convention : Reuss Voigt Hill
#
# Bulk Modulus (GPa) = 43.34445 50.27407 46.80926
# Shear Modulus (GPa) = 24.80573 28.95792 26.88182
#
# Velocity S-wave (km/s) = 3.55750 3.84373 3.70338
# Velocity P-wave (km/s) = 6.24408 6.73414 6.49373
#
# Compressibility (1/GPa) = 0.02307100
#
# Stress axis : x y z
#
# Youngs Moduli (GPa) = 34.50257 111.34577 65.74789
#
# Poissons Ratio (x) = 0.61528 0.56561
# Poissons Ratio (y) = 0.19066 0.06068
# Poissons Ratio (z) = 0.29681 0.10277
#
# Static dielectric constant tensor:
#      x y z
#    x 3.304120 0.000000 0.000000 
#    y 0.000000 3.813310 0.000000 
#    z 0.000000 0.000000 3.742180 
# 
# 
# High freq. dielectric constant tensor:
#      x y z
#    x 1.736720 0.000000 0.000000 
#    y 0.000000 1.784590 0.000000 
#    z 0.000000 0.000000 1.769050 
# 
# From -- ./inp_files/23479.got.cif
#   From: 2010.03.12/outbox.cif.g09.slc.cpg/sg42_12_cif.got.tgz:23479.got - 2010.04.14 02:04:31.
