data_PCOD8186612
_publ_section_title
;
Structure prediction by ZEFSAII (Michael W. Deem and Ramdas Pophale) SiO2 
 PCOD8186612
Probable space group: F M M 2
;
_chemical_formula_sum "Si O2"
_cell_formula_units_Z 96
_cell_length_a 25.403064
_cell_length_b 8.564373
_cell_length_c 23.229056
_cell_angle_alpha 90.000000
_cell_angle_beta 90.000000
_cell_angle_gamma 90.000000
_cell_volume 5053.743980
_symmetry_space_group_name_H-M "F M M 2"
_symmetry_group_IT_number 42
_symmetry_cell_setting 'orthorhombic'
loop_
_space_group_symop_operation_xyz
x,y,z
-x,-y,z
-x,y,z
x,-y,z
x,1/2+y,1/2+z
-x,1/2-y,1/2+z
-x,1/2+y,1/2+z
x,1/2-y,1/2+z
1/2+x,y,1/2+z
1/2-x,-y,1/2+z
1/2-x,y,1/2+z
1/2+x,-y,1/2+z
1/2+x,1/2+y,z
1/2-x,1/2-y,z
1/2-x,1/2+y,z
1/2+x,1/2-y,z
loop_
_atom_site_type_symbol
_atom_site_label
_atom_site_fract_x
_atom_site_fract_y
_atom_site_fract_z
Si Si1 0.500000 0.317236 0.525920
Si Si2 0.500000 0.319892 0.903119
Si Si3 0.405786 0.817094 0.597250
Si Si4 0.805414 0.317790 0.901224
Si Si5 0.805431 0.317616 0.524248
Si Si6 0.561007 0.317929 0.715563
Si Si7 0.407339 0.318623 0.331957
O O1 0.500000 0.500000 0.541014
O O2 0.500000 0.293196 0.457739
O O3 0.551367 0.236771 0.551366
O O4 0.500000 0.500000 0.922809
O O5 0.551029 0.287972 0.864927
O O6 0.348792 0.775956 0.571751
O O7 0.411263 0.721408 0.655735
O O8 0.412673 0.000000 0.609533
O O9 0.798515 0.500000 0.908739
O O10 0.750000 0.250000 0.879484
O O11 0.849364 0.274786 0.854305
O O12 0.822673 0.251597 0.962963
O O13 0.799404 0.500000 0.515497
O O14 0.750000 0.250000 0.545973
O O15 0.500000 0.268402 0.712229
O O16 0.567034 0.500000 0.729077
O O17 0.590275 0.219049 0.764495
O O18 0.420369 0.500000 0.342783
#
# Coordination Sequence:
#
# PCOD8186612 Si02
#       7
#     8   8  16  16  16  16  16
#     4  12  24  37  56  85 118 152 190 236 292 348
#     4  12  24  37  56  85 118 152 190 236 292 348
#     4  11  23  39  60  86 116 153 195 240 290 345
#     4  10  21  37  60  88 117 153 193 235 290 345
#     4  10  21  37  60  88 117 153 193 235 290 345
#     4  11  23  39  60  87 115 154 199 239 290 346
#     4  11  23  39  60  86 116 153 195 240 290 345
#
# _framework density 18.995818
#
# number of rings (size 3 to 8) (size 9 to 14) (size 15 to 20)
#    0.000    1.167    1.667    6.000    0.000    8.667 
#    0.000    0.833    0.000    0.000    0.000    0.000 
#    0.000    0.000    0.000    0.000    0.000    0.000 
#
# Total GULP energy -297751.725087 kJ/mol
# GULP energy per Si atom -12406.321879 kJ/mol
# Density = 1.895258 g / cm^3
# Si number density = 18.995818 Si / 1000 Ang^3
#
#
#
# Elastic Constant Matrix: (Units=GPa)
#
#
# Indices 1 2 3 4 5 6 
#
# 1 132.2559 56.9657 64.2835 0.0000 0.0000 0.0000
# 2 56.9657 82.7065 25.0207 0.0000 0.0000 0.0000
# 3 64.2835 25.0207 112.2537 0.0000 0.0000 0.0000
# 4 0.0000 0.0000 0.0000 33.6485 0.0000 0.0000
# 5 0.0000 0.0000 0.0000 0.0000 27.3719 0.0000
# 6 0.0000 0.0000 0.0000 0.0000 0.0000 21.7800
#
#
#
# Elastic Compliance Matrix: (Units=1/GPa)
#
#
# Indices 1 2 3 4 5 6 
#
# 1 0.013913 -0.007691 -0.006253 0.000000 0.000000 0.000000
# 2 -0.007691 0.017217 0.000567 0.000000 0.000000 0.000000
# 3 -0.006253 0.000567 0.012363 0.000000 0.000000 0.000000
# 4 0.000000 0.000000 0.000000 0.029719 0.000000 0.000000
# 5 0.000000 0.000000 0.000000 0.000000 0.036534 0.000000
# 6 0.000000 0.000000 0.000000 0.000000 0.000000 0.045914
#
#
# Mechanical properties :
#
#
# Convention : Reuss Voigt Hill
#
# Bulk Modulus (GPa) = 59.74409 68.86178 64.30293
# Shear Modulus (GPa) = 26.59649 28.62316 27.60982
#
# Velocity S-wave (km/s) = 3.74588 3.88598 3.81657
# Velocity P-wave (km/s) = 7.08719 7.51427 7.30385
#
# Compressibility (1/GPa) = 0.01673806
#
# Stress axis : x y z
#
# Youngs Moduli (GPa) = 71.87326 58.08225 80.88609
#
# Poissons Ratio (x) = 0.44673 0.50581
# Poissons Ratio (y) = 0.55280 -0.04586
# Poissons Ratio (z) = 0.44945 -0.03293
#
# Static dielectric constant tensor:
#      x y z
#    x 3.835930 0.000000 0.000000 
#    y 0.000000 3.586030 0.000000 
#    z 0.000000 0.000000 3.432860 
# 
# 
# High freq. dielectric constant tensor:
#      x y z
#    x 1.740830 0.000000 0.000000 
#    y 0.000000 1.756030 0.000000 
#    z 0.000000 0.000000 1.737340 
# 
# From -- ./inp_files/30609.got.cif
#   From: 2010.03.12/outbox.cif.g09.slc.cpg/sg42_16_cif.got.tgz:30609.got - 2010.04.14 02:04:31.
