data_PCOD8186066
_publ_section_title
;
Structure prediction by ZEFSAII (Michael W. Deem and Ramdas Pophale) SiO2 
 PCOD8186066
Probable space group: F M M 2
;
_chemical_formula_sum "Si O2"
_cell_formula_units_Z 80
_cell_length_a 8.658950
_cell_length_b 19.653612
_cell_length_c 25.615932
_cell_angle_alpha 90.000000
_cell_angle_beta 90.000000
_cell_angle_gamma 90.000000
_cell_volume 4359.310179
_symmetry_space_group_name_H-M "F M M 2"
_symmetry_group_IT_number 42
_symmetry_cell_setting 'orthorhombic'
loop_
_space_group_symop_operation_xyz
x,y,z
-x,-y,z
-x,y,z
x,-y,z
x,1/2+y,1/2+z
-x,1/2-y,1/2+z
-x,1/2+y,1/2+z
x,1/2-y,1/2+z
1/2+x,y,1/2+z
1/2-x,-y,1/2+z
1/2-x,y,1/2+z
1/2+x,-y,1/2+z
1/2+x,1/2+y,z
1/2-x,1/2-y,z
1/2-x,1/2+y,z
1/2+x,1/2-y,z
loop_
_atom_site_type_symbol
_atom_site_label
_atom_site_fract_x
_atom_site_fract_y
_atom_site_fract_z
Si Si1 0.671210 0.580675 0.244130
Si Si2 0.822521 0.920342 0.849379
Si Si3 0.181309 0.177662 0.431529
Si Si4 0.816330 0.822987 0.042109
Si Si5 0.315985 0.924217 0.630368
O O1 0.500000 0.610924 0.254890
O O2 0.659662 0.500000 0.241683
O O3 0.784709 0.604002 0.290432
O O4 0.735804 0.604629 0.187453
O O5 0.715161 0.879398 0.888804
O O6 0.000000 0.903907 0.861253
O O7 0.785578 0.000000 0.856343
O O8 0.250000 0.250000 0.413383
O O9 0.256415 0.153347 0.485732
O O10 0.000000 0.186225 0.439406
O O11 0.750000 0.750000 0.057345
O O12 0.752109 0.875569 0.085064
O O13 0.000000 0.820293 0.041136
O O14 0.500000 0.926763 0.629462
O O15 0.249135 0.000000 0.620543
#
# Coordination Sequence:
#
# PCOD8186066 Si02
#       5
#    16  16  16  16  16
#     4   8  14  28  50  74 100 131 167 206 249 295
#     4  10  20  34  53  78 106 135 169 209 253 301
#     4  11  22  37  55  74 100 134 172 212 258 307
#     4  10  19  33  52  73 100 133 167 204 251 303
#     4   8  15  29  51  76  99 128 168 209 247 290
#
# _framework density 18.351527000000001
#
# number of rings (size 3 to 8) (size 9 to 14) (size 15 to 20)
#    0.000    2.600    0.000    5.400    0.000    2.000 
#    0.000    5.000    0.000    6.600    0.000    0.000 
#    0.000    0.000    0.000    0.000    0.000    0.000 
#
# Total GULP energy -247942.582097 kJ/mol
# GULP energy per Si atom -12397.129105 kJ/mol
# Density = 1.830976 g / cm^3
# Si number density = 18.351527 Si / 1000 Ang^3
#
#
#
# Elastic Constant Matrix: (Units=GPa)
#
#
# Indices 1 2 3 4 5 6 
#
# 1 73.6765 25.1729 32.3028 0.0000 0.0000 0.0000
# 2 25.1729 69.8224 70.3399 0.0000 0.0000 0.0000
# 3 32.3028 70.3399 144.2513 0.0000 0.0000 0.0000
# 4 0.0000 0.0000 0.0000 9.9303 0.0000 0.0000
# 5 0.0000 0.0000 0.0000 0.0000 27.0208 0.0000
# 6 0.0000 0.0000 0.0000 0.0000 0.0000 23.0566
#
#
#
# Elastic Compliance Matrix: (Units=1/GPa)
#
#
# Indices 1 2 3 4 5 6 
#
# 1 0.015639 -0.004148 -0.001480 0.000000 0.000000 0.000000
# 2 -0.004148 0.029251 -0.013334 0.000000 0.000000 0.000000
# 3 -0.001480 -0.013334 0.013766 0.000000 0.000000 0.000000
# 4 0.000000 0.000000 0.000000 0.100702 0.000000 0.000000
# 5 0.000000 0.000000 0.000000 0.000000 0.037009 0.000000
# 6 0.000000 0.000000 0.000000 0.000000 0.000000 0.043371
#
#
# Mechanical properties :
#
#
# Convention : Reuss Voigt Hill
#
# Bulk Modulus (GPa) = 48.23491 60.37572 54.30531
# Shear Modulus (GPa) = 17.57031 22.66385 20.11708
#
# Velocity S-wave (km/s) = 3.09759 3.51805 3.31449
# Velocity P-wave (km/s) = 6.25575 7.03372 6.65611
#
# Compressibility (1/GPa) = 0.02073187
#
# Stress axis : x y z
#
# Youngs Moduli (GPa) = 63.94408 34.18739 72.64393
#
# Poissons Ratio (x) = 0.14180 0.10748
# Poissons Ratio (y) = 0.26522 0.96866
# Poissons Ratio (z) = 0.09461 0.45587
#
# Static dielectric constant tensor:
#      x y z
#    x 3.240700 0.000000 0.000000 
#    y 0.000000 3.236120 0.000000 
#    z 0.000000 0.000000 3.745420 
# 
# 
# High freq. dielectric constant tensor:
#      x y z
#    x 1.700640 0.000000 0.000000 
#    y 0.000000 1.684960 0.000000 
#    z 0.000000 0.000000 1.725700 
# 
# From -- ./inp_files/31238.got.cif
#   From: 2010.03.12/outbox.cif.g09.slc.cpg/sg42_16_cif.got.tgz:31238.got - 2010.04.14 02:04:31.
