data_PCOD8186535
_publ_section_title
;
Structure prediction by ZEFSAII (Michael W. Deem and Ramdas Pophale) SiO2 
 PCOD8186535
Probable space group: F M M 2
;
_chemical_formula_sum "Si O2"
_cell_formula_units_Z 104
_cell_length_a 14.358257
_cell_length_b 20.225085
_cell_length_c 17.913049
_cell_angle_alpha 90.000000
_cell_angle_beta 90.000000
_cell_angle_gamma 90.000000
_cell_volume 5201.895122
_symmetry_space_group_name_H-M "F M M 2"
_symmetry_group_IT_number 42
_symmetry_cell_setting 'orthorhombic'
loop_
_space_group_symop_operation_xyz
x,y,z
-x,-y,z
-x,y,z
x,-y,z
x,1/2+y,1/2+z
-x,1/2-y,1/2+z
-x,1/2+y,1/2+z
x,1/2-y,1/2+z
1/2+x,y,1/2+z
1/2-x,-y,1/2+z
1/2-x,y,1/2+z
1/2+x,-y,1/2+z
1/2+x,1/2+y,z
1/2-x,1/2-y,z
1/2-x,1/2+y,z
1/2+x,1/2-y,z
loop_
_atom_site_type_symbol
_atom_site_label
_atom_site_fract_x
_atom_site_fract_y
_atom_site_fract_z
Si Si1 0.270428 0.859982 0.885730
Si Si2 0.250000 0.750000 0.499707
Si Si3 0.400385 0.075685 0.988846
Si Si4 0.392768 0.334305 0.087210
Si Si5 0.104837 0.425463 0.450467
Si Si6 0.762098 0.171865 0.218224
Si Si7 0.610668 0.922612 0.153160
O O1 0.334165 0.919000 0.916866
O O2 0.162792 0.881788 0.891651
O O3 0.295999 0.838549 0.802906
O O4 0.295593 0.803507 0.945208
O O5 0.335042 0.774550 0.550513
O O6 0.500000 0.110470 0.971800
O O7 0.419770 0.000000 0.004540
O O8 0.360100 0.100588 0.068996
O O9 0.500000 0.312337 0.099222
O O10 0.345942 0.353815 0.165871
O O11 0.386652 0.398245 0.034332
O O12 0.142584 0.500000 0.452180
O O13 0.000000 0.422011 0.420712
O O14 0.750000 0.250000 0.204270
O O15 0.669226 0.127768 0.205486
O O16 0.500000 0.911863 0.166297
O O17 0.636324 0.000000 0.169994
#
# Coordination Sequence:
#
# PCOD8186535 Si02
#       7
#    16   8  16  16  16  16  16
#     4  11  22  36  57  82 121 158 193 238 302 365
#     4  10  20  40  60  78 108 150 206 252 280 346
#     4   9  19  37  61  88 112 144 201 258 301 352
#     4  10  22  40  62  86 115 157 206 251 303 367
#     4   9  19  38  64  91 116 151 204 257 301 354
#     4  12  25  40  55  90 135 167 200 250 318 383
#     4   9  20  41  69  96 121 160 217 270 309 358
#
# _framework density 19.992713999999999
#
# number of rings (size 3 to 8) (size 9 to 14) (size 15 to 20)
#    0.000    2.000    1.538    3.231    0.000    5.538 
#    0.000    1.538    0.000    1.846    0.000    0.000 
#    0.000    0.000    0.000    0.000    0.000    0.000 
#
# Total GULP energy -322242.323034 kJ/mol
# GULP energy per Si atom -12393.935501 kJ/mol
# Density = 1.994721 g / cm^3
# Si number density = 19.992714 Si / 1000 Ang^3
#
#
#
# Elastic Constant Matrix: (Units=GPa)
#
#
# Indices 1 2 3 4 5 6 
#
# 1 97.1656 30.7739 43.5646 0.0000 0.0000 0.0000
# 2 30.7739 79.8805 23.9954 0.0000 0.0000 0.0000
# 3 43.5646 23.9954 114.6215 0.0000 0.0000 0.0000
# 4 0.0000 0.0000 0.0000 21.2941 0.0000 0.0000
# 5 0.0000 0.0000 0.0000 0.0000 19.6846 0.0000
# 6 0.0000 0.0000 0.0000 0.0000 0.0000 28.3485
#
#
#
# Elastic Compliance Matrix: (Units=1/GPa)
#
#
# Indices 1 2 3 4 5 6 
#
# 1 0.013451 -0.003891 -0.004298 0.000000 0.000000 0.000000
# 2 -0.003891 0.014484 -0.001553 0.000000 0.000000 0.000000
# 3 -0.004298 -0.001553 0.010683 0.000000 0.000000 0.000000
# 4 0.000000 0.000000 0.000000 0.046961 0.000000 0.000000
# 5 0.000000 0.000000 0.000000 0.000000 0.050801 0.000000
# 6 0.000000 0.000000 0.000000 0.000000 0.000000 0.035275
#
#
# Mechanical properties :
#
#
# Convention : Reuss Voigt Hill
#
# Bulk Modulus (GPa) = 52.26281 54.25950 53.26116
# Shear Modulus (GPa) = 25.31410 26.75435 26.03423
#
# Velocity S-wave (km/s) = 3.56218 3.66212 3.61250
# Velocity P-wave (km/s) = 6.56632 6.71417 6.64065
#
# Compressibility (1/GPa) = 0.01913406
#
# Stress axis : x y z
#
# Youngs Moduli (GPa) = 74.34402 69.04025 93.60635
#
# Poissons Ratio (x) = 0.26863 0.40230
# Poissons Ratio (y) = 0.28927 0.14540
# Poissons Ratio (z) = 0.31952 0.10724
#
# Static dielectric constant tensor:
#      x y z
#    x 3.800250 0.000000 0.000000 
#    y 0.000000 3.678200 0.000000 
#    z 0.000000 0.000000 3.501010 
# 
# 
# High freq. dielectric constant tensor:
#      x y z
#    x 1.781090 0.000000 0.000000 
#    y 0.000000 1.778300 0.000000 
#    z 0.000000 0.000000 1.769400 
# 
# From -- ./inp_files/20105.got.cif
#   From: 2010.03.12/outbox.cif.g09.slc.cpg/sg42_11_cif.got.tgz:20105.got - 2010.04.14 02:04:31.
