data_PCOD8186406
_publ_section_title
;
Structure prediction by ZEFSAII (Michael W. Deem and Ramdas Pophale) SiO2 
 PCOD8186406
Probable space group: F M M 2
;
_chemical_formula_sum "Si O2"
_cell_formula_units_Z 96
_cell_length_a 14.683730
_cell_length_b 23.546085
_cell_length_c 14.365654
_cell_angle_alpha 90.000000
_cell_angle_beta 90.000000
_cell_angle_gamma 90.000000
_cell_volume 4966.843772
_symmetry_space_group_name_H-M "F M M 2"
_symmetry_group_IT_number 42
_symmetry_cell_setting 'orthorhombic'
loop_
_space_group_symop_operation_xyz
x,y,z
-x,-y,z
-x,y,z
x,-y,z
x,1/2+y,1/2+z
-x,1/2-y,1/2+z
-x,1/2+y,1/2+z
x,1/2-y,1/2+z
1/2+x,y,1/2+z
1/2-x,-y,1/2+z
1/2-x,y,1/2+z
1/2+x,-y,1/2+z
1/2+x,1/2+y,z
1/2-x,1/2-y,z
1/2-x,1/2+y,z
1/2+x,1/2-y,z
loop_
_atom_site_type_symbol
_atom_site_label
_atom_site_fract_x
_atom_site_fract_y
_atom_site_fract_z
Si Si1 0.397149 0.066158 0.224100
Si Si2 0.737036 0.435171 0.093966
Si Si3 0.900549 0.659208 0.652732
Si Si4 0.719038 0.612992 0.895379
Si Si5 0.400137 0.671840 0.357075
Si Si6 0.345023 0.774162 0.481365
O O1 0.500000 0.093554 0.219907
O O2 0.340222 0.079504 0.129151
O O3 0.337175 0.086195 0.311504
O O4 0.410307 0.000000 0.236613
O O5 0.712858 0.500000 0.121796
O O6 0.671288 0.391448 0.145689
O O7 0.722332 0.428670 0.983848
O O8 0.886689 0.692090 0.750314
O O9 0.897589 0.707261 0.573564
O O10 0.000000 0.630404 0.647942
O O11 0.825094 0.623921 0.874952
O O12 0.668566 0.671925 0.915256
O O13 0.500000 0.643929 0.370930
O O14 0.397028 0.726369 0.423676
O O15 0.250000 0.750000 0.517599
#
# Coordination Sequence:
#
# PCOD8186406 Si02
#       6
#    16  16  16  16  16  16
#     4  10  21  38  60  86 116 152 196 243 293 352
#     4  10  21  38  60  85 117 151 189 242 299 350
#     4  10  20  36  59  85 116 150 190 237 287 346
#     4  10  20  37  58  85 114 151 193 242 291 347
#     4  10  20  36  56  82 116 153 191 233 287 348
#     4   9  20  35  55  81 115 152 191 238 284 339
#
# _framework density 19.32817
#
# number of rings (size 3 to 8) (size 9 to 14) (size 15 to 20)
#    0.000    2.167    1.667    1.000    0.000    6.333 
#    3.000    0.000    0.000    1.500    0.000    0.000 
#    0.000    0.000    0.000    0.000    0.000    0.000 
#
# Total GULP energy -297406.088088 kJ/mol
# GULP energy per Si atom -12391.920337 kJ/mol
# Density = 1.928418 g / cm^3
# Si number density = 19.328170 Si / 1000 Ang^3
#
#
#
# Elastic Constant Matrix: (Units=GPa)
#
#
# Indices 1 2 3 4 5 6 
#
# 1 125.7586 43.9470 39.2851 0.0000 0.0000 0.0000
# 2 43.9470 63.8403 31.5093 0.0000 0.0000 0.0000
# 3 39.2851 31.5093 79.0748 0.0000 0.0000 0.0000
# 4 0.0000 0.0000 0.0000 16.6376 0.0000 0.0000
# 5 0.0000 0.0000 0.0000 0.0000 20.2044 0.0000
# 6 0.0000 0.0000 0.0000 0.0000 0.0000 21.5906
#
#
#
# Elastic Compliance Matrix: (Units=1/GPa)
#
#
# Indices 1 2 3 4 5 6 
#
# 1 0.011034 -0.006087 -0.003056 0.000000 0.000000 0.000000
# 2 -0.006087 0.022857 -0.006084 0.000000 0.000000 0.000000
# 3 -0.003056 -0.006084 0.016589 0.000000 0.000000 0.000000
# 4 0.000000 0.000000 0.000000 0.060105 0.000000 0.000000
# 5 0.000000 0.000000 0.000000 0.000000 0.049494 0.000000
# 6 0.000000 0.000000 0.000000 0.000000 0.000000 0.046316
#
#
# Mechanical properties :
#
#
# Convention : Reuss Voigt Hill
#
# Bulk Modulus (GPa) = 49.93622 55.35073 52.64347
# Shear Modulus (GPa) = 20.53187 21.94868 21.24027
#
# Velocity S-wave (km/s) = 3.26279 3.37349 3.31861
# Velocity P-wave (km/s) = 6.33139 6.62370 6.47920
#
# Compressibility (1/GPa) = 0.02002554
#
# Stress axis : x y z
#
# Youngs Moduli (GPa) = 90.63271 43.75008 60.28165
#
# Poissons Ratio (x) = 0.26631 0.18422
# Poissons Ratio (y) = 0.55168 0.36675
# Poissons Ratio (z) = 0.27698 0.26617
#
# Static dielectric constant tensor:
#      x y z
#    x 3.577900 0.000000 0.000000 
#    y 0.000000 3.415650 0.000000 
#    z 0.000000 0.000000 3.646380 
# 
# 
# High freq. dielectric constant tensor:
#      x y z
#    x 1.765090 0.000000 0.000000 
#    y 0.000000 1.731070 0.000000 
#    z 0.000000 0.000000 1.761600 
# 
# From -- ./inp_files/13984.got.cif
#   From: 2010.03.12/outbox.cif.g09.slc.cpg/sg42_7_cif.got.tgz:13984.got - 2010.04.14 02:04:31.
