data_PCOD8186592
_publ_section_title
;
Structure prediction by ZEFSAII (Michael W. Deem and Ramdas Pophale) SiO2 
 PCOD8186592
Probable space group: F M M 2
;
_chemical_formula_sum "Si O2"
_cell_formula_units_Z 80
_cell_length_a 8.769217
_cell_length_b 19.346070
_cell_length_c 25.881153
_cell_angle_alpha 90.000000
_cell_angle_beta 90.000000
_cell_angle_gamma 90.000000
_cell_volume 4390.734654
_symmetry_space_group_name_H-M "F M M 2"
_symmetry_group_IT_number 42
_symmetry_cell_setting 'orthorhombic'
loop_
_space_group_symop_operation_xyz
x,y,z
-x,-y,z
-x,y,z
x,-y,z
x,1/2+y,1/2+z
-x,1/2-y,1/2+z
-x,1/2+y,1/2+z
x,1/2-y,1/2+z
1/2+x,y,1/2+z
1/2-x,-y,1/2+z
1/2-x,y,1/2+z
1/2+x,-y,1/2+z
1/2+x,1/2+y,z
1/2-x,1/2-y,z
1/2-x,1/2+y,z
1/2+x,1/2-y,z
loop_
_atom_site_type_symbol
_atom_site_label
_atom_site_fract_x
_atom_site_fract_y
_atom_site_fract_z
Si Si1 0.177245 0.420542 0.569230
Si Si2 0.820909 0.825132 0.274271
Si Si3 0.820388 0.325879 0.376219
Si Si4 0.821301 0.675362 0.661068
Si Si5 0.177054 0.080382 0.461906
O O1 0.204579 0.500000 0.583605
O O2 0.239939 0.376676 0.617599
O O3 0.274759 0.398509 0.519627
O O4 0.000000 0.405802 0.557728
O O5 0.750000 0.750000 0.272991
O O6 0.741735 0.862582 0.323256
O O7 0.783979 0.857753 0.217853
O O8 0.000000 0.821919 0.284864
O O9 0.750000 0.250000 0.384495
O O10 0.776793 0.374987 0.423140
O O11 0.000000 0.318244 0.373098
O O12 0.750000 0.750000 0.652587
O O13 0.000000 0.685707 0.655822
O O14 0.000000 0.097369 0.454029
O O15 0.213054 0.000000 0.452022
#
# Coordination Sequence:
#
# PCOD8186592 Si02
#       5
#    16  16  16  16  16
#     4   9  18  34  53  72  98 133 170 206 248 299
#     4   9  16  29  48  72 102 133 166 203 249 299
#     4  11  21  34  54  78 104 134 170 211 255 302
#     4   9  18  31  50  75 101 131 166 205 248 295
#     4  10  21  37  55  75 101 134 171 211 257 306
#
# _framework density 18.220186000000002
#
# number of rings (size 3 to 8) (size 9 to 14) (size 15 to 20)
#    0.000    2.400    0.000    4.200    0.000    3.600 
#    0.000    3.000    0.000    3.600    0.000    0.000 
#    0.000    0.000    0.000    0.000    0.000    0.000 
#
# Total GULP energy -247900.641831 kJ/mol
# GULP energy per Si atom -12395.032092 kJ/mol
# Density = 1.817872 g / cm^3
# Si number density = 18.220186 Si / 1000 Ang^3
#
#
#
# Elastic Constant Matrix: (Units=GPa)
#
#
# Indices 1 2 3 4 5 6 
#
# 1 94.6268 34.0385 57.1971 0.0000 0.0000 0.0000
# 2 34.0385 61.0138 68.3680 0.0000 0.0000 0.0000
# 3 57.1971 68.3680 160.9598 0.0000 0.0000 0.0000
# 4 0.0000 0.0000 0.0000 2.7192 0.0000 0.0000
# 5 0.0000 0.0000 0.0000 0.0000 32.3016 0.0000
# 6 0.0000 0.0000 0.0000 0.0000 0.0000 23.8366
#
#
#
# Elastic Compliance Matrix: (Units=1/GPa)
#
#
# Indices 1 2 3 4 5 6 
#
# 1 0.014019 -0.004272 -0.003167 0.000000 0.000000 0.000000
# 2 -0.004272 0.032577 -0.012319 0.000000 0.000000 0.000000
# 3 -0.003167 -0.012319 0.012571 0.000000 0.000000 0.000000
# 4 0.000000 0.000000 0.000000 0.367757 0.000000 0.000000
# 5 0.000000 0.000000 0.000000 0.000000 0.030958 0.000000
# 6 0.000000 0.000000 0.000000 0.000000 0.000000 0.041952
#
#
# Mechanical properties :
#
#
# Convention : Reuss Voigt Hill
#
# Bulk Modulus (GPa) = 50.89018 70.64529 60.76773
# Shear Modulus (GPa) = 9.15918 22.23794 15.69856
#
# Velocity S-wave (km/s) = 2.24452 3.49737 2.93849
# Velocity P-wave (km/s) = 5.89139 7.42739 6.70353
#
# Compressibility (1/GPa) = 0.01965016
#
# Stress axis : x y z
#
# Youngs Moduli (GPa) = 71.33241 30.69651 79.55027
#
# Poissons Ratio (x) = 0.13114 0.25194
# Poissons Ratio (y) = 0.30474 0.97998
# Poissons Ratio (z) = 0.22591 0.37815
#
# Static dielectric constant tensor:
#      x y z
#    x 3.428270 0.000000 0.000000 
#    y 0.000000 3.126150 0.000000 
#    z 0.000000 0.000000 4.187520 
# 
# 
# High freq. dielectric constant tensor:
#      x y z
#    x 1.713270 0.000000 0.000000 
#    y 0.000000 1.671220 0.000000 
#    z 0.000000 0.000000 1.728280 
# 
# From -- ./inp_files/31249.got.cif
#   From: 2010.03.12/outbox.cif.g09.slc.cpg/sg42_16_cif.got.tgz:31249.got - 2010.04.14 02:04:31.
