data_PCOD8186647
_publ_section_title
;
Structure prediction by ZEFSAII (Michael W. Deem and Ramdas Pophale) SiO2 
 PCOD8186647
Probable space group: F M M 2
;
_chemical_formula_sum "Si O2"
_cell_formula_units_Z 120
_cell_length_a 21.421925
_cell_length_b 20.423934
_cell_length_c 13.636793
_cell_angle_alpha 90.000000
_cell_angle_beta 90.000000
_cell_angle_gamma 90.000000
_cell_volume 5966.369433
_symmetry_space_group_name_H-M "F M M 2"
_symmetry_group_IT_number 42
_symmetry_cell_setting 'orthorhombic'
loop_
_space_group_symop_operation_xyz
x,y,z
-x,-y,z
-x,y,z
x,-y,z
x,1/2+y,1/2+z
-x,1/2-y,1/2+z
-x,1/2+y,1/2+z
x,1/2-y,1/2+z
1/2+x,y,1/2+z
1/2-x,-y,1/2+z
1/2-x,y,1/2+z
1/2+x,-y,1/2+z
1/2+x,1/2+y,z
1/2-x,1/2-y,z
1/2-x,1/2+y,z
1/2+x,1/2-y,z
loop_
_atom_site_type_symbol
_atom_site_label
_atom_site_fract_x
_atom_site_fract_y
_atom_site_fract_z
Si Si1 0.250000 0.250000 0.112370
Si Si2 0.928687 0.644161 0.382825
Si Si3 0.825581 0.646111 0.726828
Si Si4 0.426720 0.790016 0.858457
Si Si5 0.572487 0.424989 0.686591
Si Si6 0.152963 0.074940 0.030089
Si Si7 0.224981 0.925498 0.402943
Si Si8 0.854980 0.343787 0.031947
O O1 0.203580 0.210249 0.180528
O O2 0.205616 0.297240 0.047727
O O3 0.906799 0.714547 0.341609
O O4 0.916212 0.588667 0.301358
O O5 0.897407 0.623707 0.484574
O O6 0.000000 0.650648 0.411357
O O7 0.890060 0.665186 0.780414
O O8 0.838048 0.592103 0.643778
O O9 0.775227 0.617230 0.803623
O O10 0.500000 0.802901 0.842852
O O11 0.407900 0.806083 0.970571
O O12 0.500000 0.413936 0.658768
O O13 0.592458 0.500000 0.665030
O O14 0.615024 0.372557 0.630319
O O15 0.214255 0.087909 0.966639
O O16 0.130992 0.000000 0.023295
O O17 0.165988 0.906475 0.469193
O O18 0.218337 0.000000 0.370504
#
# Coordination Sequence:
#
# PCOD8186647 Si02
#       8
#     8  16  16  16  16  16  16  16
#     4  12  24  38  60  94 124 170 202 250 318 366
#     4  10  22  39  59  88 122 159 204 251 306 363
#     4  11  24  40  62  89 126 158 206 257 305 378
#     4  10  23  41  65  91 122 166 206 256 309 366
#     4  10  21  38  62  92 123 157 203 259 315 371
#     4  11  23  40  61  88 122 161 206 252 307 368
#     4  10  23  40  60  87 121 159 200 249 304 366
#     4  11  22  39  64  89 126 159 209 251 308 368
#
# _framework density 20.112732999999999
#
# number of rings (size 3 to 8) (size 9 to 14) (size 15 to 20)
#    0.000    1.467    1.333    3.200    3.733    2.400 
#    0.000    3.333    0.000    7.600    0.000    0.000 
#    0.000    0.000    0.000    0.000    0.000    0.000 
#
# Total GULP energy -372022.304028 kJ/mol
# GULP energy per Si atom -12400.743468 kJ/mol
# Density = 2.006696 g / cm^3
# Si number density = 20.112733 Si / 1000 Ang^3
#
#
#
# Elastic Constant Matrix: (Units=GPa)
#
#
# Indices 1 2 3 4 5 6 
#
# 1 69.2086 47.9033 38.3462 0.0000 0.0000 0.0000
# 2 47.9033 100.1774 38.0581 0.0000 0.0000 0.0000
# 3 38.3462 38.0581 103.7886 0.0000 0.0000 0.0000
# 4 0.0000 0.0000 0.0000 26.5663 0.0000 0.0000
# 5 0.0000 0.0000 0.0000 0.0000 30.1295 0.0000
# 6 0.0000 0.0000 0.0000 0.0000 0.0000 33.0438
#
#
#
# Elastic Compliance Matrix: (Units=1/GPa)
#
#
# Indices 1 2 3 4 5 6 
#
# 1 0.023948 -0.009399 -0.005401 0.000000 0.000000 0.000000
# 2 -0.009399 0.015287 -0.002133 0.000000 0.000000 0.000000
# 3 -0.005401 -0.002133 0.012413 0.000000 0.000000 0.000000
# 4 0.000000 0.000000 0.000000 0.037642 0.000000 0.000000
# 5 0.000000 0.000000 0.000000 0.000000 0.033190 0.000000
# 6 0.000000 0.000000 0.000000 0.000000 0.000000 0.030263
#
#
# Mechanical properties :
#
#
# Convention : Reuss Voigt Hill
#
# Bulk Modulus (GPa) = 56.24132 57.97663 57.10897
# Shear Modulus (GPa) = 25.96922 27.87239 26.92080
#
# Velocity S-wave (km/s) = 3.59720 3.72668 3.66251
# Velocity P-wave (km/s) = 6.72881 6.88520 6.80745
#
# Compressibility (1/GPa) = 0.01778052
#
# Stress axis : x y z
#
# Youngs Moduli (GPa) = 41.75800 65.41405 80.56334
#
# Poissons Ratio (x) = 0.61485 0.43513
# Poissons Ratio (y) = 0.39250 0.17183
# Poissons Ratio (z) = 0.22554 0.13952
#
# Static dielectric constant tensor:
#      x y z
#    x 3.664110 0.000000 0.000000 
#    y 0.000000 3.725580 0.000000 
#    z 0.000000 0.000000 3.592640 
# 
# 
# High freq. dielectric constant tensor:
#      x y z
#    x 1.782330 0.000000 0.000000 
#    y 0.000000 1.796740 0.000000 
#    z 0.000000 0.000000 1.788330 
# 
# From -- ./inp_files/10281.got.cif
#   From: 2010.03.12/outbox.cif.g09.slc.cpg/sg42_6_cif.got.tgz:10281.got - 2010.04.14 02:04:31.
