data_PCOD8186305
_publ_section_title
;
Structure prediction by ZEFSAII (Michael W. Deem and Ramdas Pophale) SiO2 
 PCOD8186305
Probable space group: F M M 2
;
_chemical_formula_sum "Si O2"
_cell_formula_units_Z 104
_cell_length_a 21.241729
_cell_length_b 9.805060
_cell_length_c 26.083372
_cell_angle_alpha 90.000000
_cell_angle_beta 90.000000
_cell_angle_gamma 90.000000
_cell_volume 5432.551533
_symmetry_space_group_name_H-M "F M M 2"
_symmetry_group_IT_number 42
_symmetry_cell_setting 'orthorhombic'
loop_
_space_group_symop_operation_xyz
x,y,z
-x,-y,z
-x,y,z
x,-y,z
x,1/2+y,1/2+z
-x,1/2-y,1/2+z
-x,1/2+y,1/2+z
x,1/2-y,1/2+z
1/2+x,y,1/2+z
1/2-x,-y,1/2+z
1/2-x,y,1/2+z
1/2+x,-y,1/2+z
1/2+x,1/2+y,z
1/2-x,1/2-y,z
1/2-x,1/2+y,z
1/2+x,1/2-y,z
loop_
_atom_site_type_symbol
_atom_site_label
_atom_site_fract_x
_atom_site_fract_y
_atom_site_fract_z
Si Si1 0.632649 0.653836 0.405860
Si Si2 0.750000 0.250000 0.846850
Si Si3 0.927690 0.159729 0.988565
Si Si4 0.569707 0.343983 0.300826
Si Si5 0.666806 0.352764 0.760381
Si Si6 0.196188 0.346819 0.146170
Si Si7 0.928950 0.157004 0.587399
O O1 0.625023 0.500000 0.428088
O O2 0.702901 0.667977 0.383590
O O3 0.618749 0.767645 0.448370
O O4 0.583352 0.679908 0.360514
O O5 0.713977 0.352964 0.808806
O O6 0.000000 0.174639 0.970373
O O7 0.909272 0.000000 0.993940
O O8 0.917676 0.237052 0.041786
O O9 0.500000 0.291879 0.289788
O O10 0.578983 0.500000 0.285844
O O11 0.615043 0.263125 0.263545
O O12 0.632987 0.500000 0.760630
O O13 0.703097 0.332680 0.707242
O O14 0.211661 0.500000 0.127949
O O15 0.250000 0.250000 0.121172
O O16 0.124755 0.308362 0.129318
O O17 0.000000 0.178378 0.610071
O O18 0.922204 0.000000 0.568146
#
# Coordination Sequence:
#
# PCOD8186305 Si02
#       7
#    16   8  16  16  16  16  16
#     4  10  20  34  55  79 107 146 188 227 272 331
#     4  10  20  36  54  78 110 148 190 228 274 322
#     4  10  21  37  58  84 112 142 180 229 284 335
#     4   9  19  34  51  76 110 145 182 226 276 331
#     4  10  20  34  55  80 108 145 187 229 275 326
#     4  10  21  37  59  87 114 149 189 233 285 338
#     4   9  19  38  62  85 112 148 191 235 282 341
#
# _framework density 19.143858999999999
#
# number of rings (size 3 to 8) (size 9 to 14) (size 15 to 20)
#    0.000    2.308    0.769    1.385    0.000    7.385 
#    1.385    1.538    0.000    1.846    0.000    0.000 
#    0.000    0.000    0.000    0.000    0.000    0.000 
#
# Total GULP energy -322269.614916 kJ/mol
# GULP energy per Si atom -12394.985189 kJ/mol
# Density = 1.910029 g / cm^3
# Si number density = 19.143859 Si / 1000 Ang^3
#
#
#
# Elastic Constant Matrix: (Units=GPa)
#
#
# Indices 1 2 3 4 5 6 
#
# 1 125.3665 60.3351 37.9185 0.0000 0.0000 0.0000
# 2 60.3351 111.8138 41.8128 0.0000 0.0000 0.0000
# 3 37.9185 41.8128 57.7594 0.0000 0.0000 0.0000
# 4 0.0000 0.0000 0.0000 28.3712 0.0000 0.0000
# 5 0.0000 0.0000 0.0000 0.0000 18.5110 0.0000
# 6 0.0000 0.0000 0.0000 0.0000 0.0000 29.6013
#
#
#
# Elastic Compliance Matrix: (Units=1/GPa)
#
#
# Indices 1 2 3 4 5 6 
#
# 1 0.011466 -0.004624 -0.004180 0.000000 0.000000 0.000000
# 2 -0.004624 0.014128 -0.007192 0.000000 0.000000 0.000000
# 3 -0.004180 -0.007192 0.025264 0.000000 0.000000 0.000000
# 4 0.000000 0.000000 0.000000 0.035247 0.000000 0.000000
# 5 0.000000 0.000000 0.000000 0.000000 0.054022 0.000000
# 6 0.000000 0.000000 0.000000 0.000000 0.000000 0.033782
#
#
# Mechanical properties :
#
#
# Convention : Reuss Voigt Hill
#
# Bulk Modulus (GPa) = 53.00536 63.89694 58.45115
# Shear Modulus (GPa) = 23.56378 25.62157 24.59268
#
# Velocity S-wave (km/s) = 3.51220 3.66234 3.58805
# Velocity P-wave (km/s) = 6.64796 7.16473 6.91118
#
# Compressibility (1/GPa) = 0.01886602
#
# Stress axis : x y z
#
# Youngs Moduli (GPa) = 87.21143 70.78139 39.58266
#
# Poissons Ratio (x) = 0.32730 0.16546
# Poissons Ratio (y) = 0.40328 0.28467
# Poissons Ratio (z) = 0.36455 0.50904
#
# Static dielectric constant tensor:
#      x y z
#    x 3.550850 0.000000 0.000000 
#    y 0.000000 3.674540 0.000000 
#    z 0.000000 0.000000 3.219000 
# 
# 
# High freq. dielectric constant tensor:
#      x y z
#    x 1.744880 0.000000 0.000000 
#    y 0.000000 1.751890 0.000000 
#    z 0.000000 0.000000 1.721400 
# 
# From -- ./inp_files/33048.got.cif
#   From: 2010.03.12/outbox.cif.g09.slc.cpg/sg42_17_cif.got.tgz:33048.got - 2010.04.14 02:04:31.
