data_PCOD8186126
_publ_section_title
;
Structure prediction by ZEFSAII (Michael W. Deem and Ramdas Pophale) SiO2 
 PCOD8186126
Probable space group: F M M 2
;
_chemical_formula_sum "Si O2"
_cell_formula_units_Z 112
_cell_length_a 11.107589
_cell_length_b 27.261675
_cell_length_c 19.280309
_cell_angle_alpha 90.000000
_cell_angle_beta 90.000000
_cell_angle_gamma 90.000000
_cell_volume 5838.298929
_symmetry_space_group_name_H-M "F M M 2"
_symmetry_group_IT_number 42
_symmetry_cell_setting 'orthorhombic'
loop_
_space_group_symop_operation_xyz
x,y,z
-x,-y,z
-x,y,z
x,-y,z
x,1/2+y,1/2+z
-x,1/2-y,1/2+z
-x,1/2+y,1/2+z
x,1/2-y,1/2+z
1/2+x,y,1/2+z
1/2-x,-y,1/2+z
1/2-x,y,1/2+z
1/2+x,-y,1/2+z
1/2+x,1/2+y,z
1/2-x,1/2-y,z
1/2-x,1/2+y,z
1/2+x,1/2-y,z
loop_
_atom_site_type_symbol
_atom_site_label
_atom_site_fract_x
_atom_site_fract_y
_atom_site_fract_z
Si Si1 0.000000 0.942650 0.328458
Si Si2 0.629882 0.266132 0.663577
Si Si3 0.637754 0.556448 0.938308
Si Si4 0.636237 0.278744 0.315386
Si Si5 0.634748 0.619092 0.687701
Si Si6 0.227126 0.556612 0.070657
Si Si7 0.000000 0.557774 0.983829
Si Si8 0.225503 0.888019 0.321901
O O1 0.000000 0.920287 0.406660
O O2 0.879369 0.923119 0.292201
O O3 0.000000 0.000000 0.323473
O O4 0.500000 0.255113 0.626594
O O5 0.750000 0.250000 0.619795
O O6 0.634042 0.234774 0.734274
O O7 0.640753 0.323349 0.676477
O O8 0.500000 0.567818 0.920896
O O9 0.672153 0.500000 0.919748
O O10 0.722707 0.592611 0.894885
O O11 0.657093 0.564379 0.021155
O O12 0.500000 0.266815 0.345227
O O13 0.750000 0.250000 0.351029
O O14 0.665722 0.335044 0.329252
O O15 0.500000 0.598697 0.674550
O O16 0.730116 0.590807 0.638602
O O17 0.666363 0.609705 0.767421
O O18 0.213721 0.500000 0.094093
O O19 0.116013 0.575698 0.024891
O O20 0.000000 0.500000 0.975693
#
# Coordination Sequence:
#
# PCOD8186126 Si02
#       8
#     8  16  16  16  16  16   8  16
#     4  11  22  36  56  85 120 155 199 244 292 359
#     4   9  17  33  53  77 111 148 187 236 291 353
#     4  10  22  40  60  84 120 165 204 241 298 369
#     4  10  19  34  56  85 117 155 200 248 304 369
#     4  11  22  35  57  90 117 148 195 249 303 354
#     4  10  20  37  59  82 113 152 196 242 292 360
#     4   9  16  34  60  77 100 149 197 238 281 345
#     4  12  21  35  59  90 120 154 199 247 304 359
#
# _framework density 19.183668999999998
#
# number of rings (size 3 to 8) (size 9 to 14) (size 15 to 20)
#    0.000    1.714    5.714    0.857    0.000    1.714 
#    1.286    0.000    0.000    0.857    0.000    0.000 
#    0.000    0.000    0.000    0.000    0.000    0.000 
#
# Total GULP energy -346913.194627 kJ/mol
# GULP energy per Si atom -12389.756951 kJ/mol
# Density = 1.914001 g / cm^3
# Si number density = 19.183669 Si / 1000 Ang^3
#
#
#
# Elastic Constant Matrix: (Units=GPa)
#
#
# Indices 1 2 3 4 5 6 
#
# 1 146.2746 51.2524 22.8545 0.0000 0.0000 0.0000
# 2 51.2524 98.3879 24.2220 0.0000 0.0000 0.0000
# 3 22.8545 24.2220 40.5722 0.0000 0.0000 0.0000
# 4 0.0000 0.0000 0.0000 11.5832 0.0000 0.0000
# 5 0.0000 0.0000 0.0000 0.0000 11.4592 0.0000
# 6 0.0000 0.0000 0.0000 0.0000 0.0000 24.2644
#
#
#
# Elastic Compliance Matrix: (Units=1/GPa)
#
#
# Indices 1 2 3 4 5 6 
#
# 1 0.008580 -0.003845 -0.002538 0.000000 0.000000 0.000000
# 2 -0.003845 0.013638 -0.005976 0.000000 0.000000 0.000000
# 3 -0.002538 -0.005976 0.029645 0.000000 0.000000 0.000000
# 4 0.000000 0.000000 0.000000 0.086332 0.000000 0.000000
# 5 0.000000 0.000000 0.000000 0.000000 0.087266 0.000000
# 6 0.000000 0.000000 0.000000 0.000000 0.000000 0.041213
#
#
# Mechanical properties :
#
#
# Convention : Reuss Voigt Hill
#
# Bulk Modulus (GPa) = 36.83887 53.54363 45.19125
# Shear Modulus (GPa) = 16.64229 21.92175 19.28202
#
# Velocity S-wave (km/s) = 2.94857 3.38410 3.17381
# Velocity P-wave (km/s) = 5.55311 6.57580 6.08597
#
# Compressibility (1/GPa) = 0.02714524
#
# Stress axis : x y z
#
# Youngs Moduli (GPa) = 116.54817 73.32476 33.73269
#
# Poissons Ratio (x) = 0.28192 0.08561
# Poissons Ratio (y) = 0.44810 0.20159
# Poissons Ratio (z) = 0.29578 0.43820
#
# Static dielectric constant tensor:
#      x y z
#    x 4.170370 0.000000 0.000000 
#    y 0.000000 3.386340 0.000000 
#    z 0.000000 0.000000 3.155350 
# 
# 
# High freq. dielectric constant tensor:
#      x y z
#    x 1.770680 0.000000 0.000000 
#    y 0.000000 1.740020 0.000000 
#    z 0.000000 0.000000 1.694710 
# 
# From -- ./inp_files/29004.got.cif
#   From: 2010.03.12/outbox.cif.g09.slc.cpg/sg42_15_cif.got.tgz:29004.got - 2010.04.14 02:04:31.
