data_PCOD8186544
_publ_section_title
;
Structure prediction by ZEFSAII (Michael W. Deem and Ramdas Pophale) SiO2 
 PCOD8186544
Probable space group: F M M 2
;
_chemical_formula_sum "Si O2"
_cell_formula_units_Z 88
_cell_length_a 15.526016
_cell_length_b 25.909943
_cell_length_c 11.973163
_cell_angle_alpha 90.000000
_cell_angle_beta 90.000000
_cell_angle_gamma 90.000000
_cell_volume 4816.542335
_symmetry_space_group_name_H-M "F M M 2"
_symmetry_group_IT_number 42
_symmetry_cell_setting 'orthorhombic'
loop_
_space_group_symop_operation_xyz
x,y,z
-x,-y,z
-x,y,z
x,-y,z
x,1/2+y,1/2+z
-x,1/2-y,1/2+z
-x,1/2+y,1/2+z
x,1/2-y,1/2+z
1/2+x,y,1/2+z
1/2-x,-y,1/2+z
1/2-x,y,1/2+z
1/2+x,-y,1/2+z
1/2+x,1/2+y,z
1/2-x,1/2-y,z
1/2-x,1/2+y,z
1/2+x,1/2-y,z
loop_
_atom_site_type_symbol
_atom_site_label
_atom_site_fract_x
_atom_site_fract_y
_atom_site_fract_z
Si Si1 0.500000 0.136971 0.580471
Si Si2 0.846023 0.608849 0.418706
Si Si3 0.500000 0.735644 0.205395
Si Si4 0.401856 0.000000 0.073282
Si Si5 0.653976 0.108849 0.992081
Si Si6 0.000000 0.136970 0.330317
Si Si7 0.094577 0.665016 0.205393
Si Si8 0.901856 0.500000 0.337509
O O1 0.414186 0.120270 0.516187
O O2 0.500000 0.199480 0.594747
O O3 0.500000 0.111480 0.705393
O O4 0.750000 0.620223 0.455394
O O5 0.857623 0.647348 0.315825
O O6 0.853257 0.549685 0.383271
O O7 0.500000 0.699479 0.316041
O O8 0.415363 0.772539 0.205396
O O9 0.353257 0.950315 0.027521
O O10 0.397442 0.000000 0.205395
O O11 0.500000 0.000000 0.030580
O O12 0.642376 0.147350 0.094959
O O13 0.585814 0.120268 0.894599
O O14 0.000000 0.637910 0.205392
O O15 0.000000 0.500000 0.380211
#
# Coordination Sequence:
#
# PCOD8186544 Si02
#       8
#     8  16   8   8  16   8  16   8
#     4  10  23  44  60  90 135 170 204 264 333 372
#     4  12  24  40  66  99 132 163 214 269 315 377
#     4   8  22  42  72  84 128 176 216 258 328 372
#     4  11  21  40  68  97 123 170 219 253 310 387
#     4  12  24  40  66  99 132 163 214 269 315 377
#     4  10  23  44  60  90 135 170 204 264 333 372
#     4  10  20  42  70  91 116 179 220 255 313 372
#     4  11  21  40  68  97 123 170 219 253 310 387
#
# _framework density 18.270368000000001
#
# number of rings (size 3 to 8) (size 9 to 14) (size 15 to 20)
#    1.091    0.182    5.455    0.545    2.545    2.909 
#    0.000    7.273    0.000    0.000    0.000    0.000 
#    0.000    0.000    0.000    0.000    0.000    0.000 
#
# Total GULP energy -272724.348449 kJ/mol
# GULP energy per Si atom -12396.561293 kJ/mol
# Density = 1.822878 g / cm^3
# Si number density = 18.270368 Si / 1000 Ang^3
#
#
#
# Elastic Constant Matrix: (Units=GPa)
#
#
# Indices 1 2 3 4 5 6 
#
# 1 157.1206 32.8914 65.7673 0.0000 0.0000 0.0000
# 2 32.8914 116.7292 32.8870 0.0000 0.0000 0.0000
# 3 65.7673 32.8870 122.7221 0.0000 0.0000 0.0000
# 4 0.0000 0.0000 0.0000 36.6149 0.0000 0.0000
# 5 0.0000 0.0000 0.0000 0.0000 30.1171 0.0000
# 6 0.0000 0.0000 0.0000 0.0000 0.0000 12.8132
#
#
#
# Elastic Compliance Matrix: (Units=1/GPa)
#
#
# Indices 1 2 3 4 5 6 
#
# 1 0.008353 -0.001182 -0.004160 0.000000 0.000000 0.000000
# 2 -0.001182 0.009434 -0.001895 0.000000 0.000000 0.000000
# 3 -0.004160 -0.001895 0.010885 0.000000 0.000000 0.000000
# 4 0.000000 0.000000 0.000000 0.027311 0.000000 0.000000
# 5 0.000000 0.000000 0.000000 0.000000 0.033204 0.000000
# 6 0.000000 0.000000 0.000000 0.000000 0.000000 0.078045
#
#
# Mechanical properties :
#
#
# Convention : Reuss Voigt Hill
#
# Bulk Modulus (GPa) = 70.42383 73.29595 71.85989
# Shear Modulus (GPa) = 26.81860 33.57743 30.19802
#
# Velocity S-wave (km/s) = 3.83544 4.29162 4.06993
# Velocity P-wave (km/s) = 7.63172 8.04747 7.84235
#
# Compressibility (1/GPa) = 0.01419974
#
# Stress axis : x y z
#
# Youngs Moduli (GPa) = 119.71573 106.00366 91.86537
#
# Poissons Ratio (x) = 0.12527 0.38214
# Poissons Ratio (y) = 0.14147 0.17406
# Poissons Ratio (z) = 0.49799 0.20085
#
# Static dielectric constant tensor:
#      x y z
#    x 3.269760 0.000000 0.000000 
#    y 0.000000 3.385540 0.000000 
#    z 0.000000 0.000000 3.355290 
# 
# 
# High freq. dielectric constant tensor:
#      x y z
#    x 1.701770 0.000000 0.000000 
#    y 0.000000 1.712160 0.000000 
#    z 0.000000 0.000000 1.716140 
# 
# From -- ./inp_files/8004.got.cif
#   From: 2010.03.12/outbox.cif.g09.slc.cpg/sg42_5_cif.got.tgz:8004.got - 2010.04.14 02:04:31.
