data_PCOD8186935
_publ_section_title
;
Structure prediction by ZEFSAII (Michael W. Deem and Ramdas Pophale) SiO2 
 PCOD8186935
Probable space group: F D D 2
;
_chemical_formula_sum "Si O2"
_cell_formula_units_Z 88
_cell_length_a 18.432460
_cell_length_b 25.574884
_cell_length_c 7.807052
_cell_angle_alpha 90.000000
_cell_angle_beta 90.000000
_cell_angle_gamma 90.000000
_cell_volume 3680.306975
_symmetry_space_group_name_H-M "F D D 2"
_symmetry_group_IT_number 43
_symmetry_cell_setting 'orthorhombic'
loop_
_space_group_symop_operation_xyz
x,y,z
-x,-y,z
1/4-x,1/4+y,1/4+z
1/4+x,1/4-y,1/4+z
x,1/2+y,1/2+z
-x,1/2-y,1/2+z
1/4-x,3/4+y,3/4+z
1/4+x,3/4-y,3/4+z
1/2+x,y,1/2+z
1/2-x,-y,1/2+z
3/4-x,1/4+y,3/4+z
3/4+x,1/4-y,3/4+z
1/2+x,1/2+y,z
1/2-x,1/2-y,z
3/4-x,3/4+y,1/4+z
3/4+x,3/4-y,1/4+z
loop_
_atom_site_type_symbol
_atom_site_label
_atom_site_fract_x
_atom_site_fract_y
_atom_site_fract_z
Si Si1 0.000000 0.500000 0.149071
Si Si2 0.567739 0.396644 0.726876
Si Si3 0.467731 0.321117 0.903126
Si Si4 0.701504 0.483259 0.294272
Si Si5 0.267360 0.393048 0.608487
Si Si6 0.151110 0.812772 0.143571
O O1 0.040343 0.455849 0.261759
O O2 0.060742 0.530883 0.044257
O O3 0.537223 0.358568 0.873749
O O4 0.654468 0.394488 0.735967
O O5 0.547376 0.375889 0.539652
O O6 0.443698 0.296150 0.723417
O O7 0.484316 0.276525 0.042872
O O8 0.717746 0.444474 0.138094
O O9 0.628646 0.517991 0.263659
O O10 0.333410 0.403559 0.476772
O O11 0.209594 0.349083 0.544405
#
# Coordination Sequence:
#
# PCOD8186935 Si02
#       6
#     8  16  16  16  16  16
#     4  10  18  34  64  88 122 158 220 258 318 382
#     4  10  20  37  63  96 120 171 210 271 308 402
#     4  11  23  39  66  90 132 163 224 255 337 374
#     4  11  21  41  62  93 123 173 209 275 323 398
#     4  10  21  37  61  92 127 160 219 266 323 387
#     4  11  22  36  62  92 122 168 212 272 318 391
#
# _framework density 23.911048000000001
#
# number of rings (size 3 to 8) (size 9 to 14) (size 15 to 20)
#    0.000    1.455    3.636    3.273    2.545    2.909 
#    0.000    0.000    0.000    0.000    0.000    0.000 
#    0.000    0.000    0.000    0.000    0.000    0.000 
#
# Total GULP energy -272549.203408 kJ/mol
# GULP energy per Si atom -12388.600155 kJ/mol
# Density = 2.385663 g / cm^3
# Si number density = 23.911048 Si / 1000 Ang^3
#
#
#
# Elastic Constant Matrix: (Units=GPa)
#
#
# Indices 1 2 3 4 5 6 
#
# 1 107.8817 45.8903 -5.1468 0.0001 0.0001 0.0000
# 2 45.8903 128.1142 8.0331 0.0000 0.0001 -0.0001
# 3 -5.1468 8.0331 31.8528 0.0011 -0.0019 -0.0003
# 4 0.0001 0.0000 0.0011 22.4382 -0.0006 -0.0001
# 5 0.0001 0.0001 -0.0019 -0.0006 -4.8586 0.0001
# 6 0.0000 -0.0001 -0.0003 -0.0001 0.0001 58.4651
#
#
#
# Elastic Compliance Matrix: (Units=1/GPa)
#
#
# Indices 1 2 3 4 5 6 
#
# 1 0.011187 -0.004187 0.002863 0.000000 -0.000001 0.000000
# 2 -0.004187 0.009498 -0.003072 0.000000 0.000001 0.000000
# 3 0.002863 -0.003072 0.032632 -0.000002 -0.000013 0.000000
# 4 0.000000 0.000000 -0.000002 0.044567 -0.000005 0.000000
# 5 -0.000001 0.000001 -0.000013 -0.000005 -0.205819 0.000000
# 6 0.000000 0.000000 0.000000 0.000000 0.000000 0.017104
#
#
# Mechanical properties :
#
#
# Convention : Reuss Voigt Hill
#
# Bulk Modulus (GPa) = 22.45856 40.60022 31.52939
# Shear Modulus (GPa) = -74.40585 29.81373 -22.29606
#
# Velocity S-wave (km/s) = -5.58438 3.53492 -3.05693
# Velocity P-wave (km/s) = 5.67164 5.80323 0.86889
#
# Compressibility (1/GPa) = 0.04452646
#
# Stress axis : x y z
#
# Youngs Moduli (GPa) = 89.38991 105.28744 30.64500
#
# Poissons Ratio (x) = 0.44081 -0.08775
# Poissons Ratio (y) = 0.37425 0.09413
# Poissons Ratio (z) = -0.25596 0.32342
#
# Static dielectric constant tensor:
#      x y z
#    x 4.613910 0.000000 0.000000 
#    y 0.000000 4.950020 0.000000 
#    z 0.000000 0.000000 3.835950 
# 
# 
# High freq. dielectric constant tensor:
#      x y z
#    x 1.955600 0.000000 0.000000 
#    y 0.000000 1.971100 0.000000 
#    z 0.000000 0.000000 1.904610 
# 
# From -- ./inp_files/2915.got.cif
#   From: 2010.06.25/outbox.cif.g09.slc.cpg/sg43_2_cif.got.tgz:2915.got - 2010.06.26 16:48:59.
