data_PCOD8186387
_publ_section_title
;
Structure prediction by ZEFSAII (Michael W. Deem and Ramdas Pophale) SiO2 
 PCOD8186387
Probable space group: F M M 2
;
_chemical_formula_sum "Si O2"
_cell_formula_units_Z 96
_cell_length_a 22.333449
_cell_length_b 24.216357
_cell_length_c 8.318025
_cell_angle_alpha 90.000000
_cell_angle_beta 90.000000
_cell_angle_gamma 90.000000
_cell_volume 4498.677171
_symmetry_space_group_name_H-M "F M M 2"
_symmetry_group_IT_number 42
_symmetry_cell_setting 'orthorhombic'
loop_
_space_group_symop_operation_xyz
x,y,z
-x,-y,z
-x,y,z
x,-y,z
x,1/2+y,1/2+z
-x,1/2-y,1/2+z
-x,1/2+y,1/2+z
x,1/2-y,1/2+z
1/2+x,y,1/2+z
1/2-x,-y,1/2+z
1/2-x,y,1/2+z
1/2+x,-y,1/2+z
1/2+x,1/2+y,z
1/2-x,1/2-y,z
1/2-x,1/2+y,z
1/2+x,1/2-y,z
loop_
_atom_site_type_symbol
_atom_site_label
_atom_site_fract_x
_atom_site_fract_y
_atom_site_fract_z
Si Si1 0.930359 0.722552 0.293590
Si Si2 0.161137 0.154136 0.970475
Si Si3 0.292769 0.061352 0.320792
Si Si4 0.167506 0.063067 0.455559
Si Si5 0.881218 0.321485 0.957761
Si Si6 0.270209 0.691625 0.277116
O O1 0.898047 0.690258 0.441178
O O2 0.918948 0.788360 0.319538
O O3 0.000000 0.709388 0.303443
O O4 0.904897 0.698895 0.128551
O O5 0.155383 0.088736 0.936723
O O6 0.208789 0.161623 0.821790
O O7 0.188187 0.163494 0.144002
O O8 0.223514 0.082791 0.345176
O O9 0.309746 0.065276 0.136435
O O10 0.291647 0.000000 0.387706
O O11 0.115865 0.111151 0.435591
O O12 0.144544 0.000000 0.415159
O O13 0.811777 0.302158 0.937718
O O14 0.250000 0.750000 0.208548
#
# Coordination Sequence:
#
# PCOD8186387 Si02
#       6
#    16  16  16  16  16  16
#     4  12  27  45  64  88 129 179 224 270 323 385
#     4  12  22  38  61  94 133 170 208 267 327 396
#     4  10  20  35  58  91 133 173 209 259 327 400
#     4  10  21  38  61  94 136 175 212 261 330 404
#     4  12  24  43  65  95 128 173 214 278 328 398
#     4  12  24  36  62  97 130 162 206 260 344 400
#
# _framework density 21.339606
#
# number of rings (size 3 to 8) (size 9 to 14) (size 15 to 20)
#    0.000    0.667    5.000    4.000    0.000    0.000 
#    0.000    0.833    0.000    3.500    0.000    0.000 
#    0.000   10.667    0.000    0.000    0.000    0.000 
#
# Total GULP energy -297321.816350 kJ/mol
# GULP energy per Si atom -12388.409015 kJ/mol
# Density = 2.129104 g / cm^3
# Si number density = 21.339606 Si / 1000 Ang^3
#
#
#
# Elastic Constant Matrix: (Units=GPa)
#
#
# Indices 1 2 3 4 5 6 
#
# 1 103.5504 52.2079 31.7058 0.0003 0.0006 0.0005
# 2 52.2079 131.0370 41.8019 0.0017 -0.0001 -0.0002
# 3 31.7058 41.8019 55.9468 0.0046 -0.0006 0.0013
# 4 0.0003 0.0017 0.0046 32.9033 0.0004 0.0004
# 5 0.0006 -0.0001 -0.0006 0.0004 16.9386 -0.0008
# 6 0.0005 -0.0002 0.0013 0.0004 -0.0008 16.1931
#
#
#
# Elastic Compliance Matrix: (Units=1/GPa)
#
#
# Indices 1 2 3 4 5 6 
#
# 1 0.012914 -0.003690 -0.004562 0.000001 -0.000001 0.000000
# 2 -0.003690 0.011074 -0.006183 0.000000 0.000000 0.000001
# 3 -0.004562 -0.006183 0.025079 -0.000003 0.000001 -0.000002
# 4 0.000001 0.000000 -0.000003 0.030392 -0.000001 -0.000001
# 5 -0.000001 0.000000 0.000001 -0.000001 0.059037 0.000003
# 6 0.000000 0.000001 -0.000002 -0.000001 0.000003 0.061755
#
#
# Mechanical properties :
#
#
# Convention : Reuss Voigt Hill
#
# Bulk Modulus (GPa) = 49.50986 60.21840 54.86413
# Shear Modulus (GPa) = 21.19965 24.19490 22.69728
#
# Velocity S-wave (km/s) = 3.15531 3.37085 3.26486
# Velocity P-wave (km/s) = 6.04367 6.59018 6.32283
#
# Compressibility (1/GPa) = 0.02019800
#
# Stress axis : x y z
#
# Youngs Moduli (GPa) = 77.43345 90.30077 39.87410
#
# Poissons Ratio (x) = 0.33323 0.18189
# Poissons Ratio (y) = 0.28574 0.24654
# Poissons Ratio (z) = 0.35321 0.55833
#
# Static dielectric constant tensor:
#      x y z
#    x 3.589990 0.000000 0.000010 
#    y 0.000000 4.837210 0.000000 
#    z 0.000010 0.000000 3.809280 
# 
# 
# High freq. dielectric constant tensor:
#      x y z
#    x 1.772320 0.000000 0.000000 
#    y 0.000000 1.863670 0.000000 
#    z 0.000000 0.000000 1.849650 
# 
# From -- ./inp_files/4804.got.cif
#   From: 2010.03.12/outbox.cif.g09.slc.cpg/sg42_3_cif.got.tgz:4804.got - 2010.04.14 02:04:31.
