data_PCOD8186556
_publ_section_title
;
Structure prediction by ZEFSAII (Michael W. Deem and Ramdas Pophale) SiO2 
 PCOD8186556
Probable space group: F M M 2
;
_chemical_formula_sum "Si O2"
_cell_formula_units_Z 96
_cell_length_a 18.568616
_cell_length_b 8.966716
_cell_length_c 30.742859
_cell_angle_alpha 90.000000
_cell_angle_beta 90.000000
_cell_angle_gamma 90.000000
_cell_volume 5118.670842
_symmetry_space_group_name_H-M "F M M 2"
_symmetry_group_IT_number 42
_symmetry_cell_setting 'orthorhombic'
loop_
_space_group_symop_operation_xyz
x,y,z
-x,-y,z
-x,y,z
x,-y,z
x,1/2+y,1/2+z
-x,1/2-y,1/2+z
-x,1/2+y,1/2+z
x,1/2-y,1/2+z
1/2+x,y,1/2+z
1/2-x,-y,1/2+z
1/2-x,y,1/2+z
1/2+x,-y,1/2+z
1/2+x,1/2+y,z
1/2-x,1/2-y,z
1/2-x,1/2+y,z
1/2+x,1/2-y,z
loop_
_atom_site_type_symbol
_atom_site_label
_atom_site_fract_x
_atom_site_fract_y
_atom_site_fract_z
Si Si1 0.917805 0.675213 0.909500
Si Si2 0.583836 0.673025 0.751510
Si Si3 0.082059 0.823975 0.997389
Si Si4 0.416966 0.671653 0.162735
Si Si5 0.327106 0.823620 0.579309
Si Si6 0.672528 0.823241 0.826513
O O1 0.911721 0.500000 0.916115
O O2 0.870024 0.730366 0.869268
O O3 0.000000 0.724359 0.900317
O O4 0.887879 0.752664 0.952997
O O5 0.500000 0.703294 0.760680
O O6 0.603698 0.500000 0.756520
O O7 0.604595 0.725372 0.703211
O O8 0.629408 0.770153 0.784612
O O9 0.129820 0.764744 0.037255
O O10 0.000000 0.772622 0.005659
O O11 0.087291 0.000000 0.992888
O O12 0.500000 0.692844 0.149690
O O13 0.401088 0.500000 0.174850
O O14 0.370064 0.726268 0.122126
O O15 0.250000 0.750000 0.580099
O O16 0.318888 0.000000 0.577548
O O17 0.750000 0.750000 0.827306
O O18 0.680203 0.000000 0.824645
#
# Coordination Sequence:
#
# PCOD8186556 Si02
#       6
#    16  16  16  16  16  16
#     4   9  19  36  57  80 105 136 176 220 266 317
#     4  10  21  37  58  84 111 139 177 224 270 320
#     4   9  18  34  56  79 103 135 177 221 261 306
#     4   9  18  35  58  79 102 138 182 223 263 310
#     4  10  21  35  52  77 108 141 176 215 262 316
#     4  11  23  38  56  79 110 146 182 221 268 322
#
# _framework density 18.754867999999998
#
# number of rings (size 3 to 8) (size 9 to 14) (size 15 to 20)
#    0.000    2.333    0.000    2.000    0.000    7.667 
#    0.000    6.667    0.000    5.000    0.000    0.000 
#    0.000    0.000    0.000    0.000    0.000    0.000 
#
# Total GULP energy -297683.704688 kJ/mol
# GULP energy per Si atom -12403.487695 kJ/mol
# Density = 1.871218 g / cm^3
# Si number density = 18.754868 Si / 1000 Ang^3
#
#
#
# Elastic Constant Matrix: (Units=GPa)
#
#
# Indices 1 2 3 4 5 6 
#
# 1 111.2121 41.7826 93.5731 0.0000 0.0000 0.0000
# 2 41.7826 49.9029 49.5799 0.0000 0.0000 0.0000
# 3 93.5731 49.5799 163.6516 0.0000 0.0000 0.0000
# 4 0.0000 0.0000 0.0000 34.5835 0.0000 0.0000
# 5 0.0000 0.0000 0.0000 0.0000 6.1084 0.0000
# 6 0.0000 0.0000 0.0000 0.0000 0.0000 29.4643
#
#
#
# Elastic Compliance Matrix: (Units=1/GPa)
#
#
# Indices 1 2 3 4 5 6 
#
# 1 0.019035 -0.007331 -0.008663 0.000000 0.000000 0.000000
# 2 -0.007331 0.031491 -0.005349 0.000000 0.000000 0.000000
# 3 -0.008663 -0.005349 0.012684 0.000000 0.000000 0.000000
# 4 0.000000 0.000000 0.000000 0.028916 0.000000 0.000000
# 5 0.000000 0.000000 0.000000 0.000000 0.163710 0.000000
# 6 0.000000 0.000000 0.000000 0.000000 0.000000 0.033939
#
#
# Mechanical properties :
#
#
# Convention : Reuss Voigt Hill
#
# Bulk Modulus (GPa) = 48.72058 77.18198 62.95128
# Shear Modulus (GPa) = 14.73612 23.35330 19.04471
#
# Velocity S-wave (km/s) = 2.80612 3.53255 3.19008
# Velocity P-wave (km/s) = 6.04425 7.60795 6.87073
#
# Compressibility (1/GPa) = 0.02052521
#
# Stress axis : x y z
#
# Youngs Moduli (GPa) = 52.53503 31.75502 78.83709
#
# Poissons Ratio (x) = 0.23279 0.68296
# Poissons Ratio (y) = 0.38512 0.42170
# Poissons Ratio (z) = 0.45511 0.16986
#
# Static dielectric constant tensor:
#      x y z
#    x 3.463800 0.000000 0.000000 
#    y 0.000000 3.356030 0.000000 
#    z 0.000000 0.000000 3.610390 
# 
# 
# High freq. dielectric constant tensor:
#      x y z
#    x 1.725560 0.000000 0.000000 
#    y 0.000000 1.723340 0.000000 
#    z 0.000000 0.000000 1.742400 
# 
# From -- ./inp_files/31432.got.cif
#   From: 2010.03.12/outbox.cif.g09.slc.cpg/sg42_16_cif.got.tgz:31432.got - 2010.04.14 02:04:31.
