data_PCOD8186824
_publ_section_title
;
Structure prediction by ZEFSAII (Michael W. Deem and Ramdas Pophale) SiO2 
 PCOD8186824
Probable space group: F M M 2
;
_chemical_formula_sum "Si O2"
_cell_formula_units_Z 112
_cell_length_a 14.178634
_cell_length_b 26.811048
_cell_length_c 14.989677
_cell_angle_alpha 90.000000
_cell_angle_beta 90.000000
_cell_angle_gamma 90.000000
_cell_volume 5698.236324
_symmetry_space_group_name_H-M "F M M 2"
_symmetry_group_IT_number 42
_symmetry_cell_setting 'orthorhombic'
loop_
_space_group_symop_operation_xyz
x,y,z
-x,-y,z
-x,y,z
x,-y,z
x,1/2+y,1/2+z
-x,1/2-y,1/2+z
-x,1/2+y,1/2+z
x,1/2-y,1/2+z
1/2+x,y,1/2+z
1/2-x,-y,1/2+z
1/2-x,y,1/2+z
1/2+x,-y,1/2+z
1/2+x,1/2+y,z
1/2-x,1/2-y,z
1/2-x,1/2+y,z
1/2+x,1/2-y,z
loop_
_atom_site_type_symbol
_atom_site_label
_atom_site_fract_x
_atom_site_fract_y
_atom_site_fract_z
Si Si1 0.858539 0.748319 0.056780
Si Si2 0.607663 0.557211 0.328223
Si Si3 0.253581 0.140183 0.346974
Si Si4 0.392516 0.645501 0.010197
Si Si5 0.391085 0.053673 0.620266
Si Si6 0.897693 0.777750 0.361306
Si Si7 0.393972 0.686518 0.735090
O O1 0.750000 0.750000 0.036459
O O2 0.893781 0.805060 0.072666
O O3 0.880502 0.712689 0.139726
O O4 0.906364 0.727135 0.967923
O O5 0.500000 0.573565 0.355887
O O6 0.623270 0.500000 0.358010
O O7 0.692769 0.590380 0.368774
O O8 0.621296 0.563922 0.223765
O O9 0.323174 0.152412 0.427807
O O10 0.179196 0.183500 0.330444
O O11 0.319769 0.141237 0.256701
O O12 0.500000 0.635141 0.977784
O O13 0.347791 0.599537 0.065634
O O14 0.500000 0.050481 0.595905
O O15 0.343901 0.000000 0.594753
O O16 0.874033 0.725372 0.314862
O O17 0.000000 0.796265 0.326907
O O18 0.500000 0.665055 0.739255
#
# Coordination Sequence:
#
# PCOD8186824 Si02
#       7
#    16  16  16  16  16  16  16
#     4  12  22  38  56  80 117 158 200 240 286 348
#     4   9  20  39  61  87 115 143 187 245 297 348
#     4  12  22  36  56  84 115 151 195 240 286 353
#     4  11  22  36  56  81 116 154 190 239 294 342
#     4   8  17  35  57  81 106 136 183 239 288 338
#     4  11  22  38  54  79 115 152 195 242 284 337
#     4  11  24  38  55  80 116 158 196 237 287 344
#
# _framework density 19.655204999999999
#
# number of rings (size 3 to 8) (size 9 to 14) (size 15 to 20)
#    0.000    1.429    2.857    4.286    4.000    0.571 
#    0.000    0.000    0.000    1.286    0.000    0.000 
#    0.000    0.000    0.000    0.000    0.000    0.000 
#
# Total GULP energy -346927.272284 kJ/mol
# GULP energy per Si atom -12390.259724 kJ/mol
# Density = 1.961047 g / cm^3
# Si number density = 19.655205 Si / 1000 Ang^3
#
#
#
# Elastic Constant Matrix: (Units=GPa)
#
#
# Indices 1 2 3 4 5 6 
#
# 1 108.1879 32.5151 2.8774 0.0000 0.0000 0.0000
# 2 32.5151 60.3054 1.2272 0.0000 0.0000 0.0000
# 3 2.8774 1.2272 54.7420 0.0000 0.0000 0.0000
# 4 0.0000 0.0000 0.0000 21.9946 0.0000 0.0000
# 5 0.0000 0.0000 0.0000 0.0000 21.9591 0.0000
# 6 0.0000 0.0000 0.0000 0.0000 0.0000 30.3966
#
#
#
# Elastic Compliance Matrix: (Units=1/GPa)
#
#
# Indices 1 2 3 4 5 6 
#
# 1 0.011042 -0.005944 -0.000447 0.000000 0.000000 0.000000
# 2 -0.005944 0.019790 -0.000131 0.000000 0.000000 0.000000
# 3 -0.000447 -0.000131 0.018294 0.000000 0.000000 0.000000
# 4 0.000000 0.000000 0.000000 0.045466 0.000000 0.000000
# 5 0.000000 0.000000 0.000000 0.000000 0.045539 0.000000
# 6 0.000000 0.000000 0.000000 0.000000 0.000000 0.032898
#
#
# Mechanical properties :
#
#
# Convention : Reuss Voigt Hill
#
# Bulk Modulus (GPa) = 27.71595 32.94163 30.32879
# Shear Modulus (GPa) = 25.23972 27.31111 26.27541
#
# Velocity S-wave (km/s) = 3.58735 3.73166 3.66022
# Velocity P-wave (km/s) = 5.59379 5.94669 5.77294
#
# Compressibility (1/GPa) = 0.03608031
#
# Stress axis : x y z
#
# Youngs Moduli (GPa) = 90.56682 50.53078 54.66288
#
# Poissons Ratio (x) = 0.30037 0.02444
# Poissons Ratio (y) = 0.53835 0.00717
# Poissons Ratio (z) = 0.04049 0.00663
#
# Static dielectric constant tensor:
#      x y z
#    x 3.862890 0.000000 0.000000 
#    y 0.000000 3.741850 0.000000 
#    z 0.000000 0.000000 3.401940 
# 
# 
# High freq. dielectric constant tensor:
#      x y z
#    x 1.776200 0.000000 0.000000 
#    y 0.000000 1.747640 0.000000 
#    z 0.000000 0.000000 1.748490 
# 
# From -- ./inp_files/14389.got.cif
#   From: 2010.03.12/outbox.cif.g09.slc.cpg/sg42_8_cif.got.tgz:14389.got - 2010.04.14 02:04:31.
