data_PCOD8186105
_publ_section_title
;
Structure prediction by ZEFSAII (Michael W. Deem and Ramdas Pophale) SiO2 
 PCOD8186105
Probable space group: F M M 2
;
_chemical_formula_sum "Si O2"
_cell_formula_units_Z 96
_cell_length_a 30.101426
_cell_length_b 19.157261
_cell_length_c 8.464931
_cell_angle_alpha 90.000000
_cell_angle_beta 90.000000
_cell_angle_gamma 90.000000
_cell_volume 4881.394512
_symmetry_space_group_name_H-M "F M M 2"
_symmetry_group_IT_number 42
_symmetry_cell_setting 'orthorhombic'
loop_
_space_group_symop_operation_xyz
x,y,z
-x,-y,z
-x,y,z
x,-y,z
x,1/2+y,1/2+z
-x,1/2-y,1/2+z
-x,1/2+y,1/2+z
x,1/2-y,1/2+z
1/2+x,y,1/2+z
1/2-x,-y,1/2+z
1/2-x,y,1/2+z
1/2+x,-y,1/2+z
1/2+x,1/2+y,z
1/2-x,1/2-y,z
1/2-x,1/2+y,z
1/2+x,1/2-y,z
loop_
_atom_site_type_symbol
_atom_site_label
_atom_site_fract_x
_atom_site_fract_y
_atom_site_fract_z
Si Si1 0.611637 0.422065 0.102190
Si Si2 0.757265 0.830931 0.219277
Si Si3 0.552230 0.319690 0.940445
Si Si4 0.298194 0.917626 0.438548
Si Si5 0.396906 0.284541 0.645566
Si Si6 0.150447 0.332342 0.852367
O O1 0.595528 0.500000 0.113899
O O2 0.649223 0.410321 0.967942
O O3 0.630905 0.402318 0.274091
O O4 0.567264 0.381292 0.055909
O O5 0.750000 0.750000 0.167229
O O6 0.713606 0.870489 0.286101
O O7 0.772203 0.880335 0.078641
O O8 0.796049 0.831293 0.352807
O O9 0.500000 0.319886 0.918292
O O10 0.575006 0.330232 0.769070
O O11 0.567825 0.248576 0.023269
O O12 0.284794 0.000000 0.422883
O O13 0.364179 0.329884 0.535167
O O14 0.366761 0.229959 0.740058
#
# Coordination Sequence:
#
# PCOD8186105 Si02
#       6
#    16  16  16  16  16  16
#     4   9  20  38  55  75 106 147 184 220 269 331
#     4  11  23  32  56  84 110 143 194 243 274 314
#     4  10  19  33  57  82 106 136 174 225 273 330
#     4  10  22  39  53  75 113 155 189 225 279 337
#     4   9  19  34  54  81 111 140 172 216 281 336
#     4   9  20  34  55  76 113 144 179 221 275 326
#
# _framework density 19.666511
#
# number of rings (size 3 to 8) (size 9 to 14) (size 15 to 20)
#    0.000    2.333    0.000    1.500   11.667    1.000 
#    0.000    1.667    0.000    0.000    0.000    0.000 
#    0.000    0.000    0.000    0.000    0.000    0.000 
#
# Total GULP energy -297469.336934 kJ/mol
# GULP energy per Si atom -12394.555706 kJ/mol
# Density = 1.962175 g / cm^3
# Si number density = 19.666511 Si / 1000 Ang^3
#
#
#
# Elastic Constant Matrix: (Units=GPa)
#
#
# Indices 1 2 3 4 5 6 
#
# 1 47.0692 1.4097 2.8327 0.0001 0.0000 0.0000
# 2 1.4097 82.7939 3.0341 0.0001 0.0000 0.0000
# 3 2.8327 3.0341 49.6499 0.0000 0.0000 0.0000
# 4 0.0001 0.0001 0.0000 14.7386 0.0000 0.0000
# 5 0.0000 0.0000 0.0000 0.0000 25.3380 0.0000
# 6 0.0000 0.0000 0.0000 0.0000 0.0000 16.4079
#
#
#
# Elastic Compliance Matrix: (Units=1/GPa)
#
#
# Indices 1 2 3 4 5 6 
#
# 1 0.021327 -0.000319 -0.001197 0.000000 0.000000 0.000000
# 2 -0.000319 0.012110 -0.000722 0.000000 0.000000 0.000000
# 3 -0.001197 -0.000722 0.020253 0.000000 0.000000 0.000000
# 4 0.000000 0.000000 0.000000 0.067849 0.000000 0.000000
# 5 0.000000 0.000000 0.000000 0.000000 0.039466 0.000000
# 6 0.000000 0.000000 0.000000 0.000000 0.000000 0.060946
#
#
# Mechanical properties :
#
#
# Convention : Reuss Voigt Hill
#
# Bulk Modulus (GPa) = 20.31954 21.56290 20.94122
# Shear Modulus (GPa) = 20.59026 22.77935 21.68480
#
# Velocity S-wave (km/s) = 3.23920 3.40704 3.32418
# Velocity P-wave (km/s) = 4.93400 5.14445 5.04032
#
# Compressibility (1/GPa) = 0.04921372
#
# Stress axis : x y z
#
# Youngs Moduli (GPa) = 46.88910 82.57594 49.37435
#
# Poissons Ratio (x) = 0.02636 0.05911
# Poissons Ratio (y) = 0.01497 0.03564
# Poissons Ratio (z) = 0.05614 0.05961
#
# Static dielectric constant tensor:
#      x y z
#    x 3.520990 0.000000 0.000000 
#    y 0.000000 3.566400 0.000000 
#    z 0.000000 0.000000 3.626520 
# 
# 
# High freq. dielectric constant tensor:
#      x y z
#    x 1.760740 0.000000 0.000000 
#    y 0.000000 1.749610 0.000000 
#    z 0.000000 0.000000 1.766480 
# 
# From -- ./inp_files/4151.got.cif
#   From: 2010.03.12/outbox.cif.g09.slc.cpg/sg42_3_cif.got.tgz:4151.got - 2010.04.14 02:04:31.
