data_PCOD8186845
_publ_section_title
;
Structure prediction by ZEFSAII (Michael W. Deem and Ramdas Pophale) SiO2 
 PCOD8186845
Probable space group: F M M 2
;
_chemical_formula_sum "Si O2"
_cell_formula_units_Z 80
_cell_length_a 17.212552
_cell_length_b 11.411390
_cell_length_c 19.646595
_cell_angle_alpha 90.000000
_cell_angle_beta 90.000000
_cell_angle_gamma 90.000000
_cell_volume 3858.967368
_symmetry_space_group_name_H-M "F M M 2"
_symmetry_group_IT_number 42
_symmetry_cell_setting 'orthorhombic'
loop_
_space_group_symop_operation_xyz
x,y,z
-x,-y,z
-x,y,z
x,-y,z
x,1/2+y,1/2+z
-x,1/2-y,1/2+z
-x,1/2+y,1/2+z
x,1/2-y,1/2+z
1/2+x,y,1/2+z
1/2-x,-y,1/2+z
1/2-x,y,1/2+z
1/2+x,-y,1/2+z
1/2+x,1/2+y,z
1/2-x,1/2-y,z
1/2-x,1/2+y,z
1/2+x,1/2-y,z
loop_
_atom_site_type_symbol
_atom_site_label
_atom_site_fract_x
_atom_site_fract_y
_atom_site_fract_z
Si Si1 0.340793 0.228413 0.913290
Si Si2 0.659212 0.745382 0.171702
Si Si3 0.590849 0.134833 0.044858
Si Si4 0.089044 0.500000 0.848503
Si Si5 0.088047 0.000000 0.187323
Si Si6 0.589540 0.135733 0.299163
O O1 0.250000 0.250000 0.908615
O O2 0.384498 0.336084 0.876304
O O3 0.364795 0.111492 0.874361
O O4 0.365679 0.220062 0.991927
O O5 0.750000 0.750000 0.158404
O O6 0.616121 0.833379 0.120822
O O7 0.631004 0.613620 0.158087
O O8 0.640455 0.786681 0.247993
O O9 0.500000 0.154985 0.037023
O O10 0.613077 0.000000 0.029760
O O11 0.090020 0.500000 0.768069
O O12 0.000000 0.500000 0.876295
O O13 0.000000 0.000000 0.160322
O O14 0.500000 0.170994 0.289146
O O15 0.603793 0.000000 0.284147
#
# Coordination Sequence:
#
# PCOD8186845 Si02
#       6
#    16  16  16   8   8  16
#     4  12  25  41  68 100 133 166 222 280 328 380
#     4  12  26  42  67  99 135 170 222 280 333 387
#     4  11  24  45  71  93 128 180 227 267 328 408
#     4  11  22  42  71  96 130 179 228 267 319 403
#     4  11  24  42  69  98 134 179 224 271 327 393
#     4  11  24  42  67  97 135 175 215 265 331 399
#
# _framework density 20.730934000000001
#
# number of rings (size 3 to 8) (size 9 to 14) (size 15 to 20)
#    0.000    0.600    3.000    5.400    4.200    1.600 
#    1.800    0.000    0.000    0.000    0.000    0.000 
#    0.000    0.000    0.000    0.000    0.000    0.000 
#
# Total GULP energy -248145.680350 kJ/mol
# GULP energy per Si atom -12407.284018 kJ/mol
# Density = 2.068375 g / cm^3
# Si number density = 20.730934 Si / 1000 Ang^3
#
#
#
# Elastic Constant Matrix: (Units=GPa)
#
#
# Indices 1 2 3 4 5 6 
#
# 1 136.4501 79.8613 27.8667 0.0000 0.0000 0.0000
# 2 79.8613 92.3396 30.0493 0.0000 0.0000 0.0000
# 3 27.8667 30.0493 84.5510 0.0000 0.0000 0.0000
# 4 0.0000 0.0000 0.0000 39.2538 0.0000 0.0000
# 5 0.0000 0.0000 0.0000 0.0000 99.5704 0.0000
# 6 0.0000 0.0000 0.0000 0.0000 0.0000 14.2166
#
#
#
# Elastic Compliance Matrix: (Units=1/GPa)
#
#
# Indices 1 2 3 4 5 6 
#
# 1 0.014851 -0.012723 -0.000373 0.000000 0.000000 0.000000
# 2 -0.012723 0.023146 -0.004033 0.000000 0.000000 0.000000
# 3 -0.000373 -0.004033 0.013383 0.000000 0.000000 0.000000
# 4 0.000000 0.000000 0.000000 0.025475 0.000000 0.000000
# 5 0.000000 0.000000 0.000000 0.000000 0.010043 0.000000
# 6 0.000000 0.000000 0.000000 0.000000 0.000000 0.070340
#
#
# Mechanical properties :
#
#
# Convention : Reuss Voigt Hill
#
# Bulk Modulus (GPa) = 58.40118 65.43281 61.91699
# Shear Modulus (GPa) = 25.35445 42.31240 33.83342
#
# Velocity S-wave (km/s) = 3.50097 4.52267 4.04422
# Velocity P-wave (km/s) = 6.67642 7.67491 7.19301
#
# Compressibility (1/GPa) = 0.01712294
#
# Stress axis : x y z
#
# Youngs Moduli (GPa) = 67.33374 43.20475 74.72003
#
# Poissons Ratio (x) = 0.54970 0.02787
# Poissons Ratio (y) = 0.85669 0.30131
# Poissons Ratio (z) = 0.02512 0.17423
#
# Static dielectric constant tensor:
#      x y z
#    x 3.300520 0.000000 0.000000 
#    y 0.000000 3.874750 0.000000 
#    z 0.000000 0.000000 3.784390 
# 
# 
# High freq. dielectric constant tensor:
#      x y z
#    x 1.822620 0.000000 0.000000 
#    y 0.000000 1.817870 0.000000 
#    z 0.000000 0.000000 1.814310 
# 
# From -- ./inp_files/24276.got.cif
#   From: 2010.03.12/outbox.cif.g09.slc.cpg/sg42_13_cif.got.tgz:24276.got - 2010.04.14 02:04:31.
