data_PCOD8186434
_publ_section_title
;
Structure prediction by ZEFSAII (Michael W. Deem and Ramdas Pophale) SiO2 
 PCOD8186434
Probable space group: F M M 2
;
_chemical_formula_sum "Si O2"
_cell_formula_units_Z 88
_cell_length_a 21.178507
_cell_length_b 12.647111
_cell_length_c 17.703227
_cell_angle_alpha 90.000000
_cell_angle_beta 90.000000
_cell_angle_gamma 90.000000
_cell_volume 4741.754983
_symmetry_space_group_name_H-M "F M M 2"
_symmetry_group_IT_number 42
_symmetry_cell_setting 'orthorhombic'
loop_
_space_group_symop_operation_xyz
x,y,z
-x,-y,z
-x,y,z
x,-y,z
x,1/2+y,1/2+z
-x,1/2-y,1/2+z
-x,1/2+y,1/2+z
x,1/2-y,1/2+z
1/2+x,y,1/2+z
1/2-x,-y,1/2+z
1/2-x,y,1/2+z
1/2+x,-y,1/2+z
1/2+x,1/2+y,z
1/2-x,1/2-y,z
1/2-x,1/2+y,z
1/2+x,1/2-y,z
loop_
_atom_site_type_symbol
_atom_site_label
_atom_site_fract_x
_atom_site_fract_y
_atom_site_fract_z
Si Si1 0.570857 0.284069 0.218860
Si Si2 0.250000 0.750000 0.183593
Si Si3 0.675952 0.218090 0.432707
Si Si4 0.158836 0.123892 0.094719
Si Si5 0.427425 0.378213 0.376562
Si Si6 0.847652 0.620659 0.278855
O O1 0.500000 0.287041 0.191812
O O2 0.607304 0.314198 0.143213
O O3 0.584898 0.366235 0.286865
O O4 0.584771 0.165607 0.251461
O O5 0.226155 0.845209 0.130497
O O6 0.198617 0.701273 0.237909
O O7 0.750000 0.250000 0.433101
O O8 0.655945 0.161685 0.509220
O O9 0.627418 0.315971 0.421737
O O10 0.663571 0.131220 0.368047
O O11 0.147367 0.000000 0.099648
O O12 0.500000 0.340263 0.395395
O O13 0.419404 0.500000 0.399101
O O14 0.839048 0.500000 0.253786
#
# Coordination Sequence:
#
# PCOD8186434 Si02
#       6
#    16   8  16  16  16  16
#     4   9  20  38  59  85 113 144 195 247 285 341
#     4  10  20  38  54  80 112 144 192 236 274 334
#     4  11  22  38  53  87 125 154 194 240 292 355
#     4  11  22  36  56  81 115 154 189 232 288 344
#     4   9  19  38  63  86 111 151 200 247 293 344
#     4  10  20  36  59  83 111 149 189 234 290 343
#
# _framework density 18.558530000000001
#
# number of rings (size 3 to 8) (size 9 to 14) (size 15 to 20)
#    0.000    2.000    1.818    1.636    0.000    3.636 
#    0.000    0.909    0.000    3.273    0.000    0.000 
#    0.000    0.000    0.000    0.000    0.000    0.000 
#
# Total GULP energy -272661.418104 kJ/mol
# GULP energy per Si atom -12393.700823 kJ/mol
# Density = 1.851629 g / cm^3
# Si number density = 18.558530 Si / 1000 Ang^3
#
#
#
# Elastic Constant Matrix: (Units=GPa)
#
#
# Indices 1 2 3 4 5 6 
#
# 1 90.7135 30.6980 34.2014 0.0000 0.0000 0.0000
# 2 30.6980 109.7894 37.3637 0.0000 0.0000 0.0000
# 3 34.2014 37.3637 121.7710 0.0000 0.0000 0.0000
# 4 0.0000 0.0000 0.0000 17.8730 0.0000 0.0000
# 5 0.0000 0.0000 0.0000 0.0000 15.3430 0.0000
# 6 0.0000 0.0000 0.0000 0.0000 0.0000 23.4867
#
#
#
# Elastic Compliance Matrix: (Units=1/GPa)
#
#
# Indices 1 2 3 4 5 6 
#
# 1 0.012994 -0.002670 -0.002830 0.000000 0.000000 0.000000
# 2 -0.002670 0.010719 -0.002539 0.000000 0.000000 0.000000
# 3 -0.002830 -0.002539 0.009786 0.000000 0.000000 0.000000
# 4 0.000000 0.000000 0.000000 0.055950 0.000000 0.000000
# 5 0.000000 0.000000 0.000000 0.000000 0.065176 0.000000
# 6 0.000000 0.000000 0.000000 0.000000 0.000000 0.042577
#
#
# Mechanical properties :
#
#
# Convention : Reuss Voigt Hill
#
# Bulk Modulus (GPa) = 57.40358 58.53336 57.96847
# Shear Modulus (GPa) = 22.82172 26.00792 24.41482
#
# Velocity S-wave (km/s) = 3.51054 3.74759 3.63100
# Velocity P-wave (km/s) = 6.88695 7.09466 6.99158
#
# Compressibility (1/GPa) = 0.01742052
#
# Stress axis : x y z
#
# Youngs Moduli (GPa) = 76.95594 93.29208 102.18494
#
# Poissons Ratio (x) = 0.24910 0.28923
# Poissons Ratio (y) = 0.20548 0.25945
# Poissons Ratio (z) = 0.21782 0.23687
#
# Static dielectric constant tensor:
#      x y z
#    x 3.797930 0.000000 0.000000 
#    y 0.000000 3.348170 0.000000 
#    z 0.000000 0.000000 3.411110 
# 
# 
# High freq. dielectric constant tensor:
#      x y z
#    x 1.726760 0.000000 0.000000 
#    y 0.000000 1.713030 0.000000 
#    z 0.000000 0.000000 1.722200 
# 
# From -- ./inp_files/18992.got.cif
#   From: 2010.03.12/outbox.cif.g09.slc.cpg/sg42_10_cif.got.tgz:18992.got - 2010.04.14 02:04:31.
