data_PCOD8186499
_publ_section_title
;
Structure prediction by ZEFSAII (Michael W. Deem and Ramdas Pophale) SiO2 
 PCOD8186499
Probable space group: F M M 2
;
_chemical_formula_sum "Si O2"
_cell_formula_units_Z 96
_cell_length_a 9.259342
_cell_length_b 27.813665
_cell_length_c 20.108082
_cell_angle_alpha 90.000000
_cell_angle_beta 90.000000
_cell_angle_gamma 90.000000
_cell_volume 5178.559762
_symmetry_space_group_name_H-M "F M M 2"
_symmetry_group_IT_number 42
_symmetry_cell_setting 'orthorhombic'
loop_
_space_group_symop_operation_xyz
x,y,z
-x,-y,z
-x,y,z
x,-y,z
x,1/2+y,1/2+z
-x,1/2-y,1/2+z
-x,1/2+y,1/2+z
x,1/2-y,1/2+z
1/2+x,y,1/2+z
1/2-x,-y,1/2+z
1/2-x,y,1/2+z
1/2+x,-y,1/2+z
1/2+x,1/2+y,z
1/2-x,1/2-y,z
1/2-x,1/2+y,z
1/2+x,1/2-y,z
loop_
_atom_site_type_symbol
_atom_site_label
_atom_site_fract_x
_atom_site_fract_y
_atom_site_fract_z
Si Si1 0.666014 0.899661 0.201880
Si Si2 0.334860 0.443987 0.322178
Si Si3 0.168089 0.796413 0.886599
Si Si4 0.829063 0.601369 0.441873
Si Si5 0.167147 0.055954 0.560644
Si Si6 0.835011 0.704904 0.234491
O O1 0.500000 0.908360 0.224175
O O2 0.770861 0.916989 0.259199
O O3 0.702786 0.928286 0.135395
O O4 0.693027 0.842725 0.190750
O O5 0.500000 0.427564 0.332890
O O6 0.324372 0.500000 0.307585
O O7 0.244603 0.432681 0.387841
O O8 0.250000 0.750000 0.915939
O O9 0.212092 0.843198 0.928683
O O10 0.214604 0.805766 0.810245
O O11 0.000000 0.785761 0.892651
O O12 0.769238 0.587208 0.513714
O O13 0.000000 0.593231 0.438725
O O14 0.000000 0.065987 0.543236
O O15 0.204422 0.000000 0.552513
O O16 0.750000 0.750000 0.203454
O O17 0.000000 0.720422 0.233122
#
# Coordination Sequence:
#
# PCOD8186499 Si02
#       6
#    16  16  16  16  16  16
#     4  10  20  38  60  82 111 149 189 229 277 335
#     4  11  23  36  54  83 114 142 183 237 283 330
#     4   9  18  33  54  82 111 141 181 226 275 333
#     4  11  22  38  58  82 112 148 189 232 279 333
#     4  10  22  39  58  81 112 152 193 231 278 335
#     4   9  17  32  54  82 112 142 181 225 274 332
#
# _framework density 18.537972
#
# number of rings (size 3 to 8) (size 9 to 14) (size 15 to 20)
#    0.000    2.000    1.667    2.000    0.000    7.000 
#    0.000    0.833    0.000    4.000    0.000    0.000 
#    0.000    0.000    0.000    0.000    0.000    0.000 
#
# Total GULP energy -297666.159409 kJ/mol
# GULP energy per Si atom -12402.756642 kJ/mol
# Density = 1.849578 g / cm^3
# Si number density = 18.537972 Si / 1000 Ang^3
#
#
#
# Elastic Constant Matrix: (Units=GPa)
#
#
# Indices 1 2 3 4 5 6 
#
# 1 72.7059 37.5550 27.6545 0.0000 0.0000 0.0000
# 2 37.5550 90.1806 17.3313 0.0000 0.0000 0.0000
# 3 27.6545 17.3313 48.8838 0.0000 0.0000 0.0000
# 4 0.0000 0.0000 0.0000 31.9938 0.0000 0.0000
# 5 0.0000 0.0000 0.0000 0.0000 28.3145 0.0000
# 6 0.0000 0.0000 0.0000 0.0000 0.0000 34.6814
#
#
#
# Elastic Compliance Matrix: (Units=1/GPa)
#
#
# Indices 1 2 3 4 5 6 
#
# 1 0.020878 -0.006894 -0.009367 0.000000 0.000000 0.000000
# 2 -0.006894 0.014176 -0.001126 0.000000 0.000000 0.000000
# 3 -0.009367 -0.001126 0.026155 0.000000 0.000000 0.000000
# 4 0.000000 0.000000 0.000000 0.031256 0.000000 0.000000
# 5 0.000000 0.000000 0.000000 0.000000 0.035318 0.000000
# 6 0.000000 0.000000 0.000000 0.000000 0.000000 0.028834
#
#
# Mechanical properties :
#
#
# Convention : Reuss Voigt Hill
#
# Bulk Modulus (GPa) = 37.82827 41.87244 39.85035
# Shear Modulus (GPa) = 24.97475 27.61322 26.29399
#
# Velocity S-wave (km/s) = 3.67443 3.86365 3.77023
# Velocity P-wave (km/s) = 6.20097 6.52228 6.36366
#
# Compressibility (1/GPa) = 0.02643526
#
# Stress axis : x y z
#
# Youngs Moduli (GPa) = 47.89747 70.54023 38.23392
#
# Poissons Ratio (x) = 0.48633 0.35813
# Poissons Ratio (y) = 0.33022 0.04305
# Poissons Ratio (z) = 0.44864 0.07942
#
# Static dielectric constant tensor:
#      x y z
#    x 3.469810 0.000000 0.000000 
#    y 0.000000 3.581220 0.000000 
#    z 0.000000 0.000000 3.231930 
# 
# 
# High freq. dielectric constant tensor:
#      x y z
#    x 1.721210 0.000000 0.000000 
#    y 0.000000 1.732910 0.000000 
#    z 0.000000 0.000000 1.697670 
# 
# From -- ./inp_files/23691.got.cif
#   From: 2010.03.12/outbox.cif.g09.slc.cpg/sg42_12_cif.got.tgz:23691.got - 2010.04.14 02:04:31.
