data_PCOD8186983
_publ_section_title
;
Structure prediction by ZEFSAII (Michael W. Deem and Ramdas Pophale) SiO2 
 PCOD8186983
Probable space group: F D D 2
;
_chemical_formula_sum "Si O2"
_cell_formula_units_Z 80
_cell_length_a 30.730109
_cell_length_b 15.170499
_cell_length_c 9.677503
_cell_angle_alpha 90.000000
_cell_angle_beta 90.000000
_cell_angle_gamma 90.000000
_cell_volume 4511.565651
_symmetry_space_group_name_H-M "F D D 2"
_symmetry_group_IT_number 43
_symmetry_cell_setting 'orthorhombic'
loop_
_space_group_symop_operation_xyz
x,y,z
-x,-y,z
1/4-x,1/4+y,1/4+z
1/4+x,1/4-y,1/4+z
x,1/2+y,1/2+z
-x,1/2-y,1/2+z
1/4-x,3/4+y,3/4+z
1/4+x,3/4-y,3/4+z
1/2+x,y,1/2+z
1/2-x,-y,1/2+z
3/4-x,1/4+y,3/4+z
3/4+x,1/4-y,3/4+z
1/2+x,1/2+y,z
1/2-x,1/2-y,z
3/4-x,3/4+y,1/4+z
3/4+x,3/4-y,1/4+z
loop_
_atom_site_type_symbol
_atom_site_label
_atom_site_fract_x
_atom_site_fract_y
_atom_site_fract_z
Si Si1 0.981291 0.823204 0.559420
Si Si2 0.500000 0.000000 0.926056
Si Si3 0.750000 0.250000 0.737627
Si Si4 0.017305 0.821652 0.852532
Si Si5 0.406918 0.797122 0.871884
Si Si6 0.680166 0.788083 0.455595
O O1 0.002070 0.740252 0.475228
O O2 0.930545 0.831425 0.512994
O O3 0.005191 0.913897 0.520462
O O4 0.985692 0.806930 0.721920
O O5 0.543386 0.998694 0.833827
O O6 0.729627 0.173873 0.642801
O O7 0.712957 0.298068 0.827536
O O8 0.066635 0.789201 0.817309
O O9 0.409072 0.869048 0.749318
O O10 0.357233 0.778950 0.908421
#
# Coordination Sequence:
#
# PCOD8186983 Si02
#       6
#    16   8   8  16  16  16
#     4   9  20  35  55  81 110 147 189 234 280 334
#     4   9  19  34  58  78 114 144 192 224 288 342
#     4  11  21  32  60  78 118 148 200 226 290 334
#     4  10  20  35  55  82 111 149 192 235 279 337
#     4   9  20  33  57  80 119 142 193 233 283 341
#     4  10  19  35  54  88 108 157 182 237 285 342
#
# _framework density 17.732202999999998
#
# number of rings (size 3 to 8) (size 9 to 14) (size 15 to 20)
#    1.200    1.200    0.000    3.000    2.800    0.000 
#    0.000    2.000    0.000    4.800    0.000    0.000 
#    0.000    0.000    0.000    0.000    0.000    0.000 
#
# Total GULP energy -247831.612825 kJ/mol
# GULP energy per Si atom -12391.580641 kJ/mol
# Density = 1.769184 g / cm^3
# Si number density = 17.732203 Si / 1000 Ang^3
#
#
#
# Elastic Constant Matrix: (Units=GPa)
#
#
# Indices 1 2 3 4 5 6 
#
# 1 90.1668 30.9001 28.4186 0.0000 0.0000 0.0000
# 2 30.9001 128.6699 39.6931 0.0000 0.0000 0.0000
# 3 28.4186 39.6931 95.7861 0.0000 0.0000 0.0000
# 4 0.0000 0.0000 0.0000 32.1094 0.0000 0.0000
# 5 0.0000 0.0000 0.0000 0.0000 9.5017 0.0000
# 6 0.0000 0.0000 0.0000 0.0000 0.0000 27.1673
#
#
#
# Elastic Compliance Matrix: (Units=1/GPa)
#
#
# Indices 1 2 3 4 5 6 
#
# 1 0.012743 -0.002171 -0.002881 0.000000 0.000000 0.000000
# 2 -0.002171 0.009281 -0.003202 0.000000 0.000000 0.000000
# 3 -0.002881 -0.003202 0.012621 0.000000 0.000000 0.000000
# 4 0.000000 0.000000 0.000000 0.031144 0.000000 0.000000
# 5 0.000000 0.000000 0.000000 0.000000 0.105244 0.000000
# 6 0.000000 0.000000 0.000000 0.000000 0.000000 0.036809
#
#
# Mechanical properties :
#
#
# Convention : Reuss Voigt Hill
#
# Bulk Modulus (GPa) = 55.13548 56.96070 56.04809
# Shear Modulus (GPa) = 21.70182 28.12975 24.91578
#
# Velocity S-wave (km/s) = 3.50217 3.98724 3.75255
# Velocity P-wave (km/s) = 6.89308 7.30684 7.10297
#
# Compressibility (1/GPa) = 0.01813714
#
# Stress axis : x y z
#
# Youngs Moduli (GPa) = 78.47644 107.74697 79.23059
#
# Poissons Ratio (x) = 0.23397 0.22824
# Poissons Ratio (y) = 0.17041 0.25368
# Poissons Ratio (z) = 0.22607 0.34498
#
# Static dielectric constant tensor:
#      x y z
#    x 3.016650 0.000000 0.000000 
#    y 0.000000 3.286020 0.000000 
#    z 0.000000 0.000000 3.125530 
# 
# 
# High freq. dielectric constant tensor:
#      x y z
#    x 1.662630 0.000000 0.000000 
#    y 0.000000 1.692660 0.000000 
#    z 0.000000 0.000000 1.675900 
# 
# From -- ./inp_files/2828.got.cif
#   From: 2010.06.25/outbox.cif.g09.slc.cpg/sg43_2_cif.got.tgz:2828.got - 2010.06.26 16:48:59.
