data_PCOD8186108
_publ_section_title
;
Structure prediction by ZEFSAII (Michael W. Deem and Ramdas Pophale) SiO2 
 PCOD8186108
Probable space group: F M M 2
;
_chemical_formula_sum "Si O2"
_cell_formula_units_Z 80
_cell_length_a 16.261553
_cell_length_b 20.312368
_cell_length_c 12.549193
_cell_angle_alpha 90.000000
_cell_angle_beta 90.000000
_cell_angle_gamma 90.000000
_cell_volume 4145.132082
_symmetry_space_group_name_H-M "F M M 2"
_symmetry_group_IT_number 42
_symmetry_cell_setting 'orthorhombic'
loop_
_space_group_symop_operation_xyz
x,y,z
-x,-y,z
-x,y,z
x,-y,z
x,1/2+y,1/2+z
-x,1/2-y,1/2+z
-x,1/2+y,1/2+z
x,1/2-y,1/2+z
1/2+x,y,1/2+z
1/2-x,-y,1/2+z
1/2-x,y,1/2+z
1/2+x,-y,1/2+z
1/2+x,1/2+y,z
1/2-x,1/2-y,z
1/2-x,1/2+y,z
1/2+x,1/2-y,z
loop_
_atom_site_type_symbol
_atom_site_label
_atom_site_fract_x
_atom_site_fract_y
_atom_site_fract_z
Si Si1 0.662951 0.156313 0.643690
Si Si2 0.907933 0.213398 0.721982
Si Si3 0.407933 0.713398 0.954663
Si Si4 0.837049 0.343687 0.032955
Si Si5 0.905438 0.577757 0.838323
O O1 0.657002 0.228036 0.699495
O O2 0.600002 0.156100 0.543149
O O3 0.750000 0.142435 0.588323
O O4 0.640507 0.101960 0.731432
O O5 0.888596 0.183299 0.838323
O O6 0.899998 0.156100 0.633496
O O7 0.000000 0.242981 0.718328
O O8 0.500000 0.742981 0.958317
O O9 0.342998 0.771964 0.977150
O O10 0.859493 0.398040 0.945213
O O11 0.900924 0.500000 0.838323
O O12 0.000000 0.602756 0.838323
#
# Coordination Sequence:
#
# PCOD8186108 Si02
#       5
#    16  16  16  16  16
#     4  11  22  34  58  86 119 148 189 243 294 340
#     4  10  19  33  57  87 125 158 187 230 288 358
#     4  10  19  33  57  87 125 158 187 230 288 358
#     4  11  22  34  58  86 119 148 189 243 294 340
#     4  11  24  44  65  80 109 159 207 242 280 348
#
# _framework density 19.299747
#
# number of rings (size 3 to 8) (size 9 to 14) (size 15 to 20)
#    0.000    1.400    2.000    7.200    2.800    2.400 
#    0.000    0.000    0.000    0.000    0.000    5.600 
#    0.000    0.000    0.000    0.000    0.000    0.000 
#
# Total GULP energy -247768.359039 kJ/mol
# GULP energy per Si atom -12388.417952 kJ/mol
# Density = 1.925582 g / cm^3
# Si number density = 19.299747 Si / 1000 Ang^3
#
#
#
# Elastic Constant Matrix: (Units=GPa)
#
#
# Indices 1 2 3 4 5 6 
#
# 1 120.2743 33.8641 60.5000 0.0000 0.0000 0.0000
# 2 33.8641 61.7176 51.3544 0.0000 0.0000 0.0000
# 3 60.5000 51.3544 212.1107 0.0000 0.0000 0.0000
# 4 0.0000 0.0000 0.0000 27.2361 0.0000 0.0000
# 5 0.0000 0.0000 0.0000 0.0000 37.9704 0.0000
# 6 0.0000 0.0000 0.0000 0.0000 0.0000 9.4776
#
#
#
# Elastic Compliance Matrix: (Units=1/GPa)
#
#
# Indices 1 2 3 4 5 6 
#
# 1 0.010468 -0.004082 -0.001998 0.000000 0.000000 0.000000
# 2 -0.004082 0.021882 -0.004134 0.000000 0.000000 0.000000
# 3 -0.001998 -0.004134 0.006285 0.000000 0.000000 0.000000
# 4 0.000000 0.000000 0.000000 0.036716 0.000000 0.000000
# 5 0.000000 0.000000 0.000000 0.000000 0.026336 0.000000
# 6 0.000000 0.000000 0.000000 0.000000 0.000000 0.105512
#
#
# Mechanical properties :
#
#
# Convention : Reuss Voigt Hill
#
# Bulk Modulus (GPa) = 54.91652 76.17106 65.54379
# Shear Modulus (GPa) = 21.39536 31.49578 26.44557
#
# Velocity S-wave (km/s) = 3.33315 4.04409 3.70571
# Velocity P-wave (km/s) = 6.58251 7.83322 7.23494
#
# Compressibility (1/GPa) = 0.01820946
#
# Stress axis : x y z
#
# Youngs Moduli (GPa) = 95.52538 45.69961 159.10615
#
# Poissons Ratio (x) = 0.18653 0.31784
# Poissons Ratio (y) = 0.38991 0.65769
# Poissons Ratio (z) = 0.19083 0.18891
#
# Static dielectric constant tensor:
#      x y z
#    x 3.639260 0.000000 0.000000 
#    y 0.000000 2.974470 0.000000 
#    z 0.000000 0.000000 4.225630 
# 
# 
# High freq. dielectric constant tensor:
#      x y z
#    x 1.758470 0.000000 0.000000 
#    y 0.000000 1.677420 0.000000 
#    z 0.000000 0.000000 1.789370 
# 
# From -- ./inp_files/13827.got.cif
#   From: 2010.03.12/outbox.cif.g09.slc.cpg/sg42_7_cif.got.tgz:13827.got - 2010.04.14 02:04:31.
