data_PCOD8186599
_publ_section_title
;
Structure prediction by ZEFSAII (Michael W. Deem and Ramdas Pophale) SiO2 
 PCOD8186599
Probable space group: F M M 2
;
_chemical_formula_sum "Si O2"
_cell_formula_units_Z 80
_cell_length_a 21.198691
_cell_length_b 22.888635
_cell_length_c 8.715326
_cell_angle_alpha 90.000000
_cell_angle_beta 90.000000
_cell_angle_gamma 90.000000
_cell_volume 4228.755491
_symmetry_space_group_name_H-M "F M M 2"
_symmetry_group_IT_number 42
_symmetry_cell_setting 'orthorhombic'
loop_
_space_group_symop_operation_xyz
x,y,z
-x,-y,z
-x,y,z
x,-y,z
x,1/2+y,1/2+z
-x,1/2-y,1/2+z
-x,1/2+y,1/2+z
x,1/2-y,1/2+z
1/2+x,y,1/2+z
1/2-x,-y,1/2+z
1/2-x,y,1/2+z
1/2+x,-y,1/2+z
1/2+x,1/2+y,z
1/2-x,1/2-y,z
1/2-x,1/2+y,z
1/2+x,1/2-y,z
loop_
_atom_site_type_symbol
_atom_site_label
_atom_site_fract_x
_atom_site_fract_y
_atom_site_fract_z
Si Si1 0.168500 0.065928 0.187160
Si Si2 0.069499 0.664622 0.650533
Si Si3 0.200105 0.696439 0.217966
Si Si4 0.262791 0.882873 0.957750
Si Si5 0.928809 0.766807 0.847387
O O1 0.115567 0.110658 0.131861
O O2 0.227571 0.073476 0.073609
O O3 0.186488 0.079252 0.363288
O O4 0.142951 0.000000 0.175752
O O5 0.074352 0.696480 0.816899
O O6 0.084580 0.714713 0.522446
O O7 0.000000 0.638736 0.624544
O O8 0.250000 0.750000 0.234410
O O9 0.214861 0.646078 0.339131
O O10 0.204561 0.670439 0.047474
O O11 0.126786 0.710093 0.238927
O O12 0.000000 0.788016 0.797334
#
# Coordination Sequence:
#
# PCOD8186599 Si02
#       5
#    16  16  16  16  16
#     4  11  22  40  59  81 113 153 197 237 281 339
#     4  10  22  38  58  85 115 151 190 234 291 345
#     4  11  21  33  57  86 119 153 184 236 292 354
#     4  10  22  36  54  85 115 146 194 234 286 339
#     4  10  21  37  57  85 120 152 187 234 295 358
#
# _framework density 18.918095000000001
#
# number of rings (size 3 to 8) (size 9 to 14) (size 15 to 20)
#    0.000    1.600    2.000    3.600    5.600    0.400 
#    0.000    0.000    0.000    0.000    0.000    0.000 
#    0.000    0.000    0.000    0.000    0.000    0.000 
#
# Total GULP energy -247814.809307 kJ/mol
# GULP energy per Si atom -12390.740465 kJ/mol
# Density = 1.887504 g / cm^3
# Si number density = 18.918095 Si / 1000 Ang^3
#
#
#
# Elastic Constant Matrix: (Units=GPa)
#
#
# Indices 1 2 3 4 5 6 
#
# 1 102.8781 43.2517 34.7252 -0.0014 0.0013 0.0008
# 2 43.2517 112.1349 39.8200 -0.0019 0.0012 0.0009
# 3 34.7252 39.8200 87.5587 -0.0051 0.0033 0.0027
# 4 -0.0014 -0.0019 -0.0051 21.2817 0.0018 0.0015
# 5 0.0013 0.0012 0.0033 0.0018 17.9462 -0.0009
# 6 0.0008 0.0009 0.0027 0.0015 -0.0009 17.4523
#
#
#
# Elastic Compliance Matrix: (Units=1/GPa)
#
#
# Indices 1 2 3 4 5 6 
#
# 1 0.012332 -0.003602 -0.003253 0.000000 0.000000 0.000000
# 2 -0.003602 0.011687 -0.003887 0.000000 0.000000 0.000000
# 3 -0.003253 -0.003887 0.014479 0.000003 -0.000002 -0.000002
# 4 0.000000 0.000000 0.000003 0.046989 -0.000005 -0.000004
# 5 0.000000 0.000000 -0.000002 -0.000005 0.055722 0.000003
# 6 0.000000 0.000000 -0.000002 -0.000004 0.000003 0.057299
#
#
# Mechanical properties :
#
#
# Convention : Reuss Voigt Hill
#
# Bulk Modulus (GPa) = 58.76970 59.79617 59.28293
# Shear Modulus (GPa) = 22.15695 23.65435 22.90565
#
# Velocity S-wave (km/s) = 3.42600 3.53987 3.48340
# Velocity P-wave (km/s) = 6.83979 6.95587 6.89807
#
# Compressibility (1/GPa) = 0.01701557
#
# Stress axis : x y z
#
# Youngs Moduli (GPa) = 81.08699 85.56357 69.06716
#
# Poissons Ratio (x) = 0.30816 0.22468
# Poissons Ratio (y) = 0.29204 0.26845
# Poissons Ratio (z) = 0.26378 0.33256
#
# Static dielectric constant tensor:
#      x y z
#    x 3.552830 0.000000 0.000000 
#    y 0.000000 3.263020 0.000000 
#    z 0.000000 0.000000 3.604410 
# 
# 
# High freq. dielectric constant tensor:
#      x y z
#    x 1.738120 0.000000 0.000000 
#    y 0.000000 1.708200 0.000000 
#    z 0.000000 0.000000 1.743540 
# 
# From -- ./inp_files/3477.got.cif
#   From: 2010.03.12/outbox.cif.g09.slc.cpg/sg42_2_cif.got.tgz:3477.got - 2010.04.14 02:04:31.
