data_PCOD8186765
_publ_section_title
;
Structure prediction by ZEFSAII (Michael W. Deem and Ramdas Pophale) SiO2 
 PCOD8186765
Probable space group: F M M 2
;
_chemical_formula_sum "Si O2"
_cell_formula_units_Z 60
_cell_length_a 15.625611
_cell_length_b 10.344620
_cell_length_c 16.070072
_cell_angle_alpha 90.000000
_cell_angle_beta 90.000000
_cell_angle_gamma 90.000000
_cell_volume 2597.582638
_symmetry_space_group_name_H-M "F M M 2"
_symmetry_group_IT_number 42
_symmetry_cell_setting 'orthorhombic'
loop_
_space_group_symop_operation_xyz
x,y,z
-x,-y,z
-x,y,z
x,-y,z
x,1/2+y,1/2+z
-x,1/2-y,1/2+z
-x,1/2+y,1/2+z
x,1/2-y,1/2+z
1/2+x,y,1/2+z
1/2-x,-y,1/2+z
1/2-x,y,1/2+z
1/2+x,-y,1/2+z
1/2+x,1/2+y,z
1/2-x,1/2-y,z
1/2-x,1/2+y,z
1/2+x,1/2-y,z
loop_
_atom_site_type_symbol
_atom_site_label
_atom_site_fract_x
_atom_site_fract_y
_atom_site_fract_z
Si Si1 0.093143 0.000000 0.075390
Si Si2 0.500000 0.500000 0.911526
Si Si3 0.000000 0.644625 0.911561
Si Si4 0.659075 0.260415 0.652676
Si Si5 0.322058 0.147608 0.979211
Si Si6 0.500000 0.208917 0.266305
O O1 0.141748 0.125285 0.107145
O O2 0.000000 0.000000 0.118662
O O3 0.082988 0.000000 0.973895
O O4 0.500000 0.622219 0.850019
O O5 0.912709 0.706480 0.947464
O O6 0.000000 0.650210 0.809810
O O7 0.000000 0.500000 0.943460
O O8 0.750000 0.250000 0.702526
O O9 0.672806 0.363198 0.579124
O O10 0.584477 0.312538 0.712063
O O11 0.250000 0.250000 0.948956
O O12 0.303978 0.000000 0.946165
#
# Coordination Sequence:
#
# PCOD8186765 Si02
#       6
#     8   4   8  16  16   8
#     4  10  22  49  73 101 130 196 246 286 335 433
#     4  10  24  40  74  94 146 180 242 280 366 412
#     4  10  23  43  71  96 137 179 225 280 353 414
#     4  11  25  40  74 100 137 179 240 289 351 413
#     4  10  23  44  69 101 132 177 233 289 336 418
#     4  12  24  43  64 104 141 187 221 295 358 427
#
# _framework density 23.098399000000001
#
# number of rings (size 3 to 8) (size 9 to 14) (size 15 to 20)
#    0.400    1.067    1.333    2.400   11.200    1.067 
#    2.400    1.333    0.000    0.000    0.000    0.000 
#    0.000    0.000    0.000    0.000    0.000    0.000 
#
# Total GULP energy -185822.559670 kJ/mol
# GULP energy per Si atom -12388.170645 kJ/mol
# Density = 2.304583 g / cm^3
# Si number density = 23.098399 Si / 1000 Ang^3
#
#
#
# Elastic Constant Matrix: (Units=GPa)
#
#
# Indices 1 2 3 4 5 6 
#
# 1 233.4366 50.4295 56.3359 0.0000 0.0000 0.0000
# 2 50.4295 109.8643 25.1844 0.0000 0.0000 0.0000
# 3 56.3359 25.1844 76.5030 0.0000 0.0000 0.0000
# 4 0.0000 0.0000 0.0000 -11.7997 0.0000 0.0000
# 5 0.0000 0.0000 0.0000 0.0000 -21.1732 0.0000
# 6 0.0000 0.0000 0.0000 0.0000 0.0000 31.5593
#
#
#
# Elastic Compliance Matrix: (Units=1/GPa)
#
#
# Indices 1 2 3 4 5 6 
#
# 1 0.005496 -0.001725 -0.003479 0.000000 0.000000 0.000000
# 2 -0.001725 0.010387 -0.002149 0.000000 0.000000 0.000000
# 3 -0.003479 -0.002149 0.016341 0.000000 0.000000 0.000000
# 4 0.000000 0.000000 0.000000 -0.084748 0.000000 0.000000
# 5 0.000000 0.000000 0.000000 0.000000 -0.047229 0.000000
# 6 0.000000 0.000000 0.000000 0.000000 0.000000 0.031686
#
#
# Mechanical properties :
#
#
# Convention : Reuss Voigt Hill
#
# Bulk Modulus (GPa) = 57.08768 75.96708 66.52738
# Shear Modulus (GPa) = -105.21652 18.90753 -43.15450
#
# Velocity S-wave (km/s) = -6.75650 2.86416 -4.32706
# Velocity P-wave (km/s) = 6.00820 6.62554 1.97475
#
# Compressibility (1/GPa) = 0.01751692
#
# Stress axis : x y z
#
# Youngs Moduli (GPa) = 181.94309 96.27766 61.19602
#
# Poissons Ratio (x) = 0.16610 0.21293
# Poissons Ratio (y) = 0.31390 0.13150
# Poissons Ratio (z) = 0.63305 0.20688
#
# Static dielectric constant tensor:
#      x y z
#    x 4.579620 0.000000 0.000000 
#    y 0.000000 4.342870 0.000000 
#    z 0.000000 0.000000 3.850940 
# 
# 
# High freq. dielectric constant tensor:
#      x y z
#    x 1.932740 0.000000 0.000000 
#    y 0.000000 1.919130 0.000000 
#    z 0.000000 0.000000 1.882870 
# 
# From -- ./inp_files/19590.got.cif
#   From: 2010.03.12/outbox.cif.g09.slc.cpg/sg42_10_cif.got.tgz:19590.got - 2010.04.14 02:04:31.
