data_PCOD8186043
_publ_section_title
;
Structure prediction by ZEFSAII (Michael W. Deem and Ramdas Pophale) SiO2 
 PCOD8186043
Probable space group: F M M 2
;
_chemical_formula_sum "Si O2"
_cell_formula_units_Z 96
_cell_length_a 8.762882
_cell_length_b 31.541842
_cell_length_c 18.992809
_cell_angle_alpha 90.000000
_cell_angle_beta 90.000000
_cell_angle_gamma 90.000000
_cell_volume 5249.563777
_symmetry_space_group_name_H-M "F M M 2"
_symmetry_group_IT_number 42
_symmetry_cell_setting 'orthorhombic'
loop_
_space_group_symop_operation_xyz
x,y,z
-x,-y,z
-x,y,z
x,-y,z
x,1/2+y,1/2+z
-x,1/2-y,1/2+z
-x,1/2+y,1/2+z
x,1/2-y,1/2+z
1/2+x,y,1/2+z
1/2-x,-y,1/2+z
1/2-x,y,1/2+z
1/2+x,-y,1/2+z
1/2+x,1/2+y,z
1/2-x,1/2-y,z
1/2-x,1/2+y,z
1/2+x,1/2-y,z
loop_
_atom_site_type_symbol
_atom_site_label
_atom_site_fract_x
_atom_site_fract_y
_atom_site_fract_z
Si Si1 0.317824 0.634726 0.902430
Si Si2 0.170875 0.953603 0.061303
Si Si3 0.823782 0.205827 0.144023
Si Si4 0.320479 0.867598 0.054621
Si Si5 0.824539 0.293629 0.809785
Si Si6 0.170642 0.044462 0.894216
O O1 0.500000 0.633307 0.908262
O O2 0.266126 0.669441 0.847741
O O3 0.253689 0.589233 0.871665
O O4 0.253319 0.643618 0.979710
O O5 0.275871 0.914184 0.085011
O O6 0.000000 0.946238 0.090989
O O7 0.232193 0.000000 0.088056
O O8 0.165211 0.954242 0.977869
O O9 0.750000 0.250000 0.118748
O O10 0.734704 0.167177 0.109670
O O11 0.804959 0.200267 0.227098
O O12 0.000000 0.205380 0.120969
O O13 0.500000 0.865384 0.046382
O O14 0.750000 0.250000 0.835314
O O15 0.000000 0.294216 0.833168
O O16 0.000000 0.042507 0.863663
O O17 0.254776 0.000000 0.870316
#
# Coordination Sequence:
#
# PCOD8186043 Si02
#       6
#    16  16  16  16  16  16
#     4  10  19  32  52  77 105 135 169 208 251 298
#     4   8  14  27  47  70  99 135 171 206 249 299
#     4  10  21  38  57  75  98 130 169 210 256 310
#     4  11  21  32  50  78 109 136 169 212 254 297
#     4  10  21  37  56  76  99 129 167 209 254 307
#     4   7  11  22  42  68  96 127 162 197 235 283
#
# _framework density 18.287233000000001
#
# number of rings (size 3 to 8) (size 9 to 14) (size 15 to 20)
#    0.000    2.667    0.000    5.000    0.000    3.000 
#    0.000    3.333    0.000    2.500    0.000    4.667 
#    0.000    0.000    0.000    0.000    0.000    0.000 
#
# Total GULP energy -297334.188680 kJ/mol
# GULP energy per Si atom -12388.924528 kJ/mol
# Density = 1.824561 g / cm^3
# Si number density = 18.287233 Si / 1000 Ang^3
#
#
#
# Elastic Constant Matrix: (Units=GPa)
#
#
# Indices 1 2 3 4 5 6 
#
# 1 105.7487 60.8449 24.1032 0.0000 0.0000 0.0000
# 2 60.8449 188.0345 39.7342 0.0000 0.0000 0.0000
# 3 24.1032 39.7342 23.0711 0.0000 0.0000 0.0000
# 4 0.0000 0.0000 0.0000 -12.9788 0.0000 0.0000
# 5 0.0000 0.0000 0.0000 0.0000 22.2346 0.0000
# 6 0.0000 0.0000 0.0000 0.0000 0.0000 30.8297
#
#
#
# Elastic Compliance Matrix: (Units=1/GPa)
#
#
# Indices 1 2 3 4 5 6 
#
# 1 0.012913 -0.002087 -0.009896 0.000000 0.000000 0.000000
# 2 -0.002087 0.008698 -0.012800 0.000000 0.000000 0.000000
# 3 -0.009896 -0.012800 0.075728 0.000000 0.000000 0.000000
# 4 0.000000 0.000000 0.000000 -0.077049 0.000000 0.000000
# 5 0.000000 0.000000 0.000000 0.000000 0.044975 0.000000
# 6 0.000000 0.000000 0.000000 0.000000 0.000000 0.032436
#
#
# Mechanical properties :
#
#
# Convention : Reuss Voigt Hill
#
# Bulk Modulus (GPa) = 20.93249 62.91323 41.92286
# Shear Modulus (GPa) = 30.63879 20.82856 25.73368
#
# Velocity S-wave (km/s) = 4.09763 3.37852 3.75533
# Velocity P-wave (km/s) = 5.81883 7.04959 6.46357
#
# Compressibility (1/GPa) = 0.04777263
#
# Stress axis : x y z
#
# Youngs Moduli (GPa) = 77.44204 114.96313 13.20521
#
# Poissons Ratio (x) = 0.23996 0.13067
# Poissons Ratio (y) = 0.16165 0.16903
# Poissons Ratio (z) = 0.76634 1.47155
#
# Static dielectric constant tensor:
#      x y z
#    x 3.339900 0.000000 0.000000 
#    y 0.000000 4.204470 0.000000 
#    z 0.000000 0.000000 2.902110 
# 
# 
# High freq. dielectric constant tensor:
#      x y z
#    x 1.698930 0.000000 0.000000 
#    y 0.000000 1.740600 0.000000 
#    z 0.000000 0.000000 1.658290 
# 
# From -- ./inp_files/23687.got.cif
#   From: 2010.03.12/outbox.cif.g09.slc.cpg/sg42_12_cif.got.tgz:23687.got - 2010.04.14 02:04:31.
