data_PCOD8186410
_publ_section_title
;
Structure prediction by ZEFSAII (Michael W. Deem and Ramdas Pophale) SiO2 
 PCOD8186410
Probable space group: F M M 2
;
_chemical_formula_sum "Si O2"
_cell_formula_units_Z 80
_cell_length_a 9.496698
_cell_length_b 15.763697
_cell_length_c 28.766032
_cell_angle_alpha 90.000000
_cell_angle_beta 90.000000
_cell_angle_gamma 90.000000
_cell_volume 4306.363296
_symmetry_space_group_name_H-M "F M M 2"
_symmetry_group_IT_number 42
_symmetry_cell_setting 'orthorhombic'
loop_
_space_group_symop_operation_xyz
x,y,z
-x,-y,z
-x,y,z
x,-y,z
x,1/2+y,1/2+z
-x,1/2-y,1/2+z
-x,1/2+y,1/2+z
x,1/2-y,1/2+z
1/2+x,y,1/2+z
1/2-x,-y,1/2+z
1/2-x,y,1/2+z
1/2+x,-y,1/2+z
1/2+x,1/2+y,z
1/2-x,1/2-y,z
1/2-x,1/2+y,z
1/2+x,1/2-y,z
loop_
_atom_site_type_symbol
_atom_site_label
_atom_site_fract_x
_atom_site_fract_y
_atom_site_fract_z
Si Si1 0.332821 0.000000 0.120570
Si Si2 0.163310 0.000000 0.214721
Si Si3 0.336553 0.336541 0.562303
Si Si4 0.838226 0.832654 0.458213
Si Si5 0.666917 0.408788 0.363669
Si Si6 0.335643 0.170246 0.770996
O O1 0.259895 0.000000 0.169877
O O2 0.283988 0.085794 0.094151
O O3 0.500000 0.000000 0.126262
O O4 0.200159 0.084175 0.243687
O O5 0.000000 0.000000 0.200118
O O6 0.500000 0.314730 0.571441
O O7 0.250000 0.250000 0.572375
O O8 0.314998 0.371318 0.509566
O O9 0.750000 0.750000 0.453605
O O10 0.783154 0.891658 0.416455
O O11 0.000000 0.809101 0.450172
O O12 0.500000 0.413361 0.361432
O O13 0.730601 0.500000 0.349997
O O14 0.715686 0.341516 0.324677
O O15 0.500000 0.191791 0.767229
O O16 0.250000 0.250000 0.749940
#
# Coordination Sequence:
#
# PCOD8186410 Si02
#       6
#     8   8  16  16  16  16
#     4  10  22  38  57  79 105 135 174 224 269 310
#     4  10  22  40  57  77 105 137 176 218 265 322
#     4   9  19  35  54  79 109 139 174 216 260 309
#     4   9  17  29  49  75 104 137 172 208 249 301
#     4   9  16  28  50  78 106 138 175 210 248 304
#     4  10  20  36  57  80 107 139 175 215 260 311
#
# _framework density 18.577159999999999
#
# number of rings (size 3 to 8) (size 9 to 14) (size 15 to 20)
#    0.000    2.600    1.000    0.600    1.400    2.400 
#    0.000    4.000    0.000    1.800    0.000    0.000 
#    0.000    0.000    0.000    0.000    0.000    0.000 
#
# Total GULP energy -247822.013827 kJ/mol
# GULP energy per Si atom -12391.100691 kJ/mol
# Density = 1.853488 g / cm^3
# Si number density = 18.577160 Si / 1000 Ang^3
#
#
#
# Elastic Constant Matrix: (Units=GPa)
#
#
# Indices 1 2 3 4 5 6 
#
# 1 39.7166 44.0233 43.6306 0.0000 0.0000 0.0000
# 2 44.0233 114.7777 73.3808 0.0000 0.0000 0.0000
# 3 43.6306 73.3808 115.3387 0.0000 0.0000 0.0000
# 4 0.0000 0.0000 0.0000 23.6440 0.0000 0.0000
# 5 0.0000 0.0000 0.0000 0.0000 73.9720 0.0000
# 6 0.0000 0.0000 0.0000 0.0000 0.0000 11.0320
#
#
#
# Elastic Compliance Matrix: (Units=1/GPa)
#
#
# Indices 1 2 3 4 5 6 
#
# 1 0.051741 -0.012359 -0.011710 0.000000 0.000000 0.000000
# 2 -0.012359 0.017638 -0.006547 0.000000 0.000000 0.000000
# 3 -0.011710 -0.006547 0.017265 0.000000 0.000000 0.000000
# 4 0.000000 0.000000 0.000000 0.042294 0.000000 0.000000
# 5 0.000000 0.000000 0.000000 0.000000 0.013519 0.000000
# 6 0.000000 0.000000 0.000000 0.000000 0.000000 0.090645
#
#
# Mechanical properties :
#
#
# Convention : Reuss Voigt Hill
#
# Bulk Modulus (GPa) = 39.34912 65.76694 52.55803
# Shear Modulus (GPa) = 16.51230 28.98282 22.74756
#
# Velocity S-wave (km/s) = 2.98459 3.95414 3.50307
# Velocity P-wave (km/s) = 5.75365 7.50505 6.68694
#
# Compressibility (1/GPa) = 0.02541353
#
# Stress axis : x y z
#
# Youngs Moduli (GPa) = 19.32687 56.69473 57.92141
#
# Poissons Ratio (x) = 0.70070 0.67824
# Poissons Ratio (y) = 0.23886 0.37919
# Poissons Ratio (z) = 0.22631 0.37116
#
# Static dielectric constant tensor:
#      x y z
#    x 3.144800 0.000000 0.000000 
#    y 0.000000 3.378450 0.000000 
#    z 0.000000 0.000000 4.336600 
# 
# 
# High freq. dielectric constant tensor:
#      x y z
#    x 1.691080 0.000000 0.000000 
#    y 0.000000 1.723960 0.000000 
#    z 0.000000 0.000000 1.729380 
# 
# From -- ./inp_files/28642.got.cif
#   From: 2010.03.12/outbox.cif.g09.slc.cpg/sg42_15_cif.got.tgz:28642.got - 2010.04.14 02:04:31.
