data_PCOD8186188
_publ_section_title
;
Structure prediction by ZEFSAII (Michael W. Deem and Ramdas Pophale) SiO2 
 PCOD8186188
Probable space group: F M M 2
;
_chemical_formula_sum "Si O2"
_cell_formula_units_Z 88
_cell_length_a 25.155459
_cell_length_b 12.254128
_cell_length_c 13.373190
_cell_angle_alpha 90.000000
_cell_angle_beta 90.000000
_cell_angle_gamma 90.000000
_cell_volume 4122.395671
_symmetry_space_group_name_H-M "F M M 2"
_symmetry_group_IT_number 42
_symmetry_cell_setting 'orthorhombic'
loop_
_space_group_symop_operation_xyz
x,y,z
-x,-y,z
-x,y,z
x,-y,z
x,1/2+y,1/2+z
-x,1/2-y,1/2+z
-x,1/2+y,1/2+z
x,1/2-y,1/2+z
1/2+x,y,1/2+z
1/2-x,-y,1/2+z
1/2-x,y,1/2+z
1/2+x,-y,1/2+z
1/2+x,1/2+y,z
1/2-x,1/2-y,z
1/2-x,1/2+y,z
1/2+x,1/2-y,z
loop_
_atom_site_type_symbol
_atom_site_label
_atom_site_fract_x
_atom_site_fract_y
_atom_site_fract_z
Si Si1 0.170883 0.624093 0.442440
Si Si2 0.000000 0.876456 0.573367
Si Si3 0.000000 0.873272 0.334947
Si Si4 0.079316 0.268612 0.689394
Si Si5 0.058878 0.122720 0.998897
Si Si6 0.250000 0.750000 0.080807
Si Si7 0.821041 0.623133 0.219848
O O1 0.171119 0.500000 0.484942
O O2 0.108852 0.666156 0.432777
O O3 0.202311 0.704545 0.514294
O O4 0.198487 0.626063 0.334308
O O5 0.000000 0.866829 0.453566
O O6 0.051603 0.824709 0.623359
O O7 0.000000 0.000000 0.607574
O O8 0.050986 0.807554 0.291313
O O9 0.000000 0.000000 0.299990
O O10 0.078703 0.371982 0.614232
O O11 0.136724 0.220464 0.710893
O O12 0.000000 0.182947 0.984198
O O13 0.048185 0.000000 0.967432
O O14 0.228354 0.651070 0.148647
O O15 0.841810 0.500000 0.194184
#
# Coordination Sequence:
#
# PCOD8186188 Si02
#       7
#    16   8   8  16  16   8  16
#     4  10  23  42  65  94 125 160 210 261 311 374
#     4  10  22  38  56  86 126 168 204 248 304 366
#     4  10  22  38  60  88 122 164 218 258 290 358
#     4  11  21  36  60  84 123 162 201 250 311 358
#     4  10  19  36  62  91 125 164 209 257 303 360
#     4  12  22  44  70  90 118 168 206 258 322 374
#     4  11  25  42  61  93 127 157 203 261 314 376
#
# _framework density 21.346810000000001
#
# number of rings (size 3 to 8) (size 9 to 14) (size 15 to 20)
#    0.000    1.455    3.636    2.182    2.545    0.000 
#    1.636    0.000    0.000    4.364    0.000    0.000 
#    0.000    0.000    0.000    0.000    0.000    0.000 
#
# Total GULP energy -272563.114102 kJ/mol
# GULP energy per Si atom -12389.232459 kJ/mol
# Density = 2.129822 g / cm^3
# Si number density = 21.346810 Si / 1000 Ang^3
#
#
#
# Elastic Constant Matrix: (Units=GPa)
#
#
# Indices 1 2 3 4 5 6 
#
# 1 113.8376 45.0289 35.3323 0.0000 0.0000 0.0000
# 2 45.0289 90.7576 37.9046 0.0000 0.0000 0.0000
# 3 35.3323 37.9046 88.2252 0.0000 0.0000 0.0000
# 4 0.0000 0.0000 0.0000 35.1165 0.0000 0.0000
# 5 0.0000 0.0000 0.0000 0.0000 -2.3953 0.0000
# 6 0.0000 0.0000 0.0000 0.0000 0.0000 27.8333
#
#
#
# Elastic Compliance Matrix: (Units=1/GPa)
#
#
# Indices 1 2 3 4 5 6 
#
# 1 0.011399 -0.004569 -0.002602 0.000000 0.000000 0.000000
# 2 -0.004569 0.015259 -0.004726 0.000000 0.000000 0.000000
# 3 -0.002602 -0.004726 0.014407 0.000000 0.000000 0.000000
# 4 0.000000 0.000000 0.000000 0.028477 0.000000 0.000000
# 5 0.000000 0.000000 0.000000 0.000000 -0.417490 0.000000
# 6 0.000000 0.000000 0.000000 0.000000 0.000000 0.035928
#
#
# Mechanical properties :
#
#
# Convention : Reuss Voigt Hill
#
# Bulk Modulus (GPa) = 57.89978 58.81689 58.35834
# Shear Modulus (GPa) = -17.70110 23.74789 3.02340
#
# Velocity S-wave (km/s) = -2.88273 3.33900 1.19138
# Velocity P-wave (km/s) = 4.01274 6.51752 5.41203
#
# Compressibility (1/GPa) = 0.01727122
#
# Stress axis : x y z
#
# Youngs Moduli (GPa) = 87.72415 65.53499 69.40951
#
# Poissons Ratio (x) = 0.29942 0.18062
# Poissons Ratio (y) = 0.40081 0.32803
# Poissons Ratio (z) = 0.22828 0.30972
#
# Static dielectric constant tensor:
#      x y z
#    x 3.949940 0.000000 0.000000 
#    y 0.000000 4.043950 0.000000 
#    z 0.000000 0.000000 3.829350 
# 
# 
# High freq. dielectric constant tensor:
#      x y z
#    x 1.826140 0.000000 0.000000 
#    y 0.000000 1.842630 0.000000 
#    z 0.000000 0.000000 1.839210 
# 
# From -- ./inp_files/16495.got.cif
#   From: 2010.03.12/outbox.cif.g09.slc.cpg/sg42_9_cif.got.tgz:16495.got - 2010.04.14 02:04:31.
