data_PCOD8186358
_publ_section_title
;
Structure prediction by ZEFSAII (Michael W. Deem and Ramdas Pophale) SiO2 
 PCOD8186358
Probable space group: F M M 2
;
_chemical_formula_sum "Si O2"
_cell_formula_units_Z 92
_cell_length_a 7.609132
_cell_length_b 24.925669
_cell_length_c 26.830482
_cell_angle_alpha 90.000000
_cell_angle_beta 90.000000
_cell_angle_gamma 90.000000
_cell_volume 5088.741809
_symmetry_space_group_name_H-M "F M M 2"
_symmetry_group_IT_number 42
_symmetry_cell_setting 'orthorhombic'
loop_
_space_group_symop_operation_xyz
x,y,z
-x,-y,z
-x,y,z
x,-y,z
x,1/2+y,1/2+z
-x,1/2-y,1/2+z
-x,1/2+y,1/2+z
x,1/2-y,1/2+z
1/2+x,y,1/2+z
1/2-x,-y,1/2+z
1/2-x,y,1/2+z
1/2+x,-y,1/2+z
1/2+x,1/2+y,z
1/2-x,1/2-y,z
1/2-x,1/2+y,z
1/2+x,1/2-y,z
loop_
_atom_site_type_symbol
_atom_site_label
_atom_site_fract_x
_atom_site_fract_y
_atom_site_fract_z
Si Si1 0.000000 0.563514 0.786298
Si Si2 0.204849 0.692189 0.028886
Si Si3 0.708351 0.189899 0.141745
Si Si4 0.694845 0.439027 0.858395
Si Si5 0.699357 0.899027 0.961112
Si Si6 0.500000 0.500000 0.114200
Si Si7 0.000000 0.109951 0.177833
Si Si8 0.194049 0.000000 0.017469
O O1 0.829261 0.582525 0.817183
O O2 0.000000 0.595184 0.735366
O O3 0.000000 0.500000 0.776054
O O4 0.250000 0.750000 0.006602
O O5 0.278138 0.686825 0.084828
O O6 0.000000 0.681151 0.031002
O O7 0.291492 0.649467 0.991363
O O8 0.500000 0.177537 0.147770
O O9 0.750000 0.250000 0.162167
O O10 0.823398 0.144877 0.169548
O O11 0.500000 0.434785 0.835319
O O12 0.746199 0.500000 0.872167
O O13 0.697580 0.406347 0.909757
O O14 0.500000 0.886150 0.946305
O O15 0.700697 0.948754 0.998833
O O16 0.500000 0.554516 0.146445
O O17 0.672993 0.500000 0.078025
O O18 0.000000 0.000000 0.992128
#
# Coordination Sequence:
#
# PCOD8186358 Si02
#       8
#     8  16  16  16  16   4   8   8
#     4  10  22  40  60  83 114 153 193 238 302 352
#     4   9  20  33  51  81 116 153 191 229 277 340
#     4  10  20  38  61  92 118 155 207 251 291 348
#     4  10  20  35  56  83 113 145 197 247 281 342
#     4  11  19  32  53  82 116 154 191 232 283 338
#     4  10  24  38  50  90 132 168 192 232 304 374
#     4  12  22  40  66  85 123 159 198 251 307 362
#     4  10  21  31  47  79 116 152 190 216 272 345
#
# _framework density 18.079125999999999
#
# number of rings (size 3 to 8) (size 9 to 14) (size 15 to 20)
#    0.261    1.565    3.043    1.826    1.217    2.087 
#    0.000    1.304    0.000    1.043    0.000    0.000 
#    0.000    0.000    0.000    0.000    0.000    0.000 
#
# Total GULP energy -285110.261198 kJ/mol
# GULP energy per Si atom -12396.098313 kJ/mol
# Density = 1.803798 g / cm^3
# Si number density = 18.079126 Si / 1000 Ang^3
#
#
#
# Elastic Constant Matrix: (Units=GPa)
#
#
# Indices 1 2 3 4 5 6 
#
# 1 94.5468 32.4570 40.8459 0.0000 0.0000 0.0000
# 2 32.4570 122.7615 66.5112 0.0000 0.0000 0.0000
# 3 40.8459 66.5112 125.8120 0.0000 0.0000 0.0000
# 4 0.0000 0.0000 0.0000 25.1848 0.0000 0.0000
# 5 0.0000 0.0000 0.0000 0.0000 17.4323 0.0000
# 6 0.0000 0.0000 0.0000 0.0000 0.0000 24.6981
#
#
#
# Elastic Compliance Matrix: (Units=1/GPa)
#
#
# Indices 1 2 3 4 5 6 
#
# 1 0.012510 -0.001551 -0.003241 0.000000 0.000000 0.000000
# 2 -0.001551 0.011608 -0.005633 0.000000 0.000000 0.000000
# 3 -0.003241 -0.005633 0.011979 0.000000 0.000000 0.000000
# 4 0.000000 0.000000 0.000000 0.039706 0.000000 0.000000
# 5 0.000000 0.000000 0.000000 0.000000 0.057365 0.000000
# 6 0.000000 0.000000 0.000000 0.000000 0.000000 0.040489
#
#
# Mechanical properties :
#
#
# Convention : Reuss Voigt Hill
#
# Bulk Modulus (GPa) = 65.59502 69.19426 67.39464
# Shear Modulus (GPa) = 25.05149 27.01679 26.03414
#
# Velocity S-wave (km/s) = 3.72648 3.86989 3.79886
# Velocity P-wave (km/s) = 7.40787 7.63703 7.52332
#
# Compressibility (1/GPa) = 0.01524506
#
# Stress axis : x y z
#
# Youngs Moduli (GPa) = 79.93861 86.14814 83.48275
#
# Poissons Ratio (x) = 0.13365 0.27058
# Poissons Ratio (y) = 0.12401 0.47025
# Poissons Ratio (z) = 0.25910 0.48527
#
# Static dielectric constant tensor:
#      x y z
#    x 3.314720 0.000000 0.000000 
#    y 0.000000 3.279210 0.000000 
#    z 0.000000 0.000000 3.182730 
# 
# 
# High freq. dielectric constant tensor:
#      x y z
#    x 1.707230 0.000000 0.000000 
#    y 0.000000 1.690650 0.000000 
#    z 0.000000 0.000000 1.678530 
# 
# From -- ./inp_files/30473.got.cif
#   From: 2010.03.12/outbox.cif.g09.slc.cpg/sg42_16_cif.got.tgz:30473.got - 2010.04.14 02:04:31.
