data_PCOD8186618
_publ_section_title
;
Structure prediction by ZEFSAII (Michael W. Deem and Ramdas Pophale) SiO2 
 PCOD8186618
Probable space group: F M M 2
;
_chemical_formula_sum "Si O2"
_cell_formula_units_Z 128
_cell_length_a 21.025701
_cell_length_b 22.787374
_cell_length_c 13.155268
_cell_angle_alpha 90.000000
_cell_angle_beta 90.000000
_cell_angle_gamma 90.000000
_cell_volume 6302.958744
_symmetry_space_group_name_H-M "F M M 2"
_symmetry_group_IT_number 42
_symmetry_cell_setting 'orthorhombic'
loop_
_space_group_symop_operation_xyz
x,y,z
-x,-y,z
-x,y,z
x,-y,z
x,1/2+y,1/2+z
-x,1/2-y,1/2+z
-x,1/2+y,1/2+z
x,1/2-y,1/2+z
1/2+x,y,1/2+z
1/2-x,-y,1/2+z
1/2-x,y,1/2+z
1/2+x,-y,1/2+z
1/2+x,1/2+y,z
1/2-x,1/2-y,z
1/2-x,1/2+y,z
1/2+x,1/2-y,z
loop_
_atom_site_type_symbol
_atom_site_label
_atom_site_fract_x
_atom_site_fract_y
_atom_site_fract_z
Si Si1 0.615284 0.433860 0.945330
Si Si2 0.929487 0.676962 0.331486
Si Si3 0.841360 0.375171 0.840384
Si Si4 0.571053 0.569029 0.169391
Si Si5 0.774309 0.662498 0.659320
Si Si6 0.146593 0.229332 0.650134
Si Si7 0.253160 0.565799 0.497392
Si Si8 0.928618 0.713125 0.955761
O O1 0.588140 0.500000 0.927028
O O2 0.586248 0.389696 0.862480
O O3 0.691014 0.434288 0.926071
O O4 0.598636 0.412122 0.059559
O O5 0.879075 0.706879 0.257151
O O6 0.927916 0.717874 0.430814
O O7 0.000000 0.677489 0.282369
O O8 0.883422 0.411871 0.761118
O O9 0.778886 0.352711 0.779341
O O10 0.815158 0.411942 0.936248
O O11 0.883576 0.321595 0.878953
O O12 0.500000 0.595999 0.182640
O O13 0.567268 0.500000 0.174834
O O14 0.839689 0.700542 0.639915
O O15 0.714083 0.700349 0.630847
O O16 0.767174 0.603708 0.594549
O O17 0.095871 0.206527 0.569599
O O18 0.268463 0.500000 0.536029
O O19 0.000000 0.687151 0.948857
#
# Coordination Sequence:
#
# PCOD8186618 Si02
#       8
#    16  16  16  16  16  16  16  16
#     4  10  21  40  64  94 131 168 216 270 324 385
#     4  11  23  40  64  95 129 168 216 266 324 389
#     4  12  22  41  63  94 126 164 205 264 328 386
#     4  10  21  37  61  92 126 166 210 257 311 377
#     4  11  23  40  66  91 124 163 210 264 318 382
#     4  11  23  43  62  93 125 170 213 262 324 389
#     4  11  23  40  64  94 127 164 209 264 323 385
#     4  11  24  40  63  93 128 167 213 270 322 389
#
# _framework density 20.307922000000001
#
# number of rings (size 3 to 8) (size 9 to 14) (size 15 to 20)
#    0.000    1.125    3.750    3.000    0.000    1.250 
#    0.000    0.625    0.000    0.000    0.000    0.000 
#    0.000    0.000    0.000    0.000    0.000    0.000 
#
# Total GULP energy -396617.750858 kJ/mol
# GULP energy per Si atom -12394.304714 kJ/mol
# Density = 2.026170 g / cm^3
# Si number density = 20.307922 Si / 1000 Ang^3
#
#
#
# Elastic Constant Matrix: (Units=GPa)
#
#
# Indices 1 2 3 4 5 6 
#
# 1 96.2446 46.1658 40.5382 0.0000 0.0000 0.0000
# 2 46.1658 123.5145 49.6622 0.0000 0.0000 0.0000
# 3 40.5382 49.6622 95.6530 0.0000 0.0000 0.0000
# 4 0.0000 0.0000 0.0000 33.1276 0.0000 0.0000
# 5 0.0000 0.0000 0.0000 0.0000 27.9028 0.0000
# 6 0.0000 0.0000 0.0000 0.0000 0.0000 27.6118
#
#
#
# Elastic Compliance Matrix: (Units=1/GPa)
#
#
# Indices 1 2 3 4 5 6 
#
# 1 0.013773 -0.003540 -0.003999 0.000000 0.000000 0.000000
# 2 -0.003540 0.011142 -0.004285 0.000000 0.000000 0.000000
# 3 -0.003999 -0.004285 0.014374 0.000000 0.000000 0.000000
# 4 0.000000 0.000000 0.000000 0.030186 0.000000 0.000000
# 5 0.000000 0.000000 0.000000 0.000000 0.035839 0.000000
# 6 0.000000 0.000000 0.000000 0.000000 0.000000 0.036216
#
#
# Mechanical properties :
#
#
# Convention : Reuss Voigt Hill
#
# Bulk Modulus (GPa) = 63.93295 65.34940 64.64117
# Shear Modulus (GPa) = 29.34433 29.66482 29.50458
#
# Velocity S-wave (km/s) = 3.80540 3.82612 3.81578
# Velocity P-wave (km/s) = 7.13149 7.19500 7.16332
#
# Compressibility (1/GPa) = 0.01564139
#
# Stress axis : x y z
#
# Youngs Moduli (GPa) = 72.60824 89.75008 69.57094
#
# Poissons Ratio (x) = 0.31770 0.27822
# Poissons Ratio (y) = 0.25702 0.29809
# Poissons Ratio (z) = 0.29036 0.38455
#
# Static dielectric constant tensor:
#      x y z
#    x 3.849870 0.000000 0.000000 
#    y 0.000000 3.803570 0.000000 
#    z 0.000000 0.000000 3.460840 
# 
# 
# High freq. dielectric constant tensor:
#      x y z
#    x 1.803420 0.000000 0.000000 
#    y 0.000000 1.798240 0.000000 
#    z 0.000000 0.000000 1.776480 
# 
# From -- ./inp_files/10381.got.cif
#   From: 2010.03.12/outbox.cif.g09.slc.cpg/sg42_6_cif.got.tgz:10381.got - 2010.04.14 02:04:31.
