data_PCOD8186189
_publ_section_title
;
Structure prediction by ZEFSAII (Michael W. Deem and Ramdas Pophale) SiO2 
 PCOD8186189
Probable space group: F M M 2
;
_chemical_formula_sum "Si O2"
_cell_formula_units_Z 96
_cell_length_a 16.556129
_cell_length_b 13.944764
_cell_length_c 20.058363
_cell_angle_alpha 90.000000
_cell_angle_beta 90.000000
_cell_angle_gamma 90.000000
_cell_volume 4630.900576
_symmetry_space_group_name_H-M "F M M 2"
_symmetry_group_IT_number 42
_symmetry_cell_setting 'orthorhombic'
loop_
_space_group_symop_operation_xyz
x,y,z
-x,-y,z
-x,y,z
x,-y,z
x,1/2+y,1/2+z
-x,1/2-y,1/2+z
-x,1/2+y,1/2+z
x,1/2-y,1/2+z
1/2+x,y,1/2+z
1/2-x,-y,1/2+z
1/2-x,y,1/2+z
1/2+x,-y,1/2+z
1/2+x,1/2+y,z
1/2-x,1/2-y,z
1/2-x,1/2+y,z
1/2+x,1/2-y,z
loop_
_atom_site_type_symbol
_atom_site_label
_atom_site_fract_x
_atom_site_fract_y
_atom_site_fract_z
Si Si1 0.162672 0.203793 0.571260
Si Si2 0.170744 0.500000 0.890099
Si Si3 0.405737 0.500000 0.774905
Si Si4 0.097123 0.000000 0.527799
Si Si5 0.166872 0.296660 0.829234
Si Si6 0.092439 0.801360 0.710682
Si Si7 0.653093 0.000000 0.422452
Si Si8 0.409687 0.198813 0.452195
O O1 0.250000 0.250000 0.552567
O O2 0.146703 0.090644 0.557898
O O3 0.146497 0.229374 0.648082
O O4 0.097668 0.256240 0.524949
O O5 0.167624 0.410167 0.840178
O O6 0.251414 0.500000 0.934905
O O7 0.100492 0.500000 0.946458
O O8 0.500000 0.500000 0.793080
O O9 0.380397 0.592772 0.733231
O O10 0.357204 0.500000 0.843170
O O11 0.000000 0.000000 0.547083
O O12 0.250000 0.250000 0.803536
O O13 0.102366 0.273018 0.771670
O O14 0.148982 0.248848 0.899984
O O15 0.000000 0.801915 0.687876
O O16 0.611811 0.911679 0.458457
O O17 0.500000 0.212248 0.425423
#
# Coordination Sequence:
#
# PCOD8186189 Si02
#       8
#    16   8   8   8  16  16   8  16
#     4  12  26  45  67  98 137 179 224 279 341 405
#     4  12  24  39  66  99 134 170 222 271 331 397
#     4  10  19  36  66  99 131 167 222 287 331 379
#     4  12  25  44  72 101 133 175 231 290 338 392
#     4  12  23  41  64  96 133 177 217 272 330 399
#     4  11  23  41  66  96 133 176 224 276 335 396
#     4  12  22  39  66  99 136 168 221 278 332 392
#     4  12  23  40  66  97 131 170 218 272 334 394
#
# _framework density 20.730308999999998
#
# number of rings (size 3 to 8) (size 9 to 14) (size 15 to 20)
#    0.000    0.333    5.000    5.250    0.000    1.333 
#    0.000    3.333    0.000    0.000    0.000    0.000 
#    0.000    0.000    0.000    0.000    0.000    0.000 
#
# Total GULP energy -297653.454025 kJ/mol
# GULP energy per Si atom -12402.227251 kJ/mol
# Density = 2.068313 g / cm^3
# Si number density = 20.730309 Si / 1000 Ang^3
#
#
#
# Elastic Constant Matrix: (Units=GPa)
#
#
# Indices 1 2 3 4 5 6 
#
# 1 82.3225 36.8736 11.1626 0.0000 0.0000 0.0000
# 2 36.8736 153.6539 49.8958 0.0000 0.0000 0.0000
# 3 11.1626 49.8958 108.4823 0.0000 0.0000 0.0000
# 4 0.0000 0.0000 0.0000 23.1833 0.0000 0.0000
# 5 0.0000 0.0000 0.0000 0.0000 34.3677 0.0000
# 6 0.0000 0.0000 0.0000 0.0000 0.0000 27.6752
#
#
#
# Elastic Compliance Matrix: (Units=1/GPa)
#
#
# Indices 1 2 3 4 5 6 
#
# 1 0.013612 -0.003305 0.000120 0.000000 0.000000 0.000000
# 2 -0.003305 0.008453 -0.003548 0.000000 0.000000 0.000000
# 3 0.000120 -0.003548 0.010838 0.000000 0.000000 0.000000
# 4 0.000000 0.000000 0.000000 0.043134 0.000000 0.000000
# 5 0.000000 0.000000 0.000000 0.000000 0.029097 0.000000
# 6 0.000000 0.000000 0.000000 0.000000 0.000000 0.036133
#
#
# Mechanical properties :
#
#
# Convention : Reuss Voigt Hill
#
# Bulk Modulus (GPa) = 51.45252 60.03586 55.74419
# Shear Modulus (GPa) = 31.01472 33.48034 32.24753
#
# Velocity S-wave (km/s) = 3.87215 4.02312 3.94836
# Velocity P-wave (km/s) = 6.69815 7.11365 6.90902
#
# Compressibility (1/GPa) = 0.01943539
#
# Stress axis : x y z
#
# Youngs Moduli (GPa) = 73.46652 118.29427 92.27071
#
# Poissons Ratio (x) = 0.39101 -0.01104
# Poissons Ratio (y) = 0.24283 0.32738
# Poissons Ratio (z) = -0.00879 0.41971
#
# Static dielectric constant tensor:
#      x y z
#    x 3.757860 0.000000 0.000000 
#    y 0.000000 3.916550 0.000000 
#    z 0.000000 0.000000 3.601250 
# 
# 
# High freq. dielectric constant tensor:
#      x y z
#    x 1.814450 0.000000 0.000000 
#    y 0.000000 1.818590 0.000000 
#    z 0.000000 0.000000 1.807800 
# 
# From -- ./inp_files/25155.got.cif
#   From: 2010.03.12/outbox.cif.g09.slc.cpg/sg42_13_cif.got.tgz:25155.got - 2010.04.14 02:04:31.
