data_PCOD8186515
_publ_section_title
;
Structure prediction by ZEFSAII (Michael W. Deem and Ramdas Pophale) SiO2 
 PCOD8186515
Probable space group: F M M 2
;
_chemical_formula_sum "Si O2"
_cell_formula_units_Z 96
_cell_length_a 18.348879
_cell_length_b 15.967092
_cell_length_c 15.118113
_cell_angle_alpha 90.000000
_cell_angle_beta 90.000000
_cell_angle_gamma 90.000000
_cell_volume 4429.278125
_symmetry_space_group_name_H-M "F M M 2"
_symmetry_group_IT_number 42
_symmetry_cell_setting 'orthorhombic'
loop_
_space_group_symop_operation_xyz
x,y,z
-x,-y,z
-x,y,z
x,-y,z
x,1/2+y,1/2+z
-x,1/2-y,1/2+z
-x,1/2+y,1/2+z
x,1/2-y,1/2+z
1/2+x,y,1/2+z
1/2-x,-y,1/2+z
1/2-x,y,1/2+z
1/2+x,-y,1/2+z
1/2+x,1/2+y,z
1/2-x,1/2-y,z
1/2-x,1/2+y,z
1/2+x,1/2-y,z
loop_
_atom_site_type_symbol
_atom_site_label
_atom_site_fract_x
_atom_site_fract_y
_atom_site_fract_z
Si Si1 0.586782 0.000000 0.785151
Si Si2 0.581884 0.315888 0.307459
Si Si3 0.413456 0.000000 0.584500
Si Si4 0.314732 0.645615 0.036954
Si Si5 0.315770 0.096595 0.166309
Si Si6 0.917768 0.235878 0.619717
Si Si7 0.805848 0.683184 0.343803
O O1 0.614435 0.910822 0.827530
O O2 0.614192 0.000000 0.684847
O O3 0.500000 0.000000 0.785984
O O4 0.500000 0.314005 0.343343
O O5 0.584143 0.300467 0.201932
O O6 0.620516 0.238050 0.355728
O O7 0.379741 0.079295 0.536062
O O8 0.500000 0.000000 0.573226
O O9 0.252356 0.630727 0.109543
O O10 0.356065 0.733474 0.051569
O O11 0.280598 0.646768 0.938383
O O12 0.391787 0.142561 0.144111
O O13 0.305507 0.109057 0.271803
O O14 0.326039 0.000000 0.144294
O O15 0.000000 0.231447 0.581063
O O16 0.750000 0.750000 0.304103
#
# Coordination Sequence:
#
# PCOD8186515 Si02
#       7
#     8  16   8  16  16  16  16
#     4   9  16  32  61  95 123 155 209 260 307 362
#     4   9  18  35  60  92 125 163 209 260 314 377
#     4  11  22  36  65 103 128 163 217 270 326 380
#     4  12  23  42  66  93 130 173 217 275 327 384
#     4  11  24  42  67  95 130 174 221 270 327 392
#     4  10  20  38  65  91 126 173 219 263 318 383
#     4  11  25  41  61  93 128 168 221 265 324 389
#
# _framework density 21.673960000000001
#
# number of rings (size 3 to 8) (size 9 to 14) (size 15 to 20)
#    0.000    1.500    2.500    4.000    1.167    1.667 
#    0.000    0.000    1.833    0.000    0.000    0.000 
#    0.000    0.000    0.000    0.000    0.000    0.000 
#
# Total GULP energy -297390.684835 kJ/mol
# GULP energy per Si atom -12391.278535 kJ/mol
# Density = 2.162463 g / cm^3
# Si number density = 21.673960 Si / 1000 Ang^3
#
#
#
# Elastic Constant Matrix: (Units=GPa)
#
#
# Indices 1 2 3 4 5 6 
#
# 1 82.7396 50.6805 12.8960 0.0000 0.0000 0.0000
# 2 50.6805 113.5251 34.8541 0.0000 0.0000 0.0000
# 3 12.8960 34.8541 88.0370 0.0000 0.0000 0.0000
# 4 0.0000 0.0000 0.0000 10.7135 0.0000 0.0000
# 5 0.0000 0.0000 0.0000 0.0000 15.6074 0.0000
# 6 0.0000 0.0000 0.0000 0.0000 0.0000 29.7642
#
#
#
# Elastic Compliance Matrix: (Units=1/GPa)
#
#
# Indices 1 2 3 4 5 6 
#
# 1 0.016660 -0.007614 0.000574 0.000000 0.000000 0.000000
# 2 -0.007614 0.013507 -0.004232 0.000000 0.000000 0.000000
# 3 0.000574 -0.004232 0.012950 0.000000 0.000000 0.000000
# 4 0.000000 0.000000 0.000000 0.093340 0.000000 0.000000
# 5 0.000000 0.000000 0.000000 0.000000 0.064072 0.000000
# 6 0.000000 0.000000 0.000000 0.000000 0.000000 0.033597
#
#
# Mechanical properties :
#
#
# Convention : Reuss Voigt Hill
#
# Bulk Modulus (GPa) = 48.60630 53.46253 51.03442
# Shear Modulus (GPa) = 18.97323 23.60843 21.29083
#
# Velocity S-wave (km/s) = 2.96191 3.30396 3.13760
# Velocity P-wave (km/s) = 5.84569 6.26699 6.06000
#
# Compressibility (1/GPa) = 0.02057346
#
# Stress axis : x y z
#
# Youngs Moduli (GPa) = 60.02274 74.03589 77.21817
#
# Poissons Ratio (x) = 0.56369 -0.04431
# Poissons Ratio (y) = 0.45700 0.32680
# Poissons Ratio (z) = -0.03444 0.31333
#
# Static dielectric constant tensor:
#      x y z
#    x 3.931750 0.000000 0.000000 
#    y 0.000000 4.095090 0.000000 
#    z 0.000000 0.000000 3.617040 
# 
# 
# High freq. dielectric constant tensor:
#      x y z
#    x 1.850670 0.000000 0.000000 
#    y 0.000000 1.856770 0.000000 
#    z 0.000000 0.000000 1.822380 
# 
# From -- ./inp_files/14052.got.cif
#   From: 2010.03.12/outbox.cif.g09.slc.cpg/sg42_8_cif.got.tgz:14052.got - 2010.04.14 02:04:31.
