data_PCOD8186269
_publ_section_title
;
Structure prediction by ZEFSAII (Michael W. Deem and Ramdas Pophale) SiO2 
 PCOD8186269
Probable space group: F M M 2
;
_chemical_formula_sum "Si O2"
_cell_formula_units_Z 96
_cell_length_a 19.365379
_cell_length_b 8.817220
_cell_length_c 31.262614
_cell_angle_alpha 90.000000
_cell_angle_beta 90.000000
_cell_angle_gamma 90.000000
_cell_volume 5338.054045
_symmetry_space_group_name_H-M "F M M 2"
_symmetry_group_IT_number 42
_symmetry_cell_setting 'orthorhombic'
loop_
_space_group_symop_operation_xyz
x,y,z
-x,-y,z
-x,y,z
x,-y,z
x,1/2+y,1/2+z
-x,1/2-y,1/2+z
-x,1/2+y,1/2+z
x,1/2-y,1/2+z
1/2+x,y,1/2+z
1/2-x,-y,1/2+z
1/2-x,y,1/2+z
1/2+x,-y,1/2+z
1/2+x,1/2+y,z
1/2-x,1/2-y,z
1/2-x,1/2+y,z
1/2+x,1/2-y,z
loop_
_atom_site_type_symbol
_atom_site_label
_atom_site_fract_x
_atom_site_fract_y
_atom_site_fract_z
Si Si1 0.423184 0.319288 0.680830
Si Si2 0.419082 0.674990 0.002178
Si Si3 0.175588 0.322585 0.253921
Si Si4 0.675461 0.677302 0.847734
Si Si5 0.418144 0.831853 0.087467
Si Si6 0.825727 0.821110 0.431852
O O1 0.500000 0.251973 0.687608
O O2 0.426320 0.500000 0.683558
O O3 0.374721 0.251831 0.718114
O O4 0.392633 0.272503 0.634088
O O5 0.500000 0.710087 0.995853
O O6 0.402044 0.500000 0.993864
O O7 0.376195 0.778211 0.970141
O O8 0.395029 0.716928 0.050287
O O9 0.185599 0.500000 0.246724
O O10 0.250000 0.250000 0.249043
O O11 0.141401 0.292863 0.301069
O O12 0.680399 0.500000 0.857975
O O13 0.750000 0.750000 0.845171
O O14 0.638228 0.758990 0.887886
O O15 0.500000 0.842704 0.090300
O O16 0.388164 0.000000 0.077568
O O17 0.750000 0.750000 0.438926
O O18 0.817878 0.000000 0.429437
#
# Coordination Sequence:
#
# PCOD8186269 Si02
#       6
#    16  16  16  16  16  16
#     4   8  14  27  48  71  93 121 160 200 234 274
#     4  10  20  34  52  74 100 128 161 201 243 289
#     4   9  17  29  47  70  95 124 158 195 235 280
#     4   9  16  28  46  68  94 125 161 195 233 284
#     4   8  14  27  48  70  92 123 162 198 234 281
#     4  11  21  34  53  74  98 127 162 202 244 292
#
# _framework density 17.984081
#
# number of rings (size 3 to 8) (size 9 to 14) (size 15 to 20)
#    0.000    2.833    0.000    4.500    0.000    1.667 
#    0.000    2.500    0.000    6.500    0.000    0.000 
#    0.000    0.000    0.000    0.000    0.000    0.000 
#
# Total GULP energy -297383.297842 kJ/mol
# GULP energy per Si atom -12390.970743 kJ/mol
# Density = 1.794315 g / cm^3
# Si number density = 17.984081 Si / 1000 Ang^3
#
#
#
# Elastic Constant Matrix: (Units=GPa)
#
#
# Indices 1 2 3 4 5 6 
#
# 1 51.4850 26.9938 55.0067 0.0000 0.0000 0.0000
# 2 26.9938 85.9749 52.0000 0.0000 0.0000 0.0000
# 3 55.0067 52.0000 171.0572 0.0000 0.0000 0.0000
# 4 0.0000 0.0000 0.0000 24.6178 0.0000 0.0000
# 5 0.0000 0.0000 0.0000 0.0000 29.9437 0.0000
# 6 0.0000 0.0000 0.0000 0.0000 0.0000 18.5693
#
#
#
# Elastic Compliance Matrix: (Units=1/GPa)
#
#
# Indices 1 2 3 4 5 6 
#
# 1 0.030967 -0.004533 -0.008580 0.000000 0.000000 0.000000
# 2 -0.004533 0.014915 -0.003076 0.000000 0.000000 0.000000
# 3 -0.008580 -0.003076 0.009540 0.000000 0.000000 0.000000
# 4 0.000000 0.000000 0.000000 0.040621 0.000000 0.000000
# 5 0.000000 0.000000 0.000000 0.000000 0.033396 0.000000
# 6 0.000000 0.000000 0.000000 0.000000 0.000000 0.053852
#
#
# Mechanical properties :
#
#
# Convention : Reuss Voigt Hill
#
# Bulk Modulus (GPa) = 43.39688 64.05756 53.72722
# Shear Modulus (GPa) = 22.38623 26.26062 24.32342
#
# Velocity S-wave (km/s) = 3.53197 3.82542 3.68162
# Velocity P-wave (km/s) = 6.38876 7.43022 6.92908
#
# Compressibility (1/GPa) = 0.02304313
#
# Stress axis : x y z
#
# Youngs Moduli (GPa) = 32.29268 67.04515 104.81968
#
# Poissons Ratio (x) = 0.30394 0.89934
# Poissons Ratio (y) = 0.14640 0.32246
# Poissons Ratio (z) = 0.27707 0.20625
#
# Static dielectric constant tensor:
#      x y z
#    x 3.005780 0.000000 0.000000 
#    y 0.000000 3.235110 0.000000 
#    z 0.000000 0.000000 4.170640 
# 
# 
# High freq. dielectric constant tensor:
#      x y z
#    x 1.647530 0.000000 0.000000 
#    y 0.000000 1.685520 0.000000 
#    z 0.000000 0.000000 1.721620 
# 
# From -- ./inp_files/28053.got.cif
#   From: 2010.03.12/outbox.cif.g09.slc.cpg/sg42_15_cif.got.tgz:28053.got - 2010.04.14 02:04:31.
