data_PCOD8186716
_publ_section_title
;
Structure prediction by ZEFSAII (Michael W. Deem and Ramdas Pophale) SiO2 
 PCOD8186716
Probable space group: F M M 2
;
_chemical_formula_sum "Si O2"
_cell_formula_units_Z 80
_cell_length_a 17.854593
_cell_length_b 7.580741
_cell_length_c 29.459535
_cell_angle_alpha 90.000000
_cell_angle_beta 90.000000
_cell_angle_gamma 90.000000
_cell_volume 3987.378853
_symmetry_space_group_name_H-M "F M M 2"
_symmetry_group_IT_number 42
_symmetry_cell_setting 'orthorhombic'
loop_
_space_group_symop_operation_xyz
x,y,z
-x,-y,z
-x,y,z
x,-y,z
x,1/2+y,1/2+z
-x,1/2-y,1/2+z
-x,1/2+y,1/2+z
x,1/2-y,1/2+z
1/2+x,y,1/2+z
1/2-x,-y,1/2+z
1/2-x,y,1/2+z
1/2+x,-y,1/2+z
1/2+x,1/2+y,z
1/2-x,1/2-y,z
1/2-x,1/2+y,z
1/2+x,1/2-y,z
loop_
_atom_site_type_symbol
_atom_site_label
_atom_site_fract_x
_atom_site_fract_y
_atom_site_fract_z
Si Si1 0.418091 0.300101 0.773160
Si Si2 0.663054 0.791908 0.361978
Si Si3 0.411412 0.500000 0.524049
Si Si4 0.336399 0.204624 0.683636
Si Si5 0.911860 0.701539 0.591293
Si Si6 0.089281 0.500000 0.921569
O O1 0.500000 0.205217 0.770854
O O2 0.431665 0.500000 0.786711
O O3 0.366839 0.220412 0.813232
O O4 0.376953 0.297201 0.725231
O O5 0.750000 0.750000 0.364439
O O6 0.619746 0.679988 0.399775
O O7 0.648784 0.000000 0.370370
O O8 0.500000 0.500000 0.522646
O O9 0.383534 0.324153 0.550133
O O10 0.380134 0.500000 0.473193
O O11 0.250000 0.250000 0.684449
O O12 0.371528 0.271606 0.636620
O O13 0.350997 0.000000 0.689607
O O14 0.889413 0.500000 0.579921
O O15 0.000000 0.720052 0.599510
O O16 0.000000 0.500000 0.918587
#
# Coordination Sequence:
#
# PCOD8186716 Si02
#       6
#    16  16   8  16  16   8
#     4  10  22  38  59  90 121 159 207 252 304 369
#     4  11  23  42  66  92 131 169 210 260 323 381
#     4   9  20  38  64  91 116 153 203 256 316 368
#     4  11  23  36  55  83 121 162 204 244 304 365
#     4   9  19  37  60  86 117 154 200 254 306 363
#     4  11  24  42  68  99 125 165 217 266 323 386
#
# _framework density 20.063305
#
# number of rings (size 3 to 8) (size 9 to 14) (size 15 to 20)
#    0.000    1.800    1.000    2.400    4.200    4.800 
#    0.000    3.000    0.000    0.000    0.000    0.000 
#    0.000    0.000    0.000    0.000    0.000    0.000 
#
# Total GULP energy -247982.245019 kJ/mol
# GULP energy per Si atom -12399.112251 kJ/mol
# Density = 2.001764 g / cm^3
# Si number density = 20.063305 Si / 1000 Ang^3
#
#
#
# Elastic Constant Matrix: (Units=GPa)
#
#
# Indices 1 2 3 4 5 6 
#
# 1 119.6340 33.5560 68.4586 0.0000 0.0000 0.0000
# 2 33.5560 100.6371 66.7443 0.0000 0.0000 0.0000
# 3 68.4586 66.7443 186.0017 0.0000 0.0000 0.0000
# 4 0.0000 0.0000 0.0000 32.6983 0.0000 0.0000
# 5 0.0000 0.0000 0.0000 0.0000 9.5359 0.0000
# 6 0.0000 0.0000 0.0000 0.0000 0.0000 -0.0958
#
#
#
# Elastic Compliance Matrix: (Units=1/GPa)
#
#
# Indices 1 2 3 4 5 6 
#
# 1 0.010709 -0.001255 -0.003491 0.000000 0.000000 0.000000
# 2 -0.001255 0.013187 -0.004270 0.000000 0.000000 0.000000
# 3 -0.003491 -0.004270 0.008193 0.000000 0.000000 0.000000
# 4 0.000000 0.000000 0.000000 0.030583 0.000000 0.000000
# 5 0.000000 0.000000 0.000000 0.000000 0.104867 0.000000
# 6 0.000000 0.000000 0.000000 0.000000 0.000000-10.436148
#
#
# Mechanical properties :
#
#
# Convention : Reuss Voigt Hill
#
# Bulk Modulus (GPa) = 71.14097 82.64339 76.89218
# Shear Modulus (GPa) = -0.48800 24.26194 11.88697
#
# Velocity S-wave (km/s) = -0.49372 3.48123 2.43672
# Velocity P-wave (km/s) = 5.93382 7.57887 6.80623
#
# Compressibility (1/GPa) = 0.01405660
#
# Stress axis : x y z
#
# Youngs Moduli (GPa) = 93.38355 75.83083 122.05038
#
# Poissons Ratio (x) = 0.09520 0.42606
# Poissons Ratio (y) = 0.11724 0.52116
# Poissons Ratio (z) = 0.32598 0.32380
#
# Static dielectric constant tensor:
#      x y z
#    x 3.773610 0.000000 0.000000 
#    y 0.000000 3.892690 0.000000 
#    z 0.000000 0.000000 3.793940 
# 
# 
# High freq. dielectric constant tensor:
#      x y z
#    x 1.781900 0.000000 0.000000 
#    y 0.000000 1.789870 0.000000 
#    z 0.000000 0.000000 1.782930 
# 
# From -- ./inp_files/31300.got.cif
#   From: 2010.03.12/outbox.cif.g09.slc.cpg/sg42_16_cif.got.tgz:31300.got - 2010.04.14 02:04:31.
