data_PCOD8186275
_publ_section_title
;
Structure prediction by ZEFSAII (Michael W. Deem and Ramdas Pophale) SiO2 
 PCOD8186275
Probable space group: F M M 2
;
_chemical_formula_sum "Si O2"
_cell_formula_units_Z 96
_cell_length_a 19.141551
_cell_length_b 9.213756
_cell_length_c 29.976108
_cell_angle_alpha 90.000000
_cell_angle_beta 90.000000
_cell_angle_gamma 90.000000
_cell_volume 5286.753685
_symmetry_space_group_name_H-M "F M M 2"
_symmetry_group_IT_number 42
_symmetry_cell_setting 'orthorhombic'
loop_
_space_group_symop_operation_xyz
x,y,z
-x,-y,z
-x,y,z
x,-y,z
x,1/2+y,1/2+z
-x,1/2-y,1/2+z
-x,1/2+y,1/2+z
x,1/2-y,1/2+z
1/2+x,y,1/2+z
1/2-x,-y,1/2+z
1/2-x,y,1/2+z
1/2+x,-y,1/2+z
1/2+x,1/2+y,z
1/2-x,1/2-y,z
1/2-x,1/2+y,z
1/2+x,1/2-y,z
loop_
_atom_site_type_symbol
_atom_site_label
_atom_site_fract_x
_atom_site_fract_y
_atom_site_fract_z
Si Si1 0.819010 0.668017 0.767810
Si Si2 0.919081 0.168694 0.346820
Si Si3 0.820207 0.670666 0.666884
Si Si4 0.321114 0.670278 0.912541
Si Si5 0.319556 0.168771 0.515139
Si Si6 0.922555 0.327830 0.590635
O O1 0.800120 0.500000 0.770018
O O2 0.750000 0.750000 0.784599
O O3 0.883598 0.707302 0.799592
O O4 0.839970 0.713881 0.717580
O O5 0.885849 0.266489 0.385297
O O6 0.000000 0.209462 0.342653
O O7 0.908383 0.000000 0.358971
O O8 0.807669 0.500000 0.661687
O O9 0.750000 0.750000 0.651530
O O10 0.882408 0.725166 0.634985
O O11 0.312283 0.500000 0.902982
O O12 0.250000 0.750000 0.897729
O O13 0.338522 0.702656 0.964039
O O14 0.250000 0.250000 0.530281
O O15 0.382706 0.224976 0.546081
O O16 0.305362 0.000000 0.522847
O O17 0.928013 0.500000 0.590683
O O18 0.000000 0.258637 0.590657
#
# Coordination Sequence:
#
# PCOD8186275 Si02
#       6
#    16  16  16  16  16  16
#     4   9  18  32  50  72  96 124 160 200 241 284
#     4  10  21  35  50  71 101 133 163 200 246 293
#     4   9  17  30  50  73  95 123 159 198 237 280
#     4  10  20  34  53  75  98 127 165 206 246 290
#     4   9  18  32  51  73  96 124 158 198 239 280
#     4   9  17  29  47  72  99 126 157 193 234 281
#
# _framework density 18.158591000000001
#
# number of rings (size 3 to 8) (size 9 to 14) (size 15 to 20)
#    0.000    2.667    0.000    1.500    0.000    4.333 
#    0.000    5.000    0.000    2.000    0.000    4.667 
#    0.000    0.000    0.000    0.000    0.000    0.000 
#
# Total GULP energy -297625.882339 kJ/mol
# GULP energy per Si atom -12401.078431 kJ/mol
# Density = 1.811726 g / cm^3
# Si number density = 18.158591 Si / 1000 Ang^3
#
#
#
# Elastic Constant Matrix: (Units=GPa)
#
#
# Indices 1 2 3 4 5 6 
#
# 1 178.2767 51.8258 94.1476 0.0000 0.0000 0.0000
# 2 51.8258 46.1175 40.7924 0.0000 0.0000 0.0000
# 3 94.1476 40.7924 115.0378 0.0000 0.0000 0.0000
# 4 0.0000 0.0000 0.0000 19.0547 0.0000 0.0000
# 5 0.0000 0.0000 0.0000 0.0000 23.8429 0.0000
# 6 0.0000 0.0000 0.0000 0.0000 0.0000 27.1365
#
#
#
# Elastic Compliance Matrix: (Units=1/GPa)
#
#
# Indices 1 2 3 4 5 6 
#
# 1 0.011052 -0.006439 -0.006762 0.000000 0.000000 0.000000
# 2 -0.006439 0.035345 -0.007263 0.000000 0.000000 0.000000
# 3 -0.006762 -0.007263 0.016802 0.000000 0.000000 0.000000
# 4 0.000000 0.000000 0.000000 0.052481 0.000000 0.000000
# 5 0.000000 0.000000 0.000000 0.000000 0.041941 0.000000
# 6 0.000000 0.000000 0.000000 0.000000 0.000000 0.036851
#
#
# Mechanical properties :
#
#
# Convention : Reuss Voigt Hill
#
# Bulk Modulus (GPa) = 44.90268 79.21818 62.06043
# Shear Modulus (GPa) = 20.59113 24.18456 22.38785
#
# Velocity S-wave (km/s) = 3.37109 3.65341 3.51509
# Velocity P-wave (km/s) = 6.31934 7.84328 7.12219
#
# Compressibility (1/GPa) = 0.02227038
#
# Stress axis : x y z
#
# Youngs Moduli (GPa) = 90.48187 28.29294 59.51590
#
# Poissons Ratio (x) = 0.18218 0.40243
# Poissons Ratio (y) = 0.58261 0.43229
# Poissons Ratio (z) = 0.61181 0.20550
#
# Static dielectric constant tensor:
#      x y z
#    x 3.468210 0.000000 0.000000 
#    y 0.000000 3.172750 0.000000 
#    z 0.000000 0.000000 3.561180 
# 
# 
# High freq. dielectric constant tensor:
#      x y z
#    x 1.698880 0.000000 0.000000 
#    y 0.000000 1.682090 0.000000 
#    z 0.000000 0.000000 1.716930 
# 
# From -- ./inp_files/31435.got.cif
#   From: 2010.03.12/outbox.cif.g09.slc.cpg/sg42_16_cif.got.tgz:31435.got - 2010.04.14 02:04:31.
