data_PCOD8186046
_publ_section_title
;
Structure prediction by ZEFSAII (Michael W. Deem and Ramdas Pophale) SiO2 
 PCOD8186046
Probable space group: F M M 2
;
_chemical_formula_sum "Si O2"
_cell_formula_units_Z 80
_cell_length_a 18.676464
_cell_length_b 7.787160
_cell_length_c 28.705334
_cell_angle_alpha 90.000000
_cell_angle_beta 90.000000
_cell_angle_gamma 90.000000
_cell_volume 4174.806564
_symmetry_space_group_name_H-M "F M M 2"
_symmetry_group_IT_number 42
_symmetry_cell_setting 'orthorhombic'
loop_
_space_group_symop_operation_xyz
x,y,z
-x,-y,z
-x,y,z
x,-y,z
x,1/2+y,1/2+z
-x,1/2-y,1/2+z
-x,1/2+y,1/2+z
x,1/2-y,1/2+z
1/2+x,y,1/2+z
1/2-x,-y,1/2+z
1/2-x,y,1/2+z
1/2+x,-y,1/2+z
1/2+x,1/2+y,z
1/2-x,1/2-y,z
1/2-x,1/2+y,z
1/2+x,1/2-y,z
loop_
_atom_site_type_symbol
_atom_site_label
_atom_site_fract_x
_atom_site_fract_y
_atom_site_fract_z
Si Si1 0.085342 0.000000 0.230780
Si Si2 0.915649 0.303754 0.462440
Si Si3 0.673944 0.806718 0.878223
Si Si4 0.085122 0.809913 0.562582
Si Si5 0.331164 0.694474 0.777906
Si Si6 0.585141 0.500000 0.124457
O O1 0.114569 0.174320 0.253558
O O2 0.111288 0.000000 0.177346
O O3 0.000000 0.000000 0.235674
O O4 0.891431 0.500000 0.459667
O O5 0.884405 0.203964 0.418531
O O6 0.885613 0.225584 0.510581
O O7 0.000000 0.282251 0.459975
O O8 0.750000 0.750000 0.899567
O O9 0.654079 0.692691 0.833380
O O10 0.678448 0.000000 0.859449
O O11 0.116037 0.669505 0.598609
O O12 0.000000 0.795900 0.561534
O O13 0.109911 0.000000 0.578536
O O14 0.344638 0.500000 0.759545
O O15 0.250000 0.750000 0.767112
O O16 0.500000 0.500000 0.121648
#
# Coordination Sequence:
#
# PCOD8186046 Si02
#       6
#     8  16  16  16  16   8
#     4  11  24  40  62  97 125 151 201 262 311 347
#     4  10  19  32  52  82 116 151 190 234 285 337
#     4  11  21  36  56  82 113 152 199 236 278 348
#     4   9  16  29  51  78 110 150 191 229 282 351
#     4  11  21  41  66  87 117 164 208 243 297 373
#     4   9  18  34  54  79 116 149 183 242 298 341
#
# _framework density 19.162565000000001
#
# number of rings (size 3 to 8) (size 9 to 14) (size 15 to 20)
#    0.000    1.800    3.000    3.600    0.000    3.200 
#    0.000    2.000    0.000    1.200    0.000    0.000 
#    0.000    0.000    0.000    0.000    0.000    0.000 
#
# Total GULP energy -247991.502660 kJ/mol
# GULP energy per Si atom -12399.575133 kJ/mol
# Density = 1.911895 g / cm^3
# Si number density = 19.162565 Si / 1000 Ang^3
#
#
#
# Elastic Constant Matrix: (Units=GPa)
#
#
# Indices 1 2 3 4 5 6 
#
# 1 42.6078 36.2519 36.1465 0.0000 0.0000 -0.0001
# 2 36.2519 161.6050 56.6065 0.0000 0.0000 -0.0001
# 3 36.1465 56.6065 116.2835 0.0000 0.0000 0.0000
# 4 0.0000 0.0000 0.0000 25.9368 0.0000 0.0000
# 5 0.0000 0.0000 0.0000 0.0000 -0.9981 0.0000
# 6 -0.0001 -0.0001 0.0000 0.0000 0.0000 20.9691
#
#
#
# Elastic Compliance Matrix: (Units=1/GPa)
#
#
# Indices 1 2 3 4 5 6 
#
# 1 0.034752 -0.004836 -0.008448 0.000000 0.000000 0.000000
# 2 -0.004836 0.008133 -0.002456 0.000000 0.000000 0.000000
# 3 -0.008448 -0.002456 0.012421 0.000000 0.000000 0.000000
# 4 0.000000 0.000000 0.000000 0.038555 0.000000 0.000000
# 5 0.000000 0.000000 0.000000 0.000000 -1.001924 0.000001
# 6 0.000000 0.000000 0.000000 0.000000 0.000001 0.047689
#
#
# Mechanical properties :
#
#
# Convention : Reuss Voigt Hill
#
# Bulk Modulus (GPa) = 41.97199 64.27846 53.12522
# Shear Modulus (GPa) = -6.09050 21.94764 7.92857
#
# Velocity S-wave (km/s) = -1.78472 3.38796 2.03630
# Velocity P-wave (km/s) = 4.20757 6.99435 5.77168
#
# Compressibility (1/GPa) = 0.02382541
#
# Stress axis : x y z
#
# Youngs Moduli (GPa) = 28.77531 122.95499 80.50729
#
# Poissons Ratio (x) = 0.59467 0.68014
# Poissons Ratio (y) = 0.13917 0.19770
# Poissons Ratio (z) = 0.24310 0.30195
#
# Static dielectric constant tensor:
#      x y z
#    x 3.092540 0.000000 0.000000 
#    y 0.000000 3.762710 0.000000 
#    z 0.000000 0.000000 3.504810 
# 
# 
# High freq. dielectric constant tensor:
#      x y z
#    x 1.701610 0.000000 0.000000 
#    y 0.000000 1.767680 0.000000 
#    z 0.000000 0.000000 1.741880 
# 
# From -- ./inp_files/31321.got.cif
#   From: 2010.03.12/outbox.cif.g09.slc.cpg/sg42_16_cif.got.tgz:31321.got - 2010.04.14 02:04:31.
