data_PCOD8186454
_publ_section_title
;
Structure prediction by ZEFSAII (Michael W. Deem and Ramdas Pophale) SiO2 
 PCOD8186454
Probable space group: F M M 2
;
_chemical_formula_sum "Si O2"
_cell_formula_units_Z 80
_cell_length_a 17.699564
_cell_length_b 14.788048
_cell_length_c 15.221973
_cell_angle_alpha 90.000000
_cell_angle_beta 90.000000
_cell_angle_gamma 90.000000
_cell_volume 3984.229688
_symmetry_space_group_name_H-M "F M M 2"
_symmetry_group_IT_number 42
_symmetry_cell_setting 'orthorhombic'
loop_
_space_group_symop_operation_xyz
x,y,z
-x,-y,z
-x,y,z
x,-y,z
x,1/2+y,1/2+z
-x,1/2-y,1/2+z
-x,1/2+y,1/2+z
x,1/2-y,1/2+z
1/2+x,y,1/2+z
1/2-x,-y,1/2+z
1/2-x,y,1/2+z
1/2+x,-y,1/2+z
1/2+x,1/2+y,z
1/2-x,1/2-y,z
1/2-x,1/2+y,z
1/2+x,1/2-y,z
loop_
_atom_site_type_symbol
_atom_site_label
_atom_site_fract_x
_atom_site_fract_y
_atom_site_fract_z
Si Si1 0.815919 0.100358 0.069130
Si Si2 0.240361 0.144891 0.745419
Si Si3 0.413724 0.230713 0.471650
Si Si4 0.312810 0.101945 0.931007
Si Si5 0.916281 0.602861 0.306537
O O1 0.785865 0.097080 0.168127
O O2 0.849007 0.000000 0.048627
O O3 0.877503 0.179784 0.055899
O O4 0.748409 0.124923 0.004073
O O5 0.250000 0.250000 0.735077
O O6 0.274056 0.110587 0.836605
O O7 0.150910 0.120639 0.737014
O O8 0.500000 0.247790 0.495329
O O9 0.379910 0.327640 0.446140
O O10 0.401215 0.165267 0.389723
O O11 0.344600 0.000000 0.941596
O O12 0.912657 0.500000 0.339600
O O13 0.000000 0.623207 0.265533
#
# Coordination Sequence:
#
# PCOD8186454 Si02
#       5
#    16  16  16  16  16
#     4  11  23  39  63  95 125 162 214 262 313 376
#     4  12  21  38  64  93 131 169 211 256 315 379
#     4  11  22  40  62  88 124 164 207 260 319 375
#     4  11  22  40  62  89 125 165 214 264 313 376
#     4  10  20  36  61  91 121 156 202 257 313 366
#
# _framework density 20.079163999999999
#
# number of rings (size 3 to 8) (size 9 to 14) (size 15 to 20)
#    0.000    1.000    4.000    4.200    0.000    1.600 
#    0.000    5.000    0.000    3.600    0.000    0.000 
#    0.000    0.000    0.000    0.000    0.000    0.000 
#
# Total GULP energy -247995.570552 kJ/mol
# GULP energy per Si atom -12399.778528 kJ/mol
# Density = 2.003346 g / cm^3
# Si number density = 20.079164 Si / 1000 Ang^3
#
#
#
# Elastic Constant Matrix: (Units=GPa)
#
#
# Indices 1 2 3 4 5 6 
#
# 1 152.9677 73.0575 39.3892 0.0000 0.0000 0.0000
# 2 73.0575 145.5557 20.9781 0.0000 0.0000 0.0000
# 3 39.3892 20.9781 78.8267 0.0000 0.0000 0.0000
# 4 0.0000 0.0000 0.0000 25.8645 0.0000 0.0000
# 5 0.0000 0.0000 0.0000 0.0000 26.0794 0.0000
# 6 0.0000 0.0000 0.0000 0.0000 0.0000 32.0385
#
#
#
# Elastic Compliance Matrix: (Units=1/GPa)
#
#
# Indices 1 2 3 4 5 6 
#
# 1 0.009496 -0.004245 -0.003615 0.000000 0.000000 0.000000
# 2 -0.004245 0.009042 -0.000285 0.000000 0.000000 0.000000
# 3 -0.003615 -0.000285 0.014568 0.000000 0.000000 0.000000
# 4 0.000000 0.000000 0.000000 0.038663 0.000000 0.000000
# 5 0.000000 0.000000 0.000000 0.000000 0.038344 0.000000
# 6 0.000000 0.000000 0.000000 0.000000 0.000000 0.031212
#
#
# Mechanical properties :
#
#
# Convention : Reuss Voigt Hill
#
# Bulk Modulus (GPa) = 59.46936 71.57774 65.52355
# Shear Modulus (GPa) = 30.63315 33.05816 31.84565
#
# Velocity S-wave (km/s) = 3.91015 4.06198 3.98679
# Velocity P-wave (km/s) = 7.07584 7.59768 7.34140
#
# Compressibility (1/GPa) = 0.01681538
#
# Stress axis : x y z
#
# Youngs Moduli (GPa) = 105.31104 110.59506 68.64155
#
# Poissons Ratio (x) = 0.46948 0.24815
# Poissons Ratio (y) = 0.44705 0.01957
# Poissons Ratio (z) = 0.38072 0.03153
#
# Static dielectric constant tensor:
#      x y z
#    x 3.821260 0.000000 0.000000 
#    y 0.000000 3.649200 0.000000 
#    z 0.000000 0.000000 3.725790 
# 
# 
# High freq. dielectric constant tensor:
#      x y z
#    x 1.775500 0.000000 0.000000 
#    y 0.000000 1.807840 0.000000 
#    z 0.000000 0.000000 1.767410 
# 
# From -- ./inp_files/13799.got.cif
#   From: 2010.03.12/outbox.cif.g09.slc.cpg/sg42_7_cif.got.tgz:13799.got - 2010.04.14 02:04:31.
