data_PCOD8186296
_publ_section_title
;
Structure prediction by ZEFSAII (Michael W. Deem and Ramdas Pophale) SiO2 
 PCOD8186296
Probable space group: F M M 2
;
_chemical_formula_sum "Si O2"
_cell_formula_units_Z 96
_cell_length_a 11.820007
_cell_length_b 17.051356
_cell_length_c 25.662551
_cell_angle_alpha 90.000000
_cell_angle_beta 90.000000
_cell_angle_gamma 90.000000
_cell_volume 5172.213946
_symmetry_space_group_name_H-M "F M M 2"
_symmetry_group_IT_number 42
_symmetry_cell_setting 'orthorhombic'
loop_
_space_group_symop_operation_xyz
x,y,z
-x,-y,z
-x,y,z
x,-y,z
x,1/2+y,1/2+z
-x,1/2-y,1/2+z
-x,1/2+y,1/2+z
x,1/2-y,1/2+z
1/2+x,y,1/2+z
1/2-x,-y,1/2+z
1/2-x,y,1/2+z
1/2+x,-y,1/2+z
1/2+x,1/2+y,z
1/2-x,1/2-y,z
1/2-x,1/2+y,z
1/2+x,1/2-y,z
loop_
_atom_site_type_symbol
_atom_site_label
_atom_site_fract_x
_atom_site_fract_y
_atom_site_fract_z
Si Si1 0.873138 0.906693 0.836150
Si Si2 0.000000 0.406730 0.056517
Si Si3 0.500000 0.092722 0.175567
Si Si4 0.366034 0.411171 0.951010
Si Si5 0.260163 0.159511 0.045003
Si Si6 0.374683 0.407195 0.140784
Si Si7 0.720894 0.093374 0.230827
O O1 0.831377 0.879522 0.893346
O O2 0.784483 0.877714 0.791313
O O3 0.000000 0.874676 0.824151
O O4 0.879875 0.000000 0.836576
O O5 0.112437 0.368421 0.031990
O O6 0.000000 0.500000 0.047367
O O7 0.000000 0.381349 0.116236
O O8 0.610243 0.128176 0.202817
O O9 0.500000 0.000000 0.181043
O O10 0.500000 0.408555 0.957169
O O11 0.322364 0.500000 0.959847
O O12 0.311755 0.354638 0.993210
O O13 0.250000 0.250000 0.059379
O O14 0.209747 0.112888 0.094017
O O15 0.500000 0.370848 0.132065
O O16 0.382680 0.500000 0.142360
O O17 0.328018 0.376215 0.197060
O O18 0.719177 0.000000 0.229396
#
# Coordination Sequence:
#
# PCOD8186296 Si02
#       7
#    16   8   8  16  16  16  16
#     4   8  13  23  46  79 106 131 170 222 268 307
#     4  11  22  38  58  81 107 147 193 227 275 341
#     4   9  14  24  46  75 104 129 163 215 270 311
#     4   9  18  34  56  79 105 139 179 223 272 324
#     4  12  25  36  54  78 110 143 181 234 281 324
#     4  10  20  34  54  78 108 146 179 212 268 336
#     4   9  14  24  46  78 108 131 165 220 270 313
#
# _framework density 18.560717
#
# number of rings (size 3 to 8) (size 9 to 14) (size 15 to 20)
#    0.000    2.333    2.500    3.000    2.333    1.333 
#    0.000    0.000    1.833    1.000    0.000    2.333 
#    0.000    0.000    0.000    0.000    0.000    0.000 
#
# Total GULP energy -297408.642838 kJ/mol
# GULP energy per Si atom -12392.026785 kJ/mol
# Density = 1.851847 g / cm^3
# Si number density = 18.560717 Si / 1000 Ang^3
#
#
#
# Elastic Constant Matrix: (Units=GPa)
#
#
# Indices 1 2 3 4 5 6 
#
# 1 89.9496 19.6032 43.1528 0.0000 0.0000 0.0000
# 2 19.6032 30.4971 10.8197 0.0000 0.0000 0.0000
# 3 43.1528 10.8197 133.1234 0.0000 0.0000 0.0000
# 4 0.0000 0.0000 0.0000 2.3789 0.0000 0.0000
# 5 0.0000 0.0000 0.0000 0.0000 28.8468 0.0000
# 6 0.0000 0.0000 0.0000 0.0000 0.0000 13.3091
#
#
#
# Elastic Compliance Matrix: (Units=1/GPa)
#
#
# Indices 1 2 3 4 5 6 
#
# 1 0.014878 -0.008085 -0.004166 0.000000 0.000000 0.000000
# 2 -0.008085 0.038158 -0.000480 0.000000 0.000000 0.000000
# 3 -0.004166 -0.000480 0.008901 0.000000 0.000000 0.000000
# 4 0.000000 0.000000 0.000000 0.420364 0.000000 0.000000
# 5 0.000000 0.000000 0.000000 0.000000 0.034666 0.000000
# 6 0.000000 0.000000 0.000000 0.000000 0.000000 0.075137
#
#
# Mechanical properties :
#
#
# Convention : Reuss Voigt Hill
#
# Bulk Modulus (GPa) = 27.41687 44.52461 35.97074
# Shear Modulus (GPa) = 7.93999 20.90658 14.42329
#
# Velocity S-wave (km/s) = 2.07054 3.35981 2.79065
# Velocity P-wave (km/s) = 4.52987 6.25235 5.45946
#
# Compressibility (1/GPa) = 0.03647389
#
# Stress axis : x y z
#
# Youngs Moduli (GPa) = 67.21396 26.20707 112.34477
#
# Poissons Ratio (x) = 0.21190 0.46798
# Poissons Ratio (y) = 0.54346 0.05396
# Poissons Ratio (z) = 0.27999 0.01259
#
# Static dielectric constant tensor:
#      x y z
#    x 3.601870 0.000000 0.000000 
#    y 0.000000 2.886380 0.000000 
#    z 0.000000 0.000000 3.768690 
# 
# 
# High freq. dielectric constant tensor:
#      x y z
#    x 1.711970 0.000000 0.000000 
#    y 0.000000 1.663980 0.000000 
#    z 0.000000 0.000000 1.730300 
# 
# From -- ./inp_files/29873.got.cif
#   From: 2010.03.12/outbox.cif.g09.slc.cpg/sg42_15_cif.got.tgz:29873.got - 2010.04.14 02:04:31.
