data_PCOD8186470
_publ_section_title
;
Structure prediction by ZEFSAII (Michael W. Deem and Ramdas Pophale) SiO2 
 PCOD8186470
Probable space group: F M M 2
;
_chemical_formula_sum "Si O2"
_cell_formula_units_Z 96
_cell_length_a 8.626982
_cell_length_b 25.522027
_cell_length_c 23.475475
_cell_angle_alpha 90.000000
_cell_angle_beta 90.000000
_cell_angle_gamma 90.000000
_cell_volume 5168.784720
_symmetry_space_group_name_H-M "F M M 2"
_symmetry_group_IT_number 42
_symmetry_cell_setting 'orthorhombic'
loop_
_space_group_symop_operation_xyz
x,y,z
-x,-y,z
-x,y,z
x,-y,z
x,1/2+y,1/2+z
-x,1/2-y,1/2+z
-x,1/2+y,1/2+z
x,1/2-y,1/2+z
1/2+x,y,1/2+z
1/2-x,-y,1/2+z
1/2-x,y,1/2+z
1/2+x,-y,1/2+z
1/2+x,1/2+y,z
1/2-x,1/2-y,z
1/2-x,1/2+y,z
1/2+x,1/2-y,z
loop_
_atom_site_type_symbol
_atom_site_label
_atom_site_fract_x
_atom_site_fract_y
_atom_site_fract_z
Si Si1 0.683104 0.939543 0.845780
Si Si2 0.316699 0.000000 0.030271
Si Si3 0.183873 0.901808 0.729588
Si Si4 0.683172 0.095660 0.461852
Si Si5 0.182081 0.804849 0.031758
Si Si6 0.684126 0.806064 0.661373
Si Si7 0.816257 0.500000 0.157292
O O1 0.500000 0.937287 0.853164
O O2 0.734315 0.908730 0.789945
O O3 0.762166 0.908392 0.897177
O O4 0.740727 0.000000 0.844185
O O5 0.500000 0.000000 0.031081
O O6 0.246690 0.000000 0.093861
O O7 0.260065 0.949176 0.998485
O O8 0.235650 0.847481 0.702548
O O9 0.244604 0.948549 0.689349
O O10 0.000000 0.903345 0.737723
O O11 0.500000 0.089849 0.465431
O O12 0.740626 0.150485 0.488633
O O13 0.250000 0.750000 0.010365
O O14 0.235519 0.818099 0.096280
O O15 0.000000 0.799559 0.030174
O O16 0.500000 0.807743 0.668968
O O17 0.750000 0.750000 0.680135
O O18 0.000000 0.500000 0.155242
#
# Coordination Sequence:
#
# PCOD8186470 Si02
#       7
#    16   8  16  16  16  16   8
#     4  11  23  39  58  82 112 151 196 239 285 340
#     4  11  21  34  53  82 115 148 184 227 280 341
#     4  11  21  37  59  84 114 151 192 236 286 340
#     4  11  22  37  57  83 114 149 190 236 285 339
#     4   9  20  37  59  86 116 151 190 232 285 341
#     4  10  20  37  59  86 118 152 191 235 285 342
#     4   9  20  34  53  82 115 146 182 227 282 343
#
# _framework density 18.573029999999999
#
# number of rings (size 3 to 8) (size 9 to 14) (size 15 to 20)
#    0.000    1.667    1.667    3.250    0.000    2.667 
#    0.000    3.333    0.000    2.000    0.000    0.000 
#    0.000    0.000    0.000    0.000    0.000    0.000 
#
# Total GULP energy -297689.432289 kJ/mol
# GULP energy per Si atom -12403.726345 kJ/mol
# Density = 1.853076 g / cm^3
# Si number density = 18.573030 Si / 1000 Ang^3
#
#
#
# Elastic Constant Matrix: (Units=GPa)
#
#
# Indices 1 2 3 4 5 6 
#
# 1 36.8652 15.5867 4.0235 0.0000 0.0000 0.0000
# 2 15.5867 136.3596 59.0839 0.0000 0.0000 0.0000
# 3 4.0235 59.0839 117.4841 0.0000 0.0000 0.0000
# 4 0.0000 0.0000 0.0000 14.3120 0.0000 0.0000
# 5 0.0000 0.0000 0.0000 0.0000 29.9076 0.0000
# 6 0.0000 0.0000 0.0000 0.0000 0.0000 10.1001
#
#
#
# Elastic Compliance Matrix: (Units=1/GPa)
#
#
# Indices 1 2 3 4 5 6 
#
# 1 0.028569 -0.003633 0.000849 0.000000 0.000000 0.000000
# 2 -0.003633 0.009839 -0.004824 0.000000 0.000000 0.000000
# 3 0.000849 -0.004824 0.010909 0.000000 0.000000 0.000000
# 4 0.000000 0.000000 0.000000 0.069871 0.000000 0.000000
# 5 0.000000 0.000000 0.000000 0.000000 0.033436 0.000000
# 6 0.000000 0.000000 0.000000 0.000000 0.000000 0.099009
#
#
# Mechanical properties :
#
#
# Convention : Reuss Voigt Hill
#
# Bulk Modulus (GPa) = 29.32512 49.78858 39.55685
# Shear Modulus (GPa) = 17.97159 24.99826 21.48493
#
# Velocity S-wave (km/s) = 3.11403 3.67269 3.40484
# Velocity P-wave (km/s) = 5.36218 6.69701 6.06642
#
# Compressibility (1/GPa) = 0.03410045
#
# Stress axis : x y z
#
# Youngs Moduli (GPa) = 35.00243 101.63684 91.67083
#
# Poissons Ratio (x) = 0.36929 -0.07782
# Poissons Ratio (y) = 0.12718 0.44219
# Poissons Ratio (z) = -0.02971 0.49026
#
# Static dielectric constant tensor:
#      x y z
#    x 3.409440 0.000000 0.000000 
#    y 0.000000 3.446840 0.000000 
#    z 0.000000 0.000000 3.585050 
# 
# 
# High freq. dielectric constant tensor:
#      x y z
#    x 1.724300 0.000000 0.000000 
#    y 0.000000 1.724800 0.000000 
#    z 0.000000 0.000000 1.725360 
# 
# From -- ./inp_files/28088.got.cif
#   From: 2010.03.12/outbox.cif.g09.slc.cpg/sg42_15_cif.got.tgz:28088.got - 2010.04.14 02:04:31.
