data_PCOD8186142
_publ_section_title
;
Structure prediction by ZEFSAII (Michael W. Deem and Ramdas Pophale) SiO2 
 PCOD8186142
Probable space group: F M M 2
;
_chemical_formula_sum "Si O2"
_cell_formula_units_Z 96
_cell_length_a 23.759108
_cell_length_b 8.674886
_cell_length_c 25.264490
_cell_angle_alpha 90.000000
_cell_angle_beta 90.000000
_cell_angle_gamma 90.000000
_cell_volume 5207.202221
_symmetry_space_group_name_H-M "F M M 2"
_symmetry_group_IT_number 42
_symmetry_cell_setting 'orthorhombic'
loop_
_space_group_symop_operation_xyz
x,y,z
-x,-y,z
-x,y,z
x,-y,z
x,1/2+y,1/2+z
-x,1/2-y,1/2+z
-x,1/2+y,1/2+z
x,1/2-y,1/2+z
1/2+x,y,1/2+z
1/2-x,-y,1/2+z
1/2-x,y,1/2+z
1/2+x,-y,1/2+z
1/2+x,1/2+y,z
1/2-x,1/2-y,z
1/2-x,1/2+y,z
1/2+x,1/2-y,z
loop_
_atom_site_type_symbol
_atom_site_label
_atom_site_fract_x
_atom_site_fract_y
_atom_site_fract_z
Si Si1 0.379998 0.682870 0.427050
Si Si2 0.811526 0.818202 0.023947
Si Si3 0.692053 0.319969 0.717167
Si Si4 0.190409 0.682745 0.336395
Si Si5 0.500000 0.681668 0.584237
Si Si6 0.000000 0.682866 0.965914
Si Si7 0.120223 0.818331 0.619078
O O1 0.375907 0.500000 0.426626
O O2 0.340980 0.745363 0.473334
O O3 0.359883 0.749670 0.371225
O O4 0.444196 0.739965 0.435507
O O5 0.750000 0.750000 0.029964
O O6 0.845636 0.777884 0.076401
O O7 0.808069 0.000000 0.016384
O O8 0.701431 0.500000 0.718616
O O9 0.750000 0.250000 0.695397
O O10 0.678231 0.260959 0.776330
O O11 0.641762 0.274170 0.677625
O O12 0.192039 0.500000 0.341934
O O13 0.250000 0.750000 0.356245
O O14 0.500000 0.500000 0.578086
O O15 0.500000 0.753895 0.525222
O O16 0.444805 0.734269 0.616341
O O17 0.000000 0.500000 0.969588
O O18 0.127688 0.000000 0.607073
#
# Coordination Sequence:
#
# PCOD8186142 Si02
#       7
#    16  16  16  16   8   8  16
#     4  11  21  37  58  80 106 141 184 224 266 321
#     4  12  24  36  52  79 111 142 174 221 276 326
#     4   9  19  34  55  80 109 143 180 222 269 322
#     4  10  20  36  55  81 112 144 181 223 274 323
#     4   9  16  32  57  80 106 144 184 220 261 318
#     4   9  18  34  57  80 104 142 184 220 263 322
#     4  10  19  35  57  81 108 143 184 222 263 318
#
# _framework density 18.436002999999999
#
# number of rings (size 3 to 8) (size 9 to 14) (size 15 to 20)
#    0.000    1.833    1.667    3.500    0.000    2.667 
#    0.000    3.750    0.000    2.000    0.000    0.000 
#    0.000    0.000    0.000    0.000    0.000    0.000 
#
# Total GULP energy -297629.630646 kJ/mol
# GULP energy per Si atom -12401.234610 kJ/mol
# Density = 1.839404 g / cm^3
# Si number density = 18.436003 Si / 1000 Ang^3
#
#
#
# Elastic Constant Matrix: (Units=GPa)
#
#
# Indices 1 2 3 4 5 6 
#
# 1 170.3922 31.5426 81.6309 0.0000 0.0000 -0.0001
# 2 31.5426 57.0325 28.7342 0.0000 -0.0001 -0.0002
# 3 81.6309 28.7342 120.9121 0.0000 0.0000 0.0000
# 4 0.0000 0.0000 0.0000 25.7166 0.0000 0.0000
# 5 0.0000 -0.0001 0.0000 0.0000 40.5299 0.0000
# 6 -0.0001 -0.0002 0.0000 0.0000 0.0000 22.5942
#
#
#
# Elastic Compliance Matrix: (Units=1/GPa)
#
#
# Indices 1 2 3 4 5 6 
#
# 1 0.008901 -0.002153 -0.005498 0.000000 0.000000 0.000000
# 2 -0.002153 0.020440 -0.003404 0.000000 0.000000 0.000000
# 3 -0.005498 -0.003404 0.012791 0.000000 0.000000 0.000000
# 4 0.000000 0.000000 0.000000 0.038885 0.000000 0.000000
# 5 0.000000 0.000000 0.000000 0.000000 0.024673 0.000000
# 6 0.000000 0.000000 0.000000 0.000000 0.000000 0.044259
#
#
# Mechanical properties :
#
#
# Convention : Reuss Voigt Hill
#
# Bulk Modulus (GPa) = 49.94357 70.23914 60.09135
# Shear Modulus (GPa) = 27.97469 31.53008 29.75238
#
# Velocity S-wave (km/s) = 3.89960 4.14000 4.02160
# Velocity P-wave (km/s) = 6.88657 7.81245 7.36408
#
# Compressibility (1/GPa) = 0.02002260
#
# Stress axis : x y z
#
# Youngs Moduli (GPa) = 112.34377 48.92477 78.17949
#
# Poissons Ratio (x) = 0.10534 0.42982
# Poissons Ratio (y) = 0.24188 0.26611
# Poissons Ratio (z) = 0.61764 0.16653
#
# Static dielectric constant tensor:
#      x y z
#    x 3.583270 0.000000 0.000000 
#    y 0.000000 3.290680 0.000000 
#    z 0.000000 0.000000 3.664370 
# 
# 
# High freq. dielectric constant tensor:
#      x y z
#    x 1.719060 0.000000 0.000000 
#    y 0.000000 1.704480 0.000000 
#    z 0.000000 0.000000 1.717610 
# 
# From -- ./inp_files/28126.got.cif
#   From: 2010.03.12/outbox.cif.g09.slc.cpg/sg42_15_cif.got.tgz:28126.got - 2010.04.14 02:04:31.
