data_PCOD8186988
_publ_section_title
;
Structure prediction by ZEFSAII (Michael W. Deem and Ramdas Pophale) SiO2 
 PCOD8186988
Probable space group: F D D 2
;
_chemical_formula_sum "Si O2"
_cell_formula_units_Z 88
_cell_length_a 12.034525
_cell_length_b 25.579801
_cell_length_c 13.298753
_cell_angle_alpha 90.000000
_cell_angle_beta 90.000000
_cell_angle_gamma 90.000000
_cell_volume 4093.898159
_symmetry_space_group_name_H-M "F D D 2"
_symmetry_group_IT_number 43
_symmetry_cell_setting 'orthorhombic'
loop_
_space_group_symop_operation_xyz
x,y,z
-x,-y,z
1/4-x,1/4+y,1/4+z
1/4+x,1/4-y,1/4+z
x,1/2+y,1/2+z
-x,1/2-y,1/2+z
1/4-x,3/4+y,3/4+z
1/4+x,3/4-y,3/4+z
1/2+x,y,1/2+z
1/2-x,-y,1/2+z
3/4-x,1/4+y,3/4+z
3/4+x,1/4-y,3/4+z
1/2+x,1/2+y,z
1/2-x,1/2-y,z
3/4-x,3/4+y,1/4+z
3/4+x,3/4-y,1/4+z
loop_
_atom_site_type_symbol
_atom_site_label
_atom_site_fract_x
_atom_site_fract_y
_atom_site_fract_z
Si Si1 0.343515 0.333234 0.063070
Si Si2 0.236630 0.821168 0.844960
Si Si3 0.831209 0.053097 0.419795
Si Si4 0.143926 0.131058 0.849815
Si Si5 0.250000 0.750000 0.022914
Si Si6 0.853952 0.511863 0.481653
O O1 0.449931 0.369184 0.094494
O O2 0.230339 0.358272 0.104894
O O3 0.366571 0.278185 0.116562
O O4 0.341007 0.328060 0.942347
O O5 0.366270 0.808857 0.812031
O O6 0.171999 0.790816 0.755986
O O7 0.204603 0.796733 0.952561
O O8 0.738456 0.086786 0.359671
O O9 0.907206 0.088073 0.494216
O O10 0.903560 0.024039 0.338474
O O11 0.773843 0.006791 0.485862
#
# Coordination Sequence:
#
# PCOD8186988 Si02
#       6
#    16  16  16  16   8  16
#     4  11  19  37  69  99 128 173 219 275 333 392
#     4  10  21  42  62 101 131 169 225 271 317 419
#     4  11  23  45  64  94 136 172 222 276 338 404
#     4  10  21  40  66  93 135 168 217 275 330 408
#     4  10  26  44  62  90 140 170 216 282 340 396
#     4  10  19  35  67  95 126 164 223 273 318 389
#
# _framework density 21.495405000000002
#
# number of rings (size 3 to 8) (size 9 to 14) (size 15 to 20)
#    0.000    1.818    5.455    1.091    2.545    0.000 
#    9.818    9.091    0.000    0.000    0.000    0.000 
#    0.000    0.000    0.000    0.000    0.000    0.000 
#
# Total GULP energy -272563.843991 kJ/mol
# GULP energy per Si atom -12389.265636 kJ/mol
# Density = 2.144648 g / cm^3
# Si number density = 21.495405 Si / 1000 Ang^3
#
#
#
# Elastic Constant Matrix: (Units=GPa)
#
#
# Indices 1 2 3 4 5 6 
#
# 1 90.9978 41.4456 59.9383 0.0000 0.0000 0.0000
# 2 41.4456 61.3659 49.6499 0.0000 0.0000 0.0000
# 3 59.9383 49.6499 127.3198 0.0000 0.0000 0.0000
# 4 0.0000 0.0000 0.0000 41.8827 0.0000 0.0000
# 5 0.0000 0.0000 0.0000 0.0000 30.5727 0.0000
# 6 0.0000 0.0000 0.0000 0.0000 0.0000 31.1196
#
#
#
# Elastic Compliance Matrix: (Units=1/GPa)
#
#
# Indices 1 2 3 4 5 6 
#
# 1 0.018180 -0.007822 -0.005508 0.000000 0.000000 0.000000
# 2 -0.007822 0.027172 -0.006914 0.000000 0.000000 0.000000
# 3 -0.005508 -0.006914 0.013144 0.000000 0.000000 0.000000
# 4 0.000000 0.000000 0.000000 0.023876 0.000000 0.000000
# 5 0.000000 0.000000 0.000000 0.000000 0.032709 0.000000
# 6 0.000000 0.000000 0.000000 0.000000 0.000000 0.032134
#
#
# Mechanical properties :
#
#
# Convention : Reuss Voigt Hill
#
# Bulk Modulus (GPa) = 55.53170 64.63901 60.08536
# Shear Modulus (GPa) = 25.81233 29.29166 27.55200
#
# Velocity S-wave (km/s) = 3.46906 3.69547 3.58405
# Velocity P-wave (km/s) = 6.47581 6.95306 6.71868
#
# Compressibility (1/GPa) = 0.01800773
#
# Stress axis : x y z
#
# Youngs Moduli (GPa) = 55.00545 36.80219 76.08269
#
# Poissons Ratio (x) = 0.28786 0.41909
# Poissons Ratio (y) = 0.43024 0.52603
# Poissons Ratio (z) = 0.30299 0.25445
#
# Static dielectric constant tensor:
#      x y z
#    x 4.039890 0.000000 0.000000 
#    y 0.000000 3.955560 0.000000 
#    z 0.000000 0.000000 4.024300 
# 
# 
# High freq. dielectric constant tensor:
#      x y z
#    x 1.823240 0.000000 0.000000 
#    y 0.000000 1.828990 0.000000 
#    z 0.000000 0.000000 1.848280 
# 
# From -- ./inp_files/6219.got.cif
#   From: 2010.06.25/outbox.cif.g09.slc.cpg/sg43_4_cif.got.tgz:6219.got - 2010.06.26 16:48:59.
