data_PCOD8186213
_publ_section_title
;
Structure prediction by ZEFSAII (Michael W. Deem and Ramdas Pophale) SiO2 
 PCOD8186213
Probable space group: F M M 2
;
_chemical_formula_sum "Si O2"
_cell_formula_units_Z 96
_cell_length_a 9.124239
_cell_length_b 19.296503
_cell_length_c 30.658888
_cell_angle_alpha 90.000000
_cell_angle_beta 90.000000
_cell_angle_gamma 90.000000
_cell_volume 5397.984869
_symmetry_space_group_name_H-M "F M M 2"
_symmetry_group_IT_number 42
_symmetry_cell_setting 'orthorhombic'
loop_
_space_group_symop_operation_xyz
x,y,z
-x,-y,z
-x,y,z
x,-y,z
x,1/2+y,1/2+z
-x,1/2-y,1/2+z
-x,1/2+y,1/2+z
x,1/2-y,1/2+z
1/2+x,y,1/2+z
1/2-x,-y,1/2+z
1/2-x,y,1/2+z
1/2+x,-y,1/2+z
1/2+x,1/2+y,z
1/2-x,1/2-y,z
1/2-x,1/2+y,z
1/2+x,1/2-y,z
loop_
_atom_site_type_symbol
_atom_site_label
_atom_site_fract_x
_atom_site_fract_y
_atom_site_fract_z
Si Si1 0.671470 0.820057 0.658350
Si Si2 0.667775 0.917548 0.994454
Si Si3 0.829698 0.680608 0.557248
Si Si4 0.673584 0.424223 0.400147
Si Si5 0.835360 0.582793 0.806895
Si Si6 0.831661 0.581897 0.222385
O O1 0.500000 0.813435 0.668121
O O2 0.750000 0.750000 0.674263
O O3 0.704124 0.833923 0.607733
O O4 0.737728 0.884749 0.683967
O O5 0.500000 0.897392 0.004803
O O6 0.771919 0.884806 0.030529
O O7 0.687475 0.000000 0.995565
O O8 0.715240 0.887654 0.946219
O O9 0.750000 0.750000 0.541054
O O10 0.000000 0.690456 0.548335
O O11 0.500000 0.433334 0.399211
O O12 0.747849 0.500000 0.400733
O O13 0.718828 0.386634 0.354350
O O14 0.833897 0.500000 0.810232
O O15 0.727076 0.609045 0.769121
O O16 0.000000 0.608582 0.795912
O O17 0.810970 0.500000 0.218283
O O18 0.000000 0.604221 0.217954
#
# Coordination Sequence:
#
# PCOD8186213 Si02
#       6
#    16  16  16  16  16  16
#     4  10  21  37  55  72  93 125 164 203 245 295
#     4   9  17  30  50  76 104 132 162 198 241 286
#     4  10  21  36  53  72  95 126 164 203 244 293
#     4   7  11  22  42  68  96 127 162 196 232 279
#     4   8  13  24  44  68  95 128 164 199 236 280
#     4  10  20  32  48  74 105 132 161 199 241 285
#
# _framework density 17.784414999999999
#
# number of rings (size 3 to 8) (size 9 to 14) (size 15 to 20)
#    0.000    3.000    0.000    3.500    0.000    4.000 
#    0.000    4.167    0.000    4.000    0.000    4.667 
#    0.000    0.000    0.000    0.000    0.000    0.000 
#
# Total GULP energy -297390.602514 kJ/mol
# GULP energy per Si atom -12391.275105 kJ/mol
# Density = 1.774394 g / cm^3
# Si number density = 17.784415 Si / 1000 Ang^3
#
#
#
# Elastic Constant Matrix: (Units=GPa)
#
#
# Indices 1 2 3 4 5 6 
#
# 1 91.1446 33.2927 61.4302 0.0000 0.0000 0.0000
# 2 33.2927 39.5464 42.4147 0.0000 0.0000 0.0000
# 3 61.4302 42.4147 115.7650 0.0000 0.0000 0.0000
# 4 0.0000 0.0000 0.0000 4.2001 0.0000 0.0000
# 5 0.0000 0.0000 0.0000 0.0000 26.7883 0.0000
# 6 0.0000 0.0000 0.0000 0.0000 0.0000 26.6250
#
#
#
# Elastic Compliance Matrix: (Units=1/GPa)
#
#
# Indices 1 2 3 4 5 6 
#
# 1 0.018622 -0.008366 -0.006816 0.000000 0.000000 0.000000
# 2 -0.008366 0.045415 -0.012200 0.000000 0.000000 0.000000
# 3 -0.006816 -0.012200 0.016725 0.000000 0.000000 0.000000
# 4 0.000000 0.000000 0.000000 0.238089 0.000000 0.000000
# 5 0.000000 0.000000 0.000000 0.000000 0.037330 0.000000
# 6 0.000000 0.000000 0.000000 0.000000 0.000000 0.037559
#
#
# Mechanical properties :
#
#
# Convention : Reuss Voigt Hill
#
# Bulk Modulus (GPa) = 38.46634 57.85903 48.16268
# Shear Modulus (GPa) = 10.93688 18.81059 14.87373
#
# Velocity S-wave (km/s) = 2.48255 3.25576 2.89508
# Velocity P-wave (km/s) = 5.46750 6.83648 6.18995
#
# Compressibility (1/GPa) = 0.02599676
#
# Stress axis : x y z
#
# Youngs Moduli (GPa) = 53.70118 22.01932 59.79081
#
# Poissons Ratio (x) = 0.18422 0.40754
# Poissons Ratio (y) = 0.44928 0.72943
# Poissons Ratio (z) = 0.36604 0.26863
#
# Static dielectric constant tensor:
#      x y z
#    x 3.203390 0.000000 0.000000 
#    y 0.000000 2.865210 0.000000 
#    z 0.000000 0.000000 3.708480 
# 
# 
# High freq. dielectric constant tensor:
#      x y z
#    x 1.676910 0.000000 0.000000 
#    y 0.000000 1.640660 0.000000 
#    z 0.000000 0.000000 1.707240 
# 
# From -- ./inp_files/31420.got.cif
#   From: 2010.03.12/outbox.cif.g09.slc.cpg/sg42_16_cif.got.tgz:31420.got - 2010.04.14 02:04:31.
