data_PCOD8186858
_publ_section_title
;
Structure prediction by ZEFSAII (Michael W. Deem and Ramdas Pophale) SiO2 
 PCOD8186858
Probable space group: F M M 2
;
_chemical_formula_sum "Si O2"
_cell_formula_units_Z 80
_cell_length_a 28.609321
_cell_length_b 8.885767
_cell_length_c 15.460681
_cell_angle_alpha 90.000000
_cell_angle_beta 90.000000
_cell_angle_gamma 90.000000
_cell_volume 3930.348777
_symmetry_space_group_name_H-M "F M M 2"
_symmetry_group_IT_number 42
_symmetry_cell_setting 'orthorhombic'
loop_
_space_group_symop_operation_xyz
x,y,z
-x,-y,z
-x,y,z
x,-y,z
x,1/2+y,1/2+z
-x,1/2-y,1/2+z
-x,1/2+y,1/2+z
x,1/2-y,1/2+z
1/2+x,y,1/2+z
1/2-x,-y,1/2+z
1/2-x,y,1/2+z
1/2+x,-y,1/2+z
1/2+x,1/2+y,z
1/2-x,1/2-y,z
1/2-x,1/2+y,z
1/2+x,1/2-y,z
loop_
_atom_site_type_symbol
_atom_site_label
_atom_site_fract_x
_atom_site_fract_y
_atom_site_fract_z
Si Si1 0.203734 0.176369 0.561900
Si Si2 0.603163 0.678194 0.819562
Si Si3 0.104078 0.178169 0.496699
Si Si4 0.555267 0.327582 0.157451
Si Si5 0.296325 0.323792 0.758408
O O1 0.250000 0.250000 0.519897
O O2 0.158172 0.225217 0.508762
O O3 0.197115 0.234084 0.660156
O O4 0.210682 0.000000 0.559894
O O5 0.595963 0.500000 0.812340
O O6 0.584949 0.738630 0.911534
O O7 0.573076 0.757177 0.746252
O O8 0.657598 0.724320 0.810601
O O9 0.074416 0.231417 0.578035
O O10 0.098188 0.000000 0.486875
O O11 0.500000 0.316723 0.156522
O O12 0.572276 0.500000 0.149876
O O13 0.288942 0.500000 0.761096
O O14 0.250000 0.250000 0.800423
#
# Coordination Sequence:
#
# PCOD8186858 Si02
#       5
#    16  16  16  16  16
#     4   9  18  34  56  85 121 162 205 247 296 354
#     4  11  23  41  64  93 127 163 206 252 303 364
#     4  11  23  41  64  93 127 163 206 252 303 364
#     4  11  25  45  68  93 120 155 202 255 314 373
#     4   9  18  34  56  85 121 162 205 247 296 354
#
# _framework density 20.354427000000001
#
# number of rings (size 3 to 8) (size 9 to 14) (size 15 to 20)
#    0.000    1.800    2.000    1.800    0.000    6.400 
#    0.000    4.000    0.000    0.000    0.000    0.000 
#    0.000    0.000    0.000    0.000    0.000    0.000 
#
# Total GULP energy -248054.414370 kJ/mol
# GULP energy per Si atom -12402.720718 kJ/mol
# Density = 2.030810 g / cm^3
# Si number density = 20.354427 Si / 1000 Ang^3
#
#
#
# Elastic Constant Matrix: (Units=GPa)
#
#
# Indices 1 2 3 4 5 6 
#
# 1 82.4287 37.5772 27.7766 0.0000 0.0000 0.0000
# 2 37.5772 53.4834 11.5088 0.0000 0.0000 0.0000
# 3 27.7766 11.5088 92.6242 0.0000 0.0000 0.0000
# 4 0.0000 0.0000 0.0000 33.6292 0.0000 0.0000
# 5 0.0000 0.0000 0.0000 0.0000 -9.4030 0.0000
# 6 0.0000 0.0000 0.0000 0.0000 0.0000 34.3611
#
#
#
# Elastic Compliance Matrix: (Units=1/GPa)
#
#
# Indices 1 2 3 4 5 6 
#
# 1 0.019333 -0.012674 -0.004223 0.000000 0.000000 0.000000
# 2 -0.012674 0.027520 0.000381 0.000000 0.000000 0.000000
# 3 -0.004223 0.000381 0.012015 0.000000 0.000000 0.000000
# 4 0.000000 0.000000 0.000000 0.029736 0.000000 0.000000
# 5 0.000000 0.000000 0.000000 0.000000 -0.106349 0.000000
# 6 0.000000 0.000000 0.000000 0.000000 0.000000 0.029103
#
#
# Mechanical properties :
#
#
# Convention : Reuss Voigt Hill
#
# Bulk Modulus (GPa) = 38.70457 42.47348 40.58903
# Shear Modulus (GPa) = 94.33731 21.82905 58.08318
#
# Velocity S-wave (km/s) = 6.81527 3.27838 5.34770
# Velocity P-wave (km/s) = 8.99929 5.93655 7.62331
#
# Compressibility (1/GPa) = 0.02583674
#
# Stress axis : x y z
#
# Youngs Moduli (GPa) = 51.72620 36.33689 83.22747
#
# Poissons Ratio (x) = 0.46054 0.35145
# Poissons Ratio (y) = 0.65559 -0.03174
# Poissons Ratio (z) = 0.21843 -0.01386
#
# Static dielectric constant tensor:
#      x y z
#    x 3.797580 0.000000 0.000000 
#    y 0.000000 3.737770 0.000000 
#    z 0.000000 0.000000 3.660640 
# 
# 
# High freq. dielectric constant tensor:
#      x y z
#    x 1.796300 0.000000 0.000000 
#    y 0.000000 1.797860 0.000000 
#    z 0.000000 0.000000 1.795080 
# 
# From -- ./inp_files/22434.got.cif
#   From: 2010.03.12/outbox.cif.g09.slc.cpg/sg42_12_cif.got.tgz:22434.got - 2010.04.14 02:04:31.
