data_PCOD8186058
_publ_section_title
;
Structure prediction by ZEFSAII (Michael W. Deem and Ramdas Pophale) SiO2 
 PCOD8186058
Probable space group: F M M 2
;
_chemical_formula_sum "Si O2"
_cell_formula_units_Z 48
_cell_length_a 15.641961
_cell_length_b 8.902103
_cell_length_c 18.401827
_cell_angle_alpha 90.000000
_cell_angle_beta 90.000000
_cell_angle_gamma 90.000000
_cell_volume 2562.387205
_symmetry_space_group_name_H-M "F M M 2"
_symmetry_group_IT_number 42
_symmetry_cell_setting 'orthorhombic'
loop_
_space_group_symop_operation_xyz
x,y,z
-x,-y,z
-x,y,z
x,-y,z
x,1/2+y,1/2+z
-x,1/2-y,1/2+z
-x,1/2+y,1/2+z
x,1/2-y,1/2+z
1/2+x,y,1/2+z
1/2-x,-y,1/2+z
1/2-x,y,1/2+z
1/2+x,-y,1/2+z
1/2+x,1/2+y,z
1/2-x,1/2-y,z
1/2-x,1/2+y,z
1/2+x,1/2-y,z
loop_
_atom_site_type_symbol
_atom_site_label
_atom_site_fract_x
_atom_site_fract_y
_atom_site_fract_z
Si Si1 0.000000 0.175252 0.546540
Si Si2 0.665267 0.323768 0.452758
Si Si3 0.000000 0.177536 0.200694
Si Si4 0.905380 0.168118 0.817948
O O1 0.083955 0.218316 0.501267
O O2 0.000000 0.276402 0.617502
O O3 0.000000 0.000000 0.567692
O O4 0.677781 0.500000 0.446603
O O5 0.750000 0.250000 0.488190
O O6 0.656039 0.258037 0.371665
O O7 0.914926 0.245029 0.240467
O O8 0.000000 0.000000 0.208731
O O9 0.000000 0.160290 0.854001
O O10 0.869131 0.000000 0.804784
#
# Coordination Sequence:
#
# PCOD8186058 Si02
#       4
#     8  16   8  16
#     4  10  21  38  57  79 115 155 187 230 283 340
#     4  11  22  37  59  86 116 149 190 235 282 336
#     4  10  19  32  57  85 111 147 189 234 287 338
#     4   9  18  34  57  82 110 144 186 230 276 330
#
# _framework density 18.732531000000002
#
# number of rings (size 3 to 8) (size 9 to 14) (size 15 to 20)
#    1.000    1.000    1.667    3.000    0.000    2.667 
#    0.000    1.667    0.000    4.000    0.000    0.000 
#    0.000    0.000    0.000    0.000    0.000    0.000 
#
# Total GULP energy -148730.717758 kJ/mol
# GULP energy per Si atom -12394.226480 kJ/mol
# Density = 1.868990 g / cm^3
# Si number density = 18.732531 Si / 1000 Ang^3
#
#
#
# Elastic Constant Matrix: (Units=GPa)
#
#
# Indices 1 2 3 4 5 6 
#
# 1 110.3899 54.7849 45.1967 0.0000 0.0000 0.0000
# 2 54.7849 150.0789 76.0489 0.0000 0.0000 0.0000
# 3 45.1967 76.0489 110.6834 0.0000 0.0000 0.0000
# 4 0.0000 0.0000 0.0000 36.3430 0.0000 0.0000
# 5 0.0000 0.0000 0.0000 0.0000 7.2814 0.0000
# 6 0.0000 0.0000 0.0000 0.0000 0.0000 28.2782
#
#
#
# Elastic Compliance Matrix: (Units=1/GPa)
#
#
# Indices 1 2 3 4 5 6 
#
# 1 0.011604 -0.002815 -0.002804 0.000000 0.000000 0.000000
# 2 -0.002815 0.010905 -0.006343 0.000000 0.000000 0.000000
# 3 -0.002804 -0.006343 0.014538 0.000000 0.000000 0.000000
# 4 0.000000 0.000000 0.000000 0.027516 0.000000 0.000000
# 5 0.000000 0.000000 0.000000 0.000000 0.137336 0.000000
# 6 0.000000 0.000000 0.000000 0.000000 0.000000 0.035363
#
#
# Mechanical properties :
#
#
# Convention : Reuss Voigt Hill
#
# Bulk Modulus (GPa) = 76.20601 80.35703 78.28152
# Shear Modulus (GPa) = 18.82807 27.38862 23.10835
#
# Velocity S-wave (km/s) = 3.17377 3.82788 3.51607
# Velocity P-wave (km/s) = 7.36205 7.90740 7.63960
#
# Compressibility (1/GPa) = 0.01312232
#
# Stress axis : x y z
#
# Youngs Moduli (GPa) = 86.17748 91.70120 68.78418
#
# Poissons Ratio (x) = 0.25813 0.19289
# Poissons Ratio (y) = 0.24258 0.43631
# Poissons Ratio (z) = 0.24167 0.58168
#
# Static dielectric constant tensor:
#      x y z
#    x 3.331740 0.000000 0.000000 
#    y 0.000000 3.446980 0.000000 
#    z 0.000000 0.000000 3.167960 
# 
# 
# High freq. dielectric constant tensor:
#      x y z
#    x 1.707610 0.000000 0.000000 
#    y 0.000000 1.742320 0.000000 
#    z 0.000000 0.000000 1.707960 
# 
# From -- ./inp_files/17643.got.cif
#   From: 2010.03.12/outbox.cif.g09.slc.cpg/sg42_9_cif.got.tgz:17643.got - 2010.04.14 02:04:31.
