data_PCOD8186851
_publ_section_title
;
Structure prediction by ZEFSAII (Michael W. Deem and Ramdas Pophale) SiO2 
 PCOD8186851
Probable space group: F M M 2
;
_chemical_formula_sum "Si O2"
_cell_formula_units_Z 80
_cell_length_a 8.802435
_cell_length_b 25.763915
_cell_length_c 17.982554
_cell_angle_alpha 90.000000
_cell_angle_beta 90.000000
_cell_angle_gamma 90.000000
_cell_volume 4078.176874
_symmetry_space_group_name_H-M "F M M 2"
_symmetry_group_IT_number 42
_symmetry_cell_setting 'orthorhombic'
loop_
_space_group_symop_operation_xyz
x,y,z
-x,-y,z
-x,y,z
x,-y,z
x,1/2+y,1/2+z
-x,1/2-y,1/2+z
-x,1/2+y,1/2+z
x,1/2-y,1/2+z
1/2+x,y,1/2+z
1/2-x,-y,1/2+z
1/2-x,y,1/2+z
1/2+x,-y,1/2+z
1/2+x,1/2+y,z
1/2-x,1/2-y,z
1/2-x,1/2+y,z
1/2+x,1/2-y,z
loop_
_atom_site_type_symbol
_atom_site_label
_atom_site_fract_x
_atom_site_fract_y
_atom_site_fract_z
Si Si1 0.826608 0.000000 0.542640
Si Si2 0.320839 0.803046 0.714976
Si Si3 0.319617 0.095090 0.800001
Si Si4 0.319617 0.904910 0.461154
Si Si5 0.320839 0.196954 0.546179
Si Si6 0.173392 0.500000 0.218514
O O1 0.740529 0.050552 0.514512
O O2 0.819619 0.000000 0.630577
O O3 0.000000 0.000000 0.513665
O O4 0.500000 0.797710 0.717623
O O5 0.250000 0.750000 0.746812
O O6 0.264471 0.850106 0.766393
O O7 0.264356 0.813000 0.630577
O O8 0.500000 0.091577 0.804491
O O9 0.250000 0.087432 0.880577
O O10 0.259471 0.050552 0.746642
O O11 0.500000 0.908423 0.456664
O O12 0.264471 0.850106 0.494761
O O13 0.500000 0.202290 0.543531
O O14 0.250000 0.250000 0.514343
O O15 0.000000 0.500000 0.247490
#
# Coordination Sequence:
#
# PCOD8186851 Si02
#       6
#     8  16  16  16  16   8
#     4  11  24  41  62  87 113 145 188 235 284 339
#     4   9  19  36  58  83 111 147 190 234 281 333
#     4  11  23  39  59  84 117 153 190 233 283 338
#     4  11  23  39  59  84 117 153 190 233 283 338
#     4   9  19  36  58  83 111 147 190 234 281 333
#     4  11  24  41  62  87 113 145 188 235 284 339
#
# _framework density 19.616609
#
# number of rings (size 3 to 8) (size 9 to 14) (size 15 to 20)
#    0.000    1.800    0.000    3.600    0.000    7.200 
#    0.000    8.000    0.000    0.000    0.000    0.000 
#    0.000    0.000    0.000    0.000    0.000    0.000 
#
# Total GULP energy -248087.949046 kJ/mol
# GULP energy per Si atom -12404.397452 kJ/mol
# Density = 1.957196 g / cm^3
# Si number density = 19.616609 Si / 1000 Ang^3
#
#
#
# Elastic Constant Matrix: (Units=GPa)
#
#
# Indices 1 2 3 4 5 6 
#
# 1 71.1711 51.8932 31.7599 0.0000 0.0000 0.0000
# 2 51.8932 159.6989 48.5674 0.0000 0.0000 0.0000
# 3 31.7599 48.5674 80.8279 0.0000 0.0000 0.0000
# 4 0.0000 0.0000 0.0000 -2.1881 0.0000 0.0000
# 5 0.0000 0.0000 0.0000 0.0000 26.2029 0.0000
# 6 0.0000 0.0000 0.0000 0.0000 0.0000 37.2517
#
#
#
# Elastic Compliance Matrix: (Units=1/GPa)
#
#
# Indices 1 2 3 4 5 6 
#
# 1 0.019824 -0.004983 -0.004795 0.000000 0.000000 0.000000
# 2 -0.004983 0.008915 -0.003398 0.000000 0.000000 0.000000
# 3 -0.004795 -0.003398 0.016298 0.000000 0.000000 0.000000
# 4 0.000000 0.000000 0.000000 -0.457011 0.000000 0.000000
# 5 0.000000 0.000000 0.000000 0.000000 0.038164 0.000000
# 6 0.000000 0.000000 0.000000 0.000000 0.000000 0.026844
#
#
# Mechanical properties :
#
#
# Convention : Reuss Voigt Hill
#
# Bulk Modulus (GPa) = 53.52482 64.01544 58.77013
# Shear Modulus (GPa) = -15.90408 24.21846 4.15719
#
# Velocity S-wave (km/s) = -2.85045 3.51748 1.45733
# Velocity P-wave (km/s) = 4.06341 7.01435 5.73203
#
# Compressibility (1/GPa) = 0.01868292
#
# Stress axis : x y z
#
# Youngs Moduli (GPa) = 50.44389 112.17496 61.35674
#
# Poissons Ratio (x) = 0.55902 0.29421
# Poissons Ratio (y) = 0.25138 0.20852
# Poissons Ratio (z) = 0.24188 0.38122
#
# Static dielectric constant tensor:
#      x y z
#    x 3.644880 0.000000 0.000000 
#    y 0.000000 3.858130 0.000000 
#    z 0.000000 0.000000 3.621420 
# 
# 
# High freq. dielectric constant tensor:
#      x y z
#    x 1.767770 0.000000 0.000000 
#    y 0.000000 1.782020 0.000000 
#    z 0.000000 0.000000 1.767180 
# 
# From -- ./inp_files/3534.got.cif
#   From: 2010.03.12/outbox.cif.g09.slc.cpg/sg42_2_cif.got.tgz:3534.got - 2010.04.14 02:04:31.
