data_PCOD8186254
_publ_section_title
;
Structure prediction by ZEFSAII (Michael W. Deem and Ramdas Pophale) SiO2 
 PCOD8186254
Probable space group: F M M 2
;
_chemical_formula_sum "Si O2"
_cell_formula_units_Z 112
_cell_length_a 14.088557
_cell_length_b 13.657310
_cell_length_c 28.800623
_cell_angle_alpha 90.000000
_cell_angle_beta 90.000000
_cell_angle_gamma 90.000000
_cell_volume 5541.579436
_symmetry_space_group_name_H-M "F M M 2"
_symmetry_group_IT_number 42
_symmetry_cell_setting 'orthorhombic'
loop_
_space_group_symop_operation_xyz
x,y,z
-x,-y,z
-x,y,z
x,-y,z
x,1/2+y,1/2+z
-x,1/2-y,1/2+z
-x,1/2+y,1/2+z
x,1/2-y,1/2+z
1/2+x,y,1/2+z
1/2-x,-y,1/2+z
1/2-x,y,1/2+z
1/2+x,-y,1/2+z
1/2+x,1/2+y,z
1/2-x,1/2-y,z
1/2-x,1/2+y,z
1/2+x,1/2-y,z
loop_
_atom_site_type_symbol
_atom_site_label
_atom_site_fract_x
_atom_site_fract_y
_atom_site_fract_z
Si Si1 0.393613 0.115550 0.329740
Si Si2 0.606005 0.107000 0.054151
Si Si3 0.801632 0.884532 0.736347
Si Si4 0.886921 0.287778 0.962877
Si Si5 0.852903 0.220217 0.644645
Si Si6 0.398215 0.389065 0.202745
Si Si7 0.713467 0.614556 0.922725
O O1 0.500000 0.158568 0.337886
O O2 0.349651 0.160346 0.282364
O O3 0.323527 0.142789 0.371552
O O4 0.400821 0.000000 0.324861
O O5 0.500000 0.085584 0.038231
O O6 0.599977 0.160791 0.103394
O O7 0.658401 0.000000 0.057420
O O8 0.647890 0.175782 0.013727
O O9 0.854758 0.846110 0.690821
O O10 0.689807 0.852265 0.734632
O O11 0.810898 0.000000 0.737029
O O12 0.824148 0.352484 0.926485
O O13 0.853862 0.174652 0.958511
O O14 0.000000 0.298553 0.953282
O O15 0.750000 0.250000 0.626954
O O16 0.906760 0.321261 0.656861
O O17 0.500000 0.383548 0.229532
O O18 0.378260 0.500000 0.185983
O O19 0.702465 0.500000 0.933741
#
# Coordination Sequence:
#
# PCOD8186254 Si02
#       7
#    16  16  16  16  16  16  16
#     4   9  18  34  58  87 117 149 190 244 298 347
#     4  10  21  37  58  83 114 150 189 239 297 355
#     4   9  18  34  55  83 115 148 187 233 289 348
#     4  10  22  40  60  88 122 157 199 251 311 366
#     4  10  20  33  54  83 114 147 194 236 284 343
#     4   9  18  34  52  72 110 160 199 234 278 331
#     4  10  21  39  64  89 116 157 205 251 305 366
#
# _framework density 20.210844000000002
#
# number of rings (size 3 to 8) (size 9 to 14) (size 15 to 20)
#    0.000    2.429    0.000    1.714    2.000    3.429 
#    7.714    2.857    0.000    3.429    0.000    0.000 
#    0.000    0.000    0.000    0.000    0.000    0.000 
#
# Total GULP energy -346895.388565 kJ/mol
# GULP energy per Si atom -12389.121020 kJ/mol
# Density = 2.016484 g / cm^3
# Si number density = 20.210844 Si / 1000 Ang^3
#
#
#
# Elastic Constant Matrix: (Units=GPa)
#
#
# Indices 1 2 3 4 5 6 
#
# 1 133.2721 38.2648 57.2112 0.0000 0.0000 0.0000
# 2 38.2648 89.5716 52.4381 0.0000 0.0000 0.0000
# 3 57.2112 52.4381 135.1790 0.0000 0.0000 0.0000
# 4 0.0000 0.0000 0.0000 27.5038 0.0000 0.0000
# 5 0.0000 0.0000 0.0000 0.0000 19.5198 0.0000
# 6 0.0000 0.0000 0.0000 0.0000 0.0000 22.4901
#
#
#
# Elastic Compliance Matrix: (Units=1/GPa)
#
#
# Indices 1 2 3 4 5 6 
#
# 1 0.009494 -0.002204 -0.003163 0.000000 0.000000 0.000000
# 2 -0.002204 0.014956 -0.004869 0.000000 0.000000 0.000000
# 3 -0.003163 -0.004869 0.010625 0.000000 0.000000 0.000000
# 4 0.000000 0.000000 0.000000 0.036359 0.000000 0.000000
# 5 0.000000 0.000000 0.000000 0.000000 0.051230 0.000000
# 6 0.000000 0.000000 0.000000 0.000000 0.000000 0.044464
#
#
# Mechanical properties :
#
#
# Convention : Reuss Voigt Hill
#
# Bulk Modulus (GPa) = 68.47856 72.65011 70.56434
# Shear Modulus (GPa) = 25.97830 27.90997 26.94414
#
# Velocity S-wave (km/s) = 3.58909 3.72013 3.65520
# Velocity P-wave (km/s) = 7.15060 7.38083 7.26663
#
# Compressibility (1/GPa) = 0.01460311
#
# Stress axis : x y z
#
# Youngs Moduli (GPa) = 105.32779 66.86163 94.11689
#
# Poissons Ratio (x) = 0.14737 0.29771
# Poissons Ratio (y) = 0.23215 0.45825
# Poissons Ratio (z) = 0.33317 0.32555
#
# Static dielectric constant tensor:
#      x y z
#    x 3.844130 0.000000 0.000000 
#    y 0.000000 3.857120 0.000000 
#    z 0.000000 0.000000 3.537240 
# 
# 
# High freq. dielectric constant tensor:
#      x y z
#    x 1.792190 0.000000 0.000000 
#    y 0.000000 1.796000 0.000000 
#    z 0.000000 0.000000 1.765290 
# 
# From -- ./inp_files/29531.got.cif
#   From: 2010.03.12/outbox.cif.g09.slc.cpg/sg42_15_cif.got.tgz:29531.got - 2010.04.14 02:04:31.
