data_PCOD8186041
_publ_section_title
;
Structure prediction by ZEFSAII (Michael W. Deem and Ramdas Pophale) SiO2 
 PCOD8186041
Probable space group: F M M 2
;
_chemical_formula_sum "Si O2"
_cell_formula_units_Z 80
_cell_length_a 9.021254
_cell_length_b 25.845657
_cell_length_c 18.905256
_cell_angle_alpha 90.000000
_cell_angle_beta 90.000000
_cell_angle_gamma 90.000000
_cell_volume 4407.953962
_symmetry_space_group_name_H-M "F M M 2"
_symmetry_group_IT_number 42
_symmetry_cell_setting 'orthorhombic'
loop_
_space_group_symop_operation_xyz
x,y,z
-x,-y,z
-x,y,z
x,-y,z
x,1/2+y,1/2+z
-x,1/2-y,1/2+z
-x,1/2+y,1/2+z
x,1/2-y,1/2+z
1/2+x,y,1/2+z
1/2-x,-y,1/2+z
1/2-x,y,1/2+z
1/2+x,-y,1/2+z
1/2+x,1/2+y,z
1/2-x,1/2-y,z
1/2-x,1/2+y,z
1/2+x,1/2-y,z
loop_
_atom_site_type_symbol
_atom_site_label
_atom_site_fract_x
_atom_site_fract_y
_atom_site_fract_z
Si Si1 0.827406 0.302081 0.247070
Si Si2 0.172083 0.398213 0.157373
Si Si3 0.668416 0.000000 0.490874
Si Si4 0.325593 0.696797 0.910668
Si Si5 0.165855 0.500000 0.659035
Si Si6 0.326277 0.603886 0.491992
O O1 0.750000 0.250000 0.220458
O O2 0.765100 0.349239 0.200335
O O3 0.791075 0.313517 0.328584
O O4 0.000000 0.294445 0.233844
O O5 0.253282 0.448879 0.187432
O O6 0.000000 0.406627 0.172651
O O7 0.203555 0.389318 0.075024
O O8 0.754451 0.949307 0.463285
O O9 0.500000 0.000000 0.461668
O O10 0.669662 0.000000 0.574900
O O11 0.500000 0.699821 0.926131
O O12 0.250000 0.750000 0.935671
O O13 0.253651 0.650864 0.954147
O O14 0.000000 0.500000 0.688838
O O15 0.500000 0.603477 0.474235
#
# Coordination Sequence:
#
# PCOD8186041 Si02
#       6
#    16  16   8  16   8  16
#     4   9  19  35  53  72  96 130 167 202 244 291
#     4   9  18  33  52  74 100 130 163 200 244 292
#     4   9  17  31  50  73 102 133 165 201 244 293
#     4  10  20  35  53  72  98 132 168 205 247 295
#     4   9  17  29  48  75 102 129 161 199 244 289
#     4  10  19  32  52  77 103 130 163 204 248 294
#
# _framework density 18.149009
#
# number of rings (size 3 to 8) (size 9 to 14) (size 15 to 20)
#    0.000    2.600    0.000    1.800    0.000    5.600 
#    0.000    3.000    0.000    2.400    0.000    0.000 
#    0.000    0.000    0.000    0.000    0.000    0.000 
#
# Total GULP energy -248033.252969 kJ/mol
# GULP energy per Si atom -12401.662648 kJ/mol
# Density = 1.810770 g / cm^3
# Si number density = 18.149009 Si / 1000 Ang^3
#
#
#
# Elastic Constant Matrix: (Units=GPa)
#
#
# Indices 1 2 3 4 5 6 
#
# 1 109.9390 93.6090 41.9327 0.0000 0.0000 0.0000
# 2 93.6090 212.7172 65.5785 0.0000 0.0000 0.0000
# 3 41.9327 65.5785 43.0925 0.0000 0.0000 0.0000
# 4 0.0000 0.0000 0.0000 -25.0645 0.0000 0.0000
# 5 0.0000 0.0000 0.0000 0.0000 20.6380 0.0000
# 6 0.0000 0.0000 0.0000 0.0000 0.0000 42.8717
#
#
#
# Elastic Compliance Matrix: (Units=1/GPa)
#
#
# Indices 1 2 3 4 5 6 
#
# 1 0.016320 -0.004306 -0.009328 0.000000 0.000000 0.000000
# 2 -0.004306 0.009992 -0.011016 0.000000 0.000000 0.000000
# 3 -0.009328 -0.011016 0.049046 0.000000 0.000000 0.000000
# 4 0.000000 0.000000 0.000000 -0.039897 0.000000 0.000000
# 5 0.000000 0.000000 0.000000 0.000000 0.048454 0.000000
# 6 0.000000 0.000000 0.000000 0.000000 0.000000 0.023325
#
#
# Mechanical properties :
#
#
# Convention : Reuss Voigt Hill
#
# Bulk Modulus (GPa) = 38.37394 85.33212 61.85303
# Shear Modulus (GPa) = 30.26134 18.66429 24.46282
#
# Velocity S-wave (km/s) = 4.08779 3.21033 3.67534
# Velocity P-wave (km/s) = 6.59316 7.80136 7.22257
#
# Compressibility (1/GPa) = 0.02605935
#
# Stress axis : x y z
#
# Youngs Moduli (GPa) = 61.27288 100.07829 20.38893
#
# Poissons Ratio (x) = 0.43098 0.19018
# Poissons Ratio (y) = 0.26387 0.22460
# Poissons Ratio (z) = 0.57153 1.10243
#
# Static dielectric constant tensor:
#      x y z
#    x 3.457820 0.000000 0.000000 
#    y 0.000000 3.670220 0.000000 
#    z 0.000000 0.000000 3.138100 
# 
# 
# High freq. dielectric constant tensor:
#      x y z
#    x 1.711700 0.000000 0.000000 
#    y 0.000000 1.719490 0.000000 
#    z 0.000000 0.000000 1.672420 
# 
# From -- ./inp_files/18219.got.cif
#   From: 2010.03.12/outbox.cif.g09.slc.cpg/sg42_10_cif.got.tgz:18219.got - 2010.04.14 02:04:31.
