data_PCOD8186597
_publ_section_title
;
Structure prediction by ZEFSAII (Michael W. Deem and Ramdas Pophale) SiO2 
 PCOD8186597
Probable space group: F M M 2
;
_chemical_formula_sum "Si O2"
_cell_formula_units_Z 80
_cell_length_a 25.414042
_cell_length_b 17.689110
_cell_length_c 9.068377
_cell_angle_alpha 90.000000
_cell_angle_beta 90.000000
_cell_angle_gamma 90.000000
_cell_volume 4076.705063
_symmetry_space_group_name_H-M "F M M 2"
_symmetry_group_IT_number 42
_symmetry_cell_setting 'orthorhombic'
loop_
_space_group_symop_operation_xyz
x,y,z
-x,-y,z
-x,y,z
x,-y,z
x,1/2+y,1/2+z
-x,1/2-y,1/2+z
-x,1/2+y,1/2+z
x,1/2-y,1/2+z
1/2+x,y,1/2+z
1/2-x,-y,1/2+z
1/2-x,y,1/2+z
1/2+x,-y,1/2+z
1/2+x,1/2+y,z
1/2-x,1/2-y,z
1/2-x,1/2+y,z
1/2+x,1/2-y,z
loop_
_atom_site_type_symbol
_atom_site_label
_atom_site_fract_x
_atom_site_fract_y
_atom_site_fract_z
Si Si1 0.648882 0.665993 0.539390
Si Si2 0.225618 0.586103 0.221253
Si Si3 0.060483 0.412174 0.197844
Si Si4 0.170861 0.315801 0.707573
Si Si5 0.863334 0.414646 0.456420
O O1 0.688848 0.596875 0.575659
O O2 0.589654 0.641001 0.579581
O O3 0.646611 0.689416 0.369967
O O4 0.672640 0.732182 0.641894
O O5 0.247059 0.500000 0.218124
O O6 0.272215 0.646222 0.218459
O O7 0.190483 0.601356 0.366596
O O8 0.067432 0.500000 0.153581
O O9 0.085827 0.396952 0.357542
O O10 0.000000 0.387835 0.203274
O O11 0.132970 0.363905 0.601699
O O12 0.864159 0.500000 0.512059
#
# Coordination Sequence:
#
# PCOD8186597 Si02
#       5
#    16  16  16  16  16
#     4  11  23  37  55  83 115 150 190 230 276 329
#     4  10  21  37  57  82 115 153 188 226 276 332
#     4   9  19  40  66  86 109 142 180 228 284 336
#     4  12  23  36  54  81 117 154 188 228 275 327
#     4   9  19  36  59  87 114 145 188 231 275 331
#
# _framework density 19.62369
#
# number of rings (size 3 to 8) (size 9 to 14) (size 15 to 20)
#    0.000    1.800    0.000    6.600    0.000    6.400 
#    0.000    5.000    0.000    2.400    0.000    0.000 
#    0.000    0.000    0.000    0.000    0.000    0.000 
#
# Total GULP energy -248002.069519 kJ/mol
# GULP energy per Si atom -12400.103476 kJ/mol
# Density = 1.957903 g / cm^3
# Si number density = 19.623690 Si / 1000 Ang^3
#
#
#
# Elastic Constant Matrix: (Units=GPa)
#
#
# Indices 1 2 3 4 5 6 
#
# 1 142.9509 57.5862 43.2231 0.0000 0.0000 0.0000
# 2 57.5862 93.2079 50.5719 -0.0001 0.0000 0.0000
# 3 43.2231 50.5719 137.5533 -0.0002 0.0000 0.0000
# 4 0.0000 -0.0001 -0.0002 34.7242 0.0000 0.0000
# 5 0.0000 0.0000 0.0000 0.0000 14.1608 0.0000
# 6 0.0000 0.0000 0.0000 0.0000 0.0000 14.9695
#
#
#
# Elastic Compliance Matrix: (Units=1/GPa)
#
#
# Indices 1 2 3 4 5 6 
#
# 1 0.009428 -0.005268 -0.001026 0.000000 0.000000 0.000000
# 2 -0.005268 0.016346 -0.004354 0.000000 0.000000 0.000000
# 3 -0.001026 -0.004354 0.009193 0.000000 0.000000 0.000000
# 4 0.000000 0.000000 0.000000 0.028798 0.000000 0.000000
# 5 0.000000 0.000000 0.000000 0.000000 0.070618 0.000000
# 6 0.000000 0.000000 0.000000 0.000000 0.000000 0.066803
#
#
# Mechanical properties :
#
#
# Convention : Reuss Voigt Hill
#
# Bulk Modulus (GPa) = 73.14924 75.16384 74.15654
# Shear Modulus (GPa) = 22.02270 27.59295 24.80782
#
# Velocity S-wave (km/s) = 3.35364 3.75387 3.55938
# Velocity P-wave (km/s) = 7.23552 7.56138 7.40024
#
# Compressibility (1/GPa) = 0.01367068
#
# Stress axis : x y z
#
# Youngs Moduli (GPa) = 106.06971 61.17687 108.77813
#
# Poissons Ratio (x) = 0.32230 0.11156
# Poissons Ratio (y) = 0.55880 0.47365
# Poissons Ratio (z) = 0.10878 0.26638
#
# Static dielectric constant tensor:
#      x y z
#    x 3.411920 0.000000 0.000000 
#    y 0.000000 3.735230 0.000000 
#    z 0.000000 0.000000 3.552240 
# 
# 
# High freq. dielectric constant tensor:
#      x y z
#    x 1.741510 0.000000 0.000000 
#    y 0.000000 1.776560 0.000000 
#    z 0.000000 0.000000 1.759340 
# 
# From -- ./inp_files/3459.got.cif
#   From: 2010.03.12/outbox.cif.g09.slc.cpg/sg42_2_cif.got.tgz:3459.got - 2010.04.14 02:04:31.
