data_PCOD8186276
_publ_section_title
;
Structure prediction by ZEFSAII (Michael W. Deem and Ramdas Pophale) SiO2 
 PCOD8186276
Probable space group: F M M 2
;
_chemical_formula_sum "Si O2"
_cell_formula_units_Z 80
_cell_length_a 18.292991
_cell_length_b 8.983563
_cell_length_c 25.981959
_cell_angle_alpha 90.000000
_cell_angle_beta 90.000000
_cell_angle_gamma 90.000000
_cell_volume 4269.777375
_symmetry_space_group_name_H-M "F M M 2"
_symmetry_group_IT_number 42
_symmetry_cell_setting 'orthorhombic'
loop_
_space_group_symop_operation_xyz
x,y,z
-x,-y,z
-x,y,z
x,-y,z
x,1/2+y,1/2+z
-x,1/2-y,1/2+z
-x,1/2+y,1/2+z
x,1/2-y,1/2+z
1/2+x,y,1/2+z
1/2-x,-y,1/2+z
1/2-x,y,1/2+z
1/2+x,-y,1/2+z
1/2+x,1/2+y,z
1/2-x,1/2-y,z
1/2-x,1/2+y,z
1/2+x,1/2-y,z
loop_
_atom_site_type_symbol
_atom_site_label
_atom_site_fract_x
_atom_site_fract_y
_atom_site_fract_z
Si Si1 0.413368 0.669971 0.378880
Si Si2 0.087027 0.666481 0.277079
Si Si3 0.671941 0.676762 0.968514
Si Si4 0.081441 0.322815 0.565415
Si Si5 0.087061 0.334175 0.678115
O O1 0.500000 0.682312 0.383231
O O2 0.386807 0.500000 0.384948
O O3 0.385722 0.730292 0.323788
O O4 0.379933 0.773348 0.422511
O O5 0.117555 0.500000 0.284842
O O6 0.118674 0.730019 0.223306
O O7 0.000000 0.665620 0.275170
O O8 0.679396 0.500000 0.967666
O O9 0.750000 0.750000 0.961548
O O10 0.636737 0.735223 0.021897
O O11 0.077345 0.500000 0.565308
O O12 0.109803 0.269954 0.621829
O O13 0.000000 0.258936 0.554218
O O14 0.118879 0.500000 0.686291
O O15 0.000000 0.340868 0.680521
#
# Coordination Sequence:
#
# PCOD8186276 Si02
#       5
#    16  16  16  16  16
#     4  10  20  34  53  77 103 132 169 212 256 302
#     4   9  16  26  43  71 104 133 161 198 248 301
#     4  11  22  36  53  73 101 136 173 212 256 304
#     4   8  15  29  51  76  99 128 167 207 248 297
#     4   8  13  24  44  70  98 126 159 201 247 295
#
# _framework density 18.736339999999998
#
# number of rings (size 3 to 8) (size 9 to 14) (size 15 to 20)
#    0.000    2.800    0.000    3.600    0.000    4.400 
#    0.000    2.000    0.000    6.000    0.000    5.600 
#    0.000    0.000    0.000    0.000    0.000    0.000 
#
# Total GULP energy -247927.803103 kJ/mol
# GULP energy per Si atom -12396.390155 kJ/mol
# Density = 1.869369 g / cm^3
# Si number density = 18.736340 Si / 1000 Ang^3
#
#
#
# Elastic Constant Matrix: (Units=GPa)
#
#
# Indices 1 2 3 4 5 6 
#
# 1 25.9938 23.1548 29.3224 0.0000 0.0000 0.0000
# 2 23.1548 87.4428 49.8463 0.0000 0.0000 0.0000
# 3 29.3224 49.8463 159.0075 0.0000 0.0000 0.0000
# 4 0.0000 0.0000 0.0000 31.2108 0.0000 0.0000
# 5 0.0000 0.0000 0.0000 0.0000 0.4520 0.0000
# 6 0.0000 0.0000 0.0000 0.0000 0.0000 16.4261
#
#
#
# Elastic Compliance Matrix: (Units=1/GPa)
#
#
# Indices 1 2 3 4 5 6 
#
# 1 0.055954 -0.010879 -0.006908 0.000000 0.000000 0.000000
# 2 -0.010879 0.016039 -0.003022 0.000000 0.000000 0.000000
# 3 -0.006908 -0.003022 0.008510 0.000000 0.000000 0.000000
# 4 0.000000 0.000000 0.000000 0.032040 0.000000 0.000000
# 5 0.000000 0.000000 0.000000 0.000000 2.212490 0.000000
# 6 0.000000 0.000000 0.000000 0.000000 0.000000 0.060879
#
#
# Mechanical properties :
#
#
# Convention : Reuss Voigt Hill
#
# Bulk Modulus (GPa) = 25.71616 53.01011 39.36314
# Shear Modulus (GPa) = 2.04877 20.95917 11.50397
#
# Velocity S-wave (km/s) = 1.04683 3.34823 2.48057
# Velocity P-wave (km/s) = 3.90080 6.58040 5.40915
#
# Compressibility (1/GPa) = 0.03888606
#
# Stress axis : x y z
#
# Youngs Moduli (GPa) = 17.87190 62.34664 117.50518
#
# Poissons Ratio (x) = 0.67824 0.81174
# Poissons Ratio (y) = 0.19442 0.35510
# Poissons Ratio (z) = 0.12346 0.18841
#
# Static dielectric constant tensor:
#      x y z
#    x 2.976200 0.000000 0.000000 
#    y 0.000000 3.411830 0.000000 
#    z 0.000000 0.000000 3.875150 
# 
# 
# High freq. dielectric constant tensor:
#      x y z
#    x 1.672170 0.000000 0.000000 
#    y 0.000000 1.716070 0.000000 
#    z 0.000000 0.000000 1.749420 
# 
# From -- ./inp_files/31252.got.cif
#   From: 2010.03.12/outbox.cif.g09.slc.cpg/sg42_16_cif.got.tgz:31252.got - 2010.04.14 02:04:31.
