data_PCOD8186287
_publ_section_title
;
Structure prediction by ZEFSAII (Michael W. Deem and Ramdas Pophale) SiO2 
 PCOD8186287
Probable space group: F M M 2
;
_chemical_formula_sum "Si O2"
_cell_formula_units_Z 96
_cell_length_a 19.320011
_cell_length_b 8.800886
_cell_length_c 30.656246
_cell_angle_alpha 90.000000
_cell_angle_beta 90.000000
_cell_angle_gamma 90.000000
_cell_volume 5212.580047
_symmetry_space_group_name_H-M "F M M 2"
_symmetry_group_IT_number 42
_symmetry_cell_setting 'orthorhombic'
loop_
_space_group_symop_operation_xyz
x,y,z
-x,-y,z
-x,y,z
x,-y,z
x,1/2+y,1/2+z
-x,1/2-y,1/2+z
-x,1/2+y,1/2+z
x,1/2-y,1/2+z
1/2+x,y,1/2+z
1/2-x,-y,1/2+z
1/2-x,y,1/2+z
1/2+x,-y,1/2+z
1/2+x,1/2+y,z
1/2-x,1/2-y,z
1/2-x,1/2+y,z
1/2+x,1/2-y,z
loop_
_atom_site_type_symbol
_atom_site_label
_atom_site_fract_x
_atom_site_fract_y
_atom_site_fract_z
Si Si1 0.581480 0.174458 0.430670
Si Si2 0.082257 0.668506 0.602794
Si Si3 0.822972 0.820280 0.360911
Si Si4 0.419083 0.823511 0.699813
Si Si5 0.822547 0.179256 0.768968
Si Si6 0.917752 0.168557 0.518180
O O1 0.500000 0.200685 0.425169
O O2 0.618636 0.280483 0.395765
O O3 0.606338 0.222445 0.478985
O O4 0.602160 0.000000 0.423140
O O5 0.112204 0.500000 0.595468
O O6 0.103437 0.727257 0.650900
O O7 0.112982 0.773845 0.564421
O O8 0.000000 0.662495 0.600059
O O9 0.750000 0.750000 0.376037
O O10 0.846198 0.751532 0.314677
O O11 0.815403 0.000000 0.356579
O O12 0.500000 0.796570 0.707061
O O13 0.379727 0.715634 0.733105
O O14 0.400305 0.000000 0.707549
O O15 0.750000 0.250000 0.753598
O O16 0.814544 0.000000 0.774775
O O17 0.000000 0.167009 0.520953
O O18 0.888729 0.000000 0.509495
#
# Coordination Sequence:
#
# PCOD8186287 Si02
#       6
#    16  16  16  16  16  16
#     4  10  20  34  53  78 107 137 172 213 255 299
#     4   8  14  26  45  69  99 135 170 204 247 300
#     4  11  22  38  58  77 101 133 171 211 255 309
#     4   9  18  33  53  78 107 137 171 212 257 302
#     4  11  22  37  56  76 101 134 173 212 254 307
#     4   9  16  26  43  70 103 136 170 208 251 299
#
# _framework density 18.416982999999998
#
# number of rings (size 3 to 8) (size 9 to 14) (size 15 to 20)
#    0.000    2.333    0.000    6.000    0.000    4.667 
#    0.000    1.667    0.000    1.000    0.000    2.333 
#    0.000    0.000    0.000    0.000    0.000    0.000 
#
# Total GULP energy -297573.412079 kJ/mol
# GULP energy per Si atom -12398.892170 kJ/mol
# Density = 1.837507 g / cm^3
# Si number density = 18.416983 Si / 1000 Ang^3
#
#
#
# Elastic Constant Matrix: (Units=GPa)
#
#
# Indices 1 2 3 4 5 6 
#
# 1 39.9738 35.3580 46.8543 0.0000 0.0000 0.0000
# 2 35.3580 137.4675 61.6413 0.0000 0.0000 0.0000
# 3 46.8543 61.6413 129.5624 0.0000 0.0000 0.0000
# 4 0.0000 0.0000 0.0000 35.3204 0.0000 0.0000
# 5 0.0000 0.0000 0.0000 0.0000 -7.0155 0.0000
# 6 0.0000 0.0000 0.0000 0.0000 0.0000 23.4188
#
#
#
# Elastic Compliance Matrix: (Units=1/GPa)
#
#
# Indices 1 2 3 4 5 6 
#
# 1 0.046618 -0.005633 -0.014179 0.000000 0.000000 0.000000
# 2 -0.005633 0.009928 -0.002686 0.000000 0.000000 0.000000
# 3 -0.014179 -0.002686 0.014124 0.000000 0.000000 0.000000
# 4 0.000000 0.000000 0.000000 0.028312 0.000000 0.000000
# 5 0.000000 0.000000 0.000000 0.000000 -0.142541 0.000000
# 6 0.000000 0.000000 0.000000 0.000000 0.000000 0.042701
#
#
# Mechanical properties :
#
#
# Convention : Reuss Voigt Hill
#
# Bulk Modulus (GPa) = 38.94992 66.07900 52.51446
# Shear Modulus (GPa) = 94.88416 21.22142 58.05279
#
# Velocity S-wave (km/s) = 7.18553 3.39820 5.62048
# Velocity P-wave (km/s) = 9.48879 7.16619 8.40808
#
# Compressibility (1/GPa) = 0.02567399
#
# Stress axis : x y z
#
# Youngs Moduli (GPa) = 21.45084 100.72724 70.80179
#
# Poissons Ratio (x) = 0.56737 1.00389
# Poissons Ratio (y) = 0.12083 0.19019
# Poissons Ratio (z) = 0.30415 0.27058
#
# Static dielectric constant tensor:
#      x y z
#    x 2.978570 0.000000 0.000000 
#    y 0.000000 3.529720 0.000000 
#    z 0.000000 0.000000 3.579950 
# 
# 
# High freq. dielectric constant tensor:
#      x y z
#    x 1.667760 0.000000 0.000000 
#    y 0.000000 1.724090 0.000000 
#    z 0.000000 0.000000 1.728530 
# 
# From -- ./inp_files/30428.got.cif
#   From: 2010.03.12/outbox.cif.g09.slc.cpg/sg42_16_cif.got.tgz:30428.got - 2010.04.14 02:04:31.
