data_PCOD8186424
_publ_section_title
;
Structure prediction by ZEFSAII (Michael W. Deem and Ramdas Pophale) SiO2 
 PCOD8186424
Probable space group: F M M 2
;
_chemical_formula_sum "Si O2"
_cell_formula_units_Z 80
_cell_length_a 8.689235
_cell_length_b 25.933878
_cell_length_c 18.289388
_cell_angle_alpha 90.000000
_cell_angle_beta 90.000000
_cell_angle_gamma 90.000000
_cell_volume 4121.432388
_symmetry_space_group_name_H-M "F M M 2"
_symmetry_group_IT_number 42
_symmetry_cell_setting 'orthorhombic'
loop_
_space_group_symop_operation_xyz
x,y,z
-x,-y,z
-x,y,z
x,-y,z
x,1/2+y,1/2+z
-x,1/2-y,1/2+z
-x,1/2+y,1/2+z
x,1/2-y,1/2+z
1/2+x,y,1/2+z
1/2-x,-y,1/2+z
1/2-x,y,1/2+z
1/2+x,-y,1/2+z
1/2+x,1/2+y,z
1/2-x,1/2-y,z
1/2-x,1/2+y,z
1/2+x,1/2-y,z
loop_
_atom_site_type_symbol
_atom_site_label
_atom_site_fract_x
_atom_site_fract_y
_atom_site_fract_z
Si Si1 0.183352 0.500000 0.434400
Si Si2 0.682543 0.000000 0.600583
Si Si3 0.319038 0.803353 0.434647
Si Si4 0.682107 0.695682 0.102612
Si Si5 0.317583 0.902037 0.181636
Si Si6 0.183039 0.401339 0.348246
O O1 0.242883 0.500000 0.517400
O O2 0.249151 0.449875 0.393069
O O3 0.000000 0.500000 0.432319
O O4 0.743752 0.949113 0.638871
O O5 0.500000 0.000000 0.603578
O O6 0.500000 0.799598 0.426688
O O7 0.250000 0.750000 0.405292
O O8 0.271681 0.813621 0.518408
O O9 0.251149 0.849424 0.385359
O O10 0.500000 0.694718 0.114301
O O11 0.750000 0.750000 0.130020
O O12 0.760858 0.651632 0.149648
O O13 0.500000 0.905944 0.175812
O O14 0.260466 0.905090 0.265135
O O15 0.000000 0.401014 0.352441
#
# Coordination Sequence:
#
# PCOD8186424 Si02
#       6
#     8   8  16  16  16  16
#     4   9  17  33  57  79 100 133 178 224 268 315
#     4  11  22  37  59  83 108 141 182 226 270 321
#     4   9  18  34  55  78 104 138 181 223 263 311
#     4  10  20  36  58  82 110 144 183 226 269 318
#     4  11  22  36  56  82 113 145 178 221 272 326
#     4   9  18  33  54  79 105 136 176 220 268 319
#
# _framework density 19.410727000000001
#
# number of rings (size 3 to 8) (size 9 to 14) (size 15 to 20)
#    0.000    2.200    0.000    3.300    0.000    6.400 
#    0.000    4.000    0.000    9.600    0.000    0.000 
#    0.000    0.000    0.000    0.000    0.000    0.000 
#
# Total GULP energy -248044.573670 kJ/mol
# GULP energy per Si atom -12402.228683 kJ/mol
# Density = 1.936655 g / cm^3
# Si number density = 19.410727 Si / 1000 Ang^3
#
#
#
# Elastic Constant Matrix: (Units=GPa)
#
#
# Indices 1 2 3 4 5 6 
#
# 1 42.1144 33.1818 37.2653 0.0000 0.0000 0.0000
# 2 33.1818 203.9219 115.2491 0.0000 0.0000 0.0000
# 3 37.2653 115.2491 163.8180 0.0000 0.0000 0.0000
# 4 0.0000 0.0000 0.0000 242.6128 0.0000 0.0000
# 5 0.0000 0.0000 0.0000 0.0000 22.9959 0.0000
# 6 0.0000 0.0000 0.0000 0.0000 0.0000 36.6742
#
#
#
# Elastic Compliance Matrix: (Units=1/GPa)
#
#
# Indices 1 2 3 4 5 6 
#
# 1 0.030082 -0.001706 -0.005643 0.000000 0.000000 0.000000
# 2 -0.001706 0.008237 -0.005407 0.000000 0.000000 0.000000
# 3 -0.005643 -0.005407 0.011192 0.000000 0.000000 0.000000
# 4 0.000000 0.000000 0.000000 0.004122 0.000000 0.000000
# 5 0.000000 0.000000 0.000000 0.000000 0.043486 0.000000
# 6 0.000000 0.000000 0.000000 0.000000 0.000000 0.027267
#
#
# Mechanical properties :
#
#
# Convention : Reuss Voigt Hill
#
# Bulk Modulus (GPa) = 41.66721 86.80520 64.23621
# Shear Modulus (GPa) = 31.66606 75.40045 53.53326
#
# Velocity S-wave (km/s) = 4.04340 6.23932 5.25729
# Velocity P-wave (km/s) = 6.58115 9.83477 8.36762
#
# Compressibility (1/GPa) = 0.02399968
#
# Stress axis : x y z
#
# Youngs Moduli (GPa) = 33.24241 121.39975 89.34939
#
# Poissons Ratio (x) = 0.20706 0.50421
# Poissons Ratio (y) = 0.05670 0.48312
# Poissons Ratio (z) = 0.18759 0.65642
#
# Static dielectric constant tensor:
#      x y z
#    x 3.288060 0.000000 0.000000 
#    y 0.000000 2.819620 0.000000 
#    z 0.000000 0.000000 3.737110 
# 
# 
# High freq. dielectric constant tensor:
#      x y z
#    x 1.730070 0.000000 0.000000 
#    y 0.000000 1.776640 0.000000 
#    z 0.000000 0.000000 1.761720 
# 
# From -- ./inp_files/18236.got.cif
#   From: 2010.03.12/outbox.cif.g09.slc.cpg/sg42_10_cif.got.tgz:18236.got - 2010.04.14 02:04:31.
