data_PCOD8186767
_publ_section_title
;
Structure prediction by ZEFSAII (Michael W. Deem and Ramdas Pophale) SiO2 
 PCOD8186767
Probable space group: F M M 2
;
_chemical_formula_sum "Si O2"
_cell_formula_units_Z 88
_cell_length_a 22.646089
_cell_length_b 22.646109
_cell_length_c 8.472297
_cell_angle_alpha 90.000000
_cell_angle_beta 90.000000
_cell_angle_gamma 90.000000
_cell_volume 4344.981932
_symmetry_space_group_name_H-M "F M M 2"
_symmetry_group_IT_number 42
_symmetry_cell_setting 'orthorhombic'
loop_
_space_group_symop_operation_xyz
x,y,z
-x,-y,z
-x,y,z
x,-y,z
x,1/2+y,1/2+z
-x,1/2-y,1/2+z
-x,1/2+y,1/2+z
x,1/2-y,1/2+z
1/2+x,y,1/2+z
1/2-x,-y,1/2+z
1/2-x,y,1/2+z
1/2+x,-y,1/2+z
1/2+x,1/2+y,z
1/2-x,1/2-y,z
1/2-x,1/2+y,z
1/2+x,1/2-y,z
loop_
_atom_site_type_symbol
_atom_site_label
_atom_site_fract_x
_atom_site_fract_y
_atom_site_fract_z
Si Si1 0.566448 0.335569 0.597740
Si Si2 0.220911 0.066975 0.950913
Si Si3 0.566975 0.779090 0.763908
Si Si4 0.750000 0.750000 0.857412
Si Si5 0.179708 0.179707 0.107412
Si Si6 0.335568 0.066448 0.117084
O O1 0.500000 0.360801 0.596527
O O2 0.576969 0.291700 0.745669
O O3 0.579338 0.296606 0.443244
O O4 0.609360 0.390640 0.607412
O O5 0.186864 0.110963 0.067553
O O6 0.203395 0.079340 0.771577
O O7 0.204826 0.000000 0.002818
O O8 0.291701 0.076968 0.969152
O O9 0.500000 0.795175 0.711999
O O10 0.610963 0.813138 0.647270
O O11 0.801896 0.779186 0.960113
O O12 0.779186 0.698104 0.754713
O O13 0.360800 0.000000 0.118303
#
# Coordination Sequence:
#
# PCOD8186767 Si02
#       6
#    16  16  16   8  16  16
#     4  10  23  42  63  89 120 159 202 246 297 357
#     4  10  23  40  60  88 122 160 198 242 300 356
#     4  10  23  40  60  88 122 160 198 242 300 356
#     4  10  24  34  56  94 120 154 192 250 304 350
#     4  11  22  38  58  87 122 156 198 245 298 360
#     4  10  23  42  63  89 120 159 202 246 297 357
#
# _framework density 20.253247999999999
#
# number of rings (size 3 to 8) (size 9 to 14) (size 15 to 20)
#    0.000    1.818    0.000    2.182   15.273    0.364 
#    0.000    0.000    0.000    2.727    0.000    0.000 
#    0.000    0.000    0.000    0.000    0.000    0.000 
#
# Total GULP energy -272814.793652 kJ/mol
# GULP energy per Si atom -12400.672439 kJ/mol
# Density = 2.020715 g / cm^3
# Si number density = 20.253248 Si / 1000 Ang^3
#
#
#
# Elastic Constant Matrix: (Units=GPa)
#
#
# Indices 1 2 3 4 5 6 
#
# 1 133.7969 82.1181 56.7224 0.0018 -0.0010 -0.0006
# 2 82.1181 133.7928 56.7204 0.0013 -0.0007 -0.0005
# 3 56.7224 56.7204 99.2073 0.0014 -0.0004 -0.0002
# 4 0.0018 0.0013 0.0014 25.4824 -0.0003 -0.0002
# 5 -0.0010 -0.0007 -0.0004 -0.0003 25.4812 -0.0001
# 6 -0.0006 -0.0005 -0.0002 -0.0002 -0.0001 40.7823
#
#
#
# Elastic Compliance Matrix: (Units=1/GPa)
#
#
# Indices 1 2 3 4 5 6 
#
# 1 0.012986 -0.006365 -0.003785 0.000000 0.000000 0.000000
# 2 -0.006365 0.012986 -0.003785 0.000000 0.000000 0.000000
# 3 -0.003785 -0.003785 0.014408 0.000000 0.000000 0.000000
# 4 0.000000 0.000000 0.000000 0.039243 0.000000 0.000000
# 5 0.000000 0.000000 0.000000 0.000000 0.039245 0.000000
# 6 0.000000 0.000000 0.000000 0.000000 0.000000 0.024520
#
#
# Mechanical properties :
#
#
# Convention : Reuss Voigt Hill
#
# Bulk Modulus (GPa) = 79.94744 84.21319 82.08031
# Shear Modulus (GPa) = 28.50176 29.76493 29.13335
#
# Velocity S-wave (km/s) = 3.75543 3.83774 3.79681
# Velocity P-wave (km/s) = 7.63963 7.82995 7.73537
#
# Compressibility (1/GPa) = 0.01250822
#
# Stress axis : x y z
#
# Youngs Moduli (GPa) = 77.00886 77.00750 69.40531
#
# Poissons Ratio (x) = 0.49018 0.26271
# Poissons Ratio (y) = 0.49019 0.26270
# Poissons Ratio (z) = 0.29150 0.29147
#
# Static dielectric constant tensor:
#      x y z
#    x 3.701870 0.000000 0.000000 
#    y 0.000000 3.701890 0.000000 
#    z 0.000000 0.000000 3.853790 
# 
# 
# High freq. dielectric constant tensor:
#      x y z
#    x 1.787630 0.000000 0.000000 
#    y 0.000000 1.787630 0.000000 
#    z 0.000000 0.000000 1.797190 
# 
# From -- ./inp_files/4620.got.cif
#   From: 2010.03.12/outbox.cif.g09.slc.cpg/sg42_3_cif.got.tgz:4620.got - 2010.04.14 02:04:31.
