data_PCOD8186809
_publ_section_title
;
Structure prediction by ZEFSAII (Michael W. Deem and Ramdas Pophale) SiO2 
 PCOD8186809
Probable space group: F M M 2
;
_chemical_formula_sum "Si O2"
_cell_formula_units_Z 80
_cell_length_a 17.169410
_cell_length_b 28.618628
_cell_length_c 9.928539
_cell_angle_alpha 90.000000
_cell_angle_beta 90.000000
_cell_angle_gamma 90.000000
_cell_volume 4878.536146
_symmetry_space_group_name_H-M "F M M 2"
_symmetry_group_IT_number 42
_symmetry_cell_setting 'orthorhombic'
loop_
_space_group_symop_operation_xyz
x,y,z
-x,-y,z
-x,y,z
x,-y,z
x,1/2+y,1/2+z
-x,1/2-y,1/2+z
-x,1/2+y,1/2+z
x,1/2-y,1/2+z
1/2+x,y,1/2+z
1/2-x,-y,1/2+z
1/2-x,y,1/2+z
1/2+x,-y,1/2+z
1/2+x,1/2+y,z
1/2-x,1/2-y,z
1/2-x,1/2+y,z
1/2+x,1/2-y,z
loop_
_atom_site_type_symbol
_atom_site_label
_atom_site_fract_x
_atom_site_fract_y
_atom_site_fract_z
Si Si1 0.705863 0.121597 0.720700
Si Si2 0.409498 0.284687 0.487926
Si Si3 0.590461 0.053616 0.823193
Si Si4 0.667622 0.275039 0.205331
Si Si5 0.331769 0.881140 0.009348
O O1 0.637983 0.082199 0.707903
O O2 0.675499 0.170809 0.662703
O O3 0.781782 0.104871 0.639778
O O4 0.725620 0.128038 0.880254
O O5 0.500000 0.286768 0.451896
O O6 0.362554 0.268854 0.356417
O O7 0.394773 0.247353 0.604787
O O8 0.382358 0.335336 0.540050
O O9 0.500000 0.059014 0.791094
O O10 0.617038 0.000000 0.822271
O O11 0.610519 0.075982 0.970075
O O12 0.750000 0.250000 0.188281
#
# Coordination Sequence:
#
# PCOD8186809 Si02
#       5
#    16  16  16  16  16
#     4   9  20  33  55  77 106 135 174 215 258 307
#     4  11  22  33  50  76 106 138 177 217 255 307
#     4   9  19  35  57  80 104 137 174 215 264 311
#     4  11  21  34  53  74 105 145 174 211 261 310
#     4   9  19  34  52  77 103 134 172 215 258 303
#
# _framework density 16.398361999999999
#
# number of rings (size 3 to 8) (size 9 to 14) (size 15 to 20)
#    1.200    1.000    2.000    1.800    2.800    1.600 
#    0.000    0.000    0.000    2.400    0.000    2.800 
#    0.000    0.000    0.000    0.000    0.000    0.000 
#
# Total GULP energy -247875.475012 kJ/mol
# GULP energy per Si atom -12393.773751 kJ/mol
# Density = 1.636104 g / cm^3
# Si number density = 16.398362 Si / 1000 Ang^3
#
#
#
# Elastic Constant Matrix: (Units=GPa)
#
#
# Indices 1 2 3 4 5 6 
#
# 1 67.9487 32.2840 17.5808 0.0000 0.0000 0.0000
# 2 32.2840 124.4069 19.4935 0.0000 0.0000 0.0000
# 3 17.5808 19.4935 41.0673 0.0000 0.0000 0.0000
# 4 0.0000 0.0000 0.0000 11.6788 0.0000 0.0000
# 5 0.0000 0.0000 0.0000 0.0000 26.6146 0.0000
# 6 0.0000 0.0000 0.0000 0.0000 0.0000 28.5765
#
#
#
# Elastic Compliance Matrix: (Units=1/GPa)
#
#
# Indices 1 2 3 4 5 6 
#
# 1 0.018036 -0.003749 -0.005941 0.000000 0.000000 0.000000
# 2 -0.003749 0.009463 -0.002887 0.000000 0.000000 0.000000
# 3 -0.005941 -0.002887 0.028264 0.000000 0.000000 0.000000
# 4 0.000000 0.000000 0.000000 0.085625 0.000000 0.000000
# 5 0.000000 0.000000 0.000000 0.000000 0.037573 0.000000
# 6 0.000000 0.000000 0.000000 0.000000 0.000000 0.034994
#
#
# Mechanical properties :
#
#
# Convention : Reuss Voigt Hill
#
# Bulk Modulus (GPa) = 32.67123 41.34884 37.01003
# Shear Modulus (GPa) = 20.05511 24.31164 22.18337
#
# Velocity S-wave (km/s) = 3.50093 3.85459 3.68201
# Velocity P-wave (km/s) = 6.02567 6.71420 6.37923
#
# Compressibility (1/GPa) = 0.03060797
#
# Stress axis : x y z
#
# Youngs Moduli (GPa) = 55.44588 105.66956 35.38059
#
# Poissons Ratio (x) = 0.39619 0.21021
# Poissons Ratio (y) = 0.20789 0.10214
# Poissons Ratio (z) = 0.32942 0.30506
#
# Static dielectric constant tensor:
#      x y z
#    x 2.938090 0.000000 0.000000 
#    y 0.000000 3.127230 0.000000 
#    z 0.000000 0.000000 2.886120 
# 
# 
# High freq. dielectric constant tensor:
#      x y z
#    x 1.623910 0.000000 0.000000 
#    y 0.000000 1.634260 0.000000 
#    z 0.000000 0.000000 1.611050 
# 
# From -- ./inp_files/3575.got.cif
#   From: 2010.03.12/outbox.cif.g09.slc.cpg/sg42_2_cif.got.tgz:3575.got - 2010.04.14 02:04:31.
