data_PCOD8186817
_publ_section_title
;
Structure prediction by ZEFSAII (Michael W. Deem and Ramdas Pophale) SiO2 
 PCOD8186817
Probable space group: F M M 2
;
_chemical_formula_sum "Si O2"
_cell_formula_units_Z 72
_cell_length_a 18.090490
_cell_length_b 13.751939
_cell_length_c 15.024950
_cell_angle_alpha 90.000000
_cell_angle_beta 90.000000
_cell_angle_gamma 90.000000
_cell_volume 3737.896768
_symmetry_space_group_name_H-M "F M M 2"
_symmetry_group_IT_number 42
_symmetry_cell_setting 'orthorhombic'
loop_
_space_group_symop_operation_xyz
x,y,z
-x,-y,z
-x,y,z
x,-y,z
x,1/2+y,1/2+z
-x,1/2-y,1/2+z
-x,1/2+y,1/2+z
x,1/2-y,1/2+z
1/2+x,y,1/2+z
1/2-x,-y,1/2+z
1/2-x,y,1/2+z
1/2+x,-y,1/2+z
1/2+x,1/2+y,z
1/2-x,1/2-y,z
1/2-x,1/2+y,z
1/2+x,1/2-y,z
loop_
_atom_site_type_symbol
_atom_site_label
_atom_site_fract_x
_atom_site_fract_y
_atom_site_fract_z
Si Si1 0.214795 0.500000 0.836680
Si Si2 0.177650 0.500000 0.181420
Si Si3 0.788026 0.500000 0.521307
Si Si4 0.329911 0.211832 0.803189
Si Si5 0.831754 0.211498 0.996483
Si Si6 0.586401 0.692299 0.651718
O O1 0.291715 0.500000 0.782219
O O2 0.168160 0.404140 0.814584
O O3 0.228762 0.500000 0.941920
O O4 0.247258 0.500000 0.115629
O O5 0.127318 0.592073 0.166431
O O6 0.838220 0.596109 0.513500
O O7 0.250000 0.250000 0.769399
O O8 0.391077 0.233602 0.729527
O O9 0.350500 0.266369 0.894283
O O10 0.750000 0.250000 0.021200
O O11 0.892236 0.264241 0.056334
O O12 0.500000 0.673489 0.654318
#
# Coordination Sequence:
#
# PCOD8186817 Si02
#       6
#     8   8   8  16  16  16
#     4  12  20  35  65  95 113 143 202 254 294 340
#     4  12  21  36  62  86 119 154 200 244 285 350
#     4  12  20  35  65  95 113 143 202 254 294 340
#     4  11  21  39  63  90 118 151 199 248 296 340
#     4  11  21  39  63  90 118 151 199 248 296 340
#     4  12  25  40  57  87 127 162 193 234 295 360
#
# _framework density 19.262169
#
# number of rings (size 3 to 8) (size 9 to 14) (size 15 to 20)
#    0.000    0.444    8.889    2.333    0.000    0.889 
#    0.000    2.222    0.000    0.000    0.000    0.000 
#    0.000    0.000    0.000    0.000    0.000    0.000 
#
# Total GULP energy -223301.085350 kJ/mol
# GULP energy per Si atom -12405.615853 kJ/mol
# Density = 1.921833 g / cm^3
# Si number density = 19.262169 Si / 1000 Ang^3
#
#
#
# Elastic Constant Matrix: (Units=GPa)
#
#
# Indices 1 2 3 4 5 6 
#
# 1 52.3375 8.9222 29.4236 0.0000 0.0000 0.0000
# 2 8.9222 106.9361 -5.2046 0.0000 0.0000 0.0000
# 3 29.4236 -5.2046 73.1864 0.0000 0.0000 0.0000
# 4 0.0000 0.0000 0.0000 26.6053 0.0000 0.0000
# 5 0.0000 0.0000 0.0000 0.0000 21.6055 0.0000
# 6 0.0000 0.0000 0.0000 0.0000 0.0000 -31.0899
#
#
#
# Elastic Compliance Matrix: (Units=1/GPa)
#
#
# Indices 1 2 3 4 5 6 
#
# 1 0.025400 -0.002625 -0.010399 0.000000 0.000000 0.000000
# 2 -0.002625 0.009655 0.001742 0.000000 0.000000 0.000000
# 3 -0.010399 0.001742 0.017968 0.000000 0.000000 0.000000
# 4 0.000000 0.000000 0.000000 0.037587 0.000000 0.000000
# 5 0.000000 0.000000 0.000000 0.000000 0.046284 0.000000
# 6 0.000000 0.000000 0.000000 0.000000 0.000000 -0.032165
#
#
# Mechanical properties :
#
#
# Convention : Reuss Voigt Hill
#
# Bulk Modulus (GPa) = 32.82980 33.19360 33.01170
# Shear Modulus (GPa) = 36.37769 16.71209 26.54489
#
# Velocity S-wave (km/s) = 4.35047 2.94872 3.71628
# Velocity P-wave (km/s) = 6.50508 5.37245 5.96571
#
# Compressibility (1/GPa) = 0.03046013
#
# Stress axis : x y z
#
# Youngs Moduli (GPa) = 39.36965 103.57090 55.65382
#
# Poissons Ratio (x) = 0.27191 0.57872
# Poissons Ratio (y) = 0.10336 -0.09696
# Poissons Ratio (z) = 0.40939 -0.18043
#
# Static dielectric constant tensor:
#      x y z
#    x 3.123360 0.000000 0.000000 
#    y 0.000000 4.002350 0.000000 
#    z 0.000000 0.000000 3.739540 
# 
# 
# High freq. dielectric constant tensor:
#      x y z
#    x 1.696910 0.000000 0.000000 
#    y 0.000000 1.776000 0.000000 
#    z 0.000000 0.000000 1.769360 
# 
# From -- ./inp_files/13706.got.cif
#   From: 2010.03.12/outbox.cif.g09.slc.cpg/sg42_7_cif.got.tgz:13706.got - 2010.04.14 02:04:31.
