data_PCOD8186531
_publ_section_title
;
Structure prediction by ZEFSAII (Michael W. Deem and Ramdas Pophale) SiO2 
 PCOD8186531
Probable space group: F M M 2
;
_chemical_formula_sum "Si O2"
_cell_formula_units_Z 64
_cell_length_a 24.580514
_cell_length_b 8.393844
_cell_length_c 14.754297
_cell_angle_alpha 90.000000
_cell_angle_beta 90.000000
_cell_angle_gamma 90.000000
_cell_volume 3044.180328
_symmetry_space_group_name_H-M "F M M 2"
_symmetry_group_IT_number 42
_symmetry_cell_setting 'orthorhombic'
loop_
_space_group_symop_operation_xyz
x,y,z
-x,-y,z
-x,y,z
x,-y,z
x,1/2+y,1/2+z
-x,1/2-y,1/2+z
-x,1/2+y,1/2+z
x,1/2-y,1/2+z
1/2+x,y,1/2+z
1/2-x,-y,1/2+z
1/2-x,y,1/2+z
1/2+x,-y,1/2+z
1/2+x,1/2+y,z
1/2-x,1/2-y,z
1/2-x,1/2+y,z
1/2+x,1/2-y,z
loop_
_atom_site_type_symbol
_atom_site_label
_atom_site_fract_x
_atom_site_fract_y
_atom_site_fract_z
Si Si1 0.000000 0.325180 0.208830
Si Si2 0.000000 0.824058 0.923290
Si Si3 0.387615 0.815784 0.909811
Si Si4 0.810457 0.185964 0.060298
Si Si5 0.617250 0.311456 0.713277
O O1 0.000000 0.339418 0.316330
O O2 0.942702 0.242439 0.181823
O O3 0.000000 0.500000 0.165037
O O4 0.945693 0.731580 0.954239
O O5 0.000000 0.000000 0.967836
O O6 0.373713 0.716420 0.819803
O O7 0.388423 0.000000 0.883677
O O8 0.341400 0.782459 0.982873
O O9 0.750000 0.250000 0.065058
O O10 0.837522 0.217357 0.157778
O O11 0.811380 0.000000 0.037664
O O12 0.621078 0.500000 0.694425
#
# Coordination Sequence:
#
# PCOD8186531 Si02
#       5
#     8   8  16  16  16
#     4   7  14  30  57  88 120 152 188 231 285 348
#     4   9  17  34  59  90 124 160 198 243 295 356
#     4  11  22  39  63  93 125 161 199 245 302 361
#     4  12  26  44  62  86 118 158 207 257 302 357
#     4  10  20  39  64  92 124 160 197 243 298 357
#
# _framework density 21.023723
#
# number of rings (size 3 to 8) (size 9 to 14) (size 15 to 20)
#    0.000    1.750    0.000    7.125    0.000    2.000 
#    0.000   10.625    0.000    0.000    0.000    0.000 
#    0.000    0.000    0.000    0.000    0.000    0.000 
#
# Total GULP energy -198353.892098 kJ/mol
# GULP energy per Si atom -12397.118256 kJ/mol
# Density = 2.097587 g / cm^3
# Si number density = 21.023723 Si / 1000 Ang^3
#
#
#
# Elastic Constant Matrix: (Units=GPa)
#
#
# Indices 1 2 3 4 5 6 
#
# 1 179.3397 27.5870 50.0960 0.0000 0.0000 0.0000
# 2 27.5870 95.1852 0.4285 0.0000 0.0000 0.0000
# 3 50.0960 0.4285 69.3643 0.0000 0.0000 0.0000
# 4 0.0000 0.0000 0.0000 31.2839 0.0000 0.0000
# 5 0.0000 0.0000 0.0000 0.0000 14.5128 0.0000
# 6 0.0000 0.0000 0.0000 0.0000 0.0000 22.6573
#
#
#
# Elastic Compliance Matrix: (Units=1/GPa)
#
#
# Indices 1 2 3 4 5 6 
#
# 1 0.007389 -0.002117 -0.005323 0.000000 0.000000 0.000000
# 2 -0.002117 0.011113 0.001461 0.000000 0.000000 0.000000
# 3 -0.005323 0.001461 0.018252 0.000000 0.000000 0.000000
# 4 0.000000 0.000000 0.000000 0.031965 0.000000 0.000000
# 5 0.000000 0.000000 0.000000 0.000000 0.068905 0.000000
# 6 0.000000 0.000000 0.000000 0.000000 0.000000 0.044136
#
#
# Mechanical properties :
#
#
# Convention : Reuss Voigt Hill
#
# Bulk Modulus (GPa) = 40.33276 55.56802 47.95039
# Shear Modulus (GPa) = 24.75440 31.40929 28.08184
#
# Velocity S-wave (km/s) = 3.43512 3.86941 3.65872
# Velocity P-wave (km/s) = 5.91265 6.81554 6.38009
#
# Compressibility (1/GPa) = 0.02479374
#
# Stress axis : x y z
#
# Youngs Moduli (GPa) = 135.34226 89.98506 54.78827
#
# Poissons Ratio (x) = 0.19054 0.29165
# Poissons Ratio (y) = 0.28658 -0.08002
# Poissons Ratio (z) = 0.72045 -0.13143
#
# Static dielectric constant tensor:
#      x y z
#    x 4.138880 0.000000 0.000000 
#    y 0.000000 3.751810 0.000000 
#    z 0.000000 0.000000 3.526130 
# 
# 
# High freq. dielectric constant tensor:
#      x y z
#    x 1.833160 0.000000 0.000000 
#    y 0.000000 1.821970 0.000000 
#    z 0.000000 0.000000 1.811720 
# 
# From -- ./inp_files/11903.got.cif
#   From: 2010.03.12/outbox.cif.g09.slc.cpg/sg42_6_cif.got.tgz:11903.got - 2010.04.14 02:04:31.
