data_PCOD8186386
_publ_section_title
;
Structure prediction by ZEFSAII (Michael W. Deem and Ramdas Pophale) SiO2 
 PCOD8186386
Probable space group: F M M 2
;
_chemical_formula_sum "Si O2"
_cell_formula_units_Z 96
_cell_length_a 8.746896
_cell_length_b 27.873998
_cell_length_c 20.127054
_cell_angle_alpha 90.000000
_cell_angle_beta 90.000000
_cell_angle_gamma 90.000000
_cell_volume 4907.196390
_symmetry_space_group_name_H-M "F M M 2"
_symmetry_group_IT_number 42
_symmetry_cell_setting 'orthorhombic'
loop_
_space_group_symop_operation_xyz
x,y,z
-x,-y,z
-x,y,z
x,-y,z
x,1/2+y,1/2+z
-x,1/2-y,1/2+z
-x,1/2+y,1/2+z
x,1/2-y,1/2+z
1/2+x,y,1/2+z
1/2-x,-y,1/2+z
1/2-x,y,1/2+z
1/2+x,-y,1/2+z
1/2+x,1/2+y,z
1/2-x,1/2-y,z
1/2-x,1/2+y,z
1/2+x,1/2-y,z
loop_
_atom_site_type_symbol
_atom_site_label
_atom_site_fract_x
_atom_site_fract_y
_atom_site_fract_z
Si Si1 0.820237 0.146357 0.902660
Si Si2 0.680118 0.198652 0.781364
Si Si3 0.678867 0.199218 0.025789
Si Si4 0.676348 0.649510 0.660301
Si Si5 0.825293 0.053191 0.727507
Si Si6 0.177773 0.053938 0.367256
O O1 0.753455 0.160530 0.831258
O O2 0.771783 0.090863 0.913542
O O3 0.000000 0.151989 0.902901
O O4 0.752714 0.180406 0.958614
O O5 0.500000 0.200706 0.791514
O O6 0.750000 0.250000 0.797760
O O7 0.719429 0.182707 0.706755
O O8 0.500000 0.205676 0.013991
O O9 0.750000 0.250000 0.045769
O O10 0.715565 0.161504 0.084261
O O11 0.500000 0.661689 0.676267
O O12 0.711966 0.593081 0.671748
O O13 0.716118 0.061371 0.789948
O O14 0.000000 0.058529 0.752517
O O15 0.798220 0.000000 0.696681
O O16 0.000000 0.064373 0.377431
O O17 0.220945 0.000000 0.389706
#
# Coordination Sequence:
#
# PCOD8186386 Si02
#       6
#    16  16  16  16  16  16
#     4  12  24  40  61  86 118 156 201 246 298 357
#     4  12  24  38  59  86 117 151 194 249 301 353
#     4  11  24  42  61  84 118 160 204 248 301 359
#     4  10  21  38  60  88 121 157 198 243 295 355
#     4   9  17  32  57  88 121 157 195 237 289 350
#     4  10  20  35  58  90 123 155 194 243 297 350
#
# _framework density 19.563103999999999
#
# number of rings (size 3 to 8) (size 9 to 14) (size 15 to 20)
#    0.000    1.333    1.667    5.000    0.000    3.667 
#    0.000    0.833    0.000    3.000    0.000    0.000 
#    0.000    0.000    0.000    0.000    0.000    0.000 
#
# Total GULP energy -297693.042958 kJ/mol
# GULP energy per Si atom -12403.876790 kJ/mol
# Density = 1.951858 g / cm^3
# Si number density = 19.563104 Si / 1000 Ang^3
#
#
#
# Elastic Constant Matrix: (Units=GPa)
#
#
# Indices 1 2 3 4 5 6 
#
# 1 121.0845 45.4171 33.5705 0.0000 0.0000 0.0000
# 2 45.4171 122.3817 23.3374 0.0000 0.0000 0.0000
# 3 33.5705 23.3374 60.7316 0.0000 0.0000 0.0000
# 4 0.0000 0.0000 0.0000 35.6192 0.0000 0.0000
# 5 0.0000 0.0000 0.0000 0.0000 25.3166 0.0000
# 6 0.0000 0.0000 0.0000 0.0000 0.0000 32.5864
#
#
#
# Elastic Compliance Matrix: (Units=1/GPa)
#
#
# Indices 1 2 3 4 5 6 
#
# 1 0.010729 -0.003076 -0.004749 0.000000 0.000000 0.000000
# 2 -0.003076 0.009699 -0.002027 0.000000 0.000000 0.000000
# 3 -0.004749 -0.002027 0.019870 0.000000 0.000000 0.000000
# 4 0.000000 0.000000 0.000000 0.028075 0.000000 0.000000
# 5 0.000000 0.000000 0.000000 0.000000 0.039500 0.000000
# 6 0.000000 0.000000 0.000000 0.000000 0.000000 0.030688
#
#
# Mechanical properties :
#
#
# Convention : Reuss Voigt Hill
#
# Bulk Modulus (GPa) = 48.55571 56.53866 52.54718
# Shear Modulus (GPa) = 30.27955 32.16264 31.22109
#
# Velocity S-wave (km/s) = 3.93846 4.05908 3.99923
# Velocity P-wave (km/s) = 6.74951 7.13664 6.94577
#
# Compressibility (1/GPa) = 0.02059490
#
# Stress axis : x y z
#
# Youngs Moduli (GPa) = 93.20480 103.10104 50.32812
#
# Poissons Ratio (x) = 0.31715 0.23899
# Poissons Ratio (y) = 0.28671 0.10200
# Poissons Ratio (z) = 0.44259 0.20896
#
# Static dielectric constant tensor:
#      x y z
#    x 3.625640 0.000000 0.000000 
#    y 0.000000 3.931460 0.000000 
#    z 0.000000 0.000000 3.292080 
# 
# 
# High freq. dielectric constant tensor:
#      x y z
#    x 1.769510 0.000000 0.000000 
#    y 0.000000 1.783400 0.000000 
#    z 0.000000 0.000000 1.733750 
# 
# From -- ./inp_files/23704.got.cif
#   From: 2010.03.12/outbox.cif.g09.slc.cpg/sg42_12_cif.got.tgz:23704.got - 2010.04.14 02:04:31.
