data_PCOD8186315
_publ_section_title
;
Structure prediction by ZEFSAII (Michael W. Deem and Ramdas Pophale) SiO2 
 PCOD8186315
Probable space group: F M M 2
;
_chemical_formula_sum "Si O2"
_cell_formula_units_Z 80
_cell_length_a 26.441590
_cell_length_b 13.273781
_cell_length_c 12.263709
_cell_angle_alpha 90.000000
_cell_angle_beta 90.000000
_cell_angle_gamma 90.000000
_cell_volume 4304.315051
_symmetry_space_group_name_H-M "F M M 2"
_symmetry_group_IT_number 42
_symmetry_cell_setting 'orthorhombic'
loop_
_space_group_symop_operation_xyz
x,y,z
-x,-y,z
-x,y,z
x,-y,z
x,1/2+y,1/2+z
-x,1/2-y,1/2+z
-x,1/2+y,1/2+z
x,1/2-y,1/2+z
1/2+x,y,1/2+z
1/2-x,-y,1/2+z
1/2-x,y,1/2+z
1/2+x,-y,1/2+z
1/2+x,1/2+y,z
1/2-x,1/2-y,z
1/2-x,1/2+y,z
1/2+x,1/2-y,z
loop_
_atom_site_type_symbol
_atom_site_label
_atom_site_fract_x
_atom_site_fract_y
_atom_site_fract_z
Si Si1 0.174343 0.199690 0.395910
Si Si2 0.500000 0.618382 0.145867
Si Si3 0.225063 0.112441 0.827797
Si Si4 0.580949 0.252864 0.761568
Si Si5 0.345335 0.614164 0.629286
Si Si6 0.500000 0.119138 0.388216
O O1 0.192682 0.315733 0.408204
O O2 0.215915 0.141368 0.322904
O O3 0.120336 0.193001 0.337386
O O4 0.172499 0.148797 0.512025
O O5 0.500000 0.500000 0.171847
O O6 0.548878 0.668285 0.200322
O O7 0.500000 0.639172 0.017147
O O8 0.203542 0.124221 0.706050
O O9 0.217831 0.000000 0.873039
O O10 0.608486 0.318110 0.669594
O O11 0.549173 0.329106 0.836505
O O12 0.365110 0.500000 0.624266
O O13 0.500000 0.000000 0.362167
#
# Coordination Sequence:
#
# PCOD8186315 Si02
#       6
#    16   8  16  16  16   8
#     4  10  20  34  56  81 110 142 178 224 268 310
#     4  10  22  38  56  80 110 140 174 222 274 322
#     4   9  20  36  53  77 110 147 183 216 257 315
#     4  10  21  37  56  81 108 137 178 223 269 321
#     4  10  20  36  57  81 109 142 181 222 265 317
#     4  10  20  38  60  78 102 138 176 218 272 330
#
# _framework density 18.585999999999999
#
# number of rings (size 3 to 8) (size 9 to 14) (size 15 to 20)
#    0.000    2.200    0.000    2.400    0.000    8.800 
#    0.000    1.000    0.000    7.200    0.000    0.000 
#    0.000    0.000    0.000    0.000    0.000    0.000 
#
# Total GULP energy -248014.367723 kJ/mol
# GULP energy per Si atom -12400.718386 kJ/mol
# Density = 1.854370 g / cm^3
# Si number density = 18.586000 Si / 1000 Ang^3
#
#
#
# Elastic Constant Matrix: (Units=GPa)
#
#
# Indices 1 2 3 4 5 6 
#
# 1 136.5379 59.8461 59.2573 0.0000 0.0000 0.0000
# 2 59.8461 141.0549 61.4489 0.0000 0.0000 0.0000
# 3 59.2573 61.4489 100.0787 0.0000 0.0000 0.0000
# 4 0.0000 0.0000 0.0000 34.3465 0.0000 0.0000
# 5 0.0000 0.0000 0.0000 0.0000 20.7310 0.0000
# 6 0.0000 0.0000 0.0000 0.0000 0.0000 22.0343
#
#
#
# Elastic Compliance Matrix: (Units=1/GPa)
#
#
# Indices 1 2 3 4 5 6 
#
# 1 0.010403 -0.002362 -0.004709 0.000000 0.000000 0.000000
# 2 -0.002362 0.010215 -0.004873 0.000000 0.000000 0.000000
# 3 -0.004709 -0.004873 0.015773 0.000000 0.000000 0.000000
# 4 0.000000 0.000000 0.000000 0.029115 0.000000 0.000000
# 5 0.000000 0.000000 0.000000 0.000000 0.048237 0.000000
# 6 0.000000 0.000000 0.000000 0.000000 0.000000 0.045384
#
#
# Mechanical properties :
#
#
# Convention : Reuss Voigt Hill
#
# Bulk Modulus (GPa) = 79.99336 82.08625 81.03981
# Shear Modulus (GPa) = 26.71185 28.56365 27.63775
#
# Velocity S-wave (km/s) = 3.79516 3.92450 3.86037
# Velocity P-wave (km/s) = 7.89540 8.04967 7.97291
#
# Compressibility (1/GPa) = 0.01250104
#
# Stress axis : x y z
#
# Youngs Moduli (GPa) = 96.12379 97.89907 63.40050
#
# Poissons Ratio (x) = 0.23126 0.29858
# Poissons Ratio (y) = 0.22707 0.30896
# Poissons Ratio (z) = 0.45269 0.47707
#
# Static dielectric constant tensor:
#      x y z
#    x 3.506730 0.000000 0.000000 
#    y 0.000000 3.687220 0.000000 
#    z 0.000000 0.000000 3.306050 
# 
# 
# High freq. dielectric constant tensor:
#      x y z
#    x 1.728650 0.000000 0.000000 
#    y 0.000000 1.734380 0.000000 
#    z 0.000000 0.000000 1.715380 
# 
# From -- ./inp_files/7010.got.cif
#   From: 2010.03.12/outbox.cif.g09.slc.cpg/sg42_4_cif.got.tgz:7010.got - 2010.04.14 02:04:31.
