data_PCOD8186333
_publ_section_title
;
Structure prediction by ZEFSAII (Michael W. Deem and Ramdas Pophale) SiO2 
 PCOD8186333
Probable space group: F M M 2
;
_chemical_formula_sum "Si O2"
_cell_formula_units_Z 104
_cell_length_a 17.976501
_cell_length_b 14.328072
_cell_length_c 21.544148
_cell_angle_alpha 90.000000
_cell_angle_beta 90.000000
_cell_angle_gamma 90.000000
_cell_volume 5549.096052
_symmetry_space_group_name_H-M "F M M 2"
_symmetry_group_IT_number 42
_symmetry_cell_setting 'orthorhombic'
loop_
_space_group_symop_operation_xyz
x,y,z
-x,-y,z
-x,y,z
x,-y,z
x,1/2+y,1/2+z
-x,1/2-y,1/2+z
-x,1/2+y,1/2+z
x,1/2-y,1/2+z
1/2+x,y,1/2+z
1/2-x,-y,1/2+z
1/2-x,y,1/2+z
1/2+x,-y,1/2+z
1/2+x,1/2+y,z
1/2-x,1/2-y,z
1/2-x,1/2+y,z
1/2+x,1/2-y,z
loop_
_atom_site_type_symbol
_atom_site_label
_atom_site_fract_x
_atom_site_fract_y
_atom_site_fract_z
Si Si1 0.916285 0.298307 0.859710
Si Si2 0.086285 0.106054 0.231120
Si Si3 0.414933 0.396135 0.711156
Si Si4 0.831930 0.738017 0.645982
Si Si5 0.250000 0.250000 0.027157
Si Si6 0.642688 0.603780 0.844738
Si Si7 0.784098 0.893214 0.424583
O O1 0.895950 0.326526 0.789145
O O2 0.908358 0.187062 0.871102
O O3 0.863812 0.353054 0.906449
O O4 0.000000 0.329023 0.875203
O O5 0.132244 0.142850 0.172005
O O6 0.000000 0.109755 0.213615
O O7 0.110827 0.000000 0.246747
O O8 0.500000 0.370230 0.730422
O O9 0.412298 0.500000 0.682441
O O10 0.385525 0.325009 0.660042
O O11 0.360966 0.391033 0.770522
O O12 0.750000 0.750000 0.676805
O O13 0.822692 0.734447 0.571072
O O14 0.245047 0.341807 0.985523
O O15 0.615172 0.500000 0.866890
O O16 0.727061 0.621102 0.867337
O O17 0.793316 0.000000 0.442898
#
# Coordination Sequence:
#
# PCOD8186333 Si02
#       7
#    16  16  16  16   8  16  16
#     4  11  21  36  61  91 125 152 183 236 299 363
#     4  10  21  37  58  87 121 152 182 227 292 358
#     4  10  20  36  59  91 125 150 180 230 296 360
#     4  10  23  36  59  84 111 154 193 244 280 338
#     4  10  24  42  58  82 110 152 208 248 288 326
#     4  10  20  34  62  93 118 152 188 232 292 354
#     4  11  23  41  63  83 115 154 200 247 288 345
#
# _framework density 18.741790999999999
#
# number of rings (size 3 to 8) (size 9 to 14) (size 15 to 20)
#    0.462    1.231    3.077    1.385    2.154    3.692 
#    0.000    1.538    0.000    0.000    0.000    0.000 
#    0.000    0.000    0.000    0.000    0.000    0.000 
#
# Total GULP energy -322326.193914 kJ/mol
# GULP energy per Si atom -12397.161304 kJ/mol
# Density = 1.869913 g / cm^3
# Si number density = 18.741791 Si / 1000 Ang^3
#
#
#
# Elastic Constant Matrix: (Units=GPa)
#
#
# Indices 1 2 3 4 5 6 
#
# 1 90.8437 58.0640 53.1238 0.0000 0.0000 0.0000
# 2 58.0640 155.7040 55.1210 0.0000 0.0000 0.0000
# 3 53.1238 55.1210 98.6135 0.0000 0.0000 0.0000
# 4 0.0000 0.0000 0.0000 20.2614 0.0000 0.0000
# 5 0.0000 0.0000 0.0000 0.0000 21.5268 0.0000
# 6 0.0000 0.0000 0.0000 0.0000 0.0000 29.1406
#
#
#
# Elastic Compliance Matrix: (Units=1/GPa)
#
#
# Indices 1 2 3 4 5 6 
#
# 1 0.017927 -0.004072 -0.007381 0.000000 0.000000 0.000000
# 2 -0.004072 0.008932 -0.002799 0.000000 0.000000 0.000000
# 3 -0.007381 -0.002799 0.015681 0.000000 0.000000 0.000000
# 4 0.000000 0.000000 0.000000 0.049355 0.000000 0.000000
# 5 0.000000 0.000000 0.000000 0.000000 0.046454 0.000000
# 6 0.000000 0.000000 0.000000 0.000000 0.000000 0.034316
#
#
# Mechanical properties :
#
#
# Convention : Reuss Voigt Hill
#
# Bulk Modulus (GPa) = 71.24658 75.30875 73.27767
# Shear Modulus (GPa) = 24.28968 26.10924 25.19946
#
# Velocity S-wave (km/s) = 3.60393 3.73648 3.67080
# Velocity P-wave (km/s) = 7.44413 7.67362 7.55975
#
# Compressibility (1/GPa) = 0.01403576
#
# Stress axis : x y z
#
# Youngs Moduli (GPa) = 55.78117 111.95906 63.76991
#
# Poissons Ratio (x) = 0.45592 0.47070
# Poissons Ratio (y) = 0.22715 0.17848
# Poissons Ratio (z) = 0.41174 0.31335
#
# Static dielectric constant tensor:
#      x y z
#    x 3.407160 0.000000 0.000000 
#    y 0.000000 3.696740 0.000000 
#    z 0.000000 0.000000 3.112980 
# 
# 
# High freq. dielectric constant tensor:
#      x y z
#    x 1.724690 0.000000 0.000000 
#    y 0.000000 1.748570 0.000000 
#    z 0.000000 0.000000 1.690420 
# 
# From -- ./inp_files/25935.got.cif
#   From: 2010.03.12/outbox.cif.g09.slc.cpg/sg42_13_cif.got.tgz:25935.got - 2010.04.14 02:04:31.
