data_PCOD8186274
_publ_section_title
;
Structure prediction by ZEFSAII (Michael W. Deem and Ramdas Pophale) SiO2 
 PCOD8186274
Probable space group: F M M 2
;
_chemical_formula_sum "Si O2"
_cell_formula_units_Z 96
_cell_length_a 16.151010
_cell_length_b 9.419681
_cell_length_c 33.828042
_cell_angle_alpha 90.000000
_cell_angle_beta 90.000000
_cell_angle_gamma 90.000000
_cell_volume 5146.509072
_symmetry_space_group_name_H-M "F M M 2"
_symmetry_group_IT_number 42
_symmetry_cell_setting 'orthorhombic'
loop_
_space_group_symop_operation_xyz
x,y,z
-x,-y,z
-x,y,z
x,-y,z
x,1/2+y,1/2+z
-x,1/2-y,1/2+z
-x,1/2+y,1/2+z
x,1/2-y,1/2+z
1/2+x,y,1/2+z
1/2-x,-y,1/2+z
1/2-x,y,1/2+z
1/2+x,-y,1/2+z
1/2+x,1/2+y,z
1/2-x,1/2-y,z
1/2-x,1/2+y,z
1/2+x,1/2-y,z
loop_
_atom_site_type_symbol
_atom_site_label
_atom_site_fract_x
_atom_site_fract_y
_atom_site_fract_z
Si Si1 0.669550 0.335911 0.603020
Si Si2 0.829015 0.163454 0.244925
Si Si3 0.335063 0.332139 0.334022
Si Si4 0.665991 0.333961 0.512143
Si Si5 0.092643 0.151470 0.165512
Si Si6 0.000000 0.668300 0.878677
Si Si7 0.500000 0.168338 0.968656
O O1 0.683917 0.500000 0.610908
O O2 0.750000 0.250000 0.614537
O O3 0.643573 0.307343 0.557873
O O4 0.896360 0.224232 0.633632
O O5 0.750000 0.250000 0.232393
O O6 0.860129 0.204281 0.288820
O O7 0.893690 0.202946 0.210678
O O8 0.804454 0.000000 0.244979
O O9 0.319965 0.500000 0.340899
O O10 0.250000 0.250000 0.346167
O O11 0.414481 0.275935 0.358891
O O12 0.682325 0.500000 0.503396
O O13 0.750000 0.250000 0.499916
O O14 0.585268 0.275456 0.488749
O O15 0.000000 0.107997 0.162085
O O16 0.141338 0.000000 0.157162
O O17 0.000000 0.500000 0.875484
O O18 0.000000 0.721596 0.923729
O O19 0.500000 0.000000 0.972403
#
# Coordination Sequence:
#
# PCOD8186274 Si02
#       7
#    16  16  16  16  16   8   8
#     4  10  20  34  53  73  98 133 173 213 257 306
#     4   9  18  32  50  70  97 132 170 208 252 299
#     4   9  18  33  54  79 105 137 175 214 256 307
#     4   9  19  35  56  78 105 138 174 214 260 310
#     4  10  21  33  47  72 103 135 170 212 256 299
#     4   9  18  32  55  82 105 135 175 211 253 313
#     4   9  18  34  55  80 107 137 171 211 257 313
#
# _framework density 18.653421000000002
#
# number of rings (size 3 to 8) (size 9 to 14) (size 15 to 20)
#    0.000    2.667    0.000    1.000    2.333    3.667 
#    0.000    0.833    0.000    1.000    0.000    0.000 
#    0.000    0.000    0.000    0.000    0.000    0.000 
#
# Total GULP energy -297321.268716 kJ/mol
# GULP energy per Si atom -12388.386196 kJ/mol
# Density = 1.861096 g / cm^3
# Si number density = 18.653421 Si / 1000 Ang^3
#
#
#
# Elastic Constant Matrix: (Units=GPa)
#
#
# Indices 1 2 3 4 5 6 
#
# 1 137.9340 46.9682 76.0428 0.0000 0.0000 0.0000
# 2 46.9682 56.0808 44.8050 0.0000 0.0000 0.0000
# 3 76.0428 44.8050 115.7299 0.0000 0.0000 0.0000
# 4 0.0000 0.0000 0.0000 17.3528 0.0000 0.0000
# 5 0.0000 0.0000 0.0000 0.0000 29.6704 0.0000
# 6 0.0000 0.0000 0.0000 0.0000 0.0000 24.3745
#
#
#
# Elastic Compliance Matrix: (Units=1/GPa)
#
#
# Indices 1 2 3 4 5 6 
#
# 1 0.012494 -0.005654 -0.006021 0.000000 0.000000 0.000000
# 2 -0.005654 0.028375 -0.007270 0.000000 0.000000 0.000000
# 3 -0.006021 -0.007270 0.015412 0.000000 0.000000 0.000000
# 4 0.000000 0.000000 0.000000 0.057628 0.000000 0.000000
# 5 0.000000 0.000000 0.000000 0.000000 0.033704 0.000000
# 6 0.000000 0.000000 0.000000 0.000000 0.000000 0.041027
#
#
# Mechanical properties :
#
#
# Convention : Reuss Voigt Hill
#
# Bulk Modulus (GPa) = 54.37462 71.70853 63.04158
# Shear Modulus (GPa) = 21.49063 23.74145 22.61604
#
# Velocity S-wave (km/s) = 3.39794 3.57146 3.48578
# Velocity P-wave (km/s) = 6.67892 7.45205 7.07605
#
# Compressibility (1/GPa) = 0.01839093
#
# Stress axis : x y z
#
# Youngs Moduli (GPa) = 80.03662 35.24196 64.88603
#
# Poissons Ratio (x) = 0.19925 0.39066
# Poissons Ratio (y) = 0.45252 0.47175
# Poissons Ratio (z) = 0.48188 0.25623
#
# Static dielectric constant tensor:
#      x y z
#    x 3.885650 0.000000 0.000000 
#    y 0.000000 3.402100 0.000000 
#    z 0.000000 0.000000 3.541960 
# 
# 
# High freq. dielectric constant tensor:
#      x y z
#    x 1.720440 0.000000 0.000000 
#    y 0.000000 1.703810 0.000000 
#    z 0.000000 0.000000 1.728050 
# 
# From -- ./inp_files/34265.got.cif
#   From: 2010.03.12/outbox.cif.g09.slc.cpg/sg42_18_cif.got.tgz:34265.got - 2010.04.14 02:04:31.
