data_PCOD8186581
_publ_section_title
;
Structure prediction by ZEFSAII (Michael W. Deem and Ramdas Pophale) SiO2 
 PCOD8186581
Probable space group: F M M 2
;
_chemical_formula_sum "Si O2"
_cell_formula_units_Z 96
_cell_length_a 14.744291
_cell_length_b 20.954495
_cell_length_c 14.589403
_cell_angle_alpha 90.000000
_cell_angle_beta 90.000000
_cell_angle_gamma 90.000000
_cell_volume 4507.529871
_symmetry_space_group_name_H-M "F M M 2"
_symmetry_group_IT_number 42
_symmetry_cell_setting 'orthorhombic'
loop_
_space_group_symop_operation_xyz
x,y,z
-x,-y,z
-x,y,z
x,-y,z
x,1/2+y,1/2+z
-x,1/2-y,1/2+z
-x,1/2+y,1/2+z
x,1/2-y,1/2+z
1/2+x,y,1/2+z
1/2-x,-y,1/2+z
1/2-x,y,1/2+z
1/2+x,-y,1/2+z
1/2+x,1/2+y,z
1/2-x,1/2-y,z
1/2-x,1/2+y,z
1/2+x,1/2-y,z
loop_
_atom_site_type_symbol
_atom_site_label
_atom_site_fract_x
_atom_site_fract_y
_atom_site_fract_z
Si Si1 0.253528 0.427093 0.066060
Si Si2 0.401334 0.427330 0.432964
Si Si3 0.400707 0.336644 0.831410
Si Si4 0.664111 0.203731 0.514378
Si Si5 0.223230 0.389411 0.768924
Si Si6 0.099243 0.221090 0.206138
O O1 0.278978 0.500000 0.033765
O O2 0.321124 0.372490 0.030693
O O3 0.255122 0.428746 0.176808
O O4 0.157439 0.405120 0.021254
O O5 0.500000 0.391411 0.430721
O O6 0.423086 0.500000 0.447954
O O7 0.349062 0.421413 0.336230
O O8 0.500000 0.370598 0.832395
O O9 0.317649 0.386123 0.825386
O O10 0.391609 0.292206 0.743097
O O11 0.391869 0.291513 0.920588
O O12 0.750000 0.250000 0.504750
O O13 0.603825 0.229219 0.597060
O O14 0.182837 0.320379 0.743199
O O15 0.000000 0.192016 0.232125
#
# Coordination Sequence:
#
# PCOD8186581 Si02
#       6
#    16  16  16  16  16  16
#     4  10  22  39  63  92 126 167 207 259 326 391
#     4  10  21  38  61  91 124 162 213 266 316 381
#     4  11  23  38  59  90 125 165 212 263 322 388
#     4  11  21  39  64  88 123 167 208 262 318 380
#     4  11  20  38  62  88 121 167 211 262 321 384
#     4  10  21  36  57  89 124 158 206 261 317 377
#
# _framework density 21.297695999999998
#
# number of rings (size 3 to 8) (size 9 to 14) (size 15 to 20)
#    0.000    1.500    1.667    5.000    0.000    0.667 
#    0.000    0.833    0.000   13.500    0.000    0.000 
#    0.000    0.000    0.000    0.000    0.000    0.000 
#
# Total GULP energy -297358.872616 kJ/mol
# GULP energy per Si atom -12389.953026 kJ/mol
# Density = 2.124922 g / cm^3
# Si number density = 21.297696 Si / 1000 Ang^3
#
#
#
# Elastic Constant Matrix: (Units=GPa)
#
#
# Indices 1 2 3 4 5 6 
#
# 1 128.3736 5.9371 38.2272 0.0000 0.0000 0.0000
# 2 5.9371 49.6337 8.6271 0.0000 0.0000 0.0000
# 3 38.2272 8.6271 125.1861 0.0000 0.0000 0.0000
# 4 0.0000 0.0000 0.0000 19.5465 0.0000 0.0000
# 5 0.0000 0.0000 0.0000 0.0000 -40.5112 0.0000
# 6 0.0000 0.0000 0.0000 0.0000 0.0000 19.5142
#
#
#
# Elastic Compliance Matrix: (Units=1/GPa)
#
#
# Indices 1 2 3 4 5 6 
#
# 1 0.008585 -0.000578 -0.002582 0.000000 0.000000 0.000000
# 2 -0.000578 0.020431 -0.001231 0.000000 0.000000 0.000000
# 3 -0.002582 -0.001231 0.008861 0.000000 0.000000 0.000000
# 4 0.000000 0.000000 0.000000 0.051160 0.000000 0.000000
# 5 0.000000 0.000000 0.000000 0.000000 -0.024685 0.000000
# 6 0.000000 0.000000 0.000000 0.000000 0.000000 0.051245
#
#
# Mechanical properties :
#
#
# Convention : Reuss Voigt Hill
#
# Bulk Modulus (GPa) = 34.37056 45.41957 39.89507
# Shear Modulus (GPa) = 37.29152 16.40336 26.84744
#
# Velocity S-wave (km/s) = 4.18899 2.77825 3.55432
# Velocity P-wave (km/s) = 6.29047 5.62707 5.96800
#
# Compressibility (1/GPa) = 0.02909466
#
# Stress axis : x y z
#
# Youngs Moduli (GPa) = 116.47799 48.94570 112.84955
#
# Poissons Ratio (x) = 0.02830 0.29135
# Poissons Ratio (y) = 0.06735 0.13896
# Poissons Ratio (z) = 0.30072 0.06027
#
# Static dielectric constant tensor:
#      x y z
#    x 5.539790 0.000000 0.000000 
#    y 0.000000 3.515280 0.000000 
#    z 0.000000 0.000000 4.178510 
# 
# 
# High freq. dielectric constant tensor:
#      x y z
#    x 1.837330 0.000000 0.000000 
#    y 0.000000 1.804690 0.000000 
#    z 0.000000 0.000000 1.852930 
# 
# From -- ./inp_files/13992.got.cif
#   From: 2010.03.12/outbox.cif.g09.slc.cpg/sg42_7_cif.got.tgz:13992.got - 2010.04.14 02:04:31.
