data_PCOD8186632
_publ_section_title
;
Structure prediction by ZEFSAII (Michael W. Deem and Ramdas Pophale) SiO2 
 PCOD8186632
Probable space group: F M M 2
;
_chemical_formula_sum "Si O2"
_cell_formula_units_Z 96
_cell_length_a 20.658802
_cell_length_b 15.894813
_cell_length_c 14.659625
_cell_angle_alpha 90.000000
_cell_angle_beta 90.000000
_cell_angle_gamma 90.000000
_cell_volume 4813.748731
_symmetry_space_group_name_H-M "F M M 2"
_symmetry_group_IT_number 42
_symmetry_cell_setting 'orthorhombic'
loop_
_space_group_symop_operation_xyz
x,y,z
-x,-y,z
-x,y,z
x,-y,z
x,1/2+y,1/2+z
-x,1/2-y,1/2+z
-x,1/2+y,1/2+z
x,1/2-y,1/2+z
1/2+x,y,1/2+z
1/2-x,-y,1/2+z
1/2-x,y,1/2+z
1/2+x,-y,1/2+z
1/2+x,1/2+y,z
1/2-x,1/2-y,z
1/2-x,1/2+y,z
1/2+x,1/2-y,z
loop_
_atom_site_type_symbol
_atom_site_label
_atom_site_fract_x
_atom_site_fract_y
_atom_site_fract_z
Si Si1 0.385408 0.903684 0.128110
Si Si2 0.750000 0.750000 0.757336
Si Si3 0.259612 0.903001 0.622299
Si Si4 0.000000 0.682053 0.814871
Si Si5 0.382369 0.306598 0.816523
Si Si6 0.000000 0.900376 0.120567
Si Si7 0.119116 0.901904 0.002558
Si Si8 0.500000 0.901066 0.005417
O O1 0.313670 0.894282 0.084814
O O2 0.391498 0.857465 0.223799
O O3 0.436209 0.864270 0.056198
O O4 0.402328 0.000000 0.148088
O O5 0.731207 0.833667 0.700551
O O6 0.688853 0.733316 0.821483
O O7 0.309761 0.881003 0.541988
O O8 0.271110 0.000000 0.658096
O O9 0.935574 0.735537 0.820027
O O10 0.000000 0.627987 0.724075
O O11 0.000000 0.620277 0.900101
O O12 0.390784 0.365766 0.902807
O O13 0.064066 0.864802 0.069966
O O14 0.000000 0.000000 0.119925
O O15 0.108816 0.000000 0.992362
O O16 0.500000 0.000000 0.013537
#
# Coordination Sequence:
#
# PCOD8186632 Si02
#       8
#    16   8  16   8  16   8  16   8
#     4   9  19  38  61  83 110 146 187 233 282 332
#     4  10  22  38  58  86 118 154 194 238 290 342
#     4   9  19  37  60  84 114 154 196 237 285 340
#     4  12  25  38  55  84 114 146 188 234 287 344
#     4  11  23  36  56  87 118 149 187 232 283 341
#     4  10  22  41  61  79 108 151 195 240 289 342
#     4  10  21  38  60  85 114 152 194 236 285 342
#     4  10  22  39  59  81 108 145 187 232 283 338
#
# _framework density 19.942875999999998
#
# number of rings (size 3 to 8) (size 9 to 14) (size 15 to 20)
#    0.000    2.000    0.000    2.750    0.000    8.000 
#    0.000    4.167    0.000    8.000    0.000    0.000 
#    0.000    0.000    0.000    0.000    0.000    0.000 
#
# Total GULP energy -297566.496386 kJ/mol
# GULP energy per Si atom -12398.604016 kJ/mol
# Density = 1.989749 g / cm^3
# Si number density = 19.942876 Si / 1000 Ang^3
#
#
#
# Elastic Constant Matrix: (Units=GPa)
#
#
# Indices 1 2 3 4 5 6 
#
# 1 153.4562 32.7301 81.5511 0.0000 0.0000 0.0000
# 2 32.7301 43.9040 29.3312 0.0000 0.0000 0.0000
# 3 81.5511 29.3312 144.4443 0.0000 0.0000 0.0000
# 4 0.0000 0.0000 0.0000 16.7662 0.0000 0.0000
# 5 0.0000 0.0000 0.0000 0.0000 19.0550 0.0000
# 6 0.0000 0.0000 0.0000 0.0000 0.0000 25.4338
#
#
#
# Elastic Compliance Matrix: (Units=1/GPa)
#
#
# Indices 1 2 3 4 5 6 
#
# 1 0.009948 -0.004239 -0.004756 0.000000 0.000000 0.000000
# 2 -0.004239 0.028158 -0.003325 0.000000 0.000000 0.000000
# 3 -0.004756 -0.003325 0.010283 0.000000 0.000000 0.000000
# 4 0.000000 0.000000 0.000000 0.059644 0.000000 0.000000
# 5 0.000000 0.000000 0.000000 0.000000 0.052480 0.000000
# 6 0.000000 0.000000 0.000000 0.000000 0.000000 0.039318
#
#
# Mechanical properties :
#
#
# Convention : Reuss Voigt Hill
#
# Bulk Modulus (GPa) = 42.10388 69.89215 55.99801
# Shear Modulus (GPa) = 21.51593 25.46381 23.48987
#
# Velocity S-wave (km/s) = 3.28819 3.57716 3.43572
# Velocity P-wave (km/s) = 5.96442 7.22383 6.62412
#
# Compressibility (1/GPa) = 0.02375078
#
# Stress axis : x y z
#
# Youngs Moduli (GPa) = 100.52337 35.51365 97.24630
#
# Poissons Ratio (x) = 0.15054 0.46247
# Poissons Ratio (y) = 0.42612 0.32331
# Poissons Ratio (z) = 0.47806 0.11807
#
# Static dielectric constant tensor:
#      x y z
#    x 4.145460 0.000000 0.000000 
#    y 0.000000 3.652110 0.000000 
#    z 0.000000 0.000000 3.706410 
# 
# 
# High freq. dielectric constant tensor:
#      x y z
#    x 1.801180 0.000000 0.000000 
#    y 0.000000 1.781920 0.000000 
#    z 0.000000 0.000000 1.766020 
# 
# From -- ./inp_files/15875.got.cif
#   From: 2010.03.12/outbox.cif.g09.slc.cpg/sg42_8_cif.got.tgz:15875.got - 2010.04.14 02:04:31.
