data_PCOD8186462
_publ_section_title
;
Structure prediction by ZEFSAII (Michael W. Deem and Ramdas Pophale) SiO2 
 PCOD8186462
Probable space group: F M M 2
;
_chemical_formula_sum "Si O2"
_cell_formula_units_Z 96
_cell_length_a 27.464184
_cell_length_b 17.575447
_cell_length_c 10.196474
_cell_angle_alpha 90.000000
_cell_angle_beta 90.000000
_cell_angle_gamma 90.000000
_cell_volume 4921.790181
_symmetry_space_group_name_H-M "F M M 2"
_symmetry_group_IT_number 42
_symmetry_cell_setting 'orthorhombic'
loop_
_space_group_symop_operation_xyz
x,y,z
-x,-y,z
-x,y,z
x,-y,z
x,1/2+y,1/2+z
-x,1/2-y,1/2+z
-x,1/2+y,1/2+z
x,1/2-y,1/2+z
1/2+x,y,1/2+z
1/2-x,-y,1/2+z
1/2-x,y,1/2+z
1/2+x,-y,1/2+z
1/2+x,1/2+y,z
1/2-x,1/2-y,z
1/2-x,1/2+y,z
1/2+x,1/2-y,z
loop_
_atom_site_type_symbol
_atom_site_label
_atom_site_fract_x
_atom_site_fract_y
_atom_site_fract_z
Si Si1 0.136804 0.716983 0.266450
Si Si2 0.303293 0.583626 0.109281
Si Si3 0.554594 0.089003 0.731387
Si Si4 0.108376 0.317476 0.535339
Si Si5 0.151082 0.374549 0.862276
Si Si6 0.193228 0.087824 0.635817
O O1 0.097126 0.699101 0.382219
O O2 0.111383 0.741883 0.128795
O O3 0.167222 0.787486 0.329654
O O4 0.171380 0.643823 0.245962
O O5 0.306475 0.500000 0.042940
O O6 0.338341 0.642810 0.036851
O O7 0.319620 0.573093 0.260692
O O8 0.248015 0.613579 0.103222
O O9 0.500000 0.110799 0.775989
O O10 0.566626 0.127545 0.590999
O O11 0.592648 0.118871 0.839564
O O12 0.560296 0.000000 0.710018
O O13 0.161042 0.402639 0.006805
O O14 0.191092 0.000000 0.684746
#
# Coordination Sequence:
#
# PCOD8186462 Si02
#       6
#    16  16  16  16  16  16
#     4  10  21  38  54  80 113 154 194 236 283 354
#     4   9  20  34  52  78 112 153 195 236 289 347
#     4   9  18  35  63  91 111 146 194 240 298 359
#     4  10  20  37  57  79 117 148 196 236 296 334
#     4  10  20  38  57  78 121 156 192 241 297 344
#     4  11  22  35  55  85 117 156 199 244 292 345
#
# _framework density 19.505098
#
# number of rings (size 3 to 8) (size 9 to 14) (size 15 to 20)
#    0.000    2.500    1.667    3.000    2.333    4.000 
#    0.000    3.333    0.000    1.000    0.000    2.333 
#    0.000    0.000    0.000    0.000    0.000    0.000 
#
# Total GULP energy -297381.346640 kJ/mol
# GULP energy per Si atom -12390.889443 kJ/mol
# Density = 1.946070 g / cm^3
# Si number density = 19.505098 Si / 1000 Ang^3
#
#
#
# Elastic Constant Matrix: (Units=GPa)
#
#
# Indices 1 2 3 4 5 6 
#
# 1 113.7668 38.1176 36.4123 0.0000 0.0000 0.0000
# 2 38.1176 103.1095 19.2585 0.0000 0.0000 0.0000
# 3 36.4123 19.2585 89.6811 0.0000 0.0000 0.0000
# 4 0.0000 0.0000 0.0000 20.2609 0.0000 0.0000
# 5 0.0000 0.0000 0.0000 0.0000 12.3072 0.0000
# 6 0.0000 0.0000 0.0000 0.0000 0.0000 15.3844
#
#
#
# Elastic Compliance Matrix: (Units=1/GPa)
#
#
# Indices 1 2 3 4 5 6 
#
# 1 0.011147 -0.003412 -0.003793 0.000000 0.000000 0.000000
# 2 -0.003412 0.011148 -0.001009 0.000000 0.000000 0.000000
# 3 -0.003793 -0.001009 0.012907 0.000000 0.000000 0.000000
# 4 0.000000 0.000000 0.000000 0.049356 0.000000 0.000000
# 5 0.000000 0.000000 0.000000 0.000000 0.081253 0.000000
# 6 0.000000 0.000000 0.000000 0.000000 0.000000 0.065001
#
#
# Mechanical properties :
#
#
# Convention : Reuss Voigt Hill
#
# Bulk Modulus (GPa) = 53.26355 54.90379 54.08367
# Shear Modulus (GPa) = 19.72386 23.77509 21.74947
#
# Velocity S-wave (km/s) = 3.18341 3.49509 3.34288
# Velocity P-wave (km/s) = 6.39366 6.67061 6.53360
#
# Compressibility (1/GPa) = 0.01877456
#
# Stress axis : x y z
#
# Youngs Moduli (GPa) = 89.70768 89.69958 77.47544
#
# Poissons Ratio (x) = 0.30610 0.29388
# Poissons Ratio (y) = 0.30612 0.07813
# Poissons Ratio (z) = 0.34028 0.09046
#
# Static dielectric constant tensor:
#      x y z
#    x 3.350360 0.000000 0.000000 
#    y 0.000000 3.774290 0.000000 
#    z 0.000000 0.000000 3.494500 
# 
# 
# High freq. dielectric constant tensor:
#      x y z
#    x 1.722290 0.000000 0.000000 
#    y 0.000000 1.775550 0.000000 
#    z 0.000000 0.000000 1.748870 
# 
# From -- ./inp_files/10656.got.cif
#   From: 2010.03.12/outbox.cif.g09.slc.cpg/sg42_6_cif.got.tgz:10656.got - 2010.04.14 02:04:31.
