data_PCOD8186481
_publ_section_title
;
Structure prediction by ZEFSAII (Michael W. Deem and Ramdas Pophale) SiO2 
 PCOD8186481
Probable space group: F M M 2
;
_chemical_formula_sum "Si O2"
_cell_formula_units_Z 80
_cell_length_a 13.331510
_cell_length_b 22.081818
_cell_length_c 13.836127
_cell_angle_alpha 90.000000
_cell_angle_beta 90.000000
_cell_angle_gamma 90.000000
_cell_volume 4073.134099
_symmetry_space_group_name_H-M "F M M 2"
_symmetry_group_IT_number 42
_symmetry_cell_setting 'orthorhombic'
loop_
_space_group_symop_operation_xyz
x,y,z
-x,-y,z
-x,y,z
x,-y,z
x,1/2+y,1/2+z
-x,1/2-y,1/2+z
-x,1/2+y,1/2+z
x,1/2-y,1/2+z
1/2+x,y,1/2+z
1/2-x,-y,1/2+z
1/2-x,y,1/2+z
1/2+x,-y,1/2+z
1/2+x,1/2+y,z
1/2-x,1/2-y,z
1/2-x,1/2+y,z
1/2+x,1/2-y,z
loop_
_atom_site_type_symbol
_atom_site_label
_atom_site_fract_x
_atom_site_fract_y
_atom_site_fract_z
Si Si1 0.752701 0.850484 0.871370
Si Si2 0.614526 0.863904 0.711204
Si Si3 0.295087 0.929448 0.534331
Si Si4 0.385716 0.776094 0.230729
Si Si5 0.616938 0.852415 0.039411
O O1 0.688370 0.889770 0.793581
O O2 0.820322 0.799656 0.820647
O O3 0.821244 0.898904 0.930107
O O4 0.670922 0.820262 0.946400
O O5 0.500000 0.873790 0.742099
O O6 0.632455 0.897572 0.611042
O O7 0.642572 0.792678 0.705215
O O8 0.177059 0.915781 0.557769
O O9 0.317705 0.000000 0.532438
O O10 0.500000 0.782452 0.263696
O O11 0.364948 0.812554 0.133466
O O12 0.500000 0.864424 0.018604
#
# Coordination Sequence:
#
# PCOD8186481 Si02
#       5
#    16  16  16  16  16
#     4  10  20  37  61  88 119 158 205 250 303 353
#     4  11  23  39  62  92 124 161 202 254 311 365
#     4  10  24  41  60  87 123 166 208 246 296 360
#     4  10  21  38  61  93 126 155 197 252 316 371
#     4   9  20  39  60  89 122 160 204 252 308 360
#
# _framework density 19.640896000000001
#
# number of rings (size 3 to 8) (size 9 to 14) (size 15 to 20)
#    1.200    0.800    2.000    1.200    0.000    5.600 
#    0.000    4.000    0.000    0.000    0.000    0.000 
#    0.000    0.000    0.000    0.000    0.000    0.000 
#
# Total GULP energy -247775.675588 kJ/mol
# GULP energy per Si atom -12388.783779 kJ/mol
# Density = 1.959619 g / cm^3
# Si number density = 19.640896 Si / 1000 Ang^3
#
#
#
# Elastic Constant Matrix: (Units=GPa)
#
#
# Indices 1 2 3 4 5 6 
#
# 1 80.5154 37.0619 41.4902 0.0000 0.0000 0.0000
# 2 37.0619 96.8452 52.5681 0.0000 0.0000 0.0000
# 3 41.4902 52.5681 120.7266 0.0000 0.0000 0.0000
# 4 0.0000 0.0000 0.0000 23.5678 0.0000 0.0000
# 5 0.0000 0.0000 0.0000 0.0000 42.1109 0.0000
# 6 0.0000 0.0000 0.0000 0.0000 0.0000 14.2660
#
#
#
# Elastic Compliance Matrix: (Units=1/GPa)
#
#
# Indices 1 2 3 4 5 6 
#
# 1 0.016293 -0.004185 -0.003777 0.000000 0.000000 0.000000
# 2 -0.004185 0.014597 -0.004918 0.000000 0.000000 0.000000
# 3 -0.003777 -0.004918 0.011723 0.000000 0.000000 0.000000
# 4 0.000000 0.000000 0.000000 0.042431 0.000000 0.000000
# 5 0.000000 0.000000 0.000000 0.000000 0.023747 0.000000
# 6 0.000000 0.000000 0.000000 0.000000 0.000000 0.070097
#
#
# Mechanical properties :
#
#
# Convention : Reuss Voigt Hill
#
# Bulk Modulus (GPa) = 59.33771 62.25862 60.79817
# Shear Modulus (GPa) = 23.77979 27.12008 25.44993
#
# Velocity S-wave (km/s) = 3.48333 3.71994 3.60358
# Velocity P-wave (km/s) = 6.81579 7.08646 6.95244
#
# Compressibility (1/GPa) = 0.01685269
#
# Stress axis : x y z
#
# Youngs Moduli (GPa) = 61.37728 68.50934 85.30581
#
# Poissons Ratio (x) = 0.28670 0.32221
# Poissons Ratio (y) = 0.25685 0.41950
# Poissons Ratio (z) = 0.23183 0.33690
#
# Static dielectric constant tensor:
#      x y z
#    x 3.684130 0.000000 0.000000 
#    y 0.000000 3.286980 0.000000 
#    z 0.000000 0.000000 3.798490 
# 
# 
# High freq. dielectric constant tensor:
#      x y z
#    x 1.773680 0.000000 0.000000 
#    y 0.000000 1.725130 0.000000 
#    z 0.000000 0.000000 1.778270 
# 
# From -- ./inp_files/13818.got.cif
#   From: 2010.03.12/outbox.cif.g09.slc.cpg/sg42_7_cif.got.tgz:13818.got - 2010.04.14 02:04:31.
