data_PCOD8186426
_publ_section_title
;
Structure prediction by ZEFSAII (Michael W. Deem and Ramdas Pophale) SiO2 
 PCOD8186426
Probable space group: F M M 2
;
_chemical_formula_sum "Si O2"
_cell_formula_units_Z 80
_cell_length_a 8.779850
_cell_length_b 18.341445
_cell_length_c 25.325680
_cell_angle_alpha 90.000000
_cell_angle_beta 90.000000
_cell_angle_gamma 90.000000
_cell_volume 4078.324320
_symmetry_space_group_name_H-M "F M M 2"
_symmetry_group_IT_number 42
_symmetry_cell_setting 'orthorhombic'
loop_
_space_group_symop_operation_xyz
x,y,z
-x,-y,z
-x,y,z
x,-y,z
x,1/2+y,1/2+z
-x,1/2-y,1/2+z
-x,1/2+y,1/2+z
x,1/2-y,1/2+z
1/2+x,y,1/2+z
1/2-x,-y,1/2+z
1/2-x,y,1/2+z
1/2+x,-y,1/2+z
1/2+x,1/2+y,z
1/2-x,1/2-y,z
1/2-x,1/2+y,z
1/2+x,1/2-y,z
loop_
_atom_site_type_symbol
_atom_site_label
_atom_site_fract_x
_atom_site_fract_y
_atom_site_fract_z
Si Si1 0.177985 0.325691 0.155840
Si Si2 0.820064 0.172709 0.266578
Si Si3 0.321218 0.170932 0.460591
Si Si4 0.323726 0.916249 0.053865
Si Si5 0.322844 0.084649 0.357651
O O1 0.250000 0.250000 0.135705
O O2 0.256540 0.351684 0.209802
O O3 0.208765 0.387286 0.112551
O O4 0.000000 0.313424 0.166407
O O5 0.750000 0.250000 0.284304
O O6 0.774733 0.111162 0.308151
O O7 0.000000 0.180566 0.263719
O O8 0.500000 0.180162 0.460156
O O9 0.250000 0.250000 0.459735
O O10 0.275983 0.128461 0.513023
O O11 0.264842 0.126338 0.409663
O O12 0.500000 0.906282 0.038910
O O13 0.273112 0.000000 0.052084
O O14 0.500000 0.099947 0.346458
O O15 0.290343 0.000000 0.366940
#
# Coordination Sequence:
#
# PCOD8186426 Si02
#       5
#    16  16  16  16  16
#     4  10  20  36  58  83 113 151 193 236 283 335
#     4  11  22  37  59  86 115 150 193 237 282 333
#     4  11  23  39  61  87 114 149 191 234 282 336
#     4  10  22  39  59  85 117 152 189 232 284 338
#     4  10  22  40  60  84 116 151 187 231 285 341
#
# _framework density 19.6159
#
# number of rings (size 3 to 8) (size 9 to 14) (size 15 to 20)
#    0.000    1.600    0.000    6.000    0.000    8.800 
#    0.000    2.000    0.000    0.000    0.000    0.000 
#    0.000    0.000    0.000    0.000    0.000    0.000 
#
# Total GULP energy -248114.410002 kJ/mol
# GULP energy per Si atom -12405.720500 kJ/mol
# Density = 1.957125 g / cm^3
# Si number density = 19.615900 Si / 1000 Ang^3
#
#
#
# Elastic Constant Matrix: (Units=GPa)
#
#
# Indices 1 2 3 4 5 6 
#
# 1 102.5681 55.9917 57.1816 0.0000 0.0000 0.0000
# 2 55.9917 145.7793 79.0686 0.0000 0.0000 0.0000
# 3 57.1816 79.0686 120.9783 0.0000 0.0000 0.0000
# 4 0.0000 0.0000 0.0000 26.8946 0.0000 0.0000
# 5 0.0000 0.0000 0.0000 0.0000 33.6120 0.0000
# 6 0.0000 0.0000 0.0000 0.0000 0.0000 24.6990
#
#
#
# Elastic Compliance Matrix: (Units=1/GPa)
#
#
# Indices 1 2 3 4 5 6 
#
# 1 0.013917 -0.002754 -0.004778 0.000000 0.000000 0.000000
# 2 -0.002754 0.011172 -0.006000 0.000000 0.000000 0.000000
# 3 -0.004778 -0.006000 0.014446 0.000000 0.000000 0.000000
# 4 0.000000 0.000000 0.000000 0.037182 0.000000 0.000000
# 5 0.000000 0.000000 0.000000 0.000000 0.029751 0.000000
# 6 0.000000 0.000000 0.000000 0.000000 0.000000 0.040488
#
#
# Mechanical properties :
#
#
# Convention : Reuss Voigt Hill
#
# Bulk Modulus (GPa) = 80.18850 83.75661 81.97255
# Shear Modulus (GPa) = 28.06224 28.84669 28.45447
#
# Velocity S-wave (km/s) = 3.78641 3.83897 3.81278
# Velocity P-wave (km/s) = 7.75139 7.90198 7.82704
#
# Compressibility (1/GPa) = 0.01247062
#
# Stress axis : x y z
#
# Youngs Moduli (GPa) = 71.85662 89.51269 69.22403
#
# Poissons Ratio (x) = 0.24648 0.33076
# Poissons Ratio (y) = 0.19786 0.41534
# Poissons Ratio (z) = 0.34334 0.53708
#
# Static dielectric constant tensor:
#      x y z
#    x 3.623960 0.000000 0.000000 
#    y 0.000000 3.578760 0.000000 
#    z 0.000000 0.000000 3.663190 
# 
# 
# High freq. dielectric constant tensor:
#      x y z
#    x 1.769540 0.000000 0.000000 
#    y 0.000000 1.769150 0.000000 
#    z 0.000000 0.000000 1.777140 
# 
# From -- ./inp_files/31255.got.cif
#   From: 2010.03.12/outbox.cif.g09.slc.cpg/sg42_16_cif.got.tgz:31255.got - 2010.04.14 02:04:31.
