data_PCOD8186691
_publ_section_title
;
Structure prediction by ZEFSAII (Michael W. Deem and Ramdas Pophale) SiO2 
 PCOD8186691
Probable space group: F M M 2
;
_chemical_formula_sum "Si O2"
_cell_formula_units_Z 72
_cell_length_a 15.224893
_cell_length_b 13.967455
_cell_length_c 17.243894
_cell_angle_alpha 90.000000
_cell_angle_beta 90.000000
_cell_angle_gamma 90.000000
_cell_volume 3666.965926
_symmetry_space_group_name_H-M "F M M 2"
_symmetry_group_IT_number 42
_symmetry_cell_setting 'orthorhombic'
loop_
_space_group_symop_operation_xyz
x,y,z
-x,-y,z
-x,y,z
x,-y,z
x,1/2+y,1/2+z
-x,1/2-y,1/2+z
-x,1/2+y,1/2+z
x,1/2-y,1/2+z
1/2+x,y,1/2+z
1/2-x,-y,1/2+z
1/2-x,y,1/2+z
1/2+x,-y,1/2+z
1/2+x,1/2+y,z
1/2-x,1/2-y,z
1/2-x,1/2+y,z
1/2+x,1/2-y,z
loop_
_atom_site_type_symbol
_atom_site_label
_atom_site_fract_x
_atom_site_fract_y
_atom_site_fract_z
Si Si1 0.000000 0.000000 0.094770
Si Si2 0.333765 0.500000 0.562612
Si Si3 0.598265 0.348724 0.452161
Si Si4 0.665891 0.184593 0.783299
Si Si5 0.179222 0.500000 0.681924
Si Si6 0.500000 0.794127 0.536046
Si Si7 0.500000 0.000000 0.172183
Si Si8 0.500000 0.286677 0.708419
O O1 0.000000 0.907943 0.039489
O O2 0.919206 0.000000 0.152121
O O3 0.337667 0.593107 0.508472
O O4 0.242808 0.500000 0.608294
O O5 0.413154 0.500000 0.621854
O O6 0.500000 0.395954 0.448766
O O7 0.640483 0.350130 0.368258
O O8 0.586653 0.241324 0.488262
O O9 0.750000 0.250000 0.788865
O O10 0.693935 0.093967 0.732594
O O11 0.585907 0.242931 0.747116
O O12 0.500000 0.740531 0.618366
O O13 0.500000 0.098209 0.222315
#
# Coordination Sequence:
#
# PCOD8186691 Si02
#       8
#     4   8  16  16   8   8   4   8
#     4  12  24  42  62  98 140 176 228 282 336 396
#     4  12  21  40  71 105 127 169 235 289 333 411
#     4  10  22  43  69  96 133 178 225 277 355 414
#     4  12  26  44  66  99 140 182 229 284 353 422
#     4  12  27  40  69 101 133 185 235 285 347 409
#     4  10  21  40  71  98 121 187 225 273 350 400
#     4  12  20  38  70 106 128 160 228 286 344 388
#     4  12  21  44  69  98 135 177 225 291 344 406
#
# _framework density 19.634761000000001
#
# number of rings (size 3 to 8) (size 9 to 14) (size 15 to 20)
#    0.667    0.000    6.667    2.000    0.000    1.778 
#    0.000    3.333    0.000    0.000    0.000    0.000 
#    0.000    0.000    0.000    0.000    0.000    0.000 
#
# Total GULP energy -223160.110338 kJ/mol
# GULP energy per Si atom -12397.783908 kJ/mol
# Density = 1.959007 g / cm^3
# Si number density = 19.634761 Si / 1000 Ang^3
#
#
#
# Elastic Constant Matrix: (Units=GPa)
#
#
# Indices 1 2 3 4 5 6 
#
# 1 106.4223 17.3471 54.9127 0.0000 0.0000 0.0000
# 2 17.3471 140.0084 54.6916 0.0000 0.0000 0.0000
# 3 54.9127 54.6916 130.3631 0.0000 0.0000 0.0000
# 4 0.0000 0.0000 0.0000 5.3695 0.0000 0.0000
# 5 0.0000 0.0000 0.0000 0.0000 47.6448 0.0000
# 6 0.0000 0.0000 0.0000 0.0000 0.0000 26.1381
#
#
#
# Elastic Compliance Matrix: (Units=1/GPa)
#
#
# Indices 1 2 3 4 5 6 
#
# 1 0.012046 0.000586 -0.005320 0.000000 0.000000 0.000000
# 2 0.000586 0.008571 -0.003842 0.000000 0.000000 0.000000
# 3 -0.005320 -0.003842 0.011524 0.000000 0.000000 0.000000
# 4 0.000000 0.000000 0.000000 0.186238 0.000000 0.000000
# 5 0.000000 0.000000 0.000000 0.000000 0.020989 0.000000
# 6 0.000000 0.000000 0.000000 0.000000 0.000000 0.038258
#
#
# Mechanical properties :
#
#
# Convention : Reuss Voigt Hill
#
# Bulk Modulus (GPa) = 66.72295 70.07740 68.40017
# Shear Modulus (GPa) = 16.67918 32.48662 24.58290
#
# Velocity S-wave (km/s) = 2.91773 4.07202 3.54221
# Velocity P-wave (km/s) = 6.73845 7.60766 7.18621
#
# Compressibility (1/GPa) = 0.01498735
#
# Stress axis : x y z
#
# Youngs Moduli (GPa) = 83.01481 116.67469 86.77727
#
# Poissons Ratio (x) = -0.06832 0.46164
# Poissons Ratio (y) = -0.04861 0.33343
# Poissons Ratio (z) = 0.44162 0.44831
#
# Static dielectric constant tensor:
#      x y z
#    x 3.750970 0.000000 0.000000 
#    y 0.000000 5.223840 0.000000 
#    z 0.000000 0.000000 3.673410 
# 
# 
# High freq. dielectric constant tensor:
#      x y z
#    x 1.761470 0.000000 0.000000 
#    y 0.000000 1.772500 0.000000 
#    z 0.000000 0.000000 1.772210 
# 
# From -- ./inp_files/19762.got.cif
#   From: 2010.03.12/outbox.cif.g09.slc.cpg/sg42_10_cif.got.tgz:19762.got - 2010.04.14 02:04:31.
