data_PCOD8186559
_publ_section_title
;
Structure prediction by ZEFSAII (Michael W. Deem and Ramdas Pophale) SiO2 
 PCOD8186559
Probable space group: F M M 2
;
_chemical_formula_sum "Si O2"
_cell_formula_units_Z 96
_cell_length_a 20.307283
_cell_length_b 10.593586
_cell_length_c 22.087561
_cell_angle_alpha 90.000000
_cell_angle_beta 90.000000
_cell_angle_gamma 90.000000
_cell_volume 4751.629606
_symmetry_space_group_name_H-M "F M M 2"
_symmetry_group_IT_number 42
_symmetry_cell_setting 'orthorhombic'
loop_
_space_group_symop_operation_xyz
x,y,z
-x,-y,z
-x,y,z
x,-y,z
x,1/2+y,1/2+z
-x,1/2-y,1/2+z
-x,1/2+y,1/2+z
x,1/2-y,1/2+z
1/2+x,y,1/2+z
1/2-x,-y,1/2+z
1/2-x,y,1/2+z
1/2+x,-y,1/2+z
1/2+x,1/2+y,z
1/2-x,1/2-y,z
1/2-x,1/2+y,z
1/2+x,1/2-y,z
loop_
_atom_site_type_symbol
_atom_site_label
_atom_site_fract_x
_atom_site_fract_y
_atom_site_fract_z
Si Si1 0.299674 0.643974 0.718110
Si Si2 0.792518 0.364513 0.955436
Si Si3 0.927208 0.354051 0.291438
Si Si4 0.660727 0.360417 0.584813
Si Si5 0.074991 0.361740 0.542433
Si Si6 0.574078 0.268058 0.419612
O O1 0.280221 0.500000 0.738284
O O2 0.250000 0.750000 0.744901
O O3 0.372750 0.679730 0.741350
O O4 0.297604 0.654148 0.645785
O O5 0.761607 0.500000 0.936154
O O6 0.750000 0.250000 0.926426
O O7 0.868538 0.368306 0.933512
O O8 0.789614 0.351246 0.028158
O O9 0.925665 0.500000 0.307521
O O10 0.911480 0.283796 0.353464
O O11 0.000000 0.315522 0.266778
O O12 0.626130 0.500000 0.584507
O O13 0.608011 0.248500 0.581414
O O14 0.106396 0.500000 0.556362
O O15 0.081449 0.340621 0.470256
O O16 0.000000 0.361740 0.563141
O O17 0.500000 0.327598 0.423457
#
# Coordination Sequence:
#
# PCOD8186559 Si02
#       6
#    16  16  16  16  16  16
#     4  10  21  37  57  80 106 139 179 222 267 314
#     4  10  21  35  53  80 111 142 176 216 264 316
#     4   9  18  34  56  80 106 139 180 222 263 311
#     4   9  19  34  51  74 104 140 179 216 260 313
#     4   9  17  29  49  79 110 139 173 214 261 313
#     4   9  18  34  55  78 107 142 178 216 261 313
#
# _framework density 20.203593999999999
#
# number of rings (size 3 to 8) (size 9 to 14) (size 15 to 20)
#    0.000    2.667    0.000    1.000    0.000    8.000 
#    0.000    7.500    0.000    1.500    0.000    0.000 
#    0.000    0.000    0.000    0.000    0.000    0.000 
#
# Total GULP energy -297369.803505 kJ/mol
# GULP energy per Si atom -12390.408479 kJ/mol
# Density = 2.015761 g / cm^3
# Si number density = 20.203594 Si / 1000 Ang^3
#
#
#
# Elastic Constant Matrix: (Units=GPa)
#
#
# Indices 1 2 3 4 5 6 
#
# 1 98.4846 66.8954 24.2712 0.0000 0.0000 0.0000
# 2 66.8954 157.9369 15.1767 0.0000 0.0000 0.0000
# 3 24.2712 15.1767 48.7302 0.0000 0.0000 0.0000
# 4 0.0000 0.0000 0.0000 14.0632 0.0000 0.0000
# 5 0.0000 0.0000 0.0000 0.0000 19.0528 0.0000
# 6 0.0000 0.0000 0.0000 0.0000 0.0000 33.7027
#
#
#
# Elastic Compliance Matrix: (Units=1/GPa)
#
#
# Indices 1 2 3 4 5 6 
#
# 1 0.015769 -0.006107 -0.005952 0.000000 0.000000 0.000000
# 2 -0.006107 0.008892 0.000272 0.000000 0.000000 0.000000
# 3 -0.005952 0.000272 0.023401 0.000000 0.000000 0.000000
# 4 0.000000 0.000000 0.000000 0.071108 0.000000 0.000000
# 5 0.000000 0.000000 0.000000 0.000000 0.052486 0.000000
# 6 0.000000 0.000000 0.000000 0.000000 0.000000 0.029671
#
#
# Mechanical properties :
#
#
# Convention : Reuss Voigt Hill
#
# Bulk Modulus (GPa) = 40.83566 57.53760 49.18663
# Shear Modulus (GPa) = 21.45341 26.61761 24.03551
#
# Velocity S-wave (km/s) = 3.26216 3.63363 3.45289
# Velocity P-wave (km/s) = 5.86897 6.79302 6.34783
#
# Compressibility (1/GPa) = 0.02448840
#
# Stress axis : x y z
#
# Youngs Moduli (GPa) = 63.41555 112.45820 42.73343
#
# Poissons Ratio (x) = 0.68680 0.25435
# Poissons Ratio (y) = 0.38729 -0.01164
# Poissons Ratio (z) = 0.37745 -0.03063
#
# Static dielectric constant tensor:
#      x y z
#    x 3.642700 0.000000 0.000000 
#    y 0.000000 3.744240 0.000000 
#    z 0.000000 0.000000 3.420020 
# 
# 
# High freq. dielectric constant tensor:
#      x y z
#    x 1.780240 0.000000 0.000000 
#    y 0.000000 1.786960 0.000000 
#    z 0.000000 0.000000 1.766220 
# 
# From -- ./inp_files/26419.got.cif
#   From: 2010.03.12/outbox.cif.g09.slc.cpg/sg42_14_cif.got.tgz:26419.got - 2010.04.14 02:04:31.
