data_PCOD8186102
_publ_section_title
;
Structure prediction by ZEFSAII (Michael W. Deem and Ramdas Pophale) SiO2 
 PCOD8186102
Probable space group: F M M 2
;
_chemical_formula_sum "Si O2"
_cell_formula_units_Z 96
_cell_length_a 17.430719
_cell_length_b 27.200994
_cell_length_c 9.855171
_cell_angle_alpha 90.000000
_cell_angle_beta 90.000000
_cell_angle_gamma 90.000000
_cell_volume 4672.660638
_symmetry_space_group_name_H-M "F M M 2"
_symmetry_group_IT_number 42
_symmetry_cell_setting 'orthorhombic'
loop_
_space_group_symop_operation_xyz
x,y,z
-x,-y,z
-x,y,z
x,-y,z
x,1/2+y,1/2+z
-x,1/2-y,1/2+z
-x,1/2+y,1/2+z
x,1/2-y,1/2+z
1/2+x,y,1/2+z
1/2-x,-y,1/2+z
1/2-x,y,1/2+z
1/2+x,-y,1/2+z
1/2+x,1/2+y,z
1/2-x,1/2-y,z
1/2-x,1/2+y,z
1/2+x,1/2-y,z
loop_
_atom_site_type_symbol
_atom_site_label
_atom_site_fract_x
_atom_site_fract_y
_atom_site_fract_z
Si Si1 0.912919 0.295062 0.899280
Si Si2 0.151026 0.555505 0.265313
Si Si3 0.664616 0.728719 0.113969
Si Si4 0.168895 0.552444 0.736246
Si Si5 0.357621 0.603472 0.495073
Si Si6 0.178705 0.876935 0.010393
O O1 0.861622 0.281147 0.768575
O O2 0.000000 0.281674 0.862817
O O3 0.888322 0.267137 0.036086
O O4 0.908376 0.352117 0.939291
O O5 0.118316 0.500000 0.295848
O O6 0.239786 0.550227 0.233501
O O7 0.110263 0.580677 0.135140
O O8 0.138669 0.594703 0.385777
O O9 0.750000 0.750000 0.122519
O O10 0.657455 0.680066 0.020691
O O11 0.137766 0.500000 0.681683
O O12 0.142287 0.596815 0.641646
O O13 0.137217 0.559563 0.886947
O O14 0.270173 0.621308 0.506510
#
# Coordination Sequence:
#
# PCOD8186102 Si02
#       6
#    16  16  16  16  16  16
#     4  12  27  44  62  92 129 169 211 264 326 383
#     4   9  18  30  53  90 126 155 196 257 313 363
#     4  12  25  42  68  94 123 168 218 270 315 378
#     4   9  16  29  51  82 122 157 195 253 310 364
#     4  10  19  33  56  85 123 159 202 247 309 376
#     4  10  19  33  56  91 121 155 203 256 311 362
#
# _framework density 20.54504
#
# number of rings (size 3 to 8) (size 9 to 14) (size 15 to 20)
#    0.000    1.667    3.333    2.000    2.333    4.000 
#    0.000    0.000    0.000    2.000    0.000    0.000 
#    0.000    0.000    0.000    0.000    0.000    0.000 
#
# Total GULP energy -297450.254857 kJ/mol
# GULP energy per Si atom -12393.760619 kJ/mol
# Density = 2.049828 g / cm^3
# Si number density = 20.545040 Si / 1000 Ang^3
#
#
#
# Elastic Constant Matrix: (Units=GPa)
#
#
# Indices 1 2 3 4 5 6 
#
# 1 52.4765 28.6107 23.5399 0.0000 0.0000 0.0000
# 2 28.6107 123.6252 42.5731 0.0000 0.0000 0.0000
# 3 23.5399 42.5731 124.7599 0.0000 0.0000 0.0000
# 4 0.0000 0.0000 0.0000 32.3403 0.0000 0.0000
# 5 0.0000 0.0000 0.0000 0.0000 12.0808 0.0000
# 6 0.0000 0.0000 0.0000 0.0000 0.0000 7.6174
#
#
#
# Elastic Compliance Matrix: (Units=1/GPa)
#
#
# Indices 1 2 3 4 5 6 
#
# 1 0.022648 -0.004272 -0.002816 0.000000 0.000000 0.000000
# 2 -0.004272 0.009972 -0.002597 0.000000 0.000000 0.000000
# 3 -0.002816 -0.002597 0.009433 0.000000 0.000000 0.000000
# 4 0.000000 0.000000 0.000000 0.030921 0.000000 0.000000
# 5 0.000000 0.000000 0.000000 0.000000 0.082776 0.000000
# 6 0.000000 0.000000 0.000000 0.000000 0.000000 0.131278
#
#
# Mechanical properties :
#
#
# Convention : Reuss Voigt Hill
#
# Bulk Modulus (GPa) = 44.08314 54.47875 49.28095
# Shear Modulus (GPa) = 15.92571 24.15024 20.03797
#
# Velocity S-wave (km/s) = 2.78719 3.43224 3.12640
# Velocity P-wave (km/s) = 5.64458 6.50241 6.08862
#
# Compressibility (1/GPa) = 0.02268441
#
# Stress axis : x y z
#
# Youngs Moduli (GPa) = 44.15355 100.28211 106.01345
#
# Poissons Ratio (x) = 0.42839 0.29849
# Poissons Ratio (y) = 0.18862 0.27529
# Poissons Ratio (z) = 0.12432 0.26041
#
# Static dielectric constant tensor:
#      x y z
#    x 3.143490 0.000000 0.000000 
#    y 0.000000 3.994720 0.000000 
#    z 0.000000 0.000000 3.887550 
# 
# 
# High freq. dielectric constant tensor:
#      x y z
#    x 1.738250 0.000000 0.000000 
#    y 0.000000 1.823980 0.000000 
#    z 0.000000 0.000000 1.816990 
# 
# From -- ./inp_files/4190.got.cif
#   From: 2010.03.12/outbox.cif.g09.slc.cpg/sg42_3_cif.got.tgz:4190.got - 2010.04.14 02:04:31.
