data_PCOD8186512
_publ_section_title
;
Structure prediction by ZEFSAII (Michael W. Deem and Ramdas Pophale) SiO2 
 PCOD8186512
Probable space group: F M M 2
;
_chemical_formula_sum "Si O2"
_cell_formula_units_Z 88
_cell_length_a 21.438520
_cell_length_b 13.579219
_cell_length_c 13.099958
_cell_angle_alpha 90.000000
_cell_angle_beta 90.000000
_cell_angle_gamma 90.000000
_cell_volume 3813.638264
_symmetry_space_group_name_H-M "F M M 2"
_symmetry_group_IT_number 42
_symmetry_cell_setting 'orthorhombic'
loop_
_space_group_symop_operation_xyz
x,y,z
-x,-y,z
-x,y,z
x,-y,z
x,1/2+y,1/2+z
-x,1/2-y,1/2+z
-x,1/2+y,1/2+z
x,1/2-y,1/2+z
1/2+x,y,1/2+z
1/2-x,-y,1/2+z
1/2-x,y,1/2+z
1/2+x,-y,1/2+z
1/2+x,1/2+y,z
1/2-x,1/2-y,z
1/2-x,1/2+y,z
1/2+x,1/2-y,z
loop_
_atom_site_type_symbol
_atom_site_label
_atom_site_fract_x
_atom_site_fract_y
_atom_site_fract_z
Si Si1 0.287646 0.387821 0.904180
Si Si2 0.250000 0.750000 0.239793
Si Si3 0.644493 0.113300 0.948541
Si Si4 0.659058 0.885437 0.614176
Si Si5 0.429532 0.610806 0.645223
Si Si6 0.570907 0.798781 0.764000
O O1 0.296089 0.500000 0.867342
O O2 0.297536 0.314842 0.809134
O O3 0.218389 0.370706 0.950032
O O4 0.337174 0.360826 0.993355
O O5 0.288763 0.675110 0.173210
O O6 0.614593 0.176154 0.858419
O O7 0.626173 0.000000 0.929688
O O8 0.617611 0.148223 0.057432
O O9 0.591943 0.857693 0.661355
O O10 0.674020 0.000000 0.631932
O O11 0.500000 0.615605 0.601277
O O12 0.412901 0.500000 0.681039
O O13 0.423041 0.681877 0.742639
O O14 0.500000 0.829210 0.788019
#
# Coordination Sequence:
#
# PCOD8186512 Si02
#       6
#    16   8  16  16  16  16
#     4  10  23  40  59  89 129 165 207 264 317 375
#     4  12  22  38  66  90 118 168 212 260 314 370
#     4  10  20  38  64  91 122 167 219 263 309 367
#     4  11  25  42  62  94 130 165 210 261 318 379
#     4   9  20  38  60  89 125 164 211 262 310 372
#     4  11  23  39  66  99 129 165 211 264 319 375
#
# _framework density 23.075077
#
# number of rings (size 3 to 8) (size 9 to 14) (size 15 to 20)
#    0.000    1.636    1.818    2.182    5.091    2.182 
#    0.000    0.909    0.000    2.182    0.000    5.091 
#    0.000    0.000    0.000    0.000    0.000    0.000 
#
# Total GULP energy -272856.896708 kJ/mol
# GULP energy per Si atom -12402.586214 kJ/mol
# Density = 2.302256 g / cm^3
# Si number density = 23.075077 Si / 1000 Ang^3
#
#
#
# Elastic Constant Matrix: (Units=GPa)
#
#
# Indices 1 2 3 4 5 6 
#
# 1 48.3723 1.5192 -7.9799 0.0000 0.0000 0.0000
# 2 1.5192 85.5563 31.3925 0.0000 0.0000 0.0000
# 3 -7.9799 31.3925 61.2478 0.0000 0.0000 0.0000
# 4 0.0000 0.0000 0.0000 32.7452 0.0000 0.0000
# 5 0.0000 0.0000 0.0000 0.0000 27.3187 0.0000
# 6 0.0000 0.0000 0.0000 0.0000 0.0000 29.8009
#
#
#
# Elastic Compliance Matrix: (Units=1/GPa)
#
#
# Indices 1 2 3 4 5 6 
#
# 1 0.021331 -0.001722 0.003662 0.000000 0.000000 0.000000
# 2 -0.001722 0.014535 -0.007674 0.000000 0.000000 0.000000
# 3 0.003662 -0.007674 0.020738 0.000000 0.000000 0.000000
# 4 0.000000 0.000000 0.000000 0.030539 0.000000 0.000000
# 5 0.000000 0.000000 0.000000 0.000000 0.036605 0.000000
# 6 0.000000 0.000000 0.000000 0.000000 0.000000 0.033556
#
#
# Mechanical properties :
#
#
# Convention : Reuss Voigt Hill
#
# Bulk Modulus (GPa) = 22.15607 27.22666 24.69136
# Shear Modulus (GPa) = 27.20097 29.32261 28.26179
#
# Velocity S-wave (km/s) = 3.43709 3.56862 3.50348
# Velocity P-wave (km/s) = 5.03727 5.36702 5.20475
#
# Compressibility (1/GPa) = 0.04513437
#
# Stress axis : x y z
#
# Youngs Moduli (GPa) = 46.87969 68.80137 48.22165
#
# Poissons Ratio (x) = 0.11851 -0.17659
# Poissons Ratio (y) = 0.08075 0.37006
# Poissons Ratio (z) = -0.17168 0.52799
#
# Static dielectric constant tensor:
#      x y z
#    x 4.303460 0.000000 0.000000 
#    y 0.000000 4.489270 0.000000 
#    z 0.000000 0.000000 4.030680 
# 
# 
# High freq. dielectric constant tensor:
#      x y z
#    x 1.901400 0.000000 0.000000 
#    y 0.000000 1.934800 0.000000 
#    z 0.000000 0.000000 1.901010 
# 
# From -- ./inp_files/10613.got.cif
#   From: 2010.03.12/outbox.cif.g09.slc.cpg/sg42_6_cif.got.tgz:10613.got - 2010.04.14 02:04:31.
