data_PCOD8186867
_publ_section_title
;
Structure prediction by ZEFSAII (Michael W. Deem and Ramdas Pophale) SiO2 
 PCOD8186867
Probable space group: F M M 2
;
_chemical_formula_sum "Si O2"
_cell_formula_units_Z 80
_cell_length_a 24.899742
_cell_length_b 18.020429
_cell_length_c 7.651287
_cell_angle_alpha 90.000000
_cell_angle_beta 90.000000
_cell_angle_gamma 90.000000
_cell_volume 3433.163333
_symmetry_space_group_name_H-M "F M M 2"
_symmetry_group_IT_number 42
_symmetry_cell_setting 'orthorhombic'
loop_
_space_group_symop_operation_xyz
x,y,z
-x,-y,z
-x,y,z
x,-y,z
x,1/2+y,1/2+z
-x,1/2-y,1/2+z
-x,1/2+y,1/2+z
x,1/2-y,1/2+z
1/2+x,y,1/2+z
1/2-x,-y,1/2+z
1/2-x,y,1/2+z
1/2+x,-y,1/2+z
1/2+x,1/2+y,z
1/2-x,1/2-y,z
1/2-x,1/2+y,z
1/2+x,1/2-y,z
loop_
_atom_site_type_symbol
_atom_site_label
_atom_site_fract_x
_atom_site_fract_y
_atom_site_fract_z
Si Si1 0.827916 0.587342 0.812020
Si Si2 0.561146 0.585260 0.836463
Si Si3 0.300034 0.193739 0.104683
Si Si4 0.441936 0.412451 0.443151
Si Si5 0.842615 0.332611 0.477958
O O1 0.817192 0.500000 0.823369
O O2 0.809142 0.620352 0.625197
O O3 0.794664 0.625996 0.968245
O O4 0.891362 0.608962 0.824256
O O5 0.500000 0.593582 0.900102
O O6 0.579975 0.500000 0.853125
O O7 0.568754 0.615701 0.640147
O O8 0.598050 0.634190 0.961701
O O9 0.250000 0.250000 0.095511
O O10 0.309550 0.160931 0.296864
O O11 0.349016 0.247179 0.040691
O O12 0.500000 0.381097 0.374069
O O13 0.447128 0.500000 0.455321
#
# Coordination Sequence:
#
# PCOD8186867 Si02
#       5
#    16  16  16  16  16
#     4  11  24  43  73 111 142 181 243 304 355 426
#     4   9  18  36  66 104 148 194 236 289 357 424
#     4  12  27  48  75  96 141 194 240 295 376 437
#     4   8  15  32  61  99 143 185 222 274 348 420
#     4  12  24  43  73 104 139 195 240 287 356 443
#
# _framework density 23.302123000000002
#
# number of rings (size 3 to 8) (size 9 to 14) (size 15 to 20)
#    0.000    1.600    4.000    2.400    0.000    2.400 
#    0.000    6.000    0.000    0.000    0.000    0.000 
#    0.000    0.000    0.000    0.000    0.000    0.000 
#
# Total GULP energy -247906.670898 kJ/mol
# GULP energy per Si atom -12395.333545 kJ/mol
# Density = 2.324909 g / cm^3
# Si number density = 23.302123 Si / 1000 Ang^3
#
#
#
# Elastic Constant Matrix: (Units=GPa)
#
#
# Indices 1 2 3 4 5 6 
#
# 1 59.4839 39.8259 43.3945 0.0001 0.0000 0.0000
# 2 39.8259 132.3345 69.6319 -0.0003 0.0000 0.0000
# 3 43.3945 69.6319 175.4506 -0.0009 -0.0001 0.0000
# 4 0.0001 -0.0003 -0.0009 39.9441 0.0000 0.0000
# 5 0.0000 0.0000 -0.0001 0.0000 28.1212 0.0000
# 6 0.0000 0.0000 0.0000 0.0000 0.0000 36.7240
#
#
#
# Elastic Compliance Matrix: (Units=1/GPa)
#
#
# Indices 1 2 3 4 5 6 
#
# 1 0.022794 -0.004921 -0.003685 0.000000 0.000000 0.000000
# 2 -0.004921 0.010614 -0.002995 0.000000 0.000000 0.000000
# 3 -0.003685 -0.002995 0.007800 0.000000 0.000000 0.000000
# 4 0.000000 0.000000 0.000000 0.025035 0.000000 0.000000
# 5 0.000000 0.000000 0.000000 0.000000 0.035560 0.000000
# 6 0.000000 0.000000 0.000000 0.000000 0.000000 0.027230
#
#
# Mechanical properties :
#
#
# Convention : Reuss Voigt Hill
#
# Bulk Modulus (GPa) = 55.53829 74.77485 65.15657
# Shear Modulus (GPa) = 31.59834 35.25233 33.42534
#
# Velocity S-wave (km/s) = 3.68642 3.89374 3.79150
# Velocity P-wave (km/s) = 6.48116 7.23698 6.86947
#
# Compressibility (1/GPa) = 0.01800559
#
# Stress axis : x y z
#
# Youngs Moduli (GPa) = 43.87114 94.21912 128.21122
#
# Poissons Ratio (x) = 0.46366 0.47241
# Poissons Ratio (y) = 0.21589 0.38401
# Poissons Ratio (z) = 0.16165 0.28220
#
# Static dielectric constant tensor:
#      x y z
#    x 4.564530 0.000000 0.000000 
#    y 0.000000 4.113670 0.000000 
#    z 0.000000 0.000000 4.256670 
# 
# 
# High freq. dielectric constant tensor:
#      x y z
#    x 1.921740 0.000000 0.000000 
#    y 0.000000 1.899660 0.000000 
#    z 0.000000 0.000000 1.928230 
# 
# From -- ./inp_files/5096.got.cif
#   From: 2010.03.12/outbox.cif.g09.slc.cpg/sg42_3_cif.got.tgz:5096.got - 2010.04.14 02:04:31.
