data_PCOD8186141
_publ_section_title
;
Structure prediction by ZEFSAII (Michael W. Deem and Ramdas Pophale) SiO2 
 PCOD8186141
Probable space group: F M M 2
;
_chemical_formula_sum "Si O2"
_cell_formula_units_Z 96
_cell_length_a 32.225918
_cell_length_b 15.091668
_cell_length_c 9.827044
_cell_angle_alpha 90.000000
_cell_angle_beta 90.000000
_cell_angle_gamma 90.000000
_cell_volume 4779.312640
_symmetry_space_group_name_H-M "F M M 2"
_symmetry_group_IT_number 42
_symmetry_cell_setting 'orthorhombic'
loop_
_space_group_symop_operation_xyz
x,y,z
-x,-y,z
-x,y,z
x,-y,z
x,1/2+y,1/2+z
-x,1/2-y,1/2+z
-x,1/2+y,1/2+z
x,1/2-y,1/2+z
1/2+x,y,1/2+z
1/2-x,-y,1/2+z
1/2-x,y,1/2+z
1/2+x,-y,1/2+z
1/2+x,1/2+y,z
1/2-x,1/2-y,z
1/2-x,1/2+y,z
1/2+x,1/2-y,z
loop_
_atom_site_type_symbol
_atom_site_label
_atom_site_fract_x
_atom_site_fract_y
_atom_site_fract_z
Si Si1 0.812571 0.500000 0.616030
Si Si2 0.924574 0.000000 0.868229
Si Si3 0.163670 0.500000 0.304715
Si Si4 0.546852 0.334391 0.188172
Si Si5 0.429061 0.311197 0.889285
Si Si6 0.332279 0.690654 0.816083
Si Si7 0.902214 0.500000 0.682534
Si Si8 0.791279 0.804943 0.102744
O O1 0.830310 0.500000 0.465897
O O2 0.852894 0.500000 0.715974
O O3 0.785707 0.409970 0.638314
O O4 0.949069 0.092385 0.847962
O O5 0.885026 0.000000 0.768384
O O6 0.909207 0.000000 0.022827
O O7 0.181849 0.405806 0.251512
O O8 0.500000 0.369429 0.167680
O O9 0.546469 0.259965 0.303009
O O10 0.576071 0.412917 0.244405
O O11 0.563950 0.292245 0.048464
O O12 0.379925 0.311897 0.861655
O O13 0.326452 0.766153 0.703334
O O14 0.304241 0.711335 0.947552
O O15 0.750000 0.750000 0.134886
#
# Coordination Sequence:
#
# PCOD8186141 Si02
#       8
#     8   8   8  16  16  16   8  16
#     4   9  18  36  56  77 107 147 183 216 266 329
#     4   7  14  29  52  76  97 135 187 218 247 310
#     4   7  14  29  53  76 102 135 177 222 259 306
#     4  11  21  34  54  84 112 139 179 232 281 322
#     4  10  19  35  57  79 108 147 185 224 269 329
#     4  10  19  36  57  80 107 147 189 221 267 332
#     4   9  17  34  57  77 101 145 191 222 255 323
#     4  11  22  36  56  83 112 142 181 234 280 318
#
# _framework density 20.086569000000001
#
# number of rings (size 3 to 8) (size 9 to 14) (size 15 to 20)
#    0.000    2.333    0.000    6.250    0.000    0.667 
#    0.000    5.417    0.000    2.000    0.000    0.000 
#    0.000    0.000    0.000    0.000    0.000    0.000 
#
# Total GULP energy -297356.790511 kJ/mol
# GULP energy per Si atom -12389.866271 kJ/mol
# Density = 2.004085 g / cm^3
# Si number density = 20.086569 Si / 1000 Ang^3
#
#
#
# Elastic Constant Matrix: (Units=GPa)
#
#
# Indices 1 2 3 4 5 6 
#
# 1 75.3360 25.2081 -2.7207 0.0000 0.0000 0.0000
# 2 25.2081 152.3994 38.4755 0.0000 0.0000 0.0000
# 3 -2.7207 38.4755 52.1648 0.0000 0.0000 0.0000
# 4 0.0000 0.0000 0.0000 27.5172 0.0000 0.0000
# 5 0.0000 0.0000 0.0000 0.0000 23.5025 0.0000
# 6 0.0000 0.0000 0.0000 0.0000 0.0000 24.7040
#
#
#
# Elastic Compliance Matrix: (Units=1/GPa)
#
#
# Indices 1 2 3 4 5 6 
#
# 1 0.014446 -0.003170 0.003092 0.000000 0.000000 0.000000
# 2 -0.003170 0.008759 -0.006626 0.000000 0.000000 0.000000
# 3 0.003092 -0.006626 0.024218 0.000000 0.000000 0.000000
# 4 0.000000 0.000000 0.000000 0.036341 0.000000 0.000000
# 5 0.000000 0.000000 0.000000 0.000000 0.042549 0.000000
# 6 0.000000 0.000000 0.000000 0.000000 0.000000 0.040479
#
#
# Mechanical properties :
#
#
# Convention : Reuss Voigt Hill
#
# Bulk Modulus (GPa) = 29.39872 44.64734 37.02303
# Shear Modulus (GPa) = 26.10441 29.74056 27.92249
#
# Velocity S-wave (km/s) = 3.60890 3.85206 3.73246
# Velocity P-wave (km/s) = 5.65980 6.48538 6.08660
#
# Compressibility (1/GPa) = 0.03401509
#
# Stress axis : x y z
#
# Youngs Moduli (GPa) = 69.22218 114.17100 41.29134
#
# Poissons Ratio (x) = 0.36193 -0.12766
# Poissons Ratio (y) = 0.21944 0.27358
# Poissons Ratio (z) = -0.21401 0.75645
#
# Static dielectric constant tensor:
#      x y z
#    x 3.486200 0.000000 0.000000 
#    y 0.000000 4.353530 0.000000 
#    z 0.000000 0.000000 3.209650 
# 
# 
# High freq. dielectric constant tensor:
#      x y z
#    x 1.773980 0.000000 0.000000 
#    y 0.000000 1.803860 0.000000 
#    z 0.000000 0.000000 1.740590 
# 
# From -- ./inp_files/11078.got.cif
#   From: 2010.03.12/outbox.cif.g09.slc.cpg/sg42_6_cif.got.tgz:11078.got - 2010.04.14 02:04:31.
