data_PCOD8186133
_publ_section_title
;
Structure prediction by ZEFSAII (Michael W. Deem and Ramdas Pophale) SiO2 
 PCOD8186133
Probable space group: F M M 2
;
_chemical_formula_sum "Si O2"
_cell_formula_units_Z 96
_cell_length_a 15.002115
_cell_length_b 20.088779
_cell_length_c 14.643453
_cell_angle_alpha 90.000000
_cell_angle_beta 90.000000
_cell_angle_gamma 90.000000
_cell_volume 4413.158534
_symmetry_space_group_name_H-M "F M M 2"
_symmetry_group_IT_number 42
_symmetry_cell_setting 'orthorhombic'
loop_
_space_group_symop_operation_xyz
x,y,z
-x,-y,z
-x,y,z
x,-y,z
x,1/2+y,1/2+z
-x,1/2-y,1/2+z
-x,1/2+y,1/2+z
x,1/2-y,1/2+z
1/2+x,y,1/2+z
1/2-x,-y,1/2+z
1/2-x,y,1/2+z
1/2+x,-y,1/2+z
1/2+x,1/2+y,z
1/2-x,1/2-y,z
1/2-x,1/2+y,z
1/2+x,1/2-y,z
loop_
_atom_site_type_symbol
_atom_site_label
_atom_site_fract_x
_atom_site_fract_y
_atom_site_fract_z
Si Si1 0.605257 0.575501 0.746300
Si Si2 0.894486 0.119721 0.943369
Si Si3 0.599226 0.684153 0.263959
Si Si4 0.163851 0.204251 0.651787
Si Si5 0.106452 0.269369 0.953696
Si Si6 0.393909 0.427004 0.135209
O O1 0.500000 0.590714 0.733907
O O2 0.626848 0.500000 0.713817
O O3 0.634859 0.581678 0.852020
O O4 0.663642 0.628383 0.688413
O O5 0.857130 0.194546 0.945197
O O6 0.000000 0.120918 0.948803
O O7 0.855341 0.083253 0.033091
O O8 0.500000 0.658318 0.282275
O O9 0.590178 0.753733 0.207983
O O10 0.644235 0.692552 0.363841
O O11 0.649494 0.627631 0.203534
O O12 0.250000 0.250000 0.673764
O O13 0.145610 0.197704 0.544406
O O14 0.000000 0.271037 0.956853
O O15 0.500000 0.417954 0.131682
O O16 0.366568 0.500000 0.170414
#
# Coordination Sequence:
#
# PCOD8186133 Si02
#       6
#    16  16  16  16  16  16
#     4  10  20  37  63  93 123 157 205 261 309 356
#     4   9  15  27  54  88 116 142 185 253 308 342
#     4  10  19  35  58  82 110 148 196 249 297 348
#     4  12  24  37  56  86 120 161 194 241 303 373
#     4  10  19  34  58  84 111 147 201 255 294 347
#     4   9  16  27  48  82 117 143 177 231 296 354
#
# _framework density 21.753126999999999
#
# number of rings (size 3 to 8) (size 9 to 14) (size 15 to 20)
#    0.000    2.000    3.333    2.000    0.000    2.667 
#    0.000    1.667    0.000    3.000    0.000    0.000 
#    0.000    0.000    0.000    0.000    0.000    0.000 
#
# Total GULP energy -297424.823258 kJ/mol
# GULP energy per Si atom -12392.700969 kJ/mol
# Density = 2.170362 g / cm^3
# Si number density = 21.753127 Si / 1000 Ang^3
#
#
#
# Elastic Constant Matrix: (Units=GPa)
#
#
# Indices 1 2 3 4 5 6 
#
# 1 29.2309 18.6495 16.2092 0.0000 0.0000 0.0000
# 2 18.6495 182.7718 87.8201 0.0000 0.0000 0.0000
# 3 16.2092 87.8201 181.8704 0.0000 0.0000 0.0000
# 4 0.0000 0.0000 0.0000 38.2144 0.0000 0.0000
# 5 0.0000 0.0000 0.0000 0.0000 8.2515 0.0000
# 6 0.0000 0.0000 0.0000 0.0000 0.0000 15.3058
#
#
#
# Elastic Compliance Matrix: (Units=1/GPa)
#
#
# Indices 1 2 3 4 5 6 
#
# 1 0.037103 -0.002861 -0.001925 0.000000 0.000000 0.000000
# 2 -0.002861 0.007345 -0.003292 0.000000 0.000000 0.000000
# 3 -0.001925 -0.003292 0.007259 0.000000 0.000000 0.000000
# 4 0.000000 0.000000 0.000000 0.026168 0.000000 0.000000
# 5 0.000000 0.000000 0.000000 0.000000 0.121190 0.000000
# 6 0.000000 0.000000 0.000000 0.000000 0.000000 0.065335
#
#
# Mechanical properties :
#
#
# Convention : Reuss Voigt Hill
#
# Bulk Modulus (GPa) = 28.12796 71.02565 49.57680
# Shear Modulus (GPa) = 17.09947 30.43396 23.76671
#
# Velocity S-wave (km/s) = 2.80673 3.74446 3.30898
# Velocity P-wave (km/s) = 4.84379 7.17052 6.11877
#
# Compressibility (1/GPa) = 0.03555182
#
# Stress axis : x y z
#
# Youngs Moduli (GPa) = 26.95184 136.15071 137.75122
#
# Poissons Ratio (x) = 0.38949 0.26523
# Poissons Ratio (y) = 0.07710 0.45343
# Poissons Ratio (z) = 0.05189 0.44816
#
# Static dielectric constant tensor:
#      x y z
#    x 3.441360 0.000000 0.000000 
#    y 0.000000 3.934560 0.000000 
#    z 0.000000 0.000000 4.132930 
# 
# 
# High freq. dielectric constant tensor:
#      x y z
#    x 1.813140 0.000000 0.000000 
#    y 0.000000 1.845770 0.000000 
#    z 0.000000 0.000000 1.860400 
# 
# From -- ./inp_files/13976.got.cif
#   From: 2010.03.12/outbox.cif.g09.slc.cpg/sg42_7_cif.got.tgz:13976.got - 2010.04.14 02:04:31.
