data_PCOD8186999
_publ_section_title
;
Structure prediction by ZEFSAII (Michael W. Deem and Ramdas Pophale) SiO2 
 PCOD8186999
Probable space group: F D D 2
;
_chemical_formula_sum "Si O2"
_cell_formula_units_Z 128
_cell_length_a 23.603676
_cell_length_b 12.343460
_cell_length_c 21.939435
_cell_angle_alpha 90.000000
_cell_angle_beta 90.000000
_cell_angle_gamma 90.000000
_cell_volume 6392.076997
_symmetry_space_group_name_H-M "F D D 2"
_symmetry_group_IT_number 43
_symmetry_cell_setting 'orthorhombic'
loop_
_space_group_symop_operation_xyz
x,y,z
-x,-y,z
1/4-x,1/4+y,1/4+z
1/4+x,1/4-y,1/4+z
x,1/2+y,1/2+z
-x,1/2-y,1/2+z
1/4-x,3/4+y,3/4+z
1/4+x,3/4-y,3/4+z
1/2+x,y,1/2+z
1/2-x,-y,1/2+z
3/4-x,1/4+y,3/4+z
3/4+x,1/4-y,3/4+z
1/2+x,1/2+y,z
1/2-x,1/2-y,z
3/4-x,3/4+y,1/4+z
3/4+x,3/4-y,1/4+z
loop_
_atom_site_type_symbol
_atom_site_label
_atom_site_fract_x
_atom_site_fract_y
_atom_site_fract_z
Si Si1 0.572238 0.675683 0.766880
Si Si2 0.968035 0.394488 0.595969
Si Si3 0.947049 0.344304 0.406302
Si Si4 0.173155 0.749835 0.419331
Si Si5 0.290945 0.966225 0.745101
Si Si6 0.217496 0.024359 0.947858
Si Si7 0.939194 0.450056 0.035838
Si Si8 0.148293 0.246695 0.246277
O O1 0.548525 0.647376 0.833543
O O2 0.567200 0.563726 0.731244
O O3 0.527202 0.752828 0.730871
O O4 0.635788 0.724671 0.765582
O O5 0.949097 0.319351 0.651201
O O6 0.916195 0.442425 0.557832
O O7 0.000000 0.500000 0.621654
O O8 0.003793 0.314723 0.553372
O O9 0.893134 0.272340 0.421928
O O10 0.935558 0.460207 0.438593
O O11 0.003449 0.288891 0.433503
O O12 0.214398 0.644040 0.416609
O O13 0.186548 0.818524 0.358474
O O14 0.342803 0.882088 0.744665
O O15 0.317195 0.085345 0.752256
O O16 0.167656 0.023382 0.996978
O O17 0.000000 0.500000 0.016169
#
# Coordination Sequence:
#
# PCOD8186999 Si02
#       8
#    16  16  16  16  16  16  16  16
#     4  11  23  37  56  87 120 149 187 243 295 336
#     4   9  19  37  59  82 113 151 194 238 281 340
#     4   9  20  36  57  86 117 144 186 245 291 335
#     4  10  21  37  58  85 113 146 190 237 291 348
#     4  10  19  37  59  82 112 153 196 230 279 351
#     4  11  22  36  58  87 116 149 191 240 289 341
#     4  11  22  38  61  83 110 153 196 235 285 349
#     4   9  21  36  56  86 116 151 193 236 288 348
#
# _framework density 20.024789999999999
#
# number of rings (size 3 to 8) (size 9 to 14) (size 15 to 20)
#    0.000    2.000    0.000    4.500    0.000   12.000 
#    0.000    2.500    0.000    3.750    0.000    0.000 
#    0.000    0.000    0.000    0.000    0.000    0.000 
#
# Total GULP energy -396592.316149 kJ/mol
# GULP energy per Si atom -12393.509880 kJ/mol
# Density = 1.997921 g / cm^3
# Si number density = 20.024790 Si / 1000 Ang^3
#
#
#
# Elastic Constant Matrix: (Units=GPa)
#
#
# Indices 1 2 3 4 5 6 
#
# 1 102.2618 34.4026 43.8527 0.0000 0.0000 0.0000
# 2 34.4026 124.1769 59.0171 0.0000 0.0000 0.0000
# 3 43.8527 59.0171 110.6766 0.0000 0.0000 0.0000
# 4 0.0000 0.0000 0.0000 32.3422 0.0000 0.0000
# 5 0.0000 0.0000 0.0000 0.0000 23.1944 0.0000
# 6 0.0000 0.0000 0.0000 0.0000 0.0000 19.6784
#
#
#
# Elastic Compliance Matrix: (Units=1/GPa)
#
#
# Indices 1 2 3 4 5 6 
#
# 1 0.011965 -0.001422 -0.003983 0.000000 0.000000 0.000000
# 2 -0.001422 0.010956 -0.005279 0.000000 0.000000 0.000000
# 3 -0.003983 -0.005279 0.013428 0.000000 0.000000 0.000000
# 4 0.000000 0.000000 0.000000 0.030919 0.000000 0.000000
# 5 0.000000 0.000000 0.000000 0.000000 0.043114 0.000000
# 6 0.000000 0.000000 0.000000 0.000000 0.000000 0.050817
#
#
# Mechanical properties :
#
#
# Convention : Reuss Voigt Hill
#
# Bulk Modulus (GPa) = 66.74466 67.96223 67.35345
# Shear Modulus (GPa) = 26.65820 28.36588 27.51204
#
# Velocity S-wave (km/s) = 3.65260 3.76778 3.71064
# Velocity P-wave (km/s) = 7.15486 7.27605 7.21571
#
# Compressibility (1/GPa) = 0.01498247
#
# Stress axis : x y z
#
# Youngs Moduli (GPa) = 83.57675 91.27638 74.47110
#
# Poissons Ratio (x) = 0.12980 0.29658
# Poissons Ratio (y) = 0.11886 0.39310
# Poissons Ratio (z) = 0.33285 0.48181
#
# Static dielectric constant tensor:
#      x y z
#    x 3.739960 0.000000 0.000000 
#    y 0.000000 3.545200 0.000000 
#    z 0.000000 0.000000 3.609590 
# 
# 
# High freq. dielectric constant tensor:
#      x y z
#    x 1.788890 0.000000 0.000000 
#    y 0.000000 1.772170 0.000000 
#    z 0.000000 0.000000 1.772490 
# 
# From -- ./inp_files/22666.got.cif
#   From: 2010.06.25/outbox.cif.g09.slc.cpg/sg43_12_cif.got.tgz:22666.got - 2010.06.26 16:48:59.
