data_PCOD8186789
_publ_section_title
;
Structure prediction by ZEFSAII (Michael W. Deem and Ramdas Pophale) SiO2 
 PCOD8186789
Probable space group: F M M 2
;
_chemical_formula_sum "Si O2"
_cell_formula_units_Z 64
_cell_length_a 15.469824
_cell_length_b 7.456308
_cell_length_c 27.509777
_cell_angle_alpha 90.000000
_cell_angle_beta 90.000000
_cell_angle_gamma 90.000000
_cell_volume 3173.191498
_symmetry_space_group_name_H-M "F M M 2"
_symmetry_group_IT_number 42
_symmetry_cell_setting 'orthorhombic'
loop_
_space_group_symop_operation_xyz
x,y,z
-x,-y,z
-x,y,z
x,-y,z
x,1/2+y,1/2+z
-x,1/2-y,1/2+z
-x,1/2+y,1/2+z
x,1/2-y,1/2+z
1/2+x,y,1/2+z
1/2-x,-y,1/2+z
1/2-x,y,1/2+z
1/2+x,-y,1/2+z
1/2+x,1/2+y,z
1/2-x,1/2-y,z
1/2-x,1/2+y,z
1/2+x,1/2-y,z
loop_
_atom_site_type_symbol
_atom_site_label
_atom_site_fract_x
_atom_site_fract_y
_atom_site_fract_z
Si Si1 0.500000 0.201640 0.423050
Si Si2 0.500000 0.209815 0.033494
Si Si3 0.897972 0.500000 0.675073
Si Si4 0.102172 0.000000 0.286667
Si Si5 0.655086 0.790169 0.359696
Si Si6 0.154815 0.791142 0.602017
O O1 0.500000 0.204440 0.480775
O O2 0.412966 0.285774 0.399876
O O3 0.500000 0.000000 0.404985
O O4 0.414617 0.273583 0.062049
O O5 0.500000 0.000000 0.026066
O O6 0.869413 0.500000 0.730773
O O7 0.858587 0.321398 0.651022
O O8 0.000000 0.500000 0.668558
O O9 0.141515 0.179557 0.310212
O O10 0.000000 0.000000 0.292848
O O11 0.750000 0.750000 0.381057
O O12 0.643899 0.000000 0.347832
O O13 0.250000 0.750000 0.580730
O O14 0.142157 0.000000 0.614595
#
# Coordination Sequence:
#
# PCOD8186789 Si02
#       6
#     8   8   8   8  16  16
#     4  10  24  40  64  93 123 166 212 260 317 374
#     4  10  24  40  64  93 123 166 212 260 317 374
#     4  11  24  42  68  92 124 174 210 257 322 369
#     4  11  24  42  68  92 124 174 210 257 322 369
#     4  11  23  42  64  93 131 166 208 264 312 373
#     4  11  23  42  64  93 131 166 208 264 312 373
#
# _framework density 20.168968
#
# number of rings (size 3 to 8) (size 9 to 14) (size 15 to 20)
#    0.000    1.250    5.000    0.000    3.500    3.000 
#    0.000    7.500    0.000    0.000    0.000    0.000 
#    0.000    0.000    0.000    0.000    0.000    0.000 
#
# Total GULP energy -198417.403043 kJ/mol
# GULP energy per Si atom -12401.087690 kJ/mol
# Density = 2.012306 g / cm^3
# Si number density = 20.168968 Si / 1000 Ang^3
#
#
#
# Elastic Constant Matrix: (Units=GPa)
#
#
# Indices 1 2 3 4 5 6 
#
# 1 184.6691 33.0456 83.3650 0.0000 0.0000 0.0000
# 2 33.0456 116.1872 52.7313 0.0000 0.0000 0.0000
# 3 83.3650 52.7313 148.8525 0.0000 0.0000 0.0000
# 4 0.0000 0.0000 0.0000 29.2870 0.0000 0.0000
# 5 0.0000 0.0000 0.0000 0.0000 17.3049 0.0000
# 6 0.0000 0.0000 0.0000 0.0000 0.0000 25.5346
#
#
#
# Elastic Compliance Matrix: (Units=1/GPa)
#
#
# Indices 1 2 3 4 5 6 
#
# 1 0.007254 -0.000261 -0.003970 0.000000 0.000000 0.000000
# 2 -0.000261 0.010265 -0.003490 0.000000 0.000000 0.000000
# 3 -0.003970 -0.003490 0.010178 0.000000 0.000000 0.000000
# 4 0.000000 0.000000 0.000000 0.034145 0.000000 0.000000
# 5 0.000000 0.000000 0.000000 0.000000 0.057787 0.000000
# 6 0.000000 0.000000 0.000000 0.000000 0.000000 0.039163
#
#
# Mechanical properties :
#
#
# Convention : Reuss Voigt Hill
#
# Bulk Modulus (GPa) = 81.60567 87.55472 84.58020
# Shear Modulus (GPa) = 28.03965 33.12978 30.58472
#
# Velocity S-wave (km/s) = 3.73263 4.05731 3.89835
# Velocity P-wave (km/s) = 7.68932 8.09036 7.89238
#
# Compressibility (1/GPa) = 0.01225405
#
# Stress axis : x y z
#
# Youngs Moduli (GPa) = 137.85392 97.41762 98.25264
#
# Poissons Ratio (x) = 0.02546 0.39007
# Poissons Ratio (y) = 0.03603 0.34291
# Poissons Ratio (z) = 0.54729 0.33999
#
# Static dielectric constant tensor:
#      x y z
#    x 4.100950 0.000000 0.000000 
#    y 0.000000 3.784160 0.000000 
#    z 0.000000 0.000000 3.487120 
# 
# 
# High freq. dielectric constant tensor:
#      x y z
#    x 1.807820 0.000000 0.000000 
#    y 0.000000 1.799110 0.000000 
#    z 0.000000 0.000000 1.767900 
# 
# From -- ./inp_files/2712.got.cif
#   From: 2010.03.12/outbox.cif.g09.slc.cpg/sg42_2_cif.got.tgz:2712.got - 2010.04.14 02:04:31.
