data_PCOD8186170
_publ_section_title
;
Structure prediction by ZEFSAII (Michael W. Deem and Ramdas Pophale) SiO2 
 PCOD8186170
Probable space group: F M M 2
;
_chemical_formula_sum "Si O2"
_cell_formula_units_Z 80
_cell_length_a 18.021141
_cell_length_b 26.547191
_cell_length_c 7.681919
_cell_angle_alpha 90.000000
_cell_angle_beta 90.000000
_cell_angle_gamma 90.000000
_cell_volume 3675.112032
_symmetry_space_group_name_H-M "F M M 2"
_symmetry_group_IT_number 42
_symmetry_cell_setting 'orthorhombic'
loop_
_space_group_symop_operation_xyz
x,y,z
-x,-y,z
-x,y,z
x,-y,z
x,1/2+y,1/2+z
-x,1/2-y,1/2+z
-x,1/2+y,1/2+z
x,1/2-y,1/2+z
1/2+x,y,1/2+z
1/2-x,-y,1/2+z
1/2-x,y,1/2+z
1/2+x,-y,1/2+z
1/2+x,1/2+y,z
1/2-x,1/2-y,z
1/2-x,1/2+y,z
1/2+x,1/2-y,z
loop_
_atom_site_type_symbol
_atom_site_label
_atom_site_fract_x
_atom_site_fract_y
_atom_site_fract_z
Si Si1 0.086919 0.804874 0.827990
Si Si2 0.412850 0.591325 0.365640
Si Si3 0.812010 0.943447 0.074708
Si Si4 0.335899 0.098815 0.203535
Si Si5 0.914648 0.803739 0.230940
O O1 0.137533 0.843617 0.721523
O O2 0.120805 0.749677 0.785391
O O3 0.000000 0.810486 0.772311
O O4 0.097512 0.816478 0.030044
O O5 0.500000 0.586385 0.343510
O O6 0.377401 0.556973 0.215913
O O7 0.387766 0.572756 0.556656
O O8 0.383600 0.649057 0.340260
O O9 0.748347 0.904251 0.133514
O O10 0.779065 0.000000 0.066260
O O11 0.844892 0.929713 0.886144
O O12 0.000000 0.797512 0.279026
#
# Coordination Sequence:
#
# PCOD8186170 Si02
#       5
#    16  16  16  16  16
#     4  10  19  35  65 102 139 181 227 274 329 406
#     4  11  24  44  72 105 139 176 228 290 338 403
#     4  12  27  47  70  96 133 182 231 288 356 417
#     4  12  24  43  72  98 134 181 235 277 342 416
#     4   9  18  35  62 100 143 182 220 269 337 407
#
# _framework density 21.768045000000001
#
# number of rings (size 3 to 8) (size 9 to 14) (size 15 to 20)
#    0.000    1.200    4.000    2.400    0.000    5.200 
#    0.000    1.000    0.000    5.400    0.000    0.000 
#    0.000    0.000    0.000    0.000    0.000    0.000 
#
# Total GULP energy -247985.179285 kJ/mol
# GULP energy per Si atom -12399.258964 kJ/mol
# Density = 2.171850 g / cm^3
# Si number density = 21.768045 Si / 1000 Ang^3
#
#
#
# Elastic Constant Matrix: (Units=GPa)
#
#
# Indices 1 2 3 4 5 6 
#
# 1 85.6836 38.1603 33.0860 0.0001 -0.0006 -0.0001
# 2 38.1603 90.0825 41.6994 0.0000 -0.0002 0.0000
# 3 33.0860 41.6994 136.2286 0.0001 -0.0008 -0.0002
# 4 0.0001 0.0000 0.0001 20.4606 -0.0001 0.0000
# 5 -0.0006 -0.0002 -0.0008 -0.0001 36.2779 0.0001
# 6 -0.0001 0.0000 -0.0002 0.0000 0.0001 29.0646
#
#
#
# Elastic Compliance Matrix: (Units=1/GPa)
#
#
# Indices 1 2 3 4 5 6 
#
# 1 0.014818 -0.005373 -0.001954 0.000000 0.000000 0.000000
# 2 -0.005373 0.014881 -0.003250 0.000000 0.000000 0.000000
# 3 -0.001954 -0.003250 0.008810 0.000000 0.000000 0.000000
# 4 0.000000 0.000000 0.000000 0.048874 0.000000 0.000000
# 5 0.000000 0.000000 0.000000 0.000000 0.027565 0.000000
# 6 0.000000 0.000000 0.000000 0.000000 0.000000 0.034406
#
#
# Mechanical properties :
#
#
# Convention : Reuss Voigt Hill
#
# Bulk Modulus (GPa) = 57.61932 59.76514 58.69223
# Shear Modulus (GPa) = 28.36156 30.43057 29.39606
#
# Velocity S-wave (km/s) = 3.61348 3.74297 3.67880
# Velocity P-wave (km/s) = 6.62849 6.79668 6.71311
#
# Compressibility (1/GPa) = 0.01735529
#
# Stress axis : x y z
#
# Youngs Moduli (GPa) = 67.48431 67.19784 113.50486
#
# Poissons Ratio (x) = 0.36102 0.22183
# Poissons Ratio (y) = 0.36256 0.36893
# Poissons Ratio (z) = 0.13189 0.21842
#
# Static dielectric constant tensor:
#      x y z
#    x 3.604580 0.000000 0.000000 
#    y 0.000000 4.022360 0.000000 
#    z 0.000000 0.000000 4.124690 
# 
# 
# High freq. dielectric constant tensor:
#      x y z
#    x 1.823240 0.000000 0.000000 
#    y 0.000000 1.853410 0.000000 
#    z 0.000000 0.000000 1.877680 
# 
# From -- ./inp_files/3488.got.cif
#   From: 2010.03.12/outbox.cif.g09.slc.cpg/sg42_2_cif.got.tgz:3488.got - 2010.04.14 02:04:31.
