data_PCOD8186633
_publ_section_title
;
Structure prediction by ZEFSAII (Michael W. Deem and Ramdas Pophale) SiO2 
 PCOD8186633
Probable space group: F M M 2
;
_chemical_formula_sum "Si O2"
_cell_formula_units_Z 80
_cell_length_a 8.654558
_cell_length_b 18.346367
_cell_length_c 25.644537
_cell_angle_alpha 90.000000
_cell_angle_beta 90.000000
_cell_angle_gamma 90.000000
_cell_volume 4071.831822
_symmetry_space_group_name_H-M "F M M 2"
_symmetry_group_IT_number 42
_symmetry_cell_setting 'orthorhombic'
loop_
_space_group_symop_operation_xyz
x,y,z
-x,-y,z
-x,y,z
x,-y,z
x,1/2+y,1/2+z
-x,1/2-y,1/2+z
-x,1/2+y,1/2+z
x,1/2-y,1/2+z
1/2+x,y,1/2+z
1/2-x,-y,1/2+z
1/2-x,y,1/2+z
1/2+x,-y,1/2+z
1/2+x,1/2+y,z
1/2-x,1/2-y,z
1/2-x,1/2+y,z
1/2+x,1/2-y,z
loop_
_atom_site_type_symbol
_atom_site_label
_atom_site_fract_x
_atom_site_fract_y
_atom_site_fract_z
Si Si1 0.181091 0.416337 0.570210
Si Si2 0.683645 0.918294 0.266475
Si Si3 0.817819 0.329699 0.365448
Si Si4 0.683612 0.329794 0.665882
Si Si5 0.180484 0.083991 0.459592
O O1 0.218498 0.500000 0.584727
O O2 0.247755 0.364556 0.614159
O O3 0.264776 0.393828 0.516986
O O4 0.000000 0.403182 0.563505
O O5 0.500000 0.920675 0.267952
O O6 0.748400 0.877173 0.317424
O O7 0.741165 0.877199 0.214859
O O8 0.752096 0.000000 0.265985
O O9 0.750000 0.250000 0.361158
O O10 0.771609 0.366412 0.419395
O O11 0.000000 0.324055 0.362314
O O12 0.500000 0.327240 0.661765
O O13 0.750000 0.250000 0.673743
O O14 0.000000 0.099581 0.454365
O O15 0.221394 0.000000 0.448166
#
# Coordination Sequence:
#
# PCOD8186633 Si02
#       5
#    16  16  16  16  16
#     4  10  21  38  60  86 115 148 189 235 283 337
#     4   9  19  36  59  85 112 147 190 233 280 336
#     4  11  22  37  58  84 117 153 190 233 282 336
#     4  11  22  37  58  84 117 153 190 233 282 336
#     4  10  21  38  60  86 115 148 189 235 283 337
#
# _framework density 19.647178
#
# number of rings (size 3 to 8) (size 9 to 14) (size 15 to 20)
#    0.000    1.800    0.000    4.200    0.000    4.800 
#    0.000    7.000    0.000    7.200    0.000    0.000 
#    0.000    0.000    0.000    0.000    0.000    0.000 
#
# Total GULP energy -248095.621127 kJ/mol
# GULP energy per Si atom -12404.781056 kJ/mol
# Density = 1.960246 g / cm^3
# Si number density = 19.647178 Si / 1000 Ang^3
#
#
#
# Elastic Constant Matrix: (Units=GPa)
#
#
# Indices 1 2 3 4 5 6 
#
# 1 43.4704 26.2517 11.0297 0.0000 0.0000 0.0000
# 2 26.2517 153.2212 81.4874 0.0000 0.0000 0.0000
# 3 11.0297 81.4874 120.9565 0.0000 0.0000 0.0000
# 4 0.0000 0.0000 0.0000 17.9172 0.0000 0.0000
# 5 0.0000 0.0000 0.0000 0.0000 20.8102 0.0000
# 6 0.0000 0.0000 0.0000 0.0000 0.0000 27.0977
#
#
#
# Elastic Compliance Matrix: (Units=1/GPa)
#
#
# Indices 1 2 3 4 5 6 
#
# 1 0.025732 -0.004926 0.000972 0.000000 0.000000 0.000000
# 2 -0.004926 0.011113 -0.007038 0.000000 0.000000 0.000000
# 3 0.000972 -0.007038 0.012920 0.000000 0.000000 0.000000
# 4 0.000000 0.000000 0.000000 0.055812 0.000000 0.000000
# 5 0.000000 0.000000 0.000000 0.000000 0.048053 0.000000
# 6 0.000000 0.000000 0.000000 0.000000 0.000000 0.036903
#
#
# Mechanical properties :
#
#
# Convention : Reuss Voigt Hill
#
# Bulk Modulus (GPa) = 35.99379 61.68729 48.84054
# Shear Modulus (GPa) = 22.54500 26.42364 24.48432
#
# Velocity S-wave (km/s) = 3.39114 3.67128 3.53399
# Velocity P-wave (km/s) = 5.80457 7.03113 6.44708
#
# Compressibility (1/GPa) = 0.02778257
#
# Stress axis : x y z
#
# Youngs Moduli (GPa) = 38.86188 89.98195 77.39862
#
# Poissons Ratio (x) = 0.44322 -0.07522
# Poissons Ratio (y) = 0.19142 0.54472
# Poissons Ratio (z) = -0.03777 0.63328
#
# Static dielectric constant tensor:
#      x y z
#    x 3.506120 0.000000 0.000000 
#    y 0.000000 3.723880 0.000000 
#    z 0.000000 0.000000 3.741970 
# 
# 
# High freq. dielectric constant tensor:
#      x y z
#    x 1.759800 0.000000 0.000000 
#    y 0.000000 1.774610 0.000000 
#    z 0.000000 0.000000 1.782330 
# 
# From -- ./inp_files/31273.got.cif
#   From: 2010.03.12/outbox.cif.g09.slc.cpg/sg42_16_cif.got.tgz:31273.got - 2010.04.14 02:04:31.
