data_PCOD8186562
_publ_section_title
;
Structure prediction by ZEFSAII (Michael W. Deem and Ramdas Pophale) SiO2 
 PCOD8186562
Probable space group: F M M 2
;
_chemical_formula_sum "Si O2"
_cell_formula_units_Z 68
_cell_length_a 16.427400
_cell_length_b 7.671727
_cell_length_c 26.775804
_cell_angle_alpha 90.000000
_cell_angle_beta 90.000000
_cell_angle_gamma 90.000000
_cell_volume 3374.461616
_symmetry_space_group_name_H-M "F M M 2"
_symmetry_group_IT_number 42
_symmetry_cell_setting 'orthorhombic'
loop_
_space_group_symop_operation_xyz
x,y,z
-x,-y,z
-x,y,z
x,-y,z
x,1/2+y,1/2+z
-x,1/2-y,1/2+z
-x,1/2+y,1/2+z
x,1/2-y,1/2+z
1/2+x,y,1/2+z
1/2-x,-y,1/2+z
1/2-x,y,1/2+z
1/2+x,-y,1/2+z
1/2+x,1/2+y,z
1/2-x,1/2-y,z
1/2-x,1/2+y,z
1/2+x,1/2-y,z
loop_
_atom_site_type_symbol
_atom_site_label
_atom_site_fract_x
_atom_site_fract_y
_atom_site_fract_z
Si Si1 0.339985 0.194015 0.333700
Si Si2 0.500000 0.000000 0.970436
Si Si3 0.659196 0.703722 0.129428
Si Si4 0.589130 0.500000 0.566378
Si Si5 0.090651 0.704656 0.734547
Si Si6 0.000000 0.711491 0.389114
O O1 0.250000 0.250000 0.351631
O O2 0.346790 0.210714 0.273695
O O3 0.418741 0.282821 0.360034
O O4 0.347597 0.000000 0.351628
O O5 0.500000 0.818404 0.940545
O O6 0.419401 0.000000 0.006077
O O7 0.647119 0.500000 0.115549
O O8 0.750000 0.750000 0.144315
O O9 0.607941 0.760377 0.177874
O O10 0.634480 0.822830 0.082578
O O11 0.500000 0.500000 0.591790
O O12 0.100558 0.500000 0.739832
O O13 0.000000 0.768627 0.748113
O O14 0.000000 0.500000 0.397505
#
# Coordination Sequence:
#
# PCOD8186562 Si02
#       6
#    16   4  16   8  16   8
#     4  11  23  38  62  96 131 173 218 261 321 384
#     4  10  26  46  76  90 122 164 220 270 350 384
#     4  11  22  39  64  95 139 172 214 270 322 386
#     4  10  24  44  66  99 114 175 218 262 342 393
#     4  10  21  35  57  95 131 180 214 251 311 383
#     4  10  24  46  69  95 127 169 214 276 334 389
#
# _framework density 20.151361999999999
#
# number of rings (size 3 to 8) (size 9 to 14) (size 15 to 20)
#    0.353    1.176    2.353    2.118    4.941    4.235 
#    0.000    1.176    0.000    0.000    0.000    0.000 
#    0.000    0.000    0.000    0.000    0.000    0.000 
#
# Total GULP energy -210660.456553 kJ/mol
# GULP energy per Si atom -12391.791562 kJ/mol
# Density = 2.010550 g / cm^3
# Si number density = 20.151362 Si / 1000 Ang^3
#
#
#
# Elastic Constant Matrix: (Units=GPa)
#
#
# Indices 1 2 3 4 5 6 
#
# 1 138.6175 28.4673 42.8178 0.0000 0.0000 0.0000
# 2 28.4673 90.9717 46.5916 0.0000 0.0000 0.0000
# 3 42.8178 46.5916 110.8485 0.0000 0.0000 0.0000
# 4 0.0000 0.0000 0.0000 25.1433 0.0000 0.0000
# 5 0.0000 0.0000 0.0000 0.0000 24.2606 0.0000
# 6 0.0000 0.0000 0.0000 0.0000 0.0000 22.4184
#
#
#
# Elastic Compliance Matrix: (Units=1/GPa)
#
#
# Indices 1 2 3 4 5 6 
#
# 1 0.008296 -0.001217 -0.002693 0.000000 0.000000 0.000000
# 2 -0.001217 0.014186 -0.005493 0.000000 0.000000 0.000000
# 3 -0.002693 -0.005493 0.012370 0.000000 0.000000 0.000000
# 4 0.000000 0.000000 0.000000 0.039772 0.000000 0.000000
# 5 0.000000 0.000000 0.000000 0.000000 0.041219 0.000000
# 6 0.000000 0.000000 0.000000 0.000000 0.000000 0.044606
#
#
# Mechanical properties :
#
#
# Convention : Reuss Voigt Hill
#
# Bulk Modulus (GPa) = 62.31558 64.02124 63.16841
# Shear Modulus (GPa) = 27.08502 29.20187 28.14344
#
# Velocity S-wave (km/s) = 3.67015 3.81087 3.74117
# Velocity P-wave (km/s) = 6.99649 7.15561 7.07650
#
# Compressibility (1/GPa) = 0.01604735
#
# Stress axis : x y z
#
# Youngs Moduli (GPa) = 120.54251 70.49041 80.83887
#
# Poissons Ratio (x) = 0.08577 0.21770
# Poissons Ratio (y) = 0.14667 0.44403
# Poissons Ratio (z) = 0.32463 0.38719
#
# Static dielectric constant tensor:
#      x y z
#    x 3.346600 0.000000 0.000000 
#    y 0.000000 3.606140 0.000000 
#    z 0.000000 0.000000 3.332850 
# 
# 
# High freq. dielectric constant tensor:
#      x y z
#    x 1.798860 0.000000 0.000000 
#    y 0.000000 1.790330 0.000000 
#    z 0.000000 0.000000 1.757380 
# 
# From -- ./inp_files/25668.got.cif
#   From: 2010.03.12/outbox.cif.g09.slc.cpg/sg42_13_cif.got.tgz:25668.got - 2010.04.14 02:04:31.
