data_PCOD8186279
_publ_section_title
;
Structure prediction by ZEFSAII (Michael W. Deem and Ramdas Pophale) SiO2 
 PCOD8186279
Probable space group: F M M 2
;
_chemical_formula_sum "Si O2"
_cell_formula_units_Z 80
_cell_length_a 18.468369
_cell_length_b 9.168632
_cell_length_c 25.274712
_cell_angle_alpha 90.000000
_cell_angle_beta 90.000000
_cell_angle_gamma 90.000000
_cell_volume 4279.758870
_symmetry_space_group_name_H-M "F M M 2"
_symmetry_group_IT_number 42
_symmetry_cell_setting 'orthorhombic'
loop_
_space_group_symop_operation_xyz
x,y,z
-x,-y,z
-x,y,z
x,-y,z
x,1/2+y,1/2+z
-x,1/2-y,1/2+z
-x,1/2+y,1/2+z
x,1/2-y,1/2+z
1/2+x,y,1/2+z
1/2-x,-y,1/2+z
1/2-x,y,1/2+z
1/2+x,-y,1/2+z
1/2+x,1/2+y,z
1/2-x,1/2-y,z
1/2-x,1/2+y,z
1/2+x,1/2-y,z
loop_
_atom_site_type_symbol
_atom_site_label
_atom_site_fract_x
_atom_site_fract_y
_atom_site_fract_z
Si Si1 0.323993 0.671356 0.399250
Si Si2 0.580494 0.827022 0.683463
Si Si3 0.416123 0.668147 0.981774
Si Si4 0.673892 0.671467 0.085337
Si Si5 0.677682 0.830282 0.778470
O O1 0.314249 0.500000 0.408694
O O2 0.250000 0.750000 0.416738
O O3 0.389879 0.731333 0.433743
O O4 0.343432 0.708686 0.338562
O O5 0.500000 0.759409 0.678723
O O6 0.630940 0.767495 0.636324
O O7 0.613071 0.779198 0.740095
O O8 0.575594 0.000000 0.679003
O O9 0.500000 0.700111 0.992389
O O10 0.402913 0.500000 0.966575
O O11 0.373226 0.711428 0.034325
O O12 0.687749 0.500000 0.090034
O O13 0.750000 0.750000 0.080740
O O14 0.750000 0.750000 0.760302
O O15 0.693528 0.000000 0.771912
#
# Coordination Sequence:
#
# PCOD8186279 Si02
#       5
#    16  16  16  16  16
#     4  10  20  34  53  77 104 136 174 213 253 300
#     4   9  17  31  52  76 101 130 165 205 249 297
#     4  10  21  36  53  75 104 136 170 210 257 307
#     4  10  20  34  54  77 100 130 168 208 250 300
#     4   9  18  32  52  76 101 131 167 207 248 294
#
# _framework density 18.692641999999999
#
# number of rings (size 3 to 8) (size 9 to 14) (size 15 to 20)
#    0.000    2.400    0.000    2.400    0.000    6.800 
#    0.000    2.000    0.000    3.600    0.000    0.000 
#    0.000    0.000    0.000    0.000    0.000    0.000 
#
# Total GULP energy -248046.764990 kJ/mol
# GULP energy per Si atom -12402.338250 kJ/mol
# Density = 1.865010 g / cm^3
# Si number density = 18.692642 Si / 1000 Ang^3
#
#
#
# Elastic Constant Matrix: (Units=GPa)
#
#
# Indices 1 2 3 4 5 6 
#
# 1 167.2389 49.7248 84.9620 0.0000 0.0000 0.0000
# 2 49.7248 46.1442 42.7477 0.0000 0.0000 0.0000
# 3 84.9620 42.7477 122.9103 0.0000 0.0000 0.0000
# 4 0.0000 0.0000 0.0000 21.0313 0.0000 0.0000
# 5 0.0000 0.0000 0.0000 0.0000 33.2794 0.0000
# 6 0.0000 0.0000 0.0000 0.0000 0.0000 28.9115
#
#
#
# Elastic Compliance Matrix: (Units=1/GPa)
#
#
# Indices 1 2 3 4 5 6 
#
# 1 0.010472 -0.006755 -0.004889 0.000000 0.000000 0.000000
# 2 -0.006755 0.036330 -0.007966 0.000000 0.000000 0.000000
# 3 -0.004889 -0.007966 0.014286 0.000000 0.000000 0.000000
# 4 0.000000 0.000000 0.000000 0.047548 0.000000 0.000000
# 5 0.000000 0.000000 0.000000 0.000000 0.030049 0.000000
# 6 0.000000 0.000000 0.000000 0.000000 0.000000 0.034588
#
#
# Mechanical properties :
#
#
# Convention : Reuss Voigt Hill
#
# Bulk Modulus (GPa) = 45.73000 76.79583 61.26291
# Shear Modulus (GPa) = 22.74972 27.23504 24.99238
#
# Velocity S-wave (km/s) = 3.49240 3.82120 3.66049
# Velocity P-wave (km/s) = 6.38590 7.78726 7.12113
#
# Compressibility (1/GPa) = 0.02186748
#
# Stress axis : x y z
#
# Youngs Moduli (GPa) = 95.49439 27.52550 69.99708
#
# Poissons Ratio (x) = 0.18593 0.34224
# Poissons Ratio (y) = 0.64506 0.55760
# Poissons Ratio (z) = 0.46690 0.21927
#
# Static dielectric constant tensor:
#      x y z
#    x 3.525660 0.000000 0.000000 
#    y 0.000000 3.207980 0.000000 
#    z 0.000000 0.000000 3.619510 
# 
# 
# High freq. dielectric constant tensor:
#      x y z
#    x 1.730380 0.000000 0.000000 
#    y 0.000000 1.699350 0.000000 
#    z 0.000000 0.000000 1.739980 
# 
# From -- ./inp_files/28621.got.cif
#   From: 2010.03.12/outbox.cif.g09.slc.cpg/sg42_15_cif.got.tgz:28621.got - 2010.04.14 02:04:31.
