data_PCOD8186755
_publ_section_title
;
Structure prediction by ZEFSAII (Michael W. Deem and Ramdas Pophale) SiO2 
 PCOD8186755
Probable space group: F M M 2
;
_chemical_formula_sum "Si O2"
_cell_formula_units_Z 80
_cell_length_a 21.454640
_cell_length_b 14.693183
_cell_length_c 11.319271
_cell_angle_alpha 90.000000
_cell_angle_beta 90.000000
_cell_angle_gamma 90.000000
_cell_volume 3568.252486
_symmetry_space_group_name_H-M "F M M 2"
_symmetry_group_IT_number 42
_symmetry_cell_setting 'orthorhombic'
loop_
_space_group_symop_operation_xyz
x,y,z
-x,-y,z
-x,y,z
x,-y,z
x,1/2+y,1/2+z
-x,1/2-y,1/2+z
-x,1/2+y,1/2+z
x,1/2-y,1/2+z
1/2+x,y,1/2+z
1/2-x,-y,1/2+z
1/2-x,y,1/2+z
1/2+x,-y,1/2+z
1/2+x,1/2+y,z
1/2-x,1/2-y,z
1/2-x,1/2+y,z
1/2+x,1/2-y,z
loop_
_atom_site_type_symbol
_atom_site_label
_atom_site_fract_x
_atom_site_fract_y
_atom_site_fract_z
Si Si1 0.000000 0.599488 0.291380
Si Si2 0.197792 0.500000 0.214729
Si Si3 0.500000 0.219393 0.065850
Si Si4 0.195159 0.500000 0.542476
Si Si5 0.633769 0.632964 0.884886
Si Si6 0.898213 0.168840 0.382664
Si Si7 0.675513 0.500000 0.457349
Si Si8 0.000000 0.390635 0.699453
O O1 0.939200 0.609859 0.372334
O O2 0.000000 0.500000 0.230565
O O3 0.000000 0.679114 0.196614
O O4 0.177293 0.589845 0.284110
O O5 0.272262 0.500000 0.173348
O O6 0.156759 0.500000 0.095226
O O7 0.500000 0.330095 0.078892
O O8 0.439574 0.183559 0.998834
O O9 0.154372 0.591083 0.513646
O O10 0.249689 0.500000 0.441602
O O11 0.643033 0.740342 0.868537
O O12 0.939105 0.140606 0.270698
O O13 0.849543 0.089231 0.396109
O O14 0.000000 0.500000 0.675039
#
# Coordination Sequence:
#
# PCOD8186755 Si02
#       8
#     8   8   8   8  16  16   8   8
#     4  12  20  34  75 106 131 186 218 294 348 427
#     4   9  21  42  71  94 130 182 232 284 337 416
#     4  11  24  39  62 113 136 176 237 277 363 431
#     4   9  23  40  68  97 134 170 237 303 329 399
#     4  11  21  43  70 106 139 171 240 289 348 418
#     4  11  23  39  68 100 135 183 228 290 344 426
#     4  10  22  41  67  94 126 180 239 283 340 395
#     4  11  22  41  59  97 147 182 217 287 359 416
#
# _framework density 22.419937999999998
#
# number of rings (size 3 to 8) (size 9 to 14) (size 15 to 20)
#    0.600    0.800    5.000    1.800    1.400    0.800 
#    3.600    4.000   13.200    0.000    0.000    0.000 
#    0.000    0.000    0.000    0.000    0.000    0.000 
#
# Total GULP energy -247842.089414 kJ/mol
# GULP energy per Si atom -12392.104471 kJ/mol
# Density = 2.236891 g / cm^3
# Si number density = 22.419938 Si / 1000 Ang^3
#
#
#
# Elastic Constant Matrix: (Units=GPa)
#
#
# Indices 1 2 3 4 5 6 
#
# 1 109.7448 48.2813 37.3580 0.0000 0.0000 0.0000
# 2 48.2813 201.0807 13.1097 0.0000 0.0000 0.0000
# 3 37.3580 13.1097 35.8307 0.0000 0.0000 0.0000
# 4 0.0000 0.0000 0.0000 35.7930 0.0000 0.0000
# 5 0.0000 0.0000 0.0000 0.0000 25.7297 0.0000
# 6 0.0000 0.0000 0.0000 0.0000 0.0000 -16.5227
#
#
#
# Elastic Compliance Matrix: (Units=1/GPa)
#
#
# Indices 1 2 3 4 5 6 
#
# 1 0.015458 -0.002726 -0.015120 0.000000 0.000000 0.000000
# 2 -0.002726 0.005575 0.000802 0.000000 0.000000 0.000000
# 3 -0.015120 0.000802 0.043380 0.000000 0.000000 0.000000
# 4 0.000000 0.000000 0.000000 0.027938 0.000000 0.000000
# 5 0.000000 0.000000 0.000000 0.000000 0.038866 0.000000
# 6 0.000000 0.000000 0.000000 0.000000 0.000000 -0.060523
#
#
# Mechanical properties :
#
#
# Convention : Reuss Voigt Hill
#
# Bulk Modulus (GPa) = 32.97458 60.46158 46.71808
# Shear Modulus (GPa) = 43.51974 25.52714 34.52344
#
# Velocity S-wave (km/s) = 4.41059 3.37796 3.92835
# Velocity P-wave (km/s) = 6.37788 6.49927 6.43886
#
# Compressibility (1/GPa) = 0.03032639
#
# Stress axis : x y z
#
# Youngs Moduli (GPa) = 64.69071 179.36126 23.05220
#
# Poissons Ratio (x) = 0.48892 0.34854
# Poissons Ratio (y) = 0.17634 -0.01849
# Poissons Ratio (z) = 0.97811 -0.14388
#
# Static dielectric constant tensor:
#      x y z
#    x 4.095060 0.000000 0.000000 
#    y 0.000000 4.406170 0.000000 
#    z 0.000000 0.000000 3.865500 
# 
# 
# High freq. dielectric constant tensor:
#      x y z
#    x 1.882830 0.000000 0.000000 
#    y 0.000000 1.892140 0.000000 
#    z 0.000000 0.000000 1.876520 
# 
# From -- ./inp_files/10049.got.cif
#   From: 2010.03.12/outbox.cif.g09.slc.cpg/sg42_6_cif.got.tgz:10049.got - 2010.04.14 02:04:31.
