data_PCOD8186115
_publ_section_title
;
Structure prediction by ZEFSAII (Michael W. Deem and Ramdas Pophale) SiO2 
 PCOD8186115
Probable space group: F M M 2
;
_chemical_formula_sum "Si O2"
_cell_formula_units_Z 104
_cell_length_a 13.114076
_cell_length_b 29.424209
_cell_length_c 15.330493
_cell_angle_alpha 90.000000
_cell_angle_beta 90.000000
_cell_angle_gamma 90.000000
_cell_volume 5915.597464
_symmetry_space_group_name_H-M "F M M 2"
_symmetry_group_IT_number 42
_symmetry_cell_setting 'orthorhombic'
loop_
_space_group_symop_operation_xyz
x,y,z
-x,-y,z
-x,y,z
x,-y,z
x,1/2+y,1/2+z
-x,1/2-y,1/2+z
-x,1/2+y,1/2+z
x,1/2-y,1/2+z
1/2+x,y,1/2+z
1/2-x,-y,1/2+z
1/2-x,y,1/2+z
1/2+x,-y,1/2+z
1/2+x,1/2+y,z
1/2-x,1/2-y,z
1/2-x,1/2+y,z
1/2+x,1/2-y,z
loop_
_atom_site_type_symbol
_atom_site_label
_atom_site_fract_x
_atom_site_fract_y
_atom_site_fract_z
Si Si1 0.240206 0.400969 0.154390
Si Si2 0.115637 0.053033 0.807374
Si Si3 0.113974 0.628097 0.908549
Si Si4 0.878539 0.170166 0.232247
Si Si5 0.886819 0.176482 0.581964
Si Si6 0.758350 0.447445 0.474213
Si Si7 0.750000 0.750000 0.663351
O O1 0.200785 0.426664 0.241202
O O2 0.338427 0.368218 0.165678
O O3 0.144559 0.369826 0.129611
O O4 0.276292 0.434155 0.075678
O O5 0.146019 0.062019 0.909161
O O6 0.000000 0.072350 0.793553
O O7 0.115211 0.000000 0.787356
O O8 0.161864 0.651703 0.824386
O O9 0.166566 0.581777 0.936438
O O10 0.000000 0.612818 0.886983
O O11 0.118814 0.667774 0.979477
O O12 0.824995 0.219076 0.221245
O O13 0.000000 0.175956 0.223603
O O14 0.815973 0.218879 0.600499
O O15 0.000000 0.188787 0.613381
O O16 0.726797 0.500000 0.470985
#
# Coordination Sequence:
#
# PCOD8186115 Si02
#       7
#    16  16  16  16  16  16   8
#     4  10  19  34  55  78 106 145 181 225 276 332
#     4  10  20  34  53  78 109 145 186 231 274 321
#     4   9  18  34  54  76 104 139 176 222 272 323
#     4  10  20  35  55  78 107 141 179 222 272 332
#     4   9  18  32  51  75 102 133 173 221 271 320
#     4  10  20  34  54  80 111 144 183 228 274 326
#     4  10  20  32  52  78 104 140 172 220 270 334
#
# _framework density 17.580641
#
# number of rings (size 3 to 8) (size 9 to 14) (size 15 to 20)
#    0.000    2.308    1.538    1.385    0.000    2.154 
#    0.000    0.000    0.000    1.385    0.000    0.000 
#    0.000    0.000    0.000    0.000    0.000    0.000 
#
# Total GULP energy -322187.286098 kJ/mol
# GULP energy per Si atom -12391.818696 kJ/mol
# Density = 1.754063 g / cm^3
# Si number density = 17.580641 Si / 1000 Ang^3
#
#
#
# Elastic Constant Matrix: (Units=GPa)
#
#
# Indices 1 2 3 4 5 6 
#
# 1 88.1764 43.8470 36.5940 0.0000 0.0000 0.0000
# 2 43.8470 100.3355 43.3647 0.0000 0.0000 0.0000
# 3 36.5940 43.3647 100.0559 0.0000 0.0000 0.0000
# 4 0.0000 0.0000 0.0000 23.6132 0.0000 0.0000
# 5 0.0000 0.0000 0.0000 0.0000 24.2688 0.0000
# 6 0.0000 0.0000 0.0000 0.0000 0.0000 20.4191
#
#
#
# Elastic Compliance Matrix: (Units=1/GPa)
#
#
# Indices 1 2 3 4 5 6 
#
# 1 0.015341 -0.005265 -0.003329 0.000000 0.000000 0.000000
# 2 -0.005265 0.014071 -0.004173 0.000000 0.000000 0.000000
# 3 -0.003329 -0.004173 0.013020 0.000000 0.000000 0.000000
# 4 0.000000 0.000000 0.000000 0.042349 0.000000 0.000000
# 5 0.000000 0.000000 0.000000 0.000000 0.041205 0.000000
# 6 0.000000 0.000000 0.000000 0.000000 0.000000 0.048974
#
#
# Mechanical properties :
#
#
# Convention : Reuss Voigt Hill
#
# Bulk Modulus (GPa) = 59.17650 59.57547 59.37598
# Shear Modulus (GPa) = 24.25704 24.64438 24.45071
#
# Velocity S-wave (km/s) = 3.71854 3.74811 3.73335
# Velocity P-wave (km/s) = 7.22287 7.25890 7.24091
#
# Compressibility (1/GPa) = 0.01689860
#
# Stress axis : x y z
#
# Youngs Moduli (GPa) = 65.18684 71.06848 76.80331
#
# Poissons Ratio (x) = 0.37419 0.25565
# Poissons Ratio (y) = 0.34323 0.32048
# Poissons Ratio (z) = 0.21698 0.29655
#
# Static dielectric constant tensor:
#      x y z
#    x 3.273950 0.000000 0.000000 
#    y 0.000000 3.212740 0.000000 
#    z 0.000000 0.000000 3.428730 
# 
# 
# High freq. dielectric constant tensor:
#      x y z
#    x 1.677510 0.000000 0.000000 
#    y 0.000000 1.679330 0.000000 
#    z 0.000000 0.000000 1.684440 
# 
# From -- ./inp_files/14515.got.cif
#   From: 2010.03.12/outbox.cif.g09.slc.cpg/sg42_8_cif.got.tgz:14515.got - 2010.04.14 02:04:31.
