data_PCOD8186932
_publ_section_title
;
Structure prediction by ZEFSAII (Michael W. Deem and Ramdas Pophale) SiO2 
 PCOD8186932
Probable space group: F D D 2
;
_chemical_formula_sum "Si O2"
_cell_formula_units_Z 104
_cell_length_a 19.636119
_cell_length_b 8.565496
_cell_length_c 33.082227
_cell_angle_alpha 90.000000
_cell_angle_beta 90.000000
_cell_angle_gamma 90.000000
_cell_volume 5564.202273
_symmetry_space_group_name_H-M "F D D 2"
_symmetry_group_IT_number 43
_symmetry_cell_setting 'orthorhombic'
loop_
_space_group_symop_operation_xyz
x,y,z
-x,-y,z
1/4-x,1/4+y,1/4+z
1/4+x,1/4-y,1/4+z
x,1/2+y,1/2+z
-x,1/2-y,1/2+z
1/4-x,3/4+y,3/4+z
1/4+x,3/4-y,3/4+z
1/2+x,y,1/2+z
1/2-x,-y,1/2+z
3/4-x,1/4+y,3/4+z
3/4+x,1/4-y,3/4+z
1/2+x,1/2+y,z
1/2-x,1/2-y,z
3/4-x,3/4+y,1/4+z
3/4+x,3/4-y,1/4+z
loop_
_atom_site_type_symbol
_atom_site_label
_atom_site_fract_x
_atom_site_fract_y
_atom_site_fract_z
Si Si1 0.211925 0.004662 0.819160
Si Si2 0.580839 0.017390 0.427232
Si Si3 0.928501 0.973249 0.140618
Si Si4 0.250000 0.250000 0.049161
Si Si5 0.369423 0.941149 0.516361
Si Si6 0.848936 0.041232 0.599440
Si Si7 0.138682 0.035425 0.327835
O O1 0.170958 0.161637 0.829339
O O2 0.205540 0.887830 0.855914
O O3 0.182279 0.914556 0.780596
O O4 0.290893 0.039319 0.811365
O O5 0.618249 0.038180 0.469456
O O6 0.597978 0.162418 0.397147
O O7 0.500000 0.000000 0.432155
O O8 0.614800 0.855303 0.412820
O O9 0.897950 0.128598 0.120652
O O10 0.000000 0.000000 0.166374
O O11 0.299628 0.346289 0.020512
O O12 0.212149 0.366583 0.079079
O O13 0.360959 0.101572 0.542248
O O14 0.838458 0.857875 0.589571
#
# Coordination Sequence:
#
# PCOD8186932 Si02
#       7
#    16  16  16   8  16  16  16
#     4   8  16  34  59  81 113 151 194 241 295 371
#     4  11  21  38  60  86 120 163 198 255 322 363
#     4   8  17  35  54  82 118 152 192 243 300 364
#     4  10  22  44  54  80 122 164 202 236 308 376
#     4  10  21  38  60  83 119 162 199 250 306 365
#     4  10  20  35  61  86 117 156 205 249 296 366
#     4  10  18  34  60  90 109 153 208 247 288 371
#
# _framework density 18.690908
#
# number of rings (size 3 to 8) (size 9 to 14) (size 15 to 20)
#    0.000    2.462    0.769    3.692    0.000    0.615 
#   11.077    1.538    0.000    0.000    0.000    0.000 
#    0.000    0.000    0.000    0.000    0.000    0.000 
#
# Total GULP energy -322127.138756 kJ/mol
# GULP energy per Si atom -12389.505337 kJ/mol
# Density = 1.864837 g / cm^3
# Si number density = 18.690908 Si / 1000 Ang^3
#
#
#
# Elastic Constant Matrix: (Units=GPa)
#
#
# Indices 1 2 3 4 5 6 
#
# 1 113.2370 53.1682 45.3459 0.0000 0.0000 0.0000
# 2 53.1682 123.7927 54.8084 0.0000 0.0000 0.0000
# 3 45.3459 54.8084 109.9674 0.0000 0.0000 0.0000
# 4 0.0000 0.0000 0.0000 15.4474 0.0000 0.0000
# 5 0.0000 0.0000 0.0000 0.0000 23.3670 0.0000
# 6 0.0000 0.0000 0.0000 0.0000 0.0000 12.6818
#
#
#
# Elastic Compliance Matrix: (Units=1/GPa)
#
#
# Indices 1 2 3 4 5 6 
#
# 1 0.011785 -0.003734 -0.002999 0.000000 0.000000 0.000000
# 2 -0.003734 0.011548 -0.004216 0.000000 0.000000 0.000000
# 3 -0.002999 -0.004216 0.012431 0.000000 0.000000 0.000000
# 4 0.000000 0.000000 0.000000 0.064736 0.000000 0.000000
# 5 0.000000 0.000000 0.000000 0.000000 0.042795 0.000000
# 6 0.000000 0.000000 0.000000 0.000000 0.000000 0.078853
#
#
# Mechanical properties :
#
#
# Convention : Reuss Voigt Hill
#
# Bulk Modulus (GPa) = 72.11083 72.62692 72.36887
# Shear Modulus (GPa) = 20.10705 23.21088 21.65896
#
# Velocity S-wave (km/s) = 3.28345 3.52778 3.40780
# Velocity P-wave (km/s) = 7.28280 7.45217 7.36797
#
# Compressibility (1/GPa) = 0.01386754
#
# Stress axis : x y z
#
# Youngs Moduli (GPa) = 84.85318 86.59227 80.44140
#
# Poissons Ratio (x) = 0.32334 0.24121
# Poissons Ratio (y) = 0.31684 0.33914
# Poissons Ratio (z) = 0.25444 0.36508
#
# Static dielectric constant tensor:
#      x y z
#    x 3.725440 0.000000 0.000000 
#    y 0.000000 3.121140 0.000000 
#    z 0.000000 0.000000 3.282930 
# 
# 
# High freq. dielectric constant tensor:
#      x y z
#    x 1.736760 0.000000 0.000000 
#    y 0.000000 1.721720 0.000000 
#    z 0.000000 0.000000 1.698030 
# 
# From -- ./inp_files/28031.got.cif
#   From: 2010.06.25/outbox.cif.g09.slc.cpg/sg43_15_cif.got.tgz:28031.got - 2010.06.26 16:48:59.
