data_PCOD8186507
_publ_section_title
;
Structure prediction by ZEFSAII (Michael W. Deem and Ramdas Pophale) SiO2 
 PCOD8186507
Probable space group: F M M 2
;
_chemical_formula_sum "Si O2"
_cell_formula_units_Z 72
_cell_length_a 9.116259
_cell_length_b 33.337322
_cell_length_c 12.363095
_cell_angle_alpha 90.000000
_cell_angle_beta 90.000000
_cell_angle_gamma 90.000000
_cell_volume 3757.288745
_symmetry_space_group_name_H-M "F M M 2"
_symmetry_group_IT_number 42
_symmetry_cell_setting 'orthorhombic'
loop_
_space_group_symop_operation_xyz
x,y,z
-x,-y,z
-x,y,z
x,-y,z
x,1/2+y,1/2+z
-x,1/2-y,1/2+z
-x,1/2+y,1/2+z
x,1/2-y,1/2+z
1/2+x,y,1/2+z
1/2-x,-y,1/2+z
1/2-x,y,1/2+z
1/2+x,-y,1/2+z
1/2+x,1/2+y,z
1/2-x,1/2-y,z
1/2-x,1/2+y,z
1/2+x,1/2-y,z
loop_
_atom_site_type_symbol
_atom_site_label
_atom_site_fract_x
_atom_site_fract_y
_atom_site_fract_z
Si Si1 0.000000 0.615251 0.548488
Si Si2 0.000000 0.791166 0.031868
Si Si3 0.750000 0.750000 0.163483
Si Si4 0.323581 0.500000 0.031465
Si Si5 0.268514 0.068678 0.676177
Si Si6 0.000000 0.795423 0.788434
Si Si7 0.500000 0.391409 0.799030
Si Si8 0.846368 0.000000 0.331133
O O1 0.138306 0.603790 0.621433
O O2 0.000000 0.661752 0.532447
O O3 0.000000 0.595774 0.426712
O O4 0.147145 0.776688 0.088648
O O5 0.000000 0.776794 0.908209
O O6 0.851023 0.720414 0.233715
O O7 0.500000 0.500000 0.056156
O O8 0.235274 0.538599 0.076595
O O9 0.299593 0.500000 0.903083
O O10 0.136147 0.089739 0.736732
O O11 0.352698 0.040248 0.759943
O O12 0.000000 0.843535 0.785681
O O13 0.000000 0.000000 0.397640
#
# Coordination Sequence:
#
# PCOD8186507 Si02
#       8
#     8   8   8   8  16   8   8   8
#     4  11  21  42  59  84 121 158 192 245 299 351
#     4  10  21  35  63  86 118 159 191 236 302 344
#     4  10  20  38  62  90 120 154 194 248 278 358
#     4  11  23  40  62  85 116 159 203 248 299 351
#     4  11  22  40  58  84 116 155 200 244 295 349
#     4  10  21  39  59  92 122 151 203 236 294 352
#     4  11  25  38  61  90 119 160 194 245 297 359
#     4  11  23  38  60  87 114 153 207 248 293 351
#
# _framework density 19.162755000000001
#
# number of rings (size 3 to 8) (size 9 to 14) (size 15 to 20)
#    0.000    1.333    2.222    4.000    3.111    0.889 
#    0.000    0.000    0.000   10.667    0.000    0.000 
#    0.000    0.000    0.000    0.000    0.000    0.000 
#
# Total GULP energy -223000.454241 kJ/mol
# GULP energy per Si atom -12388.914125 kJ/mol
# Density = 1.911914 g / cm^3
# Si number density = 19.162755 Si / 1000 Ang^3
#
#
#
# Elastic Constant Matrix: (Units=GPa)
#
#
# Indices 1 2 3 4 5 6 
#
# 1 142.2019 49.4976 79.6131 0.0000 0.0000 0.0000
# 2 49.4976 77.7874 45.8101 0.0000 0.0000 0.0000
# 3 79.6131 45.8101 149.5210 0.0000 0.0000 0.0000
# 4 0.0000 0.0000 0.0000 -21.5563 0.0000 0.0000
# 5 0.0000 0.0000 0.0000 0.0000 25.0295 0.0000
# 6 0.0000 0.0000 0.0000 0.0000 0.0000 27.1108
#
#
#
# Elastic Compliance Matrix: (Units=1/GPa)
#
#
# Indices 1 2 3 4 5 6 
#
# 1 0.011120 -0.004379 -0.004579 0.000000 0.000000 0.000000
# 2 -0.004379 0.017410 -0.003002 0.000000 0.000000 0.000000
# 3 -0.004579 -0.003002 0.010046 0.000000 0.000000 0.000000
# 4 0.000000 0.000000 0.000000 -0.046390 0.000000 0.000000
# 5 0.000000 0.000000 0.000000 0.000000 0.039953 0.000000
# 6 0.000000 0.000000 0.000000 0.000000 0.000000 0.036886
#
#
# Mechanical properties :
#
#
# Convention : Reuss Voigt Hill
#
# Bulk Modulus (GPa) = 68.23687 79.92798 74.08242
# Shear Modulus (GPa) = 51.10785 19.08943 35.09864
#
# Velocity S-wave (km/s) = 5.16994 3.15965 4.28437
# Velocity P-wave (km/s) = 8.44536 7.42373 7.95097
#
# Compressibility (1/GPa) = 0.01465483
#
# Stress axis : x y z
#
# Youngs Moduli (GPa) = 89.92484 57.43719 99.53998
#
# Poissons Ratio (x) = 0.25153 0.45583
# Poissons Ratio (y) = 0.39380 0.29886
# Poissons Ratio (z) = 0.41180 0.17245
#
# Static dielectric constant tensor:
#      x y z
#    x 3.431260 0.000000 0.000000 
#    y 0.000000 3.827560 0.000000 
#    z 0.000000 0.000000 3.768050 
# 
# 
# High freq. dielectric constant tensor:
#      x y z
#    x 1.744460 0.000000 0.000000 
#    y 0.000000 1.752590 0.000000 
#    z 0.000000 0.000000 1.761010 
# 
# From -- ./inp_files/12210.got.cif
#   From: 2010.03.12/outbox.cif.g09.slc.cpg/sg42_7_cif.got.tgz:12210.got - 2010.04.14 02:04:31.
