data_PCOD8186257
_publ_section_title
;
Structure prediction by ZEFSAII (Michael W. Deem and Ramdas Pophale) SiO2 
 PCOD8186257
Probable space group: F M M 2
;
_chemical_formula_sum "Si O2"
_cell_formula_units_Z 112
_cell_length_a 18.127705
_cell_length_b 15.550228
_cell_length_c 20.211277
_cell_angle_alpha 90.000000
_cell_angle_beta 90.000000
_cell_angle_gamma 90.000000
_cell_volume 5697.355779
_symmetry_space_group_name_H-M "F M M 2"
_symmetry_group_IT_number 42
_symmetry_cell_setting 'orthorhombic'
loop_
_space_group_symop_operation_xyz
x,y,z
-x,-y,z
-x,y,z
x,-y,z
x,1/2+y,1/2+z
-x,1/2-y,1/2+z
-x,1/2+y,1/2+z
x,1/2-y,1/2+z
1/2+x,y,1/2+z
1/2-x,-y,1/2+z
1/2-x,y,1/2+z
1/2+x,-y,1/2+z
1/2+x,1/2+y,z
1/2-x,1/2-y,z
1/2-x,1/2+y,z
1/2+x,1/2-y,z
loop_
_atom_site_type_symbol
_atom_site_label
_atom_site_fract_x
_atom_site_fract_y
_atom_site_fract_z
Si Si1 0.793383 0.161016 0.494560
Si Si2 0.175290 0.595894 0.738691
Si Si3 0.086440 0.253707 0.070021
Si Si4 0.819667 0.405808 0.588517
Si Si5 0.417039 0.899802 0.325690
Si Si6 0.916304 0.258012 0.218934
Si Si7 0.763418 0.349251 0.357938
O O1 0.750000 0.250000 0.494483
O O2 0.877110 0.179323 0.517981
O O3 0.755486 0.097835 0.546715
O O4 0.787276 0.121764 0.420475
O O5 0.138623 0.500000 0.743379
O O6 0.204448 0.611948 0.664349
O O7 0.120792 0.675177 0.754038
O O8 0.241181 0.598390 0.792232
O O9 0.118069 0.157797 0.060014
O O10 0.109874 0.279811 0.144555
O O11 0.000000 0.254974 0.056172
O O12 0.854929 0.500000 0.581338
O O13 0.500000 0.880232 0.354775
O O14 0.403677 0.844850 0.259538
O O15 0.350063 0.871073 0.374564
O O16 0.410868 0.000000 0.307888
O O17 0.000000 0.229006 0.215362
O O18 0.750000 0.250000 0.342384
#
# Coordination Sequence:
#
# PCOD8186257 Si02
#       7
#    16  16  16  16  16  16  16
#     4   9  20  36  54  78 112 150 192 231 282 343
#     4  10  20  33  55  85 113 152 199 239 286 347
#     4   9  18  35  59  83 112 148 189 236 285 343
#     4   9  19  34  55  83 113 147 189 240 291 338
#     4  10  21  37  58  85 116 147 187 240 295 349
#     4   9  18  34  57  86 118 153 188 236 295 342
#     4  11  21  36  56  80 115 157 194 237 295 351
#
# _framework density 19.658242000000001
#
# number of rings (size 3 to 8) (size 9 to 14) (size 15 to 20)
#    0.000    2.429    1.429    0.429    2.000    2.286 
#    0.000   10.000    0.000    0.429    0.000    0.000 
#    0.000    0.000    0.000    0.000    0.000    0.000 
#
# Total GULP energy -346932.805924 kJ/mol
# GULP energy per Si atom -12390.457354 kJ/mol
# Density = 1.961350 g / cm^3
# Si number density = 19.658242 Si / 1000 Ang^3
#
#
#
# Elastic Constant Matrix: (Units=GPa)
#
#
# Indices 1 2 3 4 5 6 
#
# 1 122.8406 42.0667 50.0830 0.0000 0.0000 0.0000
# 2 42.0667 94.1599 28.5930 0.0000 0.0000 0.0000
# 3 50.0830 28.5930 96.0664 0.0000 0.0000 0.0000
# 4 0.0000 0.0000 0.0000 15.1259 0.0000 0.0000
# 5 0.0000 0.0000 0.0000 0.0000 28.2335 0.0000
# 6 0.0000 0.0000 0.0000 0.0000 0.0000 24.1609
#
#
#
# Elastic Compliance Matrix: (Units=1/GPa)
#
#
# Indices 1 2 3 4 5 6 
#
# 1 0.011348 -0.003599 -0.004845 0.000000 0.000000 0.000000
# 2 -0.003599 0.012817 -0.001939 0.000000 0.000000 0.000000
# 3 -0.004845 -0.001939 0.013512 0.000000 0.000000 0.000000
# 4 0.000000 0.000000 0.000000 0.066112 0.000000 0.000000
# 5 0.000000 0.000000 0.000000 0.000000 0.035419 0.000000
# 6 0.000000 0.000000 0.000000 0.000000 0.000000 0.041389
#
#
# Mechanical properties :
#
#
# Convention : Reuss Voigt Hill
#
# Bulk Modulus (GPa) = 59.12784 61.61692 60.37238
# Shear Modulus (GPa) = 24.15459 26.32567 25.24013
#
# Velocity S-wave (km/s) = 3.50912 3.66343 3.58711
# Velocity P-wave (km/s) = 6.82362 7.02185 6.92345
#
# Compressibility (1/GPa) = 0.01691251
#
# Stress axis : x y z
#
# Youngs Moduli (GPa) = 88.11772 78.02348 74.00555
#
# Poissons Ratio (x) = 0.28078 0.35858
# Poissons Ratio (y) = 0.31711 0.14347
# Poissons Ratio (z) = 0.42695 0.15126
#
# Static dielectric constant tensor:
#      x y z
#    x 3.587300 0.000000 0.000000 
#    y 0.000000 3.570380 0.000000 
#    z 0.000000 0.000000 3.781890 
# 
# 
# High freq. dielectric constant tensor:
#      x y z
#    x 1.749650 0.000000 0.000000 
#    y 0.000000 1.762460 0.000000 
#    z 0.000000 0.000000 1.758670 
# 
# From -- ./inp_files/26080.got.cif
#   From: 2010.03.12/outbox.cif.g09.slc.cpg/sg42_14_cif.got.tgz:26080.got - 2010.04.14 02:04:31.
