data_PCOD8186907
_publ_section_title
;
Structure prediction by ZEFSAII (Michael W. Deem and Ramdas Pophale) SiO2 
 PCOD8186907
Probable space group: F D D 2
;
_chemical_formula_sum "Si O2"
_cell_formula_units_Z 112
_cell_length_a 17.714064
_cell_length_b 11.813147
_cell_length_c 24.818381
_cell_angle_alpha 90.000000
_cell_angle_beta 90.000000
_cell_angle_gamma 90.000000
_cell_volume 5193.465668
_symmetry_space_group_name_H-M "F D D 2"
_symmetry_group_IT_number 43
_symmetry_cell_setting 'orthorhombic'
loop_
_space_group_symop_operation_xyz
x,y,z
-x,-y,z
1/4-x,1/4+y,1/4+z
1/4+x,1/4-y,1/4+z
x,1/2+y,1/2+z
-x,1/2-y,1/2+z
1/4-x,3/4+y,3/4+z
1/4+x,3/4-y,3/4+z
1/2+x,y,1/2+z
1/2-x,-y,1/2+z
3/4-x,1/4+y,3/4+z
3/4+x,1/4-y,3/4+z
1/2+x,1/2+y,z
1/2-x,1/2-y,z
3/4-x,3/4+y,1/4+z
3/4+x,3/4-y,1/4+z
loop_
_atom_site_type_symbol
_atom_site_label
_atom_site_fract_x
_atom_site_fract_y
_atom_site_fract_z
Si Si1 0.750000 0.250000 0.401050
Si Si2 0.572357 0.061992 0.622231
Si Si3 0.291921 0.556197 0.170084
Si Si4 0.666438 0.745887 0.249814
Si Si5 0.860053 0.002181 0.272226
Si Si6 0.289048 0.461309 0.830773
Si Si7 0.000000 0.000000 0.340300
Si Si8 0.138872 0.486574 0.219527
O O1 0.715407 0.157423 0.360826
O O2 0.682986 0.294598 0.440297
O O3 0.574447 0.017309 0.562317
O O4 0.567867 0.198035 0.624397
O O5 0.500000 0.000000 0.651445
O O6 0.653285 0.039112 0.647657
O O7 0.331700 0.592637 0.226977
O O8 0.288099 0.657671 0.128159
O O9 0.209883 0.504553 0.180256
O O10 0.750000 0.750000 0.223308
O O11 0.626726 0.622208 0.243899
O O12 0.620299 0.851811 0.224562
O O13 0.793254 0.991254 0.315173
O O14 0.934734 0.048866 0.301431
O O15 0.343788 0.456286 0.777897
#
# Coordination Sequence:
#
# PCOD8186907 Si02
#       8
#     8  16  16  16  16  16   8  16
#     4  12  26  45  66 100 142 190 231 280 372 424
#     4  10  18  37  67  96 125 173 223 287 341 402
#     4  11  23  39  66  97 137 178 230 286 357 408
#     4  10  16  40  67  90 130 169 233 301 330 397
#     4  11  22  40  65  94 135 186 229 289 353 407
#     4  10  22  44  66  93 141 181 226 290 352 409
#     4  12  24  41  62 108 144 178 239 288 344 438
#     4  10  24  42  64  97 130 188 234 284 351 418
#
# _framework density 21.565560000000001
#
# number of rings (size 3 to 8) (size 9 to 14) (size 15 to 20)
#    0.000    1.429    7.143    0.857    3.000    2.286 
#    5.143    1.429    0.000    0.000    0.000    0.000 
#    0.000    0.000    0.000    0.000    0.000    0.000 
#
# Total GULP energy -346955.502029 kJ/mol
# GULP energy per Si atom -12391.267930 kJ/mol
# Density = 2.151648 g / cm^3
# Si number density = 21.565560 Si / 1000 Ang^3
#
#
#
# Elastic Constant Matrix: (Units=GPa)
#
#
# Indices 1 2 3 4 5 6 
#
# 1 131.8424 32.8127 61.8364 0.0000 0.0000 0.0000
# 2 32.8127 80.8156 44.9603 0.0000 0.0000 0.0000
# 3 61.8364 44.9603 80.7748 0.0000 0.0000 0.0000
# 4 0.0000 0.0000 0.0000 26.9091 0.0000 0.0000
# 5 0.0000 0.0000 0.0000 0.0000 20.4115 0.0000
# 6 0.0000 0.0000 0.0000 0.0000 0.0000 23.5158
#
#
#
# Elastic Compliance Matrix: (Units=1/GPa)
#
#
# Indices 1 2 3 4 5 6 
#
# 1 0.011840 0.000341 -0.009254 0.000000 0.000000 0.000000
# 2 0.000341 0.017934 -0.010243 0.000000 0.000000 0.000000
# 3 -0.009254 -0.010243 0.025166 0.000000 0.000000 0.000000
# 4 0.000000 0.000000 0.000000 0.037162 0.000000 0.000000
# 5 0.000000 0.000000 0.000000 0.000000 0.048992 0.000000
# 6 0.000000 0.000000 0.000000 0.000000 0.000000 0.042525
#
#
# Mechanical properties :
#
#
# Convention : Reuss Voigt Hill
#
# Bulk Modulus (GPa) = 60.14114 63.62795 61.88455
# Shear Modulus (GPa) = 21.98051 24.42217 23.20134
#
# Velocity S-wave (km/s) = 3.19602 3.36886 3.28358
# Velocity P-wave (km/s) = 6.44729 6.68586 6.56766
#
# Compressibility (1/GPa) = 0.01662755
#
# Stress axis : x y z
#
# Youngs Moduli (GPa) = 84.45781 55.75961 39.73626
#
# Poissons Ratio (x) = -0.01901 0.36772
# Poissons Ratio (y) = -0.02879 0.40703
# Poissons Ratio (z) = 0.78157 0.57116
#
# Static dielectric constant tensor:
#      x y z
#    x 4.484250 0.000000 0.000000 
#    y 0.000000 3.935980 0.000000 
#    z 0.000000 0.000000 4.110430 
# 
# 
# High freq. dielectric constant tensor:
#      x y z
#    x 1.841070 0.000000 0.000000 
#    y 0.000000 1.824850 0.000000 
#    z 0.000000 0.000000 1.852050 
# 
# From -- ./inp_files/22431.got.cif
#   From: 2010.06.25/outbox.cif.g09.slc.cpg/sg43_12_cif.got.tgz:22431.got - 2010.06.26 16:48:59.
