data_PCOD8186293
_publ_section_title
;
Structure prediction by ZEFSAII (Michael W. Deem and Ramdas Pophale) SiO2 
 PCOD8186293
Probable space group: F M M 2
;
_chemical_formula_sum "Si O2"
_cell_formula_units_Z 96
_cell_length_a 24.712936
_cell_length_b 21.478492
_cell_length_c 9.503091
_cell_angle_alpha 90.000000
_cell_angle_beta 90.000000
_cell_angle_gamma 90.000000
_cell_volume 5044.208375
_symmetry_space_group_name_H-M "F M M 2"
_symmetry_group_IT_number 42
_symmetry_cell_setting 'orthorhombic'
loop_
_space_group_symop_operation_xyz
x,y,z
-x,-y,z
-x,y,z
x,-y,z
x,1/2+y,1/2+z
-x,1/2-y,1/2+z
-x,1/2+y,1/2+z
x,1/2-y,1/2+z
1/2+x,y,1/2+z
1/2-x,-y,1/2+z
1/2-x,y,1/2+z
1/2+x,-y,1/2+z
1/2+x,1/2+y,z
1/2-x,1/2-y,z
1/2-x,1/2+y,z
1/2+x,1/2-y,z
loop_
_atom_site_type_symbol
_atom_site_label
_atom_site_fract_x
_atom_site_fract_y
_atom_site_fract_z
Si Si1 0.780441 0.809887 0.275250
Si Si2 0.308869 0.500000 0.235787
Si Si3 0.622876 0.241191 0.169920
Si Si4 0.353114 0.102538 0.921040
Si Si5 0.322516 0.886608 0.218544
Si Si6 0.695810 0.000000 0.397930
Si Si7 0.937076 0.196854 0.408972
O O1 0.750000 0.750000 0.337809
O O2 0.823837 0.785536 0.158915
O O3 0.814462 0.836755 0.405712
O O4 0.740102 0.862852 0.214447
O O5 0.343808 0.558670 0.287189
O O6 0.253324 0.500000 0.320666
O O7 0.300693 0.500000 0.067491
O O8 0.637978 0.172754 0.232268
O O9 0.575053 0.271764 0.260400
O O10 0.596943 0.237719 0.017925
O O11 0.415399 0.125320 0.915337
O O12 0.336298 0.075568 0.073774
O O13 0.333048 0.936026 0.345354
O O14 0.000000 0.196238 0.443739
#
# Coordination Sequence:
#
# PCOD8186293 Si02
#       7
#    16   8  16  16  16   8  16
#     4   9  18  30  50  79 114 147 177 217 268 329
#     4  12  24  38  53  77 112 148 191 227 270 325
#     4   9  20  34  54  83 113 145 182 227 277 332
#     4  10  21  35  54  79 110 146 187 231 268 329
#     4  10  20  34  53  80 115 148 185 221 271 323
#     4  12  24  36  56  79 112 156 184 223 266 329
#     4  10  20  37  58  83 111 145 186 234 284 330
#
# _framework density 19.031727
#
# number of rings (size 3 to 8) (size 9 to 14) (size 15 to 20)
#    0.000    2.000    1.667    2.000    0.000    8.667 
#    0.000    0.417    0.000    0.000    0.000    7.583 
#    0.000    0.000    0.000    0.000    0.000    0.000 
#
# Total GULP energy -297396.776644 kJ/mol
# GULP energy per Si atom -12391.532360 kJ/mol
# Density = 1.898841 g / cm^3
# Si number density = 19.031727 Si / 1000 Ang^3
#
#
#
# Elastic Constant Matrix: (Units=GPa)
#
#
# Indices 1 2 3 4 5 6 
#
# 1 84.8168 23.8553 18.1528 0.0006 -0.0002 0.0000
# 2 23.8553 76.4857 34.5259 0.0002 0.0000 0.0000
# 3 18.1528 34.5259 110.2123 0.0023 -0.0009 -0.0002
# 4 0.0006 0.0002 0.0023 34.9639 -0.0006 -0.0002
# 5 -0.0002 0.0000 -0.0009 -0.0006 19.6147 0.0001
# 6 0.0000 0.0000 -0.0002 -0.0002 0.0001 18.5828
#
#
#
# Elastic Compliance Matrix: (Units=1/GPa)
#
#
# Indices 1 2 3 4 5 6 
#
# 1 0.013021 -0.003602 -0.001016 0.000000 0.000000 0.000000
# 2 -0.003602 0.016224 -0.004489 0.000000 0.000000 0.000000
# 3 -0.001016 -0.004489 0.010647 -0.000001 0.000000 0.000000
# 4 0.000000 0.000000 -0.000001 0.028601 0.000001 0.000000
# 5 0.000000 0.000000 0.000000 0.000001 0.050982 0.000000
# 6 0.000000 0.000000 0.000000 0.000000 0.000000 0.053813
#
#
# Mechanical properties :
#
#
# Convention : Reuss Voigt Hill
#
# Bulk Modulus (GPa) = 46.13235 47.17587 46.65411
# Shear Modulus (GPa) = 25.15981 27.63099 26.39540
#
# Velocity S-wave (km/s) = 3.63987 3.81443 3.72817
# Velocity P-wave (km/s) = 6.47744 6.65144 6.56502
#
# Compressibility (1/GPa) = 0.02167676
#
# Stress axis : x y z
#
# Youngs Moduli (GPa) = 76.80024 61.63579 93.92246
#
# Poissons Ratio (x) = 0.22204 0.09544
# Poissons Ratio (y) = 0.27667 0.42164
# Poissons Ratio (z) = 0.07804 0.27670
#
# Static dielectric constant tensor:
#      x y z
#    x 3.305020 0.000000 0.000000 
#    y 0.000000 3.691680 0.000000 
#    z 0.000000 0.000000 3.369230 
# 
# 
# High freq. dielectric constant tensor:
#      x y z
#    x 1.708590 0.000000 0.000000 
#    y 0.000000 1.742290 0.000000 
#    z 0.000000 0.000000 1.736320 
# 
# From -- ./inp_files/4755.got.cif
#   From: 2010.03.12/outbox.cif.g09.slc.cpg/sg42_3_cif.got.tgz:4755.got - 2010.04.14 02:04:31.
