data_PCOD8186157
_publ_section_title
;
Structure prediction by ZEFSAII (Michael W. Deem and Ramdas Pophale) SiO2 
 PCOD8186157
Probable space group: F M M 2
;
_chemical_formula_sum "Si O2"
_cell_formula_units_Z 112
_cell_length_a 14.085917
_cell_length_b 23.562225
_cell_length_c 13.557114
_cell_angle_alpha 90.000000
_cell_angle_beta 90.000000
_cell_angle_gamma 90.000000
_cell_volume 4499.545749
_symmetry_space_group_name_H-M "F M M 2"
_symmetry_group_IT_number 42
_symmetry_cell_setting 'orthorhombic'
loop_
_space_group_symop_operation_xyz
x,y,z
-x,-y,z
-x,y,z
x,-y,z
x,1/2+y,1/2+z
-x,1/2-y,1/2+z
-x,1/2+y,1/2+z
x,1/2-y,1/2+z
1/2+x,y,1/2+z
1/2-x,-y,1/2+z
1/2-x,y,1/2+z
1/2+x,-y,1/2+z
1/2+x,1/2+y,z
1/2-x,1/2-y,z
1/2-x,1/2+y,z
1/2+x,1/2-y,z
loop_
_atom_site_type_symbol
_atom_site_label
_atom_site_fract_x
_atom_site_fract_y
_atom_site_fract_z
Si Si1 0.229385 0.935569 0.100840
Si Si2 0.394459 0.124076 0.996886
Si Si3 0.145745 0.746949 0.471510
Si Si4 0.603361 0.829920 0.301793
Si Si5 0.611040 0.387616 0.275749
Si Si6 0.887422 0.563358 0.407148
Si Si7 0.612051 0.229143 0.683612
O O1 0.178204 0.924037 0.204689
O O2 0.265658 0.000000 0.100711
O O3 0.321806 0.896227 0.081653
O O4 0.153525 0.924776 0.014855
O O5 0.500000 0.102794 0.025342
O O6 0.365192 0.097887 0.889918
O O7 0.400109 0.191835 0.988285
O O8 0.250000 0.750000 0.424705
O O9 0.084395 0.707972 0.399668
O O10 0.154103 0.714673 0.576891
O O11 0.500000 0.846129 0.259014
O O12 0.655853 0.889371 0.330459
O O13 0.657650 0.789224 0.223183
O O14 0.500000 0.400265 0.252771
O O15 0.634910 0.321206 0.259589
O O16 0.861698 0.500000 0.369166
O O17 0.000000 0.571846 0.415859
O O18 0.500000 0.238023 0.675538
#
# Coordination Sequence:
#
# PCOD8186157 Si02
#       7
#    16  16  16  16  16  16  16
#     4  11  24  43  67  99 135 178 235 300 363 426
#     4  11  24  45  70  98 141 191 239 295 366 437
#     4  12  23  37  60  94 135 175 217 280 349 417
#     4  10  19  35  59  89 126 169 216 266 329 408
#     4  10  21  42  72 104 138 180 236 299 360 431
#     4   9  18  35  61  94 135 179 224 282 350 417
#     4  10  20  36  61  91 126 168 216 271 337 412
#
# _framework density 24.891401999999999
#
# number of rings (size 3 to 8) (size 9 to 14) (size 15 to 20)
#    0.000    1.571    1.429    4.286    0.000    4.571 
#    7.714    1.429    0.000    0.857    0.000    2.000 
#    0.000    0.000    0.000    0.000    0.000    0.000 
#
# Total GULP energy -347112.306846 kJ/mol
# GULP energy per Si atom -12396.868102 kJ/mol
# Density = 2.483475 g / cm^3
# Si number density = 24.891402 Si / 1000 Ang^3
#
#
#
# Elastic Constant Matrix: (Units=GPa)
#
#
# Indices 1 2 3 4 5 6 
#
# 1 72.0428 5.4348 4.3097 0.0000 0.0000 0.0000
# 2 5.4348 105.4735 -3.3385 0.0000 0.0000 0.0000
# 3 4.3097 -3.3385 70.5875 0.0000 0.0000 0.0000
# 4 0.0000 0.0000 0.0000 40.2192 0.0000 0.0000
# 5 0.0000 0.0000 0.0000 0.0000 28.7880 0.0000
# 6 0.0000 0.0000 0.0000 0.0000 0.0000 25.3716
#
#
#
# Elastic Compliance Matrix: (Units=1/GPa)
#
#
# Indices 1 2 3 4 5 6 
#
# 1 0.013990 -0.000749 -0.000890 0.000000 0.000000 0.000000
# 2 -0.000749 0.009535 0.000497 0.000000 0.000000 0.000000
# 3 -0.000890 0.000497 0.014245 0.000000 0.000000 0.000000
# 4 0.000000 0.000000 0.000000 0.024864 0.000000 0.000000
# 5 0.000000 0.000000 0.000000 0.000000 0.034737 0.000000
# 6 0.000000 0.000000 0.000000 0.000000 0.000000 0.039414
#
#
# Mechanical properties :
#
#
# Convention : Reuss Voigt Hill
#
# Bulk Modulus (GPa) = 28.17975 28.99065 28.58520
# Shear Modulus (GPa) = 33.13506 34.98896 34.06201
#
# Velocity S-wave (km/s) = 3.65250 3.75329 3.70324
# Velocity P-wave (km/s) = 5.39753 5.51861 5.45840
#
# Compressibility (1/GPa) = 0.03548648
#
# Stress axis : x y z
#
# Youngs Moduli (GPa) = 71.47775 104.87264 70.20198
#
# Poissons Ratio (x) = 0.07855 0.06245
# Poissons Ratio (y) = 0.05354 -0.03487
# Poissons Ratio (z) = 0.06359 -0.05209
#
# Static dielectric constant tensor:
#      x y z
#    x 4.275310 0.000000 0.000000 
#    y 0.000000 4.464950 0.000000 
#    z 0.000000 0.000000 4.501750 
# 
# 
# High freq. dielectric constant tensor:
#      x y z
#    x 1.991020 0.000000 0.000000 
#    y 0.000000 1.978080 0.000000 
#    z 0.000000 0.000000 1.988710 
# 
# From -- ./inp_files/14214.got.cif
#   From: 2010.03.12/outbox.cif.g09.slc.cpg/sg42_8_cif.got.tgz:14214.got - 2010.04.14 02:04:31.
