data_PCOD8186967
_publ_section_title
;
Structure prediction by ZEFSAII (Michael W. Deem and Ramdas Pophale) SiO2 
 PCOD8186967
Probable space group: F D D 2
;
_chemical_formula_sum "Si O2"
_cell_formula_units_Z 88
_cell_length_a 5.725681
_cell_length_b 27.257774
_cell_length_c 18.922128
_cell_angle_alpha 90.000000
_cell_angle_beta 90.000000
_cell_angle_gamma 90.000000
_cell_volume 2953.163625
_symmetry_space_group_name_H-M "F D D 2"
_symmetry_group_IT_number 43
_symmetry_cell_setting 'orthorhombic'
loop_
_space_group_symop_operation_xyz
x,y,z
-x,-y,z
1/4-x,1/4+y,1/4+z
1/4+x,1/4-y,1/4+z
x,1/2+y,1/2+z
-x,1/2-y,1/2+z
1/4-x,3/4+y,3/4+z
1/4+x,3/4-y,3/4+z
1/2+x,y,1/2+z
1/2-x,-y,1/2+z
3/4-x,1/4+y,3/4+z
3/4+x,1/4-y,3/4+z
1/2+x,1/2+y,z
1/2-x,1/2-y,z
3/4-x,3/4+y,1/4+z
3/4+x,3/4-y,1/4+z
loop_
_atom_site_type_symbol
_atom_site_label
_atom_site_fract_x
_atom_site_fract_y
_atom_site_fract_z
Si Si1 0.995660 0.444317 0.925540
Si Si2 0.252693 0.804385 0.677582
Si Si3 0.255496 0.149919 0.527060
Si Si4 0.994343 0.870813 0.801127
Si Si5 0.750000 0.750000 0.449223
Si Si6 0.001951 0.764933 0.820304
O O1 0.246798 0.438309 0.972371
O O2 0.006831 0.405507 0.861965
O O3 0.000000 0.500000 0.895418
O O4 0.750673 0.434633 0.968215
O O5 0.250000 0.750000 0.645128
O O6 0.241834 0.834504 0.605299
O O7 0.503312 0.122188 0.506433
O O8 0.286821 0.203411 0.496489
O O9 0.002665 0.124949 0.504109
O O10 0.997510 0.821078 0.846382
O O11 0.967880 0.762733 0.395315
O O12 0.250000 0.750000 0.774362
O O13 0.750000 0.750000 0.782448
#
# Coordination Sequence:
#
# PCOD8186967 Si02
#       6
#    16  16  16  16   8  16
#     4   8  12  21  33  60  96 128 152 210 281 317
#     4   8  14  22  39  65 100 132 164 228 282 329
#     4  10  19  30  55  84 119 146 205 258 303 358
#     4  10  20  33  54  83 118 158 208 246 305 371
#     4  10  24  36  62  90 136 158 200 264 342 352
#     4  10  23  40  58  79 131 175 199 244 327 391
#
# _framework density 29.798552000000001
#
# number of rings (size 3 to 8) (size 9 to 14) (size 15 to 20)
#    0.545    2.182    0.909    1.091    5.091    0.000 
#    0.000    0.000    0.000    0.000    0.000    3.818 
#   10.909    0.000    0.000    0.000    0.000    0.000 
#
# Total GULP energy -272667.503109 kJ/mol
# GULP energy per Si atom -12393.977414 kJ/mol
# Density = 2.973073 g / cm^3
# Si number density = 29.798552 Si / 1000 Ang^3
#
#
#
# Elastic Constant Matrix: (Units=GPa)
#
#
# Indices 1 2 3 4 5 6 
#
# 1 414.0722 125.2470 82.1312 0.0000 0.0000 0.0000
# 2 125.2470 148.8439 20.4170 0.0000 0.0000 0.0000
# 3 82.1312 20.4170 86.4058 0.0000 0.0000 0.0000
# 4 0.0000 0.0000 0.0000 15.5953 0.0000 0.0000
# 5 0.0000 0.0000 0.0000 0.0000 40.1798 0.0000
# 6 0.0000 0.0000 0.0000 0.0000 0.0000 62.9749
#
#
#
# Elastic Compliance Matrix: (Units=1/GPa)
#
#
# Indices 1 2 3 4 5 6 
#
# 1 0.003873 -0.002846 -0.003009 0.000000 0.000000 0.000000
# 2 -0.002846 0.009035 0.000570 0.000000 0.000000 0.000000
# 3 -0.003009 0.000570 0.014298 0.000000 0.000000 0.000000
# 4 0.000000 0.000000 0.000000 0.064122 0.000000 0.000000
# 5 0.000000 0.000000 0.000000 0.000000 0.024888 0.000000
# 6 0.000000 0.000000 0.000000 0.000000 0.000000 0.015879
#
#
# Mechanical properties :
#
#
# Convention : Reuss Voigt Hill
#
# Bulk Modulus (GPa) = 60.10553 122.76803 91.43678
# Shear Modulus (GPa) = 33.73601 51.85180 42.79390
#
# Velocity S-wave (km/s) = 3.36837 4.17595 3.79371
# Velocity P-wave (km/s) = 5.94494 8.03369 7.06691
#
# Compressibility (1/GPa) = 0.01663740
#
# Stress axis : x y z
#
# Youngs Moduli (GPa) = 258.22222 110.68027 69.93857
#
# Poissons Ratio (x) = 0.31500 0.21041
# Poissons Ratio (y) = 0.73490 -0.03989
# Poissons Ratio (z) = 0.77688 -0.06312
#
# Static dielectric constant tensor:
#      x y z
#    x 7.530240 0.000000 0.000000 
#    y 0.000000 5.804040 0.000000 
#    z 0.000000 0.000000 5.075310 
# 
# 
# High freq. dielectric constant tensor:
#      x y z
#    x 2.274460 0.000000 0.000000 
#    y 0.000000 2.265870 0.000000 
#    z 0.000000 0.000000 2.213710 
# 
# From -- ./inp_files/23629.got.cif
#   From: 2010.06.25/outbox.cif.g09.slc.cpg/sg43_12_cif.got.tgz:23629.got - 2010.06.26 16:48:59.
