data_PCOD8186237
_publ_section_title
;
Structure prediction by ZEFSAII (Michael W. Deem and Ramdas Pophale) SiO2 
 PCOD8186237
Probable space group: F M M 2
;
_chemical_formula_sum "Si O2"
_cell_formula_units_Z 80
_cell_length_a 9.323898
_cell_length_b 15.750266
_cell_length_c 28.476410
_cell_angle_alpha 90.000000
_cell_angle_beta 90.000000
_cell_angle_gamma 90.000000
_cell_volume 4181.871116
_symmetry_space_group_name_H-M "F M M 2"
_symmetry_group_IT_number 42
_symmetry_cell_setting 'orthorhombic'
loop_
_space_group_symop_operation_xyz
x,y,z
-x,-y,z
-x,y,z
x,-y,z
x,1/2+y,1/2+z
-x,1/2-y,1/2+z
-x,1/2+y,1/2+z
x,1/2-y,1/2+z
1/2+x,y,1/2+z
1/2-x,-y,1/2+z
1/2-x,y,1/2+z
1/2+x,-y,1/2+z
1/2+x,1/2+y,z
1/2-x,1/2-y,z
1/2-x,1/2+y,z
1/2+x,1/2-y,z
loop_
_atom_site_type_symbol
_atom_site_label
_atom_site_fract_x
_atom_site_fract_y
_atom_site_fract_z
Si Si1 0.329536 0.000000 0.963681
Si Si2 0.329558 0.500000 0.357176
Si Si3 0.340471 0.905217 0.705634
Si Si4 0.668904 0.833464 0.803612
Si Si5 0.832729 0.335901 0.019249
Si Si6 0.166433 0.165469 0.626956
O O1 0.272178 0.085387 0.989011
O O2 0.500000 0.000000 0.967128
O O3 0.273147 0.000000 0.910606
O O4 0.500000 0.500000 0.355364
O O5 0.271729 0.585141 0.332165
O O6 0.500000 0.880896 0.687540
O O7 0.294999 0.844602 0.748502
O O8 0.229541 0.904122 0.662356
O O9 0.341467 0.000000 0.726482
O O10 0.500000 0.821970 0.812011
O O11 0.750000 0.750000 0.822318
O O12 0.750000 0.250000 0.005291
O O13 0.000000 0.319129 0.009725
O O14 0.805108 0.361174 0.073368
O O15 0.250000 0.250000 0.640315
O O16 0.000000 0.178592 0.637049
#
# Coordination Sequence:
#
# PCOD8186237 Si02
#       6
#     8   8  16  16  16  16
#     4   9  18  34  58  81 103 139 179 217 264 323
#     4   9  18  36  58  79 105 139 179 215 264 327
#     4  10  20  34  52  76 109 144 179 218 263 317
#     4  10  20  36  57  80 107 141 177 218 264 315
#     4   9  19  35  55  79 109 140 177 220 263 312
#     4  10  20  33  51  75 107 142 179 220 261 312
#
# _framework density 19.130192999999998
#
# number of rings (size 3 to 8) (size 9 to 14) (size 15 to 20)
#    0.000    2.400    1.000    1.200    1.400    4.400 
#    0.000    1.000    0.000    1.200    0.000    0.000 
#    0.000    0.000    0.000    0.000    0.000    0.000 
#
# Total GULP energy -247983.739277 kJ/mol
# GULP energy per Si atom -12399.186964 kJ/mol
# Density = 1.908665 g / cm^3
# Si number density = 19.130193 Si / 1000 Ang^3
#
#
#
# Elastic Constant Matrix: (Units=GPa)
#
#
# Indices 1 2 3 4 5 6 
#
# 1 62.4468 47.2810 47.0232 0.0000 0.0000 0.0000
# 2 47.2810 151.3135 70.9505 0.0000 0.0000 0.0000
# 3 47.0232 70.9505 110.8130 0.0000 0.0000 0.0000
# 4 0.0000 0.0000 0.0000 27.5135 0.0000 0.0000
# 5 0.0000 0.0000 0.0000 0.0000 18.4716 0.0000
# 6 0.0000 0.0000 0.0000 0.0000 0.0000 30.5358
#
#
#
# Elastic Compliance Matrix: (Units=1/GPa)
#
#
# Indices 1 2 3 4 5 6 
#
# 1 0.025184 -0.004085 -0.008072 0.000000 0.000000 0.000000
# 2 -0.004085 0.010107 -0.004738 0.000000 0.000000 0.000000
# 3 -0.008072 -0.004738 0.015483 0.000000 0.000000 0.000000
# 4 0.000000 0.000000 0.000000 0.036346 0.000000 0.000000
# 5 0.000000 0.000000 0.000000 0.000000 0.054137 0.000000
# 6 0.000000 0.000000 0.000000 0.000000 0.000000 0.032748
#
#
# Mechanical properties :
#
#
# Convention : Reuss Voigt Hill
#
# Bulk Modulus (GPa) = 58.87254 72.78699 65.82976
# Shear Modulus (GPa) = 23.42417 25.92544 24.67480
#
# Velocity S-wave (km/s) = 3.50303 3.68531 3.59532
# Velocity P-wave (km/s) = 6.87045 7.49930 7.19175
#
# Compressibility (1/GPa) = 0.01698585
#
# Stress axis : x y z
#
# Youngs Moduli (GPa) = 39.70732 98.94521 64.58771
#
# Poissons Ratio (x) = 0.40415 0.52133
# Poissons Ratio (y) = 0.16219 0.30600
# Poissons Ratio (z) = 0.32050 0.46877
#
# Static dielectric constant tensor:
#      x y z
#    x 3.241320 0.000000 0.000000 
#    y 0.000000 3.513520 0.000000 
#    z 0.000000 0.000000 3.460150 
# 
# 
# High freq. dielectric constant tensor:
#      x y z
#    x 1.714910 0.000000 0.000000 
#    y 0.000000 1.750950 0.000000 
#    z 0.000000 0.000000 1.741110 
# 
# From -- ./inp_files/31280.got.cif
#   From: 2010.03.12/outbox.cif.g09.slc.cpg/sg42_16_cif.got.tgz:31280.got - 2010.04.14 02:04:31.
