data_PCOD8186605
_publ_section_title
;
Structure prediction by ZEFSAII (Michael W. Deem and Ramdas Pophale) SiO2 
 PCOD8186605
Probable space group: F M M 2
;
_chemical_formula_sum "Si O2"
_cell_formula_units_Z 72
_cell_length_a 21.884773
_cell_length_b 15.479064
_cell_length_c 10.102054
_cell_angle_alpha 90.000000
_cell_angle_beta 90.000000
_cell_angle_gamma 90.000000
_cell_volume 3422.129404
_symmetry_space_group_name_H-M "F M M 2"
_symmetry_group_IT_number 42
_symmetry_cell_setting 'orthorhombic'
loop_
_space_group_symop_operation_xyz
x,y,z
-x,-y,z
-x,y,z
x,-y,z
x,1/2+y,1/2+z
-x,1/2-y,1/2+z
-x,1/2+y,1/2+z
x,1/2-y,1/2+z
1/2+x,y,1/2+z
1/2-x,-y,1/2+z
1/2-x,y,1/2+z
1/2+x,-y,1/2+z
1/2+x,1/2+y,z
1/2-x,1/2-y,z
1/2-x,1/2+y,z
1/2+x,1/2-y,z
loop_
_atom_site_type_symbol
_atom_site_label
_atom_site_fract_x
_atom_site_fract_y
_atom_site_fract_z
Si Si1 0.134408 0.679732 0.099200
Si Si2 0.433567 0.596065 0.370126
Si Si3 0.429504 0.148877 0.586187
Si Si4 0.667562 0.900128 0.365501
Si Si5 0.750000 0.250000 0.972567
O O1 0.084246 0.752779 0.129327
O O2 0.137638 0.613146 0.220798
O O3 0.117816 0.639091 0.958329
O O4 0.200561 0.718372 0.076601
O O5 0.500000 0.643051 0.384513
O O6 0.440158 0.500000 0.423020
O O7 0.414043 0.593838 0.216722
O O8 0.500000 0.138274 0.542269
O O9 0.386459 0.115484 0.469569
O O10 0.722642 0.830449 0.385999
O O11 0.691052 0.000000 0.376583
#
# Coordination Sequence:
#
# PCOD8186605 Si02
#       5
#    16  16  16  16   8
#     4  11  22  39  62  88 117 154 203 254 302 353
#     4  10  21  37  58  86 119 154 191 233 291 361
#     4  10  21  39  62  88 124 165 198 238 301 371
#     4  11  24  41  64  93 122 158 210 266 311 360
#     4  10  24  44  60  84 122 164 204 250 314 386
#
# _framework density 21.039532999999999
#
# number of rings (size 3 to 8) (size 9 to 14) (size 15 to 20)
#    0.000    1.556    0.000    5.333    0.000    8.444 
#    0.000    0.000    0.000    0.000    0.000    0.000 
#    0.000    0.000    0.000    0.000    0.000    0.000 
#
# Total GULP energy -223108.014303 kJ/mol
# GULP energy per Si atom -12394.889683 kJ/mol
# Density = 2.099165 g / cm^3
# Si number density = 21.039533 Si / 1000 Ang^3
#
#
#
# Elastic Constant Matrix: (Units=GPa)
#
#
# Indices 1 2 3 4 5 6 
#
# 1 102.2132 44.2909 57.6212 0.0000 0.0000 0.0000
# 2 44.2909 129.1430 35.6327 0.0000 0.0000 0.0000
# 3 57.6212 35.6327 115.1479 0.0000 0.0000 0.0000
# 4 0.0000 0.0000 0.0000 8.9800 0.0000 0.0000
# 5 0.0000 0.0000 0.0000 0.0000 28.7936 0.0000
# 6 0.0000 0.0000 0.0000 0.0000 0.0000 69.4278
#
#
#
# Elastic Compliance Matrix: (Units=1/GPa)
#
#
# Indices 1 2 3 4 5 6 
#
# 1 0.014825 -0.003321 -0.006391 0.000000 0.000000 0.000000
# 2 -0.003321 0.009210 -0.001188 0.000000 0.000000 0.000000
# 3 -0.006391 -0.001188 0.012250 0.000000 0.000000 0.000000
# 4 0.000000 0.000000 0.000000 0.111358 0.000000 0.000000
# 5 0.000000 0.000000 0.000000 0.000000 0.034730 0.000000
# 6 0.000000 0.000000 0.000000 0.000000 0.000000 0.014403
#
#
# Mechanical properties :
#
#
# Convention : Reuss Voigt Hill
#
# Bulk Modulus (GPa) = 69.03599 69.06597 69.05098
# Shear Modulus (GPa) = 22.38070 35.37090 28.87580
#
# Velocity S-wave (km/s) = 3.26505 4.10465 3.70868
# Velocity P-wave (km/s) = 6.86278 7.44058 7.15751
#
# Compressibility (1/GPa) = 0.01448520
#
# Stress axis : x y z
#
# Youngs Moduli (GPa) = 67.45156 108.57519 81.63042
#
# Poissons Ratio (x) = 0.36059 0.52171
# Poissons Ratio (y) = 0.22402 0.09699
# Poissons Ratio (z) = 0.43109 0.12901
#
# Static dielectric constant tensor:
#      x y z
#    x 3.852610 0.000000 0.000000 
#    y 0.000000 4.699990 0.000000 
#    z 0.000000 0.000000 3.672230 
# 
# 
# High freq. dielectric constant tensor:
#      x y z
#    x 1.824360 0.000000 0.000000 
#    y 0.000000 1.824110 0.000000 
#    z 0.000000 0.000000 1.830250 
# 
# From -- ./inp_files/4527.got.cif
#   From: 2010.03.12/outbox.cif.g09.slc.cpg/sg42_3_cif.got.tgz:4527.got - 2010.04.14 02:04:31.
