data_PCOD8186369
_publ_section_title
;
Structure prediction by ZEFSAII (Michael W. Deem and Ramdas Pophale) SiO2 
 PCOD8186369
Probable space group: F M M 2
;
_chemical_formula_sum "Si O2"
_cell_formula_units_Z 64
_cell_length_a 18.966859
_cell_length_b 8.004929
_cell_length_c 23.501043
_cell_angle_alpha 90.000000
_cell_angle_beta 90.000000
_cell_angle_gamma 90.000000
_cell_volume 3568.124809
_symmetry_space_group_name_H-M "F M M 2"
_symmetry_group_IT_number 42
_symmetry_cell_setting 'orthorhombic'
loop_
_space_group_symop_operation_xyz
x,y,z
-x,-y,z
-x,y,z
x,-y,z
x,1/2+y,1/2+z
-x,1/2-y,1/2+z
-x,1/2+y,1/2+z
x,1/2-y,1/2+z
1/2+x,y,1/2+z
1/2-x,-y,1/2+z
1/2-x,y,1/2+z
1/2+x,-y,1/2+z
1/2+x,1/2+y,z
1/2-x,1/2-y,z
1/2-x,1/2+y,z
1/2+x,1/2-y,z
loop_
_atom_site_type_symbol
_atom_site_label
_atom_site_fract_x
_atom_site_fract_y
_atom_site_fract_z
Si Si1 0.676768 0.183074 0.449200
Si Si2 0.417899 0.313055 0.730966
Si Si3 0.916214 0.000000 0.028797
Si Si4 0.670885 0.689868 0.330120
Si Si5 0.416459 0.000000 0.658447
O O1 0.750000 0.250000 0.476105
O O2 0.649478 0.294406 0.396668
O O3 0.693753 0.000000 0.423089
O O4 0.616795 0.165843 0.498286
O O5 0.500000 0.282762 0.741865
O O6 0.404535 0.500000 0.705725
O O7 0.380280 0.301391 0.791792
O O8 0.388087 0.169812 0.688414
O O9 0.890247 0.000000 0.093602
O O10 0.000000 0.000000 0.021977
O O11 0.661715 0.500000 0.310593
O O12 0.750000 0.750000 0.320533
O O13 0.500000 0.000000 0.659186
#
# Coordination Sequence:
#
# PCOD8186369 Si02
#       5
#    16  16   8  16   8
#     4   9  18  33  55  79 108 149 188 220 289 339
#     4  10  20  35  57  83 112 148 187 231 280 335
#     4   9  20  36  59  80 109 149 193 236 277 334
#     4  11  20  33  54  82 116 148 186 226 282 345
#     4   9  18  38  57  78 110 151 191 226 280 338
#
# _framework density 17.936592000000001
#
# number of rings (size 3 to 8) (size 9 to 14) (size 15 to 20)
#    0.750    1.500    1.250    4.500    0.000    1.000 
#    0.000    3.750    0.000    5.250    0.000    0.000 
#    0.000    0.000    0.000    0.000    0.000    0.000 
#
# Total GULP energy -198276.757346 kJ/mol
# GULP energy per Si atom -12392.297334 kJ/mol
# Density = 1.789577 g / cm^3
# Si number density = 17.936592 Si / 1000 Ang^3
#
#
#
# Elastic Constant Matrix: (Units=GPa)
#
#
# Indices 1 2 3 4 5 6 
#
# 1 69.9767 30.3536 56.7154 0.0000 0.0000 -0.0001
# 2 30.3536 112.8325 42.5461 0.0000 0.0000 -0.0002
# 3 56.7154 42.5461 121.6380 0.0000 0.0000 0.0000
# 4 0.0000 0.0000 0.0000 26.1434 0.0000 0.0000
# 5 0.0000 0.0000 0.0000 0.0000 18.6960 0.0000
# 6 -0.0001 -0.0002 0.0000 0.0000 0.0000 29.4671
#
#
#
# Elastic Compliance Matrix: (Units=1/GPa)
#
#
# Indices 1 2 3 4 5 6 
#
# 1 0.023583 -0.002532 -0.010110 0.000000 0.000000 0.000000
# 2 -0.002532 0.010481 -0.002486 0.000000 0.000000 0.000000
# 3 -0.010110 -0.002486 0.013805 0.000000 0.000000 0.000000
# 4 0.000000 0.000000 0.000000 0.038251 0.000000 0.000000
# 5 0.000000 0.000000 0.000000 0.000000 0.053487 0.000000
# 6 0.000000 0.000000 0.000000 0.000000 0.000000 0.033936
#
#
# Mechanical properties :
#
#
# Convention : Reuss Voigt Hill
#
# Bulk Modulus (GPa) = 56.77544 62.63081 59.70312
# Shear Modulus (GPa) = 23.84709 26.51677 25.18193
#
# Velocity S-wave (km/s) = 3.65022 3.84912 3.75099
# Velocity P-wave (km/s) = 7.03474 7.39919 7.21926
#
# Compressibility (1/GPa) = 0.01761325
#
# Stress axis : x y z
#
# Youngs Moduli (GPa) = 42.40339 95.41064 72.43979
#
# Poissons Ratio (x) = 0.24156 0.73239
# Poissons Ratio (y) = 0.10736 0.18005
# Poissons Ratio (z) = 0.42871 0.23714
#
# Static dielectric constant tensor:
#      x y z
#    x 3.082740 0.000000 0.000000 
#    y 0.000000 3.480530 0.000000 
#    z 0.000000 0.000000 3.236720 
# 
# 
# High freq. dielectric constant tensor:
#      x y z
#    x 1.676550 0.000000 0.000000 
#    y 0.000000 1.701210 0.000000 
#    z 0.000000 0.000000 1.679550 
# 
# From -- ./inp_files/27621.got.cif
#   From: 2010.03.12/outbox.cif.g09.slc.cpg/sg42_14_cif.got.tgz:27621.got - 2010.04.14 02:04:31.
