data_PCOD8186589
_publ_section_title
;
Structure prediction by ZEFSAII (Michael W. Deem and Ramdas Pophale) SiO2 
 PCOD8186589
Probable space group: F M M 2
;
_chemical_formula_sum "Si O2"
_cell_formula_units_Z 88
_cell_length_a 20.632163
_cell_length_b 15.626023
_cell_length_c 12.657002
_cell_angle_alpha 90.000000
_cell_angle_beta 90.000000
_cell_angle_gamma 90.000000
_cell_volume 4080.600403
_symmetry_space_group_name_H-M "F M M 2"
_symmetry_group_IT_number 42
_symmetry_cell_setting 'orthorhombic'
loop_
_space_group_symop_operation_xyz
x,y,z
-x,-y,z
-x,y,z
x,-y,z
x,1/2+y,1/2+z
-x,1/2-y,1/2+z
-x,1/2+y,1/2+z
x,1/2-y,1/2+z
1/2+x,y,1/2+z
1/2-x,-y,1/2+z
1/2-x,y,1/2+z
1/2+x,-y,1/2+z
1/2+x,1/2+y,z
1/2-x,1/2-y,z
1/2-x,1/2+y,z
1/2+x,1/2-y,z
loop_
_atom_site_type_symbol
_atom_site_label
_atom_site_fract_x
_atom_site_fract_y
_atom_site_fract_z
Si Si1 0.166428 0.097464 0.320850
Si Si2 0.427487 0.357521 0.143573
Si Si3 0.928765 0.098651 0.499581
Si Si4 0.250000 0.250000 0.251657
Si Si5 0.119046 0.818485 0.698878
Si Si6 0.075522 0.901863 0.907543
O O1 0.125184 0.091582 0.212543
O O2 0.119270 0.135806 0.411353
O O3 0.224551 0.166970 0.317951
O O4 0.191896 0.000000 0.344482
O O5 0.500000 0.396825 0.158487
O O6 0.430298 0.258978 0.178724
O O7 0.406723 0.362599 0.021119
O O8 0.898084 0.107840 0.615828
O O9 0.000000 0.143131 0.491544
O O10 0.937539 0.000000 0.475668
O O11 0.191868 0.284265 0.178522
O O12 0.115064 0.851449 0.818449
O O13 0.000000 0.892666 0.881418
O O14 0.097436 0.000000 0.906092
#
# Coordination Sequence:
#
# PCOD8186589 Si02
#       6
#    16  16  16   8  16  16
#     4  10  22  42  64  92 126 168 216 264 318 379
#     4  10  21  36  61  94 127 164 206 262 328 387
#     4  10  21  38  66  99 128 161 205 266 332 386
#     4  10  26  44  62  86 126 178 224 260 298 376
#     4  11  23  40  60  90 126 170 214 261 314 378
#     4  10  21  38  62  93 126 161 207 266 329 387
#
# _framework density 21.565453999999999
#
# number of rings (size 3 to 8) (size 9 to 14) (size 15 to 20)
#    0.000    1.818    0.000    3.273    5.091    5.455 
#    3.273    0.000    0.000    0.000    0.000    0.000 
#    0.000    0.000    0.000    0.000    0.000    0.000 
#
# Total GULP energy -272737.815078 kJ/mol
# GULP energy per Si atom -12397.173413 kJ/mol
# Density = 2.151637 g / cm^3
# Si number density = 21.565454 Si / 1000 Ang^3
#
#
#
# Elastic Constant Matrix: (Units=GPa)
#
#
# Indices 1 2 3 4 5 6 
#
# 1 103.2789 36.6530 35.6604 0.0000 0.0000 0.0000
# 2 36.6530 100.7065 36.2604 0.0000 0.0000 0.0000
# 3 35.6604 36.2604 129.1709 0.0000 0.0000 0.0000
# 4 0.0000 0.0000 0.0000 31.8693 0.0000 0.0000
# 5 0.0000 0.0000 0.0000 0.0000 22.5307 0.0000
# 6 0.0000 0.0000 0.0000 0.0000 0.0000 25.2637
#
#
#
# Elastic Compliance Matrix: (Units=1/GPa)
#
#
# Indices 1 2 3 4 5 6 
#
# 1 0.011683 -0.003438 -0.002260 0.000000 0.000000 0.000000
# 2 -0.003438 0.012058 -0.002436 0.000000 0.000000 0.000000
# 3 -0.002260 -0.002436 0.009049 0.000000 0.000000 0.000000
# 4 0.000000 0.000000 0.000000 0.031378 0.000000 0.000000
# 5 0.000000 0.000000 0.000000 0.000000 0.044384 0.000000
# 6 0.000000 0.000000 0.000000 0.000000 0.000000 0.039582
#
#
# Mechanical properties :
#
#
# Convention : Reuss Voigt Hill
#
# Bulk Modulus (GPa) = 60.52430 61.14487 60.83459
# Shear Modulus (GPa) = 29.42709 30.90489 30.16599
#
# Velocity S-wave (km/s) = 3.69799 3.78970 3.74413
# Velocity P-wave (km/s) = 6.80880 6.89665 6.85287
#
# Compressibility (1/GPa) = 0.01652229
#
# Stress axis : x y z
#
# Youngs Moduli (GPa) = 85.59309 82.93053 110.50451
#
# Poissons Ratio (x) = 0.28515 0.24976
# Poissons Ratio (y) = 0.29430 0.26916
# Poissons Ratio (z) = 0.19346 0.20200
#
# Static dielectric constant tensor:
#      x y z
#    x 3.925480 0.000000 0.000000 
#    y 0.000000 3.867140 0.000000 
#    z 0.000000 0.000000 3.797940 
# 
# 
# High freq. dielectric constant tensor:
#      x y z
#    x 1.834490 0.000000 0.000000 
#    y 0.000000 1.853000 0.000000 
#    z 0.000000 0.000000 1.841490 
# 
# From -- ./inp_files/8689.got.cif
#   From: 2010.03.12/outbox.cif.g09.slc.cpg/sg42_5_cif.got.tgz:8689.got - 2010.04.14 02:04:31.
