data_PCOD8186352
_publ_section_title
;
Structure prediction by ZEFSAII (Michael W. Deem and Ramdas Pophale) SiO2 
 PCOD8186352
Probable space group: F M M 2
;
_chemical_formula_sum "Si O2"
_cell_formula_units_Z 112
_cell_length_a 25.154265
_cell_length_b 14.224196
_cell_length_c 14.729409
_cell_angle_alpha 90.000000
_cell_angle_beta 90.000000
_cell_angle_gamma 90.000000
_cell_volume 5270.170692
_symmetry_space_group_name_H-M "F M M 2"
_symmetry_group_IT_number 42
_symmetry_cell_setting 'orthorhombic'
loop_
_space_group_symop_operation_xyz
x,y,z
-x,-y,z
-x,y,z
x,-y,z
x,1/2+y,1/2+z
-x,1/2-y,1/2+z
-x,1/2+y,1/2+z
x,1/2-y,1/2+z
1/2+x,y,1/2+z
1/2-x,-y,1/2+z
1/2-x,y,1/2+z
1/2+x,-y,1/2+z
1/2+x,1/2+y,z
1/2-x,1/2-y,z
1/2-x,1/2+y,z
1/2+x,1/2-y,z
loop_
_atom_site_type_symbol
_atom_site_label
_atom_site_fract_x
_atom_site_fract_y
_atom_site_fract_z
Si Si1 0.127829 0.744648 0.410690
Si Si2 0.268321 0.106028 0.149628
Si Si3 0.300114 0.897154 0.817413
Si Si4 0.117607 0.316423 0.109291
Si Si5 0.725118 0.147018 0.463155
Si Si6 0.937641 0.000000 0.343405
Si Si7 0.938171 0.798389 0.262427
Si Si8 0.563287 0.500000 0.552514
O O1 0.157273 0.822067 0.348237
O O2 0.110735 0.782263 0.507164
O O3 0.164236 0.652518 0.426457
O O4 0.075755 0.728346 0.347986
O O5 0.233134 0.144177 0.232687
O O6 0.320171 0.169913 0.133299
O O7 0.287356 0.000000 0.168925
O O8 0.228357 0.107293 0.064274
O O9 0.258380 0.919210 0.897538
O O10 0.327049 0.000000 0.796376
O O11 0.094067 0.236463 0.174562
O O12 0.084600 0.412496 0.111633
O O13 0.750000 0.250000 0.460223
O O14 0.921690 0.093877 0.287338
O O15 0.914022 0.000000 0.447779
O O16 0.000000 0.000000 0.358586
O O17 0.000000 0.789873 0.240678
O O18 0.500000 0.500000 0.553790
#
# Coordination Sequence:
#
# PCOD8186352 Si02
#       8
#    16  16  16  16  16   8  16   8
#     4  11  24  39  64  89 127 175 220 275 334 403
#     4  11  22  38  61  93 130 174 216 269 332 409
#     4  10  22  36  58  86 124 165 211 264 325 393
#     4  12  23  39  70 100 137 170 226 286 346 404
#     4  10  20  35  55  84 124 163 203 254 320 390
#     4   9  20  42  68  94 130 174 228 291 344 395
#     4  11  25  43  67  98 134 176 229 290 348 406
#     4  11  22  40  70 102 132 176 234 291 339 395
#
# _framework density 21.251683
#
# number of rings (size 3 to 8) (size 9 to 14) (size 15 to 20)
#    0.000    1.286    5.000    1.714    4.000    2.286 
#    0.000    0.000    1.571    0.000    0.000    1.000 
#    0.000    0.000    0.000    0.000    0.000    0.000 
#
# Total GULP energy -347025.186531 kJ/mol
# GULP energy per Si atom -12393.756662 kJ/mol
# Density = 2.120331 g / cm^3
# Si number density = 21.251683 Si / 1000 Ang^3
#
#
#
# Elastic Constant Matrix: (Units=GPa)
#
#
# Indices 1 2 3 4 5 6 
#
# 1 71.3020 28.5187 42.3699 0.0000 0.0000 0.0000
# 2 28.5187 67.8371 26.5261 0.0000 0.0000 0.0000
# 3 42.3699 26.5261 151.1777 0.0000 0.0000 0.0000
# 4 0.0000 0.0000 0.0000 41.5340 0.0000 0.0000
# 5 0.0000 0.0000 0.0000 0.0000 36.6563 0.0000
# 6 0.0000 0.0000 0.0000 0.0000 0.0000 30.3489
#
#
#
# Elastic Compliance Matrix: (Units=1/GPa)
#
#
# Indices 1 2 3 4 5 6 
#
# 1 0.019087 -0.006369 -0.004232 0.000000 0.000000 0.000000
# 2 -0.006369 0.017953 -0.001365 0.000000 0.000000 0.000000
# 3 -0.004232 -0.001365 0.008040 0.000000 0.000000 0.000000
# 4 0.000000 0.000000 0.000000 0.024077 0.000000 0.000000
# 5 0.000000 0.000000 0.000000 0.000000 0.027280 0.000000
# 6 0.000000 0.000000 0.000000 0.000000 0.000000 0.032950
#
#
# Mechanical properties :
#
#
# Convention : Reuss Voigt Hill
#
# Bulk Modulus (GPa) = 47.28666 53.90514 50.59590
# Shear Modulus (GPa) = 31.17811 34.56798 32.87304
#
# Velocity S-wave (km/s) = 3.83441 4.03749 3.93726
# Velocity P-wave (km/s) = 6.47323 6.86697 6.67301
#
# Compressibility (1/GPa) = 0.02114761
#
# Stress axis : x y z
#
# Youngs Moduli (GPa) = 52.39120 55.70218 124.37403
#
# Poissons Ratio (x) = 0.35479 0.52633
# Poissons Ratio (y) = 0.33370 0.16975
# Poissons Ratio (z) = 0.22171 0.07603
#
# Static dielectric constant tensor:
#      x y z
#    x 4.087480 0.000000 0.000000 
#    y 0.000000 3.831930 0.000000 
#    z 0.000000 0.000000 3.981200 
# 
# 
# High freq. dielectric constant tensor:
#      x y z
#    x 1.831890 0.000000 0.000000 
#    y 0.000000 1.818430 0.000000 
#    z 0.000000 0.000000 1.840130 
# 
# From -- ./inp_files/17096.got.cif
#   From: 2010.03.12/outbox.cif.g09.slc.cpg/sg42_9_cif.got.tgz:17096.got - 2010.04.14 02:04:31.
