data_PCOD8186368
_publ_section_title
;
Structure prediction by ZEFSAII (Michael W. Deem and Ramdas Pophale) SiO2 
 PCOD8186368
Probable space group: F M M 2
;
_chemical_formula_sum "Si O2"
_cell_formula_units_Z 96
_cell_length_a 19.041325
_cell_length_b 8.812156
_cell_length_c 30.009403
_cell_angle_alpha 90.000000
_cell_angle_beta 90.000000
_cell_angle_gamma 90.000000
_cell_volume 5035.431568
_symmetry_space_group_name_H-M "F M M 2"
_symmetry_group_IT_number 42
_symmetry_cell_setting 'orthorhombic'
loop_
_space_group_symop_operation_xyz
x,y,z
-x,-y,z
-x,y,z
x,-y,z
x,1/2+y,1/2+z
-x,1/2-y,1/2+z
-x,1/2+y,1/2+z
x,1/2-y,1/2+z
1/2+x,y,1/2+z
1/2-x,-y,1/2+z
1/2-x,y,1/2+z
1/2+x,-y,1/2+z
1/2+x,1/2+y,z
1/2-x,1/2-y,z
1/2-x,1/2+y,z
1/2+x,1/2-y,z
loop_
_atom_site_type_symbol
_atom_site_label
_atom_site_fract_x
_atom_site_fract_y
_atom_site_fract_z
Si Si1 0.176887 0.679015 0.452850
Si Si2 0.822592 0.178692 0.299971
Si Si3 0.918616 0.676942 0.619820
Si Si4 0.178606 0.822708 0.199535
Si Si5 0.675891 0.320344 0.546803
Si Si6 0.919330 0.823574 0.870661
O O1 0.186212 0.500000 0.459822
O O2 0.250000 0.750000 0.436100
O O3 0.153251 0.754229 0.499079
O O4 0.118019 0.719300 0.416819
O O5 0.750000 0.250000 0.317796
O O6 0.838083 0.235057 0.249530
O O7 0.887096 0.230643 0.329995
O O8 0.814994 0.000000 0.302863
O O9 0.906290 0.500000 0.609171
O O10 0.885322 0.722488 0.667365
O O11 0.884257 0.777025 0.581412
O O12 0.000000 0.718392 0.622398
O O13 0.250000 0.750000 0.180844
O O14 0.191351 0.000000 0.199961
O O15 0.683795 0.500000 0.543690
O O16 0.750000 0.250000 0.562394
O O17 0.000000 0.776345 0.875568
O O18 0.910023 0.000000 0.859886
#
# Coordination Sequence:
#
# PCOD8186368 Si02
#       6
#    16  16  16  16  16  16
#     4  10  20  36  58  81 106 140 182 225 270 320
#     4  10  20  35  57  83 110 142 182 226 270 318
#     4  10  21  37  56  79 111 148 181 218 269 324
#     4   9  19  35  56  81 107 140 182 225 268 317
#     4  11  22  37  58  83 110 140 180 226 270 319
#     4  10  22  38  55  79 112 147 181 220 269 323
#
# _framework density 19.064900000000002
#
# number of rings (size 3 to 8) (size 9 to 14) (size 15 to 20)
#    0.000    2.000    0.000    4.500    0.000    7.333 
#    0.000    3.333    0.000    0.000    0.000    0.000 
#    0.000    0.000    0.000    0.000    0.000    0.000 
#
# Total GULP energy -297694.601802 kJ/mol
# GULP energy per Si atom -12403.941742 kJ/mol
# Density = 1.902151 g / cm^3
# Si number density = 19.064900 Si / 1000 Ang^3
#
#
#
# Elastic Constant Matrix: (Units=GPa)
#
#
# Indices 1 2 3 4 5 6 
#
# 1 150.5925 56.2926 89.7061 0.0000 0.0000 0.0000
# 2 56.2926 86.2079 56.5499 0.0000 0.0000 0.0000
# 3 89.7061 56.5499 119.0931 0.0000 0.0000 0.0000
# 4 0.0000 0.0000 0.0000 30.4380 0.0000 0.0000
# 5 0.0000 0.0000 0.0000 0.0000 5.4503 0.0000
# 6 0.0000 0.0000 0.0000 0.0000 0.0000 29.8918
#
#
#
# Elastic Compliance Matrix: (Units=1/GPa)
#
#
# Indices 1 2 3 4 5 6 
#
# 1 0.012522 -0.002889 -0.008060 0.000000 0.000000 0.000000
# 2 -0.002889 0.017514 -0.006140 0.000000 0.000000 0.000000
# 3 -0.008060 -0.006140 0.017383 0.000000 0.000000 0.000000
# 4 0.000000 0.000000 0.000000 0.032854 0.000000 0.000000
# 5 0.000000 0.000000 0.000000 0.000000 0.183478 0.000000
# 6 0.000000 0.000000 0.000000 0.000000 0.000000 0.033454
#
#
# Mechanical properties :
#
#
# Convention : Reuss Voigt Hill
#
# Bulk Modulus (GPa) = 75.52463 84.55451 80.03957
# Shear Modulus (GPa) = 14.88996 23.37902 19.13449
#
# Velocity S-wave (km/s) = 2.79770 3.50564 3.17148
# Velocity P-wave (km/s) = 7.08072 7.79956 7.44882
#
# Compressibility (1/GPa) = 0.01324071
#
# Stress axis : x y z
#
# Youngs Moduli (GPa) = 79.86133 57.09623 57.52640
#
# Poissons Ratio (x) = 0.16498 0.46366
# Poissons Ratio (y) = 0.23076 0.35321
# Poissons Ratio (z) = 0.64367 0.35057
#
# Static dielectric constant tensor:
#      x y z
#    x 3.503960 0.000000 0.000000 
#    y 0.000000 3.468730 0.000000 
#    z 0.000000 0.000000 3.653110 
# 
# 
# High freq. dielectric constant tensor:
#      x y z
#    x 1.736810 0.000000 0.000000 
#    y 0.000000 1.742890 0.000000 
#    z 0.000000 0.000000 1.752260 
# 
# From -- ./inp_files/31437.got.cif
#   From: 2010.03.12/outbox.cif.g09.slc.cpg/sg42_16_cif.got.tgz:31437.got - 2010.04.14 02:04:31.
