data_PCOD8186644
_publ_section_title
;
Structure prediction by ZEFSAII (Michael W. Deem and Ramdas Pophale) SiO2 
 PCOD8186644
Probable space group: F M M 2
;
_chemical_formula_sum "Si O2"
_cell_formula_units_Z 48
_cell_length_a 20.786022
_cell_length_b 12.440092
_cell_length_c 9.051648
_cell_angle_alpha 90.000000
_cell_angle_beta 90.000000
_cell_angle_gamma 90.000000
_cell_volume 2340.575375
_symmetry_space_group_name_H-M "F M M 2"
_symmetry_group_IT_number 42
_symmetry_cell_setting 'orthorhombic'
loop_
_space_group_symop_operation_xyz
x,y,z
-x,-y,z
-x,y,z
x,-y,z
x,1/2+y,1/2+z
-x,1/2-y,1/2+z
-x,1/2+y,1/2+z
x,1/2-y,1/2+z
1/2+x,y,1/2+z
1/2-x,-y,1/2+z
1/2-x,y,1/2+z
1/2+x,-y,1/2+z
1/2+x,1/2+y,z
1/2-x,1/2-y,z
1/2-x,1/2+y,z
1/2+x,1/2-y,z
loop_
_atom_site_type_symbol
_atom_site_label
_atom_site_fract_x
_atom_site_fract_y
_atom_site_fract_z
Si Si1 0.723389 0.000000 0.632720
Si Si2 0.389356 0.380225 0.234084
Si Si3 0.838557 0.000000 0.826702
Si Si4 0.073245 0.690010 0.420092
O O1 0.687054 0.105993 0.698895
O O2 0.715253 0.000000 0.455910
O O3 0.798724 0.000000 0.673310
O O4 0.419763 0.500000 0.255678
O O5 0.401227 0.308866 0.378611
O O6 0.423315 0.322572 0.095739
O O7 0.883426 0.896174 0.834237
O O8 0.000000 0.675320 0.367687
#
# Coordination Sequence:
#
# PCOD8186644 Si02
#       4
#     8  16   8  16
#     4   8  20  40  58  86 120 162 198 250 298 344
#     4   9  22  42  60  88 122 161 202 247 298 353
#     4  10  21  38  62  88 121 158 204 244 300 362
#     4  11  21  38  65  90 123 163 194 248 308 356
#
# _framework density 20.507777999999998
#
# number of rings (size 3 to 8) (size 9 to 14) (size 15 to 20)
#    1.000    1.333    1.667    1.500    0.000    6.000 
#    3.000    6.667    0.000    0.000    0.000    0.000 
#    0.000    0.000    0.000    0.000    0.000    0.000 
#
# Total GULP energy -148729.385154 kJ/mol
# GULP energy per Si atom -12394.115429 kJ/mol
# Density = 2.046110 g / cm^3
# Si number density = 20.507778 Si / 1000 Ang^3
#
#
#
# Elastic Constant Matrix: (Units=GPa)
#
#
# Indices 1 2 3 4 5 6 
#
# 1 78.9717 22.6266 11.5363 0.0000 0.0000 0.0000
# 2 22.6266 149.7697 61.9323 0.0000 0.0000 0.0000
# 3 11.5363 61.9323 44.4049 0.0000 0.0000 0.0000
# 4 0.0000 0.0000 0.0000 43.7473 0.0000 0.0000
# 5 0.0000 0.0000 0.0000 0.0000 32.2632 0.0000
# 6 0.0000 0.0000 0.0000 0.0000 0.0000 16.9449
#
#
#
# Elastic Compliance Matrix: (Units=1/GPa)
#
#
# Indices 1 2 3 4 5 6 
#
# 1 0.013280 -0.001369 -0.001540 0.000000 0.000000 0.000000
# 2 -0.001369 0.015916 -0.021843 0.000000 0.000000 0.000000
# 3 -0.001540 -0.021843 0.053385 0.000000 0.000000 0.000000
# 4 0.000000 0.000000 0.000000 0.022859 0.000000 0.000000
# 5 0.000000 0.000000 0.000000 0.000000 0.030995 0.000000
# 6 0.000000 0.000000 0.000000 0.000000 0.000000 0.059015
#
#
# Mechanical properties :
#
#
# Convention : Reuss Voigt Hill
#
# Bulk Modulus (GPa) = 30.23323 51.70406 40.96865
# Shear Modulus (GPa) = 19.53279 30.39448 24.96364
#
# Velocity S-wave (km/s) = 3.08954 3.85398 3.49273
# Velocity P-wave (km/s) = 5.24417 6.71348 6.02379
#
# Compressibility (1/GPa) = 0.03307619
#
# Stress axis : x y z
#
# Youngs Moduli (GPa) = 75.30053 62.82915 18.73191
#
# Poissons Ratio (x) = 0.08604 0.02885
# Poissons Ratio (y) = 0.10312 0.40916
# Poissons Ratio (z) = 0.11598 1.37237
#
# Static dielectric constant tensor:
#      x y z
#    x 3.506120 0.000000 0.000000 
#    y 0.000000 3.604880 0.000000 
#    z 0.000000 0.000000 3.421670 
# 
# 
# High freq. dielectric constant tensor:
#      x y z
#    x 1.795520 0.000000 0.000000 
#    y 0.000000 1.794820 0.000000 
#    z 0.000000 0.000000 1.785160 
# 
# From -- ./inp_files/2053.got.cif
#   From: 2010.03.12/outbox.cif.g09.slc.cpg/sg42_2_cif.got.tgz:2053.got - 2010.04.14 02:04:31.
