data_PCOD8186053
_publ_section_title
;
Structure prediction by ZEFSAII (Michael W. Deem and Ramdas Pophale) SiO2 
 PCOD8186053
Probable space group: F M M 2
;
_chemical_formula_sum "Si O2"
_cell_formula_units_Z 80
_cell_length_a 16.598465
_cell_length_b 21.167570
_cell_length_c 12.473021
_cell_angle_alpha 90.000000
_cell_angle_beta 90.000000
_cell_angle_gamma 90.000000
_cell_volume 4382.385573
_symmetry_space_group_name_H-M "F M M 2"
_symmetry_group_IT_number 42
_symmetry_cell_setting 'orthorhombic'
loop_
_space_group_symop_operation_xyz
x,y,z
-x,-y,z
-x,y,z
x,-y,z
x,1/2+y,1/2+z
-x,1/2-y,1/2+z
-x,1/2+y,1/2+z
x,1/2-y,1/2+z
1/2+x,y,1/2+z
1/2-x,-y,1/2+z
1/2-x,y,1/2+z
1/2+x,-y,1/2+z
1/2+x,1/2+y,z
1/2-x,1/2-y,z
1/2-x,1/2+y,z
1/2+x,1/2-y,z
loop_
_atom_site_type_symbol
_atom_site_label
_atom_site_fract_x
_atom_site_fract_y
_atom_site_fract_z
Si Si1 0.591880 0.162877 0.470880
Si Si2 0.149526 0.190474 0.752012
Si Si3 0.903868 0.698127 0.019817
Si Si4 0.095788 0.570658 0.645720
Si Si5 0.664911 0.330190 0.302721
O O1 0.500000 0.165147 0.503794
O O2 0.601440 0.152055 0.343566
O O3 0.628961 0.229736 0.510023
O O4 0.630085 0.105103 0.538328
O O5 0.121693 0.168529 0.634278
O O6 0.241521 0.174429 0.775624
O O7 0.125579 0.264408 0.762927
O O8 0.000000 0.692495 0.002282
O O9 0.854952 0.659979 0.928655
O O10 0.132101 0.500000 0.649022
O O11 0.125792 0.609530 0.747535
O O12 0.000000 0.567425 0.647726
#
# Coordination Sequence:
#
# PCOD8186053 Si02
#       5
#    16  16  16  16  16
#     4   9  18  32  52  79 108 139 180 219 266 324
#     4  10  20  31  54  80 113 139 168 225 285 325
#     4  10  19  32  53  81 113 142 172 222 278 328
#     4  10  20  36  57  77 105 147 190 224 254 313
#     4  10  21  32  52  80 110 141 180 218 274 327
#
# _framework density 18.254898000000001
#
# number of rings (size 3 to 8) (size 9 to 14) (size 15 to 20)
#    0.000    2.200    2.000    1.200    2.800    3.200 
#    0.000    1.000    0.000    1.200    0.000    2.800 
#    0.000    0.000    0.000    0.000    0.000    0.000 
#
# Total GULP energy -247892.265474 kJ/mol
# GULP energy per Si atom -12394.613274 kJ/mol
# Density = 1.821335 g / cm^3
# Si number density = 18.254898 Si / 1000 Ang^3
#
#
#
# Elastic Constant Matrix: (Units=GPa)
#
#
# Indices 1 2 3 4 5 6 
#
# 1 46.6490 21.2664 28.5964 0.0000 0.0000 0.0000
# 2 21.2664 105.8351 61.7174 0.0000 0.0000 0.0000
# 3 28.5964 61.7174 175.0708 0.0000 0.0000 0.0000
# 4 0.0000 0.0000 0.0000 23.7871 0.0000 0.0000
# 5 0.0000 0.0000 0.0000 0.0000 30.1524 0.0000
# 6 0.0000 0.0000 0.0000 0.0000 0.0000 5.0784
#
#
#
# Elastic Compliance Matrix: (Units=1/GPa)
#
#
# Indices 1 2 3 4 5 6 
#
# 1 0.024697 -0.003286 -0.002876 0.000000 0.000000 0.000000
# 2 -0.003286 0.012331 -0.003810 0.000000 0.000000 0.000000
# 3 -0.002876 -0.003810 0.007525 0.000000 0.000000 0.000000
# 4 0.000000 0.000000 0.000000 0.042040 0.000000 0.000000
# 5 0.000000 0.000000 0.000000 0.000000 0.033165 0.000000
# 6 0.000000 0.000000 0.000000 0.000000 0.000000 0.196911
#
#
# Mechanical properties :
#
#
# Convention : Reuss Voigt Hill
#
# Bulk Modulus (GPa) = 40.63438 61.19059 50.91248
# Shear Modulus (GPa) = 14.50051 26.20190 20.35120
#
# Velocity S-wave (km/s) = 2.82145 3.79269 3.34254
# Velocity P-wave (km/s) = 5.73776 7.26445 6.54577
#
# Compressibility (1/GPa) = 0.02460970
#
# Stress axis : x y z
#
# Youngs Moduli (GPa) = 40.48997 81.09761 132.89121
#
# Poissons Ratio (x) = 0.26646 0.38218
# Poissons Ratio (y) = 0.13304 0.50635
# Poissons Ratio (z) = 0.11644 0.30900
#
# Static dielectric constant tensor:
#      x y z
#    x 3.201590 0.000000 0.000000 
#    y 0.000000 3.267630 0.000000 
#    z 0.000000 0.000000 3.553220 
# 
# 
# High freq. dielectric constant tensor:
#      x y z
#    x 1.696650 0.000000 0.000000 
#    y 0.000000 1.658660 0.000000 
#    z 0.000000 0.000000 1.723700 
# 
# From -- ./inp_files/7744.got.cif
#   From: 2010.03.12/outbox.cif.g09.slc.cpg/sg42_4_cif.got.tgz:7744.got - 2010.04.14 02:04:31.
