data_PCOD8186962
_publ_section_title
;
Structure prediction by ZEFSAII (Michael W. Deem and Ramdas Pophale) SiO2 
 PCOD8186962
Probable space group: F D D 2
;
_chemical_formula_sum "Si O2"
_cell_formula_units_Z 104
_cell_length_a 18.341527
_cell_length_b 20.878941
_cell_length_c 13.935655
_cell_angle_alpha 90.000000
_cell_angle_beta 90.000000
_cell_angle_gamma 90.000000
_cell_volume 5336.682217
_symmetry_space_group_name_H-M "F D D 2"
_symmetry_group_IT_number 43
_symmetry_cell_setting 'orthorhombic'
loop_
_space_group_symop_operation_xyz
x,y,z
-x,-y,z
1/4-x,1/4+y,1/4+z
1/4+x,1/4-y,1/4+z
x,1/2+y,1/2+z
-x,1/2-y,1/2+z
1/4-x,3/4+y,3/4+z
1/4+x,3/4-y,3/4+z
1/2+x,y,1/2+z
1/2-x,-y,1/2+z
3/4-x,1/4+y,3/4+z
3/4+x,1/4-y,3/4+z
1/2+x,1/2+y,z
1/2-x,1/2-y,z
3/4-x,3/4+y,1/4+z
3/4+x,3/4-y,1/4+z
loop_
_atom_site_type_symbol
_atom_site_label
_atom_site_fract_x
_atom_site_fract_y
_atom_site_fract_z
Si Si1 0.599566 0.727609 0.054630
Si Si2 0.500000 0.500000 0.202878
Si Si3 0.836690 0.808547 0.616830
Si Si4 0.000000 0.500000 0.021092
Si Si5 0.000000 0.500000 0.403420
Si Si6 0.213157 0.037078 0.414415
Si Si7 0.356141 0.451251 0.612377
Si Si8 0.777050 0.648640 0.310352
O O1 0.679550 0.748603 0.085856
O O2 0.540578 0.746825 0.137607
O O3 0.594095 0.650115 0.036970
O O4 0.576479 0.764619 0.957766
O O5 0.449965 0.547407 0.264185
O O6 0.449706 0.454084 0.135844
O O7 0.775229 0.807078 0.700188
O O8 0.895287 0.752919 0.627535
O O9 0.874233 0.876889 0.626670
O O10 0.933293 0.481856 0.087863
O O11 0.000404 0.434370 0.464614
O O12 0.205560 0.042595 0.529688
O O13 0.211778 0.105958 0.358789
#
# Coordination Sequence:
#
# PCOD8186962 Si02
#       8
#    16   8  16   8   8  16  16  16
#     4  10  24  43  64 100 128 176 219 268 348 396
#     4  10  18  40  68  94 124 170 220 282 316 386
#     4  10  20  36  64  91 127 165 214 277 321 379
#     4   9  23  35  59  94 116 172 212 252 328 376
#     4  11  23  45  65  98 136 178 224 280 340 420
#     4   9  22  42  59  99 124 171 226 258 337 395
#     4  11  21  43  63  92 136 168 218 278 324 403
#     4   9  22  42  62  95 130 170 226 267 338 390
#
# _framework density 19.487763000000001
#
# number of rings (size 3 to 8) (size 9 to 14) (size 15 to 20)
#    0.923    1.231    1.538    0.462    4.308    2.462 
#   13.846    0.000    0.000    0.000    0.000    0.000 
#    0.000    0.000    0.000    0.000    0.000    0.000 
#
# Total GULP energy -322158.823416 kJ/mol
# GULP energy per Si atom -12390.723978 kJ/mol
# Density = 1.944341 g / cm^3
# Si number density = 19.487763 Si / 1000 Ang^3
#
#
#
# Elastic Constant Matrix: (Units=GPa)
#
#
# Indices 1 2 3 4 5 6 
#
# 1 79.3799 19.2237 40.5150 0.0000 0.0000 0.0000
# 2 19.2237 115.7426 56.0446 0.0000 0.0000 0.0000
# 3 40.5150 56.0446 116.6938 0.0000 0.0000 0.0000
# 4 0.0000 0.0000 0.0000 22.5562 0.0000 0.0000
# 5 0.0000 0.0000 0.0000 0.0000 27.5813 0.0000
# 6 0.0000 0.0000 0.0000 0.0000 0.0000 25.0483
#
#
#
# Elastic Compliance Matrix: (Units=1/GPa)
#
#
# Indices 1 2 3 4 5 6 
#
# 1 0.015311 0.000040 -0.005335 0.000000 0.000000 0.000000
# 2 0.000040 0.011258 -0.005421 0.000000 0.000000 0.000000
# 3 -0.005335 -0.005421 0.013025 0.000000 0.000000 0.000000
# 4 0.000000 0.000000 0.000000 0.044334 0.000000 0.000000
# 5 0.000000 0.000000 0.000000 0.000000 0.036256 0.000000
# 6 0.000000 0.000000 0.000000 0.000000 0.000000 0.039923
#
#
# Mechanical properties :
#
#
# Convention : Reuss Voigt Hill
#
# Bulk Modulus (GPa) = 55.05767 60.37588 57.71678
# Shear Modulus (GPa) = 26.65345 28.10604 27.37974
#
# Velocity S-wave (km/s) = 3.70226 3.80180 3.75236
# Velocity P-wave (km/s) = 6.82564 7.09368 6.96095
#
# Compressibility (1/GPa) = 0.01816277
#
# Stress axis : x y z
#
# Youngs Moduli (GPa) = 65.31284 88.82525 76.77367
#
# Poissons Ratio (x) = -0.00359 0.40960
# Poissons Ratio (y) = -0.00264 0.41619
# Poissons Ratio (z) = 0.34846 0.48152
#
# Static dielectric constant tensor:
#      x y z
#    x 3.262860 0.000000 0.000000 
#    y 0.000000 3.439230 0.000000 
#    z 0.000000 0.000000 3.630560 
# 
# 
# High freq. dielectric constant tensor:
#      x y z
#    x 1.734470 0.000000 0.000000 
#    y 0.000000 1.760730 0.000000 
#    z 0.000000 0.000000 1.766300 
# 
# From -- ./inp_files/10657.got.cif
#   From: 2010.06.25/outbox.cif.g09.slc.cpg/sg43_6_cif.got.tgz:10657.got - 2010.06.26 16:48:59.
