data_PCOD8186101
_publ_section_title
;
Structure prediction by ZEFSAII (Michael W. Deem and Ramdas Pophale) SiO2 
 PCOD8186101
Probable space group: F M M 2
;
_chemical_formula_sum "Si O2"
_cell_formula_units_Z 64
_cell_length_a 18.739504
_cell_length_b 7.630240
_cell_length_c 23.709858
_cell_angle_alpha 90.000000
_cell_angle_beta 90.000000
_cell_angle_gamma 90.000000
_cell_volume 3390.199403
_symmetry_space_group_name_H-M "F M M 2"
_symmetry_group_IT_number 42
_symmetry_cell_setting 'orthorhombic'
loop_
_space_group_symop_operation_xyz
x,y,z
-x,-y,z
-x,y,z
x,-y,z
x,1/2+y,1/2+z
-x,1/2-y,1/2+z
-x,1/2+y,1/2+z
x,1/2-y,1/2+z
1/2+x,y,1/2+z
1/2-x,-y,1/2+z
1/2-x,y,1/2+z
1/2+x,-y,1/2+z
1/2+x,1/2+y,z
1/2-x,1/2-y,z
1/2-x,1/2+y,z
1/2+x,1/2-y,z
loop_
_atom_site_type_symbol
_atom_site_label
_atom_site_fract_x
_atom_site_fract_y
_atom_site_fract_z
Si Si1 0.171758 0.703368 0.491790
Si Si2 0.415406 0.000000 0.802824
Si Si3 0.914845 0.000000 0.175124
Si Si4 0.831105 0.303994 0.115892
Si Si5 0.584112 0.198445 0.384162
O O1 0.165677 0.500000 0.506830
O O2 0.250000 0.750000 0.468867
O O3 0.154574 0.806958 0.548929
O O4 0.116646 0.759880 0.443565
O O5 0.386419 0.000000 0.739346
O O6 0.387577 0.825859 0.834840
O O7 0.500000 0.000000 0.802061
O O8 0.885977 0.825390 0.145883
O O9 0.000000 0.000000 0.171039
O O10 0.844641 0.500000 0.139009
O O11 0.750000 0.250000 0.128886
O O12 0.500000 0.212946 0.391066
O O13 0.607926 0.000000 0.369169
#
# Coordination Sequence:
#
# PCOD8186101 Si02
#       5
#    16   8   8  16  16
#     4  10  19  33  56  85 118 151 183 236 291 351
#     4   9  20  38  59  78 110 155 189 230 292 344
#     4  11  24  42  61  90 123 153 203 258 289 346
#     4  11  21  39  64  87 118 164 199 239 304 364
#     4   9  19  35  56  82 111 148 190 232 281 343
#
# _framework density 18.877946000000001
#
# number of rings (size 3 to 8) (size 9 to 14) (size 15 to 20)
#    0.000    2.000    2.500    2.250    3.500    2.500 
#    0.000    3.750    0.000    0.000    0.000    0.000 
#    0.000    0.000    0.000    0.000    0.000    0.000 
#
# Total GULP energy -198415.251587 kJ/mol
# GULP energy per Si atom -12400.953224 kJ/mol
# Density = 1.883498 g / cm^3
# Si number density = 18.877946 Si / 1000 Ang^3
#
#
#
# Elastic Constant Matrix: (Units=GPa)
#
#
# Indices 1 2 3 4 5 6 
#
# 1 63.6186 45.0707 50.6828 0.0000 0.0000 -0.0001
# 2 45.0707 142.4004 60.7465 0.0000 -0.0001 -0.0002
# 3 50.6828 60.7465 110.7931 0.0000 0.0000 0.0000
# 4 0.0000 0.0000 0.0000 18.7520 0.0000 0.0000
# 5 0.0000 -0.0001 0.0000 0.0000 3.0408 0.0000
# 6 -0.0001 -0.0002 0.0000 0.0000 0.0000 24.8425
#
#
#
# Elastic Compliance Matrix: (Units=1/GPa)
#
#
# Indices 1 2 3 4 5 6 
#
# 1 0.026528 -0.004202 -0.009831 0.000000 0.000000 0.000000
# 2 -0.004202 0.009832 -0.003468 0.000000 0.000000 0.000000
# 3 -0.009831 -0.003468 0.015425 0.000000 0.000000 0.000000
# 4 0.000000 0.000000 0.000000 0.053328 0.000000 0.000000
# 5 0.000000 0.000000 0.000000 0.000000 0.328864 -0.000001
# 6 0.000000 0.000000 0.000000 0.000000 -0.000001 0.040254
#
#
# Mechanical properties :
#
#
# Convention : Reuss Voigt Hill
#
# Bulk Modulus (GPa) = 59.59152 69.97914 64.78533
# Shear Modulus (GPa) = 9.71197 20.01452 14.86324
#
# Velocity S-wave (km/s) = 2.27063 3.25961 2.80899
# Velocity P-wave (km/s) = 6.20561 7.16355 6.70172
#
# Compressibility (1/GPa) = 0.01678091
#
# Stress axis : x y z
#
# Youngs Moduli (GPa) = 37.69583 101.70724 64.83020
#
# Poissons Ratio (x) = 0.42742 0.63736
# Poissons Ratio (y) = 0.15841 0.22486
# Poissons Ratio (z) = 0.37060 0.35276
#
# Static dielectric constant tensor:
#      x y z
#    x 3.283400 0.000000 0.000000 
#    y 0.000000 3.690030 0.000000 
#    z 0.000000 0.000000 3.529860 
# 
# 
# High freq. dielectric constant tensor:
#      x y z
#    x 1.714260 0.000000 0.000000 
#    y 0.000000 1.751130 0.000000 
#    z 0.000000 0.000000 1.725790 
# 
# From -- ./inp_files/23176.got.cif
#   From: 2010.03.12/outbox.cif.g09.slc.cpg/sg42_12_cif.got.tgz:23176.got - 2010.04.14 02:04:31.
