data_PCOD8186011
_publ_section_title
;
Structure prediction by ZEFSAII (Michael W. Deem and Ramdas Pophale) SiO2 
 PCOD8186011
Probable space group: F M M 2
;
_chemical_formula_sum "Si O2"
_cell_formula_units_Z 80
_cell_length_a 8.574033
_cell_length_b 15.837089
_cell_length_c 29.395989
_cell_angle_alpha 90.000000
_cell_angle_beta 90.000000
_cell_angle_gamma 90.000000
_cell_volume 3991.614433
_symmetry_space_group_name_H-M "F M M 2"
_symmetry_group_IT_number 42
_symmetry_cell_setting 'orthorhombic'
loop_
_space_group_symop_operation_xyz
x,y,z
-x,-y,z
-x,y,z
x,-y,z
x,1/2+y,1/2+z
-x,1/2-y,1/2+z
-x,1/2+y,1/2+z
x,1/2-y,1/2+z
1/2+x,y,1/2+z
1/2-x,-y,1/2+z
1/2-x,y,1/2+z
1/2+x,-y,1/2+z
1/2+x,1/2+y,z
1/2-x,1/2-y,z
1/2-x,1/2+y,z
1/2+x,1/2-y,z
loop_
_atom_site_type_symbol
_atom_site_label
_atom_site_fract_x
_atom_site_fract_y
_atom_site_fract_z
Si Si1 0.314858 0.000000 0.939661
Si Si2 0.685947 0.500000 0.337057
Si Si3 0.316217 0.906413 0.689496
Si Si4 0.814837 0.662344 0.782494
Si Si5 0.815182 0.343886 0.999958
Si Si6 0.314232 0.157603 0.594478
O O1 0.256039 0.086617 0.963537
O O2 0.500000 0.000000 0.940471
O O3 0.249647 0.000000 0.888433
O O4 0.500000 0.500000 0.335902
O O5 0.749638 0.415780 0.312240
O O6 0.500000 0.896090 0.685611
O O7 0.254277 0.846636 0.730136
O O8 0.246917 0.888319 0.639481
O O9 0.268653 0.000000 0.704304
O O10 0.750000 0.750000 0.802617
O O11 0.000000 0.663049 0.784468
O O12 0.750000 0.250000 0.988900
O O13 0.000000 0.336329 0.000766
O O14 0.755892 0.381027 0.048286
O O15 0.500000 0.154721 0.591404
O O16 0.250000 0.250000 0.598807
#
# Coordination Sequence:
#
# PCOD8186011 Si02
#       6
#     8   8  16  16  16  16
#     4   9  20  36  56  79 105 137 175 219 266 315
#     4   9  18  36  58  79 103 139 179 211 258 327
#     4   9  17  30  49  76 106 139 177 213 250 304
#     4  10  19  34  58  81 106 139 176 214 258 311
#     4  10  20  36  55  77 107 139 176 219 261 310
#     4  10  19  31  50  74 105 139 175 214 254 306
#
# _framework density 20.042016
#
# number of rings (size 3 to 8) (size 9 to 14) (size 15 to 20)
#    0.000    2.400    1.000    3.000    1.400    0.800 
#    0.000    3.000    0.000    6.000    0.000    0.000 
#    0.000    0.000    0.000    0.000    0.000    0.000 
#
# Total GULP energy -247846.912621 kJ/mol
# GULP energy per Si atom -12392.345631 kJ/mol
# Density = 1.999640 g / cm^3
# Si number density = 20.042016 Si / 1000 Ang^3
#
#
#
# Elastic Constant Matrix: (Units=GPa)
#
#
# Indices 1 2 3 4 5 6 
#
# 1 38.5293 17.1901 24.4783 0.0000 0.0000 0.0000
# 2 17.1901 136.1265 93.1317 0.0000 0.0000 0.0000
# 3 24.4783 93.1317 169.4316 0.0000 0.0000 0.0000
# 4 0.0000 0.0000 0.0000 32.1537 0.0000 0.0000
# 5 0.0000 0.0000 0.0000 0.0000 17.9133 0.0000
# 6 0.0000 0.0000 0.0000 0.0000 0.0000 20.9486
#
#
#
# Elastic Compliance Matrix: (Units=1/GPa)
#
#
# Indices 1 2 3 4 5 6 
#
# 1 0.028712 -0.001263 -0.003454 0.000000 0.000000 0.000000
# 2 -0.001263 0.011829 -0.006320 0.000000 0.000000 0.000000
# 3 -0.003454 -0.006320 0.009875 0.000000 0.000000 0.000000
# 4 0.000000 0.000000 0.000000 0.031101 0.000000 0.000000
# 5 0.000000 0.000000 0.000000 0.000000 0.055825 0.000000
# 6 0.000000 0.000000 0.000000 0.000000 0.000000 0.047736
#
#
# Mechanical properties :
#
#
# Convention : Reuss Voigt Hill
#
# Bulk Modulus (GPa) = 35.28182 68.18750 51.73466
# Shear Modulus (GPa) = 23.08423 28.15560 25.61992
#
# Velocity S-wave (km/s) = 3.39749 3.75217 3.57923
# Velocity P-wave (km/s) = 5.74741 7.27103 6.55365
#
# Compressibility (1/GPa) = 0.02834321
#
# Stress axis : x y z
#
# Youngs Moduli (GPa) = 34.82860 84.53599 101.26672
#
# Poissons Ratio (x) = 0.10674 0.34978
# Poissons Ratio (y) = 0.04398 0.63998
# Poissons Ratio (z) = 0.12030 0.53425
#
# Static dielectric constant tensor:
#      x y z
#    x 3.215160 0.000000 0.000000 
#    y 0.000000 3.774410 0.000000 
#    z 0.000000 0.000000 4.316950 
# 
# 
# High freq. dielectric constant tensor:
#      x y z
#    x 1.739760 0.000000 0.000000 
#    y 0.000000 1.789090 0.000000 
#    z 0.000000 0.000000 1.790670 
# 
# From -- ./inp_files/31329.got.cif
#   From: 2010.03.12/outbox.cif.g09.slc.cpg/sg42_16_cif.got.tgz:31329.got - 2010.04.14 02:04:31.
