data_PCOD8186900
_publ_section_title
;
Structure prediction by ZEFSAII (Michael W. Deem and Ramdas Pophale) SiO2 
 PCOD8186900
Probable space group: F D D 2
;
_chemical_formula_sum "Si O2"
_cell_formula_units_Z 88
_cell_length_a 14.672924
_cell_length_b 25.805559
_cell_length_c 13.487655
_cell_angle_alpha 90.000000
_cell_angle_beta 90.000000
_cell_angle_gamma 90.000000
_cell_volume 5107.006233
_symmetry_space_group_name_H-M "F D D 2"
_symmetry_group_IT_number 43
_symmetry_cell_setting 'orthorhombic'
loop_
_space_group_symop_operation_xyz
x,y,z
-x,-y,z
1/4-x,1/4+y,1/4+z
1/4+x,1/4-y,1/4+z
x,1/2+y,1/2+z
-x,1/2-y,1/2+z
1/4-x,3/4+y,3/4+z
1/4+x,3/4-y,3/4+z
1/2+x,y,1/2+z
1/2-x,-y,1/2+z
3/4-x,1/4+y,3/4+z
3/4+x,1/4-y,3/4+z
1/2+x,1/2+y,z
1/2-x,1/2-y,z
3/4-x,3/4+y,1/4+z
3/4+x,3/4-y,1/4+z
loop_
_atom_site_type_symbol
_atom_site_label
_atom_site_fract_x
_atom_site_fract_y
_atom_site_fract_z
Si Si1 0.592502 0.930083 0.368340
Si Si2 0.594320 0.681054 0.750122
Si Si3 0.421765 0.934052 0.221133
Si Si4 0.450134 0.366692 0.956832
Si Si5 0.083851 0.285779 0.156975
Si Si6 0.750000 0.250000 0.304882
O O1 0.514392 0.939835 0.285731
O O2 0.684512 0.911898 0.311470
O O3 0.554638 0.886329 0.444536
O O4 0.615842 0.981442 0.430778
O O5 0.597361 0.625860 0.693822
O O6 0.576052 0.671651 0.866843
O O7 0.518192 0.716605 0.698201
O O8 0.689537 0.711666 0.737447
O O9 0.337975 0.956040 0.287239
O O10 0.430273 0.966174 0.120844
O O11 0.384706 0.416788 0.959665
#
# Coordination Sequence:
#
# PCOD8186900 Si02
#       6
#    16  16  16  16  16   8
#     4  10  17  27  50  72 100 127 160 211 251 292
#     4  10  19  27  47  74 105 125 165 209 255 295
#     4  10  16  30  48  76  99 123 165 214 246 285
#     4  10  16  30  45  79  99 123 166 216 249 286
#     4  10  16  28  44  73 101 126 157 202 258 289
#     4  12  18  32  52  78 100 128 166 214 252 290
#
# _framework density 17.23123
#
# number of rings (size 3 to 8) (size 9 to 14) (size 15 to 20)
#    0.000    2.182    7.273    2.727    0.000    0.000 
#    0.000    0.000    4.000    0.000    0.000    0.000 
#    0.000    0.000    0.000    0.000    0.000    0.000 
#
# Total GULP energy -272654.869460 kJ/mol
# GULP energy per Si atom -12393.403157 kJ/mol
# Density = 1.719201 g / cm^3
# Si number density = 17.231230 Si / 1000 Ang^3
#
#
#
# Elastic Constant Matrix: (Units=GPa)
#
#
# Indices 1 2 3 4 5 6 
#
# 1 78.8056 47.5373 33.3347 0.0000 0.0000 0.0000
# 2 47.5373 93.2835 20.7170 0.0000 0.0000 0.0000
# 3 33.3347 20.7170 33.7012 0.0000 0.0000 0.0000
# 4 0.0000 0.0000 0.0000 8.4309 0.0000 0.0000
# 5 0.0000 0.0000 0.0000 0.0000 27.8660 0.0000
# 6 0.0000 0.0000 0.0000 0.0000 0.0000 24.4436
#
#
#
# Elastic Compliance Matrix: (Units=1/GPa)
#
#
# Indices 1 2 3 4 5 6 
#
# 1 0.027209 -0.009136 -0.021297 0.000000 0.000000 0.000000
# 2 -0.009136 0.015483 -0.000481 0.000000 0.000000 0.000000
# 3 -0.021297 -0.000481 0.051034 0.000000 0.000000 0.000000
# 4 0.000000 0.000000 0.000000 0.118612 0.000000 0.000000
# 5 0.000000 0.000000 0.000000 0.000000 0.035886 0.000000
# 6 0.000000 0.000000 0.000000 0.000000 0.000000 0.040911
#
#
# Mechanical properties :
#
#
# Convention : Reuss Voigt Hill
#
# Bulk Modulus (GPa) = 31.35058 45.44093 38.39575
# Shear Modulus (GPa) = 13.82767 19.09484 16.46125
#
# Velocity S-wave (km/s) = 2.83588 3.33250 3.09417
# Velocity P-wave (km/s) = 5.38112 6.42152 5.92421
#
# Compressibility (1/GPa) = 0.03189734
#
# Stress axis : x y z
#
# Youngs Moduli (GPa) = 36.75237 64.58903 19.59496
#
# Poissons Ratio (x) = 0.59009 0.41732
# Poissons Ratio (y) = 0.33577 0.00942
# Poissons Ratio (z) = 0.78272 0.03106
#
# Static dielectric constant tensor:
#      x y z
#    x 3.116390 0.000000 0.000000 
#    y 0.000000 3.410120 0.000000 
#    z 0.000000 0.000000 2.865040 
# 
# 
# High freq. dielectric constant tensor:
#      x y z
#    x 1.633540 0.000000 0.000000 
#    y 0.000000 1.682480 0.000000 
#    z 0.000000 0.000000 1.607050 
# 
# From -- ./inp_files/9720.got.cif
#   From: 2010.06.25/outbox.cif.g09.slc.cpg/sg43_5_cif.got.tgz:9720.got - 2010.06.26 16:48:59.
