data_PCOD8186431
_publ_section_title
;
Structure prediction by ZEFSAII (Michael W. Deem and Ramdas Pophale) SiO2 
 PCOD8186431
Probable space group: F M M 2
;
_chemical_formula_sum "Si O2"
_cell_formula_units_Z 72
_cell_length_a 9.834722
_cell_length_b 14.665563
_cell_length_c 27.141572
_cell_angle_alpha 90.000000
_cell_angle_beta 90.000000
_cell_angle_gamma 90.000000
_cell_volume 3914.676022
_symmetry_space_group_name_H-M "F M M 2"
_symmetry_group_IT_number 42
_symmetry_cell_setting 'orthorhombic'
loop_
_space_group_symop_operation_xyz
x,y,z
-x,-y,z
-x,y,z
x,-y,z
x,1/2+y,1/2+z
-x,1/2-y,1/2+z
-x,1/2+y,1/2+z
x,1/2-y,1/2+z
1/2+x,y,1/2+z
1/2-x,-y,1/2+z
1/2-x,y,1/2+z
1/2+x,-y,1/2+z
1/2+x,1/2+y,z
1/2-x,1/2-y,z
1/2-x,1/2+y,z
1/2+x,1/2-y,z
loop_
_atom_site_type_symbol
_atom_site_label
_atom_site_fract_x
_atom_site_fract_y
_atom_site_fract_z
Si Si1 0.000000 0.099895 0.732528
Si Si2 0.500000 0.395854 0.100264
Si Si3 0.147834 0.000000 0.353642
Si Si4 0.149810 0.333799 0.511502
Si Si5 0.774229 0.650450 0.779759
Si Si6 0.838483 0.000000 0.945409
Si Si7 0.000000 0.200010 0.203180
O O1 0.867176 0.102498 0.766656
O O2 0.000000 0.189312 0.697871
O O3 0.000000 0.000000 0.705075
O O4 0.500000 0.500000 0.117543
O O5 0.633852 0.374911 0.066921
O O6 0.500000 0.333435 0.147790
O O7 0.152083 0.910216 0.320106
O O8 0.268369 0.000000 0.392636
O O9 0.000000 0.000000 0.379949
O O10 0.250000 0.250000 0.511486
O O11 0.208785 0.411116 0.475503
O O12 0.000000 0.301706 0.492852
O O13 0.750000 0.750000 0.803486
O O14 0.866694 0.663033 0.730976
O O15 0.000000 0.000000 0.938381
#
# Coordination Sequence:
#
# PCOD8186431 Si02
#       7
#     8   8   8  16  16   8   8
#     4  10  20  36  58  84 119 170 194 240 293 346
#     4  10  20  38  68  89 112 167 206 233 296 375
#     4  12  24  38  60  90 120 157 213 248 294 358
#     4   9  19  40  64  89 121 147 196 255 300 358
#     4  10  22  39  56  86 128 161 199 245 290 350
#     4  10  22  42  62  88 114 161 201 244 314 372
#     4  10  22  38  62  85 125 165 202 241 289 353
#
# _framework density 18.392325
#
# number of rings (size 3 to 8) (size 9 to 14) (size 15 to 20)
#    0.667    1.333    3.333    0.000    3.111    4.444 
#    0.000    2.222    2.444    0.000    0.000    0.000 
#    0.000    0.000    0.000    0.000    0.000    0.000 
#
# Total GULP energy -223093.620698 kJ/mol
# GULP energy per Si atom -12394.090039 kJ/mol
# Density = 1.835046 g / cm^3
# Si number density = 18.392325 Si / 1000 Ang^3
#
#
#
# Elastic Constant Matrix: (Units=GPa)
#
#
# Indices 1 2 3 4 5 6 
#
# 1 85.3723 43.3870 22.7124 0.0000 0.0000 0.0000
# 2 43.3870 159.1302 60.6684 0.0000 0.0000 0.0000
# 3 22.7124 60.6684 105.0831 0.0000 0.0000 0.0000
# 4 0.0000 0.0000 0.0000 9.3231 0.0000 0.0000
# 5 0.0000 0.0000 0.0000 0.0000 13.7764 0.0000
# 6 0.0000 0.0000 0.0000 0.0000 0.0000 24.8748
#
#
#
# Elastic Compliance Matrix: (Units=1/GPa)
#
#
# Indices 1 2 3 4 5 6 
#
# 1 0.013684 -0.003338 -0.001030 0.000000 0.000000 0.000000
# 2 -0.003338 0.008872 -0.004401 0.000000 0.000000 0.000000
# 3 -0.001030 -0.004401 0.012280 0.000000 0.000000 0.000000
# 4 0.000000 0.000000 0.000000 0.107261 0.000000 0.000000
# 5 0.000000 0.000000 0.000000 0.000000 0.072588 0.000000
# 6 0.000000 0.000000 0.000000 0.000000 0.000000 0.040201
#
#
# Mechanical properties :
#
#
# Convention : Reuss Voigt Hill
#
# Bulk Modulus (GPa) = 57.81241 67.01346 62.41293
# Shear Modulus (GPa) = 17.97335 24.44937 21.21136
#
# Velocity S-wave (km/s) = 3.12944 3.64995 3.39967
# Velocity P-wave (km/s) = 6.67525 7.36732 7.02981
#
# Compressibility (1/GPa) = 0.01729732
#
# Stress axis : x y z
#
# Youngs Moduli (GPa) = 73.07808 112.71329 81.43541
#
# Poissons Ratio (x) = 0.37625 0.08391
# Poissons Ratio (y) = 0.24394 0.35837
# Poissons Ratio (z) = 0.07530 0.49602
#
# Static dielectric constant tensor:
#      x y z
#    x 3.403710 0.000000 0.000000 
#    y 0.000000 3.536870 0.000000 
#    z 0.000000 0.000000 3.050860 
# 
# 
# High freq. dielectric constant tensor:
#      x y z
#    x 1.714440 0.000000 0.000000 
#    y 0.000000 1.730500 0.000000 
#    z 0.000000 0.000000 1.684090 
# 
# From -- ./inp_files/33566.got.cif
#   From: 2010.03.12/outbox.cif.g09.slc.cpg/sg42_17_cif.got.tgz:33566.got - 2010.04.14 02:04:31.
