data_PCOD8186527
_publ_section_title
;
Structure prediction by ZEFSAII (Michael W. Deem and Ramdas Pophale) SiO2 
 PCOD8186527
Probable space group: F M M 2
;
_chemical_formula_sum "Si O2"
_cell_formula_units_Z 96
_cell_length_a 20.888054
_cell_length_b 15.275895
_cell_length_c 14.945802
_cell_angle_alpha 90.000000
_cell_angle_beta 90.000000
_cell_angle_gamma 90.000000
_cell_volume 4768.962095
_symmetry_space_group_name_H-M "F M M 2"
_symmetry_group_IT_number 42
_symmetry_cell_setting 'orthorhombic'
loop_
_space_group_symop_operation_xyz
x,y,z
-x,-y,z
-x,y,z
x,-y,z
x,1/2+y,1/2+z
-x,1/2-y,1/2+z
-x,1/2+y,1/2+z
x,1/2-y,1/2+z
1/2+x,y,1/2+z
1/2-x,-y,1/2+z
1/2-x,y,1/2+z
1/2+x,-y,1/2+z
1/2+x,1/2+y,z
1/2-x,1/2-y,z
1/2-x,1/2+y,z
1/2+x,1/2-y,z
loop_
_atom_site_type_symbol
_atom_site_label
_atom_site_fract_x
_atom_site_fract_y
_atom_site_fract_z
Si Si1 0.500000 0.849530 0.203701
Si Si2 0.380650 0.096285 0.098911
Si Si3 0.500000 0.203917 0.398483
Si Si4 0.366094 0.900150 0.589330
Si Si5 0.000000 0.161559 0.108211
Si Si6 0.250000 0.250000 0.345086
Si Si7 0.372445 0.243417 0.956699
Si Si8 0.254090 0.400554 0.708760
O O1 0.564097 0.898772 0.173230
O O2 0.500000 0.858121 0.311623
O O3 0.500000 0.752821 0.160689
O O4 0.310793 0.111065 0.138879
O O5 0.383828 0.000000 0.054311
O O6 0.392330 0.170211 0.026818
O O7 0.500000 0.163680 0.499008
O O8 0.566683 0.256806 0.389691
O O9 0.435664 0.889899 0.636450
O O10 0.360718 0.837064 0.503820
O O11 0.312329 0.873688 0.661476
O O12 0.355601 0.000000 0.557116
O O13 0.309098 0.282112 0.404360
O O14 0.269493 0.165462 0.288519
O O15 0.250997 0.500000 0.745645
#
# Coordination Sequence:
#
# PCOD8186527 Si02
#       8
#     8  16   8  16   8   8  16  16
#     4  12  21  40  65  89 128 162 204 259 309 372
#     4  11  22  41  65  88 122 167 209 254 313 369
#     4  10  22  37  60  91 124 157 202 258 300 364
#     4  10  20  39  63  86 118 162 205 254 308 364
#     4  10  21  39  63  92 124 161 210 253 303 368
#     4  12  24  36  62  86 128 164 198 258 324 354
#     4  11  22  39  59  92 119 162 209 254 310 369
#     4  10  23  39  59  91 123 161 213 254 304 377
#
# _framework density 20.130167
#
# number of rings (size 3 to 8) (size 9 to 14) (size 15 to 20)
#    0.000    1.333    3.333    3.500    2.333    1.333 
#    0.000    8.333    0.000    0.000    0.000    0.000 
#    0.000    0.000    0.000    0.000    0.000    0.000 
#
# Total GULP energy -297514.704190 kJ/mol
# GULP energy per Si atom -12396.446008 kJ/mol
# Density = 2.008435 g / cm^3
# Si number density = 20.130167 Si / 1000 Ang^3
#
#
#
# Elastic Constant Matrix: (Units=GPa)
#
#
# Indices 1 2 3 4 5 6 
#
# 1 143.7839 8.1589 21.7905 0.0000 0.0000 0.0000
# 2 8.1589 93.9329 24.8557 0.0000 0.0000 0.0000
# 3 21.7905 24.8557 60.5030 0.0000 0.0000 0.0000
# 4 0.0000 0.0000 0.0000 -9.7546 0.0000 0.0000
# 5 0.0000 0.0000 0.0000 0.0000 12.7766 0.0000
# 6 0.0000 0.0000 0.0000 0.0000 0.0000 25.7712
#
#
#
# Elastic Compliance Matrix: (Units=1/GPa)
#
#
# Indices 1 2 3 4 5 6 
#
# 1 0.007357 0.000070 -0.002678 0.000000 0.000000 0.000000
# 2 0.000070 0.011945 -0.004932 0.000000 0.000000 0.000000
# 3 -0.002678 -0.004932 0.019519 0.000000 0.000000 0.000000
# 4 0.000000 0.000000 0.000000 -0.102516 0.000000 0.000000
# 5 0.000000 0.000000 0.000000 0.000000 0.078268 0.000000
# 6 0.000000 0.000000 0.000000 0.000000 0.000000 0.038803
#
#
# Mechanical properties :
#
#
# Convention : Reuss Voigt Hill
#
# Bulk Modulus (GPa) = 42.12468 45.31447 43.71958
# Shear Modulus (GPa) = 65.46978 21.98627 43.72803
#
# Velocity S-wave (km/s) = 5.70910 3.30844 4.66581
# Velocity P-wave (km/s) = 8.02683 6.09540 7.12685
#
# Compressibility (1/GPa) = 0.02373905
#
# Stress axis : x y z
#
# Youngs Moduli (GPa) = 135.92845 83.71710 51.23222
#
# Poissons Ratio (x) = -0.00583 0.13721
# Poissons Ratio (y) = -0.00947 0.25269
# Poissons Ratio (z) = 0.36405 0.41292
#
# Static dielectric constant tensor:
#      x y z
#    x 4.174800 0.000000 0.000000 
#    y 0.000000 3.636750 0.000000 
#    z 0.000000 0.000000 3.357720 
# 
# 
# High freq. dielectric constant tensor:
#      x y z
#    x 1.820720 0.000000 0.000000 
#    y 0.000000 1.782540 0.000000 
#    z 0.000000 0.000000 1.759000 
# 
# From -- ./inp_files/15886.got.cif
#   From: 2010.03.12/outbox.cif.g09.slc.cpg/sg42_8_cif.got.tgz:15886.got - 2010.04.14 02:04:31.
