data_PCOD8186811
_publ_section_title
;
Structure prediction by ZEFSAII (Michael W. Deem and Ramdas Pophale) SiO2 
 PCOD8186811
Probable space group: F M M 2
;
_chemical_formula_sum "Si O2"
_cell_formula_units_Z 104
_cell_length_a 21.616778
_cell_length_b 14.357342
_cell_length_c 18.378333
_cell_angle_alpha 90.000000
_cell_angle_beta 90.000000
_cell_angle_gamma 90.000000
_cell_volume 5703.889775
_symmetry_space_group_name_H-M "F M M 2"
_symmetry_group_IT_number 42
_symmetry_cell_setting 'orthorhombic'
loop_
_space_group_symop_operation_xyz
x,y,z
-x,-y,z
-x,y,z
x,-y,z
x,1/2+y,1/2+z
-x,1/2-y,1/2+z
-x,1/2+y,1/2+z
x,1/2-y,1/2+z
1/2+x,y,1/2+z
1/2-x,-y,1/2+z
1/2-x,y,1/2+z
1/2+x,-y,1/2+z
1/2+x,1/2+y,z
1/2-x,1/2-y,z
1/2-x,1/2+y,z
1/2+x,1/2-y,z
loop_
_atom_site_type_symbol
_atom_site_label
_atom_site_fract_x
_atom_site_fract_y
_atom_site_fract_z
Si Si1 0.158650 0.897667 0.502020
Si Si2 0.158650 0.102333 0.885740
Si Si3 0.067015 0.659947 0.892923
Si Si4 0.072016 0.800544 0.610474
Si Si5 0.750000 0.750000 0.943880
Si Si6 0.427984 0.199456 0.277286
Si Si7 0.567015 0.659947 0.994836
O O1 0.120145 0.905323 0.425941
O O2 0.113339 0.877492 0.569631
O O3 0.209607 0.816293 0.496308
O O4 0.189002 0.000000 0.513916
O O5 0.209607 0.183707 0.891452
O O6 0.113339 0.122508 0.818129
O O7 0.120144 0.094677 0.961819
O O8 0.189002 0.000000 0.873844
O O9 0.083264 0.697734 0.812112
O O10 0.063776 0.750000 0.943880
O O11 0.000000 0.608969 0.892528
O O12 0.092826 0.796167 0.693880
O O13 0.083264 0.697734 0.575647
O O14 0.000000 0.829168 0.602262
O O15 0.500000 0.170832 0.285498
O O16 0.500000 0.608969 0.995231
#
# Coordination Sequence:
#
# PCOD8186811 Si02
#       7
#    16  16  16  16   8  16  16
#     4  11  21  34  56  79 103 138 181 224 265 306
#     4  11  21  34  56  79 103 138 181 224 265 306
#     4   8  14  29  51  76 105 136 167 205 260 316
#     4   9  17  32  56  84 113 139 164 209 275 329
#     4  12  22  40  52  74 104 144 188 226 252 298
#     4   9  17  32  56  84 113 139 164 209 275 329
#     4   8  14  29  51  76 105 136 167 205 260 316
#
# _framework density 18.233172
#
# number of rings (size 3 to 8) (size 9 to 14) (size 15 to 20)
#    0.000    2.462    4.615    3.231    0.000    3.077 
#    0.000    2.308    0.000    0.923    0.000    4.308 
#    0.000    0.000    0.000    0.000    0.000    0.000 
#
# Total GULP energy -322122.807713 kJ/mol
# GULP energy per Si atom -12389.338758 kJ/mol
# Density = 1.819167 g / cm^3
# Si number density = 18.233172 Si / 1000 Ang^3
#
#
#
# Elastic Constant Matrix: (Units=GPa)
#
#
# Indices 1 2 3 4 5 6 
#
# 1 82.7737 40.4180 40.5240 0.0000 0.0000 0.0000
# 2 40.4180 84.5366 47.7685 0.0000 0.0000 0.0000
# 3 40.5240 47.7685 118.3003 0.0000 0.0000 0.0000
# 4 0.0000 0.0000 0.0000 13.1878 0.0000 0.0000
# 5 0.0000 0.0000 0.0000 0.0000 14.2715 0.0000
# 6 0.0000 0.0000 0.0000 0.0000 0.0000 4.3386
#
#
#
# Elastic Compliance Matrix: (Units=1/GPa)
#
#
# Indices 1 2 3 4 5 6 
#
# 1 0.016660 -0.006142 -0.003227 0.000000 0.000000 0.000000
# 2 -0.006142 0.017590 -0.004999 0.000000 0.000000 0.000000
# 3 -0.003227 -0.004999 0.011577 0.000000 0.000000 0.000000
# 4 0.000000 0.000000 0.000000 0.075828 0.000000 0.000000
# 5 0.000000 0.000000 0.000000 0.000000 0.070070 0.000000
# 6 0.000000 0.000000 0.000000 0.000000 0.000000 0.230488
#
#
# Mechanical properties :
#
#
# Convention : Reuss Voigt Hill
#
# Bulk Modulus (GPa) = 58.50716 60.33685 59.42201
# Shear Modulus (GPa) = 10.94940 16.81958 13.88449
#
# Velocity S-wave (km/s) = 2.45321 3.04052 2.76252
# Velocity P-wave (km/s) = 6.33895 6.74462 6.54493
#
# Compressibility (1/GPa) = 0.01709193
#
# Stress axis : x y z
#
# Youngs Moduli (GPa) = 60.02393 56.84907 86.37870
#
# Poissons Ratio (x) = 0.34917 0.27873
# Poissons Ratio (y) = 0.36867 0.43180
# Poissons Ratio (z) = 0.19369 0.28418
#
# Static dielectric constant tensor:
#      x y z
#    x 3.467280 0.000000 0.000000 
#    y 0.000000 3.135780 0.000000 
#    z 0.000000 0.000000 3.584900 
# 
# 
# High freq. dielectric constant tensor:
#      x y z
#    x 1.699030 0.000000 0.000000 
#    y 0.000000 1.679850 0.000000 
#    z 0.000000 0.000000 1.685960 
# 
# From -- ./inp_files/21704.got.cif
#   From: 2010.03.12/outbox.cif.g09.slc.cpg/sg42_11_cif.got.tgz:21704.got - 2010.04.14 02:04:31.
