data_PCOD8186184
_publ_section_title
;
Structure prediction by ZEFSAII (Michael W. Deem and Ramdas Pophale) SiO2 
 PCOD8186184
Probable space group: F M M 2
;
_chemical_formula_sum "Si O2"
_cell_formula_units_Z 88
_cell_length_a 20.538543
_cell_length_b 15.129870
_cell_length_c 13.144426
_cell_angle_alpha 90.000000
_cell_angle_beta 90.000000
_cell_angle_gamma 90.000000
_cell_volume 4084.571040
_symmetry_space_group_name_H-M "F M M 2"
_symmetry_group_IT_number 42
_symmetry_cell_setting 'orthorhombic'
loop_
_space_group_symop_operation_xyz
x,y,z
-x,-y,z
-x,y,z
x,-y,z
x,1/2+y,1/2+z
-x,1/2-y,1/2+z
-x,1/2+y,1/2+z
x,1/2-y,1/2+z
1/2+x,y,1/2+z
1/2-x,-y,1/2+z
1/2-x,y,1/2+z
1/2+x,-y,1/2+z
1/2+x,1/2+y,z
1/2-x,1/2-y,z
1/2-x,1/2+y,z
1/2+x,1/2-y,z
loop_
_atom_site_type_symbol
_atom_site_label
_atom_site_fract_x
_atom_site_fract_y
_atom_site_fract_z
Si Si1 0.926233 0.897863 0.232420
Si Si2 0.926875 0.000000 0.863709
Si Si3 0.322441 0.000000 0.187596
Si Si4 0.429892 0.500000 0.521370
Si Si5 0.628178 0.162618 0.925887
Si Si6 0.754884 0.351072 0.071685
Si Si7 0.388567 0.352518 0.013936
O O1 0.875089 0.841492 0.302487
O O2 0.924973 0.855078 0.121052
O O3 0.000000 0.889042 0.273217
O O4 0.903889 0.000000 0.227306
O O5 0.861896 0.000000 0.793093
O O6 0.923952 0.085643 0.933776
O O7 0.000000 0.000000 0.811755
O O8 0.378699 0.000000 0.108030
O O9 0.279139 0.911791 0.166618
O O10 0.500000 0.500000 0.573535
O O11 0.423357 0.413267 0.452977
O O12 0.698917 0.140381 0.972390
O O13 0.604525 0.255028 0.969269
O O14 0.750000 0.250000 0.111269
O O15 0.685585 0.384176 0.031467
#
# Coordination Sequence:
#
# PCOD8186184 Si02
#       7
#    16   8   8   8  16  16  16
#     4  11  23  41  64  93 129 175 224 270 324 393
#     4  12  26  43  61  92 137 180 225 275 336 405
#     4  10  22  39  65  94 126 174 216 265 340 389
#     4  10  19  36  60  92 128 164 221 280 316 378
#     4  10  22  40  67  96 128 170 223 277 329 388
#     4   9  21  43  66  96 130 163 217 278 328 394
#     4  11  24  43  65  95 135 178 217 278 339 397
#
# _framework density 21.544491000000001
#
# number of rings (size 3 to 8) (size 9 to 14) (size 15 to 20)
#    0.000    1.636    1.818    1.909    0.000    8.727 
#    0.000    5.455    0.000    0.000    0.000    0.000 
#    0.000    0.000    0.000    0.000    0.000    0.000 
#
# Total GULP energy -272695.238050 kJ/mol
# GULP energy per Si atom -12395.238093 kJ/mol
# Density = 2.149545 g / cm^3
# Si number density = 21.544491 Si / 1000 Ang^3
#
#
#
# Elastic Constant Matrix: (Units=GPa)
#
#
# Indices 1 2 3 4 5 6 
#
# 1 106.1938 48.3416 23.7753 0.0000 0.0000 0.0000
# 2 48.3416 138.0285 53.7875 0.0000 0.0000 0.0000
# 3 23.7753 53.7875 121.7476 0.0000 0.0000 0.0000
# 4 0.0000 0.0000 0.0000 9.1289 0.0000 0.0000
# 5 0.0000 0.0000 0.0000 0.0000 53.1849 0.0000
# 6 0.0000 0.0000 0.0000 0.0000 0.0000 38.6507
#
#
#
# Elastic Compliance Matrix: (Units=1/GPa)
#
#
# Indices 1 2 3 4 5 6 
#
# 1 0.011233 -0.003720 -0.000550 0.000000 0.000000 0.000000
# 2 -0.003720 0.009983 -0.003684 0.000000 0.000000 0.000000
# 3 -0.000550 -0.003684 0.009949 0.000000 0.000000 0.000000
# 4 0.000000 0.000000 0.000000 0.109543 0.000000 0.000000
# 5 0.000000 0.000000 0.000000 0.000000 0.018802 0.000000
# 6 0.000000 0.000000 0.000000 0.000000 0.000000 0.025873
#
#
# Mechanical properties :
#
#
# Convention : Reuss Voigt Hill
#
# Bulk Modulus (GPa) = 65.54397 68.64206 67.09301
# Shear Modulus (GPa) = 24.22748 36.19726 30.21237
#
# Velocity S-wave (km/s) = 3.35704 4.10337 3.74883
# Velocity P-wave (km/s) = 6.74648 7.37428 7.06735
#
# Compressibility (1/GPa) = 0.01525693
#
# Stress axis : x y z
#
# Youngs Moduli (GPa) = 89.02130 100.16717 100.51437
#
# Poissons Ratio (x) = 0.37260 0.05531
# Poissons Ratio (y) = 0.33114 0.37031
# Poissons Ratio (z) = 0.04899 0.36903
#
# Static dielectric constant tensor:
#      x y z
#    x 3.557570 0.000000 0.000000 
#    y 0.000000 7.304190 0.000000 
#    z 0.000000 0.000000 3.931710 
# 
# 
# High freq. dielectric constant tensor:
#      x y z
#    x 1.854920 0.000000 0.000000 
#    y 0.000000 1.849220 0.000000 
#    z 0.000000 0.000000 1.835810 
# 
# From -- ./inp_files/10090.got.cif
#   From: 2010.03.12/outbox.cif.g09.slc.cpg/sg42_6_cif.got.tgz:10090.got - 2010.04.14 02:04:31.
