data_PCOD8186209
_publ_section_title
;
Structure prediction by ZEFSAII (Michael W. Deem and Ramdas Pophale) SiO2 
 PCOD8186209
Probable space group: F M M 2
;
_chemical_formula_sum "Si O2"
_cell_formula_units_Z 80
_cell_length_a 27.291091
_cell_length_b 8.999540
_cell_length_c 20.683045
_cell_angle_alpha 90.000000
_cell_angle_beta 90.000000
_cell_angle_gamma 90.000000
_cell_volume 5079.906116
_symmetry_space_group_name_H-M "F M M 2"
_symmetry_group_IT_number 42
_symmetry_cell_setting 'orthorhombic'
loop_
_space_group_symop_operation_xyz
x,y,z
-x,-y,z
-x,y,z
x,-y,z
x,1/2+y,1/2+z
-x,1/2-y,1/2+z
-x,1/2+y,1/2+z
x,1/2-y,1/2+z
1/2+x,y,1/2+z
1/2-x,-y,1/2+z
1/2-x,y,1/2+z
1/2+x,-y,1/2+z
1/2+x,1/2+y,z
1/2-x,1/2-y,z
1/2-x,1/2+y,z
1/2+x,1/2-y,z
loop_
_atom_site_type_symbol
_atom_site_label
_atom_site_fract_x
_atom_site_fract_y
_atom_site_fract_z
Si Si1 0.115318 0.823986 0.772770
Si Si2 0.443478 0.173987 0.029950
Si Si3 0.799850 0.667909 0.716176
Si Si4 0.105371 0.332095 0.647903
Si Si5 0.443621 0.671942 0.898610
O O1 0.170573 0.755458 0.773126
O O2 0.085190 0.755262 0.711556
O O3 0.088668 0.775163 0.838238
O O4 0.117394 0.000000 0.764977
O O5 0.500000 0.215064 0.043220
O O6 0.410062 0.250736 0.083139
O O7 0.434214 0.000000 0.032501
O O8 0.426964 0.232968 0.960150
O O9 0.788782 0.500000 0.739166
O O10 0.750000 0.750000 0.698338
O O11 0.834967 0.667562 0.652532
O O12 0.084670 0.500000 0.648097
O O13 0.500000 0.702235 0.880898
O O14 0.434600 0.500000 0.914907
#
# Coordination Sequence:
#
# PCOD8186209 Si02
#       5
#    16  16  16  16  16
#     4   9  17  30  49  73  99 127 160 200 239 281
#     4  10  20  32  48  70  97 131 166 199 237 283
#     4   9  18  31  50  73  96 124 157 197 245 290
#     4   9  19  32  48  72  97 126 161 199 240 285
#     4   9  18  32  49  69  97 133 165 194 234 283
#
# _framework density 15.748324
#
# number of rings (size 3 to 8) (size 9 to 14) (size 15 to 20)
#    1.200    1.600    0.000    1.800    0.000    3.600 
#    0.000    2.000    0.000    1.200    0.000    5.600 
#    0.000    0.000    0.000    0.000    0.000    0.000 
#
# Total GULP energy -247840.640767 kJ/mol
# GULP energy per Si atom -12392.032038 kJ/mol
# Density = 1.571248 g / cm^3
# Si number density = 15.748324 Si / 1000 Ang^3
#
#
#
# Elastic Constant Matrix: (Units=GPa)
#
#
# Indices 1 2 3 4 5 6 
#
# 1 70.7733 45.6942 56.9767 0.0000 0.0000 0.0000
# 2 45.6942 108.3496 67.9220 0.0000 0.0000 0.0000
# 3 56.9767 67.9220 117.2966 0.0000 0.0000 0.0000
# 4 0.0000 0.0000 0.0000 30.8015 0.0000 0.0000
# 5 0.0000 0.0000 0.0000 0.0000 4.4130 0.0000
# 6 0.0000 0.0000 0.0000 0.0000 0.0000 26.1246
#
#
#
# Elastic Compliance Matrix: (Units=1/GPa)
#
#
# Indices 1 2 3 4 5 6 
#
# 1 0.024534 -0.004515 -0.009303 0.000000 0.000000 0.000000
# 2 -0.004515 0.015320 -0.006678 0.000000 0.000000 0.000000
# 3 -0.009303 -0.006678 0.016911 0.000000 0.000000 0.000000
# 4 0.000000 0.000000 0.000000 0.032466 0.000000 0.000000
# 5 0.000000 0.000000 0.000000 0.000000 0.226604 0.000000
# 6 0.000000 0.000000 0.000000 0.000000 0.000000 0.038278
#
#
# Mechanical properties :
#
#
# Convention : Reuss Voigt Hill
#
# Bulk Modulus (GPa) = 63.39802 70.84505 67.12153
# Shear Modulus (GPa) = 12.48868 20.65626 16.57247
#
# Velocity S-wave (km/s) = 2.81911 3.62560 3.24749
# Velocity P-wave (km/s) = 7.13729 7.91265 7.53495
#
# Compressibility (1/GPa) = 0.01577336
#
# Stress axis : x y z
#
# Youngs Moduli (GPa) = 40.75960 65.27541 59.13213
#
# Poissons Ratio (x) = 0.29471 0.55011
# Poissons Ratio (y) = 0.18402 0.39488
# Poissons Ratio (z) = 0.37919 0.43591
#
# Static dielectric constant tensor:
#      x y z
#    x 2.797440 0.000000 0.000000 
#    y 0.000000 3.097190 0.000000 
#    z 0.000000 0.000000 2.849260 
# 
# 
# High freq. dielectric constant tensor:
#      x y z
#    x 1.581440 0.000000 0.000000 
#    y 0.000000 1.623790 0.000000 
#    z 0.000000 0.000000 1.588610 
# 
# From -- ./inp_files/18311.got.cif
#   From: 2010.03.12/outbox.cif.g09.slc.cpg/sg42_10_cif.got.tgz:18311.got - 2010.04.14 02:04:31.
