data_PCOD8186318
_publ_section_title
;
Structure prediction by ZEFSAII (Michael W. Deem and Ramdas Pophale) SiO2 
 PCOD8186318
Probable space group: F M M 2
;
_chemical_formula_sum "Si O2"
_cell_formula_units_Z 96
_cell_length_a 27.796193
_cell_length_b 8.949553
_cell_length_c 20.509280
_cell_angle_alpha 90.000000
_cell_angle_beta 90.000000
_cell_angle_gamma 90.000000
_cell_volume 5101.960326
_symmetry_space_group_name_H-M "F M M 2"
_symmetry_group_IT_number 42
_symmetry_cell_setting 'orthorhombic'
loop_
_space_group_symop_operation_xyz
x,y,z
-x,-y,z
-x,y,z
x,-y,z
x,1/2+y,1/2+z
-x,1/2-y,1/2+z
-x,1/2+y,1/2+z
x,1/2-y,1/2+z
1/2+x,y,1/2+z
1/2-x,-y,1/2+z
1/2-x,y,1/2+z
1/2+x,-y,1/2+z
1/2+x,1/2+y,z
1/2-x,1/2-y,z
1/2-x,1/2+y,z
1/2+x,1/2-y,z
loop_
_atom_site_type_symbol
_atom_site_label
_atom_site_fract_x
_atom_site_fract_y
_atom_site_fract_z
Si Si1 0.143812 0.175372 0.608620
Si Si2 0.198874 0.674558 0.239601
Si Si3 0.445511 0.172079 0.919507
Si Si4 0.639512 0.327054 0.862847
Si Si5 0.554698 0.325869 0.056977
Si Si6 0.199909 0.673650 0.492008
O O1 0.165073 0.214206 0.678922
O O2 0.089705 0.240311 0.606673
O O3 0.176813 0.253016 0.555154
O O4 0.142638 0.000000 0.594934
O O5 0.208533 0.500000 0.245597
O O6 0.250000 0.750000 0.230348
O O7 0.172590 0.735127 0.304460
O O8 0.500000 0.191943 0.894297
O O9 0.410286 0.234546 0.863570
O O10 0.433885 0.000000 0.934846
O O11 0.436599 0.266231 0.984568
O O12 0.627170 0.500000 0.851084
O O13 0.665972 0.299126 0.930673
O O14 0.500000 0.297013 0.079806
O O15 0.567766 0.500000 0.056541
O O16 0.208374 0.500000 0.506115
O O17 0.250000 0.750000 0.475528
#
# Coordination Sequence:
#
# PCOD8186318 Si02
#       6
#    16  16  16  16  16  16
#     4  11  22  37  58  84 115 149 191 238 284 339
#     4  10  23  41  59  82 113 154 195 233 283 339
#     4  10  20  34  56  87 118 148 186 232 284 339
#     4  10  21  38  58  82 113 150 192 233 281 339
#     4  10  20  35  57  85 116 150 188 232 286 343
#     4  11  22  35  55  82 111 144 187 238 287 339
#
# _framework density 18.816296000000001
#
# number of rings (size 3 to 8) (size 9 to 14) (size 15 to 20)
#    0.000    1.667    1.667    3.000    0.000    6.000 
#    0.000    0.833    0.000    5.000    0.000    0.000 
#    0.000    0.000    0.000    0.000    0.000    0.000 
#
# Total GULP energy -297703.436239 kJ/mol
# GULP energy per Si atom -12404.309843 kJ/mol
# Density = 1.877347 g / cm^3
# Si number density = 18.816296 Si / 1000 Ang^3
#
#
#
# Elastic Constant Matrix: (Units=GPa)
#
#
# Indices 1 2 3 4 5 6 
#
# 1 128.6536 65.4029 29.5069 0.0000 0.0000 0.0000
# 2 65.4029 99.7072 46.3440 0.0000 0.0000 0.0000
# 3 29.5069 46.3440 64.3182 0.0000 0.0000 0.0000
# 4 0.0000 0.0000 0.0000 25.4628 0.0000 0.0000
# 5 0.0000 0.0000 0.0000 0.0000 40.2636 0.0000
# 6 0.0000 0.0000 0.0000 0.0000 0.0000 39.7368
#
#
#
# Elastic Compliance Matrix: (Units=1/GPa)
#
#
# Indices 1 2 3 4 5 6 
#
# 1 0.011664 -0.007764 0.000243 0.000000 0.000000 0.000000
# 2 -0.007764 0.020248 -0.011028 0.000000 0.000000 0.000000
# 3 0.000243 -0.011028 0.023382 0.000000 0.000000 0.000000
# 4 0.000000 0.000000 0.000000 0.039273 0.000000 0.000000
# 5 0.000000 0.000000 0.000000 0.000000 0.024836 0.000000
# 6 0.000000 0.000000 0.000000 0.000000 0.000000 0.025166
#
#
# Mechanical properties :
#
#
# Convention : Reuss Voigt Hill
#
# Bulk Modulus (GPa) = 54.95375 63.90960 59.43167
# Shear Modulus (GPa) = 26.63387 31.18765 28.91076
#
# Velocity S-wave (km/s) = 3.76635 4.07563 3.92404
# Velocity P-wave (km/s) = 6.94137 7.49576 7.22389
#
# Compressibility (1/GPa) = 0.01819712
#
# Stress axis : x y z
#
# Youngs Moduli (GPa) = 85.73400 49.38800 42.76816
#
# Poissons Ratio (x) = 0.38345 -0.01041
# Poissons Ratio (y) = 0.66565 0.47163
# Poissons Ratio (z) = -0.02086 0.54463
#
# Static dielectric constant tensor:
#      x y z
#    x 3.522580 0.000000 0.000000 
#    y 0.000000 3.551000 0.000000 
#    z 0.000000 0.000000 3.350470 
# 
# 
# High freq. dielectric constant tensor:
#      x y z
#    x 1.747860 0.000000 0.000000 
#    y 0.000000 1.740400 0.000000 
#    z 0.000000 0.000000 1.712740 
# 
# From -- ./inp_files/23683.got.cif
#   From: 2010.03.12/outbox.cif.g09.slc.cpg/sg42_12_cif.got.tgz:23683.got - 2010.04.14 02:04:31.
