data_PCOD8186656
_publ_section_title
;
Structure prediction by ZEFSAII (Michael W. Deem and Ramdas Pophale) SiO2 
 PCOD8186656
Probable space group: F M M 2
;
_chemical_formula_sum "Si O2"
_cell_formula_units_Z 56
_cell_length_a 10.990596
_cell_length_b 21.057630
_cell_length_c 8.704716
_cell_angle_alpha 90.000000
_cell_angle_beta 90.000000
_cell_angle_gamma 90.000000
_cell_volume 2014.583817
_symmetry_space_group_name_H-M "F M M 2"
_symmetry_group_IT_number 42
_symmetry_cell_setting 'orthorhombic'
loop_
_space_group_symop_operation_xyz
x,y,z
-x,-y,z
-x,y,z
x,-y,z
x,1/2+y,1/2+z
-x,1/2-y,1/2+z
-x,1/2+y,1/2+z
x,1/2-y,1/2+z
1/2+x,y,1/2+z
1/2-x,-y,1/2+z
1/2-x,y,1/2+z
1/2+x,-y,1/2+z
1/2+x,1/2+y,z
1/2-x,1/2-y,z
1/2-x,1/2+y,z
1/2+x,1/2-y,z
loop_
_atom_site_type_symbol
_atom_site_label
_atom_site_fract_x
_atom_site_fract_y
_atom_site_fract_z
Si Si1 0.750000 0.750000 0.720240
Si Si2 0.857969 0.165895 0.980252
Si Si3 0.500000 0.924773 0.897040
Si Si4 0.733880 0.075176 0.715664
Si Si5 0.500000 0.574727 0.740399
O O1 0.801285 0.807581 0.821291
O O2 0.855635 0.721689 0.608823
O O3 0.000000 0.144777 0.949230
O O4 0.775312 0.107600 0.048400
O O5 0.380543 0.899319 0.811384
O O6 0.500000 0.000000 0.896053
O O7 0.500000 0.897955 0.068125
O O8 0.863877 0.093571 0.805668
O O9 0.732834 0.000000 0.684928
O O10 0.500000 0.500000 0.738610
#
# Coordination Sequence:
#
# PCOD8186656 Si02
#       5
#     8  16   8  16   8
#     4  10  26  46  64  96 126 178 224 268 324 384
#     4  11  23  45  70  95 131 171 221 275 324 389
#     4   9  18  36  59  86 126 167 205 253 318 388
#     4  10  21  38  65  99 130 167 212 265 332 394
#     4   9  20  38  57  88 134 173 205 249 320 400
#
# _framework density 27.797304
#
# number of rings (size 3 to 8) (size 9 to 14) (size 15 to 20)
#    0.000    2.000    1.429    0.857    4.000    0.000 
#   12.857    1.429    0.000    8.571    0.000    0.000 
#    0.000    0.000    0.000    0.000    0.000    0.000 
#
# Total GULP energy -173569.401530 kJ/mol
# GULP energy per Si atom -12397.814395 kJ/mol
# Density = 2.773404 g / cm^3
# Si number density = 27.797304 Si / 1000 Ang^3
#
#
#
# Elastic Constant Matrix: (Units=GPa)
#
#
# Indices 1 2 3 4 5 6 
#
# 1 268.5807 47.2322 99.1457 0.0000 0.0000 0.0000
# 2 47.2322 121.9969 40.1312 0.0000 0.0000 0.0000
# 3 99.1457 40.1312 152.9734 0.0000 0.0000 0.0000
# 4 0.0000 0.0000 0.0000 45.0584 0.0000 0.0000
# 5 0.0000 0.0000 0.0000 0.0000 59.8571 0.0000
# 6 0.0000 0.0000 0.0000 0.0000 0.0000 47.8822
#
#
#
# Elastic Compliance Matrix: (Units=1/GPa)
#
#
# Indices 1 2 3 4 5 6 
#
# 1 0.004993 -0.000951 -0.002987 0.000000 0.000000 0.000000
# 2 -0.000951 0.009152 -0.001785 0.000000 0.000000 0.000000
# 3 -0.002987 -0.001785 0.008941 0.000000 0.000000 0.000000
# 4 0.000000 0.000000 0.000000 0.022193 0.000000 0.000000
# 5 0.000000 0.000000 0.000000 0.000000 0.016706 0.000000
# 6 0.000000 0.000000 0.000000 0.000000 0.000000 0.020885
#
#
# Mechanical properties :
#
#
# Convention : Reuss Voigt Hill
#
# Bulk Modulus (GPa) = 85.89702 101.84101 93.86901
# Shear Modulus (GPa) = 50.91885 54.36235 52.64060
#
# Velocity S-wave (km/s) = 4.28459 4.42709 4.35642
# Velocity P-wave (km/s) = 7.44615 7.92772 7.69071
#
# Compressibility (1/GPa) = 0.01164185
#
# Stress axis : x y z
#
# Youngs Moduli (GPa) = 200.28156 109.26461 111.84350
#
# Poissons Ratio (x) = 0.10387 0.33404
# Poissons Ratio (y) = 0.19039 0.19963
# Poissons Ratio (z) = 0.59818 0.19502
#
# Static dielectric constant tensor:
#      x y z
#    x 5.636910 0.000000 0.000000 
#    y 0.000000 5.173530 0.000000 
#    z 0.000000 0.000000 5.411940 
# 
# 
# High freq. dielectric constant tensor:
#      x y z
#    x 2.140440 0.000000 0.000000 
#    y 0.000000 2.151000 0.000000 
#    z 0.000000 0.000000 2.155820 
# 
# From -- ./inp_files/2139.got.cif
#   From: 2010.03.12/outbox.cif.g09.slc.cpg/sg42_2_cif.got.tgz:2139.got - 2010.04.14 02:04:31.
