data_PCOD8186785
_publ_section_title
;
Structure prediction by ZEFSAII (Michael W. Deem and Ramdas Pophale) SiO2 
 PCOD8186785
Probable space group: F M M 2
;
_chemical_formula_sum "Si O2"
_cell_formula_units_Z 72
_cell_length_a 14.948506
_cell_length_b 10.281914
_cell_length_c 24.572459
_cell_angle_alpha 90.000000
_cell_angle_beta 90.000000
_cell_angle_gamma 90.000000
_cell_volume 3776.768596
_symmetry_space_group_name_H-M "F M M 2"
_symmetry_group_IT_number 42
_symmetry_cell_setting 'orthorhombic'
loop_
_space_group_symop_operation_xyz
x,y,z
-x,-y,z
-x,y,z
x,-y,z
x,1/2+y,1/2+z
-x,1/2-y,1/2+z
-x,1/2+y,1/2+z
x,1/2-y,1/2+z
1/2+x,y,1/2+z
1/2-x,-y,1/2+z
1/2-x,y,1/2+z
1/2+x,-y,1/2+z
1/2+x,1/2+y,z
1/2-x,1/2-y,z
1/2-x,1/2+y,z
1/2+x,1/2-y,z
loop_
_atom_site_type_symbol
_atom_site_label
_atom_site_fract_x
_atom_site_fract_y
_atom_site_fract_z
Si Si1 0.146398 0.761905 0.449060
Si Si2 0.000000 0.845616 0.367361
Si Si3 0.605401 0.000000 0.027548
Si Si4 0.763480 0.000000 0.104840
Si Si5 0.000000 0.846929 0.245087
Si Si6 0.400602 0.000000 0.507326
Si Si7 0.686718 0.142836 0.705334
O O1 0.250000 0.750000 0.432839
O O2 0.090260 0.795685 0.395547
O O3 0.110789 0.625702 0.470400
O O4 0.132235 0.871844 0.494484
O O5 0.000000 0.789404 0.306066
O O6 0.000000 0.000000 0.370030
O O7 0.500000 0.000000 0.040875
O O8 0.660817 0.000000 0.084226
O O9 0.784902 0.872828 0.141813
O O10 0.828045 0.000000 0.053992
O O11 0.913504 0.801538 0.211106
O O12 0.000000 0.000000 0.249563
O O13 0.500000 0.000000 0.533059
O O14 0.750000 0.250000 0.733525
O O15 0.695955 0.000000 0.734485
#
# Coordination Sequence:
#
# PCOD8186785 Si02
#       7
#    16   8   8   8   8   8  16
#     4  12  22  39  58  90 125 160 199 247 288 365
#     4  11  22  41  65  89 115 164 207 251 305 367
#     4  12  22  40  58  84 128 170 205 229 292 370
#     4  10  24  36  62  91 124 160 202 244 303 357
#     4   9  20  42  68  86 114 157 210 254 306 364
#     4  12  24  34  58  85 134 154 193 245 297 341
#     4   9  21  40  62  90 119 149 206 253 298 366
#
# _framework density 19.063915999999999
#
# number of rings (size 3 to 8) (size 9 to 14) (size 15 to 20)
#    0.667    0.667    5.556    0.000    4.667    0.889 
#    2.000    0.556    4.889    0.000    0.000    0.000 
#    0.000    0.000    0.000    0.000    0.000    0.000 
#
# Total GULP energy -223101.403363 kJ/mol
# GULP energy per Si atom -12394.522409 kJ/mol
# Density = 1.902053 g / cm^3
# Si number density = 19.063916 Si / 1000 Ang^3
#
#
#
# Elastic Constant Matrix: (Units=GPa)
#
#
# Indices 1 2 3 4 5 6 
#
# 1 210.4506 47.6778 62.4264 0.0000 0.0000 0.0000
# 2 47.6778 109.0877 24.2741 0.0000 0.0000 0.0000
# 3 62.4264 24.2741 90.4769 0.0000 0.0000 0.0000
# 4 0.0000 0.0000 0.0000 13.4643 0.0000 0.0000
# 5 0.0000 0.0000 0.0000 0.0000 18.9297 0.0000
# 6 0.0000 0.0000 0.0000 0.0000 0.0000 26.8068
#
#
#
# Elastic Compliance Matrix: (Units=1/GPa)
#
#
# Indices 1 2 3 4 5 6 
#
# 1 0.006327 -0.001908 -0.003854 0.000000 0.000000 0.000000
# 2 -0.001908 0.010324 -0.001454 0.000000 0.000000 0.000000
# 3 -0.003854 -0.001454 0.014101 0.000000 0.000000 0.000000
# 4 0.000000 0.000000 0.000000 0.074270 0.000000 0.000000
# 5 0.000000 0.000000 0.000000 0.000000 0.052827 0.000000
# 6 0.000000 0.000000 0.000000 0.000000 0.000000 0.037304
#
#
# Mechanical properties :
#
#
# Convention : Reuss Voigt Hill
#
# Bulk Modulus (GPa) = 61.26444 75.41910 68.34177
# Shear Modulus (GPa) = 23.25314 30.21596 26.73455
#
# Velocity S-wave (km/s) = 3.49628 3.98550 3.74888
# Velocity P-wave (km/s) = 6.96453 7.79910 7.39360
#
# Compressibility (1/GPa) = 0.01632268
#
# Stress axis : x y z
#
# Youngs Moduli (GPa) = 158.05214 96.85982 70.91488
#
# Poissons Ratio (x) = 0.18479 0.27328
# Poissons Ratio (y) = 0.30153 0.10308
# Poissons Ratio (z) = 0.60907 0.14079
#
# Static dielectric constant tensor:
#      x y z
#    x 3.962610 0.000000 0.000000 
#    y 0.000000 3.733100 0.000000 
#    z 0.000000 0.000000 3.361170 
# 
# 
# High freq. dielectric constant tensor:
#      x y z
#    x 1.761130 0.000000 0.000000 
#    y 0.000000 1.738980 0.000000 
#    z 0.000000 0.000000 1.713770 
# 
# From -- ./inp_files/32474.got.cif
#   From: 2010.03.12/outbox.cif.g09.slc.cpg/sg42_17_cif.got.tgz:32474.got - 2010.04.14 02:04:31.
