data_PCOD8186186
_publ_section_title
;
Structure prediction by ZEFSAII (Michael W. Deem and Ramdas Pophale) SiO2 
 PCOD8186186
Probable space group: F M M 2
;
_chemical_formula_sum "Si O2"
_cell_formula_units_Z 88
_cell_length_a 17.682799
_cell_length_b 27.836940
_cell_length_c 8.466430
_cell_angle_alpha 90.000000
_cell_angle_beta 90.000000
_cell_angle_gamma 90.000000
_cell_volume 4167.473296
_symmetry_space_group_name_H-M "F M M 2"
_symmetry_group_IT_number 42
_symmetry_cell_setting 'orthorhombic'
loop_
_space_group_symop_operation_xyz
x,y,z
-x,-y,z
-x,y,z
x,-y,z
x,1/2+y,1/2+z
-x,1/2-y,1/2+z
-x,1/2+y,1/2+z
x,1/2-y,1/2+z
1/2+x,y,1/2+z
1/2-x,-y,1/2+z
1/2-x,y,1/2+z
1/2+x,-y,1/2+z
1/2+x,1/2+y,z
1/2-x,1/2-y,z
1/2-x,1/2+y,z
1/2+x,1/2-y,z
loop_
_atom_site_type_symbol
_atom_site_label
_atom_site_fract_x
_atom_site_fract_y
_atom_site_fract_z
Si Si1 0.250000 0.750000 0.692611
Si Si2 0.500000 0.728562 0.070794
Si Si3 0.642259 0.500000 0.414305
Si Si4 0.708614 0.103461 0.553934
Si Si5 0.361917 0.395188 0.393834
Si Si6 0.718891 0.500000 0.092032
Si Si7 0.156237 0.696095 0.444033
Si Si8 0.000000 0.677287 0.906976
O O1 0.210195 0.709540 0.589894
O O2 0.184150 0.775951 0.790348
O O3 0.500000 0.710085 0.249852
O O4 0.570549 0.709054 0.973691
O O5 0.500000 0.786919 0.058234
O O6 0.597923 0.551091 0.397974
O O7 0.706318 0.500000 0.278601
O O8 0.689901 0.500000 0.575982
O O9 0.683178 0.115034 0.732403
O O10 0.799692 0.109524 0.533199
O O11 0.664415 0.138375 0.432194
O O12 0.684526 0.048450 0.513171
O O13 0.425720 0.355286 0.415498
#
# Coordination Sequence:
#
# PCOD8186186 Si02
#       8
#     8   8   8  16  16   8  16   8
#     4  10  24  36  60  86 108 148 202 244 282 340
#     4  12  26  42  58  80 122 160 194 248 296 344
#     4   8  16  33  60  90 116 149 182 238 288 351
#     4  10  19  36  61  89 116 154 190 244 282 354
#     4  10  21  39  63  90 121 150 195 237 296 347
#     4   8  16  30  54  88 120 142 186 232 298 334
#     4  11  22  39  58  83 114 152 195 241 290 342
#     4  12  26  45  56  86 120 161 194 246 294 354
#
# _framework density 21.115911000000001
#
# number of rings (size 3 to 8) (size 9 to 14) (size 15 to 20)
#    0.000    1.818    1.818    2.182    5.091    0.364 
#    3.273    0.000    0.000    0.545    0.000    0.000 
#    0.000   23.273    0.000    0.000    0.000    0.000 
#
# Total GULP energy -272581.809501 kJ/mol
# GULP energy per Si atom -12390.082250 kJ/mol
# Density = 2.106785 g / cm^3
# Si number density = 21.115911 Si / 1000 Ang^3
#
#
#
# Elastic Constant Matrix: (Units=GPa)
#
#
# Indices 1 2 3 4 5 6 
#
# 1 100.0144 58.8107 16.0223 0.0001 -0.0003 0.0000
# 2 58.8107 169.3426 26.6632 0.0001 -0.0005 0.0000
# 3 16.0223 26.6632 42.8066 0.0002 -0.0012 -0.0001
# 4 0.0001 0.0001 0.0002 22.5130 -0.0003 0.0000
# 5 -0.0003 -0.0005 -0.0012 -0.0003 -61.1053 0.0001
# 6 0.0000 0.0000 -0.0001 0.0000 0.0001 28.3310
#
#
#
# Elastic Compliance Matrix: (Units=1/GPa)
#
#
# Indices 1 2 3 4 5 6 
#
# 1 0.012754 -0.004078 -0.002234 0.000000 0.000000 0.000000
# 2 -0.004078 0.007851 -0.003364 0.000000 0.000000 0.000000
# 3 -0.002234 -0.003364 0.026292 0.000000 0.000000 0.000000
# 4 0.000000 0.000000 0.000000 0.044419 0.000000 0.000000
# 5 0.000000 0.000000 0.000000 0.000000 -0.016365 0.000000
# 6 0.000000 0.000000 0.000000 0.000000 0.000000 0.035297
#
#
# Mechanical properties :
#
#
# Convention : Reuss Voigt Hill
#
# Bulk Modulus (GPa) = 36.30235 57.23954 46.77094
# Shear Modulus (GPa) = 36.02793 11.99224 24.01008
#
# Velocity S-wave (km/s) = 4.13510 2.38570 3.37569
# Velocity P-wave (km/s) = 6.32677 5.89533 6.11485
#
# Compressibility (1/GPa) = 0.02754642
#
# Stress axis : x y z
#
# Youngs Moduli (GPa) = 78.40563 127.37300 38.03390
#
# Poissons Ratio (x) = 0.51938 0.08497
# Poissons Ratio (y) = 0.31971 0.12794
# Poissons Ratio (z) = 0.17516 0.42847
#
# Static dielectric constant tensor:
#      x y z
#    x 3.544820 0.000000 0.000000 
#    y 0.000000 4.417500 0.000000 
#    z 0.000000 0.000000 3.735910 
# 
# 
# High freq. dielectric constant tensor:
#      x y z
#    x 1.793250 0.000000 0.000000 
#    y 0.000000 1.860620 0.000000 
#    z 0.000000 0.000000 1.814270 
# 
# From -- ./inp_files/3669.got.cif
#   From: 2010.03.12/outbox.cif.g09.slc.cpg/sg42_2_cif.got.tgz:3669.got - 2010.04.14 02:04:31.
