data_PCOD8186667
_publ_section_title
;
Structure prediction by ZEFSAII (Michael W. Deem and Ramdas Pophale) SiO2 
 PCOD8186667
Probable space group: F M M 2
;
_chemical_formula_sum "Si O2"
_cell_formula_units_Z 72
_cell_length_a 20.018899
_cell_length_b 18.532412
_cell_length_c 9.237128
_cell_angle_alpha 90.000000
_cell_angle_beta 90.000000
_cell_angle_gamma 90.000000
_cell_volume 3426.960485
_symmetry_space_group_name_H-M "F M M 2"
_symmetry_group_IT_number 42
_symmetry_cell_setting 'orthorhombic'
loop_
_space_group_symop_operation_xyz
x,y,z
-x,-y,z
-x,y,z
x,-y,z
x,1/2+y,1/2+z
-x,1/2-y,1/2+z
-x,1/2+y,1/2+z
x,1/2-y,1/2+z
1/2+x,y,1/2+z
1/2-x,-y,1/2+z
1/2-x,y,1/2+z
1/2+x,-y,1/2+z
1/2+x,1/2+y,z
1/2-x,1/2-y,z
1/2-x,1/2+y,z
1/2+x,1/2-y,z
loop_
_atom_site_type_symbol
_atom_site_label
_atom_site_fract_x
_atom_site_fract_y
_atom_site_fract_z
Si Si1 0.275245 0.847558 0.968610
Si Si2 0.112595 0.921180 0.342951
Si Si3 0.000000 0.312274 0.818380
Si Si4 0.635037 0.417997 0.007830
Si Si5 0.250000 0.250000 0.221859
Si Si6 0.000000 0.836133 0.981874
O O1 0.325247 0.914921 0.955187
O O2 0.295889 0.796915 0.830703
O O3 0.198285 0.871857 0.952233
O O4 0.290997 0.803984 0.116428
O O5 0.062689 0.856669 0.378476
O O6 0.138982 0.916821 0.180008
O O7 0.079325 0.000000 0.367531
O O8 0.000000 0.308471 0.645647
O O9 0.000000 0.231618 0.875995
O O10 0.639309 0.500000 0.949162
O O11 0.565942 0.383613 0.950559
#
# Coordination Sequence:
#
# PCOD8186667 Si02
#       6
#    16  16   8  16   8   8
#     4  11  21  38  60  88 120 156 196 244 292 352
#     4  10  21  39  62  89 119 156 198 243 294 352
#     4  10  23  39  63  87 117 154 200 243 293 349
#     4  10  21  39  62  89 119 156 198 243 294 352
#     4  10  24  34  58  88 128 150 194 244 300 338
#     4  10  23  39  63  87 117 154 200 243 293 349
#
# _framework density 21.009871
#
# number of rings (size 3 to 8) (size 9 to 14) (size 15 to 20)
#    0.000    1.778    2.222    1.333    6.222    2.667 
#    0.000    0.000    0.000    1.333    0.000    0.000 
#    0.000    0.000    0.000    0.000    0.000    0.000 
#
# Total GULP energy -223088.960389 kJ/mol
# GULP energy per Si atom -12393.831133 kJ/mol
# Density = 2.096205 g / cm^3
# Si number density = 21.009871 Si / 1000 Ang^3
#
#
#
# Elastic Constant Matrix: (Units=GPa)
#
#
# Indices 1 2 3 4 5 6 
#
# 1 122.6726 47.6912 20.7746 0.0001 0.0000 0.0000
# 2 47.6912 138.0076 39.6754 0.0001 0.0000 0.0000
# 3 20.7746 39.6754 77.3598 0.0002 0.0000 0.0000
# 4 0.0001 0.0001 0.0002 27.3964 0.0000 0.0000
# 5 0.0000 0.0000 0.0000 0.0000 25.9186 0.0000
# 6 0.0000 0.0000 0.0000 0.0000 0.0000 22.1169
#
#
#
# Elastic Compliance Matrix: (Units=1/GPa)
#
#
# Indices 1 2 3 4 5 6 
#
# 1 0.009484 -0.002986 -0.001016 0.000000 0.000000 0.000000
# 2 -0.002986 0.009439 -0.004039 0.000000 0.000000 0.000000
# 3 -0.001016 -0.004039 0.015271 0.000000 0.000000 0.000000
# 4 0.000000 0.000000 0.000000 0.036501 0.000000 0.000000
# 5 0.000000 0.000000 0.000000 0.000000 0.038582 0.000000
# 6 0.000000 0.000000 0.000000 0.000000 0.000000 0.045214
#
#
# Mechanical properties :
#
#
# Convention : Reuss Voigt Hill
#
# Bulk Modulus (GPa) = 55.20800 61.59137 58.39969
# Shear Modulus (GPa) = 28.31083 30.41297 29.36190
#
# Velocity S-wave (km/s) = 3.67482 3.80880 3.74241
# Velocity P-wave (km/s) = 6.65882 6.98010 6.82135
#
# Compressibility (1/GPa) = 0.01811332
#
# Stress axis : x y z
#
# Youngs Moduli (GPa) = 105.43542 105.94472 65.48373
#
# Poissons Ratio (x) = 0.31630 0.06652
# Poissons Ratio (y) = 0.31478 0.26450
# Poissons Ratio (z) = 0.10711 0.42793
#
# Static dielectric constant tensor:
#      x y z
#    x 3.643930 0.000000 0.000000 
#    y 0.000000 4.059030 0.000000 
#    z 0.000000 0.000000 3.601320 
# 
# 
# High freq. dielectric constant tensor:
#      x y z
#    x 1.811660 0.000000 0.000000 
#    y 0.000000 1.842610 0.000000 
#    z 0.000000 0.000000 1.800620 
# 
# From -- ./inp_files/3919.got.cif
#   From: 2010.03.12/outbox.cif.g09.slc.cpg/sg42_2_cif.got.tgz:3919.got - 2010.04.14 02:04:31.
