data_PCOD8186182
_publ_section_title
;
Structure prediction by ZEFSAII (Michael W. Deem and Ramdas Pophale) SiO2 
 PCOD8186182
Probable space group: F M M 2
;
_chemical_formula_sum "Si O2"
_cell_formula_units_Z 112
_cell_length_a 14.882910
_cell_length_b 21.812512
_cell_length_c 16.792741
_cell_angle_alpha 90.000000
_cell_angle_beta 90.000000
_cell_angle_gamma 90.000000
_cell_volume 5451.488854
_symmetry_space_group_name_H-M "F M M 2"
_symmetry_group_IT_number 42
_symmetry_cell_setting 'orthorhombic'
loop_
_space_group_symop_operation_xyz
x,y,z
-x,-y,z
-x,y,z
x,-y,z
x,1/2+y,1/2+z
-x,1/2-y,1/2+z
-x,1/2+y,1/2+z
x,1/2-y,1/2+z
1/2+x,y,1/2+z
1/2-x,-y,1/2+z
1/2-x,y,1/2+z
1/2+x,-y,1/2+z
1/2+x,1/2+y,z
1/2-x,1/2-y,z
1/2-x,1/2+y,z
1/2+x,1/2-y,z
loop_
_atom_site_type_symbol
_atom_site_label
_atom_site_fract_x
_atom_site_fract_y
_atom_site_fract_z
Si Si1 0.397503 0.282613 0.998270
Si Si2 0.140267 0.182820 0.693908
Si Si3 0.100938 0.930754 0.256772
Si Si4 0.602079 0.645504 0.521336
Si Si5 0.281802 0.570475 0.404837
Si Si6 0.844256 0.182041 0.161917
Si Si7 0.899900 0.128381 0.861044
O O1 0.500000 0.289432 0.027114
O O2 0.380349 0.311049 0.912277
O O3 0.370945 0.212180 0.988801
O O4 0.337505 0.316205 0.065697
O O5 0.106955 0.145052 0.617116
O O6 0.107384 0.254248 0.690167
O O7 0.246775 0.180265 0.700052
O O8 0.100610 0.147777 0.769308
O O9 0.164104 0.906870 0.327481
O O10 0.105054 0.880401 0.186503
O O11 0.000000 0.932825 0.289647
O O12 0.128728 0.000000 0.227535
O O13 0.500000 0.627066 0.496119
O O14 0.677497 0.601937 0.483389
O O15 0.298681 0.500000 0.420060
O O16 0.175990 0.580258 0.387602
O O17 0.000000 0.101589 0.879739
#
# Coordination Sequence:
#
# PCOD8186182 Si02
#       7
#    16  16  16  16  16  16  16
#     4   9  20  36  59  92 126 161 199 250 309 367
#     4  10  21  36  60  94 125 165 207 252 312 371
#     4  10  21  37  60  89 122 160 201 248 301 362
#     4  10  21  39  63  92 128 162 200 256 314 367
#     4  11  24  42  62  86 119 160 210 257 304 370
#     4  10  19  36  59  89 128 167 205 253 301 361
#     4  11  23  40  62  88 122 160 206 257 314 377
#
# _framework density 20.544846
#
# number of rings (size 3 to 8) (size 9 to 14) (size 15 to 20)
#    0.000    1.857    1.429    2.143    2.000    4.571 
#    0.000    3.571    0.000    2.571    0.000    0.000 
#    0.000    0.000    0.000    0.000    0.000    0.000 
#
# Total GULP energy -347125.377282 kJ/mol
# GULP energy per Si atom -12397.334903 kJ/mol
# Density = 2.049809 g / cm^3
# Si number density = 20.544846 Si / 1000 Ang^3
#
#
#
# Elastic Constant Matrix: (Units=GPa)
#
#
# Indices 1 2 3 4 5 6 
#
# 1 99.8767 29.5248 30.3177 0.0000 0.0000 0.0000
# 2 29.5248 86.4751 46.2911 0.0000 0.0000 0.0000
# 3 30.3177 46.2911 100.9232 0.0000 0.0000 0.0000
# 4 0.0000 0.0000 0.0000 27.6745 0.0000 0.0000
# 5 0.0000 0.0000 0.0000 0.0000 30.8265 0.0000
# 6 0.0000 0.0000 0.0000 0.0000 0.0000 25.3333
#
#
#
# Elastic Compliance Matrix: (Units=1/GPa)
#
#
# Indices 1 2 3 4 5 6 
#
# 1 0.011490 -0.002751 -0.002190 0.000000 0.000000 0.000000
# 2 -0.002751 0.015986 -0.006506 0.000000 0.000000 0.000000
# 3 -0.002190 -0.006506 0.013551 0.000000 0.000000 0.000000
# 4 0.000000 0.000000 0.000000 0.036134 0.000000 0.000000
# 5 0.000000 0.000000 0.000000 0.000000 0.032440 0.000000
# 6 0.000000 0.000000 0.000000 0.000000 0.000000 0.039474
#
#
# Mechanical properties :
#
#
# Convention : Reuss Voigt Hill
#
# Bulk Modulus (GPa) = 55.14742 55.50467 55.32605
# Shear Modulus (GPa) = 28.08790 28.84295 28.46543
#
# Velocity S-wave (km/s) = 3.70151 3.75093 3.72630
# Velocity P-wave (km/s) = 6.72079 6.77011 6.74549
#
# Compressibility (1/GPa) = 0.01813321
#
# Stress axis : x y z
#
# Youngs Moduli (GPa) = 87.03009 62.55487 73.79746
#
# Poissons Ratio (x) = 0.17207 0.16162
# Poissons Ratio (y) = 0.23940 0.48013
# Poissons Ratio (z) = 0.19060 0.40699
#
# Static dielectric constant tensor:
#      x y z
#    x 3.858650 0.000000 0.000000 
#    y 0.000000 3.579000 0.000000 
#    z 0.000000 0.000000 3.584190 
# 
# 
# High freq. dielectric constant tensor:
#      x y z
#    x 1.816230 0.000000 0.000000 
#    y 0.000000 1.782400 0.000000 
#    z 0.000000 0.000000 1.796850 
# 
# From -- ./inp_files/14263.got.cif
#   From: 2010.03.12/outbox.cif.g09.slc.cpg/sg42_8_cif.got.tgz:14263.got - 2010.04.14 02:04:31.
