data_PCOD8186607
_publ_section_title
;
Structure prediction by ZEFSAII (Michael W. Deem and Ramdas Pophale) SiO2 
 PCOD8186607
Probable space group: F M M 2
;
_chemical_formula_sum "Si O2"
_cell_formula_units_Z 72
_cell_length_a 10.232584
_cell_length_b 13.799716
_cell_length_c 24.550099
_cell_angle_alpha 90.000000
_cell_angle_beta 90.000000
_cell_angle_gamma 90.000000
_cell_volume 3466.639769
_symmetry_space_group_name_H-M "F M M 2"
_symmetry_group_IT_number 42
_symmetry_cell_setting 'orthorhombic'
loop_
_space_group_symop_operation_xyz
x,y,z
-x,-y,z
-x,y,z
x,-y,z
x,1/2+y,1/2+z
-x,1/2-y,1/2+z
-x,1/2+y,1/2+z
x,1/2-y,1/2+z
1/2+x,y,1/2+z
1/2-x,-y,1/2+z
1/2-x,y,1/2+z
1/2+x,-y,1/2+z
1/2+x,1/2+y,z
1/2-x,1/2-y,z
1/2-x,1/2+y,z
1/2+x,1/2-y,z
loop_
_atom_site_type_symbol
_atom_site_label
_atom_site_fract_x
_atom_site_fract_y
_atom_site_fract_z
Si Si1 0.500000 0.612220 0.370991
Si Si2 0.000000 0.768373 0.260063
Si Si3 0.277780 0.612436 0.921763
Si Si4 0.750000 0.250000 0.688802
Si Si5 0.351181 0.609941 0.601631
Si Si6 0.250000 0.750000 0.013284
Si Si7 0.000000 0.111038 0.839645
O O1 0.500000 0.500000 0.356276
O O2 0.500000 0.664850 0.313289
O O3 0.628237 0.638661 0.406339
O O4 0.871381 0.784884 0.224667
O O5 0.000000 0.658222 0.280476
O O6 0.295287 0.500000 0.936430
O O7 0.370460 0.642713 0.872034
O O8 0.325643 0.674502 0.973865
O O9 0.726482 0.344844 0.652065
O O10 0.500000 0.604815 0.619680
O O11 0.300104 0.500000 0.588740
O O12 0.342506 0.681703 0.549780
O O13 0.000000 0.000000 0.826472
#
# Coordination Sequence:
#
# PCOD8186607 Si02
#       7
#     8   8  16   8  16   8   8
#     4  10  22  38  57  88 128 164 203 246 295 360
#     4  12  22  38  64  92 116 164 208 258 300 368
#     4  10  21  37  58  89 129 166 200 244 299 361
#     4  11  24  41  66  90 122 157 212 257 320 362
#     4  10  23  44  65  90 123 160 206 260 315 374
#     4  11  22  35  66  92 118 159 208 251 296 362
#     4  10  22  38  57  88 128 164 201 246 297 360
#
# _framework density 20.769393000000001
#
# number of rings (size 3 to 8) (size 9 to 14) (size 15 to 20)
#    0.000    1.556    1.111    3.333    3.111    1.778 
#    0.000    0.000    0.000    0.000    0.000    0.000 
#    0.000    0.000    0.000    0.000    0.000    0.000 
#
# Total GULP energy -223131.866555 kJ/mol
# GULP energy per Si atom -12396.214809 kJ/mol
# Density = 2.072212 g / cm^3
# Si number density = 20.769393 Si / 1000 Ang^3
#
#
#
# Elastic Constant Matrix: (Units=GPa)
#
#
# Indices 1 2 3 4 5 6 
#
# 1 120.3498 38.3535 45.2017 0.0000 0.0000 0.0000
# 2 38.3535 139.5241 70.5848 0.0000 0.0000 0.0000
# 3 45.2017 70.5848 129.9160 0.0000 0.0000 0.0000
# 4 0.0000 0.0000 0.0000 33.0090 0.0000 0.0000
# 5 0.0000 0.0000 0.0000 0.0000 84.6210 0.0000
# 6 0.0000 0.0000 0.0000 0.0000 0.0000 17.0220
#
#
#
# Elastic Compliance Matrix: (Units=1/GPa)
#
#
# Indices 1 2 3 4 5 6 
#
# 1 0.009733 -0.001327 -0.002665 0.000000 0.000000 0.000000
# 2 -0.001327 0.010065 -0.005007 0.000000 0.000000 0.000000
# 3 -0.002665 -0.005007 0.011345 0.000000 0.000000 0.000000
# 4 0.000000 0.000000 0.000000 0.030295 0.000000 0.000000
# 5 0.000000 0.000000 0.000000 0.000000 0.011817 0.000000
# 6 0.000000 0.000000 0.000000 0.000000 0.000000 0.058748
#
#
# Mechanical properties :
#
#
# Convention : Reuss Voigt Hill
#
# Bulk Modulus (GPa) = 76.07722 77.56332 76.82027
# Shear Modulus (GPa) = 32.38712 42.64038 37.51375
#
# Velocity S-wave (km/s) = 3.95317 4.53596 4.25456
# Velocity P-wave (km/s) = 7.58589 8.05353 7.82321
#
# Compressibility (1/GPa) = 0.01314454
#
# Stress axis : x y z
#
# Youngs Moduli (GPa) = 102.74186 99.35575 88.14608
#
# Poissons Ratio (x) = 0.13185 0.23495
# Poissons Ratio (y) = 0.13635 0.44131
# Poissons Ratio (z) = 0.27385 0.49743
#
# Static dielectric constant tensor:
#      x y z
#    x 3.724040 0.000000 0.000000 
#    y 0.000000 4.074470 0.000000 
#    z 0.000000 0.000000 3.800510 
# 
# 
# High freq. dielectric constant tensor:
#      x y z
#    x 1.804600 0.000000 0.000000 
#    y 0.000000 1.834140 0.000000 
#    z 0.000000 0.000000 1.815190 
# 
# From -- ./inp_files/31175.got.cif
#   From: 2010.03.12/outbox.cif.g09.slc.cpg/sg42_16_cif.got.tgz:31175.got - 2010.04.14 02:04:31.
