data_PCOD8186111
_publ_section_title
;
Structure prediction by ZEFSAII (Michael W. Deem and Ramdas Pophale) SiO2 
 PCOD8186111
Probable space group: F M M 2
;
_chemical_formula_sum "Si O2"
_cell_formula_units_Z 96
_cell_length_a 23.501359
_cell_length_b 9.124070
_cell_length_c 25.239585
_cell_angle_alpha 90.000000
_cell_angle_beta 90.000000
_cell_angle_gamma 90.000000
_cell_volume 5412.074858
_symmetry_space_group_name_H-M "F M M 2"
_symmetry_group_IT_number 42
_symmetry_cell_setting 'orthorhombic'
loop_
_space_group_symop_operation_xyz
x,y,z
-x,-y,z
-x,y,z
x,-y,z
x,1/2+y,1/2+z
-x,1/2-y,1/2+z
-x,1/2+y,1/2+z
x,1/2-y,1/2+z
1/2+x,y,1/2+z
1/2-x,-y,1/2+z
1/2-x,y,1/2+z
1/2+x,-y,1/2+z
1/2+x,1/2+y,z
1/2-x,1/2-y,z
1/2-x,1/2+y,z
1/2+x,1/2-y,z
loop_
_atom_site_type_symbol
_atom_site_label
_atom_site_fract_x
_atom_site_fract_y
_atom_site_fract_z
Si Si1 0.389325 0.330009 0.790790
Si Si2 0.806633 0.330327 0.079008
Si Si3 0.500000 0.826744 0.943481
Si Si4 0.809296 0.828024 0.889836
Si Si5 0.500000 0.173807 0.823596
Si Si6 0.192773 0.171416 0.698227
Si Si7 0.878466 0.828084 0.480060
O O1 0.406822 0.500000 0.790000
O O2 0.349224 0.294469 0.840187
O O3 0.445100 0.231861 0.793244
O O4 0.358215 0.282441 0.736731
O O5 0.791250 0.500000 0.077966
O O6 0.750000 0.250000 0.058820
O O7 0.823735 0.280541 0.138374
O O8 0.859295 0.295350 0.040233
O O9 0.500000 0.764507 0.883724
O O10 0.443457 0.771700 0.973870
O O11 0.500000 0.000000 0.941572
O O12 0.750000 0.750000 0.878557
O O13 0.837614 0.762139 0.941983
O O14 0.799060 0.000000 0.898189
O O15 0.500000 0.000000 0.822498
O O16 0.250000 0.250000 0.717205
O O17 0.204617 0.000000 0.702704
O O18 0.873321 0.000000 0.465926
#
# Coordination Sequence:
#
# PCOD8186111 Si02
#       7
#    16  16   8  16   8  16  16
#     4  10  21  36  53  75 106 137 171 213 258 307
#     4   9  18  32  53  77 103 135 171 211 257 308
#     4   9  18  33  52  73  99 135 173 211 250 297
#     4  11  22  33  49  75 104 135 168 209 260 311
#     4  11  21  35  56  77 101 139 179 213 256 305
#     4   9  18  34  54  78 105 137 173 211 258 307
#     4  10  19  34  53  75 104 135 172 215 257 305
#
# _framework density 17.738112999999998
#
# number of rings (size 3 to 8) (size 9 to 14) (size 15 to 20)
#    0.000    2.167    1.667    1.750    0.000    3.333 
#    0.000    1.250    0.000    4.000    0.000    0.000 
#    0.000    0.000    0.000    0.000    0.000    0.000 
#
# Total GULP energy -297640.977116 kJ/mol
# GULP energy per Si atom -12401.707380 kJ/mol
# Density = 1.769774 g / cm^3
# Si number density = 17.738113 Si / 1000 Ang^3
#
#
#
# Elastic Constant Matrix: (Units=GPa)
#
#
# Indices 1 2 3 4 5 6 
#
# 1 151.0996 56.2829 73.1636 0.0000 0.0000 0.0000
# 2 56.2829 57.8467 40.4805 0.0000 0.0000 0.0000
# 3 73.1636 40.4805 111.1821 0.0000 0.0000 0.0000
# 4 0.0000 0.0000 0.0000 22.9241 0.0000 0.0000
# 5 0.0000 0.0000 0.0000 0.0000 29.3071 0.0000
# 6 0.0000 0.0000 0.0000 0.0000 0.0000 20.2849
#
#
#
# Elastic Compliance Matrix: (Units=1/GPa)
#
#
# Indices 1 2 3 4 5 6 
#
# 1 0.012111 -0.008329 -0.004937 0.000000 0.000000 0.000000
# 2 -0.008329 0.028925 -0.005051 0.000000 0.000000 0.000000
# 3 -0.004937 -0.005051 0.014082 0.000000 0.000000 0.000000
# 4 0.000000 0.000000 0.000000 0.043622 0.000000 0.000000
# 5 0.000000 0.000000 0.000000 0.000000 0.034121 0.000000
# 6 0.000000 0.000000 0.000000 0.000000 0.000000 0.049298
#
#
# Mechanical properties :
#
#
# Convention : Reuss Voigt Hill
#
# Bulk Modulus (GPa) = 54.09803 73.33137 63.71470
# Shear Modulus (GPa) = 22.22667 24.51664 23.37166
#
# Velocity S-wave (km/s) = 3.54368 3.72175 3.63381
# Velocity P-wave (km/s) = 6.87808 7.73948 7.32146
#
# Compressibility (1/GPa) = 0.01848496
#
# Stress axis : x y z
#
# Youngs Moduli (GPa) = 82.56810 34.57223 71.01149
#
# Poissons Ratio (x) = 0.28794 0.35061
# Poissons Ratio (y) = 0.68768 0.35865
# Poissons Ratio (z) = 0.40767 0.17461
#
# Static dielectric constant tensor:
#      x y z
#    x 3.481920 0.000000 0.000000 
#    y 0.000000 3.214680 0.000000 
#    z 0.000000 0.000000 3.487230 
# 
# 
# High freq. dielectric constant tensor:
#      x y z
#    x 1.686000 0.000000 0.000000 
#    y 0.000000 1.678250 0.000000 
#    z 0.000000 0.000000 1.688990 
# 
# From -- ./inp_files/28074.got.cif
#   From: 2010.03.12/outbox.cif.g09.slc.cpg/sg42_15_cif.got.tgz:28074.got - 2010.04.14 02:04:31.
