data_PCOD8186130
_publ_section_title
;
Structure prediction by ZEFSAII (Michael W. Deem and Ramdas Pophale) SiO2 
 PCOD8186130
Probable space group: F M M 2
;
_chemical_formula_sum "Si O2"
_cell_formula_units_Z 80
_cell_length_a 8.473221
_cell_length_b 18.473008
_cell_length_c 25.489546
_cell_angle_alpha 90.000000
_cell_angle_beta 90.000000
_cell_angle_gamma 90.000000
_cell_volume 3989.773601
_symmetry_space_group_name_H-M "F M M 2"
_symmetry_group_IT_number 42
_symmetry_cell_setting 'orthorhombic'
loop_
_space_group_symop_operation_xyz
x,y,z
-x,-y,z
-x,y,z
x,-y,z
x,1/2+y,1/2+z
-x,1/2-y,1/2+z
-x,1/2+y,1/2+z
x,1/2-y,1/2+z
1/2+x,y,1/2+z
1/2-x,-y,1/2+z
1/2-x,y,1/2+z
1/2+x,-y,1/2+z
1/2+x,1/2+y,z
1/2-x,1/2-y,z
1/2-x,1/2+y,z
1/2+x,1/2-y,z
loop_
_atom_site_type_symbol
_atom_site_label
_atom_site_fract_x
_atom_site_fract_y
_atom_site_fract_z
Si Si1 0.687035 0.827581 0.505790
Si Si2 0.315719 0.829884 0.702918
Si Si3 0.312621 0.419085 0.105102
Si Si4 0.183970 0.416153 0.298895
Si Si5 0.813744 0.329453 0.892930
O O1 0.500000 0.823852 0.497094
O O2 0.750000 0.750000 0.524500
O O3 0.738157 0.884701 0.549860
O O4 0.769778 0.851507 0.452035
O O5 0.500000 0.823388 0.695004
O O6 0.250000 0.750000 0.706921
O O7 0.241356 0.872136 0.653047
O O8 0.280983 0.873060 0.755639
O O9 0.500000 0.421515 0.109477
O O10 0.242080 0.500000 0.108353
O O11 0.229496 0.500000 0.294987
O O12 0.232091 0.388110 0.355981
O O13 0.000000 0.403072 0.289399
O O14 0.750000 0.250000 0.878883
O O15 0.000000 0.330691 0.884834
#
# Coordination Sequence:
#
# PCOD8186130 Si02
#       5
#    16  16  16  16  16
#     4  10  19  34  57  83 113 149 190 234 280 333
#     4  11  22  38  61  86 115 150 191 235 280 335
#     4   9  19  35  56  83 114 149 188 231 282 338
#     4  11  24  41  60  84 115 149 187 233 286 341
#     4  11  22  38  60  85 115 150 192 237 282 335
#
# _framework density 20.051264
#
# number of rings (size 3 to 8) (size 9 to 14) (size 15 to 20)
#    0.000    1.600    0.000    6.600    0.000    3.200 
#    0.000    5.000    0.000    6.600    0.000    0.000 
#    0.000    0.000    0.000    0.000    0.000    0.000 
#
# Total GULP energy -248084.964038 kJ/mol
# GULP energy per Si atom -12404.248202 kJ/mol
# Density = 2.000563 g / cm^3
# Si number density = 20.051264 Si / 1000 Ang^3
#
#
#
# Elastic Constant Matrix: (Units=GPa)
#
#
# Indices 1 2 3 4 5 6 
#
# 1 43.7799 27.5807 6.9020 0.0000 0.0000 0.0000
# 2 27.5807 153.9659 79.3075 0.0000 0.0000 0.0000
# 3 6.9020 79.3075 113.1695 0.0000 0.0000 0.0000
# 4 0.0000 0.0000 0.0000 20.0093 0.0000 0.0000
# 5 0.0000 0.0000 0.0000 0.0000 27.9757 0.0000
# 6 0.0000 0.0000 0.0000 0.0000 0.0000 22.4088
#
#
#
# Elastic Compliance Matrix: (Units=1/GPa)
#
#
# Indices 1 2 3 4 5 6 
#
# 1 0.026246 -0.006067 0.002651 0.000000 0.000000 0.000000
# 2 -0.006067 0.011566 -0.007735 0.000000 0.000000 0.000000
# 3 0.002651 -0.007735 0.014096 0.000000 0.000000 0.000000
# 4 0.000000 0.000000 0.000000 0.049977 0.000000 0.000000
# 5 0.000000 0.000000 0.000000 0.000000 0.035745 0.000000
# 6 0.000000 0.000000 0.000000 0.000000 0.000000 0.044625
#
#
# Mechanical properties :
#
#
# Convention : Reuss Voigt Hill
#
# Bulk Modulus (GPa) = 33.77859 59.83287 46.80573
# Shear Modulus (GPa) = 23.31805 27.22044 25.26924
#
# Velocity S-wave (km/s) = 3.41386 3.68848 3.55383
# Velocity P-wave (km/s) = 5.69403 6.93142 6.34297
#
# Compressibility (1/GPa) = 0.02960455
#
# Stress axis : x y z
#
# Youngs Moduli (GPa) = 38.10140 86.45803 70.94449
#
# Poissons Ratio (x) = 0.52455 -0.18808
# Poissons Ratio (y) = 0.23116 0.54879
# Poissons Ratio (z) = -0.10101 0.66879
#
# Static dielectric constant tensor:
#      x y z
#    x 3.549790 0.000000 0.000000 
#    y 0.000000 3.880690 0.000000 
#    z 0.000000 0.000000 3.781360 
# 
# 
# High freq. dielectric constant tensor:
#      x y z
#    x 1.775790 0.000000 0.000000 
#    y 0.000000 1.789130 0.000000 
#    z 0.000000 0.000000 1.798330 
# 
# From -- ./inp_files/31239.got.cif
#   From: 2010.03.12/outbox.cif.g09.slc.cpg/sg42_16_cif.got.tgz:31239.got - 2010.04.14 02:04:31.
