data_PCOD8186148
_publ_section_title
;
Structure prediction by ZEFSAII (Michael W. Deem and Ramdas Pophale) SiO2 
 PCOD8186148
Probable space group: F M M 2
;
_chemical_formula_sum "Si O2"
_cell_formula_units_Z 112
_cell_length_a 16.904589
_cell_length_b 17.993705
_cell_length_c 19.504659
_cell_angle_alpha 90.000000
_cell_angle_beta 90.000000
_cell_angle_gamma 90.000000
_cell_volume 5932.852815
_symmetry_space_group_name_H-M "F M M 2"
_symmetry_group_IT_number 42
_symmetry_cell_setting 'orthorhombic'
loop_
_space_group_symop_operation_xyz
x,y,z
-x,-y,z
-x,y,z
x,-y,z
x,1/2+y,1/2+z
-x,1/2-y,1/2+z
-x,1/2+y,1/2+z
x,1/2-y,1/2+z
1/2+x,y,1/2+z
1/2-x,-y,1/2+z
1/2-x,y,1/2+z
1/2+x,-y,1/2+z
1/2+x,1/2+y,z
1/2-x,1/2-y,z
1/2-x,1/2+y,z
1/2+x,1/2-y,z
loop_
_atom_site_type_symbol
_atom_site_label
_atom_site_fract_x
_atom_site_fract_y
_atom_site_fract_z
Si Si1 0.590417 0.418096 0.490340
Si Si2 0.744382 0.584276 0.735159
Si Si3 0.330851 0.210455 0.673520
Si Si4 0.912348 0.671536 0.255216
Si Si5 0.292408 0.634507 0.381096
Si Si6 0.588167 0.262062 0.543351
Si Si7 0.861497 0.289256 0.398381
O O1 0.500000 0.407222 0.463853
O O2 0.599489 0.500000 0.525310
O O3 0.650830 0.416115 0.427054
O O4 0.610767 0.350264 0.542023
O O5 0.741793 0.500000 0.710191
O O6 0.812431 0.624210 0.689308
O O7 0.655530 0.616834 0.726448
O O8 0.772304 0.589093 0.813382
O O9 0.250000 0.250000 0.693848
O O10 0.398583 0.246931 0.721263
O O11 0.351774 0.219943 0.593356
O O12 0.913049 0.673561 0.338274
O O13 0.000000 0.643733 0.232911
O O14 0.210534 0.656060 0.419608
O O15 0.333247 0.712665 0.363181
O O16 0.500000 0.251717 0.572081
O O17 0.590481 0.227458 0.467353
#
# Coordination Sequence:
#
# PCOD8186148 Si02
#       7
#    16  16  16  16  16  16  16
#     4   9  18  31  48  77 115 145 174 220 278 333
#     4  10  20  36  56  82 113 144 182 229 280 335
#     4  10  21  36  55  77 107 148 190 230 268 329
#     4  10  19  35  58  82 110 145 185 233 282 326
#     4   9  16  30  53  79 109 143 182 223 273 327
#     4  10  20  33  53  81 108 143 187 231 274 323
#     4   9  17  30  55  82 106 140 192 235 268 323
#
# _framework density 18.877932999999999
#
# number of rings (size 3 to 8) (size 9 to 14) (size 15 to 20)
#    0.000    2.429    1.429    1.286    4.000    0.857 
#    0.000    2.857    0.000    6.857    0.000    0.000 
#    0.000    0.000    0.000    0.000    0.000    0.000 
#
# Total GULP energy -346967.722769 kJ/mol
# GULP energy per Si atom -12391.704385 kJ/mol
# Density = 1.883497 g / cm^3
# Si number density = 18.877933 Si / 1000 Ang^3
#
#
#
# Elastic Constant Matrix: (Units=GPa)
#
#
# Indices 1 2 3 4 5 6 
#
# 1 94.2974 43.4270 27.5189 0.0000 0.0000 0.0000
# 2 43.4270 120.5206 37.2497 0.0000 0.0000 0.0000
# 3 27.5189 37.2497 72.9485 0.0000 0.0000 0.0000
# 4 0.0000 0.0000 0.0000 16.8750 0.0000 0.0000
# 5 0.0000 0.0000 0.0000 0.0000 24.0796 0.0000
# 6 0.0000 0.0000 0.0000 0.0000 0.0000 20.3430
#
#
#
# Elastic Compliance Matrix: (Units=1/GPa)
#
#
# Indices 1 2 3 4 5 6 
#
# 1 0.013260 -0.003838 -0.003043 0.000000 0.000000 0.000000
# 2 -0.003838 0.010963 -0.004150 0.000000 0.000000 0.000000
# 3 -0.003043 -0.004150 0.016975 0.000000 0.000000 0.000000
# 4 0.000000 0.000000 0.000000 0.059259 0.000000 0.000000
# 5 0.000000 0.000000 0.000000 0.000000 0.041529 0.000000
# 6 0.000000 0.000000 0.000000 0.000000 0.000000 0.049157
#
#
# Mechanical properties :
#
#
# Convention : Reuss Voigt Hill
#
# Bulk Modulus (GPa) = 52.25396 56.01751 54.13574
# Shear Modulus (GPa) = 22.77039 24.23091 23.50065
#
# Velocity S-wave (km/s) = 3.47679 3.58656 3.53211
# Velocity P-wave (km/s) = 6.62250 6.84757 6.73597
#
# Compressibility (1/GPa) = 0.01913730
#
# Stress axis : x y z
#
# Youngs Moduli (GPa) = 75.41489 91.21703 58.90902
#
# Poissons Ratio (x) = 0.35005 0.17924
# Poissons Ratio (y) = 0.28941 0.24449
# Poissons Ratio (z) = 0.22946 0.37858
#
# Static dielectric constant tensor:
#      x y z
#    x 3.505870 0.000000 0.000000 
#    y 0.000000 3.369530 0.000000 
#    z 0.000000 0.000000 3.152920 
# 
# 
# High freq. dielectric constant tensor:
#      x y z
#    x 1.735430 0.000000 0.000000 
#    y 0.000000 1.708070 0.000000 
#    z 0.000000 0.000000 1.716510 
# 
# From -- ./inp_files/26069.got.cif
#   From: 2010.03.12/outbox.cif.g09.slc.cpg/sg42_14_cif.got.tgz:26069.got - 2010.04.14 02:04:31.
