data_PCOD8186859
_publ_section_title
;
Structure prediction by ZEFSAII (Michael W. Deem and Ramdas Pophale) SiO2 
 PCOD8186859
Probable space group: F M M 2
;
_chemical_formula_sum "Si O2"
_cell_formula_units_Z 80
_cell_length_a 24.777738
_cell_length_b 17.224809
_cell_length_c 9.055411
_cell_angle_alpha 90.000000
_cell_angle_beta 90.000000
_cell_angle_gamma 90.000000
_cell_volume 3864.775201
_symmetry_space_group_name_H-M "F M M 2"
_symmetry_group_IT_number 42
_symmetry_cell_setting 'orthorhombic'
loop_
_space_group_symop_operation_xyz
x,y,z
-x,-y,z
-x,y,z
x,-y,z
x,1/2+y,1/2+z
-x,1/2-y,1/2+z
-x,1/2+y,1/2+z
x,1/2-y,1/2+z
1/2+x,y,1/2+z
1/2-x,-y,1/2+z
1/2-x,y,1/2+z
1/2+x,-y,1/2+z
1/2+x,1/2+y,z
1/2-x,1/2-y,z
1/2-x,1/2+y,z
1/2+x,1/2-y,z
loop_
_atom_site_type_symbol
_atom_site_label
_atom_site_fract_x
_atom_site_fract_y
_atom_site_fract_z
Si Si1 0.907184 0.841088 0.806600
Si Si2 0.500000 0.592282 0.313251
Si Si3 0.906022 0.318545 0.655146
Si Si4 0.204654 0.910232 0.843246
Si Si5 0.000000 0.586464 0.140719
Si Si6 0.218018 0.169259 0.144972
O O1 0.921831 0.766028 0.710682
O O2 0.849490 0.877873 0.768316
O O3 0.949286 0.902604 0.746864
O O4 0.913648 0.824430 0.979761
O O5 0.500000 0.500000 0.304236
O O6 0.554692 0.619839 0.231935
O O7 0.500000 0.629254 0.479883
O O8 0.843540 0.329738 0.702637
O O9 0.252910 0.901618 0.727724
O O10 0.198048 0.000000 0.891687
O O11 0.219460 0.852556 0.974844
O O12 0.000000 0.500000 0.083996
O O13 0.250000 0.250000 0.171147
#
# Coordination Sequence:
#
# PCOD8186859 Si02
#       6
#    16   8  16  16   8  16
#     4  11  23  41  65  94 130 170 228 270 335 403
#     4  11  26  45  66  99 137 175 226 283 344 403
#     4  11  24  41  69  95 130 175 221 277 331 407
#     4  11  24  40  64  98 134 173 223 281 337 394
#     4  11  24  43  66  91 131 175 216 273 340 401
#     4  11  23  42  67  94 133 179 225 274 334 405
#
# _framework density 20.699781999999999
#
# number of rings (size 3 to 8) (size 9 to 14) (size 15 to 20)
#    0.000    1.000    2.000    4.200    2.800    7.200 
#    0.000    2.000    0.000    0.000    0.000    0.000 
#    0.000    0.000    0.000    0.000    0.000    0.000 
#
# Total GULP energy -247960.817644 kJ/mol
# GULP energy per Si atom -12398.040882 kJ/mol
# Density = 2.065267 g / cm^3
# Si number density = 20.699782 Si / 1000 Ang^3
#
#
#
# Elastic Constant Matrix: (Units=GPa)
#
#
# Indices 1 2 3 4 5 6 
#
# 1 158.6889 43.4028 64.5709 0.0000 0.0000 0.0000
# 2 43.4028 105.6854 25.2263 0.0000 0.0000 0.0000
# 3 64.5709 25.2263 93.7108 -0.0001 0.0000 0.0000
# 4 0.0000 0.0000 -0.0001 33.0687 0.0000 0.0000
# 5 0.0000 0.0000 0.0000 0.0000 30.5005 0.0000
# 6 0.0000 0.0000 0.0000 0.0000 0.0000 52.5048
#
#
#
# Elastic Compliance Matrix: (Units=1/GPa)
#
#
# Indices 1 2 3 4 5 6 
#
# 1 0.009315 -0.002451 -0.005759 0.000000 0.000000 0.000000
# 2 -0.002451 0.010757 -0.001207 0.000000 0.000000 0.000000
# 3 -0.005759 -0.001207 0.014964 0.000000 0.000000 0.000000
# 4 0.000000 0.000000 0.000000 0.030240 0.000000 0.000000
# 5 0.000000 0.000000 0.000000 0.000000 0.032786 0.000000
# 6 0.000000 0.000000 0.000000 0.000000 0.000000 0.019046
#
#
# Mechanical properties :
#
#
# Convention : Reuss Voigt Hill
#
# Bulk Modulus (GPa) = 61.71774 69.38721 65.55248
# Shear Modulus (GPa) = 35.37505 38.20716 36.79111
#
# Velocity S-wave (km/s) = 4.13844 4.30091 4.22046
# Velocity P-wave (km/s) = 7.26057 7.63265 7.44893
#
# Compressibility (1/GPa) = 0.01620280
#
# Stress axis : x y z
#
# Youngs Moduli (GPa) = 107.35019 92.96561 66.82661
#
# Poissons Ratio (x) = 0.22786 0.38485
# Poissons Ratio (y) = 0.26312 0.08064
# Poissons Ratio (z) = 0.61822 0.11219
#
# Static dielectric constant tensor:
#      x y z
#    x 3.993630 0.000000 0.000000 
#    y 0.000000 3.625160 0.000000 
#    z 0.000000 0.000000 3.729350 
# 
# 
# High freq. dielectric constant tensor:
#      x y z
#    x 1.826460 0.000000 0.000000 
#    y 0.000000 1.811020 0.000000 
#    z 0.000000 0.000000 1.817480 
# 
# From -- ./inp_files/3538.got.cif
#   From: 2010.03.12/outbox.cif.g09.slc.cpg/sg42_2_cif.got.tgz:3538.got - 2010.04.14 02:04:31.
