data_PCOD8186114
_publ_section_title
;
Structure prediction by ZEFSAII (Michael W. Deem and Ramdas Pophale) SiO2 
 PCOD8186114
Probable space group: F M M 2
;
_chemical_formula_sum "Si O2"
_cell_formula_units_Z 112
_cell_length_a 19.405653
_cell_length_b 23.960138
_cell_length_c 12.425640
_cell_angle_alpha 90.000000
_cell_angle_beta 90.000000
_cell_angle_gamma 90.000000
_cell_volume 5777.451965
_symmetry_space_group_name_H-M "F M M 2"
_symmetry_group_IT_number 42
_symmetry_cell_setting 'orthorhombic'
loop_
_space_group_symop_operation_xyz
x,y,z
-x,-y,z
-x,y,z
x,-y,z
x,1/2+y,1/2+z
-x,1/2-y,1/2+z
-x,1/2+y,1/2+z
x,1/2-y,1/2+z
1/2+x,y,1/2+z
1/2-x,-y,1/2+z
1/2-x,y,1/2+z
1/2+x,-y,1/2+z
1/2+x,1/2+y,z
1/2-x,1/2-y,z
1/2-x,1/2+y,z
1/2+x,1/2-y,z
loop_
_atom_site_type_symbol
_atom_site_label
_atom_site_fract_x
_atom_site_fract_y
_atom_site_fract_z
Si Si1 0.700193 0.134667 0.617150
Si Si2 0.674256 0.267297 0.255785
Si Si3 0.921993 0.060274 0.739633
Si Si4 0.082087 0.175343 0.653633
Si Si5 0.826956 0.162167 0.463426
Si Si6 0.785282 0.063695 0.323524
Si Si7 0.143638 0.060632 0.948889
O O1 0.655902 0.181924 0.676603
O O2 0.763596 0.159187 0.547583
O O3 0.724277 0.088263 0.703561
O O4 0.643501 0.107353 0.539457
O O5 0.750000 0.250000 0.218985
O O6 0.618595 0.218711 0.235431
O O7 0.679474 0.286792 0.379523
O O8 0.888471 0.113814 0.683465
O O9 0.920602 0.068955 0.868941
O O10 0.000000 0.057253 0.701120
O O11 0.886062 0.000000 0.709841
O O12 0.104749 0.180127 0.529430
O O13 0.000000 0.182327 0.665923
O O14 0.834184 0.103455 0.398105
O O15 0.710156 0.065374 0.373329
O O16 0.814611 0.000000 0.320920
O O17 0.141110 0.000000 0.005254
#
# Coordination Sequence:
#
# PCOD8186114 Si02
#       7
#    16  16  16  16  16  16  16
#     4  10  19  34  54  83 113 153 192 235 293 357
#     4  11  24  38  59  82 114 156 201 250 297 352
#     4   9  19  36  57  83 115 150 190 239 295 357
#     4  11  24  41  61  86 116 155 203 251 302 364
#     4  10  22  36  57  85 115 154 197 243 301 358
#     4   9  18  32  53  85 119 147 184 241 300 355
#     4   9  17  29  52  81 112 145 183 234 285 342
#
# _framework density 19.385708999999999
#
# number of rings (size 3 to 8) (size 9 to 14) (size 15 to 20)
#    0.000    2.143    1.429    1.286    6.000    1.714 
#    0.000    2.143    0.000    0.857    0.000    0.000 
#    0.000    0.000    0.000    0.000    0.000    0.000 
#
# Total GULP energy -346903.907567 kJ/mol
# GULP energy per Si atom -12389.425270 kJ/mol
# Density = 1.934159 g / cm^3
# Si number density = 19.385709 Si / 1000 Ang^3
#
#
#
# Elastic Constant Matrix: (Units=GPa)
#
#
# Indices 1 2 3 4 5 6 
#
# 1 49.9789 30.8335 15.2831 0.0000 0.0000 0.0000
# 2 30.8335 130.9139 55.3915 0.0000 0.0000 0.0000
# 3 15.2831 55.3915 102.1814 0.0000 0.0000 0.0000
# 4 0.0000 0.0000 0.0000 34.8517 0.0000 0.0000
# 5 0.0000 0.0000 0.0000 0.0000 21.3960 0.0000
# 6 0.0000 0.0000 0.0000 0.0000 0.0000 23.4030
#
#
#
# Elastic Compliance Matrix: (Units=1/GPa)
#
#
# Indices 1 2 3 4 5 6 
#
# 1 0.023445 -0.005240 -0.000666 0.000000 0.000000 0.000000
# 2 -0.005240 0.011083 -0.005224 0.000000 0.000000 0.000000
# 3 -0.000666 -0.005224 0.012718 0.000000 0.000000 0.000000
# 4 0.000000 0.000000 0.000000 0.028693 0.000000 0.000000
# 5 0.000000 0.000000 0.000000 0.000000 0.046738 0.000000
# 6 0.000000 0.000000 0.000000 0.000000 0.000000 0.042730
#
#
# Mechanical properties :
#
#
# Convention : Reuss Voigt Hill
#
# Bulk Modulus (GPa) = 40.02333 54.01005 47.01669
# Shear Modulus (GPa) = 25.51073 28.03455 26.77264
#
# Velocity S-wave (km/s) = 3.63155 3.80695 3.72028
# Velocity P-wave (km/s) = 6.18666 6.87350 6.53911
#
# Compressibility (1/GPa) = 0.02498543
#
# Stress axis : x y z
#
# Youngs Moduli (GPa) = 42.65332 90.22600 78.62733
#
# Poissons Ratio (x) = 0.47279 0.05237
# Poissons Ratio (y) = 0.22350 0.41078
# Poissons Ratio (z) = 0.02841 0.47138
#
# Static dielectric constant tensor:
#      x y z
#    x 3.119950 0.000000 0.000000 
#    y 0.000000 4.016660 0.000000 
#    z 0.000000 0.000000 3.626860 
# 
# 
# High freq. dielectric constant tensor:
#      x y z
#    x 1.707430 0.000000 0.000000 
#    y 0.000000 1.774570 0.000000 
#    z 0.000000 0.000000 1.758220 
# 
# From -- ./inp_files/9651.got.cif
#   From: 2010.03.12/outbox.cif.g09.slc.cpg/sg42_5_cif.got.tgz:9651.got - 2010.04.14 02:04:31.
