data_PCOD8186849
_publ_section_title
;
Structure prediction by ZEFSAII (Michael W. Deem and Ramdas Pophale) SiO2 
 PCOD8186849
Probable space group: F M M 2
;
_chemical_formula_sum "Si O2"
_cell_formula_units_Z 112
_cell_length_a 17.130651
_cell_length_b 20.080716
_cell_length_c 17.121505
_cell_angle_alpha 90.000000
_cell_angle_beta 90.000000
_cell_angle_gamma 90.000000
_cell_volume 5889.724742
_symmetry_space_group_name_H-M "F M M 2"
_symmetry_group_IT_number 42
_symmetry_cell_setting 'orthorhombic'
loop_
_space_group_symop_operation_xyz
x,y,z
-x,-y,z
-x,y,z
x,-y,z
x,1/2+y,1/2+z
-x,1/2-y,1/2+z
-x,1/2+y,1/2+z
x,1/2-y,1/2+z
1/2+x,y,1/2+z
1/2-x,-y,1/2+z
1/2-x,y,1/2+z
1/2+x,-y,1/2+z
1/2+x,1/2+y,z
1/2-x,1/2-y,z
1/2-x,1/2+y,z
1/2+x,1/2-y,z
loop_
_atom_site_type_symbol
_atom_site_label
_atom_site_fract_x
_atom_site_fract_y
_atom_site_fract_z
Si Si1 0.090388 0.425168 0.779990
Si Si2 0.192248 0.924876 0.130871
Si Si3 0.592004 0.315662 0.394386
Si Si4 0.412841 0.274164 0.556186
Si Si5 0.913178 0.876071 0.999362
Si Si6 0.197426 0.312356 0.192053
Si Si7 0.590902 0.171837 0.332003
O O1 0.104193 0.500000 0.809865
O O2 0.127362 0.412263 0.696332
O O3 0.128592 0.376565 0.844888
O O4 0.000000 0.408167 0.769264
O O5 0.151319 0.917851 0.046329
O O6 0.258949 0.870647 0.144985
O O7 0.226588 0.000000 0.136427
O O8 0.500000 0.323674 0.402769
O O9 0.624993 0.315391 0.483223
O O10 0.611846 0.248103 0.349897
O O11 0.500000 0.299679 0.574964
O O12 0.415152 0.198131 0.531109
O O13 0.363030 0.279887 0.633056
O O14 0.000000 0.907631 0.009501
O O15 0.891489 0.874589 0.907128
O O16 0.250000 0.250000 0.221015
O O17 0.150191 0.347711 0.262577
O O18 0.500000 0.164322 0.306981
#
# Coordination Sequence:
#
# PCOD8186849 Si02
#       7
#    16  16  16  16  16  16  16
#     4   9  17  31  53  79 109 146 184 223 276 343
#     4  11  23  38  53  82 121 150 182 232 287 341
#     4   8  15  30  52  81 109 136 177 236 282 316
#     4   9  18  34  57  82 111 143 189 240 276 321
#     4   9  18  37  61  85 110 145 189 236 283 333
#     4  12  22  36  55  86 115 155 190 226 286 346
#     4   9  19  36  59  83 109 143 194 245 281 324
#
# _framework density 19.016169000000001
#
# number of rings (size 3 to 8) (size 9 to 14) (size 15 to 20)
#    0.000    2.429    1.429    3.429    0.000    0.857 
#    7.714    1.429    0.000    3.429    0.000    0.000 
#    0.000    0.000    0.000    0.000    0.000    0.000 
#
# Total GULP energy -347056.685264 kJ/mol
# GULP energy per Si atom -12394.881617 kJ/mol
# Density = 1.897289 g / cm^3
# Si number density = 19.016169 Si / 1000 Ang^3
#
#
#
# Elastic Constant Matrix: (Units=GPa)
#
#
# Indices 1 2 3 4 5 6 
#
# 1 66.6231 18.5477 39.5453 0.0000 0.0000 0.0000
# 2 18.5477 51.1857 14.8068 0.0000 0.0000 0.0000
# 3 39.5453 14.8068 99.1087 0.0000 0.0000 0.0000
# 4 0.0000 0.0000 0.0000 26.8697 0.0000 0.0000
# 5 0.0000 0.0000 0.0000 0.0000 22.1552 0.0000
# 6 0.0000 0.0000 0.0000 0.0000 0.0000 17.1046
#
#
#
# Elastic Compliance Matrix: (Units=1/GPa)
#
#
# Indices 1 2 3 4 5 6 
#
# 1 0.021016 -0.005424 -0.007575 0.000000 0.000000 0.000000
# 2 -0.005424 0.021819 -0.001095 0.000000 0.000000 0.000000
# 3 -0.007575 -0.001095 0.013276 0.000000 0.000000 0.000000
# 4 0.000000 0.000000 0.000000 0.037217 0.000000 0.000000
# 5 0.000000 0.000000 0.000000 0.000000 0.045136 0.000000
# 6 0.000000 0.000000 0.000000 0.000000 0.000000 0.058464
#
#
# Mechanical properties :
#
#
# Convention : Reuss Voigt Hill
#
# Bulk Modulus (GPa) = 35.81439 40.30189 38.05814
# Shear Modulus (GPa) = 21.32871 22.82706 22.07788
#
# Velocity S-wave (km/s) = 3.35268 3.46844 3.41105
# Velocity P-wave (km/s) = 5.81909 6.10570 5.96412
#
# Compressibility (1/GPa) = 0.02792174
#
# Stress axis : x y z
#
# Youngs Moduli (GPa) = 47.58192 45.83144 75.32244
#
# Poissons Ratio (x) = 0.24860 0.57060
# Poissons Ratio (y) = 0.25809 0.08251
# Poissons Ratio (z) = 0.36045 0.05021
#
# Static dielectric constant tensor:
#      x y z
#    x 3.391040 0.000000 0.000000 
#    y 0.000000 3.366250 0.000000 
#    z 0.000000 0.000000 3.768080 
# 
# 
# High freq. dielectric constant tensor:
#      x y z
#    x 1.720560 0.000000 0.000000 
#    y 0.000000 1.714040 0.000000 
#    z 0.000000 0.000000 1.746980 
# 
# From -- ./inp_files/21062.got.cif
#   From: 2010.03.12/outbox.cif.g09.slc.cpg/sg42_11_cif.got.tgz:21062.got - 2010.04.14 02:04:31.
