data_PCOD8186533
_publ_section_title
;
Structure prediction by ZEFSAII (Michael W. Deem and Ramdas Pophale) SiO2 
 PCOD8186533
Probable space group: F M M 2
;
_chemical_formula_sum "Si O2"
_cell_formula_units_Z 96
_cell_length_a 23.416198
_cell_length_b 13.700498
_cell_length_c 13.783784
_cell_angle_alpha 90.000000
_cell_angle_beta 90.000000
_cell_angle_gamma 90.000000
_cell_volume 4422.025006
_symmetry_space_group_name_H-M "F M M 2"
_symmetry_group_IT_number 42
_symmetry_cell_setting 'orthorhombic'
loop_
_space_group_symop_operation_xyz
x,y,z
-x,-y,z
-x,y,z
x,-y,z
x,1/2+y,1/2+z
-x,1/2-y,1/2+z
-x,1/2+y,1/2+z
x,1/2-y,1/2+z
1/2+x,y,1/2+z
1/2-x,-y,1/2+z
1/2-x,y,1/2+z
1/2+x,-y,1/2+z
1/2+x,1/2+y,z
1/2-x,1/2-y,z
1/2-x,1/2+y,z
1/2+x,1/2-y,z
loop_
_atom_site_type_symbol
_atom_site_label
_atom_site_fract_x
_atom_site_fract_y
_atom_site_fract_z
Si Si1 0.172066 0.888758 0.523650
Si Si2 0.062772 0.710000 0.944021
Si Si3 0.604683 0.613430 0.042075
Si Si4 0.215892 0.614402 0.428300
Si Si5 0.844920 0.888546 0.737529
Si Si6 0.934218 0.773613 0.224868
O O1 0.111529 0.836876 0.509855
O O2 0.222772 0.838626 0.459664
O O3 0.190024 0.881936 0.636799
O O4 0.163567 0.000000 0.491864
O O5 0.071700 0.681802 0.832269
O O6 0.000000 0.673139 0.976898
O O7 0.065997 0.826744 0.964800
O O8 0.588074 0.500000 0.034160
O O9 0.595142 0.650250 0.151701
O O10 0.670655 0.633391 0.014252
O O11 0.226613 0.500000 0.416828
O O12 0.193463 0.656353 0.325095
O O13 0.903699 0.830659 0.724606
O O14 0.861412 0.000000 0.762933
O O15 0.000000 0.757699 0.195370
#
# Coordination Sequence:
#
# PCOD8186533 Si02
#       6
#    16  16  16  16  16  16
#     4  10  22  40  65  95 129 168 209 268 336 392
#     4  11  24  41  62  93 131 169 218 269 323 397
#     4  11  23  42  66  93 131 177 220 268 327 389
#     4   9  20  40  65  95 129 166 217 269 322 395
#     4  10  20  39  64  93 128 168 216 272 329 389
#     4  11  24  41  61  94 131 167 221 276 322 386
#
# _framework density 21.709512
#
# number of rings (size 3 to 8) (size 9 to 14) (size 15 to 20)
#    0.000    1.667    3.333    0.500    0.000    4.667 
#    0.000   10.000    0.000    0.000    0.000    0.000 
#    0.000    0.000    0.000    0.000    0.000    0.000 
#
# Total GULP energy -297522.539983 kJ/mol
# GULP energy per Si atom -12396.772499 kJ/mol
# Density = 2.166010 g / cm^3
# Si number density = 21.709512 Si / 1000 Ang^3
#
#
#
# Elastic Constant Matrix: (Units=GPa)
#
#
# Indices 1 2 3 4 5 6 
#
# 1 158.8624 52.6942 71.9290 0.0000 0.0000 0.0000
# 2 52.6942 61.6798 45.4753 0.0000 0.0000 0.0000
# 3 71.9290 45.4753 154.3661 0.0000 0.0000 0.0000
# 4 0.0000 0.0000 0.0000 30.5002 0.0000 0.0000
# 5 0.0000 0.0000 0.0000 0.0000 29.6150 0.0000
# 6 0.0000 0.0000 0.0000 0.0000 0.0000 22.9405
#
#
#
# Elastic Compliance Matrix: (Units=1/GPa)
#
#
# Indices 1 2 3 4 5 6 
#
# 1 0.009543 -0.006227 -0.002612 0.000000 0.000000 0.000000
# 2 -0.006227 0.024774 -0.004397 0.000000 0.000000 0.000000
# 3 -0.002612 -0.004397 0.008991 0.000000 0.000000 0.000000
# 4 0.000000 0.000000 0.000000 0.032787 0.000000 0.000000
# 5 0.000000 0.000000 0.000000 0.000000 0.033767 0.000000
# 6 0.000000 0.000000 0.000000 0.000000 0.000000 0.043591
#
#
# Mechanical properties :
#
#
# Convention : Reuss Voigt Hill
#
# Bulk Modulus (GPa) = 59.39697 79.45613 69.42655
# Shear Modulus (GPa) = 26.94901 30.26514 28.60707
#
# Velocity S-wave (km/s) = 3.52710 3.73781 3.63398
# Velocity P-wave (km/s) = 6.63374 7.43690 7.04677
#
# Compressibility (1/GPa) = 0.01683588
#
# Stress axis : x y z
#
# Youngs Moduli (GPa) = 104.78981 40.36483 111.22683
#
# Poissons Ratio (x) = 0.25134 0.29056
# Poissons Ratio (y) = 0.65249 0.48905
# Poissons Ratio (z) = 0.27374 0.17748
#
# Static dielectric constant tensor:
#      x y z
#    x 3.961700 0.000000 0.000000 
#    y 0.000000 3.817720 0.000000 
#    z 0.000000 0.000000 4.211940 
# 
# 
# High freq. dielectric constant tensor:
#      x y z
#    x 1.849060 0.000000 0.000000 
#    y 0.000000 1.842210 0.000000 
#    z 0.000000 0.000000 1.865680 
# 
# From -- ./inp_files/15844.got.cif
#   From: 2010.03.12/outbox.cif.g09.slc.cpg/sg42_8_cif.got.tgz:15844.got - 2010.04.14 02:04:31.
