data_PCOD8186400
_publ_section_title
;
Structure prediction by ZEFSAII (Michael W. Deem and Ramdas Pophale) SiO2 
 PCOD8186400
Probable space group: F M M 2
;
_chemical_formula_sum "Si O2"
_cell_formula_units_Z 96
_cell_length_a 22.679620
_cell_length_b 17.385182
_cell_length_c 12.834692
_cell_angle_alpha 90.000000
_cell_angle_beta 90.000000
_cell_angle_gamma 90.000000
_cell_volume 5060.581999
_symmetry_space_group_name_H-M "F M M 2"
_symmetry_group_IT_number 42
_symmetry_cell_setting 'orthorhombic'
loop_
_space_group_symop_operation_xyz
x,y,z
-x,-y,z
-x,y,z
x,-y,z
x,1/2+y,1/2+z
-x,1/2-y,1/2+z
-x,1/2+y,1/2+z
x,1/2-y,1/2+z
1/2+x,y,1/2+z
1/2-x,-y,1/2+z
1/2-x,y,1/2+z
1/2+x,-y,1/2+z
1/2+x,1/2+y,z
1/2-x,1/2-y,z
1/2-x,1/2+y,z
1/2+x,1/2-y,z
loop_
_atom_site_type_symbol
_atom_site_label
_atom_site_fract_x
_atom_site_fract_y
_atom_site_fract_z
Si Si1 0.568666 0.832309 0.902270
Si Si2 0.881773 0.304164 0.525819
Si Si3 0.193490 0.697601 0.158301
Si Si4 0.320045 0.411982 0.480750
Si Si5 0.779306 0.331784 0.381177
Si Si6 0.568289 0.413315 0.189874
O O1 0.500000 0.851064 0.925939
O O2 0.612200 0.886491 0.967574
O O3 0.585565 0.853641 0.782654
O O4 0.581844 0.743638 0.936619
O O5 0.862573 0.245791 0.617927
O O6 0.826107 0.345353 0.472797
O O7 0.917724 0.373197 0.579255
O O8 0.250000 0.750000 0.166215
O O9 0.184155 0.662985 0.273639
O O10 0.207685 0.628036 0.081588
O O11 0.320334 0.500000 0.503966
O O12 0.275387 0.392121 0.385194
O O13 0.750000 0.250000 0.402714
O O14 0.500000 0.427850 0.194495
O O15 0.597644 0.500000 0.200469
#
# Coordination Sequence:
#
# PCOD8186400 Si02
#       6
#    16  16  16  16  16  16
#     4  10  21  38  58  81 113 154 197 238 282 336
#     4  11  19  36  60  88 108 153 189 236 281 350
#     4  10  20  36  55  79 114 144 183 228 274 339
#     4  11  22  36  54  82 115 148 186 230 284 343
#     4  11  20  36  57  82 111 145 179 226 284 340
#     4  10  22  38  57  87 120 148 190 247 294 334
#
# _framework density 18.970151000000001
#
# number of rings (size 3 to 8) (size 9 to 14) (size 15 to 20)
#    0.000    1.500    5.000    2.000    2.333    2.333 
#    0.000    0.000    0.000    1.000    0.000    0.000 
#    0.000    0.000    0.000    0.000    0.000    0.000 
#
# Total GULP energy -297365.939148 kJ/mol
# GULP energy per Si atom -12390.247464 kJ/mol
# Density = 1.892697 g / cm^3
# Si number density = 18.970151 Si / 1000 Ang^3
#
#
#
# Elastic Constant Matrix: (Units=GPa)
#
#
# Indices 1 2 3 4 5 6 
#
# 1 68.3791 24.4385 31.4324 0.0000 0.0000 0.0000
# 2 24.4385 97.2317 39.3136 0.0000 0.0000 0.0000
# 3 31.4324 39.3136 104.9260 0.0000 0.0000 0.0000
# 4 0.0000 0.0000 0.0000 7.5462 0.0000 0.0000
# 5 0.0000 0.0000 0.0000 0.0000 28.0328 0.0000
# 6 0.0000 0.0000 0.0000 0.0000 0.0000 20.3458
#
#
#
# Elastic Compliance Matrix: (Units=1/GPa)
#
#
# Indices 1 2 3 4 5 6 
#
# 1 0.017538 -0.002691 -0.004245 0.000000 0.000000 0.000000
# 2 -0.002691 0.012534 -0.003890 0.000000 0.000000 0.000000
# 3 -0.004245 -0.003890 0.012260 0.000000 0.000000 0.000000
# 4 0.000000 0.000000 0.000000 0.132517 0.000000 0.000000
# 5 0.000000 0.000000 0.000000 0.000000 0.035673 0.000000
# 6 0.000000 0.000000 0.000000 0.000000 0.000000 0.049150
#
#
# Mechanical properties :
#
#
# Convention : Reuss Voigt Hill
#
# Bulk Modulus (GPa) = 48.36042 51.21173 49.78608
# Shear Modulus (GPa) = 17.34799 22.87511 20.11155
#
# Velocity S-wave (km/s) = 3.02733 3.47630 3.25955
# Velocity P-wave (km/s) = 6.14556 6.57019 6.36142
#
# Compressibility (1/GPa) = 0.02067807
#
# Stress axis : x y z
#
# Youngs Moduli (GPa) = 57.01985 79.78286 81.56773
#
# Poissons Ratio (x) = 0.21474 0.34628
# Poissons Ratio (y) = 0.15347 0.31729
# Poissons Ratio (z) = 0.24207 0.31035
#
# Static dielectric constant tensor:
#      x y z
#    x 4.439260 0.000000 0.000000 
#    y 0.000000 3.508080 0.000000 
#    z 0.000000 0.000000 3.831140 
# 
# 
# High freq. dielectric constant tensor:
#      x y z
#    x 1.732050 0.000000 0.000000 
#    y 0.000000 1.718580 0.000000 
#    z 0.000000 0.000000 1.738040 
# 
# From -- ./inp_files/8822.got.cif
#   From: 2010.03.12/outbox.cif.g09.slc.cpg/sg42_5_cif.got.tgz:8822.got - 2010.04.14 02:04:31.
