data_PCOD8186289
_publ_section_title
;
Structure prediction by ZEFSAII (Michael W. Deem and Ramdas Pophale) SiO2 
 PCOD8186289
Probable space group: F M M 2
;
_chemical_formula_sum "Si O2"
_cell_formula_units_Z 112
_cell_length_a 28.744995
_cell_length_b 11.719770
_cell_length_c 17.220813
_cell_angle_alpha 90.000000
_cell_angle_beta 90.000000
_cell_angle_gamma 90.000000
_cell_volume 5801.428939
_symmetry_space_group_name_H-M "F M M 2"
_symmetry_group_IT_number 42
_symmetry_cell_setting 'orthorhombic'
loop_
_space_group_symop_operation_xyz
x,y,z
-x,-y,z
-x,y,z
x,-y,z
x,1/2+y,1/2+z
-x,1/2-y,1/2+z
-x,1/2+y,1/2+z
x,1/2-y,1/2+z
1/2+x,y,1/2+z
1/2-x,-y,1/2+z
1/2-x,y,1/2+z
1/2+x,-y,1/2+z
1/2+x,1/2+y,z
1/2-x,1/2-y,z
1/2-x,1/2+y,z
1/2+x,1/2-y,z
loop_
_atom_site_type_symbol
_atom_site_label
_atom_site_fract_x
_atom_site_fract_y
_atom_site_fract_z
Si Si1 0.449597 0.129314 0.856180
Si Si2 0.626433 0.866645 0.580760
Si Si3 0.221116 0.868376 0.479625
Si Si4 0.368914 0.374099 0.764765
Si Si5 0.298166 0.205418 0.147117
Si Si6 0.365177 0.753394 0.920884
Si Si7 0.445445 0.774059 0.694411
O O1 0.500000 0.186126 0.869600
O O2 0.415778 0.192523 0.914649
O O3 0.437797 0.135983 0.764391
O O4 0.449625 0.000000 0.882016
O O5 0.669205 0.813296 0.627942
O O6 0.632449 0.837135 0.490358
O O7 0.577098 0.823361 0.615378
O O8 0.629971 0.000000 0.591153
O O9 0.250000 0.750000 0.457585
O O10 0.213771 0.869293 0.571634
O O11 0.171980 0.853703 0.436427
O O12 0.240298 0.000000 0.458774
O O13 0.378786 0.500000 0.794650
O O14 0.325062 0.374350 0.707114
O O15 0.353068 0.302530 0.838997
O O16 0.416476 0.336645 0.721697
O O17 0.250000 0.250000 0.184642
O O18 0.500000 0.745811 0.679599
#
# Coordination Sequence:
#
# PCOD8186289 Si02
#       7
#    16  16  16  16  16  16  16
#     4   9  17  32  54  75  98 132 172 216 264 314
#     4  10  20  34  53  78 107 140 180 225 276 334
#     4  10  21  37  58  82 110 148 191 235 283 334
#     4  10  20  35  55  79 109 145 182 223 276 335
#     4   9  20  36  56  79 104 139 183 232 279 329
#     4  10  21  34  51  79 114 144 174 217 273 336
#     4   9  19  35  54  77 102 134 182 230 273 324
#
# _framework density 19.305589000000001
#
# number of rings (size 3 to 8) (size 9 to 14) (size 15 to 20)
#    0.000    2.429    0.000    1.714    0.000    8.571 
#    0.000    1.429    0.000    2.571    0.000    0.000 
#    0.000    0.000    0.000    0.000    0.000    0.000 
#
# Total GULP energy -346919.300804 kJ/mol
# GULP energy per Si atom -12389.975029 kJ/mol
# Density = 1.926165 g / cm^3
# Si number density = 19.305589 Si / 1000 Ang^3
#
#
#
# Elastic Constant Matrix: (Units=GPa)
#
#
# Indices 1 2 3 4 5 6 
#
# 1 120.8413 34.4674 24.5491 0.0000 0.0000 0.0000
# 2 34.4674 106.5046 15.5389 0.0000 0.0000 0.0000
# 3 24.5491 15.5389 51.8310 0.0000 0.0000 0.0000
# 4 0.0000 0.0000 0.0000 12.8491 0.0000 0.0000
# 5 0.0000 0.0000 0.0000 0.0000 30.2718 0.0000
# 6 0.0000 0.0000 0.0000 0.0000 0.0000 18.4115
#
#
#
# Elastic Compliance Matrix: (Units=1/GPa)
#
#
# Indices 1 2 3 4 5 6 
#
# 1 0.009804 -0.002609 -0.003861 0.000000 0.000000 0.000000
# 2 -0.002609 0.010513 -0.001916 0.000000 0.000000 0.000000
# 3 -0.003861 -0.001916 0.021697 0.000000 0.000000 0.000000
# 4 0.000000 0.000000 0.000000 0.077827 0.000000 0.000000
# 5 0.000000 0.000000 0.000000 0.000000 0.033034 0.000000
# 6 0.000000 0.000000 0.000000 0.000000 0.000000 0.054314
#
#
# Mechanical properties :
#
#
# Convention : Reuss Voigt Hill
#
# Bulk Modulus (GPa) = 39.61850 47.58752 43.60301
# Shear Modulus (GPa) = 21.51690 25.94791 23.73240
#
# Velocity S-wave (km/s) = 3.34210 3.67012 3.50994
# Velocity P-wave (km/s) = 5.95476 6.53168 6.24988
#
# Compressibility (1/GPa) = 0.02524073
#
# Stress axis : x y z
#
# Youngs Moduli (GPa) = 101.99892 95.11781 46.08994
#
# Poissons Ratio (x) = 0.24821 0.17796
# Poissons Ratio (y) = 0.26616 0.08831
# Poissons Ratio (z) = 0.39384 0.18224
#
# Static dielectric constant tensor:
#      x y z
#    x 3.746260 0.000000 0.000000 
#    y 0.000000 3.468410 0.000000 
#    z 0.000000 0.000000 3.436810 
# 
# 
# High freq. dielectric constant tensor:
#      x y z
#    x 1.758110 0.000000 0.000000 
#    y 0.000000 1.743350 0.000000 
#    z 0.000000 0.000000 1.741110 
# 
# From -- ./inp_files/13228.got.cif
#   From: 2010.03.12/outbox.cif.g09.slc.cpg/sg42_7_cif.got.tgz:13228.got - 2010.04.14 02:04:31.
