data_PCOD8186634
_publ_section_title
;
Structure prediction by ZEFSAII (Michael W. Deem and Ramdas Pophale) SiO2 
 PCOD8186634
Probable space group: F M M 2
;
_chemical_formula_sum "Si O2"
_cell_formula_units_Z 96
_cell_length_a 18.493003
_cell_length_b 8.676727
_cell_length_c 30.527343
_cell_angle_alpha 90.000000
_cell_angle_beta 90.000000
_cell_angle_gamma 90.000000
_cell_volume 4898.378946
_symmetry_space_group_name_H-M "F M M 2"
_symmetry_group_IT_number 42
_symmetry_cell_setting 'orthorhombic'
loop_
_space_group_symop_operation_xyz
x,y,z
-x,-y,z
-x,y,z
x,-y,z
x,1/2+y,1/2+z
-x,1/2-y,1/2+z
-x,1/2+y,1/2+z
x,1/2-y,1/2+z
1/2+x,y,1/2+z
1/2-x,-y,1/2+z
1/2-x,y,1/2+z
1/2+x,-y,1/2+z
1/2+x,1/2+y,z
1/2-x,1/2-y,z
1/2-x,1/2+y,z
1/2+x,1/2-y,z
loop_
_atom_site_type_symbol
_atom_site_label
_atom_site_fract_x
_atom_site_fract_y
_atom_site_fract_z
Si Si1 0.916270 0.321763 0.129760
Si Si2 0.328918 0.181635 0.216289
Si Si3 0.417071 0.818518 0.795732
Si Si4 0.673435 0.180965 0.962149
Si Si5 0.914618 0.674562 0.386744
Si Si6 0.673115 0.319097 0.054502
O O1 0.903552 0.500000 0.118099
O O2 0.875113 0.275069 0.173782
O O3 0.887278 0.219262 0.090131
O O4 0.000000 0.283632 0.136998
O O5 0.250000 0.250000 0.209501
O O6 0.366439 0.259991 0.257384
O O7 0.324816 0.000000 0.224078
O O8 0.500000 0.771029 0.785816
O O9 0.388796 0.739825 0.840141
O O10 0.409156 0.000000 0.801152
O O11 0.750000 0.250000 0.947695
O O12 0.615697 0.219696 0.925180
O O13 0.680883 0.000000 0.967975
O O14 0.647319 0.251509 0.008141
O O15 0.886267 0.500000 0.391775
O O16 0.000000 0.683336 0.390188
O O17 0.682166 0.500000 0.049746
O O18 0.750000 0.250000 0.069336
#
# Coordination Sequence:
#
# PCOD8186634 Si02
#       6
#    16  16  16  16  16  16
#     4  10  22  40  61  86 116 150 189 234 285 340
#     4  11  23  39  60  86 116 151 191 235 285 339
#     4  10  21  38  60  86 116 150 190 236 286 339
#     4  11  22  38  60  85 116 152 192 237 286 339
#     4  10  21  38  60  86 117 152 191 235 284 339
#     4  11  22  38  60  85 115 151 192 236 285 339
#
# _framework density 19.598320000000001
#
# number of rings (size 3 to 8) (size 9 to 14) (size 15 to 20)
#    0.000    1.500    0.000    6.500    0.000    7.000 
#    0.000    3.333    0.000    0.000    0.000    0.000 
#    0.000    0.000    0.000    0.000    0.000    0.000 
#
# Total GULP energy -297748.213682 kJ/mol
# GULP energy per Si atom -12406.175570 kJ/mol
# Density = 1.955371 g / cm^3
# Si number density = 19.598320 Si / 1000 Ang^3
#
#
#
# Elastic Constant Matrix: (Units=GPa)
#
#
# Indices 1 2 3 4 5 6 
#
# 1 96.7064 46.1524 66.9919 0.0000 0.0000 0.0000
# 2 46.1524 130.5799 54.3840 0.0000 0.0000 0.0000
# 3 66.9919 54.3840 132.4543 0.0000 0.0000 0.0000
# 4 0.0000 0.0000 0.0000 36.2439 0.0000 0.0000
# 5 0.0000 0.0000 0.0000 0.0000 42.9819 0.0000
# 6 0.0000 0.0000 0.0000 0.0000 0.0000 31.7469
#
#
#
# Elastic Compliance Matrix: (Units=1/GPa)
#
#
# Indices 1 2 3 4 5 6 
#
# 1 0.016775 -0.002890 -0.007298 0.000000 0.000000 0.000000
# 2 -0.002890 0.009736 -0.002536 0.000000 0.000000 0.000000
# 3 -0.007298 -0.002536 0.012282 0.000000 0.000000 0.000000
# 4 0.000000 0.000000 0.000000 0.027591 0.000000 0.000000
# 5 0.000000 0.000000 0.000000 0.000000 0.023266 0.000000
# 6 0.000000 0.000000 0.000000 0.000000 0.000000 0.031499
#
#
# Mechanical properties :
#
#
# Convention : Reuss Voigt Hill
#
# Bulk Modulus (GPa) = 74.92878 77.19970 76.06424
# Shear Modulus (GPa) = 33.10293 35.00869 34.05581
#
# Velocity S-wave (km/s) = 4.11429 4.23106 4.17308
# Velocity P-wave (km/s) = 7.80289 7.95900 7.88133
#
# Compressibility (1/GPa) = 0.01334601
#
# Stress axis : x y z
#
# Youngs Moduli (GPa) = 59.61177 102.71619 81.41918
#
# Poissons Ratio (x) = 0.29681 0.59420
# Poissons Ratio (y) = 0.17225 0.20647
# Poissons Ratio (z) = 0.43505 0.26047
#
# Static dielectric constant tensor:
#      x y z
#    x 3.509810 0.000000 0.000000 
#    y 0.000000 3.724670 0.000000 
#    z 0.000000 0.000000 3.652900 
# 
# 
# High freq. dielectric constant tensor:
#      x y z
#    x 1.761550 0.000000 0.000000 
#    y 0.000000 1.778620 0.000000 
#    z 0.000000 0.000000 1.776680 
# 
# From -- ./inp_files/31457.got.cif
#   From: 2010.03.12/outbox.cif.g09.slc.cpg/sg42_16_cif.got.tgz:31457.got - 2010.04.14 02:04:31.
