data_PCOD8186679
_publ_section_title
;
Structure prediction by ZEFSAII (Michael W. Deem and Ramdas Pophale) SiO2 
 PCOD8186679
Probable space group: F M M 2
;
_chemical_formula_sum "Si O2"
_cell_formula_units_Z 96
_cell_length_a 23.823621
_cell_length_b 14.494254
_cell_length_c 14.097027
_cell_angle_alpha 90.000000
_cell_angle_beta 90.000000
_cell_angle_gamma 90.000000
_cell_volume 4867.782563
_symmetry_space_group_name_H-M "F M M 2"
_symmetry_group_IT_number 42
_symmetry_cell_setting 'orthorhombic'
loop_
_space_group_symop_operation_xyz
x,y,z
-x,-y,z
-x,y,z
x,-y,z
x,1/2+y,1/2+z
-x,1/2-y,1/2+z
-x,1/2+y,1/2+z
x,1/2-y,1/2+z
1/2+x,y,1/2+z
1/2-x,-y,1/2+z
1/2-x,y,1/2+z
1/2+x,-y,1/2+z
1/2+x,1/2+y,z
1/2-x,1/2-y,z
1/2-x,1/2+y,z
1/2+x,1/2-y,z
loop_
_atom_site_type_symbol
_atom_site_label
_atom_site_fract_x
_atom_site_fract_y
_atom_site_fract_z
Si Si1 0.826383 0.000000 0.978621
Si Si2 0.737341 0.357388 0.524154
Si Si3 0.114422 0.609568 0.977321
Si Si4 0.874535 0.000000 0.788061
Si Si5 0.862326 0.500000 0.690235
Si Si6 0.761939 0.500000 0.187632
Si Si7 0.563827 0.654923 0.676533
Si Si8 0.063434 0.652514 0.781527
O O1 0.876344 0.000000 0.901977
O O2 0.788167 0.907780 0.968758
O O3 0.858965 0.000000 0.077479
O O4 0.750000 0.250000 0.539978
O O5 0.680332 0.370122 0.464472
O O6 0.729694 0.407836 0.625082
O O7 0.102377 0.500000 0.978440
O O8 0.093178 0.656211 0.074235
O O9 0.081970 0.658554 0.891194
O O10 0.808033 0.000000 0.768457
O O11 0.904227 0.911318 0.747522
O O12 0.799677 0.500000 0.734880
O O13 0.894567 0.411085 0.724605
O O14 0.500000 0.621691 0.662968
O O15 0.567066 0.751804 0.727829
O O16 0.000000 0.613931 0.778111
#
# Coordination Sequence:
#
# PCOD8186679 Si02
#       8
#     8  16  16   8   8   8  16  16
#     4  10  26  40  56  94 134 168 210 259 312 415
#     4  10  21  40  62  91 129 167 213 261 327 388
#     4  12  22  43  71  97 128 172 221 282 327 380
#     4  12  23  41  64  93 134 173 218 265 333 388
#     4  10  23  42  64  89 134 172 205 275 325 378
#     4  10  22  39  61  98 125 165 217 263 318 403
#     4  11  25  43  65  97 131 170 223 276 325 387
#     4  11  26  43  67  99 126 168 230 271 322 393
#
# _framework density 19.721506000000002
#
# number of rings (size 3 to 8) (size 9 to 14) (size 15 to 20)
#    0.000    1.333    5.000    1.000    9.333    0.667 
#    0.000    4.167    0.000    0.000    0.000    0.000 
#    0.000    0.000    0.000    0.000    0.000    0.000 
#
# Total GULP energy -297610.192879 kJ/mol
# GULP energy per Si atom -12400.424703 kJ/mol
# Density = 1.967662 g / cm^3
# Si number density = 19.721506 Si / 1000 Ang^3
#
#
#
# Elastic Constant Matrix: (Units=GPa)
#
#
# Indices 1 2 3 4 5 6 
#
# 1 120.8226 40.7260 46.9475 0.0000 0.0000 0.0000
# 2 40.7260 112.1498 38.2569 0.0000 0.0000 0.0000
# 3 46.9475 38.2569 119.9609 0.0000 0.0000 0.0000
# 4 0.0000 0.0000 0.0000 23.2878 0.0000 0.0000
# 5 0.0000 0.0000 0.0000 0.0000 34.2425 0.0000
# 6 0.0000 0.0000 0.0000 0.0000 0.0000 59.6192
#
#
#
# Elastic Compliance Matrix: (Units=1/GPa)
#
#
# Indices 1 2 3 4 5 6 
#
# 1 0.010437 -0.002689 -0.003227 0.000000 0.000000 0.000000
# 2 -0.002689 0.010698 -0.002359 0.000000 0.000000 0.000000
# 3 -0.003227 -0.002359 0.010351 0.000000 0.000000 0.000000
# 4 0.000000 0.000000 0.000000 0.042941 0.000000 0.000000
# 5 0.000000 0.000000 0.000000 0.000000 0.029203 0.000000
# 6 0.000000 0.000000 0.000000 0.000000 0.000000 0.016773
#
#
# Mechanical properties :
#
#
# Convention : Reuss Voigt Hill
#
# Bulk Modulus (GPa) = 66.95517 67.19935 67.07726
# Shear Modulus (GPa) = 35.22782 38.56342 36.89562
#
# Velocity S-wave (km/s) = 4.23101 4.42679 4.33000
# Velocity P-wave (km/s) = 7.60872 7.76381 7.68665
#
# Compressibility (1/GPa) = 0.01493537
#
# Stress axis : x y z
#
# Youngs Moduli (GPa) = 95.81341 93.47518 96.60603
#
# Poissons Ratio (x) = 0.25138 0.31174
# Poissons Ratio (y) = 0.25767 0.22792
# Poissons Ratio (z) = 0.30918 0.22053
#
# Static dielectric constant tensor:
#      x y z
#    x 3.921750 0.000000 0.000000 
#    y 0.000000 3.412930 0.000000 
#    z 0.000000 0.000000 3.567360 
# 
# 
# High freq. dielectric constant tensor:
#      x y z
#    x 1.785020 0.000000 0.000000 
#    y 0.000000 1.769250 0.000000 
#    z 0.000000 0.000000 1.767060 
# 
# From -- ./inp_files/15885.got.cif
#   From: 2010.03.12/outbox.cif.g09.slc.cpg/sg42_8_cif.got.tgz:15885.got - 2010.04.14 02:04:31.
