data_PCOD8186771
_publ_section_title
;
Structure prediction by ZEFSAII (Michael W. Deem and Ramdas Pophale) SiO2 
 PCOD8186771
Probable space group: F M M 2
;
_chemical_formula_sum "Si O2"
_cell_formula_units_Z 56
_cell_length_a 10.131217
_cell_length_b 9.520972
_cell_length_c 26.797006
_cell_angle_alpha 90.000000
_cell_angle_beta 90.000000
_cell_angle_gamma 90.000000
_cell_volume 2584.813296
_symmetry_space_group_name_H-M "F M M 2"
_symmetry_group_IT_number 42
_symmetry_cell_setting 'orthorhombic'
loop_
_space_group_symop_operation_xyz
x,y,z
-x,-y,z
-x,y,z
x,-y,z
x,1/2+y,1/2+z
-x,1/2-y,1/2+z
-x,1/2+y,1/2+z
x,1/2-y,1/2+z
1/2+x,y,1/2+z
1/2-x,-y,1/2+z
1/2-x,y,1/2+z
1/2+x,-y,1/2+z
1/2+x,1/2+y,z
1/2-x,1/2-y,z
1/2-x,1/2+y,z
1/2+x,1/2-y,z
loop_
_atom_site_type_symbol
_atom_site_label
_atom_site_fract_x
_atom_site_fract_y
_atom_site_fract_z
Si Si1 0.000000 0.000000 0.327840
Si Si2 0.500000 0.287099 0.876668
Si Si3 0.750000 0.250000 0.439354
Si Si4 0.153769 0.000000 0.505616
Si Si5 0.750000 0.250000 0.679452
Si Si6 0.711161 0.000000 0.744756
Si Si7 0.000000 0.000000 0.788809
Si Si8 0.852169 0.500000 0.114164
O O1 0.866155 0.000000 0.296277
O O2 0.000000 0.876229 0.366765
O O3 0.365881 0.322507 0.906464
O O4 0.500000 0.364031 0.823627
O O5 0.808300 0.135488 0.475303
O O6 0.225200 0.000000 0.560862
O O7 0.000000 0.000000 0.512878
O O8 0.667437 0.141964 0.714922
O O9 0.668037 0.356357 0.645061
O O10 0.870067 0.000000 0.753570
O O11 0.000000 0.500000 0.097469
#
# Coordination Sequence:
#
# PCOD8186771 Si02
#       8
#     4   8   8   8   8   8   4   8
#     4  12  24  42  60  98 132 172 216 284 312 386
#     4  12  24  40  66  94 134 174 226 264 334 378
#     4  12  23  43  70  96 136 176 216 277 321 400
#     4  11  23  44  67 102 132 173 218 272 330 393
#     4  10  23  41  64  98 122 180 210 269 321 398
#     4  11  24  39  68  90 140 168 225 265 332 379
#     4  12  24  42  60  98 128 180 216 272 320 394
#     4  10  23  42  70  93 135 168 215 273 330 392
#
# _framework density 21.665006999999999
#
# number of rings (size 3 to 8) (size 9 to 14) (size 15 to 20)
#    0.000    0.857    1.429    6.000    6.000    0.000 
#    0.000    0.000    3.143    0.000    0.000    0.000 
#    0.000    0.000    0.000    0.000    0.000    0.000 
#
# Total GULP energy -173493.420069 kJ/mol
# GULP energy per Si atom -12392.387148 kJ/mol
# Density = 2.161570 g / cm^3
# Si number density = 21.665007 Si / 1000 Ang^3
#
#
#
# Elastic Constant Matrix: (Units=GPa)
#
#
# Indices 1 2 3 4 5 6 
#
# 1 107.3322 10.6451 34.2038 0.0000 0.0000 0.0000
# 2 10.6451 151.8617 44.6319 0.0000 0.0000 0.0000
# 3 34.2038 44.6319 122.9291 0.0000 0.0000 0.0000
# 4 0.0000 0.0000 0.0000 62.3718 0.0000 0.0000
# 5 0.0000 0.0000 0.0000 0.0000 40.4375 0.0000
# 6 0.0000 0.0000 0.0000 0.0000 0.0000 13.8530
#
#
#
# Elastic Compliance Matrix: (Units=1/GPa)
#
#
# Indices 1 2 3 4 5 6 
#
# 1 0.010226 0.000134 -0.002894 0.000000 0.000000 0.000000
# 2 0.000134 0.007373 -0.002714 0.000000 0.000000 0.000000
# 3 -0.002894 -0.002714 0.009925 0.000000 0.000000 0.000000
# 4 0.000000 0.000000 0.000000 0.016033 0.000000 0.000000
# 5 0.000000 0.000000 0.000000 0.000000 0.024730 0.000000
# 6 0.000000 0.000000 0.000000 0.000000 0.000000 0.072187
#
#
# Mechanical properties :
#
#
# Convention : Reuss Voigt Hill
#
# Bulk Modulus (GPa) = 60.32879 62.34275 61.33577
# Shear Modulus (GPa) = 31.85784 42.84194 37.34989
#
# Velocity S-wave (km/s) = 3.83884 4.45170 4.15658
# Velocity P-wave (km/s) = 6.89605 7.43383 7.16998
#
# Compressibility (1/GPa) = 0.01657583
#
# Stress axis : x y z
#
# Youngs Moduli (GPa) = 97.79216 135.62506 100.75188
#
# Poissons Ratio (x) = -0.01813 0.29155
# Poissons Ratio (y) = -0.01307 0.27346
# Poissons Ratio (z) = 0.28299 0.36811
#
# Static dielectric constant tensor:
#      x y z
#    x 3.737530 0.000000 0.000000 
#    y 0.000000 4.108110 0.000000 
#    z 0.000000 0.000000 4.165910 
# 
# 
# High freq. dielectric constant tensor:
#      x y z
#    x 1.831570 0.000000 0.000000 
#    y 0.000000 1.868390 0.000000 
#    z 0.000000 0.000000 1.878380 
# 
# From -- ./inp_files/30985.got.cif
#   From: 2010.03.12/outbox.cif.g09.slc.cpg/sg42_16_cif.got.tgz:30985.got - 2010.04.14 02:04:31.
