data_PCOD8186939
_publ_section_title
;
Structure prediction by ZEFSAII (Michael W. Deem and Ramdas Pophale) SiO2 
 PCOD8186939
Probable space group: F D D 2
;
_chemical_formula_sum "Si O2"
_cell_formula_units_Z 88
_cell_length_a 16.894383
_cell_length_b 30.587348
_cell_length_c 8.753128
_cell_angle_alpha 90.000000
_cell_angle_beta 90.000000
_cell_angle_gamma 90.000000
_cell_volume 4523.217163
_symmetry_space_group_name_H-M "F D D 2"
_symmetry_group_IT_number 43
_symmetry_cell_setting 'orthorhombic'
loop_
_space_group_symop_operation_xyz
x,y,z
-x,-y,z
1/4-x,1/4+y,1/4+z
1/4+x,1/4-y,1/4+z
x,1/2+y,1/2+z
-x,1/2-y,1/2+z
1/4-x,3/4+y,3/4+z
1/4+x,3/4-y,3/4+z
1/2+x,y,1/2+z
1/2-x,-y,1/2+z
3/4-x,1/4+y,3/4+z
3/4+x,1/4-y,3/4+z
1/2+x,1/2+y,z
1/2-x,1/2-y,z
3/4-x,3/4+y,1/4+z
3/4+x,3/4-y,1/4+z
loop_
_atom_site_type_symbol
_atom_site_label
_atom_site_fract_x
_atom_site_fract_y
_atom_site_fract_z
Si Si1 0.630313 0.681357 0.215570
Si Si2 0.802726 0.393825 0.546779
Si Si3 0.029279 0.301038 0.830962
Si Si4 0.336809 0.167060 0.021272
Si Si5 0.500000 0.500000 0.895007
Si Si6 0.260017 0.035102 0.254267
O O1 0.672458 0.634711 0.196399
O O2 0.559441 0.677787 0.339321
O O3 0.691462 0.721073 0.253540
O O4 0.593234 0.692040 0.047649
O O5 0.873338 0.401228 0.428804
O O6 0.728788 0.368481 0.470377
O O7 0.780071 0.441171 0.611083
O O8 0.045684 0.284856 0.657107
O O9 0.029373 0.263666 0.957280
O O10 0.098215 0.333716 0.885320
O O11 0.297893 0.215230 0.040134
#
# Coordination Sequence:
#
# PCOD8186939 Si02
#       6
#    16  16  16  16   8  16
#     4   9  20  34  57  85 111 148 192 238 282 342
#     4  11  21  38  59  87 115 157 194 238 294 354
#     4  10  20  37  57  87 112 153 187 248 284 349
#     4  11  21  36  59  85 115 152 196 239 293 349
#     4  10  18  36  58  80 108 152 198 230 280 358
#     4  10  19  36  57  83 115 149 194 234 290 341
#
# _framework density 19.455179999999999
#
# number of rings (size 3 to 8) (size 9 to 14) (size 15 to 20)
#    1.091    0.727    3.636    2.182    0.000    1.455 
#    0.000    0.000    0.000    8.727    0.000    0.000 
#    0.000    0.000    0.000    0.000    0.000    0.000 
#
# Total GULP energy -272574.864171 kJ/mol
# GULP energy per Si atom -12389.766553 kJ/mol
# Density = 1.941090 g / cm^3
# Si number density = 19.455180 Si / 1000 Ang^3
#
#
#
# Elastic Constant Matrix: (Units=GPa)
#
#
# Indices 1 2 3 4 5 6 
#
# 1 113.9326 25.0093 21.3841 0.0000 -0.0001 0.0000
# 2 25.0093 46.8398 22.0231 0.0000 0.0000 0.0000
# 3 21.3841 22.0231 48.3144 0.0000 -0.0001 0.0000
# 4 0.0000 0.0000 0.0000 18.0890 0.0000 0.0000
# 5 -0.0001 0.0000 -0.0001 0.0000 42.7388 0.0000
# 6 0.0000 0.0000 0.0000 0.0000 0.0000 24.6977
#
#
#
# Elastic Compliance Matrix: (Units=1/GPa)
#
#
# Indices 1 2 3 4 5 6 
#
# 1 0.010190 -0.004226 -0.002584 0.000000 0.000000 0.000000
# 2 -0.004226 0.028926 -0.011315 0.000000 0.000000 0.000000
# 3 -0.002584 -0.011315 0.026999 0.000000 0.000000 0.000000
# 4 0.000000 0.000000 0.000000 0.055282 0.000000 0.000000
# 5 0.000000 0.000000 0.000000 0.000000 0.023398 0.000000
# 6 0.000000 0.000000 0.000000 0.000000 0.000000 0.040490
#
#
# Mechanical properties :
#
#
# Convention : Reuss Voigt Hill
#
# Bulk Modulus (GPa) = 33.48331 38.43552 35.95941
# Shear Modulus (GPa) = 21.59941 26.48312 24.04127
#
# Velocity S-wave (km/s) = 3.33560 3.69350 3.51910
# Velocity P-wave (km/s) = 5.66417 6.16344 5.91907
#
# Compressibility (1/GPa) = 0.02986563
#
# Stress axis : x y z
#
# Youngs Moduli (GPa) = 98.13877 34.57145 37.03847
#
# Poissons Ratio (x) = 0.14609 0.09570
# Poissons Ratio (y) = 0.41471 0.41908
# Poissons Ratio (z) = 0.25357 0.39117
#
# Static dielectric constant tensor:
#      x y z
#    x 3.742060 0.000000 0.000000 
#    y 0.000000 3.406190 0.000000 
#    z 0.000000 0.000000 3.027350 
# 
# 
# High freq. dielectric constant tensor:
#      x y z
#    x 1.767390 0.000000 0.000000 
#    y 0.000000 1.758910 0.000000 
#    z 0.000000 0.000000 1.713550 
# 
# From -- ./inp_files/2935.got.cif
#   From: 2010.06.25/outbox.cif.g09.slc.cpg/sg43_2_cif.got.tgz:2935.got - 2010.06.26 16:48:59.
