data_PCOD8186674
_publ_section_title
;
Structure prediction by ZEFSAII (Michael W. Deem and Ramdas Pophale) SiO2 
 PCOD8186674
Probable space group: F M M 2
;
_chemical_formula_sum "Si O2"
_cell_formula_units_Z 88
_cell_length_a 11.693600
_cell_length_b 14.528181
_cell_length_c 23.148412
_cell_angle_alpha 90.000000
_cell_angle_beta 90.000000
_cell_angle_gamma 90.000000
_cell_volume 3932.608189
_symmetry_space_group_name_H-M "F M M 2"
_symmetry_group_IT_number 42
_symmetry_cell_setting 'orthorhombic'
loop_
_space_group_symop_operation_xyz
x,y,z
-x,-y,z
-x,y,z
x,-y,z
x,1/2+y,1/2+z
-x,1/2-y,1/2+z
-x,1/2+y,1/2+z
x,1/2-y,1/2+z
1/2+x,y,1/2+z
1/2-x,-y,1/2+z
1/2-x,y,1/2+z
1/2+x,-y,1/2+z
1/2+x,1/2+y,z
1/2-x,1/2-y,z
1/2-x,1/2+y,z
1/2+x,1/2-y,z
loop_
_atom_site_type_symbol
_atom_site_label
_atom_site_fract_x
_atom_site_fract_y
_atom_site_fract_z
Si Si1 0.750000 0.750000 0.551880
Si Si2 0.753822 0.392252 0.643238
Si Si3 0.869932 0.899511 0.976125
Si Si4 0.000000 0.108054 0.187054
Si Si5 0.000000 0.894013 0.316020
Si Si6 0.261649 0.651197 0.370782
Si Si7 0.629790 0.892433 0.259797
O O1 0.695555 0.670535 0.593314
O O2 0.838930 0.690225 0.514161
O O3 0.734271 0.500000 0.629317
O O4 0.887936 0.365240 0.649980
O O5 0.693693 0.362976 0.702164
O O6 0.790069 0.914612 0.919788
O O7 0.000000 0.884492 0.955596
O O8 0.859541 0.000000 0.009132
O O9 0.000000 0.154158 0.252036
O O10 0.000000 0.000000 0.196919
O O11 0.108961 0.871838 0.355092
O O12 0.000000 0.000000 0.301812
O O13 0.250000 0.750000 0.400737
O O14 0.185236 0.657889 0.313640
O O15 0.500000 0.860773 0.253947
O O16 0.643631 0.000000 0.271238
#
# Coordination Sequence:
#
# PCOD8186674 Si02
#       7
#     8  16  16   8   8  16  16
#     4  12  26  44  68 102 130 174 240 292 340 392
#     4  10  22  41  66 100 136 177 226 285 346 409
#     4  11  26  50  75  98 133 183 236 289 346 413
#     4   9  18  38  65  96 137 181 224 269 338 419
#     4  11  22  40  69 100 141 185 222 271 340 417
#     4  12  25  40  66 105 140 174 225 283 347 412
#     4  10  21  39  64  94 135 181 221 272 347 422
#
# _framework density 22.377006000000002
#
# number of rings (size 3 to 8) (size 9 to 14) (size 15 to 20)
#    0.000    1.273    2.727    2.727    5.091    2.182 
#    0.000    0.000    0.000    1.091    0.000    0.000 
#    0.000    0.000    0.000    0.000    0.000    0.000 
#
# Total GULP energy -272611.283610 kJ/mol
# GULP energy per Si atom -12391.421982 kJ/mol
# Density = 2.232607 g / cm^3
# Si number density = 22.377006 Si / 1000 Ang^3
#
#
#
# Elastic Constant Matrix: (Units=GPa)
#
#
# Indices 1 2 3 4 5 6 
#
# 1 124.4646 39.8245 43.9154 0.0000 0.0000 0.0000
# 2 39.8245 110.4264 45.0695 0.0000 0.0000 0.0000
# 3 43.9154 45.0695 120.7860 0.0000 0.0000 0.0000
# 4 0.0000 0.0000 0.0000 35.5024 0.0000 0.0000
# 5 0.0000 0.0000 0.0000 0.0000 14.2608 0.0000
# 6 0.0000 0.0000 0.0000 0.0000 0.0000 26.6006
#
#
#
# Elastic Compliance Matrix: (Units=1/GPa)
#
#
# Indices 1 2 3 4 5 6 
#
# 1 0.009744 -0.002440 -0.002632 0.000000 0.000000 0.000000
# 2 -0.002440 0.011294 -0.003327 0.000000 0.000000 0.000000
# 3 -0.002632 -0.003327 0.010478 0.000000 0.000000 0.000000
# 4 0.000000 0.000000 0.000000 0.028167 0.000000 0.000000
# 5 0.000000 0.000000 0.000000 0.000000 0.070122 0.000000
# 6 0.000000 0.000000 0.000000 0.000000 0.000000 0.037593
#
#
# Mechanical properties :
#
#
# Convention : Reuss Voigt Hill
#
# Bulk Modulus (GPa) = 67.94895 68.14398 68.04647
# Shear Modulus (GPa) = 26.44087 30.39726 28.41906
#
# Velocity S-wave (km/s) = 3.44118 3.68967 3.56759
# Velocity P-wave (km/s) = 6.79856 6.97641 6.88806
#
# Compressibility (1/GPa) = 0.01471693
#
# Stress axis : x y z
#
# Youngs Moduli (GPa) = 102.62938 88.54623 95.44185
#
# Poissons Ratio (x) = 0.21602 0.25123
# Poissons Ratio (y) = 0.25038 0.31753
# Poissons Ratio (z) = 0.27015 0.29459
#
# Static dielectric constant tensor:
#      x y z
#    x 4.078250 0.000000 0.000000 
#    y 0.000000 4.133240 0.000000 
#    z 0.000000 0.000000 4.000140 
# 
# 
# High freq. dielectric constant tensor:
#      x y z
#    x 1.868830 0.000000 0.000000 
#    y 0.000000 1.893880 0.000000 
#    z 0.000000 0.000000 1.882550 
# 
# From -- ./inp_files/28748.got.cif
#   From: 2010.03.12/outbox.cif.g09.slc.cpg/sg42_15_cif.got.tgz:28748.got - 2010.04.14 02:04:31.
