data_PCOD8186488
_publ_section_title
;
Structure prediction by ZEFSAII (Michael W. Deem and Ramdas Pophale) SiO2 
 PCOD8186488
Probable space group: F M M 2
;
_chemical_formula_sum "Si O2"
_cell_formula_units_Z 80
_cell_length_a 18.291525
_cell_length_b 13.920203
_cell_length_c 15.375053
_cell_angle_alpha 90.000000
_cell_angle_beta 90.000000
_cell_angle_gamma 90.000000
_cell_volume 3914.822766
_symmetry_space_group_name_H-M "F M M 2"
_symmetry_group_IT_number 42
_symmetry_cell_setting 'orthorhombic'
loop_
_space_group_symop_operation_xyz
x,y,z
-x,-y,z
-x,y,z
x,-y,z
x,1/2+y,1/2+z
-x,1/2-y,1/2+z
-x,1/2+y,1/2+z
x,1/2-y,1/2+z
1/2+x,y,1/2+z
1/2-x,-y,1/2+z
1/2-x,y,1/2+z
1/2+x,-y,1/2+z
1/2+x,1/2+y,z
1/2-x,1/2-y,z
1/2-x,1/2+y,z
1/2+x,1/2-y,z
loop_
_atom_site_type_symbol
_atom_site_label
_atom_site_fract_x
_atom_site_fract_y
_atom_site_fract_z
Si Si1 0.232216 0.613385 0.071790
Si Si2 0.194606 0.111156 0.249112
Si Si3 0.582209 0.265949 0.804203
Si Si4 0.310877 0.388319 0.899784
Si Si5 0.920382 0.387970 0.132064
O O1 0.234167 0.500000 0.070657
O O2 0.275915 0.650765 0.156541
O O3 0.147115 0.647900 0.072303
O O4 0.270740 0.652953 0.985480
O O5 0.123396 0.168159 0.279309
O O6 0.258923 0.127467 0.317524
O O7 0.171756 0.000000 0.243534
O O8 0.500000 0.237535 0.830802
O O9 0.618134 0.322257 0.885512
O O10 0.583534 0.337784 0.724150
O O11 0.332992 0.500000 0.910715
O O12 0.910701 0.500000 0.152236
O O13 0.000000 0.367361 0.087493
#
# Coordination Sequence:
#
# PCOD8186488 Si02
#       5
#    16  16  16  16  16
#     4   9  18  35  61  88 116 156 199 243 296 355
#     4  10  21  40  60  82 117 159 205 248 291 352
#     4  11  22  37  57  87 122 156 196 245 302 354
#     4  10  20  37  62  91 118 151 199 248 298 355
#     4   9  17  32  57  89 121 150 187 243 306 357
#
# _framework density 20.435153
#
# number of rings (size 3 to 8) (size 9 to 14) (size 15 to 20)
#    0.000    2.200    2.000    1.200    0.000    1.600 
#    7.200    2.000    0.000    7.200    0.000    0.000 
#    0.000    0.000    0.000    0.000    0.000    0.000 
#
# Total GULP energy -247947.321219 kJ/mol
# GULP energy per Si atom -12397.366061 kJ/mol
# Density = 2.038864 g / cm^3
# Si number density = 20.435153 Si / 1000 Ang^3
#
#
#
# Elastic Constant Matrix: (Units=GPa)
#
#
# Indices 1 2 3 4 5 6 
#
# 1 181.9768 63.2445 55.4165 0.0000 0.0000 0.0000
# 2 63.2445 68.5107 24.4251 0.0000 0.0000 0.0000
# 3 55.4165 24.4251 111.6465 0.0000 0.0000 0.0000
# 4 0.0000 0.0000 0.0000 2.8394 0.0000 0.0000
# 5 0.0000 0.0000 0.0000 0.0000 31.7958 0.0000
# 6 0.0000 0.0000 0.0000 0.0000 0.0000 28.0892
#
#
#
# Elastic Compliance Matrix: (Units=1/GPa)
#
#
# Indices 1 2 3 4 5 6 
#
# 1 0.008842 -0.007156 -0.002823 0.000000 0.000000 0.000000
# 2 -0.007156 0.021622 -0.001179 0.000000 0.000000 0.000000
# 3 -0.002823 -0.001179 0.010616 0.000000 0.000000 0.000000
# 4 0.000000 0.000000 0.000000 0.352193 0.000000 0.000000
# 5 0.000000 0.000000 0.000000 0.000000 0.031451 0.000000
# 6 0.000000 0.000000 0.000000 0.000000 0.000000 0.035601
#
#
# Mechanical properties :
#
#
# Convention : Reuss Voigt Hill
#
# Bulk Modulus (GPa) = 53.29065 72.03400 62.66232
# Shear Modulus (GPa) = 10.22716 27.14806 18.68761
#
# Velocity S-wave (km/s) = 2.23954 3.64881 3.02732
# Velocity P-wave (km/s) = 5.72904 7.28549 6.55364
#
# Compressibility (1/GPa) = 0.01876502
#
# Stress axis : x y z
#
# Youngs Moduli (GPa) = 113.09857 46.24904 94.19737
#
# Poissons Ratio (x) = 0.33094 0.26594
# Poissons Ratio (y) = 0.80930 0.11102
# Poissons Ratio (z) = 0.31931 0.05451
#
# Static dielectric constant tensor:
#      x y z
#    x 4.146900 0.000000 0.000000 
#    y 0.000000 3.680040 0.000000 
#    z 0.000000 0.000000 3.836930 
# 
# 
# High freq. dielectric constant tensor:
#      x y z
#    x 1.796420 0.000000 0.000000 
#    y 0.000000 1.803270 0.000000 
#    z 0.000000 0.000000 1.782880 
# 
# From -- ./inp_files/13817.got.cif
#   From: 2010.03.12/outbox.cif.g09.slc.cpg/sg42_7_cif.got.tgz:13817.got - 2010.04.14 02:04:31.
