data_PCOD8186501
_publ_section_title
;
Structure prediction by ZEFSAII (Michael W. Deem and Ramdas Pophale) SiO2 
 PCOD8186501
Probable space group: F M M 2
;
_chemical_formula_sum "Si O2"
_cell_formula_units_Z 64
_cell_length_a 27.736031
_cell_length_b 7.775932
_cell_length_c 14.647829
_cell_angle_alpha 90.000000
_cell_angle_beta 90.000000
_cell_angle_gamma 90.000000
_cell_volume 3159.148416
_symmetry_space_group_name_H-M "F M M 2"
_symmetry_group_IT_number 42
_symmetry_cell_setting 'orthorhombic'
loop_
_space_group_symop_operation_xyz
x,y,z
-x,-y,z
-x,y,z
x,-y,z
x,1/2+y,1/2+z
-x,1/2-y,1/2+z
-x,1/2+y,1/2+z
x,1/2-y,1/2+z
1/2+x,y,1/2+z
1/2-x,-y,1/2+z
1/2-x,y,1/2+z
1/2+x,-y,1/2+z
1/2+x,1/2+y,z
1/2-x,1/2-y,z
1/2-x,1/2+y,z
1/2+x,1/2-y,z
loop_
_atom_site_type_symbol
_atom_site_label
_atom_site_fract_x
_atom_site_fract_y
_atom_site_fract_z
Si Si1 0.378791 0.304802 0.929840
Si Si2 0.553863 0.500000 0.644898
Si Si3 0.446411 0.500000 0.428100
Si Si4 0.304669 0.696138 0.776460
Si Si5 0.379741 0.691029 0.139662
O O1 0.397980 0.500000 0.915510
O O2 0.330083 0.271690 0.873711
O O3 0.419300 0.172114 0.894083
O O4 0.366227 0.267656 0.035124
O O5 0.500000 0.500000 0.687094
O O6 0.550439 0.500000 0.536624
O O7 0.582090 0.670403 0.678913
O O8 0.500000 0.500000 0.385719
O O9 0.308245 0.500000 0.745815
O O10 0.250000 0.750000 0.787736
O O11 0.330634 0.804891 0.697488
O O12 0.402616 0.500000 0.147642
#
# Coordination Sequence:
#
# PCOD8186501 Si02
#       5
#    16   8   8  16  16
#     4   9  21  38  58  84 118 150 188 236 281 334
#     4   9  18  36  59  86 115 151 192 235 284 334
#     4   9  18  34  61  86 111 151 192 231 284 334
#     4  11  23  39  59  85 116 152 190 238 287 340
#     4  10  20  38  60  85 117 152 190 236 282 337
#
# _framework density 20.258624000000001
#
# number of rings (size 3 to 8) (size 9 to 14) (size 15 to 20)
#    0.000    2.250    1.250    0.750    3.500    2.000 
#    0.000    8.750    0.000    0.000    0.000    0.000 
#    0.000    0.000    0.000    0.000    0.000    0.000 
#
# Total GULP energy -198408.277347 kJ/mol
# GULP energy per Si atom -12400.517334 kJ/mol
# Density = 2.021251 g / cm^3
# Si number density = 20.258624 Si / 1000 Ang^3
#
#
#
# Elastic Constant Matrix: (Units=GPa)
#
#
# Indices 1 2 3 4 5 6 
#
# 1 170.8417 81.3720 44.7674 0.0000 0.0000 0.0000
# 2 81.3720 144.0204 45.3284 0.0000 0.0000 0.0000
# 3 44.7674 45.3284 59.7624 0.0000 0.0000 0.0000
# 4 0.0000 0.0000 0.0000 23.1255 0.0000 0.0000
# 5 0.0000 0.0000 0.0000 0.0000 18.6107 0.0000
# 6 0.0000 0.0000 0.0000 0.0000 0.0000 24.8469
#
#
#
# Elastic Compliance Matrix: (Units=1/GPa)
#
#
# Indices 1 2 3 4 5 6 
#
# 1 0.008562 -0.003703 -0.003605 0.000000 0.000000 0.000000
# 2 -0.003703 0.010722 -0.005359 0.000000 0.000000 0.000000
# 3 -0.003605 -0.005359 0.023498 0.000000 0.000000 0.000000
# 4 0.000000 0.000000 0.000000 0.043242 0.000000 0.000000
# 5 0.000000 0.000000 0.000000 0.000000 0.053733 0.000000
# 6 0.000000 0.000000 0.000000 0.000000 0.000000 0.040246
#
#
# Mechanical properties :
#
#
# Convention : Reuss Voigt Hill
#
# Bulk Modulus (GPa) = 57.31115 79.72890 68.52003
# Shear Modulus (GPa) = 23.67958 26.86040 25.26999
#
# Velocity S-wave (km/s) = 3.42257 3.64521 3.53564
# Velocity P-wave (km/s) = 6.63098 7.56027 7.11082
#
# Compressibility (1/GPa) = 0.01744861
#
# Stress axis : x y z
#
# Youngs Moduli (GPa) = 116.80015 93.26509 42.55696
#
# Poissons Ratio (x) = 0.34534 0.15342
# Poissons Ratio (y) = 0.43248 0.22806
# Poissons Ratio (z) = 0.42106 0.49979
#
# Static dielectric constant tensor:
#      x y z
#    x 3.761430 0.000000 0.000000 
#    y 0.000000 3.971590 0.000000 
#    z 0.000000 0.000000 3.517520 
# 
# 
# High freq. dielectric constant tensor:
#      x y z
#    x 1.773110 0.000000 0.000000 
#    y 0.000000 1.810060 0.000000 
#    z 0.000000 0.000000 1.782750 
# 
# From -- ./inp_files/11879.got.cif
#   From: 2010.03.12/outbox.cif.g09.slc.cpg/sg42_6_cif.got.tgz:11879.got - 2010.04.14 02:04:31.
