data_PCOD8186076
_publ_section_title
;
Structure prediction by ZEFSAII (Michael W. Deem and Ramdas Pophale) SiO2 
 PCOD8186076
Probable space group: F M M 2
;
_chemical_formula_sum "Si O2"
_cell_formula_units_Z 128
_cell_length_a 19.515162
_cell_length_b 19.406142
_cell_length_c 19.422936
_cell_angle_alpha 90.000000
_cell_angle_beta 90.000000
_cell_angle_gamma 90.000000
_cell_volume 7355.737880
_symmetry_space_group_name_H-M "F M M 2"
_symmetry_group_IT_number 42
_symmetry_cell_setting 'orthorhombic'
loop_
_space_group_symop_operation_xyz
x,y,z
-x,-y,z
-x,y,z
x,-y,z
x,1/2+y,1/2+z
-x,1/2-y,1/2+z
-x,1/2+y,1/2+z
x,1/2-y,1/2+z
1/2+x,y,1/2+z
1/2-x,-y,1/2+z
1/2-x,y,1/2+z
1/2+x,-y,1/2+z
1/2+x,1/2+y,z
1/2-x,1/2-y,z
1/2-x,1/2+y,z
1/2+x,1/2-y,z
loop_
_atom_site_type_symbol
_atom_site_label
_atom_site_fract_x
_atom_site_fract_y
_atom_site_fract_z
Si Si1 0.684343 0.076713 0.533350
Si Si2 0.184343 0.923287 0.343232
Si Si3 0.577543 0.709109 0.872555
Si Si4 0.422934 0.172151 0.768110
Si Si5 0.663665 0.922075 0.372155
Si Si6 0.577543 0.790891 0.004027
Si Si7 0.163665 0.577925 0.004426
Si Si8 0.422934 0.827849 0.608472
O O1 0.665479 0.080294 0.453988
O O2 0.764024 0.098017 0.539730
O O3 0.634651 0.122832 0.578427
O O4 0.674424 0.000000 0.561932
O O5 0.134651 0.877168 0.298155
O O6 0.264024 0.901983 0.336852
O O7 0.165479 0.919706 0.422594
O O8 0.174424 0.000000 0.314650
O O9 0.500000 0.691872 0.893635
O O10 0.583290 0.754498 0.804517
O O11 0.610982 0.636824 0.850660
O O12 0.611387 0.750000 0.938291
O O13 0.500000 0.141843 0.779952
O O14 0.407972 0.183769 0.688291
O O15 0.641813 0.000000 0.349225
O O16 0.500000 0.808128 0.982947
O O17 0.583290 0.745502 0.072065
O O18 0.610982 0.863176 0.025922
O O19 0.141813 0.500000 0.027357
O O20 0.500000 0.858157 0.596630
#
# Coordination Sequence:
#
# PCOD8186076 Si02
#       8
#    16  16  16  16  16  16  16  16
#     4   9  18  33  51  75 107 139 176 217 260 318
#     4   9  18  33  51  75 107 139 176 217 260 318
#     4  10  19  33  53  78 106 138 180 224 263 312
#     4  10  21  36  53  77 111 145 176 219 274 324
#     4   9  18  33  53  77 105 137 175 222 268 307
#     4  10  19  33  53  78 106 138 180 224 263 312
#     4   9  18  33  53  77 105 137 175 222 268 307
#     4  10  21  36  53  77 111 145 176 219 274 324
#
# _framework density 17.401381000000001
#
# number of rings (size 3 to 8) (size 9 to 14) (size 15 to 20)
#    0.000    2.500    2.500    1.500    0.000    2.500 
#    0.000    6.250    0.000    2.250    0.000    3.500 
#    0.000    0.000    0.000    0.000    0.000    0.000 
#
# Total GULP energy -396562.609241 kJ/mol
# GULP energy per Si atom -12392.581539 kJ/mol
# Density = 1.736178 g / cm^3
# Si number density = 17.401381 Si / 1000 Ang^3
#
#
#
# Elastic Constant Matrix: (Units=GPa)
#
#
# Indices 1 2 3 4 5 6 
#
# 1 102.6777 83.2549 51.0342 0.0000 0.0000 0.0000
# 2 83.2549 123.6341 45.7008 0.0000 0.0000 0.0000
# 3 51.0342 45.7008 82.4889 0.0000 0.0000 0.0000
# 4 0.0000 0.0000 0.0000 18.6410 0.0000 0.0000
# 5 0.0000 0.0000 0.0000 0.0000 26.7762 0.0000
# 6 0.0000 0.0000 0.0000 0.0000 0.0000 0.4197
#
#
#
# Elastic Compliance Matrix: (Units=1/GPa)
#
#
# Indices 1 2 3 4 5 6 
#
# 1 0.024779 -0.013857 -0.007653 0.000000 0.000000 0.000000
# 2 -0.013857 0.017921 -0.001355 0.000000 0.000000 0.000000
# 3 -0.007653 -0.001355 0.017609 0.000000 0.000000 0.000000
# 4 0.000000 0.000000 0.000000 0.053645 0.000000 0.000000
# 5 0.000000 0.000000 0.000000 0.000000 0.037347 0.000000
# 6 0.000000 0.000000 0.000000 0.000000 0.000000 2.382854
#
#
# Mechanical properties :
#
#
# Convention : Reuss Voigt Hill
#
# Bulk Modulus (GPa) = 68.60082 74.30895 71.45488
# Shear Modulus (GPa) = 1.93443 17.75476 9.84459
#
# Velocity S-wave (km/s) = 1.05549 3.19769 2.38110
# Velocity P-wave (km/s) = 6.40263 7.51194 6.97936
#
# Compressibility (1/GPa) = 0.01457708
#
# Stress axis : x y z
#
# Youngs Moduli (GPa) = 40.35700 55.80127 56.79067
#
# Poissons Ratio (x) = 0.77324 0.43462
# Poissons Ratio (y) = 0.55923 0.07697
# Poissons Ratio (z) = 0.30885 0.07563
#
# Static dielectric constant tensor:
#      x y z
#    x 3.382240 0.000000 0.000000 
#    y 0.000000 4.861740 0.000000 
#    z 0.000000 0.000000 3.035110 
# 
# 
# High freq. dielectric constant tensor:
#      x y z
#    x 1.670700 0.000000 0.000000 
#    y 0.000000 1.674970 0.000000 
#    z 0.000000 0.000000 1.648260 
# 
# From -- ./inp_files/21927.got.cif
#   From: 2010.03.12/outbox.cif.g09.slc.cpg/sg42_11_cif.got.tgz:21927.got - 2010.04.14 02:04:31.
