data_PCOD8186362
_publ_section_title
;
Structure prediction by ZEFSAII (Michael W. Deem and Ramdas Pophale) SiO2 
 PCOD8186362
Probable space group: F M M 2
;
_chemical_formula_sum "Si O2"
_cell_formula_units_Z 80
_cell_length_a 15.683676
_cell_length_b 8.893167
_cell_length_c 28.576484
_cell_angle_alpha 90.000000
_cell_angle_beta 90.000000
_cell_angle_gamma 90.000000
_cell_volume 3985.777971
_symmetry_space_group_name_H-M "F M M 2"
_symmetry_group_IT_number 42
_symmetry_cell_setting 'orthorhombic'
loop_
_space_group_symop_operation_xyz
x,y,z
-x,-y,z
-x,y,z
x,-y,z
x,1/2+y,1/2+z
-x,1/2-y,1/2+z
-x,1/2+y,1/2+z
x,1/2-y,1/2+z
1/2+x,y,1/2+z
1/2-x,-y,1/2+z
1/2-x,y,1/2+z
1/2+x,-y,1/2+z
1/2+x,1/2+y,z
1/2-x,1/2-y,z
1/2-x,1/2+y,z
1/2+x,1/2-y,z
loop_
_atom_site_type_symbol
_atom_site_label
_atom_site_fract_x
_atom_site_fract_y
_atom_site_fract_z
Si Si1 0.336425 0.177617 0.586640
Si Si2 0.904460 0.332930 0.683207
Si Si3 0.000000 0.677979 0.526785
Si Si4 0.162533 0.325033 0.267527
Si Si5 0.341260 0.678817 0.873837
Si Si6 0.000000 0.321056 0.926752
O O1 0.250000 0.250000 0.566330
O O2 0.349234 0.233593 0.640274
O O3 0.415945 0.227215 0.555037
O O4 0.327514 0.000000 0.585730
O O5 0.872474 0.500000 0.696898
O O6 0.905445 0.230213 0.729523
O O7 0.000000 0.340870 0.663660
O O8 0.000000 0.500000 0.515429
O O9 0.000000 0.776902 0.480510
O O10 0.174120 0.500000 0.263678
O O11 0.250000 0.250000 0.252199
O O12 0.135977 0.280170 0.320102
O O13 0.337814 0.500000 0.882214
O O14 0.250000 0.750000 0.887732
O O15 0.415056 0.751752 0.904367
O O16 0.000000 0.500000 0.920147
#
# Coordination Sequence:
#
# PCOD8186362 Si02
#       6
#    16  16   8  16  16   8
#     4  10  21  39  63  88 118 158 200 244 298 357
#     4  10  20  35  56  85 122 162 202 242 291 352
#     4  10  22  44  65  84 117 157 198 249 309 366
#     4  10  21  36  56  84 119 158 201 245 292 349
#     4  10  22  42  65  91 125 163 206 254 304 362
#     4  12  26  42  65  94 123 157 202 253 313 374
#
# _framework density 20.071365
#
# number of rings (size 3 to 8) (size 9 to 14) (size 15 to 20)
#    0.000    1.800    1.000    2.700    1.400    6.800 
#    0.000    2.000    0.000    0.000    0.000    0.000 
#    0.000    0.000    0.000    0.000    0.000    0.000 
#
# Total GULP energy -247991.739854 kJ/mol
# GULP energy per Si atom -12399.586993 kJ/mol
# Density = 2.002568 g / cm^3
# Si number density = 20.071365 Si / 1000 Ang^3
#
#
#
# Elastic Constant Matrix: (Units=GPa)
#
#
# Indices 1 2 3 4 5 6 
#
# 1 149.7322 51.2971 73.1707 0.0000 0.0000 0.0000
# 2 51.2971 74.4266 52.9279 0.0000 0.0000 0.0000
# 3 73.1707 52.9279 125.0645 0.0000 0.0000 0.0000
# 4 0.0000 0.0000 0.0000 33.4483 0.0000 0.0000
# 5 0.0000 0.0000 0.0000 0.0000 22.7576 0.0000
# 6 0.0000 0.0000 0.0000 0.0000 0.0000 32.4800
#
#
#
# Elastic Compliance Matrix: (Units=1/GPa)
#
#
# Indices 1 2 3 4 5 6 
#
# 1 0.010103 -0.003948 -0.004240 0.000000 0.000000 0.000000
# 2 -0.003948 0.020764 -0.006477 0.000000 0.000000 0.000000
# 3 -0.004240 -0.006477 0.013218 0.000000 0.000000 0.000000
# 4 0.000000 0.000000 0.000000 0.029897 0.000000 0.000000
# 5 0.000000 0.000000 0.000000 0.000000 0.043941 0.000000
# 6 0.000000 0.000000 0.000000 0.000000 0.000000 0.030788
#
#
# Mechanical properties :
#
#
# Convention : Reuss Voigt Hill
#
# Bulk Modulus (GPa) = 67.78089 78.22386 73.00237
# Shear Modulus (GPa) = 27.32835 29.19235 28.26035
#
# Velocity S-wave (km/s) = 3.69393 3.81783 3.75639
# Velocity P-wave (km/s) = 7.21365 7.64800 7.43400
#
# Compressibility (1/GPa) = 0.01475342
#
# Stress axis : x y z
#
# Youngs Moduli (GPa) = 98.97792 48.16142 75.65494
#
# Poissons Ratio (x) = 0.19015 0.32079
# Poissons Ratio (y) = 0.39077 0.49004
# Poissons Ratio (z) = 0.41969 0.31196
#
# Static dielectric constant tensor:
#      x y z
#    x 3.747390 0.000000 0.000000 
#    y 0.000000 3.591170 0.000000 
#    z 0.000000 0.000000 3.683590 
# 
# 
# High freq. dielectric constant tensor:
#      x y z
#    x 1.791230 0.000000 0.000000 
#    y 0.000000 1.779130 0.000000 
#    z 0.000000 0.000000 1.784700 
# 
# From -- ./inp_files/32766.got.cif
#   From: 2010.03.12/outbox.cif.g09.slc.cpg/sg42_17_cif.got.tgz:32766.got - 2010.04.14 02:04:31.
