data_PCOD8186593
_publ_section_title
;
Structure prediction by ZEFSAII (Michael W. Deem and Ramdas Pophale) SiO2 
 PCOD8186593
Probable space group: F M M 2
;
_chemical_formula_sum "Si O2"
_cell_formula_units_Z 104
_cell_length_a 23.436862
_cell_length_b 14.340447
_cell_length_c 17.735512
_cell_angle_alpha 90.000000
_cell_angle_beta 90.000000
_cell_angle_gamma 90.000000
_cell_volume 5960.818278
_symmetry_space_group_name_H-M "F M M 2"
_symmetry_group_IT_number 42
_symmetry_cell_setting 'orthorhombic'
loop_
_space_group_symop_operation_xyz
x,y,z
-x,-y,z
-x,y,z
x,-y,z
x,1/2+y,1/2+z
-x,1/2-y,1/2+z
-x,1/2+y,1/2+z
x,1/2-y,1/2+z
1/2+x,y,1/2+z
1/2-x,-y,1/2+z
1/2-x,y,1/2+z
1/2+x,-y,1/2+z
1/2+x,1/2+y,z
1/2-x,1/2-y,z
1/2-x,1/2+y,z
1/2+x,1/2-y,z
loop_
_atom_site_type_symbol
_atom_site_label
_atom_site_fract_x
_atom_site_fract_y
_atom_site_fract_z
Si Si1 0.066634 0.391024 0.853850
Si Si2 0.861959 0.109631 0.495309
Si Si3 0.750000 0.250000 0.845797
Si Si4 0.290002 0.894039 0.626140
Si Si5 0.263144 0.107132 0.459921
Si Si6 0.658455 0.108650 0.159777
Si Si7 0.647478 0.715583 0.245620
O O1 0.080585 0.500000 0.840528
O O2 0.093421 0.330821 0.786166
O O3 0.000000 0.371087 0.853649
O O4 0.090033 0.357591 0.935813
O O5 0.800648 0.148946 0.470863
O O6 0.875420 0.135927 0.582437
O O7 0.854174 0.000000 0.493853
O O8 0.713903 0.327431 0.893085
O O9 0.703039 0.197446 0.796233
O O10 0.298653 0.879520 0.536573
O O11 0.225332 0.867893 0.648640
O O12 0.338352 0.832731 0.665864
O O13 0.301605 0.000000 0.649059
O O14 0.264372 0.000000 0.433620
O O15 0.635375 0.174908 0.227255
O O16 0.648882 0.000000 0.181267
#
# Coordination Sequence:
#
# PCOD8186593 Si02
#       7
#    16  16   8  16  16  16  16
#     4  10  21  37  56  77 103 135 176 226 269 303
#     4   8  15  31  52  70  94 132 172 217 258 296
#     4  12  22  26  48  76 104 140 166 204 270 316
#     4   9  18  31  47  69 102 141 171 204 255 315
#     4   9  19  32  46  69 103 138 172 208 250 309
#     4   9  18  31  48  73 105 138 171 206 256 318
#     4  12  21  31  49  79 110 140 168 212 265 321
#
# _framework density 17.447268999999999
#
# number of rings (size 3 to 8) (size 9 to 14) (size 15 to 20)
#    0.000    2.308    3.077    2.308    4.308    1.231 
#    0.000    0.769    0.000    1.385    0.000    0.000 
#    0.000    0.000    0.000    0.000    0.000    0.000 
#
# Total GULP energy -322246.309359 kJ/mol
# GULP energy per Si atom -12394.088822 kJ/mol
# Density = 1.740756 g / cm^3
# Si number density = 17.447269 Si / 1000 Ang^3
#
#
#
# Elastic Constant Matrix: (Units=GPa)
#
#
# Indices 1 2 3 4 5 6 
#
# 1 59.5106 20.7929 32.7586 0.0000 0.0000 0.0000
# 2 20.7929 74.4191 49.5212 0.0000 0.0000 0.0000
# 3 32.7586 49.5212 91.5169 0.0000 0.0000 0.0000
# 4 0.0000 0.0000 0.0000 32.4263 0.0000 0.0000
# 5 0.0000 0.0000 0.0000 0.0000 20.9339 0.0000
# 6 0.0000 0.0000 0.0000 0.0000 0.0000 17.4332
#
#
#
# Elastic Compliance Matrix: (Units=1/GPa)
#
#
# Indices 1 2 3 4 5 6 
#
# 1 0.021014 -0.001353 -0.006790 0.000000 0.000000 0.000000
# 2 -0.001353 0.021086 -0.010925 0.000000 0.000000 0.000000
# 3 -0.006790 -0.010925 0.019269 0.000000 0.000000 0.000000
# 4 0.000000 0.000000 0.000000 0.030839 0.000000 0.000000
# 5 0.000000 0.000000 0.000000 0.000000 0.047769 0.000000
# 6 0.000000 0.000000 0.000000 0.000000 0.000000 0.057362
#
#
# Mechanical properties :
#
#
# Convention : Reuss Voigt Hill
#
# Bulk Modulus (GPa) = 43.04367 47.95469 45.49918
# Shear Modulus (GPa) = 20.55750 22.31694 21.43722
#
# Velocity S-wave (km/s) = 3.43631 3.58034 3.50906
# Velocity P-wave (km/s) = 6.36149 6.68109 6.52325
#
# Compressibility (1/GPa) = 0.02323222
#
# Stress axis : x y z
#
# Youngs Moduli (GPa) = 47.58708 47.42562 51.89621
#
# Poissons Ratio (x) = 0.06418 0.35236
# Poissons Ratio (y) = 0.06440 0.56699
# Poissons Ratio (z) = 0.32310 0.51814
#
# Static dielectric constant tensor:
#      x y z
#    x 2.800390 0.000000 0.000000 
#    y 0.000000 3.227840 0.000000 
#    z 0.000000 0.000000 3.457090 
# 
# 
# High freq. dielectric constant tensor:
#      x y z
#    x 1.607050 0.000000 0.000000 
#    y 0.000000 1.676620 0.000000 
#    z 0.000000 0.000000 1.684390 
# 
# From -- ./inp_files/16646.got.cif
#   From: 2010.03.12/outbox.cif.g09.slc.cpg/sg42_9_cif.got.tgz:16646.got - 2010.04.14 02:04:31.
