data_PCOD8186441
_publ_section_title
;
Structure prediction by ZEFSAII (Michael W. Deem and Ramdas Pophale) SiO2 
 PCOD8186441
Probable space group: F M M 2
;
_chemical_formula_sum "Si O2"
_cell_formula_units_Z 80
_cell_length_a 16.874137
_cell_length_b 11.826231
_cell_length_c 20.104601
_cell_angle_alpha 90.000000
_cell_angle_beta 90.000000
_cell_angle_gamma 90.000000
_cell_volume 4012.022750
_symmetry_space_group_name_H-M "F M M 2"
_symmetry_group_IT_number 42
_symmetry_cell_setting 'orthorhombic'
loop_
_space_group_symop_operation_xyz
x,y,z
-x,-y,z
-x,y,z
x,-y,z
x,1/2+y,1/2+z
-x,1/2-y,1/2+z
-x,1/2+y,1/2+z
x,1/2-y,1/2+z
1/2+x,y,1/2+z
1/2-x,-y,1/2+z
1/2-x,y,1/2+z
1/2+x,-y,1/2+z
1/2+x,1/2+y,z
1/2-x,1/2-y,z
1/2-x,1/2+y,z
1/2+x,1/2-y,z
loop_
_atom_site_type_symbol
_atom_site_label
_atom_site_fract_x
_atom_site_fract_y
_atom_site_fract_z
Si Si1 0.593796 0.370130 0.794440
Si Si2 0.911683 0.500000 0.942611
Si Si3 0.090012 0.500000 0.099766
Si Si4 0.341437 0.720913 0.662342
Si Si5 0.906846 0.125482 0.054937
Si Si6 0.094734 0.244952 0.426592
O O1 0.500000 0.362911 0.788051
O O2 0.622576 0.500000 0.787263
O O3 0.632257 0.290832 0.738600
O O4 0.622540 0.321759 0.865173
O O5 0.869917 0.383115 0.918545
O O6 0.000000 0.500000 0.912775
O O7 0.915526 0.500000 0.021584
O O8 0.138902 0.392968 0.123579
O O9 0.000000 0.500000 0.130033
O O10 0.250000 0.750000 0.658551
O O11 0.388207 0.822184 0.626792
O O12 0.000000 0.118352 0.045769
O O13 0.869680 0.000000 0.051347
O O14 0.870970 0.199784 0.994341
O O15 0.000000 0.237678 0.431415
#
# Coordination Sequence:
#
# PCOD8186441 Si02
#       6
#    16   8   8  16  16  16
#     4  10  20  37  63  88 114 156 210 255 299 365
#     4   9  16  30  59  92 118 144 193 258 307 348
#     4  11  20  40  71  92 115 162 219 260 294 368
#     4  12  25  38  59  87 126 157 204 256 310 355
#     4  10  20  36  59  86 118 153 196 253 314 369
#     4   9  17  32  57  91 118 146 198 262 307 354
#
# _framework density 19.940066000000002
#
# number of rings (size 3 to 8) (size 9 to 14) (size 15 to 20)
#    0.000    1.800    3.000    2.400    1.400    2.400 
#    1.800    1.000    0.000    0.000    0.000    0.000 
#    0.000    0.000    0.000    0.000    0.000    0.000 
#
# Total GULP energy -247945.987135 kJ/mol
# GULP energy per Si atom -12397.299357 kJ/mol
# Density = 1.989468 g / cm^3
# Si number density = 19.940066 Si / 1000 Ang^3
#
#
#
# Elastic Constant Matrix: (Units=GPa)
#
#
# Indices 1 2 3 4 5 6 
#
# 1 42.4028 33.4499 21.2955 0.0000 0.0000 0.0000
# 2 33.4499 175.4307 67.1291 0.0000 0.0000 0.0000
# 3 21.2955 67.1291 117.1811 0.0000 0.0000 0.0000
# 4 0.0000 0.0000 0.0000 40.9386 0.0000 0.0000
# 5 0.0000 0.0000 0.0000 0.0000 2.8623 0.0000
# 6 0.0000 0.0000 0.0000 0.0000 0.0000 29.3399
#
#
#
# Elastic Compliance Matrix: (Units=1/GPa)
#
#
# Indices 1 2 3 4 5 6 
#
# 1 0.028380 -0.004403 -0.002635 0.000000 0.000000 0.000000
# 2 -0.004403 0.007984 -0.003773 0.000000 0.000000 0.000000
# 3 -0.002635 -0.003773 0.011174 0.000000 0.000000 0.000000
# 4 0.000000 0.000000 0.000000 0.024427 0.000000 0.000000
# 5 0.000000 0.000000 0.000000 0.000000 0.349368 0.000000
# 6 0.000000 0.000000 0.000000 0.000000 0.000000 0.034083
#
#
# Mechanical properties :
#
#
# Convention : Reuss Voigt Hill
#
# Bulk Modulus (GPa) = 38.58782 64.30707 51.44745
# Shear Modulus (GPa) = 10.29490 28.83750 19.56620
#
# Velocity S-wave (km/s) = 2.27467 3.80703 3.13589
# Velocity P-wave (km/s) = 5.12765 7.18643 6.24250
#
# Compressibility (1/GPa) = 0.02591492
#
# Stress axis : x y z
#
# Youngs Moduli (GPa) = 35.23596 125.25518 89.49041
#
# Poissons Ratio (x) = 0.55149 0.23583
# Poissons Ratio (y) = 0.15514 0.33769
# Poissons Ratio (z) = 0.09286 0.47264
#
# Static dielectric constant tensor:
#      x y z
#    x 3.114910 0.000000 0.000000 
#    y 0.000000 4.035770 0.000000 
#    z 0.000000 0.000000 3.727290 
# 
# 
# High freq. dielectric constant tensor:
#      x y z
#    x 1.727990 0.000000 0.000000 
#    y 0.000000 1.796780 0.000000 
#    z 0.000000 0.000000 1.781130 
# 
# From -- ./inp_files/24281.got.cif
#   From: 2010.03.12/outbox.cif.g09.slc.cpg/sg42_13_cif.got.tgz:24281.got - 2010.04.14 02:04:31.
