data_PCOD8186391
_publ_section_title
;
Structure prediction by ZEFSAII (Michael W. Deem and Ramdas Pophale) SiO2 
 PCOD8186391
Probable space group: F M M 2
;
_chemical_formula_sum "Si O2"
_cell_formula_units_Z 96
_cell_length_a 27.815697
_cell_length_b 8.833416
_cell_length_c 20.220469
_cell_angle_alpha 90.000000
_cell_angle_beta 90.000000
_cell_angle_gamma 90.000000
_cell_volume 4968.323373
_symmetry_space_group_name_H-M "F M M 2"
_symmetry_group_IT_number 42
_symmetry_cell_setting 'orthorhombic'
loop_
_space_group_symop_operation_xyz
x,y,z
-x,-y,z
-x,y,z
x,-y,z
x,1/2+y,1/2+z
-x,1/2-y,1/2+z
-x,1/2+y,1/2+z
x,1/2-y,1/2+z
1/2+x,y,1/2+z
1/2-x,-y,1/2+z
1/2-x,y,1/2+z
1/2+x,-y,1/2+z
1/2+x,1/2+y,z
1/2-x,1/2-y,z
1/2-x,1/2+y,z
1/2+x,1/2-y,z
loop_
_atom_site_type_symbol
_atom_site_label
_atom_site_fract_x
_atom_site_fract_y
_atom_site_fract_z
Si Si1 0.799861 0.175957 0.915270
Si Si2 0.555338 0.673819 0.075686
Si Si3 0.556490 0.328307 0.833107
Si Si4 0.300318 0.677383 0.761753
Si Si5 0.106212 0.177299 0.455291
Si Si6 0.894553 0.823105 0.213149
O O1 0.750000 0.250000 0.937183
O O2 0.811392 0.210916 0.838580
O O3 0.841852 0.243968 0.960545
O O4 0.795741 0.000000 0.929364
O O5 0.500000 0.712472 0.091207
O O6 0.560845 0.500000 0.053181
O O7 0.586814 0.708467 0.139851
O O8 0.573606 0.779557 0.017234
O O9 0.500000 0.325197 0.843105
O O10 0.576459 0.500000 0.838626
O O11 0.580130 0.226425 0.888692
O O12 0.569321 0.262123 0.761946
O O13 0.298855 0.500000 0.746703
O O14 0.250000 0.750000 0.740359
O O15 0.341146 0.756299 0.718220
O O16 0.114387 0.000000 0.453672
O O17 0.894224 0.000000 0.230438
#
# Coordination Sequence:
#
# PCOD8186391 Si02
#       6
#    16  16  16  16  16  16
#     4  10  20  36  60  89 123 158 195 242 299 355
#     4  10  23  43  63  84 118 163 204 247 303 359
#     4  11  23  38  58  85 118 155 197 248 301 353
#     4  10  20  35  59  89 123 159 196 242 298 354
#     4  12  24  38  60  89 120 156 201 249 298 355
#     4  11  22  38  62  90 120 155 199 248 299 356
#
# _framework density 19.322412
#
# number of rings (size 3 to 8) (size 9 to 14) (size 15 to 20)
#    0.000    1.333    1.667    4.500    0.000    7.000 
#    0.000    0.833    0.000    4.000    0.000    0.000 
#    0.000    0.000    0.000    0.000    0.000    0.000 
#
# Total GULP energy -297763.321957 kJ/mol
# GULP energy per Si atom -12406.805082 kJ/mol
# Density = 1.927843 g / cm^3
# Si number density = 19.322412 Si / 1000 Ang^3
#
#
#
# Elastic Constant Matrix: (Units=GPa)
#
#
# Indices 1 2 3 4 5 6 
#
# 1 117.6880 49.0282 25.3707 0.0000 0.0000 0.0000
# 2 49.0282 107.5140 26.5969 0.0000 0.0000 0.0000
# 3 25.3707 26.5969 53.3928 0.0000 0.0000 0.0000
# 4 0.0000 0.0000 0.0000 30.3447 0.0000 0.0000
# 5 0.0000 0.0000 0.0000 0.0000 33.8299 0.0000
# 6 0.0000 0.0000 0.0000 0.0000 0.0000 37.2551
#
#
#
# Elastic Compliance Matrix: (Units=1/GPa)
#
#
# Indices 1 2 3 4 5 6 
#
# 1 0.010919 -0.004215 -0.003089 0.000000 0.000000 0.000000
# 2 -0.004215 0.012236 -0.004092 0.000000 0.000000 0.000000
# 3 -0.003089 -0.004092 0.022235 0.000000 0.000000 0.000000
# 4 0.000000 0.000000 0.000000 0.032955 0.000000 0.000000
# 5 0.000000 0.000000 0.000000 0.000000 0.029560 0.000000
# 6 0.000000 0.000000 0.000000 0.000000 0.000000 0.026842
#
#
# Mechanical properties :
#
#
# Convention : Reuss Voigt Hill
#
# Bulk Modulus (GPa) = 44.25181 53.39851 48.82516
# Shear Modulus (GPa) = 30.29012 32.12587 31.20799
#
# Velocity S-wave (km/s) = 3.96361 4.08195 4.02321
# Velocity P-wave (km/s) = 6.62559 7.06484 6.84874
#
# Compressibility (1/GPa) = 0.02259795
#
# Stress axis : x y z
#
# Youngs Moduli (GPa) = 91.58453 81.72875 44.97375
#
# Poissons Ratio (x) = 0.34450 0.13891
# Poissons Ratio (y) = 0.38604 0.18404
# Poissons Ratio (z) = 0.28287 0.33444
#
# Static dielectric constant tensor:
#      x y z
#    x 3.644450 0.000000 0.000000 
#    y 0.000000 3.684850 0.000000 
#    z 0.000000 0.000000 3.336620 
# 
# 
# High freq. dielectric constant tensor:
#      x y z
#    x 1.771240 0.000000 0.000000 
#    y 0.000000 1.765980 0.000000 
#    z 0.000000 0.000000 1.731920 
# 
# From -- ./inp_files/23733.got.cif
#   From: 2010.03.12/outbox.cif.g09.slc.cpg/sg42_12_cif.got.tgz:23733.got - 2010.04.14 02:04:31.
