data_PCOD8186669
_publ_section_title
;
Structure prediction by ZEFSAII (Michael W. Deem and Ramdas Pophale) SiO2 
 PCOD8186669
Probable space group: F M M 2
;
_chemical_formula_sum "Si O2"
_cell_formula_units_Z 112
_cell_length_a 15.046139
_cell_length_b 14.614103
_cell_length_c 23.775186
_cell_angle_alpha 90.000000
_cell_angle_beta 90.000000
_cell_angle_gamma 90.000000
_cell_volume 5227.826390
_symmetry_space_group_name_H-M "F M M 2"
_symmetry_group_IT_number 42
_symmetry_cell_setting 'orthorhombic'
loop_
_space_group_symop_operation_xyz
x,y,z
-x,-y,z
-x,y,z
x,-y,z
x,1/2+y,1/2+z
-x,1/2-y,1/2+z
-x,1/2+y,1/2+z
x,1/2-y,1/2+z
1/2+x,y,1/2+z
1/2-x,-y,1/2+z
1/2-x,y,1/2+z
1/2+x,-y,1/2+z
1/2+x,1/2+y,z
1/2-x,1/2-y,z
1/2-x,1/2+y,z
1/2+x,1/2-y,z
loop_
_atom_site_type_symbol
_atom_site_label
_atom_site_fract_x
_atom_site_fract_y
_atom_site_fract_z
Si Si1 0.273974 0.108432 0.170220
Si Si2 0.099220 0.393096 0.611730
Si Si3 0.902192 0.600197 0.838741
Si Si4 0.100327 0.709513 0.385737
Si Si5 0.852148 0.230516 0.009291
Si Si6 0.599050 0.102182 0.071959
Si Si7 0.786057 0.104436 0.793188
O O1 0.173524 0.141777 0.156183
O O2 0.339623 0.143865 0.121504
O O3 0.307216 0.144999 0.231105
O O4 0.277313 0.000000 0.173654
O O5 0.113033 0.500000 0.599561
O O6 0.111202 0.343006 0.552732
O O7 0.000000 0.373173 0.635553
O O8 0.895463 0.500000 0.868559
O O9 0.892764 0.680356 0.884212
O O10 0.821360 0.609686 0.795178
O O11 0.000000 0.608652 0.808699
O O12 0.128318 0.685258 0.448844
O O13 0.166825 0.664814 0.340758
O O14 0.000000 0.675462 0.373142
O O15 0.750000 0.250000 0.017785
O O16 0.899273 0.329018 0.018952
O O17 0.500000 0.096955 0.096421
O O18 0.630967 0.000000 0.053612
O O19 0.818997 0.000000 0.800902
#
# Coordination Sequence:
#
# PCOD8186669 Si02
#       7
#    16  16  16  16  16  16  16
#     4   9  19  38  62  90 121 158 205 253 307 369
#     4  10  21  39  62  91 129 168 207 256 315 375
#     4   9  19  38  61  85 116 157 205 255 305 358
#     4  11  24  41  60  89 128 164 207 259 309 373
#     4  12  23  39  64  90 124 167 206 260 309 370
#     4  10  21  39  62  89 122 159 205 260 312 361
#     4  10  21  39  64  90 122 163 205 252 310 377
#
# _framework density 21.423818000000001
#
# number of rings (size 3 to 8) (size 9 to 14) (size 15 to 20)
#    0.000    1.857    1.429    2.571    0.000    2.571 
#    5.143    5.714    0.000    0.000    0.000    0.000 
#    0.000    0.000    0.000    0.000    0.000    0.000 
#
# Total GULP energy -346998.538735 kJ/mol
# GULP energy per Si atom -12392.804955 kJ/mol
# Density = 2.137506 g / cm^3
# Si number density = 21.423818 Si / 1000 Ang^3
#
#
#
# Elastic Constant Matrix: (Units=GPa)
#
#
# Indices 1 2 3 4 5 6 
#
# 1 136.2575 30.3263 42.0045 0.0000 0.0000 0.0000
# 2 30.3263 79.1660 41.7060 0.0000 0.0000 0.0000
# 3 42.0045 41.7060 134.0990 0.0000 0.0000 0.0000
# 4 0.0000 0.0000 0.0000 21.0469 0.0000 0.0000
# 5 0.0000 0.0000 0.0000 0.0000 20.9306 0.0000
# 6 0.0000 0.0000 0.0000 0.0000 0.0000 26.7735
#
#
#
# Elastic Compliance Matrix: (Units=1/GPa)
#
#
# Indices 1 2 3 4 5 6 
#
# 1 0.008432 -0.002199 -0.001957 0.000000 0.000000 0.000000
# 2 -0.002199 0.015680 -0.004188 0.000000 0.000000 0.000000
# 3 -0.001957 -0.004188 0.009373 0.000000 0.000000 0.000000
# 4 0.000000 0.000000 0.000000 0.047513 0.000000 0.000000
# 5 0.000000 0.000000 0.000000 0.000000 0.047777 0.000000
# 6 0.000000 0.000000 0.000000 0.000000 0.000000 0.037350
#
#
# Mechanical properties :
#
#
# Convention : Reuss Voigt Hill
#
# Bulk Modulus (GPa) = 59.53559 64.17737 61.85648
# Shear Modulus (GPa) = 26.53758 29.44925 27.99341
#
# Velocity S-wave (km/s) = 3.52333 3.71159 3.61868
# Velocity P-wave (km/s) = 6.66345 6.95622 6.81141
#
# Compressibility (1/GPa) = 0.01679668
#
# Stress axis : x y z
#
# Youngs Moduli (GPa) = 118.59844 63.77425 106.69222
#
# Poissons Ratio (x) = 0.14023 0.20883
# Poissons Ratio (y) = 0.26078 0.44682
# Poissons Ratio (z) = 0.23213 0.26708
#
# Static dielectric constant tensor:
#      x y z
#    x 4.162420 0.000000 0.000000 
#    y 0.000000 4.206530 0.000000 
#    z 0.000000 0.000000 3.702280 
# 
# 
# High freq. dielectric constant tensor:
#      x y z
#    x 1.855760 0.000000 0.000000 
#    y 0.000000 1.843370 0.000000 
#    z 0.000000 0.000000 1.812960 
# 
# From -- ./inp_files/29477.got.cif
#   From: 2010.03.12/outbox.cif.g09.slc.cpg/sg42_15_cif.got.tgz:29477.got - 2010.04.14 02:04:31.
