data_PCOD8186617
_publ_section_title
;
Structure prediction by ZEFSAII (Michael W. Deem and Ramdas Pophale) SiO2 
 PCOD8186617
Probable space group: F M M 2
;
_chemical_formula_sum "Si O2"
_cell_formula_units_Z 88
_cell_length_a 20.828860
_cell_length_b 9.441653
_cell_length_c 21.493873
_cell_angle_alpha 90.000000
_cell_angle_beta 90.000000
_cell_angle_gamma 90.000000
_cell_volume 4226.960744
_symmetry_space_group_name_H-M "F M M 2"
_symmetry_group_IT_number 42
_symmetry_cell_setting 'orthorhombic'
loop_
_space_group_symop_operation_xyz
x,y,z
-x,-y,z
-x,y,z
x,-y,z
x,1/2+y,1/2+z
-x,1/2-y,1/2+z
-x,1/2+y,1/2+z
x,1/2-y,1/2+z
1/2+x,y,1/2+z
1/2-x,-y,1/2+z
1/2-x,y,1/2+z
1/2+x,-y,1/2+z
1/2+x,1/2+y,z
1/2-x,1/2-y,z
1/2-x,1/2+y,z
1/2+x,1/2-y,z
loop_
_atom_site_type_symbol
_atom_site_label
_atom_site_fract_x
_atom_site_fract_y
_atom_site_fract_z
Si Si1 0.926439 0.166060 0.358230
Si Si2 0.191353 0.667774 0.943796
Si Si3 0.672297 0.343456 0.063430
Si Si4 0.626843 0.843125 0.246374
Si Si5 0.750000 0.750000 0.673848
Si Si6 0.927978 0.845593 0.617456
O O1 0.879113 0.202316 0.415813
O O2 0.892885 0.231607 0.298176
O O3 0.000000 0.221563 0.369957
O O4 0.928445 0.000000 0.346529
O O5 0.205152 0.500000 0.943885
O O6 0.250000 0.750000 0.907296
O O7 0.196073 0.728379 0.013560
O O8 0.666222 0.500000 0.033573
O O9 0.715799 0.357703 0.125630
O O10 0.603198 0.286821 0.083631
O O11 0.698227 0.822580 0.218630
O O12 0.575294 0.825898 0.191595
O O13 0.623778 0.000000 0.275843
O O14 0.000000 0.846855 0.594334
O O15 0.896371 0.000000 0.600246
#
# Coordination Sequence:
#
# PCOD8186617 Si02
#       6
#    16  16  16  16   8  16
#     4  10  24  45  65  89 125 168 210 257 316 375
#     4  11  24  42  65  91 123 163 210 260 315 375
#     4  11  22  37  61  90 122 159 204 256 308 368
#     4  10  21  37  61  90 122 162 209 257 308 368
#     4  10  22  38  58  90 130 166 200 250 314 380
#     4   9  19  36  57  84 121 163 203 248 310 375
#
# _framework density 20.818739999999998
#
# number of rings (size 3 to 8) (size 9 to 14) (size 15 to 20)
#    0.000    1.818    0.909    2.182    1.273    8.727 
#    0.000    1.818    0.000    0.000    0.000    0.000 
#    0.000    0.000    0.000    0.000    0.000    0.000 
#
# Total GULP energy -272553.789766 kJ/mol
# GULP energy per Si atom -12388.808626 kJ/mol
# Density = 2.077136 g / cm^3
# Si number density = 20.818740 Si / 1000 Ang^3
#
#
#
# Elastic Constant Matrix: (Units=GPa)
#
#
# Indices 1 2 3 4 5 6 
#
# 1 152.6880 48.1020 51.6704 0.0000 0.0000 0.0000
# 2 48.1020 98.2341 32.8942 0.0000 0.0000 0.0000
# 3 51.6704 32.8942 70.2979 0.0000 0.0000 0.0000
# 4 0.0000 0.0000 0.0000 26.3857 0.0000 0.0000
# 5 0.0000 0.0000 0.0000 0.0000 13.4166 0.0000
# 6 0.0000 0.0000 0.0000 0.0000 0.0000 22.8594
#
#
#
# Elastic Compliance Matrix: (Units=1/GPa)
#
#
# Indices 1 2 3 4 5 6 
#
# 1 0.009276 -0.002679 -0.005565 0.000000 0.000000 0.000000
# 2 -0.002679 0.012845 -0.004041 0.000000 0.000000 0.000000
# 3 -0.005565 -0.004041 0.020207 0.000000 0.000000 0.000000
# 4 0.000000 0.000000 0.000000 0.037899 0.000000 0.000000
# 5 0.000000 0.000000 0.000000 0.000000 0.074534 0.000000
# 6 0.000000 0.000000 0.000000 0.000000 0.000000 0.043746
#
#
# Mechanical properties :
#
#
# Convention : Reuss Voigt Hill
#
# Bulk Modulus (GPa) = 56.31418 65.17257 60.74337
# Shear Modulus (GPa) = 21.83440 25.10257 23.46848
#
# Velocity S-wave (km/s) = 3.24201 3.47618 3.36114
# Velocity P-wave (km/s) = 6.41269 6.89090 6.65609
#
# Compressibility (1/GPa) = 0.01775752
#
# Stress axis : x y z
#
# Youngs Moduli (GPa) = 107.80013 77.85235 49.48902
#
# Poissons Ratio (x) = 0.20856 0.27540
# Poissons Ratio (y) = 0.28879 0.20000
# Poissons Ratio (z) = 0.59989 0.31463
#
# Static dielectric constant tensor:
#      x y z
#    x 4.217460 0.000000 0.000000 
#    y 0.000000 3.849370 0.000000 
#    z 0.000000 0.000000 3.550730 
# 
# 
# High freq. dielectric constant tensor:
#      x y z
#    x 1.830550 0.000000 0.000000 
#    y 0.000000 1.812520 0.000000 
#    z 0.000000 0.000000 1.795280 
# 
# From -- ./inp_files/23520.got.cif
#   From: 2010.03.12/outbox.cif.g09.slc.cpg/sg42_12_cif.got.tgz:23520.got - 2010.04.14 02:04:31.
