data_PCOD8186243
_publ_section_title
;
Structure prediction by ZEFSAII (Michael W. Deem and Ramdas Pophale) SiO2 
 PCOD8186243
Probable space group: F M M 2
;
_chemical_formula_sum "Si O2"
_cell_formula_units_Z 96
_cell_length_a 25.174808
_cell_length_b 8.820789
_cell_length_c 23.411586
_cell_angle_alpha 90.000000
_cell_angle_beta 90.000000
_cell_angle_gamma 90.000000
_cell_volume 5198.815872
_symmetry_space_group_name_H-M "F M M 2"
_symmetry_group_IT_number 42
_symmetry_cell_setting 'orthorhombic'
loop_
_space_group_symop_operation_xyz
x,y,z
-x,-y,z
-x,y,z
x,-y,z
x,1/2+y,1/2+z
-x,1/2-y,1/2+z
-x,1/2+y,1/2+z
x,1/2-y,1/2+z
1/2+x,y,1/2+z
1/2-x,-y,1/2+z
1/2-x,y,1/2+z
1/2+x,-y,1/2+z
1/2+x,1/2+y,z
1/2-x,1/2-y,z
1/2-x,1/2+y,z
1/2+x,1/2-y,z
loop_
_atom_site_type_symbol
_atom_site_label
_atom_site_fract_x
_atom_site_fract_y
_atom_site_fract_z
Si Si1 0.805802 0.825808 0.802660
Si Si2 0.000000 0.821180 0.421649
Si Si3 0.401273 0.175684 0.849419
Si Si4 0.500000 0.673626 0.041923
Si Si5 0.559397 0.833592 0.243843
Si Si6 0.307205 0.177243 0.171073
Si Si7 0.090000 0.322283 0.632090
O O1 0.750000 0.750000 0.812659
O O2 0.845219 0.763753 0.852192
O O3 0.825875 0.794524 0.737061
O O4 0.796932 0.000000 0.813808
O O5 0.946050 0.756383 0.392225
O O6 0.000000 0.782232 0.487729
O O7 0.000000 0.000000 0.411786
O O8 0.418302 0.203398 0.784439
O O9 0.391368 0.000000 0.861261
O O10 0.500000 0.500000 0.021510
O O11 0.445350 0.707577 0.075850
O O12 0.500000 0.863647 0.262656
O O13 0.560113 0.772000 0.180178
O O14 0.589124 0.000000 0.248966
O O15 0.250000 0.250000 0.159767
O O16 0.349715 0.257391 0.128565
O O17 0.303748 0.000000 0.156732
O O18 0.091555 0.500000 0.646455
#
# Coordination Sequence:
#
# PCOD8186243 Si02
#       7
#    16   8  16   8  16  16  16
#     4  10  20  33  51  80 115 151 186 219 267 325
#     4  10  24  41  58  81 107 144 188 230 281 328
#     4  11  21  35  55  80 112 147 182 225 275 328
#     4  10  24  41  58  81 107 144 188 230 281 328
#     4  11  21  31  48  79 112 145 181 218 270 330
#     4  10  20  33  51  80 115 151 186 219 267 325
#     4  11  21  35  55  80 112 147 182 225 275 328
#
# _framework density 18.465744000000001
#
# number of rings (size 3 to 8) (size 9 to 14) (size 15 to 20)
#    0.000    1.500    3.333    2.500    0.000    4.667 
#    0.000    0.000    0.000    1.000    0.000    7.000 
#    0.000    0.000    0.000    0.000    0.000    0.000 
#
# Total GULP energy -297444.363960 kJ/mol
# GULP energy per Si atom -12393.515165 kJ/mol
# Density = 1.842372 g / cm^3
# Si number density = 18.465744 Si / 1000 Ang^3
#
#
#
# Elastic Constant Matrix: (Units=GPa)
#
#
# Indices 1 2 3 4 5 6 
#
# 1 134.3181 51.5490 42.8683 0.0000 0.0000 -0.0001
# 2 51.5490 92.3957 25.2360 0.0000 0.0000 0.0000
# 3 42.8683 25.2360 65.0127 0.0000 0.0000 0.0000
# 4 0.0000 0.0000 0.0000 24.1326 0.0000 0.0000
# 5 0.0000 0.0000 0.0000 0.0000 17.6150 0.0000
# 6 -0.0001 0.0000 0.0000 0.0000 0.0000 32.3504
#
#
#
# Elastic Compliance Matrix: (Units=1/GPa)
#
#
# Indices 1 2 3 4 5 6 
#
# 1 0.010953 -0.004629 -0.005425 0.000000 0.000000 0.000000
# 2 -0.004629 0.014063 -0.002406 0.000000 0.000000 0.000000
# 3 -0.005425 -0.002406 0.019893 0.000000 0.000000 0.000000
# 4 0.000000 0.000000 0.000000 0.041438 0.000000 0.000000
# 5 0.000000 0.000000 0.000000 0.000000 0.056770 0.000000
# 6 0.000000 0.000000 0.000000 0.000000 0.000000 0.030912
#
#
# Mechanical properties :
#
#
# Convention : Reuss Voigt Hill
#
# Bulk Modulus (GPa) = 50.03187 59.00368 54.51778
# Shear Modulus (GPa) = 24.31756 26.29115 25.30435
#
# Velocity S-wave (km/s) = 3.63285 3.77739 3.70583
# Velocity P-wave (km/s) = 6.68955 7.14474 6.92089
#
# Compressibility (1/GPa) = 0.01998726
#
# Stress axis : x y z
#
# Youngs Moduli (GPa) = 91.29807 71.10896 50.26844
#
# Poissons Ratio (x) = 0.32917 0.27273
# Poissons Ratio (y) = 0.42263 0.12097
# Poissons Ratio (z) = 0.49533 0.17112
#
# Static dielectric constant tensor:
#      x y z
#    x 3.689570 0.000000 0.000000 
#    y 0.000000 3.546720 0.000000 
#    z 0.000000 0.000000 2.946420 
# 
# 
# High freq. dielectric constant tensor:
#      x y z
#    x 1.740530 0.000000 0.000000 
#    y 0.000000 1.728640 0.000000 
#    z 0.000000 0.000000 1.659300 
# 
# From -- ./inp_files/30631.got.cif
#   From: 2010.03.12/outbox.cif.g09.slc.cpg/sg42_16_cif.got.tgz:30631.got - 2010.04.14 02:04:31.
