data_PCOD8186008
_publ_section_title
;
Structure prediction by ZEFSAII (Michael W. Deem and Ramdas Pophale) SiO2 
 PCOD8186008
Probable space group: F M M 2
;
_chemical_formula_sum "Si O2"
_cell_formula_units_Z 80
_cell_length_a 8.869807
_cell_length_b 28.222240
_cell_length_c 20.082671
_cell_angle_alpha 90.000000
_cell_angle_beta 90.000000
_cell_angle_gamma 90.000000
_cell_volume 5027.211124
_symmetry_space_group_name_H-M "F M M 2"
_symmetry_group_IT_number 42
_symmetry_cell_setting 'orthorhombic'
loop_
_space_group_symop_operation_xyz
x,y,z
-x,-y,z
-x,y,z
x,-y,z
x,1/2+y,1/2+z
-x,1/2-y,1/2+z
-x,1/2+y,1/2+z
x,1/2-y,1/2+z
1/2+x,y,1/2+z
1/2-x,-y,1/2+z
1/2-x,y,1/2+z
1/2+x,-y,1/2+z
1/2+x,1/2+y,z
1/2-x,1/2-y,z
1/2-x,1/2+y,z
1/2+x,1/2-y,z
loop_
_atom_site_type_symbol
_atom_site_label
_atom_site_fract_x
_atom_site_fract_y
_atom_site_fract_z
Si Si1 0.171900 0.553007 0.742220
Si Si2 0.324129 0.798865 0.059871
Si Si3 0.328236 0.358216 0.167922
Si Si4 0.176860 0.299180 0.905991
Si Si5 0.678008 0.636187 0.799948
O O1 0.234434 0.500000 0.729756
O O2 0.179090 0.583993 0.673552
O O3 0.273543 0.580409 0.797401
O O4 0.000000 0.551375 0.768283
O O5 0.500000 0.795143 0.073216
O O6 0.250000 0.750000 0.084261
O O7 0.256962 0.842294 0.101687
O O8 0.286541 0.808757 0.983118
O O9 0.500000 0.339952 0.166095
O O10 0.246670 0.337274 0.234461
O O11 0.250000 0.250000 0.882422
O O12 0.252083 0.341836 0.866170
O O13 0.000000 0.297101 0.891727
O O14 0.500000 0.641677 0.800897
#
# Coordination Sequence:
#
# PCOD8186008 Si02
#       5
#    16  16  16  16  16
#     4   8  16  32  52  73  97 126 158 197 247 292
#     4  10  20  33  50  71  98 131 165 199 239 287
#     4   9  18  32  50  73  98 127 162 199 241 287
#     4  10  20  34  50  70  98 132 166 199 241 288
#     4  10  19  31  49  75 100 126 163 202 240 284
#
# _framework density 15.913396000000001
#
# number of rings (size 3 to 8) (size 9 to 14) (size 15 to 20)
#    1.200    1.400    0.000    3.000    0.000    3.600 
#    0.000    4.000    0.000    1.200    0.000    5.600 
#    0.000    0.000    0.000    0.000    0.000    0.000 
#
# Total GULP energy -247831.550226 kJ/mol
# GULP energy per Si atom -12391.577511 kJ/mol
# Density = 1.587718 g / cm^3
# Si number density = 15.913396 Si / 1000 Ang^3
#
#
#
# Elastic Constant Matrix: (Units=GPa)
#
#
# Indices 1 2 3 4 5 6 
#
# 1 107.9939 48.9345 49.4508 0.0000 0.0000 0.0000
# 2 48.9345 107.4044 54.7343 0.0000 0.0000 0.0000
# 3 49.4508 54.7343 73.0230 0.0000 0.0000 0.0000
# 4 0.0000 0.0000 0.0000 13.0091 0.0000 0.0000
# 5 0.0000 0.0000 0.0000 0.0000 29.0579 0.0000
# 6 0.0000 0.0000 0.0000 0.0000 0.0000 24.9832
#
#
#
# Elastic Compliance Matrix: (Units=1/GPa)
#
#
# Indices 1 2 3 4 5 6 
#
# 1 0.013815 -0.002470 -0.007504 0.000000 0.000000 0.000000
# 2 -0.002470 0.015507 -0.009950 0.000000 0.000000 0.000000
# 3 -0.007504 -0.009950 0.026234 0.000000 0.000000 0.000000
# 4 0.000000 0.000000 0.000000 0.076869 0.000000 0.000000
# 5 0.000000 0.000000 0.000000 0.000000 0.034414 0.000000
# 6 0.000000 0.000000 0.000000 0.000000 0.000000 0.040027
#
#
# Mechanical properties :
#
#
# Convention : Reuss Voigt Hill
#
# Bulk Modulus (GPa) = 63.66519 66.07338 64.86929
# Shear Modulus (GPa) = 19.84510 22.43016 21.13763
#
# Velocity S-wave (km/s) = 3.53522 3.75842 3.64853
# Velocity P-wave (km/s) = 7.53378 7.77464 7.65516
#
# Compressibility (1/GPa) = 0.01570717
#
# Stress axis : x y z
#
# Youngs Moduli (GPa) = 72.38399 64.48769 38.11806
#
# Poissons Ratio (x) = 0.15930 0.28604
# Poissons Ratio (y) = 0.17880 0.37929
# Poissons Ratio (z) = 0.54317 0.64167
#
# Static dielectric constant tensor:
#      x y z
#    x 3.101290 0.000000 0.000000 
#    y 0.000000 2.931180 0.000000 
#    z 0.000000 0.000000 2.841920 
# 
# 
# High freq. dielectric constant tensor:
#      x y z
#    x 1.628220 0.000000 0.000000 
#    y 0.000000 1.593530 0.000000 
#    z 0.000000 0.000000 1.590030 
# 
# From -- ./inp_files/18307.got.cif
#   From: 2010.03.12/outbox.cif.g09.slc.cpg/sg42_10_cif.got.tgz:18307.got - 2010.04.14 02:04:31.
