data_PCOD8186725
_publ_section_title
;
Structure prediction by ZEFSAII (Michael W. Deem and Ramdas Pophale) SiO2 
 PCOD8186725
Probable space group: F M M 2
;
_chemical_formula_sum "Si O2"
_cell_formula_units_Z 64
_cell_length_a 8.017333
_cell_length_b 34.528071
_cell_length_c 10.346526
_cell_angle_alpha 90.000000
_cell_angle_beta 90.000000
_cell_angle_gamma 90.000000
_cell_volume 2864.156812
_symmetry_space_group_name_H-M "F M M 2"
_symmetry_group_IT_number 42
_symmetry_cell_setting 'orthorhombic'
loop_
_space_group_symop_operation_xyz
x,y,z
-x,-y,z
-x,y,z
x,-y,z
x,1/2+y,1/2+z
-x,1/2-y,1/2+z
-x,1/2+y,1/2+z
x,1/2-y,1/2+z
1/2+x,y,1/2+z
1/2-x,-y,1/2+z
1/2-x,y,1/2+z
1/2+x,-y,1/2+z
1/2+x,1/2+y,z
1/2-x,1/2-y,z
1/2-x,1/2+y,z
1/2+x,1/2-y,z
loop_
_atom_site_type_symbol
_atom_site_label
_atom_site_fract_x
_atom_site_fract_y
_atom_site_fract_z
Si Si1 0.194749 0.085778 0.117160
Si Si2 0.500000 0.768500 0.553908
Si Si3 0.184028 0.829223 0.192180
Si Si4 0.306369 0.957120 0.368060
Si Si5 0.500000 0.208798 0.277869
O O1 0.234180 0.131474 0.118698
O O2 0.282898 0.064998 0.235300
O O3 0.000000 0.077593 0.128033
O O4 0.271375 0.068089 0.985262
O O5 0.664323 0.794310 0.587722
O O6 0.500000 0.760910 0.398590
O O7 0.500000 0.729947 0.639663
O O8 0.334171 0.817930 0.289213
O O9 0.000000 0.834141 0.262058
O O10 0.500000 0.961808 0.394823
O O11 0.223271 0.000000 0.363723
#
# Coordination Sequence:
#
# PCOD8186725 Si02
#       5
#    16   8  16  16   8
#     4  10  22  41  63  93 131 166 214 269 318 379
#     4  10  26  46  66 102 133 170 226 266 327 402
#     4   9  24  43  65 103 129 175 222 268 321 396
#     4  10  22  39  63  92 128 170 214 265 323 384
#     4  12  24  48  72  94 139 178 210 280 331 384
#
# _framework density 22.345144999999999
#
# number of rings (size 3 to 8) (size 9 to 14) (size 15 to 20)
#    0.750    1.250    0.000    1.500    5.250    6.500 
#    2.250    0.000    0.000    0.000    0.000    0.000 
#    0.000    0.000    0.000    0.000    0.000    0.000 
#
# Total GULP energy -198256.344595 kJ/mol
# GULP energy per Si atom -12391.021537 kJ/mol
# Density = 2.229429 g / cm^3
# Si number density = 22.345145 Si / 1000 Ang^3
#
#
#
# Elastic Constant Matrix: (Units=GPa)
#
#
# Indices 1 2 3 4 5 6 
#
# 1 70.7958 13.7147 13.2547 0.0000 0.0000 0.0000
# 2 13.7147 96.5814 8.9362 0.0000 0.0000 0.0000
# 3 13.2547 8.9362 104.7412 0.0000 0.0000 0.0000
# 4 0.0000 0.0000 0.0000 35.1668 0.0000 0.0000
# 5 0.0000 0.0000 0.0000 0.0000 22.4323 0.0000
# 6 0.0000 0.0000 0.0000 0.0000 0.0000 22.2315
#
#
#
# Elastic Compliance Matrix: (Units=1/GPa)
#
#
# Indices 1 2 3 4 5 6 
#
# 1 0.014822 -0.001947 -0.001710 0.000000 0.000000 0.000000
# 2 -0.001947 0.010692 -0.000666 0.000000 0.000000 0.000000
# 3 -0.001710 -0.000666 0.009821 0.000000 0.000000 0.000000
# 4 0.000000 0.000000 0.000000 0.028436 0.000000 0.000000
# 5 0.000000 0.000000 0.000000 0.000000 0.044579 0.000000
# 6 0.000000 0.000000 0.000000 0.000000 0.000000 0.044981
#
#
# Mechanical properties :
#
#
# Convention : Reuss Voigt Hill
#
# Bulk Modulus (GPa) = 37.46644 38.21442 37.84043
# Shear Modulus (GPa) = 29.26175 31.71365 30.48770
#
# Velocity S-wave (km/s) = 3.62268 3.77140 3.69778
# Velocity P-wave (km/s) = 5.85678 6.00863 5.93319
#
# Compressibility (1/GPa) = 0.02669056
#
# Stress axis : x y z
#
# Youngs Moduli (GPa) = 67.46579 93.52793 101.82778
#
# Poissons Ratio (x) = 0.18206 0.17409
# Poissons Ratio (y) = 0.13133 0.06780
# Poissons Ratio (z) = 0.11534 0.06228
#
# Static dielectric constant tensor:
#      x y z
#    x 3.921150 0.000000 0.000000 
#    y 0.000000 4.863100 0.000000 
#    z 0.000000 0.000000 3.721450 
# 
# 
# High freq. dielectric constant tensor:
#      x y z
#    x 1.870310 0.000000 0.000000 
#    y 0.000000 1.889180 0.000000 
#    z 0.000000 0.000000 1.856640 
# 
# From -- ./inp_files/6256.got.cif
#   From: 2010.03.12/outbox.cif.g09.slc.cpg/sg42_4_cif.got.tgz:6256.got - 2010.04.14 02:04:31.
