data_PCOD8186000
_publ_section_title
;
Structure prediction by ZEFSAII (Michael W. Deem and Ramdas Pophale) SiO2 
 PCOD8186000
Probable space group: F M M 2
;
_chemical_formula_sum "Si O2"
_cell_formula_units_Z 96
_cell_length_a 9.023491
_cell_length_b 19.294940
_cell_length_c 31.205606
_cell_angle_alpha 90.000000
_cell_angle_beta 90.000000
_cell_angle_gamma 90.000000
_cell_volume 5433.136832
_symmetry_space_group_name_H-M "F M M 2"
_symmetry_group_IT_number 42
_symmetry_cell_setting 'orthorhombic'
loop_
_space_group_symop_operation_xyz
x,y,z
-x,-y,z
-x,y,z
x,-y,z
x,1/2+y,1/2+z
-x,1/2-y,1/2+z
-x,1/2+y,1/2+z
x,1/2-y,1/2+z
1/2+x,y,1/2+z
1/2-x,-y,1/2+z
1/2-x,y,1/2+z
1/2+x,-y,1/2+z
1/2+x,1/2+y,z
1/2-x,1/2-y,z
1/2-x,1/2+y,z
1/2+x,1/2-y,z
loop_
_atom_site_type_symbol
_atom_site_label
_atom_site_fract_x
_atom_site_fract_y
_atom_site_fract_z
Si Si1 0.676915 0.325284 0.141750
Si Si2 0.164052 0.082367 0.802538
Si Si3 0.325899 0.579934 0.897135
Si Si4 0.671785 0.823535 0.964773
Si Si5 0.327215 0.676460 0.559400
Si Si6 0.174459 0.078213 0.219188
O O1 0.500000 0.319133 0.139012
O O2 0.750000 0.250000 0.147982
O O3 0.741723 0.362226 0.098408
O O4 0.729944 0.373186 0.180878
O O5 0.219587 0.106900 0.849483
O O6 0.268303 0.109347 0.764324
O O7 0.000000 0.111825 0.793730
O O8 0.159901 0.000000 0.803639
O O9 0.500000 0.590854 0.904441
O O10 0.282250 0.500000 0.902996
O O11 0.234754 0.622545 0.931353
O O12 0.500000 0.810785 0.955576
O O13 0.750000 0.750000 0.959756
O O14 0.694335 0.857303 0.012385
O O15 0.500000 0.683944 0.571115
O O16 0.250000 0.750000 0.556545
O O17 0.000000 0.077632 0.221557
O O18 0.235049 0.000000 0.211684
#
# Coordination Sequence:
#
# PCOD8186000 Si02
#       6
#    16  16  16  16  16  16
#     4  10  19  31  49  71  95 123 156 194 234 280
#     4   8  15  29  49  71  94 123 158 193 232 281
#     4   9  18  33  52  74 100 129 162 200 242 289
#     4  10  20  33  51  74  99 128 163 202 243 289
#     4   9  17  30  48  69  93 123 159 195 232 280
#     4   9  18  32  49  70  95 123 157 195 233 276
#
# _framework density 17.669350999999999
#
# number of rings (size 3 to 8) (size 9 to 14) (size 15 to 20)
#    0.000    2.833    0.000    3.500    0.000    4.333 
#    0.000    3.333    0.000    5.000    0.000    0.000 
#    0.000    0.000    0.000    0.000    0.000    0.000 
#
# Total GULP energy -297390.412424 kJ/mol
# GULP energy per Si atom -12391.267184 kJ/mol
# Density = 1.762913 g / cm^3
# Si number density = 17.669351 Si / 1000 Ang^3
#
#
#
# Elastic Constant Matrix: (Units=GPa)
#
#
# Indices 1 2 3 4 5 6 
#
# 1 77.8253 36.7187 68.8915 0.0000 0.0000 0.0000
# 2 36.7187 53.2631 60.3277 0.0000 0.0000 0.0000
# 3 68.8915 60.3277 182.8288 0.0000 0.0000 0.0000
# 4 0.0000 0.0000 0.0000 32.4829 0.0000 0.0000
# 5 0.0000 0.0000 0.0000 0.0000 36.8810 0.0000
# 6 0.0000 0.0000 0.0000 0.0000 0.0000 23.4753
#
#
#
# Elastic Compliance Matrix: (Units=1/GPa)
#
#
# Indices 1 2 3 4 5 6 
#
# 1 0.021738 -0.009115 -0.005184 0.000000 0.000000 0.000000
# 2 -0.009115 0.033801 -0.007719 0.000000 0.000000 0.000000
# 3 -0.005184 -0.007719 0.009970 0.000000 0.000000 0.000000
# 4 0.000000 0.000000 0.000000 0.030785 0.000000 0.000000
# 5 0.000000 0.000000 0.000000 0.000000 0.027114 0.000000
# 6 0.000000 0.000000 0.000000 0.000000 0.000000 0.042598
#
#
# Mechanical properties :
#
#
# Convention : Reuss Voigt Hill
#
# Bulk Modulus (GPa) = 46.56665 71.75478 59.16072
# Shear Modulus (GPa) = 23.02037 28.43313 25.72675
#
# Velocity S-wave (km/s) = 3.61341 4.01581 3.81991
# Velocity P-wave (km/s) = 6.61971 7.88671 7.28082
#
# Compressibility (1/GPa) = 0.02147459
#
# Stress axis : x y z
#
# Youngs Moduli (GPa) = 46.00162 29.58505 100.30405
#
# Poissons Ratio (x) = 0.26967 0.51993
# Poissons Ratio (y) = 0.41931 0.77421
# Poissons Ratio (z) = 0.23845 0.22835
#
# Static dielectric constant tensor:
#      x y z
#    x 3.322450 0.000000 0.000000 
#    y 0.000000 2.841210 0.000000 
#    z 0.000000 0.000000 4.001280 
# 
# 
# High freq. dielectric constant tensor:
#      x y z
#    x 1.688250 0.000000 0.000000 
#    y 0.000000 1.635590 0.000000 
#    z 0.000000 0.000000 1.706430 
# 
# From -- ./inp_files/28038.got.cif
#   From: 2010.03.12/outbox.cif.g09.slc.cpg/sg42_15_cif.got.tgz:28038.got - 2010.04.14 02:04:31.
