data_PCOD8186977
_publ_section_title
;
Structure prediction by ZEFSAII (Michael W. Deem and Ramdas Pophale) SiO2 
 PCOD8186977
Probable space group: F D D 2
;
_chemical_formula_sum "Si O2"
_cell_formula_units_Z 96
_cell_length_a 10.891659
_cell_length_b 27.844789
_cell_length_c 15.303175
_cell_angle_alpha 90.000000
_cell_angle_beta 90.000000
_cell_angle_gamma 90.000000
_cell_volume 4641.084886
_symmetry_space_group_name_H-M "F D D 2"
_symmetry_group_IT_number 43
_symmetry_cell_setting 'orthorhombic'
loop_
_space_group_symop_operation_xyz
x,y,z
-x,-y,z
1/4-x,1/4+y,1/4+z
1/4+x,1/4-y,1/4+z
x,1/2+y,1/2+z
-x,1/2-y,1/2+z
1/4-x,3/4+y,3/4+z
1/4+x,3/4-y,3/4+z
1/2+x,y,1/2+z
1/2-x,-y,1/2+z
3/4-x,1/4+y,3/4+z
3/4+x,1/4-y,3/4+z
1/2+x,1/2+y,z
1/2-x,1/2-y,z
3/4-x,3/4+y,1/4+z
3/4+x,3/4-y,1/4+z
loop_
_atom_site_type_symbol
_atom_site_label
_atom_site_fract_x
_atom_site_fract_y
_atom_site_fract_z
Si Si1 0.417723 0.825850 0.106810
Si Si2 0.720636 0.425020 0.641953
Si Si3 0.050531 0.069099 0.592299
Si Si4 0.750000 0.250000 0.201507
Si Si5 0.391596 0.913811 0.486662
Si Si6 0.500000 0.000000 0.396026
Si Si7 0.325824 0.983199 0.243121
O O1 0.373274 0.880707 0.085733
O O2 0.315214 0.789122 0.140556
O O3 0.522399 0.830837 0.177975
O O4 0.470350 0.804815 0.016622
O O5 0.596650 0.422202 0.582672
O O6 0.710786 0.386092 0.719258
O O7 0.843589 0.415637 0.585912
O O8 0.738578 0.476372 0.685853
O O9 0.070567 0.044679 0.687014
O O10 0.089965 0.031707 0.515249
O O11 0.488679 0.954957 0.460995
O O12 0.617704 0.995103 0.332389
#
# Coordination Sequence:
#
# PCOD8186977 Si02
#       7
#    16  16  16   8  16   8  16
#     4  10  23  32  59  89 124 154 204 248 306 362
#     4  11  19  34  58  91 118 155 197 253 294 360
#     4  11  19  34  60  92 115 156 204 255 297 361
#     4  12  19  40  59  88 124 160 200 256 301 360
#     4  10  21  33  58  92 121 153 202 251 301 353
#     4  10  19  34  53  86 120 158 192 248 295 356
#     4  11  19  35  57  86 119 157 199 245 299 350
#
# _framework density 20.684819000000001
#
# number of rings (size 3 to 8) (size 9 to 14) (size 15 to 20)
#    0.000    1.333    5.000    2.000    9.333    0.000 
#    0.000    0.833   18.333    0.000    0.000    0.000 
#    0.000    0.000    0.000    0.000    0.000    0.000 
#
# Total GULP energy -297466.988433 kJ/mol
# GULP energy per Si atom -12394.457851 kJ/mol
# Density = 2.063774 g / cm^3
# Si number density = 20.684819 Si / 1000 Ang^3
#
#
#
# Elastic Constant Matrix: (Units=GPa)
#
#
# Indices 1 2 3 4 5 6 
#
# 1 38.1244 40.7010 41.6056 0.0000 0.0000 0.0000
# 2 40.7010 180.1592 58.7216 0.0000 0.0000 0.0000
# 3 41.6056 58.7216 90.2966 0.0000 0.0000 0.0000
# 4 0.0000 0.0000 0.0000 21.8278 0.0000 0.0000
# 5 0.0000 0.0000 0.0000 0.0000 31.0130 0.0000
# 6 0.0000 0.0000 0.0000 0.0000 0.0000 26.0058
#
#
#
# Elastic Compliance Matrix: (Units=1/GPa)
#
#
# Indices 1 2 3 4 5 6 
#
# 1 0.056681 -0.005447 -0.022574 0.000000 0.000000 0.000000
# 2 -0.005447 0.007567 -0.002411 0.000000 0.000000 0.000000
# 3 -0.022574 -0.002411 0.023044 0.000000 0.000000 0.000000
# 4 0.000000 0.000000 0.000000 0.045813 0.000000 0.000000
# 5 0.000000 0.000000 0.000000 0.000000 0.032245 0.000000
# 6 0.000000 0.000000 0.000000 0.000000 0.000000 0.038453
#
#
# Mechanical properties :
#
#
# Convention : Reuss Voigt Hill
#
# Bulk Modulus (GPa) = 37.84031 65.62631 51.73331
# Shear Modulus (GPa) = 18.28311 26.93945 22.61128
#
# Velocity S-wave (km/s) = 2.97625 3.61276 3.30984
# Velocity P-wave (km/s) = 5.49038 7.01416 6.29852
#
# Compressibility (1/GPa) = 0.02642684
#
# Stress axis : x y z
#
# Youngs Moduli (GPa) = 17.64269 132.14963 43.39523
#
# Poissons Ratio (x) = 0.71986 0.97961
# Poissons Ratio (y) = 0.09610 0.10463
# Poissons Ratio (z) = 0.39827 0.31863
#
# Static dielectric constant tensor:
#      x y z
#    x 3.260890 0.000000 0.000000 
#    y 0.000000 4.337670 0.000000 
#    z 0.000000 0.000000 3.712180 
# 
# 
# High freq. dielectric constant tensor:
#      x y z
#    x 1.746340 0.000000 0.000000 
#    y 0.000000 1.836180 0.000000 
#    z 0.000000 0.000000 1.796260 
# 
# From -- ./inp_files/9743.got.cif
#   From: 2010.06.25/outbox.cif.g09.slc.cpg/sg43_5_cif.got.tgz:9743.got - 2010.06.26 16:48:59.
