data_PCOD8186392
_publ_section_title
;
Structure prediction by ZEFSAII (Michael W. Deem and Ramdas Pophale) SiO2 
 PCOD8186392
Probable space group: F M M 2
;
_chemical_formula_sum "Si O2"
_cell_formula_units_Z 96
_cell_length_a 16.443614
_cell_length_b 22.204061
_cell_length_c 12.694202
_cell_angle_alpha 90.000000
_cell_angle_beta 90.000000
_cell_angle_gamma 90.000000
_cell_volume 4634.843669
_symmetry_space_group_name_H-M "F M M 2"
_symmetry_group_IT_number 42
_symmetry_cell_setting 'orthorhombic'
loop_
_space_group_symop_operation_xyz
x,y,z
-x,-y,z
-x,y,z
x,-y,z
x,1/2+y,1/2+z
-x,1/2-y,1/2+z
-x,1/2+y,1/2+z
x,1/2-y,1/2+z
1/2+x,y,1/2+z
1/2-x,-y,1/2+z
1/2-x,y,1/2+z
1/2+x,-y,1/2+z
1/2+x,1/2+y,z
1/2-x,1/2-y,z
1/2-x,1/2+y,z
1/2+x,1/2-y,z
loop_
_atom_site_type_symbol
_atom_site_label
_atom_site_fract_x
_atom_site_fract_y
_atom_site_fract_z
Si Si1 0.406535 0.781863 0.626760
Si Si2 0.092831 0.392324 0.753489
Si Si3 0.093281 0.350807 0.145170
Si Si4 0.658349 0.892551 0.534567
Si Si5 0.161662 0.429483 0.971222
Si Si6 0.406101 0.565517 0.821990
O O1 0.500000 0.778194 0.586401
O O2 0.404049 0.819193 0.737967
O O3 0.366340 0.715569 0.636733
O O4 0.353094 0.819800 0.541881
O O5 0.128014 0.422075 0.645185
O O6 0.000000 0.413978 0.772593
O O7 0.149399 0.413525 0.849041
O O8 0.099067 0.389691 0.038749
O O9 0.136042 0.387044 0.241604
O O10 0.000000 0.338957 0.172640
O O11 0.749496 0.910890 0.508867
O O12 0.600628 0.915563 0.442393
O O13 0.145841 0.500000 0.990767
O O14 0.500000 0.560754 0.791256
O O15 0.364440 0.500000 0.805658
#
# Coordination Sequence:
#
# PCOD8186392 Si02
#       6
#    16  16  16  16  16  16
#     4   8  18  41  68  93 118 159 218 266 312 372
#     4   9  21  44  68  94 123 166 222 266 310 376
#     4  10  22  40  63  92 127 165 207 260 316 379
#     4  10  22  41  63  92 125 162 210 266 319 370
#     4  12  26  39  60  94 132 170 207 256 319 379
#     4  10  20  35  59  89 123 166 210 254 311 380
#
# _framework density 20.712672999999999
#
# number of rings (size 3 to 8) (size 9 to 14) (size 15 to 20)
#    1.000    1.167    0.000    2.500    2.333    5.333 
#    0.000    3.333    0.000    0.000    0.000    0.000 
#    0.000    0.000    0.000    0.000    0.000    0.000 
#
# Total GULP energy -297377.650900 kJ/mol
# GULP energy per Si atom -12390.735454 kJ/mol
# Density = 2.066553 g / cm^3
# Si number density = 20.712673 Si / 1000 Ang^3
#
#
#
# Elastic Constant Matrix: (Units=GPa)
#
#
# Indices 1 2 3 4 5 6 
#
# 1 53.7461 24.0568 21.6778 0.0000 0.0000 0.0000
# 2 24.0568 167.7378 41.6392 0.0000 0.0000 0.0000
# 3 21.6778 41.6392 113.8156 0.0000 0.0000 0.0000
# 4 0.0000 0.0000 0.0000 26.3083 0.0000 0.0000
# 5 0.0000 0.0000 0.0000 0.0000 26.7742 0.0000
# 6 0.0000 0.0000 0.0000 0.0000 0.0000 8.6947
#
#
#
# Elastic Compliance Matrix: (Units=1/GPa)
#
#
# Indices 1 2 3 4 5 6 
#
# 1 0.020872 -0.002207 -0.003168 0.000000 0.000000 0.000000
# 2 -0.002207 0.006791 -0.002064 0.000000 0.000000 0.000000
# 3 -0.003168 -0.002064 0.010145 0.000000 0.000000 0.000000
# 4 0.000000 0.000000 0.000000 0.038011 0.000000 0.000000
# 5 0.000000 0.000000 0.000000 0.000000 0.037349 0.000000
# 6 0.000000 0.000000 0.000000 0.000000 0.000000 0.115013
#
#
# Mechanical properties :
#
#
# Convention : Reuss Voigt Hill
#
# Bulk Modulus (GPa) = 43.61270 56.67189 50.14229
# Shear Modulus (GPa) = 19.94414 28.88382 24.41398
#
# Velocity S-wave (km/s) = 3.10642 3.73835 3.43694
# Velocity P-wave (km/s) = 5.82823 6.78631 6.32544
#
# Compressibility (1/GPa) = 0.02292910
#
# Stress axis : x y z
#
# Youngs Moduli (GPa) = 47.91207 147.26308 98.57453
#
# Poissons Ratio (x) = 0.32501 0.31227
# Poissons Ratio (y) = 0.10574 0.20345
# Poissons Ratio (z) = 0.15178 0.30395
#
# Static dielectric constant tensor:
#      x y z
#    x 3.463590 0.000000 0.000000 
#    y 0.000000 4.046320 0.000000 
#    z 0.000000 0.000000 3.679990 
# 
# 
# High freq. dielectric constant tensor:
#      x y z
#    x 1.791330 0.000000 0.000000 
#    y 0.000000 1.814950 0.000000 
#    z 0.000000 0.000000 1.802210 
# 
# From -- ./inp_files/8807.got.cif
#   From: 2010.03.12/outbox.cif.g09.slc.cpg/sg42_5_cif.got.tgz:8807.got - 2010.04.14 02:04:31.
