data_PCOD8186551
_publ_section_title
;
Structure prediction by ZEFSAII (Michael W. Deem and Ramdas Pophale) SiO2 
 PCOD8186551
Probable space group: F M M 2
;
_chemical_formula_sum "Si O2"
_cell_formula_units_Z 104
_cell_length_a 28.322079
_cell_length_b 22.644060
_cell_length_c 8.500640
_cell_angle_alpha 90.000000
_cell_angle_beta 90.000000
_cell_angle_gamma 90.000000
_cell_volume 5451.688727
_symmetry_space_group_name_H-M "F M M 2"
_symmetry_group_IT_number 42
_symmetry_cell_setting 'orthorhombic'
loop_
_space_group_symop_operation_xyz
x,y,z
-x,-y,z
-x,y,z
x,-y,z
x,1/2+y,1/2+z
-x,1/2-y,1/2+z
-x,1/2+y,1/2+z
x,1/2-y,1/2+z
1/2+x,y,1/2+z
1/2-x,-y,1/2+z
1/2-x,y,1/2+z
1/2+x,-y,1/2+z
1/2+x,1/2+y,z
1/2-x,1/2-y,z
1/2-x,1/2+y,z
1/2+x,1/2-y,z
loop_
_atom_site_type_symbol
_atom_site_label
_atom_site_fract_x
_atom_site_fract_y
_atom_site_fract_z
Si Si1 0.681589 0.066354 0.426630
Si Si2 0.397498 0.282168 0.289348
Si Si3 0.000000 0.775461 0.256681
Si Si4 0.772284 0.933294 0.595947
Si Si5 0.897591 0.836580 0.951499
Si Si6 0.306216 0.320368 0.443878
Si Si7 0.750000 0.250000 0.193657
Si Si8 0.000000 0.666833 0.433849
O O1 0.715720 0.076932 0.576544
O O2 0.714352 0.077941 0.275658
O O3 0.638668 0.111038 0.428158
O O4 0.660816 0.000000 0.426098
O O5 0.451521 0.301989 0.332085
O O6 0.392546 0.210917 0.310057
O O7 0.386505 0.300936 0.110914
O O8 0.361506 0.313618 0.407648
O O9 0.000000 0.704442 0.273860
O O10 0.000000 0.783715 0.070400
O O11 0.800012 0.889082 0.481759
O O12 0.785201 0.000000 0.542299
O O13 0.950120 0.867912 0.949421
O O14 0.274059 0.301294 0.296153
O O15 0.291232 0.279787 0.591366
#
# Coordination Sequence:
#
# PCOD8186551 Si02
#       8
#    16  16   8  16  16  16   8   8
#     4  10  23  41  58  77 108 146 188 227 266 319
#     4  10  21  33  56  83 113 144 177 220 277 323
#     4   8  16  34  50  76 111 143 177 215 260 331
#     4  10  23  40  57  75 106 149 189 226 260 317
#     4  10  21  36  57  85 111 145 179 224 272 328
#     4  11  22  36  52  80 109 146 178 224 270 329
#     4  10  24  34  50  78 120 140 174 220 282 324
#     4   8  16  34  55  78 111 139 178 219 268 321
#
# _framework density 19.076658999999999
#
# number of rings (size 3 to 8) (size 9 to 14) (size 15 to 20)
#    0.000    2.154    0.000    1.846   12.923    0.000 
#    0.000    0.385    0.000    0.000    0.000    2.692 
#    0.000    0.000    0.000    0.000    0.000    0.000 
#
# Total GULP energy -322184.975394 kJ/mol
# GULP energy per Si atom -12391.729823 kJ/mol
# Density = 1.903324 g / cm^3
# Si number density = 19.076659 Si / 1000 Ang^3
#
#
#
# Elastic Constant Matrix: (Units=GPa)
#
#
# Indices 1 2 3 4 5 6 
#
# 1 148.1364 72.4637 48.6404 -0.0024 0.0008 0.0006
# 2 72.4637 103.1042 40.3670 0.0068 0.0000 -0.0011
# 3 48.6404 40.3670 78.0082 0.0102 -0.0025 -0.0009
# 4 -0.0024 0.0068 0.0102 20.6354 -0.0031 -0.0017
# 5 0.0008 0.0000 -0.0025 -0.0031 20.9161 0.0003
# 6 0.0006 -0.0011 -0.0009 -0.0017 0.0003 25.8825
#
#
#
# Elastic Compliance Matrix: (Units=1/GPa)
#
#
# Indices 1 2 3 4 5 6 
#
# 1 0.011037 -0.006349 -0.003597 0.000005 -0.000001 -0.000001
# 2 -0.006349 0.015815 -0.004225 -0.000004 0.000000 0.000001
# 3 -0.003597 -0.004225 0.017248 -0.000008 0.000002 0.000001
# 4 0.000005 -0.000004 -0.000008 0.048460 0.000007 0.000003
# 5 -0.000001 0.000000 0.000002 0.000007 0.047810 -0.000001
# 6 -0.000001 0.000001 0.000001 0.000003 -0.000001 0.038636
#
#
# Mechanical properties :
#
#
# Convention : Reuss Voigt Hill
#
# Bulk Modulus (GPa) = 63.45530 72.46566 67.96048
# Shear Modulus (GPa) = 23.51811 24.67198 24.09504
#
# Velocity S-wave (km/s) = 3.51496 3.60016 3.55782
# Velocity P-wave (km/s) = 7.05754 7.43980 7.25119
#
# Compressibility (1/GPa) = 0.01575913
#
# Stress axis : x y z
#
# Youngs Moduli (GPa) = 90.60236 63.22945 57.97726
#
# Poissons Ratio (x) = 0.40145 0.20852
# Poissons Ratio (y) = 0.57524 0.24496
# Poissons Ratio (z) = 0.32586 0.26716
#
# Static dielectric constant tensor:
#      x y z
#    x 3.780900 0.000000 0.000000 
#    y 0.000000 3.313410 -0.000010 
#    z 0.000000 -0.000010 3.632970 
# 
# 
# High freq. dielectric constant tensor:
#      x y z
#    x 1.750120 0.000000 0.000000 
#    y 0.000000 1.708040 0.000000 
#    z 0.000000 0.000000 1.746500 
# 
# From -- ./inp_files/5627.got.cif
#   From: 2010.03.12/outbox.cif.g09.slc.cpg/sg42_3_cif.got.tgz:5627.got - 2010.04.14 02:04:31.
