data_PCOD8186222
_publ_section_title
;
Structure prediction by ZEFSAII (Michael W. Deem and Ramdas Pophale) SiO2 
 PCOD8186222
Probable space group: F M M 2
;
_chemical_formula_sum "Si O2"
_cell_formula_units_Z 112
_cell_length_a 18.704461
_cell_length_b 9.566158
_cell_length_c 36.144798
_cell_angle_alpha 90.000000
_cell_angle_beta 90.000000
_cell_angle_gamma 90.000000
_cell_volume 6467.382534
_symmetry_space_group_name_H-M "F M M 2"
_symmetry_group_IT_number 42
_symmetry_cell_setting 'orthorhombic'
loop_
_space_group_symop_operation_xyz
x,y,z
-x,-y,z
-x,y,z
x,-y,z
x,1/2+y,1/2+z
-x,1/2-y,1/2+z
-x,1/2+y,1/2+z
x,1/2-y,1/2+z
1/2+x,y,1/2+z
1/2-x,-y,1/2+z
1/2-x,y,1/2+z
1/2+x,-y,1/2+z
1/2+x,1/2+y,z
1/2-x,1/2-y,z
1/2-x,1/2+y,z
1/2+x,1/2-y,z
loop_
_atom_site_type_symbol
_atom_site_label
_atom_site_fract_x
_atom_site_fract_y
_atom_site_fract_z
Si Si1 0.585203 0.155638 0.005490
Si Si2 0.079976 0.334698 0.299032
Si Si3 0.578590 0.166124 0.085978
Si Si4 0.917920 0.662229 0.437528
Si Si5 0.823296 0.834890 0.866986
Si Si6 0.179459 0.838319 0.733376
Si Si7 0.180226 0.662059 0.149884
O O1 0.500000 0.153793 0.007172
O O2 0.612455 0.208476 0.045954
O O3 0.614306 0.000000 0.996963
O O4 0.612672 0.257186 0.973271
O O5 0.073246 0.500000 0.301576
O O6 0.129477 0.281478 0.332504
O O7 0.116149 0.288508 0.260431
O O8 0.000000 0.269203 0.301451
O O9 0.500000 0.232630 0.090384
O O10 0.624037 0.222358 0.120417
O O11 0.573127 0.000000 0.087411
O O12 0.912844 0.500000 0.446873
O O13 0.868641 0.703044 0.403200
O O14 0.000000 0.704545 0.428494
O O15 0.750000 0.750000 0.867534
O O16 0.806735 0.000000 0.864475
O O17 0.250000 0.750000 0.741935
O O18 0.151441 0.814807 0.691578
O O19 0.199166 0.000000 0.740466
O O20 0.197514 0.500000 0.142717
O O21 0.250000 0.750000 0.143027
#
# Coordination Sequence:
#
# PCOD8186222 Si02
#       7
#    16  16  16  16  16  16  16
#     4   8  14  26  45  67  89 115 147 184 227 269
#     4   9  17  30  49  72  94 116 148 188 224 260
#     4   8  14  26  45  67  89 115 150 189 225 262
#     4   9  17  30  48  68  89 115 149 187 225 265
#     4  10  20  33  49  68  92 122 151 181 221 267
#     4   9  17  29  47  69  92 120 151 183 221 264
#     4   9  17  29  45  66  92 121 151 183 221 265
#
# _framework density 17.31767
#
# number of rings (size 3 to 8) (size 9 to 14) (size 15 to 20)
#    0.000    3.143    0.000    1.714    0.000    2.857 
#    0.000    4.286    0.000    7.286    0.000    4.000 
#    0.000    0.000    0.000    0.000    0.000    0.000 
#
# Total GULP energy -347055.731927 kJ/mol
# GULP energy per Si atom -12394.847569 kJ/mol
# Density = 1.727825 g / cm^3
# Si number density = 17.317670 Si / 1000 Ang^3
#
#
#
# Elastic Constant Matrix: (Units=GPa)
#
#
# Indices 1 2 3 4 5 6 
#
# 1 108.7641 39.2319 89.3426 0.0000 0.0000 0.0000
# 2 39.2319 37.8193 47.7503 0.0000 0.0000 0.0000
# 3 89.3426 47.7503 171.7463 0.0000 0.0000 0.0000
# 4 0.0000 0.0000 0.0000 22.2679 0.0000 0.0000
# 5 0.0000 0.0000 0.0000 0.0000 19.1686 0.0000
# 6 0.0000 0.0000 0.0000 0.0000 0.0000 22.1824
#
#
#
# Elastic Compliance Matrix: (Units=1/GPa)
#
#
# Indices 1 2 3 4 5 6 
#
# 1 0.018571 -0.010890 -0.006633 0.000000 0.000000 0.000000
# 2 -0.010890 0.047130 -0.007439 0.000000 0.000000 0.000000
# 3 -0.006633 -0.007439 0.011341 0.000000 0.000000 0.000000
# 4 0.000000 0.000000 0.000000 0.044908 0.000000 0.000000
# 5 0.000000 0.000000 0.000000 0.000000 0.052169 0.000000
# 6 0.000000 0.000000 0.000000 0.000000 0.000000 0.045081
#
#
# Mechanical properties :
#
#
# Convention : Reuss Voigt Hill
#
# Bulk Modulus (GPa) = 36.87408 74.55326 55.71367
# Shear Modulus (GPa) = 17.97522 22.19078 20.08300
#
# Velocity S-wave (km/s) = 3.22525 3.58354 3.40911
# Velocity P-wave (km/s) = 5.93368 7.76313 6.90923
#
# Compressibility (1/GPa) = 0.02711932
#
# Stress axis : x y z
#
# Youngs Moduli (GPa) = 53.84850 21.21795 88.17513
#
# Poissons Ratio (x) = 0.23106 0.58485
# Poissons Ratio (y) = 0.58640 0.65590
# Poissons Ratio (z) = 0.35717 0.15783
#
# Static dielectric constant tensor:
#      x y z
#    x 3.217090 0.000000 0.000000 
#    y 0.000000 2.972240 0.000000 
#    z 0.000000 0.000000 3.601000 
# 
# 
# High freq. dielectric constant tensor:
#      x y z
#    x 1.649860 0.000000 0.000000 
#    y 0.000000 1.634060 0.000000 
#    z 0.000000 0.000000 1.688590 
# 
# From -- ./inp_files/34164.got.cif
#   From: 2010.03.12/outbox.cif.g09.slc.cpg/sg42_18_cif.got.tgz:34164.got - 2010.04.14 02:04:31.
