data_PCOD8186926
_publ_section_title
;
Structure prediction by ZEFSAII (Michael W. Deem and Ramdas Pophale) SiO2 
 PCOD8186926
Probable space group: F D D 2
;
_chemical_formula_sum "Si O2"
_cell_formula_units_Z 120
_cell_length_a 10.696134
_cell_length_b 27.994231
_cell_length_c 21.110775
_cell_angle_alpha 90.000000
_cell_angle_beta 90.000000
_cell_angle_gamma 90.000000
_cell_volume 6321.200329
_symmetry_space_group_name_H-M "F D D 2"
_symmetry_group_IT_number 43
_symmetry_cell_setting 'orthorhombic'
loop_
_space_group_symop_operation_xyz
x,y,z
-x,-y,z
1/4-x,1/4+y,1/4+z
1/4+x,1/4-y,1/4+z
x,1/2+y,1/2+z
-x,1/2-y,1/2+z
1/4-x,3/4+y,3/4+z
1/4+x,3/4-y,3/4+z
1/2+x,y,1/2+z
1/2-x,-y,1/2+z
3/4-x,1/4+y,3/4+z
3/4+x,1/4-y,3/4+z
1/2+x,1/2+y,z
1/2-x,1/2-y,z
3/4-x,3/4+y,1/4+z
3/4+x,3/4-y,1/4+z
loop_
_atom_site_type_symbol
_atom_site_label
_atom_site_fract_x
_atom_site_fract_y
_atom_site_fract_z
Si Si1 0.411104 0.961358 0.968410
Si Si2 0.002508 0.078493 0.033360
Si Si3 0.500000 0.000000 0.428346
Si Si4 0.051282 0.409708 0.865043
Si Si5 0.994920 0.260680 0.110139
Si Si6 0.576799 0.319295 0.019785
Si Si7 0.506060 0.809501 0.838171
Si Si8 0.879869 0.723380 0.386789
O O1 0.495261 0.921498 0.934167
O O2 0.500000 0.000000 0.002782
O O3 0.335871 0.986041 0.913195
O O4 0.316483 0.941557 0.019099
O O5 0.016708 0.134956 0.019931
O O6 0.887475 0.073880 0.081014
O O7 0.122447 0.058049 0.071715
O O8 0.974942 0.046782 0.971070
O O9 0.386538 0.985342 0.382892
O O10 0.180581 0.437499 0.848828
O O11 0.078736 0.352938 0.872400
O O12 0.955958 0.420739 0.807141
O O13 0.990898 0.227643 0.047603
O O14 0.600416 0.310879 0.945930
O O15 0.499323 0.759593 0.877148
O O16 0.750000 0.750000 0.398375
#
# Coordination Sequence:
#
# PCOD8186926 Si02
#       8
#    16  16   8  16  16  16  16  16
#     4   9  17  33  54  77 107 143 187 234 282 344
#     4  10  20  33  55  90 110 153 200 246 300 353
#     4  12  20  38  62  80 122 156 200 240 296 380
#     4   9  20  33  55  88 110 143 201 243 300 353
#     4  10  20  36  57  84 115 154 190 243 295 357
#     4  10  21  33  59  86 119 150 195 256 308 342
#     4  10  18  33  56  83 112 147 194 244 296 346
#     4  10  19  34  54  85 122 147 196 257 296 349
#
# _framework density 18.983736
#
# number of rings (size 3 to 8) (size 9 to 14) (size 15 to 20)
#    0.000    2.133    3.333    2.000    1.867    6.400 
#    0.000    1.333   10.267    0.000    0.000    0.000 
#    0.000    0.000    0.000    0.000    0.000    0.000 
#
# Total GULP energy -371716.367667 kJ/mol
# GULP energy per Si atom -12390.545589 kJ/mol
# Density = 1.894053 g / cm^3
# Si number density = 18.983736 Si / 1000 Ang^3
#
#
#
# Elastic Constant Matrix: (Units=GPa)
#
#
# Indices 1 2 3 4 5 6 
#
# 1 50.4377 41.1068 24.2302 0.0000 0.0000 0.0000
# 2 41.1068 140.0114 46.6588 0.0000 0.0000 0.0000
# 3 24.2302 46.6588 76.9770 0.0000 0.0000 0.0000
# 4 0.0000 0.0000 0.0000 -35.5593 0.0000 0.0000
# 5 0.0000 0.0000 0.0000 0.0000 24.4441 0.0000
# 6 0.0000 0.0000 0.0000 0.0000 0.0000 17.9657
#
#
#
# Elastic Compliance Matrix: (Units=1/GPa)
#
#
# Indices 1 2 3 4 5 6 
#
# 1 0.027350 -0.006467 -0.004689 0.000000 0.000000 0.000000
# 2 -0.006467 0.010479 -0.004316 0.000000 0.000000 0.000000
# 3 -0.004689 -0.004316 0.017083 0.000000 0.000000 0.000000
# 4 0.000000 0.000000 0.000000 -0.028122 0.000000 0.000000
# 5 0.000000 0.000000 0.000000 0.000000 0.040910 0.000000
# 6 0.000000 0.000000 0.000000 0.000000 0.000000 0.055662
#
#
# Mechanical properties :
#
#
# Convention : Reuss Voigt Hill
#
# Bulk Modulus (GPa) = 41.72319 54.60194 48.16256
# Shear Modulus (GPa) = 30.80795 11.73210 21.27003
#
# Velocity S-wave (km/s) = 4.03284 2.48867 3.35092
# Velocity P-wave (km/s) = 6.61145 6.08957 6.35587
#
# Compressibility (1/GPa) = 0.02396749
#
# Stress axis : x y z
#
# Youngs Moduli (GPa) = 36.56336 95.42505 58.53742
#
# Poissons Ratio (x) = 0.61713 0.27448
# Poissons Ratio (y) = 0.23646 0.25266
# Poissons Ratio (z) = 0.17144 0.41188
#
# Static dielectric constant tensor:
#      x y z
#    x 2.788930 0.000000 0.000000 
#    y 0.000000 4.237880 0.000000 
#    z 0.000000 0.000000 3.477230 
# 
# 
# High freq. dielectric constant tensor:
#      x y z
#    x 1.700170 0.000000 0.000000 
#    y 0.000000 1.746110 0.000000 
#    z 0.000000 0.000000 1.724490 
# 
# From -- ./inp_files/17391.got.cif
#   From: 2010.06.25/outbox.cif.g09.slc.cpg/sg43_9_cif.got.tgz:17391.got - 2010.06.26 16:48:59.
