data_PCOD8186193
_publ_section_title
;
Structure prediction by ZEFSAII (Michael W. Deem and Ramdas Pophale) SiO2 
 PCOD8186193
Probable space group: F M M 2
;
_chemical_formula_sum "Si O2"
_cell_formula_units_Z 96
_cell_length_a 27.628539
_cell_length_b 19.607295
_cell_length_c 8.773671
_cell_angle_alpha 90.000000
_cell_angle_beta 90.000000
_cell_angle_gamma 90.000000
_cell_volume 4752.881078
_symmetry_space_group_name_H-M "F M M 2"
_symmetry_group_IT_number 42
_symmetry_cell_setting 'orthorhombic'
loop_
_space_group_symop_operation_xyz
x,y,z
-x,-y,z
-x,y,z
x,-y,z
x,1/2+y,1/2+z
-x,1/2-y,1/2+z
-x,1/2+y,1/2+z
x,1/2-y,1/2+z
1/2+x,y,1/2+z
1/2-x,-y,1/2+z
1/2-x,y,1/2+z
1/2+x,-y,1/2+z
1/2+x,1/2+y,z
1/2-x,1/2-y,z
1/2-x,1/2+y,z
1/2+x,1/2-y,z
loop_
_atom_site_type_symbol
_atom_site_label
_atom_site_fract_x
_atom_site_fract_y
_atom_site_fract_z
Si Si1 0.316520 0.422528 0.872660
Si Si2 0.639248 0.337418 0.311151
Si Si3 0.393912 0.776395 0.104732
Si Si4 0.225738 0.076940 0.197117
Si Si5 0.445823 0.578256 0.154374
Si Si6 0.085599 0.657807 0.391511
O O1 0.337364 0.500000 0.858201
O O2 0.281588 0.403358 0.731507
O O3 0.358751 0.367324 0.887065
O O4 0.282099 0.415838 0.018510
O O5 0.641141 0.265443 0.220190
O O6 0.635382 0.326450 0.492942
O O7 0.688984 0.375839 0.288799
O O8 0.592619 0.379149 0.251251
O O9 0.428784 0.822345 0.217014
O O10 0.423319 0.724352 0.997839
O O11 0.216235 0.000000 0.254118
O O12 0.500000 0.589828 0.218859
O O13 0.430316 0.500000 0.166286
O O14 0.445492 0.598957 0.973734
#
# Coordination Sequence:
#
# PCOD8186193 Si02
#       6
#    16  16  16  16  16  16
#     4  10  20  34  53  77 107 144 187 231 276 327
#     4  10  19  38  56  78 113 146 181 231 274 318
#     4   9  20  35  57  78 108 150 187 222 270 329
#     4  10  20  34  53  77 107 144 187 231 276 327
#     4  10  20  37  63  88 109 142 182 221 279 339
#     4  10  19  38  56  78 113 146 181 231 274 318
#
# _framework density 20.198274999999999
#
# number of rings (size 3 to 8) (size 9 to 14) (size 15 to 20)
#    0.000    2.167    3.333    1.000    2.333    0.000 
#    0.000   21.667    0.000    2.000    0.000    0.000 
#    0.000    0.000    0.000    0.000    0.000    0.000 
#
# Total GULP energy -297372.484134 kJ/mol
# GULP energy per Si atom -12390.520172 kJ/mol
# Density = 2.015230 g / cm^3
# Si number density = 20.198275 Si / 1000 Ang^3
#
#
#
# Elastic Constant Matrix: (Units=GPa)
#
#
# Indices 1 2 3 4 5 6 
#
# 1 63.7956 31.2041 9.9377 0.0000 0.0000 0.0000
# 2 31.2041 83.6999 34.3811 0.0001 0.0000 0.0000
# 3 9.9377 34.3811 107.1933 0.0002 0.0000 0.0000
# 4 0.0000 0.0001 0.0002 25.7075 0.0000 0.0000
# 5 0.0000 0.0000 0.0000 0.0000 19.2457 0.0000
# 6 0.0000 0.0000 0.0000 0.0000 0.0000 7.7133
#
#
#
# Elastic Compliance Matrix: (Units=1/GPa)
#
#
# Indices 1 2 3 4 5 6 
#
# 1 0.019204 -0.007403 0.000594 0.000000 0.000000 0.000000
# 2 -0.007403 0.016615 -0.004643 0.000000 0.000000 0.000000
# 3 0.000594 -0.004643 0.010763 0.000000 0.000000 0.000000
# 4 0.000000 0.000000 0.000000 0.038899 0.000000 0.000000
# 5 0.000000 0.000000 0.000000 0.000000 0.051960 0.000000
# 6 0.000000 0.000000 0.000000 0.000000 0.000000 0.129646
#
#
# Mechanical properties :
#
#
# Convention : Reuss Voigt Hill
#
# Bulk Modulus (GPa) = 42.23400 45.08163 43.65782
# Shear Modulus (GPa) = 16.78517 22.47769 19.63143
#
# Velocity S-wave (km/s) = 2.88587 3.33956 3.12097
# Velocity P-wave (km/s) = 5.66210 6.10231 5.88633
#
# Compressibility (1/GPa) = 0.02367760
#
# Stress axis : x y z
#
# Youngs Moduli (GPa) = 52.07334 60.18829 92.91166
#
# Poissons Ratio (x) = 0.44560 -0.05521
# Poissons Ratio (y) = 0.38552 0.43135
# Poissons Ratio (z) = -0.03094 0.27943
#
# Static dielectric constant tensor:
#      x y z
#    x 3.287190 0.000000 0.000000 
#    y 0.000000 3.885200 0.000000 
#    z 0.000000 0.000000 3.918000 
# 
# 
# High freq. dielectric constant tensor:
#      x y z
#    x 1.751340 0.000000 0.000000 
#    y 0.000000 1.796170 0.000000 
#    z 0.000000 0.000000 1.792640 
# 
# From -- ./inp_files/4149.got.cif
#   From: 2010.03.12/outbox.cif.g09.slc.cpg/sg42_3_cif.got.tgz:4149.got - 2010.04.14 02:04:31.
