data_PCOD8186630
_publ_section_title
;
Structure prediction by ZEFSAII (Michael W. Deem and Ramdas Pophale) SiO2 
 PCOD8186630
Probable space group: F M M 2
;
_chemical_formula_sum "Si O2"
_cell_formula_units_Z 112
_cell_length_a 26.046481
_cell_length_b 18.585515
_cell_length_c 11.832873
_cell_angle_alpha 90.000000
_cell_angle_beta 90.000000
_cell_angle_gamma 90.000000
_cell_volume 5728.143108
_symmetry_space_group_name_H-M "F M M 2"
_symmetry_group_IT_number 42
_symmetry_cell_setting 'orthorhombic'
loop_
_space_group_symop_operation_xyz
x,y,z
-x,-y,z
-x,y,z
x,-y,z
x,1/2+y,1/2+z
-x,1/2-y,1/2+z
-x,1/2+y,1/2+z
x,1/2-y,1/2+z
1/2+x,y,1/2+z
1/2-x,-y,1/2+z
1/2-x,y,1/2+z
1/2+x,-y,1/2+z
1/2+x,1/2+y,z
1/2-x,1/2-y,z
1/2-x,1/2+y,z
1/2+x,1/2-y,z
loop_
_atom_site_type_symbol
_atom_site_label
_atom_site_fract_x
_atom_site_fract_y
_atom_site_fract_z
Si Si1 0.685572 0.418584 0.371080
Si Si2 0.349339 0.417636 0.612028
Si Si3 0.440360 0.083187 0.513661
Si Si4 0.148094 0.848099 0.146059
Si Si5 0.695379 0.211787 0.223484
Si Si6 0.723416 0.322245 0.957088
Si Si7 0.943937 0.914869 0.758935
O O1 0.703786 0.500000 0.354885
O O2 0.646141 0.411962 0.476634
O O3 0.657436 0.393550 0.258523
O O4 0.735810 0.372908 0.396076
O O5 0.336703 0.500000 0.648802
O O6 0.304212 0.364267 0.655616
O O7 0.401879 0.388791 0.668558
O O8 0.500000 0.094044 0.543249
O O9 0.407646 0.132252 0.598588
O O10 0.428784 0.108986 0.385687
O O11 0.424386 0.000000 0.529663
O O12 0.150519 0.763051 0.174151
O O13 0.192094 0.865080 0.052638
O O14 0.750000 0.250000 0.209625
O O15 0.684318 0.200383 0.356644
O O16 0.750000 0.250000 0.008809
O O17 0.000000 0.882734 0.726216
O O18 0.947912 0.000000 0.757190
#
# Coordination Sequence:
#
# PCOD8186630 Si02
#       7
#    16  16  16  16  16  16  16
#     4  11  24  37  55  86 123 156 199 248 294 364
#     4  10  21  38  59  88 121 153 198 250 297 352
#     4   9  19  37  61  91 124 160 206 252 297 356
#     4  12  22  38  62  83 121 161 201 247 306 364
#     4  11  22  39  59  84 115 157 201 246 300 361
#     4  11  23  40  58  83 114 161 203 247 299 356
#     4   8  15  33  62  91 117 149 195 249 297 345
#
# _framework density 19.552584
#
# number of rings (size 3 to 8) (size 9 to 14) (size 15 to 20)
#    0.000    1.714    2.857    4.286    0.000    1.714 
#    0.000    1.429    0.000    3.429    0.000    0.000 
#    0.000    0.000    0.000    0.000    0.000    0.000 
#
# Total GULP energy -347126.035528 kJ/mol
# GULP energy per Si atom -12397.358412 kJ/mol
# Density = 1.950808 g / cm^3
# Si number density = 19.552584 Si / 1000 Ang^3
#
#
#
# Elastic Constant Matrix: (Units=GPa)
#
#
# Indices 1 2 3 4 5 6 
#
# 1 97.5622 47.7167 61.3124 0.0000 0.0000 0.0000
# 2 47.7167 99.7438 44.8707 0.0000 0.0000 0.0000
# 3 61.3124 44.8707 138.5405 0.0000 0.0000 0.0000
# 4 0.0000 0.0000 0.0000 31.2884 0.0000 0.0000
# 5 0.0000 0.0000 0.0000 0.0000 22.0645 0.0000
# 6 0.0000 0.0000 0.0000 0.0000 0.0000 24.6447
#
#
#
# Elastic Compliance Matrix: (Units=1/GPa)
#
#
# Indices 1 2 3 4 5 6 
#
# 1 0.016308 -0.005332 -0.005490 0.000000 0.000000 0.000000
# 2 -0.005332 0.013479 -0.002006 0.000000 0.000000 0.000000
# 3 -0.005490 -0.002006 0.010298 0.000000 0.000000 0.000000
# 4 0.000000 0.000000 0.000000 0.031961 0.000000 0.000000
# 5 0.000000 0.000000 0.000000 0.000000 0.045322 0.000000
# 6 0.000000 0.000000 0.000000 0.000000 0.000000 0.040577
#
#
# Mechanical properties :
#
#
# Convention : Reuss Voigt Hill
#
# Bulk Modulus (GPa) = 69.30841 71.51621 70.41231
# Shear Modulus (GPa) = 26.53802 27.72928 27.13365
#
# Velocity S-wave (km/s) = 3.68810 3.76997 3.72926
# Velocity P-wave (km/s) = 7.32532 7.45694 7.39142
#
# Compressibility (1/GPa) = 0.01442826
#
# Stress axis : x y z
#
# Youngs Moduli (GPa) = 61.31973 74.19107 97.10986
#
# Poissons Ratio (x) = 0.39556 0.53317
# Poissons Ratio (y) = 0.32694 0.19479
# Poissons Ratio (z) = 0.33667 0.14882
#
# Static dielectric constant tensor:
#      x y z
#    x 3.697980 0.000000 0.000000 
#    y 0.000000 3.719690 0.000000 
#    z 0.000000 0.000000 3.911150 
# 
# 
# High freq. dielectric constant tensor:
#      x y z
#    x 1.733090 0.000000 0.000000 
#    y 0.000000 1.752030 0.000000 
#    z 0.000000 0.000000 1.780430 
# 
# From -- ./inp_files/10261.got.cif
#   From: 2010.03.12/outbox.cif.g09.slc.cpg/sg42_6_cif.got.tgz:10261.got - 2010.04.14 02:04:31.
