data_PCOD8186869
_publ_section_title
;
Structure prediction by ZEFSAII (Michael W. Deem and Ramdas Pophale) SiO2 
 PCOD8186869
Probable space group: F M M 2
;
_chemical_formula_sum "Si O2"
_cell_formula_units_Z 64
_cell_length_a 10.140175
_cell_length_b 15.047131
_cell_length_c 20.744444
_cell_angle_alpha 90.000000
_cell_angle_beta 90.000000
_cell_angle_gamma 90.000000
_cell_volume 3165.198500
_symmetry_space_group_name_H-M "F M M 2"
_symmetry_group_IT_number 42
_symmetry_cell_setting 'orthorhombic'
loop_
_space_group_symop_operation_xyz
x,y,z
-x,-y,z
-x,y,z
x,-y,z
x,1/2+y,1/2+z
-x,1/2-y,1/2+z
-x,1/2+y,1/2+z
x,1/2-y,1/2+z
1/2+x,y,1/2+z
1/2-x,-y,1/2+z
1/2-x,y,1/2+z
1/2+x,-y,1/2+z
1/2+x,1/2+y,z
1/2-x,1/2-y,z
1/2-x,1/2+y,z
1/2+x,1/2-y,z
loop_
_atom_site_type_symbol
_atom_site_label
_atom_site_fract_x
_atom_site_fract_y
_atom_site_fract_z
Si Si1 0.250000 0.750000 0.593940
Si Si2 0.000000 0.103347 0.781545
Si Si3 0.740966 0.647405 0.870960
Si Si4 0.847960 0.099498 0.007939
Si Si5 0.000000 0.100273 0.295143
Si Si6 0.000000 0.251581 0.683652
O O1 0.248266 0.662755 0.548942
O O2 0.374612 0.758070 0.639050
O O3 0.129066 0.132394 0.818846
O O4 0.000000 0.154620 0.714484
O O5 0.000000 0.000000 0.765872
O O6 0.750000 0.750000 0.889385
O O7 0.875701 0.612454 0.841290
O O8 0.704473 0.594256 0.935079
O O9 0.000000 0.133867 0.009199
O O10 0.840142 0.000000 0.036682
O O11 0.000000 0.169712 0.236400
O O12 0.000000 0.000000 0.266601
#
# Coordination Sequence:
#
# PCOD8186869 Si02
#       6
#     8   8  16  16   8   8
#     4  12  26  44  70  94 132 182 232 266 324 386
#     4  12  24  43  69  96 129 175 223 274 334 397
#     4  12  22  42  71 101 135 172 212 274 346 399
#     4  11  24  44  70 100 134 173 218 275 338 398
#     4  12  26  43  67 102 139 173 215 276 336 393
#     4  12  26  44  66  96 134 180 228 274 320 386
#
# _framework density 20.219899999999999
#
# number of rings (size 3 to 8) (size 9 to 14) (size 15 to 20)
#    0.000    0.250    6.250    3.750    0.000    3.000 
#    0.000    1.250    0.000    0.000    0.000    0.000 
#    0.000    0.000    0.000    0.000    0.000    0.000 
#
# Total GULP energy -198461.715444 kJ/mol
# GULP energy per Si atom -12403.857215 kJ/mol
# Density = 2.017388 g / cm^3
# Si number density = 20.219900 Si / 1000 Ang^3
#
#
#
# Elastic Constant Matrix: (Units=GPa)
#
#
# Indices 1 2 3 4 5 6 
#
# 1 129.9365 18.2938 32.0251 0.0000 0.0000 0.0000
# 2 18.2938 133.4430 25.4756 0.0000 0.0000 0.0000
# 3 32.0251 25.4756 90.8585 0.0000 0.0000 0.0000
# 4 0.0000 0.0000 0.0000 15.6825 0.0000 0.0000
# 5 0.0000 0.0000 0.0000 0.0000 38.1803 0.0000
# 6 0.0000 0.0000 0.0000 0.0000 0.0000 37.9141
#
#
#
# Elastic Compliance Matrix: (Units=1/GPa)
#
#
# Indices 1 2 3 4 5 6 
#
# 1 0.008477 -0.000625 -0.002813 0.000000 0.000000 0.000000
# 2 -0.000625 0.007964 -0.002013 0.000000 0.000000 0.000000
# 3 -0.002813 -0.002013 0.012562 0.000000 0.000000 0.000000
# 4 0.000000 0.000000 0.000000 0.063765 0.000000 0.000000
# 5 0.000000 0.000000 0.000000 0.000000 0.026192 0.000000
# 6 0.000000 0.000000 0.000000 0.000000 0.000000 0.026375
#
#
# Mechanical properties :
#
#
# Convention : Reuss Voigt Hill
#
# Bulk Modulus (GPa) = 55.24270 56.20301 55.72286
# Shear Modulus (GPa) = 30.81281 36.91827 33.86554
#
# Velocity S-wave (km/s) = 3.90793 4.27762 4.09695
# Velocity P-wave (km/s) = 6.90962 7.22866 7.07094
#
# Compressibility (1/GPa) = 0.01810194
#
# Stress axis : x y z
#
# Youngs Moduli (GPa) = 117.96157 125.56874 79.60618
#
# Poissons Ratio (x) = 0.07850 0.22391
# Poissons Ratio (y) = 0.07375 0.16021
# Poissons Ratio (z) = 0.33179 0.25272
#
# Static dielectric constant tensor:
#      x y z
#    x 3.758760 0.000000 0.000000 
#    y 0.000000 3.931080 0.000000 
#    z 0.000000 0.000000 3.692660 
# 
# 
# High freq. dielectric constant tensor:
#      x y z
#    x 1.802490 0.000000 0.000000 
#    y 0.000000 1.806070 0.000000 
#    z 0.000000 0.000000 1.791960 
# 
# From -- ./inp_files/18690.got.cif
#   From: 2010.03.12/outbox.cif.g09.slc.cpg/sg42_10_cif.got.tgz:18690.got - 2010.04.14 02:04:31.
