data_PCOD8186301
_publ_section_title
;
Structure prediction by ZEFSAII (Michael W. Deem and Ramdas Pophale) SiO2 
 PCOD8186301
Probable space group: F M M 2
;
_chemical_formula_sum "Si O2"
_cell_formula_units_Z 96
_cell_length_a 18.689207
_cell_length_b 9.001936
_cell_length_c 30.101337
_cell_angle_alpha 90.000000
_cell_angle_beta 90.000000
_cell_angle_gamma 90.000000
_cell_volume 5064.220199
_symmetry_space_group_name_H-M "F M M 2"
_symmetry_group_IT_number 42
_symmetry_cell_setting 'orthorhombic'
loop_
_space_group_symop_operation_xyz
x,y,z
-x,-y,z
-x,y,z
x,-y,z
x,1/2+y,1/2+z
-x,1/2-y,1/2+z
-x,1/2+y,1/2+z
x,1/2-y,1/2+z
1/2+x,y,1/2+z
1/2-x,-y,1/2+z
1/2-x,y,1/2+z
1/2+x,-y,1/2+z
1/2+x,1/2+y,z
1/2-x,1/2-y,z
1/2-x,1/2+y,z
1/2+x,1/2-y,z
loop_
_atom_site_type_symbol
_atom_site_label
_atom_site_fract_x
_atom_site_fract_y
_atom_site_fract_z
Si Si1 0.417031 0.327141 0.345030
Si Si2 0.082640 0.326693 0.995064
Si Si3 0.821702 0.172456 0.263627
Si Si4 0.672745 0.323759 0.920778
Si Si5 0.822297 0.826118 0.163848
Si Si6 0.916139 0.835120 0.596197
O O1 0.500000 0.284214 0.345829
O O2 0.405404 0.500000 0.357190
O O3 0.387606 0.290475 0.295908
O O4 0.375930 0.225942 0.379853
O O5 0.096027 0.500000 0.984735
O O6 0.134579 0.225900 0.965991
O O7 0.000000 0.287220 0.984698
O O8 0.102187 0.288907 0.045852
O O9 0.750000 0.250000 0.281561
O O10 0.841567 0.227367 0.213924
O O11 0.804147 0.000000 0.263312
O O12 0.681731 0.500000 0.920404
O O13 0.750000 0.250000 0.916671
O O14 0.750000 0.750000 0.147086
O O15 0.884924 0.782037 0.130600
O O16 0.811285 0.000000 0.161935
O O17 0.000000 0.835462 0.603015
O O18 0.885492 0.000000 0.605832
#
# Coordination Sequence:
#
# PCOD8186301 Si02
#       6
#    16  16  16  16  16  16
#     4  10  21  38  59  82 111 145 178 217 269 325
#     4   9  19  38  61  82 108 143 180 220 270 325
#     4   9  19  35  55  79 107 143 184 224 268 318
#     4  12  25  39  57  82 111 142 180 224 269 320
#     4  10  20  34  54  80 111 146 184 226 270 318
#     4   9  19  36  57  81 110 144 181 222 270 323
#
# _framework density 18.956522
#
# number of rings (size 3 to 8) (size 9 to 14) (size 15 to 20)
#    0.000    2.167    0.000    4.000    0.000    7.667 
#    0.000    3.333    0.000    0.000    0.000    0.000 
#    0.000    0.000    0.000    0.000    0.000    0.000 
#
# Total GULP energy -297641.885590 kJ/mol
# GULP energy per Si atom -12401.745233 kJ/mol
# Density = 1.891338 g / cm^3
# Si number density = 18.956522 Si / 1000 Ang^3
#
#
#
# Elastic Constant Matrix: (Units=GPa)
#
#
# Indices 1 2 3 4 5 6 
#
# 1 116.2694 59.8139 72.3592 0.0000 0.0000 0.0000
# 2 59.8139 92.8688 55.5121 0.0000 0.0000 0.0000
# 3 72.3592 55.5121 114.4722 0.0000 0.0000 0.0000
# 4 0.0000 0.0000 0.0000 32.5420 0.0000 0.0000
# 5 0.0000 0.0000 0.0000 0.0000 35.6177 0.0000
# 6 0.0000 0.0000 0.0000 0.0000 0.0000 33.0613
#
#
#
# Elastic Compliance Matrix: (Units=1/GPa)
#
#
# Indices 1 2 3 4 5 6 
#
# 1 0.016324 -0.006120 -0.007351 0.000000 0.000000 0.000000
# 2 -0.006120 0.017458 -0.004598 0.000000 0.000000 0.000000
# 3 -0.007351 -0.004598 0.015612 0.000000 0.000000 0.000000
# 4 0.000000 0.000000 0.000000 0.030730 0.000000 0.000000
# 5 0.000000 0.000000 0.000000 0.000000 0.028076 0.000000
# 6 0.000000 0.000000 0.000000 0.000000 0.000000 0.030247
#
#
# Mechanical properties :
#
#
# Convention : Reuss Voigt Hill
#
# Bulk Modulus (GPa) = 75.43130 77.66455 76.54792
# Shear Modulus (GPa) = 27.93301 29.30587 28.61944
#
# Velocity S-wave (km/s) = 3.84282 3.93613 3.88975
# Velocity P-wave (km/s) = 7.71802 7.85597 7.78730
#
# Compressibility (1/GPa) = 0.01325710
#
# Stress axis : x y z
#
# Youngs Moduli (GPa) = 61.26133 57.28196 64.05455
#
# Poissons Ratio (x) = 0.35054 0.47084
# Poissons Ratio (y) = 0.37490 0.29449
# Poissons Ratio (z) = 0.45031 0.26336
#
# Static dielectric constant tensor:
#      x y z
#    x 3.484260 0.000000 0.000000 
#    y 0.000000 5.695220 0.000000 
#    z 0.000000 0.000000 3.672110 
# 
# 
# High freq. dielectric constant tensor:
#      x y z
#    x 1.735490 0.000000 0.000000 
#    y 0.000000 1.731580 0.000000 
#    z 0.000000 0.000000 1.748350 
# 
# From -- ./inp_files/31433.got.cif
#   From: 2010.03.12/outbox.cif.g09.slc.cpg/sg42_16_cif.got.tgz:31433.got - 2010.04.14 02:04:31.
