data_PCOD8186500
_publ_section_title
;
Structure prediction by ZEFSAII (Michael W. Deem and Ramdas Pophale) SiO2 
 PCOD8186500
Probable space group: F M M 2
;
_chemical_formula_sum "Si O2"
_cell_formula_units_Z 88
_cell_length_a 10.921797
_cell_length_b 27.019118
_cell_length_c 14.684419
_cell_angle_alpha 90.000000
_cell_angle_beta 90.000000
_cell_angle_gamma 90.000000
_cell_volume 4333.332721
_symmetry_space_group_name_H-M "F M M 2"
_symmetry_group_IT_number 42
_symmetry_cell_setting 'orthorhombic'
loop_
_space_group_symop_operation_xyz
x,y,z
-x,-y,z
-x,y,z
x,-y,z
x,1/2+y,1/2+z
-x,1/2-y,1/2+z
-x,1/2+y,1/2+z
x,1/2-y,1/2+z
1/2+x,y,1/2+z
1/2-x,-y,1/2+z
1/2-x,y,1/2+z
1/2+x,-y,1/2+z
1/2+x,1/2+y,z
1/2-x,1/2-y,z
1/2-x,1/2+y,z
1/2+x,1/2-y,z
loop_
_atom_site_type_symbol
_atom_site_label
_atom_site_fract_x
_atom_site_fract_y
_atom_site_fract_z
Si Si1 0.767478 0.808717 0.639900
Si Si2 0.136202 0.942025 0.146487
Si Si3 0.356419 0.445721 0.346206
Si Si4 0.241419 0.379552 0.492437
Si Si5 0.500000 0.296906 0.746939
Si Si6 0.000000 0.806265 0.147322
Si Si7 0.500000 0.329374 0.946023
O O1 0.750000 0.750000 0.630161
O O2 0.802179 0.831165 0.540710
O O3 0.874643 0.823003 0.711105
O O4 0.632400 0.832977 0.668553
O O5 0.195486 0.932038 0.246186
O O6 0.225402 0.919775 0.071440
O O7 0.000000 0.917666 0.136969
O O8 0.125708 0.000000 0.128777
O O9 0.500000 0.450220 0.333742
O O10 0.305059 0.500000 0.377297
O O11 0.329046 0.402442 0.417022
O O12 0.116187 0.365327 0.442323
O O13 0.500000 0.242337 0.707486
O O14 0.500000 0.294964 0.856211
O O15 0.000000 0.795514 0.037650
#
# Coordination Sequence:
#
# PCOD8186500 Si02
#       7
#    16  16  16  16   8   8   8
#     4   9  20  37  60  83 120 157 195 239 290 348
#     4   9  18  35  58  81 109 149 192 236 285 343
#     4   9  20  37  57  85 117 150 194 242 291 349
#     4  11  20  35  60  84 119 149 194 240 293 350
#     4  10  20  38  60  83 118 153 190 251 305 335
#     4   8  18  42  60  79 115 156 200 238 284 346
#     4  10  22  36  59  88 113 153 192 249 296 353
#
# _framework density 20.307696
#
# number of rings (size 3 to 8) (size 9 to 14) (size 15 to 20)
#    0.000    2.545    0.909    1.636    3.818    0.000 
#    0.000   21.818    0.000    0.000    0.000    0.000 
#    0.000    0.000    0.000    0.000    0.000    0.000 
#
# Total GULP energy -272563.353637 kJ/mol
# GULP energy per Si atom -12389.243347 kJ/mol
# Density = 2.026147 g / cm^3
# Si number density = 20.307696 Si / 1000 Ang^3
#
#
#
# Elastic Constant Matrix: (Units=GPa)
#
#
# Indices 1 2 3 4 5 6 
#
# 1 88.4584 10.2016 40.8096 0.0000 0.0000 0.0000
# 2 10.2016 38.0351 36.7642 0.0000 0.0000 0.0000
# 3 40.8096 36.7642 129.6733 0.0000 0.0000 0.0000
# 4 0.0000 0.0000 0.0000 35.7603 0.0000 0.0000
# 5 0.0000 0.0000 0.0000 0.0000 19.9281 0.0000
# 6 0.0000 0.0000 0.0000 0.0000 0.0000 27.6285
#
#
#
# Elastic Compliance Matrix: (Units=1/GPa)
#
#
# Indices 1 2 3 4 5 6 
#
# 1 0.013237 0.000656 -0.004352 0.000000 0.000000 0.000000
# 2 0.000656 0.036249 -0.010484 0.000000 0.000000 0.000000
# 3 -0.004352 -0.010484 0.012053 0.000000 0.000000 0.000000
# 4 0.000000 0.000000 0.000000 0.027964 0.000000 0.000000
# 5 0.000000 0.000000 0.000000 0.000000 0.050180 0.000000
# 6 0.000000 0.000000 0.000000 0.000000 0.000000 0.036195
#
#
# Mechanical properties :
#
#
# Convention : Reuss Voigt Hill
#
# Bulk Modulus (GPa) = 30.13810 47.96862 39.05336
# Shear Modulus (GPa) = 23.22379 27.88948 25.55664
#
# Velocity S-wave (km/s) = 3.38538 3.70989 3.55134
# Velocity P-wave (km/s) = 5.49127 6.48253 6.00738
#
# Compressibility (1/GPa) = 0.03318059
#
# Stress axis : x y z
#
# Youngs Moduli (GPa) = 75.54736 27.58709 82.96374
#
# Poissons Ratio (x) = -0.01810 0.36104
# Poissons Ratio (y) = -0.04956 0.86975
# Poissons Ratio (z) = 0.32876 0.28921
#
# Static dielectric constant tensor:
#      x y z
#    x 3.993710 0.000000 0.000000 
#    y 0.000000 3.644780 0.000000 
#    z 0.000000 0.000000 3.586140 
# 
# 
# High freq. dielectric constant tensor:
#      x y z
#    x 1.780260 0.000000 0.000000 
#    y 0.000000 1.791890 0.000000 
#    z 0.000000 0.000000 1.786580 
# 
# From -- ./inp_files/7080.got.cif
#   From: 2010.03.12/outbox.cif.g09.slc.cpg/sg42_4_cif.got.tgz:7080.got - 2010.04.14 02:04:31.
