data_PCOD8187376
_publ_section_title
;
Structure prediction by ZEFSAII (Michael W. Deem and Ramdas Pophale) SiO2 
 PCOD8187376
Probable space group: F D D 2
;
_chemical_formula_sum "Si O2"
_cell_formula_units_Z 112
_cell_length_a 14.325639
_cell_length_b 14.313512
_cell_length_c 26.058321
_cell_angle_alpha 90.000000
_cell_angle_beta 90.000000
_cell_angle_gamma 90.000000
_cell_volume 5343.264082
_symmetry_space_group_name_H-M "F D D 2"
_symmetry_group_IT_number 43
_symmetry_cell_setting 'orthorhombic'
loop_
_space_group_symop_operation_xyz
x,y,z
-x,-y,z
1/4-x,1/4+y,1/4+z
1/4+x,1/4-y,1/4+z
x,1/2+y,1/2+z
-x,1/2-y,1/2+z
1/4-x,3/4+y,3/4+z
1/4+x,3/4-y,3/4+z
1/2+x,y,1/2+z
1/2-x,-y,1/2+z
3/4-x,1/4+y,3/4+z
3/4+x,1/4-y,3/4+z
1/2+x,1/2+y,z
1/2-x,1/2-y,z
3/4-x,3/4+y,1/4+z
3/4+x,3/4-y,1/4+z
loop_
_atom_site_type_symbol
_atom_site_label
_atom_site_fract_x
_atom_site_fract_y
_atom_site_fract_z
Si Si1 0.484793 0.360125 0.930290
Si Si2 0.327170 0.825893 0.268855
Si Si3 0.156628 0.950515 0.410564
Si Si4 0.566984 0.786219 0.853670
Si Si5 0.140169 0.977069 0.893160
Si Si6 0.175514 0.318252 0.579117
Si Si7 0.777241 0.036543 0.788125
O O1 0.471856 0.259770 0.905258
O O2 0.593619 0.393520 0.926820
O O3 0.425638 0.433219 0.897342
O O4 0.447241 0.348659 0.988500
O O5 0.250000 0.750000 0.257334
O O6 0.387203 0.834428 0.217468
O O7 0.390208 0.791121 0.316083
O O8 0.280114 0.925248 0.280112
O O9 0.144875 0.863473 0.370355
O O10 0.260065 0.991357 0.413348
O O11 0.090162 0.032701 0.388310
O O12 0.474102 0.830678 0.828401
O O13 0.150725 0.940568 0.834199
O O14 0.250000 0.250000 0.551175
O O15 0.077985 0.317644 0.550112
#
# Coordination Sequence:
#
# PCOD8187376 Si02
#       7
#    16  16  16  16  16  16  16
#     4  11  24  43  67  91 134 172 226 279 341 394
#     4  12  22  36  69  97 126 171 222 269 333 388
#     4  10  22  41  64  95 134 169 220 273 331 393
#     4  11  22  39  66  99 127 170 222 276 324 396
#     4  10  24  47  62  93 135 173 222 284 326 408
#     4   9  20  41  61  91 138 167 214 276 328 393
#     4  11  23  44  65  96 133 181 220 277 340 403
#
# _framework density 20.96097
#
# number of rings (size 3 to 8) (size 9 to 14) (size 15 to 20)
#    0.000    1.429    2.857    3.857    2.000    1.143 
#    2.571    2.143    0.000    0.000    0.000    0.000 
#    0.000    0.000    0.000    0.000    0.000    0.000 
#
# Total GULP energy -346994.607643 kJ/mol
# GULP energy per Si atom -12392.664559 kJ/mol
# Density = 2.091326 g / cm^3
# Si number density = 20.960970 Si / 1000 Ang^3
#
#
#
# Elastic Constant Matrix: (Units=GPa)
#
#
# Indices 1 2 3 4 5 6 
#
# 1 111.9208 37.5791 37.3327 0.0000 0.0000 0.0000
# 2 37.5791 70.0493 39.3745 0.0000 0.0000 0.0000
# 3 37.3327 39.3745 124.6403 0.0000 0.0000 0.0000
# 4 0.0000 0.0000 0.0000 25.0698 0.0000 0.0000
# 5 0.0000 0.0000 0.0000 0.0000 22.1556 0.0000
# 6 0.0000 0.0000 0.0000 0.0000 0.0000 34.9251
#
#
#
# Elastic Compliance Matrix: (Units=1/GPa)
#
#
# Indices 1 2 3 4 5 6 
#
# 1 0.011211 -0.005018 -0.001773 0.000000 0.000000 0.000000
# 2 -0.005018 0.019604 -0.004690 0.000000 0.000000 0.000000
# 3 -0.001773 -0.004690 0.010036 0.000000 0.000000 0.000000
# 4 0.000000 0.000000 0.000000 0.039889 0.000000 0.000000
# 5 0.000000 0.000000 0.000000 0.000000 0.045135 0.000000
# 6 0.000000 0.000000 0.000000 0.000000 0.000000 0.028633
#
#
# Mechanical properties :
#
#
# Convention : Reuss Voigt Hill
#
# Bulk Modulus (GPa) = 55.89956 59.46479 57.68217
# Shear Modulus (GPa) = 27.25815 29.25172 28.25494
#
# Velocity S-wave (km/s) = 3.61005 3.73974 3.67547
# Velocity P-wave (km/s) = 6.64100 6.86137 6.75209
#
# Compressibility (1/GPa) = 0.01788923
#
# Stress axis : x y z
#
# Youngs Moduli (GPa) = 89.19758 51.01055 99.64455
#
# Poissons Ratio (x) = 0.25596 0.17665
# Poissons Ratio (y) = 0.44758 0.46733
# Poissons Ratio (z) = 0.15813 0.23924
#
# Static dielectric constant tensor:
#      x y z
#    x 4.015570 0.000000 0.000000 
#    y 0.000000 3.746730 0.000000 
#    z 0.000000 0.000000 3.817290 
# 
# 
# High freq. dielectric constant tensor:
#      x y z
#    x 1.823060 0.000000 0.000000 
#    y 0.000000 1.816080 0.000000 
#    z 0.000000 0.000000 1.818860 
# 
# From -- ./inp_files/25627.got.cif
#   From: 2010.06.25/outbox.cif.g09.slc.cpg/sg43_13_cif.got.tgz:25627.got - 2010.06.26 16:48:59.
