data_PCOD8187054
_publ_section_title
;
Structure prediction by ZEFSAII (Michael W. Deem and Ramdas Pophale) SiO2 
 PCOD8187054
Probable space group: F D D 2
;
_chemical_formula_sum "Si O2"
_cell_formula_units_Z 88
_cell_length_a 28.044758
_cell_length_b 15.032805
_cell_length_c 11.772555
_cell_angle_alpha 90.000000
_cell_angle_beta 90.000000
_cell_angle_gamma 90.000000
_cell_volume 4963.207688
_symmetry_space_group_name_H-M "F D D 2"
_symmetry_group_IT_number 43
_symmetry_cell_setting 'orthorhombic'
loop_
_space_group_symop_operation_xyz
x,y,z
-x,-y,z
1/4-x,1/4+y,1/4+z
1/4+x,1/4-y,1/4+z
x,1/2+y,1/2+z
-x,1/2-y,1/2+z
1/4-x,3/4+y,3/4+z
1/4+x,3/4-y,3/4+z
1/2+x,y,1/2+z
1/2-x,-y,1/2+z
3/4-x,1/4+y,3/4+z
3/4+x,1/4-y,3/4+z
1/2+x,1/2+y,z
1/2-x,1/2-y,z
3/4-x,3/4+y,1/4+z
3/4+x,3/4-y,1/4+z
loop_
_atom_site_type_symbol
_atom_site_label
_atom_site_fract_x
_atom_site_fract_y
_atom_site_fract_z
Si Si1 0.822886 0.493240 0.241070
Si Si2 0.250000 0.750000 0.322282
Si Si3 0.646601 0.516386 0.097685
Si Si4 0.661197 0.157392 0.415905
Si Si5 0.571077 0.630000 0.189415
Si Si6 0.519212 0.158199 0.905591
O O1 0.864789 0.529899 0.161223
O O2 0.842997 0.410033 0.311282
O O3 0.803251 0.570823 0.325137
O O4 0.780331 0.461233 0.159600
O O5 0.291505 0.783810 0.404407
O O6 0.228867 0.828723 0.245145
O O7 0.596892 0.535776 0.163004
O O8 0.687833 0.478604 0.182023
O O9 0.664052 0.607582 0.037152
O O10 0.638330 0.442400 0.999444
O O11 0.526893 0.618411 0.277353
#
# Coordination Sequence:
#
# PCOD8187054 Si02
#       6
#    16   8  16  16  16  16
#     4   9  17  34  53  79 100 139 176 212 262 304
#     4  10  20  36  48  80 108 134 170 216 270 310
#     4   8  16  33  55  71 100 140 171 217 255 300
#     4   9  18  33  54  74 102 135 176 217 251 315
#     4   8  16  33  55  75 101 140 175 217 254 312
#     4   9  19  34  53  75 112 138 166 222 266 314
#
# _framework density 17.730467999999998
#
# number of rings (size 3 to 8) (size 9 to 14) (size 15 to 20)
#    1.091    2.182    0.000    0.000    0.000    1.455 
#    6.545    1.818    0.000    0.000    0.000    0.000 
#    0.000    0.000    0.000    0.000    0.000    0.000 
#
# Total GULP energy -272553.293641 kJ/mol
# GULP energy per Si atom -12388.786075 kJ/mol
# Density = 1.769011 g / cm^3
# Si number density = 17.730468 Si / 1000 Ang^3
#
#
#
# Elastic Constant Matrix: (Units=GPa)
#
#
# Indices 1 2 3 4 5 6 
#
# 1 74.2473 29.8867 39.3521 0.0000 0.0000 0.0000
# 2 29.8867 59.3786 12.2692 0.0000 0.0000 0.0000
# 3 39.3521 12.2692 59.4329 0.0000 0.0000 0.0000
# 4 0.0000 0.0000 0.0000 11.5978 0.0000 0.0000
# 5 0.0000 0.0000 0.0000 0.0000 38.9702 0.0000
# 6 0.0000 0.0000 0.0000 0.0000 0.0000 35.2798
#
#
#
# Elastic Compliance Matrix: (Units=1/GPa)
#
#
# Indices 1 2 3 4 5 6 
#
# 1 0.025088 -0.009605 -0.014629 0.000000 0.000000 0.000000
# 2 -0.009605 0.021269 0.001969 0.000000 0.000000 0.000000
# 3 -0.014629 0.001969 0.026105 0.000000 0.000000 0.000000
# 4 0.000000 0.000000 0.000000 0.086223 0.000000 0.000000
# 5 0.000000 0.000000 0.000000 0.000000 0.025661 0.000000
# 6 0.000000 0.000000 0.000000 0.000000 0.000000 0.028345
#
#
# Mechanical properties :
#
#
# Convention : Reuss Voigt Hill
#
# Bulk Modulus (GPa) = 35.80011 39.56385 37.68198
# Shear Modulus (GPa) = 18.75959 24.60629 21.68294
#
# Velocity S-wave (km/s) = 3.25629 3.72936 3.50082
# Velocity P-wave (km/s) = 5.86285 6.39583 6.13513
#
# Compressibility (1/GPa) = 0.02793288
#
# Stress axis : x y z
#
# Youngs Moduli (GPa) = 39.85952 47.01776 38.30646
#
# Poissons Ratio (x) = 0.45160 0.56037
# Poissons Ratio (y) = 0.38284 -0.07542
# Poissons Ratio (z) = 0.58309 -0.09258
#
# Static dielectric constant tensor:
#      x y z
#    x 3.066840 0.000000 0.000000 
#    y 0.000000 3.317700 0.000000 
#    z 0.000000 0.000000 3.095890 
# 
# 
# High freq. dielectric constant tensor:
#      x y z
#    x 1.664190 0.000000 0.000000 
#    y 0.000000 1.686810 0.000000 
#    z 0.000000 0.000000 1.669190 
# 
# From -- ./inp_files/6843.got.cif
#   From: 2010.06.25/outbox.cif.g09.slc.cpg/sg43_4_cif.got.tgz:6843.got - 2010.06.26 16:48:59.
