data_PCOD8187606
_publ_section_title
;
Structure prediction by ZEFSAII (Michael W. Deem and Ramdas Pophale) SiO2 
 PCOD8187606
Probable space group: F D D 2
;
_chemical_formula_sum "Si O2"
_cell_formula_units_Z 112
_cell_length_a 11.508436
_cell_length_b 26.990516
_cell_length_c 14.448139
_cell_angle_alpha 90.000000
_cell_angle_beta 90.000000
_cell_angle_gamma 90.000000
_cell_volume 4487.861084
_symmetry_space_group_name_H-M "F D D 2"
_symmetry_group_IT_number 43
_symmetry_cell_setting 'orthorhombic'
loop_
_space_group_symop_operation_xyz
x,y,z
-x,-y,z
1/4-x,1/4+y,1/4+z
1/4+x,1/4-y,1/4+z
x,1/2+y,1/2+z
-x,1/2-y,1/2+z
1/4-x,3/4+y,3/4+z
1/4+x,3/4-y,3/4+z
1/2+x,y,1/2+z
1/2-x,-y,1/2+z
3/4-x,1/4+y,3/4+z
3/4+x,1/4-y,3/4+z
1/2+x,1/2+y,z
1/2-x,1/2-y,z
3/4-x,3/4+y,1/4+z
3/4+x,3/4-y,1/4+z
loop_
_atom_site_type_symbol
_atom_site_label
_atom_site_fract_x
_atom_site_fract_y
_atom_site_fract_z
Si Si1 0.939032 0.325295 0.873060
Si Si2 0.715695 0.447368 0.474472
Si Si3 0.109863 0.969015 0.944152
Si Si4 0.131952 0.371594 0.326968
Si Si5 0.546144 0.425133 0.311216
Si Si6 0.317885 0.933551 0.749356
Si Si7 0.116070 0.245537 0.906644
O O1 0.858662 0.294182 0.803001
O O2 0.972353 0.374817 0.820023
O O3 0.063885 0.299319 0.888501
O O4 0.875680 0.329758 0.971278
O O5 0.778432 0.495241 0.429673
O O6 0.799835 0.399231 0.493165
O O7 0.617475 0.432469 0.402783
O O8 0.645781 0.460189 0.567638
O O9 0.098239 0.923395 0.874016
O O10 0.000000 0.000000 0.918514
O O11 0.263918 0.381754 0.290952
O O12 0.128927 0.327563 0.400940
O O13 0.427895 0.460064 0.302965
O O14 0.209855 0.971186 0.739902
O O15 0.250000 0.250000 0.937145
#
# Coordination Sequence:
#
# PCOD8187606 Si02
#       7
#    16  16  16  16  16  16  16
#     4  11  28  46  76 110 152 203 257 325 391 479
#     4  10  27  47  77 116 160 205 261 334 400 476
#     4  11  25  47  78 111 159 205 273 323 399 486
#     4  11  24  47  75 111 149 207 258 320 401 459
#     4  12  27  47  77 112 150 204 258 317 405 474
#     4  11  25  45  78 107 152 202 257 318 388 473
#     4  10  26  50  71 109 158 199 254 329 387 467
#
# _framework density 24.956206999999999
#
# number of rings (size 3 to 8) (size 9 to 14) (size 15 to 20)
#    0.000    1.143    1.429    1.714   12.000    4.000 
#    0.000    0.000    0.000    0.000    0.000    0.000 
#    0.000    0.000    0.000    0.000    0.000    0.000 
#
# Total GULP energy -346917.686289 kJ/mol
# GULP energy per Si atom -12389.917367 kJ/mol
# Density = 2.489941 g / cm^3
# Si number density = 24.956207 Si / 1000 Ang^3
#
#
#
# Elastic Constant Matrix: (Units=GPa)
#
#
# Indices 1 2 3 4 5 6 
#
# 1 185.2459 42.4414 62.0789 0.0000 0.0000 0.0000
# 2 42.4414 59.1721 23.0692 0.0000 0.0000 0.0000
# 3 62.0789 23.0692 107.8963 0.0000 0.0000 0.0000
# 4 0.0000 0.0000 0.0000 16.0822 0.0000 0.0000
# 5 0.0000 0.0000 0.0000 0.0000 45.7310 0.0000
# 6 0.0000 0.0000 0.0000 0.0000 0.0000 40.4480
#
#
#
# Elastic Compliance Matrix: (Units=1/GPa)
#
#
# Indices 1 2 3 4 5 6 
#
# 1 0.007471 -0.004018 -0.003440 0.000000 0.000000 0.000000
# 2 -0.004018 0.020597 -0.002092 0.000000 0.000000 0.000000
# 3 -0.003440 -0.002092 0.011695 0.000000 0.000000 0.000000
# 4 0.000000 0.000000 0.000000 0.062180 0.000000 0.000000
# 5 0.000000 0.000000 0.000000 0.000000 0.021867 0.000000
# 6 0.000000 0.000000 0.000000 0.000000 0.000000 0.024723
#
#
# Mechanical properties :
#
#
# Convention : Reuss Voigt Hill
#
# Bulk Modulus (GPa) = 48.39375 67.49927 57.94651
# Shear Modulus (GPa) = 28.64978 35.43391 32.04185
#
# Velocity S-wave (km/s) = 3.39189 3.77217 3.58707
# Velocity P-wave (km/s) = 5.89691 6.78809 6.35813
#
# Compressibility (1/GPa) = 0.02066382
#
# Stress axis : x y z
#
# Youngs Moduli (GPa) = 133.84261 48.54981 85.51006
#
# Poissons Ratio (x) = 0.19507 0.29413
# Poissons Ratio (y) = 0.53777 0.17890
# Poissons Ratio (z) = 0.46038 0.10157
#
# Static dielectric constant tensor:
#      x y z
#    x 4.798360 0.000000 0.000000 
#    y 0.000000 4.779800 0.000000 
#    z 0.000000 0.000000 4.624240 
# 
# 
# High freq. dielectric constant tensor:
#      x y z
#    x 2.012380 0.000000 0.000000 
#    y 0.000000 1.996110 0.000000 
#    z 0.000000 0.000000 1.998910 
# 
# From -- ./inp_files/9798.got.cif
#   From: 2010.06.25/outbox.cif.g09.slc.cpg/sg43_5_cif.got.tgz:9798.got - 2010.06.26 16:48:59.
