data_PCOD8187413
_publ_section_title
;
Structure prediction by ZEFSAII (Michael W. Deem and Ramdas Pophale) SiO2 
 PCOD8187413
Probable space group: F D D 2
;
_chemical_formula_sum "Si O2"
_cell_formula_units_Z 96
_cell_length_a 16.384220
_cell_length_b 23.532005
_cell_length_c 10.913394
_cell_angle_alpha 90.000000
_cell_angle_beta 90.000000
_cell_angle_gamma 90.000000
_cell_volume 4207.697766
_symmetry_space_group_name_H-M "F D D 2"
_symmetry_group_IT_number 43
_symmetry_cell_setting 'orthorhombic'
loop_
_space_group_symop_operation_xyz
x,y,z
-x,-y,z
1/4-x,1/4+y,1/4+z
1/4+x,1/4-y,1/4+z
x,1/2+y,1/2+z
-x,1/2-y,1/2+z
1/4-x,3/4+y,3/4+z
1/4+x,3/4-y,3/4+z
1/2+x,y,1/2+z
1/2-x,-y,1/2+z
3/4-x,1/4+y,3/4+z
3/4+x,1/4-y,3/4+z
1/2+x,1/2+y,z
1/2-x,1/2-y,z
3/4-x,3/4+y,1/4+z
3/4+x,3/4-y,1/4+z
loop_
_atom_site_type_symbol
_atom_site_label
_atom_site_fract_x
_atom_site_fract_y
_atom_site_fract_z
Si Si1 0.502618 0.613836 0.322340
Si Si2 0.000000 0.000000 0.461947
Si Si3 0.592774 0.775652 0.877163
Si Si4 0.683059 0.642293 0.320464
Si Si5 0.500776 0.664917 0.827632
Si Si6 0.000000 0.500000 0.506970
Si Si7 0.628122 0.323718 0.617890
O O1 0.475218 0.552420 0.373971
O O2 0.441534 0.660620 0.373697
O O3 0.594585 0.623736 0.367257
O O4 0.499949 0.621296 0.174941
O O5 0.923728 0.983117 0.547191
O O6 0.522750 0.730922 0.844448
O O7 0.611206 0.772481 0.022566
O O8 0.701756 0.608085 0.195589
O O9 0.680672 0.712007 0.322368
O O10 0.447214 0.659449 0.704490
O O11 0.586050 0.631347 0.806514
O O12 0.955441 0.448687 0.440894
#
# Coordination Sequence:
#
# PCOD8187413 Si02
#       7
#    16   8  16  16  16   8  16
#     4  12  26  47  76 106 154 197 255 309 391 454
#     4  12  28  52  72 116 150 208 254 328 378 480
#     4  12  28  46  76 105 156 193 259 310 395 452
#     4  11  24  46  73 112 145 203 249 322 376 472
#     4  11  27  46  75 110 153 197 261 315 391 455
#     4  10  22  42  74 100 148 184 258 302 388 436
#     4  11  26  45  74 107 148 203 246 322 377 467
#
# _framework density 22.815328000000001
#
# number of rings (size 3 to 8) (size 9 to 14) (size 15 to 20)
#    0.000    0.667    1.667    5.000   14.000    2.667 
#    0.000    0.000    0.000    0.000    0.000    0.000 
#    0.000    0.000    0.000    0.000    0.000    0.000 
#
# Total GULP energy -297404.927105 kJ/mol
# GULP energy per Si atom -12391.871963 kJ/mol
# Density = 2.276340 g / cm^3
# Si number density = 22.815328 Si / 1000 Ang^3
#
#
#
# Elastic Constant Matrix: (Units=GPa)
#
#
# Indices 1 2 3 4 5 6 
#
# 1 125.0107 60.3456 49.9254 0.0000 0.0000 0.0000
# 2 60.3456 138.8486 20.3153 0.0000 0.0000 0.0000
# 3 49.9254 20.3153 101.9712 0.0000 0.0000 0.0000
# 4 0.0000 0.0000 0.0000 28.2614 0.0000 0.0000
# 5 0.0000 0.0000 0.0000 0.0000 -56.5448 0.0000
# 6 0.0000 0.0000 0.0000 0.0000 0.0000 43.7331
#
#
#
# Elastic Compliance Matrix: (Units=1/GPa)
#
#
# Indices 1 2 3 4 5 6 
#
# 1 0.012236 -0.004575 -0.005080 0.000000 0.000000 0.000000
# 2 -0.004575 0.009129 0.000421 0.000000 0.000000 0.000000
# 3 -0.005080 0.000421 0.012210 0.000000 0.000000 0.000000
# 4 0.000000 0.000000 0.000000 0.035384 0.000000 0.000000
# 5 0.000000 0.000000 0.000000 0.000000 -0.017685 0.000000
# 6 0.000000 0.000000 0.000000 0.000000 0.000000 0.022866
#
#
# Mechanical properties :
#
#
# Convention : Reuss Voigt Hill
#
# Bulk Modulus (GPa) = 66.18828 69.66702 67.92765
# Shear Modulus (GPa) = 51.20735 18.77287 34.99011
#
# Velocity S-wave (km/s) = 4.74268 2.87159 3.92040
# Velocity P-wave (km/s) = 7.68532 6.44951 7.09437
#
# Compressibility (1/GPa) = 0.01510841
#
# Stress axis : x y z
#
# Youngs Moduli (GPa) = 81.72387 109.54369 81.90195
#
# Poissons Ratio (x) = 0.50115 0.41602
# Poissons Ratio (y) = 0.37388 -0.03450
# Poissons Ratio (z) = 0.41512 -0.04614
#
# Static dielectric constant tensor:
#      x y z
#    x 4.029030 0.000000 0.000000 
#    y 0.000000 4.193710 0.000000 
#    z 0.000000 0.000000 4.186860 
# 
# 
# High freq. dielectric constant tensor:
#      x y z
#    x 1.906250 0.000000 0.000000 
#    y 0.000000 1.916910 0.000000 
#    z 0.000000 0.000000 1.899980 
# 
# From -- ./inp_files/6698.got.cif
#   From: 2010.06.25/outbox.cif.g09.slc.cpg/sg43_4_cif.got.tgz:6698.got - 2010.06.26 16:48:59.
