data_PCOD8187465
_publ_section_title
;
Structure prediction by ZEFSAII (Michael W. Deem and Ramdas Pophale) SiO2 
 PCOD8187465
Probable space group: F D D 2
;
_chemical_formula_sum "Si O2"
_cell_formula_units_Z 56
_cell_length_a 5.116099
_cell_length_b 13.291552
_cell_length_c 33.556141
_cell_angle_alpha 90.000000
_cell_angle_beta 90.000000
_cell_angle_gamma 90.000000
_cell_volume 2281.847651
_symmetry_space_group_name_H-M "F D D 2"
_symmetry_group_IT_number 43
_symmetry_cell_setting 'orthorhombic'
loop_
_space_group_symop_operation_xyz
x,y,z
-x,-y,z
1/4-x,1/4+y,1/4+z
1/4+x,1/4-y,1/4+z
x,1/2+y,1/2+z
-x,1/2-y,1/2+z
1/4-x,3/4+y,3/4+z
1/4+x,3/4-y,3/4+z
1/2+x,y,1/2+z
1/2-x,-y,1/2+z
3/4-x,1/4+y,3/4+z
3/4+x,1/4-y,3/4+z
1/2+x,1/2+y,z
1/2-x,1/2-y,z
3/4-x,3/4+y,1/4+z
3/4+x,3/4-y,1/4+z
loop_
_atom_site_type_symbol
_atom_site_label
_atom_site_fract_x
_atom_site_fract_y
_atom_site_fract_z
Si Si1 0.250000 0.250000 0.791831
Si Si2 0.779526 0.864389 0.654191
Si Si3 0.720846 0.133570 0.602707
Si Si4 0.243655 0.439754 0.740654
O O1 0.479848 0.301239 0.818226
O O2 0.167013 0.336509 0.761866
O O3 0.750000 0.750000 0.667927
O O4 0.566031 0.889333 0.620169
O O5 0.745113 0.931661 0.692991
O O6 0.067072 0.885592 0.637243
O O7 0.750000 0.250000 0.587605
O O8 0.500000 0.500000 0.755332
O O9 0.000000 0.500000 0.755941
#
# Coordination Sequence:
#
# PCOD8187465 Si02
#       4
#     8  16  16  16
#     4  12  28  50  74 112 152 198 238 318 376 422
#     4  10  22  47  72 108 141 191 244 302 359 442
#     4  10  24  43  75 106 146 186 248 299 364 441
#     4  12  28  47  76 108 150 194 250 302 369 446
#
# _framework density 24.541516000000001
#
# number of rings (size 3 to 8) (size 9 to 14) (size 15 to 20)
#    0.000    1.143    1.429    2.571    6.000    9.143 
#    0.000    0.000    0.000    0.000    0.000    0.000 
#    0.000    0.000    0.000    0.000    0.000    0.000 
#
# Total GULP energy -173515.393420 kJ/mol
# GULP energy per Si atom -12393.956673 kJ/mol
# Density = 2.448566 g / cm^3
# Si number density = 24.541516 Si / 1000 Ang^3
#
#
#
# Elastic Constant Matrix: (Units=GPa)
#
#
# Indices 1 2 3 4 5 6 
#
# 1 140.9365 45.5247 24.6143 0.0000 0.0000 0.0000
# 2 45.5247 161.4783 63.0612 0.0000 0.0000 0.0000
# 3 24.6143 63.0612 101.8581 0.0000 0.0000 0.0000
# 4 0.0000 0.0000 0.0000 61.9848 0.0000 0.0000
# 5 0.0000 0.0000 0.0000 0.0000 103.0648 0.0000
# 6 0.0000 0.0000 0.0000 0.0000 0.0000 38.4403
#
#
#
# Elastic Compliance Matrix: (Units=1/GPa)
#
#
# Indices 1 2 3 4 5 6 
#
# 1 0.007843 -0.001940 -0.000694 0.000000 0.000000 0.000000
# 2 -0.001940 0.008647 -0.004885 0.000000 0.000000 0.000000
# 3 -0.000694 -0.004885 0.013010 0.000000 0.000000 0.000000
# 4 0.000000 0.000000 0.000000 0.016133 0.000000 0.000000
# 5 0.000000 0.000000 0.000000 0.000000 0.009703 0.000000
# 6 0.000000 0.000000 0.000000 0.000000 0.000000 0.026014
#
#
# Mechanical properties :
#
#
# Convention : Reuss Voigt Hill
#
# Bulk Modulus (GPa) = 69.14695 74.51927 71.83311
# Shear Modulus (GPa) = 49.40257 58.76948 54.08603
#
# Velocity S-wave (km/s) = 4.49154 4.89887 4.69962
# Velocity P-wave (km/s) = 7.42531 7.90121 7.66695
#
# Compressibility (1/GPa) = 0.01446195
#
# Stress axis : x y z
#
# Youngs Moduli (GPa) = 127.49691 115.64168 76.86637
#
# Poissons Ratio (x) = 0.22436 0.05336
# Poissons Ratio (y) = 0.24736 0.37548
# Poissons Ratio (z) = 0.08851 0.56489
#
# Static dielectric constant tensor:
#      x y z
#    x 4.110600 0.000000 0.000000 
#    y 0.000000 4.748340 0.000000 
#    z 0.000000 0.000000 4.335780 
# 
# 
# High freq. dielectric constant tensor:
#      x y z
#    x 1.968740 0.000000 0.000000 
#    y 0.000000 2.006760 0.000000 
#    z 0.000000 0.000000 1.977490 
# 
# From -- ./inp_files/26983.got.cif
#   From: 2010.06.25/outbox.cif.g09.slc.cpg/sg43_14_cif.got.tgz:26983.got - 2010.06.26 16:48:59.
