data_PCOD8187663
_publ_section_title
;
Structure prediction by ZEFSAII (Michael W. Deem and Ramdas Pophale) SiO2 
 PCOD8187663
Probable space group: F D D 2
;
_chemical_formula_sum "Si O2"
_cell_formula_units_Z 120
_cell_length_a 17.634607
_cell_length_b 12.920900
_cell_length_c 23.356919
_cell_angle_alpha 90.000000
_cell_angle_beta 90.000000
_cell_angle_gamma 90.000000
_cell_volume 5321.990629
_symmetry_space_group_name_H-M "F D D 2"
_symmetry_group_IT_number 43
_symmetry_cell_setting 'orthorhombic'
loop_
_space_group_symop_operation_xyz
x,y,z
-x,-y,z
1/4-x,1/4+y,1/4+z
1/4+x,1/4-y,1/4+z
x,1/2+y,1/2+z
-x,1/2-y,1/2+z
1/4-x,3/4+y,3/4+z
1/4+x,3/4-y,3/4+z
1/2+x,y,1/2+z
1/2-x,-y,1/2+z
3/4-x,1/4+y,3/4+z
3/4+x,1/4-y,3/4+z
1/2+x,1/2+y,z
1/2-x,1/2-y,z
3/4-x,3/4+y,1/4+z
3/4+x,3/4-y,1/4+z
loop_
_atom_site_type_symbol
_atom_site_label
_atom_site_fract_x
_atom_site_fract_y
_atom_site_fract_z
Si Si1 0.750000 0.250000 0.146060
Si Si2 0.818386 0.461694 0.983317
Si Si3 0.132658 0.850959 0.434829
Si Si4 0.922315 0.539318 0.078682
Si Si5 0.082746 0.538448 0.601732
Si Si6 0.570579 0.621392 0.296042
Si Si7 0.562168 0.750104 0.034058
Si Si8 0.657287 0.984501 0.715694
O O1 0.694171 0.172919 0.181130
O O2 0.709565 0.336517 0.107158
O O3 0.851002 0.513776 0.040106
O O4 0.740459 0.408072 0.999392
O O5 0.803331 0.558080 0.939727
O O6 0.881633 0.384554 0.955432
O O7 0.155283 0.770489 0.386873
O O8 0.130731 0.779947 0.491618
O O9 0.937315 0.662602 0.084050
O O10 0.000000 0.500000 0.050243
O O11 0.116802 0.459678 0.555302
O O12 0.074263 0.644805 0.567710
O O13 0.138911 0.548216 0.656961
O O14 0.000000 0.500000 0.622834
O O15 0.606127 0.520001 0.268542
O O16 0.492058 0.749255 0.988715
#
# Coordination Sequence:
#
# PCOD8187663 Si02
#       8
#     8  16  16  16  16  16  16  16
#     4  12  22  42  76 110 130 180 244 308 354 420
#     4  11  22  41  68 108 135 173 236 303 356 425
#     4  11  24  41  72 101 143 186 236 293 368 431
#     4  11  23  42  70 101 138 183 236 296 363 425
#     4  12  27  45  69 103 144 191 242 295 369 439
#     4  12  23  42  71 102 140 174 239 302 358 425
#     4  11  26  47  67 104 146 188 240 299 363 445
#     4  12  23  43  73 101 139 183 234 306 360 415
#
# _framework density 22.547955000000002
#
# number of rings (size 3 to 8) (size 9 to 14) (size 15 to 20)
#    0.000    0.533    5.333    3.200    1.867    4.267 
#    0.000    2.000    0.000    0.000    0.000    0.000 
#    0.000    0.000    0.000    0.000    0.000    0.000 
#
# Total GULP energy -371644.364649 kJ/mol
# GULP energy per Si atom -12388.145488 kJ/mol
# Density = 2.249663 g / cm^3
# Si number density = 22.547955 Si / 1000 Ang^3
#
#
#
# Elastic Constant Matrix: (Units=GPa)
#
#
# Indices 1 2 3 4 5 6 
#
# 1 46.0682 28.9869 5.4776 0.0000 0.0000 0.0000
# 2 28.9869 160.9613 58.1600 0.0000 0.0000 0.0000
# 3 5.4776 58.1600 86.6386 0.0000 0.0000 0.0000
# 4 0.0000 0.0000 0.0000 39.4496 0.0000 0.0000
# 5 0.0000 0.0000 0.0000 0.0000 25.8716 0.0000
# 6 0.0000 0.0000 0.0000 0.0000 0.0000 24.4442
#
#
#
# Elastic Compliance Matrix: (Units=1/GPa)
#
#
# Indices 1 2 3 4 5 6 
#
# 1 0.024711 -0.005130 0.001881 0.000000 0.000000 0.000000
# 2 -0.005130 0.009267 -0.005897 0.000000 0.000000 0.000000
# 3 0.001881 -0.005897 0.015382 0.000000 0.000000 0.000000
# 4 0.000000 0.000000 0.000000 0.025349 0.000000 0.000000
# 5 0.000000 0.000000 0.000000 0.000000 0.038652 0.000000
# 6 0.000000 0.000000 0.000000 0.000000 0.000000 0.040909
#
#
# Mechanical properties :
#
#
# Convention : Reuss Voigt Hill
#
# Bulk Modulus (GPa) = 32.18592 53.21299 42.69946
# Shear Modulus (GPa) = 27.33476 31.35601 29.34538
#
# Velocity S-wave (km/s) = 3.48558 3.73317 3.61150
# Velocity P-wave (km/s) = 5.52308 6.49871 6.03066
#
# Compressibility (1/GPa) = 0.03106948
#
# Stress axis : x y z
#
# Youngs Moduli (GPa) = 40.46765 107.90838 65.01265
#
# Poissons Ratio (x) = 0.55356 -0.12231
# Poissons Ratio (y) = 0.20760 0.38336
# Poissons Ratio (z) = -0.07613 0.63630
#
# Static dielectric constant tensor:
#      x y z
#    x 4.151390 0.000000 0.000000 
#    y 0.000000 4.391170 0.000000 
#    z 0.000000 0.000000 3.992950 
# 
# 
# High freq. dielectric constant tensor:
#      x y z
#    x 1.877450 0.000000 0.000000 
#    y 0.000000 1.903080 0.000000 
#    z 0.000000 0.000000 1.892690 
# 
# From -- ./inp_files/22444.got.cif
#   From: 2010.06.25/outbox.cif.g09.slc.cpg/sg43_12_cif.got.tgz:22444.got - 2010.06.26 16:48:59.
