data_PCOD8187461
_publ_section_title
;
Structure prediction by ZEFSAII (Michael W. Deem and Ramdas Pophale) SiO2 
 PCOD8187461
Probable space group: F D D 2
;
_chemical_formula_sum "Si O2"
_cell_formula_units_Z 72
_cell_length_a 9.819095
_cell_length_b 21.054376
_cell_length_c 16.341701
_cell_angle_alpha 90.000000
_cell_angle_beta 90.000000
_cell_angle_gamma 90.000000
_cell_volume 3378.400218
_symmetry_space_group_name_H-M "F D D 2"
_symmetry_group_IT_number 43
_symmetry_cell_setting 'orthorhombic'
loop_
_space_group_symop_operation_xyz
x,y,z
-x,-y,z
1/4-x,1/4+y,1/4+z
1/4+x,1/4-y,1/4+z
x,1/2+y,1/2+z
-x,1/2-y,1/2+z
1/4-x,3/4+y,3/4+z
1/4+x,3/4-y,3/4+z
1/2+x,y,1/2+z
1/2-x,-y,1/2+z
3/4-x,1/4+y,3/4+z
3/4+x,1/4-y,3/4+z
1/2+x,1/2+y,z
1/2-x,1/2-y,z
3/4-x,3/4+y,1/4+z
3/4+x,3/4-y,1/4+z
loop_
_atom_site_type_symbol
_atom_site_label
_atom_site_fract_x
_atom_site_fract_y
_atom_site_fract_z
Si Si1 0.453169 0.072565 0.953880
Si Si2 0.317395 0.917901 0.065734
Si Si3 0.693607 0.628523 0.032872
Si Si4 0.000000 0.500000 0.176584
Si Si5 0.552969 0.932009 0.459534
O O1 0.474820 0.106972 0.867857
O O2 0.500000 0.000000 0.943472
O O3 0.554204 0.108110 0.015398
O O4 0.303429 0.079992 0.993159
O O5 0.371390 0.977305 0.120889
O O6 0.200014 0.938423 0.002451
O O7 0.708091 0.638039 0.129533
O O8 0.697237 0.694121 0.983844
O O9 0.545740 0.597666 0.026768
O O10 0.500000 0.000000 0.431022
#
# Coordination Sequence:
#
# PCOD8187461 Si02
#       5
#    16  16  16   8  16
#     4  11  23  45  70  96 134 183 224 275 335 415
#     4  11  24  44  67  99 136 172 229 275 341 397
#     4  11  24  45  71  98 134 178 233 271 346 402
#     4  10  22  46  72  94 130 192 222 268 342 432
#     4  12  26  42  66 102 137 174 221 294 330 395
#
# _framework density 21.311862999999999
#
# number of rings (size 3 to 8) (size 9 to 14) (size 15 to 20)
#    0.000    0.889    2.222    5.333    3.111    0.000 
#    8.000    1.111    0.000    0.000    0.000    0.000 
#    0.000    0.000    0.000    0.000    0.000    0.000 
#
# Total GULP energy -223160.157191 kJ/mol
# GULP energy per Si atom -12397.786511 kJ/mol
# Density = 2.126336 g / cm^3
# Si number density = 21.311863 Si / 1000 Ang^3
#
#
#
# Elastic Constant Matrix: (Units=GPa)
#
#
# Indices 1 2 3 4 5 6 
#
# 1 104.6870 32.0074 33.9438 0.0000 0.0000 0.0000
# 2 32.0074 114.9659 41.5568 0.0000 0.0000 0.0000
# 3 33.9438 41.5568 114.8402 0.0000 0.0000 0.0000
# 4 0.0000 0.0000 0.0000 27.8787 0.0000 0.0000
# 5 0.0000 0.0000 0.0000 0.0000 39.7443 0.0000
# 6 0.0000 0.0000 0.0000 0.0000 0.0000 30.7979
#
#
#
# Elastic Compliance Matrix: (Units=1/GPa)
#
#
# Indices 1 2 3 4 5 6 
#
# 1 0.011018 -0.002175 -0.002470 0.000000 0.000000 0.000000
# 2 -0.002175 0.010436 -0.003134 0.000000 0.000000 0.000000
# 3 -0.002470 -0.003134 0.010572 0.000000 0.000000 0.000000
# 4 0.000000 0.000000 0.000000 0.035870 0.000000 0.000000
# 5 0.000000 0.000000 0.000000 0.000000 0.025161 0.000000
# 6 0.000000 0.000000 0.000000 0.000000 0.000000 0.032470
#
#
# Mechanical properties :
#
#
# Convention : Reuss Voigt Hill
#
# Bulk Modulus (GPa) = 60.71746 61.05655 60.88700
# Shear Modulus (GPa) = 34.11272 34.81651 34.46462
#
# Velocity S-wave (km/s) = 4.00515 4.04625 4.02575
# Velocity P-wave (km/s) = 7.06683 7.10921 7.08805
#
# Compressibility (1/GPa) = 0.01646973
#
# Stress axis : x y z
#
# Youngs Moduli (GPa) = 90.76086 95.81770 94.59185
#
# Poissons Ratio (x) = 0.20838 0.23361
# Poissons Ratio (y) = 0.19738 0.29643
# Poissons Ratio (z) = 0.22415 0.30027
#
# Static dielectric constant tensor:
#      x y z
#    x 3.935970 0.000000 0.000000 
#    y 0.000000 3.912630 0.000000 
#    z 0.000000 0.000000 3.979310 
# 
# 
# High freq. dielectric constant tensor:
#      x y z
#    x 1.842160 0.000000 0.000000 
#    y 0.000000 1.838540 0.000000 
#    z 0.000000 0.000000 1.848010 
# 
# From -- ./inp_files/12555.got.cif
#   From: 2010.06.25/outbox.cif.g09.slc.cpg/sg43_7_cif.got.tgz:12555.got - 2010.06.26 16:48:59.
