data_PCOD8187395
_publ_section_title
;
Structure prediction by ZEFSAII (Michael W. Deem and Ramdas Pophale) SiO2 
 PCOD8187395
Probable space group: F D D 2
;
_chemical_formula_sum "Si O2"
_cell_formula_units_Z 96
_cell_length_a 19.807670
_cell_length_b 23.390072
_cell_length_c 8.379241
_cell_angle_alpha 90.000000
_cell_angle_beta 90.000000
_cell_angle_gamma 90.000000
_cell_volume 3882.126047
_symmetry_space_group_name_H-M "F D D 2"
_symmetry_group_IT_number 43
_symmetry_cell_setting 'orthorhombic'
loop_
_space_group_symop_operation_xyz
x,y,z
-x,-y,z
1/4-x,1/4+y,1/4+z
1/4+x,1/4-y,1/4+z
x,1/2+y,1/2+z
-x,1/2-y,1/2+z
1/4-x,3/4+y,3/4+z
1/4+x,3/4-y,3/4+z
1/2+x,y,1/2+z
1/2-x,-y,1/2+z
3/4-x,1/4+y,3/4+z
3/4+x,1/4-y,3/4+z
1/2+x,1/2+y,z
1/2-x,1/2-y,z
3/4-x,3/4+y,1/4+z
3/4+x,3/4-y,1/4+z
loop_
_atom_site_type_symbol
_atom_site_label
_atom_site_fract_x
_atom_site_fract_y
_atom_site_fract_z
Si Si1 0.985570 0.909505 0.306150
Si Si2 0.750000 0.750000 0.329567
Si Si3 0.487388 0.203654 0.973229
Si Si4 0.250000 0.750000 0.314191
Si Si5 0.009828 0.674745 0.309710
Si Si6 0.136265 0.379893 0.313087
Si Si7 0.604217 0.501164 0.827431
O O1 0.976850 0.943861 0.469354
O O2 0.916585 0.908829 0.204684
O O3 0.032669 0.949328 0.189612
O O4 0.011417 0.845602 0.337802
O O5 0.692337 0.778144 0.216327
O O6 0.505303 0.265107 0.898815
O O7 0.534890 0.189012 0.127308
O O8 0.410771 0.202369 0.040038
O O9 0.186099 0.732861 0.419515
O O10 0.940511 0.639766 0.287371
O O11 0.066176 0.636538 0.401834
O O12 0.136333 0.442877 0.391769
#
# Coordination Sequence:
#
# PCOD8187395 Si02
#       7
#    16   8  16   8  16  16  16
#     4  11  24  41  64  97 136 177 226 284 346 417
#     4  10  22  42  66  96 134 180 232 284 346 416
#     4  11  24  44  68  99 135 178 228 284 345 413
#     4  10  24  42  64 100 136 178 230 284 346 414
#     4  11  25  46  71 102 138 183 232 287 350 417
#     4  11  24  44  71 100 137 182 229 284 350 418
#     4  10  22  43  69  95 133 181 230 284 345 413
#
# _framework density 24.728717
#
# number of rings (size 3 to 8) (size 9 to 14) (size 15 to 20)
#    0.000    1.333    0.000    5.000    0.000    9.333 
#    0.000   10.000    0.000    0.000    0.000    0.000 
#    0.000    0.000    0.000    0.000    0.000    0.000 
#
# Total GULP energy -297346.718120 kJ/mol
# GULP energy per Si atom -12389.446588 kJ/mol
# Density = 2.467243 g / cm^3
# Si number density = 24.728717 Si / 1000 Ang^3
#
#
#
# Elastic Constant Matrix: (Units=GPa)
#
#
# Indices 1 2 3 4 5 6 
#
# 1 90.4805 35.5847 38.3507 -0.0003 0.0003 0.0001
# 2 35.5847 136.1828 58.7272 -0.0006 0.0006 0.0003
# 3 38.3507 58.7272 139.8843 -0.0024 0.0019 0.0012
# 4 -0.0003 -0.0006 -0.0024 51.8835 0.0012 0.0007
# 5 0.0003 0.0006 0.0019 0.0012 9.3699 -0.0006
# 6 0.0001 0.0003 0.0012 0.0007 -0.0006 34.7531
#
#
#
# Elastic Compliance Matrix: (Units=1/GPa)
#
#
# Indices 1 2 3 4 5 6 
#
# 1 0.013061 -0.002282 -0.002623 0.000000 0.000000 0.000000
# 2 -0.002282 0.009365 -0.003306 0.000000 0.000000 0.000000
# 3 -0.002623 -0.003306 0.009256 0.000000 -0.000002 0.000000
# 4 0.000000 0.000000 0.000000 0.019274 -0.000002 0.000000
# 5 0.000000 0.000000 -0.000002 -0.000002 0.106724 0.000002
# 6 0.000000 0.000000 0.000000 0.000000 0.000002 0.028774
#
#
# Mechanical properties :
#
#
# Convention : Reuss Voigt Hill
#
# Bulk Modulus (GPa) = 65.52878 70.20808 67.86843
# Shear Modulus (GPa) = 24.04269 34.79364 29.41817
#
# Velocity S-wave (km/s) = 3.12149 3.75509 3.45285
# Velocity P-wave (km/s) = 6.28873 6.87414 6.58794
#
# Compressibility (1/GPa) = 0.01526047
#
# Stress axis : x y z
#
# Youngs Moduli (GPa) = 76.56237 106.78020 108.03966
#
# Poissons Ratio (x) = 0.24365 0.28338
# Poissons Ratio (y) = 0.17470 0.35719
# Poissons Ratio (z) = 0.20082 0.35303
#
# Static dielectric constant tensor:
#      x y z
#    x 4.195390 0.000000 0.000000 
#    y 0.000000 4.744480 0.000000 
#    z 0.000000 0.000000 4.749080 
# 
# 
# High freq. dielectric constant tensor:
#      x y z
#    x 1.949820 0.000000 0.000000 
#    y 0.000000 2.014710 0.000000 
#    z 0.000000 0.000000 1.998680 
# 
# From -- ./inp_files/3746.got.cif
#   From: 2010.06.25/outbox.cif.g09.slc.cpg/sg43_2_cif.got.tgz:3746.got - 2010.06.26 16:48:59.
