data_PCOD8187899
_publ_section_title
;
Structure prediction by ZEFSAII (Michael W. Deem and Ramdas Pophale) SiO2 
 PCOD8187899
Probable space group: I M M 2
;
_chemical_formula_sum "Si O2"
_cell_formula_units_Z 64
_cell_length_a 8.801114
_cell_length_b 21.386330
_cell_length_c 22.012056
_cell_angle_alpha 90.000000
_cell_angle_beta 90.000000
_cell_angle_gamma 90.000000
_cell_volume 4143.186847
_symmetry_space_group_name_H-M "I M M 2"
_symmetry_group_IT_number 44
_symmetry_cell_setting 'orthorhombic'
loop_
_space_group_symop_operation_xyz
x,y,z
-x,-y,z
-x,y,z
x,-y,z
1/2+x,1/2+y,1/2+z
1/2-x,1/2-y,1/2+z
1/2-x,1/2+y,1/2+z
1/2+x,1/2-y,1/2+z
loop_
_atom_site_type_symbol
_atom_site_label
_atom_site_fract_x
_atom_site_fract_y
_atom_site_fract_z
Si Si1 0.181299 0.830468 0.553440
Si Si2 0.821770 0.830004 0.690297
Si Si3 0.321180 0.257253 0.465110
Si Si4 0.679289 0.341937 0.876799
Si Si5 0.171250 0.345623 0.379387
Si Si6 0.679714 0.429173 0.286949
Si Si7 0.831566 0.242288 0.275128
Si Si8 0.178119 0.572196 0.961709
O O1 0.242458 0.835644 0.622445
O O2 0.241634 0.763791 0.528103
O O3 0.250021 0.888872 0.517011
O O4 0.000000 0.832575 0.549222
O O5 0.756470 0.886902 0.731335
O O6 0.778468 0.763275 0.720790
O O7 0.000000 0.834063 0.687980
O O8 0.500000 0.263207 0.474583
O O9 0.281407 0.203388 0.417557
O O10 0.256815 0.323540 0.440778
O O11 0.500000 0.333101 0.891302
O O12 0.710391 0.325421 0.805412
O O13 0.738461 0.410324 0.897341
O O14 0.251946 0.406350 0.350982
O O15 0.177269 0.290050 0.330960
O O16 0.000000 0.363432 0.396783
O O17 0.500000 0.423039 0.291628
O O18 0.731641 0.500000 0.274691
O O19 0.000000 0.240434 0.247266
O O20 0.209990 0.500000 0.975076
O O21 0.000000 0.586739 0.956726
#
# Coordination Sequence:
#
# PCOD8187899 Si02
#       8
#     8   8   8   8   8   8   8   8
#     4  10  19  30  43  60  83 112 146 178 208 244
#     4   9  18  29  42  60  82 112 146 176 206 243
#     4  10  17  26  42  61  80 104 134 170 215 256
#     4   9  16  27  43  62  81 103 133 169 212 255
#     4   9  16  27  42  60  81 104 134 172 213 254
#     4   9  17  29  43  60  84 113 145 178 209 244
#     4   8  15  26  41  60  80 102 130 168 211 252
#     4  10  20  31  42  59  83 112 146 179 210 245
#
# _framework density 15.447047
#
# number of rings (size 3 to 8) (size 9 to 14) (size 15 to 20)
#    0.000    2.750    0.000    4.875    0.000    6.250 
#    0.000    1.250    0.000    0.000    0.000    0.000 
#    0.000    1.000    0.000    7.000    0.000    6.000 
#
# Total GULP energy -396523.386092 kJ/mol
# GULP energy per Si atom -12391.355815 kJ/mol
# Density = 1.541189 g / cm^3
# Si number density = 15.447047 Si / 1000 Ang^3
#
#
#
# Elastic Constant Matrix: (Units=GPa)
#
#
# Indices 1 2 3 4 5 6 
#
# 1 61.3365 33.7670 38.0979 0.0000 0.0000 0.0000
# 2 33.7670 59.7911 69.1340 0.0000 0.0000 0.0000
# 3 38.0979 69.1340 88.6181 0.0000 0.0000 0.0000
# 4 0.0000 0.0000 0.0000 17.5791 0.0000 0.0000
# 5 0.0000 0.0000 0.0000 0.0000 21.1128 0.0000
# 6 0.0000 0.0000 0.0000 0.0000 0.0000 21.4091
#
#
#
# Elastic Compliance Matrix: (Units=1/GPa)
#
#
# Indices 1 2 3 4 5 6 
#
# 1 0.023717 -0.016381 0.002583 0.000000 0.000000 0.000000
# 2 -0.016381 0.182040 -0.134974 0.000000 0.000000 0.000000
# 3 0.002583 -0.134974 0.115471 0.000000 0.000000 0.000000
# 4 0.000000 0.000000 0.000000 0.056886 0.000000 0.000000
# 5 0.000000 0.000000 0.000000 0.000000 0.047365 0.000000
# 6 0.000000 0.000000 0.000000 0.000000 0.000000 0.046709
#
#
# Mechanical properties :
#
#
# Convention : Reuss Voigt Hill
#
# Bulk Modulus (GPa) = 42.21896 54.63817 48.42856
# Shear Modulus (GPa) = 6.42983 16.60333 11.51658
#
# Velocity S-wave (km/s) = 2.04243 3.28205 2.73344
# Velocity P-wave (km/s) = 5.74045 7.05766 6.43286
#
# Compressibility (1/GPa) = 0.02368604
#
# Stress axis : x y z
#
# Youngs Moduli (GPa) = 42.16368 5.49329 8.66016
#
# Poissons Ratio (x) = 0.08998 -0.02237
# Poissons Ratio (y) = 0.69067 1.16889
# Poissons Ratio (z) = -0.10891 0.74145
#
# Static dielectric constant tensor:
#      x y z
#    x 3.004350 0.000000 0.000000 
#    y 0.000000 3.012740 0.000000 
#    z 0.000000 0.000000 3.133660 
# 
# 
# High freq. dielectric constant tensor:
#      x y z
#    x 1.602960 0.000000 0.000000 
#    y 0.000000 1.561430 0.000000 
#    z 0.000000 0.000000 1.568540 
# 
# From -- ./inp_files/25245.got.cif
#   From: 2010.03.12/outbox.cif.g09.slc.cpg/sg44_13_cif.got.tgz:25245.got - 2010.04.14 02:36:11.
