data_PCOD8187460
_publ_section_title
;
Structure prediction by ZEFSAII (Michael W. Deem and Ramdas Pophale) SiO2 
 PCOD8187460
Probable space group: F D D 2
;
_chemical_formula_sum "Si O2"
_cell_formula_units_Z 96
_cell_length_a 19.786088
_cell_length_b 21.626832
_cell_length_c 10.041981
_cell_angle_alpha 90.000000
_cell_angle_beta 90.000000
_cell_angle_gamma 90.000000
_cell_volume 4297.068118
_symmetry_space_group_name_H-M "F D D 2"
_symmetry_group_IT_number 43
_symmetry_cell_setting 'orthorhombic'
loop_
_space_group_symop_operation_xyz
x,y,z
-x,-y,z
1/4-x,1/4+y,1/4+z
1/4+x,1/4-y,1/4+z
x,1/2+y,1/2+z
-x,1/2-y,1/2+z
1/4-x,3/4+y,3/4+z
1/4+x,3/4-y,3/4+z
1/2+x,y,1/2+z
1/2-x,-y,1/2+z
3/4-x,1/4+y,3/4+z
3/4+x,1/4-y,3/4+z
1/2+x,1/2+y,z
1/2-x,1/2-y,z
3/4-x,3/4+y,1/4+z
3/4+x,3/4-y,1/4+z
loop_
_atom_site_type_symbol
_atom_site_label
_atom_site_fract_x
_atom_site_fract_y
_atom_site_fract_z
Si Si1 0.060150 0.046826 0.551380
Si Si2 0.291378 0.392230 0.256525
Si Si3 0.817272 0.966090 0.017492
Si Si4 0.198041 0.305215 0.108341
Si Si5 0.098026 0.668365 0.920013
Si Si6 0.317728 0.008883 0.914313
O O1 0.055285 0.071604 0.702140
O O2 0.057369 0.104519 0.447840
O O3 0.131914 0.012208 0.531743
O O4 0.000000 0.000000 0.516505
O O5 0.336834 0.416118 0.131324
O O6 0.222482 0.362720 0.198801
O O7 0.331598 0.342597 0.344385
O O8 0.277018 0.451597 0.347889
O O9 0.806004 0.035125 0.076966
O O10 0.873307 0.964377 0.903121
O O11 0.742771 0.947127 0.965266
O O12 0.250000 0.250000 0.132594
O O13 0.113153 0.702758 0.059476
#
# Coordination Sequence:
#
# PCOD8187460 Si02
#       6
#    16  16  16  16  16  16
#     4  10  24  45  70 101 137 177 225 278 340 402
#     4  10  23  43  66  99 133 178 225 274 337 402
#     4  11  24  42  70  98 137 178 228 279 337 404
#     4  11  23  43  67 100 136 180 227 278 340 404
#     4  10  22  46  65 101 133 177 225 273 341 400
#     4  10  24  44  67 102 134 178 226 278 345 396
#
# _framework density 22.340813000000001
#
# number of rings (size 3 to 8) (size 9 to 14) (size 15 to 20)
#    0.000    1.667    1.667    1.000    7.000    2.667 
#   18.000    0.000    0.000    0.000    0.000    0.000 
#    0.000    0.000    0.000    0.000    0.000    0.000 
#
# Total GULP energy -297492.551527 kJ/mol
# GULP energy per Si atom -12395.522980 kJ/mol
# Density = 2.228996 g / cm^3
# Si number density = 22.340813 Si / 1000 Ang^3
#
#
#
# Elastic Constant Matrix: (Units=GPa)
#
#
# Indices 1 2 3 4 5 6 
#
# 1 128.2462 46.3814 57.8226 0.0000 0.0000 0.0000
# 2 46.3814 86.6712 45.8713 0.0000 0.0000 0.0000
# 3 57.8226 45.8713 107.9544 0.0001 0.0000 0.0000
# 4 0.0000 0.0000 0.0001 25.5139 0.0000 0.0000
# 5 0.0000 0.0000 0.0000 0.0000 38.3967 0.0000
# 6 0.0000 0.0000 0.0000 0.0000 0.0000 33.0305
#
#
#
# Elastic Compliance Matrix: (Units=1/GPa)
#
#
# Indices 1 2 3 4 5 6 
#
# 1 0.011087 -0.003600 -0.004409 0.000000 0.000000 0.000000
# 2 -0.003600 0.016054 -0.004894 0.000000 0.000000 0.000000
# 3 -0.004409 -0.004894 0.013704 0.000000 0.000000 0.000000
# 4 0.000000 0.000000 0.000000 0.039194 0.000000 0.000000
# 5 0.000000 0.000000 0.000000 0.000000 0.026044 0.000000
# 6 0.000000 0.000000 0.000000 0.000000 0.000000 0.030275
#
#
# Mechanical properties :
#
#
# Convention : Reuss Voigt Hill
#
# Bulk Modulus (GPa) = 66.48530 69.22473 67.85501
# Shear Modulus (GPa) = 29.90842 30.90799 30.40820
#
# Velocity S-wave (km/s) = 3.66284 3.72355 3.69332
# Velocity P-wave (km/s) = 6.90744 7.03843 6.97324
#
# Compressibility (1/GPa) = 0.01504092
#
# Stress axis : x y z
#
# Youngs Moduli (GPa) = 90.19347 62.28908 72.97125
#
# Poissons Ratio (x) = 0.22423 0.32173
# Poissons Ratio (y) = 0.32468 0.35709
# Poissons Ratio (z) = 0.39766 0.30481
#
# Static dielectric constant tensor:
#      x y z
#    x 3.623900 0.000000 0.000000 
#    y 0.000000 4.132570 0.000000 
#    z 0.000000 0.000000 4.150970 
# 
# 
# High freq. dielectric constant tensor:
#      x y z
#    x 1.852750 0.000000 0.000000 
#    y 0.000000 1.889650 0.000000 
#    z 0.000000 0.000000 1.890410 
# 
# From -- ./inp_files/6691.got.cif
#   From: 2010.06.25/outbox.cif.g09.slc.cpg/sg43_4_cif.got.tgz:6691.got - 2010.06.26 16:48:59.
