data_PCOD8187921
_publ_section_title
;
Structure prediction by ZEFSAII (Michael W. Deem and Ramdas Pophale) SiO2 
 PCOD8187921
Probable space group: I M M 2
;
_chemical_formula_sum "Si O2"
_cell_formula_units_Z 56
_cell_length_a 24.925544
_cell_length_b 9.527468
_cell_length_c 14.316526
_cell_angle_alpha 90.000000
_cell_angle_beta 90.000000
_cell_angle_gamma 90.000000
_cell_volume 3399.850267
_symmetry_space_group_name_H-M "I M M 2"
_symmetry_group_IT_number 44
_symmetry_cell_setting 'orthorhombic'
loop_
_space_group_symop_operation_xyz
x,y,z
-x,-y,z
-x,y,z
x,-y,z
1/2+x,1/2+y,1/2+z
1/2-x,1/2-y,1/2+z
1/2-x,1/2+y,1/2+z
1/2+x,1/2-y,1/2+z
loop_
_atom_site_type_symbol
_atom_site_label
_atom_site_fract_x
_atom_site_fract_y
_atom_site_fract_z
Si Si1 0.000000 0.338267 0.220541
Si Si2 0.713869 0.160935 0.111781
Si Si3 0.500000 0.330377 0.528530
Si Si4 0.687464 0.667969 0.284711
Si Si5 0.885056 0.338140 0.272503
Si Si6 0.107286 0.840361 0.935061
Si Si7 0.708771 0.833558 0.901621
Si Si8 0.163129 0.845493 0.121436
O O1 0.000000 0.236172 0.131523
O O2 0.948491 0.311010 0.287858
O O3 0.000000 0.500000 0.184951
O O4 0.681695 0.258323 0.184138
O O5 0.708397 0.224852 0.007454
O O6 0.774958 0.170745 0.144228
O O7 0.693087 0.000000 0.116733
O O8 0.500000 0.500000 0.540838
O O9 0.551665 0.271807 0.471050
O O10 0.688757 0.500000 0.272365
O O11 0.634224 0.720526 0.340860
O O12 0.740717 0.720014 0.340467
O O13 0.871263 0.500000 0.260550
O O14 0.847161 0.279221 0.355243
O O15 0.871314 0.268561 0.174466
O O16 0.154096 0.824880 0.011583
O O17 0.092718 0.000000 0.915005
O O18 0.712252 0.000000 0.908353
O O19 0.142558 0.000000 0.151546
#
# Coordination Sequence:
#
# PCOD8187921 Si02
#       8
#     4   8   4   8   8   8   8   8
#     4  10  20  30  44  71 100 120 150 199 240 271
#     4  10  19  31  47  70  97 124 155 192 233 276
#     4  10  18  30  50  71  92 126 162 185 226 289
#     4  10  18  31  49  69  93 124 158 192 231 275
#     4  10  19  31  46  67  95 127 156 185 230 283
#     4   9  17  29  47  70  95 124 157 188 224 278
#     4   9  17  30  48  65  89 126 157 182 226 283
#     4  10  17  27  46  71  96 120 151 193 227 270
#
# _framework density 16.471314
#
# number of rings (size 3 to 8) (size 9 to 14) (size 15 to 20)
#    0.000    2.286    4.286    0.000    0.000    0.000 
#    0.000    2.857    0.000    0.857    0.000    1.000 
#    0.000    0.000    0.000    0.000    0.000    0.000 
#
# Total GULP energy -346958.878439 kJ/mol
# GULP energy per Si atom -12391.388516 kJ/mol
# Density = 1.643382 g / cm^3
# Si number density = 16.471314 Si / 1000 Ang^3
#
#
#
# Elastic Constant Matrix: (Units=GPa)
#
#
# Indices 1 2 3 4 5 6 
#
# 1 85.7040 19.9941 39.5536 0.0000 0.0000 0.0000
# 2 19.9941 29.1969 25.1654 0.0000 0.0000 0.0000
# 3 39.5536 25.1654 90.5911 0.0000 0.0000 0.0000
# 4 0.0000 0.0000 0.0000 25.7058 0.0000 0.0000
# 5 0.0000 0.0000 0.0000 0.0000 28.8519 0.0000
# 6 0.0000 0.0000 0.0000 0.0000 0.0000 14.0522
#
#
#
# Elastic Compliance Matrix: (Units=1/GPa)
#
#
# Indices 1 2 3 4 5 6 
#
# 1 0.015437 -0.006261 -0.005001 0.000000 0.000000 0.000000
# 2 -0.006261 0.047572 -0.010482 0.000000 0.000000 0.000000
# 3 -0.005001 -0.010482 0.016134 0.000000 0.000000 0.000000
# 4 0.000000 0.000000 0.000000 0.038902 0.000000 0.000000
# 5 0.000000 0.000000 0.000000 0.000000 0.034660 0.000000
# 6 0.000000 0.000000 0.000000 0.000000 0.000000 0.071163
#
#
# Mechanical properties :
#
#
# Convention : Reuss Voigt Hill
#
# Bulk Modulus (GPa) = 28.04562 41.65758 34.85160
# Shear Modulus (GPa) = 17.90585 21.77390 19.83987
#
# Velocity S-wave (km/s) = 3.30069 3.63978 3.47437
# Velocity P-wave (km/s) = 5.62049 6.55819 6.10736
#
# Compressibility (1/GPa) = 0.03565620
#
# Stress axis : x y z
#
# Youngs Moduli (GPa) = 64.78134 21.02081 61.98216
#
# Poissons Ratio (x) = 0.13161 0.30995
# Poissons Ratio (y) = 0.40558 0.64967
# Poissons Ratio (z) = 0.32395 0.22033
#
# Static dielectric constant tensor:
#      x y z
#    x 3.332080 0.000000 0.000000 
#    y 0.000000 2.858180 0.000000 
#    z 0.000000 0.000000 3.079080 
# 
# 
# High freq. dielectric constant tensor:
#      x y z
#    x 1.631050 0.000000 0.000000 
#    y 0.000000 1.602920 0.000000 
#    z 0.000000 0.000000 1.621370 
# 
# From -- ./inp_files/12625.got.cif
#   From: 2010.03.12/outbox.cif.g09.slc.cpg/sg44_7_cif.got.tgz:12625.got - 2010.04.14 02:36:11.
