data_PCOD8187434
_publ_section_title
;
Structure prediction by ZEFSAII (Michael W. Deem and Ramdas Pophale) SiO2 
 PCOD8187434
Probable space group: F D D 2
;
_chemical_formula_sum "Si O2"
_cell_formula_units_Z 88
_cell_length_a 27.227433
_cell_length_b 12.134151
_cell_length_c 12.337156
_cell_angle_alpha 90.000000
_cell_angle_beta 90.000000
_cell_angle_gamma 90.000000
_cell_volume 4075.971601
_symmetry_space_group_name_H-M "F D D 2"
_symmetry_group_IT_number 43
_symmetry_cell_setting 'orthorhombic'
loop_
_space_group_symop_operation_xyz
x,y,z
-x,-y,z
1/4-x,1/4+y,1/4+z
1/4+x,1/4-y,1/4+z
x,1/2+y,1/2+z
-x,1/2-y,1/2+z
1/4-x,3/4+y,3/4+z
1/4+x,3/4-y,3/4+z
1/2+x,y,1/2+z
1/2-x,-y,1/2+z
3/4-x,1/4+y,3/4+z
3/4+x,1/4-y,3/4+z
1/2+x,1/2+y,z
1/2-x,1/2-y,z
3/4-x,3/4+y,1/4+z
3/4+x,3/4-y,1/4+z
loop_
_atom_site_type_symbol
_atom_site_label
_atom_site_fract_x
_atom_site_fract_y
_atom_site_fract_z
Si Si1 0.575084 0.231152 0.013720
Si Si2 0.250000 0.750000 0.030379
Si Si3 0.978976 0.284956 0.642065
Si Si4 0.324502 0.893866 0.541868
Si Si5 0.908093 0.502937 0.926319
Si Si6 0.131104 0.550361 0.333635
O O1 0.522167 0.263088 0.058639
O O2 0.615419 0.281808 0.093647
O O3 0.583574 0.283355 0.897059
O O4 0.579646 0.099277 0.004491
O O5 0.265581 0.649603 0.954438
O O6 0.294372 0.788989 0.107655
O O7 0.975661 0.184529 0.732038
O O8 0.928040 0.283780 0.574363
O O9 0.328850 0.763258 0.567333
O O10 0.369952 0.907755 0.457334
O O11 0.887668 0.601663 0.998706
#
# Coordination Sequence:
#
# PCOD8187434 Si02
#       6
#    16   8  16  16  16  16
#     4  12  23  45  70 105 136 193 238 289 373 420
#     4  12  22  46  70 108 136 184 244 288 360 436
#     4  10  25  41  71  98 144 180 239 294 354 428
#     4  10  22  44  66  99 140 187 230 297 349 433
#     4  12  24  41  75 101 144 181 240 299 353 445
#     4  10  23  43  66  98 140 180 231 298 358 412
#
# _framework density 21.589943999999999
#
# number of rings (size 3 to 8) (size 9 to 14) (size 15 to 20)
#    1.091    0.000    1.818    5.455    0.000    1.455 
#    0.000    0.000    4.000    0.000    0.000    0.000 
#    0.000    0.000    0.000    0.000    0.000    0.000 
#
# Total GULP energy -272573.293602 kJ/mol
# GULP energy per Si atom -12389.695164 kJ/mol
# Density = 2.154080 g / cm^3
# Si number density = 21.589944 Si / 1000 Ang^3
#
#
#
# Elastic Constant Matrix: (Units=GPa)
#
#
# Indices 1 2 3 4 5 6 
#
# 1 50.7675 7.1111 25.8206 0.0000 0.0000 0.0000
# 2 7.1111 99.2328 38.5073 0.0000 0.0000 0.0000
# 3 25.8206 38.5073 127.1569 0.0000 0.0000 0.0000
# 4 0.0000 0.0000 0.0000 30.2664 0.0000 0.0000
# 5 0.0000 0.0000 0.0000 0.0000 17.2250 0.0000
# 6 0.0000 0.0000 0.0000 0.0000 0.0000 35.9594
#
#
#
# Elastic Compliance Matrix: (Units=1/GPa)
#
#
# Indices 1 2 3 4 5 6 
#
# 1 0.021969 0.000178 -0.004515 0.000000 0.000000 0.000000
# 2 0.000178 0.011421 -0.003495 0.000000 0.000000 0.000000
# 3 -0.004515 -0.003495 0.009839 0.000000 0.000000 0.000000
# 4 0.000000 0.000000 0.000000 0.033040 0.000000 0.000000
# 5 0.000000 0.000000 0.000000 0.000000 0.058055 0.000000
# 6 0.000000 0.000000 0.000000 0.000000 0.000000 0.027809
#
#
# Mechanical properties :
#
#
# Convention : Reuss Voigt Hill
#
# Bulk Modulus (GPa) = 36.27728 46.67058 41.47393
# Shear Modulus (GPa) = 26.74004 30.40471 28.57238
#
# Velocity S-wave (km/s) = 3.52311 3.75678 3.64182
# Velocity P-wave (km/s) = 5.77833 6.36251 6.07744
#
# Compressibility (1/GPa) = 0.02756546
#
# Stress axis : x y z
#
# Youngs Moduli (GPa) = 45.51858 87.56046 101.63243
#
# Poissons Ratio (x) = -0.01556 0.45886
# Poissons Ratio (y) = -0.00809 0.35517
# Poissons Ratio (z) = 0.20551 0.30599
#
# Static dielectric constant tensor:
#      x y z
#    x 3.774720 0.000000 0.000000 
#    y 0.000000 3.834830 0.000000 
#    z 0.000000 0.000000 4.007670 
# 
# 
# High freq. dielectric constant tensor:
#      x y z
#    x 1.830600 0.000000 0.000000 
#    y 0.000000 1.846400 0.000000 
#    z 0.000000 0.000000 1.866490 
# 
# From -- ./inp_files/5738.got.cif
#   From: 2010.06.25/outbox.cif.g09.slc.cpg/sg43_3_cif.got.tgz:5738.got - 2010.06.26 16:48:59.
