data_PCOD8187039
_publ_section_title
;
Structure prediction by ZEFSAII (Michael W. Deem and Ramdas Pophale) SiO2 
 PCOD8187039
Probable space group: F D D 2
;
_chemical_formula_sum "Si O2"
_cell_formula_units_Z 104
_cell_length_a 9.594736
_cell_length_b 18.735793
_cell_length_c 26.371467
_cell_angle_alpha 90.000000
_cell_angle_beta 90.000000
_cell_angle_gamma 90.000000
_cell_volume 4740.666438
_symmetry_space_group_name_H-M "F D D 2"
_symmetry_group_IT_number 43
_symmetry_cell_setting 'orthorhombic'
loop_
_space_group_symop_operation_xyz
x,y,z
-x,-y,z
1/4-x,1/4+y,1/4+z
1/4+x,1/4-y,1/4+z
x,1/2+y,1/2+z
-x,1/2-y,1/2+z
1/4-x,3/4+y,3/4+z
1/4+x,3/4-y,3/4+z
1/2+x,y,1/2+z
1/2-x,-y,1/2+z
3/4-x,1/4+y,3/4+z
3/4+x,1/4-y,3/4+z
1/2+x,1/2+y,z
1/2-x,1/2-y,z
3/4-x,3/4+y,1/4+z
3/4+x,3/4-y,1/4+z
loop_
_atom_site_type_symbol
_atom_site_label
_atom_site_fract_x
_atom_site_fract_y
_atom_site_fract_z
Si Si1 0.167425 0.323586 0.051390
Si Si2 0.499136 0.414496 0.153337
Si Si3 0.543506 0.627230 0.045392
Si Si4 0.029641 0.696008 0.448590
Si Si5 0.286271 0.923270 0.409814
Si Si6 0.500000 0.500000 0.973843
Si Si7 0.779816 0.395222 0.198687
O O1 0.250000 0.250000 0.040231
O O2 0.290594 0.382699 0.056391
O O3 0.071834 0.318905 0.101014
O O4 0.065795 0.352013 0.007754
O O5 0.500000 0.500000 0.146824
O O6 0.529278 0.373881 0.100139
O O7 0.346661 0.398449 0.175616
O O8 0.614816 0.381327 0.191113
O O9 0.515078 0.698883 0.011043
O O10 0.477768 0.566465 0.010383
O O11 0.166800 0.651703 0.434826
O O12 0.048559 0.774605 0.425635
O O13 0.119304 0.915888 0.419076
O O14 0.361527 0.988963 0.438862
#
# Coordination Sequence:
#
# PCOD8187039 Si02
#       7
#    16  16  16  16  16   8  16
#     4  12  21  36  64  93 118 166 218 264 320 387
#     4  10  22  37  58  89 125 164 204 261 329 385
#     4  11  20  36  62  87 119 163 212 256 313 396
#     4  10  20  37  61  87 120 165 211 257 313 390
#     4  11  21  35  62  88 121 157 209 268 310 377
#     4  10  20  34  56  92 114 154 208 256 316 368
#     4  11  22  39  58  93 127 158 213 273 313 380
#
# _framework density 21.937843999999998
#
# number of rings (size 3 to 8) (size 9 to 14) (size 15 to 20)
#    0.000    1.231    7.692    0.462    0.000    1.231 
#    0.000    0.000    0.000    7.385    0.000    0.000 
#    0.000    0.000    0.000    0.000    0.000    0.000 
#
# Total GULP energy -322112.195621 kJ/mol
# GULP energy per Si atom -12388.930601 kJ/mol
# Density = 2.188791 g / cm^3
# Si number density = 21.937844 Si / 1000 Ang^3
#
#
#
# Elastic Constant Matrix: (Units=GPa)
#
#
# Indices 1 2 3 4 5 6 
#
# 1 100.2069 20.9391 44.3342 0.0000 0.0000 0.0000
# 2 20.9391 35.6961 5.5449 0.0000 0.0000 0.0000
# 3 44.3342 5.5449 149.1343 0.0000 0.0000 0.0000
# 4 0.0000 0.0000 0.0000 22.0031 0.0000 0.0000
# 5 0.0000 0.0000 0.0000 0.0000 36.2435 0.0000
# 6 0.0000 0.0000 0.0000 0.0000 0.0000 31.8241
#
#
#
# Elastic Compliance Matrix: (Units=1/GPa)
#
#
# Indices 1 2 3 4 5 6 
#
# 1 0.013065 -0.007101 -0.003620 0.000000 0.000000 0.000000
# 2 -0.007101 0.032037 0.000920 0.000000 0.000000 0.000000
# 3 -0.003620 0.000920 0.007747 0.000000 0.000000 0.000000
# 4 0.000000 0.000000 0.000000 0.045448 0.000000 0.000000
# 5 0.000000 0.000000 0.000000 0.000000 0.027591 0.000000
# 6 0.000000 0.000000 0.000000 0.000000 0.000000 0.031423
#
#
# Mechanical properties :
#
#
# Convention : Reuss Voigt Hill
#
# Bulk Modulus (GPa) = 30.07844 47.40818 38.74331
# Shear Modulus (GPa) = 26.59634 32.29540 29.44587
#
# Velocity S-wave (km/s) = 3.48566 3.84100 3.66764
# Velocity P-wave (km/s) = 5.47177 6.42870 5.96944
#
# Compressibility (1/GPa) = 0.03324641
#
# Stress axis : x y z
#
# Youngs Moduli (GPa) = 76.54179 31.21393 129.07800
#
# Poissons Ratio (x) = 0.22166 0.46724
# Poissons Ratio (y) = 0.54355 -0.11874
# Poissons Ratio (z) = 0.27707 -0.02871
#
# Static dielectric constant tensor:
#      x y z
#    x 4.023610 0.000000 0.000000 
#    y 0.000000 3.976940 0.000000 
#    z 0.000000 0.000000 3.987870 
# 
# 
# High freq. dielectric constant tensor:
#      x y z
#    x 1.850490 0.000000 0.000000 
#    y 0.000000 1.844590 0.000000 
#    z 0.000000 0.000000 1.865520 
# 
# From -- ./inp_files/26339.got.cif
#   From: 2010.06.25/outbox.cif.g09.slc.cpg/sg43_14_cif.got.tgz:26339.got - 2010.06.26 16:48:59.
