data_PCOD8187801
_publ_section_title
;
Structure prediction by ZEFSAII (Michael W. Deem and Ramdas Pophale) SiO2 
 PCOD8187801
Probable space group: F D D 2
;
_chemical_formula_sum "Si O2"
_cell_formula_units_Z 120
_cell_length_a 22.563107
_cell_length_b 9.095282
_cell_length_c 27.119119
_cell_angle_alpha 90.000000
_cell_angle_beta 90.000000
_cell_angle_gamma 90.000000
_cell_volume 5565.326508
_symmetry_space_group_name_H-M "F D D 2"
_symmetry_group_IT_number 43
_symmetry_cell_setting 'orthorhombic'
loop_
_space_group_symop_operation_xyz
x,y,z
-x,-y,z
1/4-x,1/4+y,1/4+z
1/4+x,1/4-y,1/4+z
x,1/2+y,1/2+z
-x,1/2-y,1/2+z
1/4-x,3/4+y,3/4+z
1/4+x,3/4-y,3/4+z
1/2+x,y,1/2+z
1/2-x,-y,1/2+z
3/4-x,1/4+y,3/4+z
3/4+x,1/4-y,3/4+z
1/2+x,1/2+y,z
1/2-x,1/2-y,z
3/4-x,3/4+y,1/4+z
3/4+x,3/4-y,1/4+z
loop_
_atom_site_type_symbol
_atom_site_label
_atom_site_fract_x
_atom_site_fract_y
_atom_site_fract_z
Si Si1 0.299716 0.366501 0.679620
Si Si2 0.141890 0.244365 0.409321
Si Si3 0.113663 0.267181 0.835189
Si Si4 0.280216 0.904179 0.716099
Si Si5 0.831653 0.001221 0.477646
Si Si6 0.440783 0.721915 0.619350
Si Si7 0.250000 0.750000 0.437305
Si Si8 0.937506 0.198541 0.074438
O O1 0.250000 0.250000 0.663283
O O2 0.320623 0.453650 0.631021
O O3 0.273659 0.480832 0.719365
O O4 0.352774 0.288196 0.708194
O O5 0.074063 0.275809 0.425085
O O6 0.168136 0.405828 0.406522
O O7 0.146415 0.162615 0.356136
O O8 0.182055 0.148469 0.447352
O O9 0.076991 0.284706 0.785023
O O10 0.140229 0.100166 0.834446
O O11 0.166053 0.386551 0.833709
O O12 0.250000 0.750000 0.700990
O O13 0.315437 0.894763 0.767911
O O14 0.785331 0.131491 0.469334
O O15 0.453843 0.582243 0.653129
O O16 0.493737 0.798639 0.589622
#
# Coordination Sequence:
#
# PCOD8187801 Si02
#       8
#    16  16  16  16  16  16   8  16
#     4  12  22  46  70  96 142 190 236 293 351 433
#     4  12  24  43  69 102 145 179 237 301 359 421
#     4  12  23  44  70  99 142 186 236 295 367 425
#     4  12  26  43  68 106 141 186 241 304 360 423
#     4  12  25  46  69 105 140 189 238 292 366 436
#     4  12  22  42  72  98 133 184 233 300 347 424
#     4  12  24  46  70  96 140 178 232 292 354 432
#     4  12  22  44  73 103 132 188 244 293 358 439
#
# _framework density 21.562076000000001
#
# number of rings (size 3 to 8) (size 9 to 14) (size 15 to 20)
#    0.000    0.000    8.000    2.800    0.000    0.000 
#    6.000    0.000    0.000    0.000    0.000    0.000 
#    0.000    0.000    0.000    0.000    0.000    0.000 
#
# Total GULP energy -371943.052466 kJ/mol
# GULP energy per Si atom -12398.101749 kJ/mol
# Density = 2.151300 g / cm^3
# Si number density = 21.562076 Si / 1000 Ang^3
#
#
#
# Elastic Constant Matrix: (Units=GPa)
#
#
# Indices 1 2 3 4 5 6 
#
# 1 72.8941 35.1558 26.8386 0.0000 0.0000 0.0000
# 2 35.1558 140.8192 34.7590 0.0000 0.0000 0.0001
# 3 26.8386 34.7590 120.1667 0.0000 0.0000 0.0000
# 4 0.0000 0.0000 0.0000 31.7980 0.0000 0.0000
# 5 0.0000 0.0000 0.0000 0.0000 28.9788 0.0000
# 6 0.0000 0.0001 0.0000 0.0000 0.0000 45.9851
#
#
#
# Elastic Compliance Matrix: (Units=1/GPa)
#
#
# Indices 1 2 3 4 5 6 
#
# 1 0.016350 -0.003425 -0.002661 0.000000 0.000000 0.000000
# 2 -0.003425 0.008365 -0.001655 0.000000 0.000000 0.000000
# 3 -0.002661 -0.001655 0.009395 0.000000 0.000000 0.000000
# 4 0.000000 0.000000 0.000000 0.031449 0.000000 0.000000
# 5 0.000000 0.000000 0.000000 0.000000 0.034508 0.000000
# 6 0.000000 0.000000 0.000000 0.000000 0.000000 0.021746
#
#
# Mechanical properties :
#
#
# Convention : Reuss Voigt Hill
#
# Bulk Modulus (GPa) = 53.68162 58.59852 56.14007
# Shear Modulus (GPa) = 34.84247 37.16081 36.00164
#
# Velocity S-wave (km/s) = 4.02420 4.15593 4.09060
# Velocity P-wave (km/s) = 6.82222 7.08976 6.95727
#
# Compressibility (1/GPa) = 0.01862835
#
# Stress axis : x y z
#
# Youngs Moduli (GPa) = 61.16166 119.54887 106.44293
#
# Poissons Ratio (x) = 0.40946 0.28324
# Poissons Ratio (y) = 0.20948 0.17612
# Poissons Ratio (z) = 0.16275 0.19781
#
# Static dielectric constant tensor:
#      x y z
#    x 3.864550 0.000000 0.000000 
#    y 0.000000 4.217990 0.000000 
#    z 0.000000 0.000000 3.862470 
# 
# 
# High freq. dielectric constant tensor:
#      x y z
#    x 1.837800 0.000000 0.000000 
#    y 0.000000 1.867120 0.000000 
#    z 0.000000 0.000000 1.839280 
# 
# From -- ./inp_files/24462.got.cif
#   From: 2010.06.25/outbox.cif.g09.slc.cpg/sg43_13_cif.got.tgz:24462.got - 2010.06.26 16:48:59.
