data_PCOD8187629
_publ_section_title
;
Structure prediction by ZEFSAII (Michael W. Deem and Ramdas Pophale) SiO2 
 PCOD8187629
Probable space group: F D D 2
;
_chemical_formula_sum "Si O2"
_cell_formula_units_Z 88
_cell_length_a 25.698558
_cell_length_b 10.897922
_cell_length_c 14.238949
_cell_angle_alpha 90.000000
_cell_angle_beta 90.000000
_cell_angle_gamma 90.000000
_cell_volume 3987.772596
_symmetry_space_group_name_H-M "F D D 2"
_symmetry_group_IT_number 43
_symmetry_cell_setting 'orthorhombic'
loop_
_space_group_symop_operation_xyz
x,y,z
-x,-y,z
1/4-x,1/4+y,1/4+z
1/4+x,1/4-y,1/4+z
x,1/2+y,1/2+z
-x,1/2-y,1/2+z
1/4-x,3/4+y,3/4+z
1/4+x,3/4-y,3/4+z
1/2+x,y,1/2+z
1/2-x,-y,1/2+z
3/4-x,1/4+y,3/4+z
3/4+x,1/4-y,3/4+z
1/2+x,1/2+y,z
1/2-x,1/2-y,z
3/4-x,3/4+y,1/4+z
3/4+x,3/4-y,1/4+z
loop_
_atom_site_type_symbol
_atom_site_label
_atom_site_fract_x
_atom_site_fract_y
_atom_site_fract_z
Si Si1 0.750000 0.250000 0.118300
Si Si2 0.792802 0.846544 0.090911
Si Si3 0.877025 0.160374 0.526256
Si Si4 0.229213 0.612518 0.391813
Si Si5 0.944171 0.802204 0.491690
Si Si6 0.909502 0.157464 0.317490
O O1 0.788016 0.172469 0.185304
O O2 0.785643 0.337150 0.052735
O O3 0.750000 0.750000 0.126365
O O4 0.844621 0.777584 0.058077
O O5 0.805997 0.933242 0.177169
O O6 0.772213 0.926789 0.001684
O O7 0.921181 0.136064 0.602491
O O8 0.903755 0.187125 0.427401
O O9 0.840084 0.039858 0.516531
O O10 0.250000 0.750000 0.388368
O O11 0.267469 0.527072 0.330236
O O12 0.885920 0.821329 0.527869
#
# Coordination Sequence:
#
# PCOD8187629 Si02
#       6
#     8  16  16  16  16  16
#     4  12  24  42  74 106 134 186 244 296 352 424
#     4  11  26  41  69 105 143 187 241 302 370 431
#     4  12  22  43  73 100 136 192 244 292 358 437
#     4  11  20  45  73 102 134 194 247 285 355 449
#     4  12  23  45  71 104 143 181 246 301 354 431
#     4  12  22  43  75  98 138 193 240 294 355 437
#
# _framework density 22.067457999999998
#
# number of rings (size 3 to 8) (size 9 to 14) (size 15 to 20)
#    0.000    0.364    8.182    2.182    0.000    1.455 
#    0.000    0.000    8.000    0.000    0.000    0.000 
#    0.000    0.000    0.000    0.000    0.000    0.000 
#
# Total GULP energy -272869.033076 kJ/mol
# GULP energy per Si atom -12403.137867 kJ/mol
# Density = 2.201723 g / cm^3
# Si number density = 22.067458 Si / 1000 Ang^3
#
#
#
# Elastic Constant Matrix: (Units=GPa)
#
#
# Indices 1 2 3 4 5 6 
#
# 1 108.2944 24.3555 23.8406 0.0000 0.0000 0.0000
# 2 24.3555 76.6844 39.7867 0.0000 0.0000 0.0000
# 3 23.8406 39.7867 89.5203 0.0000 0.0000 0.0000
# 4 0.0000 0.0000 0.0000 41.5268 0.0000 0.0000
# 5 0.0000 0.0000 0.0000 0.0000 -0.2809 0.0000
# 6 0.0000 0.0000 0.0000 0.0000 0.0000 30.4583
#
#
#
# Elastic Compliance Matrix: (Units=1/GPa)
#
#
# Indices 1 2 3 4 5 6 
#
# 1 0.010128 -0.002362 -0.001647 0.000000 0.000000 0.000000
# 2 -0.002362 0.017500 -0.007149 0.000000 0.000000 0.000000
# 3 -0.001647 -0.007149 0.014787 0.000000 0.000000 0.000000
# 4 0.000000 0.000000 0.000000 0.024081 0.000000 0.000000
# 5 0.000000 0.000000 0.000000 0.000000 -3.559496 0.000000
# 6 0.000000 0.000000 0.000000 0.000000 0.000000 0.032832
#
#
# Mechanical properties :
#
#
# Convention : Reuss Voigt Hill
#
# Bulk Modulus (GPa) = 49.75587 50.05162 49.90375
# Shear Modulus (GPa) = -1.45724 26.77524 12.65900
#
# Velocity S-wave (km/s) = -0.81350 3.48708 2.39770
# Velocity P-wave (km/s) = 4.65980 6.24046 5.50714
#
# Compressibility (1/GPa) = 0.02009813
#
# Stress axis : x y z
#
# Youngs Moduli (GPa) = 98.73642 57.14438 67.62915
#
# Poissons Ratio (x) = 0.13497 0.11142
# Poissons Ratio (y) = 0.23321 0.48345
# Poissons Ratio (z) = 0.16267 0.40850
#
# Static dielectric constant tensor:
#      x y z
#    x 4.599090 0.000000 0.000000 
#    y 0.000000 3.991630 0.000000 
#    z 0.000000 0.000000 4.361460 
# 
# 
# High freq. dielectric constant tensor:
#      x y z
#    x 1.885860 0.000000 0.000000 
#    y 0.000000 1.845370 0.000000 
#    z 0.000000 0.000000 1.867270 
# 
# From -- ./inp_files/5769.got.cif
#   From: 2010.06.25/outbox.cif.g09.slc.cpg/sg43_3_cif.got.tgz:5769.got - 2010.06.26 16:48:59.
