data_PCOD8187873
_publ_section_title
;
Structure prediction by ZEFSAII (Michael W. Deem and Ramdas Pophale) SiO2 
 PCOD8187873
Probable space group: I M M 2
;
_chemical_formula_sum "Si O2"
_cell_formula_units_Z 48
_cell_length_a 16.756460
_cell_length_b 9.147616
_cell_length_c 18.687768
_cell_angle_alpha 90.000000
_cell_angle_beta 90.000000
_cell_angle_gamma 90.000000
_cell_volume 2864.492131
_symmetry_space_group_name_H-M "I M M 2"
_symmetry_group_IT_number 44
_symmetry_cell_setting 'orthorhombic'
loop_
_space_group_symop_operation_xyz
x,y,z
-x,-y,z
-x,y,z
x,-y,z
1/2+x,1/2+y,1/2+z
1/2-x,1/2-y,1/2+z
1/2-x,1/2+y,1/2+z
1/2+x,1/2-y,1/2+z
loop_
_atom_site_type_symbol
_atom_site_label
_atom_site_fract_x
_atom_site_fract_y
_atom_site_fract_z
Si Si1 0.829876 0.326948 0.969980
Si Si2 0.663825 0.671941 0.214528
Si Si3 0.500000 0.173647 0.440013
Si Si4 0.683295 0.674154 0.055036
Si Si5 0.411216 0.326332 0.918666
Si Si6 0.238624 0.172512 0.330336
Si Si7 0.500000 0.670046 0.290764
O O1 0.826213 0.500000 0.971220
O O2 0.799629 0.275471 0.892143
O O3 0.920731 0.270935 0.981771
O O4 0.771549 0.267758 0.032062
O O5 0.679748 0.500000 0.215793
O O6 0.664377 0.735047 0.133659
O O7 0.736019 0.746412 0.257933
O O8 0.577574 0.712508 0.245233
O O9 0.500000 0.233738 0.360710
O O10 0.500000 0.000000 0.433523
O O11 0.680965 0.500000 0.055768
O O12 0.619876 0.731717 0.995956
O O13 0.500000 0.262691 0.903930
O O14 0.413462 0.500000 0.921843
O O15 0.350766 0.279307 0.854969
O O16 0.242937 0.000000 0.317133
O O17 0.500000 0.500000 0.311635
#
# Coordination Sequence:
#
# PCOD8187873 Si02
#       7
#     8   8   4   8   8   8   4
#     4   8  14  25  42  65  85 108 143 181 214 245
#     4  10  19  29  43  64  93 120 141 172 218 266
#     4  10  16  26  48  68  84 109 144 184 218 249
#     4   8  15  26  41  62  90 115 141 178 218 259
#     4   8  14  25  45  70  88 107 143 189 223 247
#     4   9  16  28  46  66  88 114 147 180 213 256
#     4  10  20  28  38  66  96 117 138 168 218 271
#
# _framework density 16.756898
#
# number of rings (size 3 to 8) (size 9 to 14) (size 15 to 20)
#    0.000    3.167    1.667    2.000    1.167    0.000 
#    0.000    0.000    1.833    5.500    0.000    0.000 
#    0.000    0.000    0.000    0.000    0.000    0.000 
#
# Total GULP energy -297376.991942 kJ/mol
# GULP energy per Si atom -12390.707998 kJ/mol
# Density = 1.671876 g / cm^3
# Si number density = 16.756898 Si / 1000 Ang^3
#
#
#
# Elastic Constant Matrix: (Units=GPa)
#
#
# Indices 1 2 3 4 5 6 
#
# 1 160.3480 17.8423 56.3722 0.0000 0.0000 0.0000
# 2 17.8423 13.2309 15.9569 0.0000 0.0000 0.0000
# 3 56.3722 15.9569 87.7073 0.0000 0.0000 0.0000
# 4 0.0000 0.0000 0.0000 19.5865 0.0000 0.0000
# 5 0.0000 0.0000 0.0000 0.0000 21.7045 0.0000
# 6 0.0000 0.0000 0.0000 0.0000 0.0000 13.4364
#
#
#
# Elastic Compliance Matrix: (Units=1/GPa)
#
#
# Indices 1 2 3 4 5 6 
#
# 1 0.008436 -0.006196 -0.004295 0.000000 0.000000 0.000000
# 2 -0.006196 0.101377 -0.014461 0.000000 0.000000 0.000000
# 3 -0.004295 -0.014461 0.016793 0.000000 0.000000 0.000000
# 4 0.000000 0.000000 0.000000 0.051056 0.000000 0.000000
# 5 0.000000 0.000000 0.000000 0.000000 0.046073 0.000000
# 6 0.000000 0.000000 0.000000 0.000000 0.000000 0.074425
#
#
# Mechanical properties :
#
#
# Convention : Reuss Voigt Hill
#
# Bulk Modulus (GPa) = 13.03761 49.06988 31.05375
# Shear Modulus (GPa) = 13.38219 22.35314 17.86766
#
# Velocity S-wave (km/s) = 2.82903 3.65631 3.26895
# Velocity P-wave (km/s) = 4.29751 6.86817 5.72889
#
# Compressibility (1/GPa) = 0.07670115
#
# Stress axis : x y z
#
# Youngs Moduli (GPa) = 118.54341 9.86415 59.54927
#
# Poissons Ratio (x) = 0.06112 0.25574
# Poissons Ratio (y) = 0.73454 0.86116
# Poissons Ratio (z) = 0.50909 0.14265
#
# Static dielectric constant tensor:
#      x y z
#    x 3.821580 0.000000 0.000000 
#    y 0.000000 2.625620 0.000000 
#    z 0.000000 0.000000 3.204580 
# 
# 
# High freq. dielectric constant tensor:
#      x y z
#    x 1.658910 0.000000 0.000000 
#    y 0.000000 1.590500 0.000000 
#    z 0.000000 0.000000 1.630660 
# 
# From -- ./inp_files/24286.got.cif
#   From: 2010.03.12/outbox.cif.g09.slc.cpg/sg44_13_cif.got.tgz:24286.got - 2010.04.14 02:36:11.
