data_PCOD8187624
_publ_section_title
;
Structure prediction by ZEFSAII (Michael W. Deem and Ramdas Pophale) SiO2 
 PCOD8187624
Probable space group: F D D 2
;
_chemical_formula_sum "Si O2"
_cell_formula_units_Z 128
_cell_length_a 11.084785
_cell_length_b 22.443970
_cell_length_c 26.114985
_cell_angle_alpha 90.000000
_cell_angle_beta 90.000000
_cell_angle_gamma 90.000000
_cell_volume 6497.057857
_symmetry_space_group_name_H-M "F D D 2"
_symmetry_group_IT_number 43
_symmetry_cell_setting 'orthorhombic'
loop_
_space_group_symop_operation_xyz
x,y,z
-x,-y,z
1/4-x,1/4+y,1/4+z
1/4+x,1/4-y,1/4+z
x,1/2+y,1/2+z
-x,1/2-y,1/2+z
1/4-x,3/4+y,3/4+z
1/4+x,3/4-y,3/4+z
1/2+x,y,1/2+z
1/2-x,-y,1/2+z
3/4-x,1/4+y,3/4+z
3/4+x,1/4-y,3/4+z
1/2+x,1/2+y,z
1/2-x,1/2-y,z
3/4-x,3/4+y,1/4+z
3/4+x,3/4-y,1/4+z
loop_
_atom_site_type_symbol
_atom_site_label
_atom_site_fract_x
_atom_site_fract_y
_atom_site_fract_z
Si Si1 0.921298 0.718294 0.806630
Si Si2 0.942204 0.086389 0.595516
Si Si3 0.544761 0.163239 0.643314
Si Si4 0.818301 0.310570 0.839758
Si Si5 0.483852 0.069570 0.475574
Si Si6 0.607119 0.743435 0.694515
Si Si7 0.998700 0.430025 0.314038
Si Si8 0.770569 0.872452 0.953242
O O1 0.894408 0.782138 0.831547
O O2 0.813934 0.670097 0.811906
O O3 0.944370 0.726698 0.746403
O O4 0.038857 0.696634 0.836008
O O5 0.873247 0.148825 0.585581
O O6 0.985696 0.079583 0.654143
O O7 0.455400 0.107544 0.635097
O O8 0.618576 0.154668 0.695740
O O9 0.463026 0.223373 0.647858
O O10 0.633235 0.159413 0.594552
O O11 0.750000 0.250000 0.854234
O O12 0.771887 0.335064 0.785256
O O13 0.598850 0.099143 0.450926
O O14 0.500000 0.000000 0.465440
O O15 0.750000 0.750000 0.688508
O O16 0.580637 0.673291 0.696935
O O17 0.003543 0.415689 0.254158
O O18 0.000000 0.500000 0.322968
#
# Coordination Sequence:
#
# PCOD8187624 Si02
#       8
#    16  16  16  16  16  16  16  16
#     4  11  22  44  66  93 126 173 220 261 319 401
#     4  11  24  41  66  93 129 168 212 273 319 387
#     4  12  23  38  65  95 127 167 210 273 319 387
#     4  11  23  40  65  95 129 170 218 269 326 387
#     4  11  20  39  67  91 118 163 223 262 306 386
#     4  12  23  42  67  96 127 170 220 267 327 395
#     4  12  24  41  62  96 129 164 212 274 331 378
#     4  12  23  40  67  93 126 168 215 268 323 387
#
# _framework density 19.701224
#
# number of rings (size 3 to 8) (size 9 to 14) (size 15 to 20)
#    0.000    0.500    7.500    2.625    3.500    0.000 
#    0.000    0.000    0.000    0.750    0.000    0.000 
#    0.000    0.000    0.000    0.000    0.000    0.000 
#
# Total GULP energy -396770.924315 kJ/mol
# GULP energy per Si atom -12399.091385 kJ/mol
# Density = 1.965638 g / cm^3
# Si number density = 19.701224 Si / 1000 Ang^3
#
#
#
# Elastic Constant Matrix: (Units=GPa)
#
#
# Indices 1 2 3 4 5 6 
#
# 1 110.2177 46.6082 13.9677 0.0000 0.0000 0.0000
# 2 46.6082 87.5516 30.6879 0.0000 0.0000 0.0000
# 3 13.9677 30.6879 95.9932 0.0000 0.0000 0.0000
# 4 0.0000 0.0000 0.0000 39.0424 0.0000 0.0000
# 5 0.0000 0.0000 0.0000 0.0000 26.7490 0.0000
# 6 0.0000 0.0000 0.0000 0.0000 0.0000 33.3779
#
#
#
# Elastic Compliance Matrix: (Units=1/GPa)
#
#
# Indices 1 2 3 4 5 6 
#
# 1 0.011718 -0.006352 0.000326 0.000000 0.000000 0.000000
# 2 -0.006352 0.016307 -0.004289 0.000000 0.000000 0.000000
# 3 0.000326 -0.004289 0.011741 0.000000 0.000000 0.000000
# 4 0.000000 0.000000 0.000000 0.025613 0.000000 0.000000
# 5 0.000000 0.000000 0.000000 0.000000 0.037385 0.000000
# 6 0.000000 0.000000 0.000000 0.000000 0.000000 0.029960
#
#
# Mechanical properties :
#
#
# Convention : Reuss Voigt Hill
#
# Bulk Modulus (GPa) = 52.25997 52.92113 52.59055
# Shear Modulus (GPa) = 31.30239 33.33377 32.31808
#
# Velocity S-wave (km/s) = 3.99037 4.11781 4.05459
# Velocity P-wave (km/s) = 6.91481 7.03766 6.97650
#
# Compressibility (1/GPa) = 0.01913510
#
# Stress axis : x y z
#
# Youngs Moduli (GPa) = 85.33991 61.32455 85.17104
#
# Poissons Ratio (x) = 0.38954 -0.02774
# Poissons Ratio (y) = 0.54209 0.36528
# Poissons Ratio (z) = -0.02779 0.26301
#
# Static dielectric constant tensor:
#      x y z
#    x 3.698770 0.000000 0.000000 
#    y 0.000000 3.447450 0.000000 
#    z 0.000000 0.000000 3.698320 
# 
# 
# High freq. dielectric constant tensor:
#      x y z
#    x 1.781670 0.000000 0.000000 
#    y 0.000000 1.753670 0.000000 
#    z 0.000000 0.000000 1.768890 
# 
# From -- ./inp_files/21315.got.cif
#   From: 2010.06.25/outbox.cif.g09.slc.cpg/sg43_11_cif.got.tgz:21315.got - 2010.06.26 16:48:59.
