data_PCOD8187048
_publ_section_title
;
Structure prediction by ZEFSAII (Michael W. Deem and Ramdas Pophale) SiO2 
 PCOD8187048
Probable space group: F D D 2
;
_chemical_formula_sum "Si O2"
_cell_formula_units_Z 88
_cell_length_a 21.421313
_cell_length_b 8.727628
_cell_length_c 26.683544
_cell_angle_alpha 90.000000
_cell_angle_beta 90.000000
_cell_angle_gamma 90.000000
_cell_volume 4988.682037
_symmetry_space_group_name_H-M "F D D 2"
_symmetry_group_IT_number 43
_symmetry_cell_setting 'orthorhombic'
loop_
_space_group_symop_operation_xyz
x,y,z
-x,-y,z
1/4-x,1/4+y,1/4+z
1/4+x,1/4-y,1/4+z
x,1/2+y,1/2+z
-x,1/2-y,1/2+z
1/4-x,3/4+y,3/4+z
1/4+x,3/4-y,3/4+z
1/2+x,y,1/2+z
1/2-x,-y,1/2+z
3/4-x,1/4+y,3/4+z
3/4+x,1/4-y,3/4+z
1/2+x,1/2+y,z
1/2-x,1/2-y,z
3/4-x,3/4+y,1/4+z
3/4+x,3/4-y,1/4+z
loop_
_atom_site_type_symbol
_atom_site_label
_atom_site_fract_x
_atom_site_fract_y
_atom_site_fract_z
Si Si1 0.985457 0.753161 0.507190
Si Si2 0.557679 0.597873 0.688074
Si Si3 0.397929 0.530449 0.516264
Si Si4 0.258349 0.581262 0.866630
Si Si5 0.750000 0.250000 0.675640
Si Si6 0.122611 0.110218 0.875015
O O1 0.977942 0.639851 0.460475
O O2 0.048889 0.848579 0.501859
O O3 0.987386 0.659951 0.558905
O O4 0.924709 0.860997 0.508045
O O5 0.500000 0.500000 0.710223
O O6 0.587625 0.699254 0.731515
O O7 0.535084 0.707199 0.643537
O O8 0.608954 0.480610 0.667615
O O9 0.373592 0.550931 0.572516
O O10 0.250000 0.750000 0.890315
O O11 0.330161 0.532785 0.872736
O O12 0.694998 0.296269 0.638140
#
# Coordination Sequence:
#
# PCOD8187048 Si02
#       6
#    16  16  16  16   8  16
#     4  10  20  35  61  81 111 147 198 232 275 341
#     4  10  20  37  58  80 113 151 190 229 280 344
#     4  10  20  38  58  82 110 158 189 230 284 350
#     4  10  20  37  58  83 110 149 190 235 276 343
#     4  12  22  36  56  94 120 142 186 258 286 326
#     4  10  22  37  56  84 117 147 192 231 290 338
#
# _framework density 17.63993
#
# number of rings (size 3 to 8) (size 9 to 14) (size 15 to 20)
#    0.000    1.818    4.545    0.000    3.818    0.000 
#    0.000    0.000    0.000    2.182    0.000    0.000 
#    0.000    0.000    0.000    0.000    0.000    0.000 
#
# Total GULP energy -272834.201748 kJ/mol
# GULP energy per Si atom -12401.554625 kJ/mol
# Density = 1.759978 g / cm^3
# Si number density = 17.639930 Si / 1000 Ang^3
#
#
#
# Elastic Constant Matrix: (Units=GPa)
#
#
# Indices 1 2 3 4 5 6 
#
# 1 119.0143 48.4348 55.2580 0.0000 0.0000 0.0000
# 2 48.4348 102.2054 29.9642 0.0000 0.0000 0.0000
# 3 55.2580 29.9642 80.2060 0.0000 0.0000 0.0000
# 4 0.0000 0.0000 0.0000 23.9823 0.0000 0.0000
# 5 0.0000 0.0000 0.0000 0.0000 30.1260 0.0000
# 6 0.0000 0.0000 0.0000 0.0000 0.0000 26.7265
#
#
#
# Elastic Compliance Matrix: (Units=1/GPa)
#
#
# Indices 1 2 3 4 5 6 
#
# 1 0.013801 -0.004214 -0.007934 0.000000 0.000000 0.000000
# 2 -0.004214 0.012275 -0.001682 0.000000 0.000000 0.000000
# 3 -0.007934 -0.001682 0.018562 0.000000 0.000000 0.000000
# 4 0.000000 0.000000 0.000000 0.041697 0.000000 0.000000
# 5 0.000000 0.000000 0.000000 0.000000 0.033194 0.000000
# 6 0.000000 0.000000 0.000000 0.000000 0.000000 0.037416
#
#
# Mechanical properties :
#
#
# Convention : Reuss Voigt Hill
#
# Bulk Modulus (GPa) = 58.90213 63.19330 61.04771
# Shear Modulus (GPa) = 26.27910 27.35153 26.81532
#
# Velocity S-wave (km/s) = 3.86392 3.94197 3.90314
# Velocity P-wave (km/s) = 7.30550 7.52467 7.41589
#
# Compressibility (1/GPa) = 0.01697732
#
# Stress axis : x y z
#
# Youngs Moduli (GPa) = 72.45802 81.46946 53.87236
#
# Poissons Ratio (x) = 0.34334 0.42742
# Poissons Ratio (y) = 0.30536 0.09062
# Poissons Ratio (z) = 0.57487 0.13705
#
# Static dielectric constant tensor:
#      x y z
#    x 3.177190 0.000000 0.000000 
#    y 0.000000 3.245010 0.000000 
#    z 0.000000 0.000000 3.154040 
# 
# 
# High freq. dielectric constant tensor:
#      x y z
#    x 1.675330 0.000000 0.000000 
#    y 0.000000 1.685580 0.000000 
#    z 0.000000 0.000000 1.680050 
# 
# From -- ./inp_files/16370.got.cif
#   From: 2010.06.25/outbox.cif.g09.slc.cpg/sg43_9_cif.got.tgz:16370.got - 2010.06.26 16:48:59.
