data_PCOD8187791
_publ_section_title
;
Structure prediction by ZEFSAII (Michael W. Deem and Ramdas Pophale) SiO2 
 PCOD8187791
Probable space group: F D D 2
;
_chemical_formula_sum "Si O2"
_cell_formula_units_Z 112
_cell_length_a 15.528532
_cell_length_b 22.878570
_cell_length_c 13.911693
_cell_angle_alpha 90.000000
_cell_angle_beta 90.000000
_cell_angle_gamma 90.000000
_cell_volume 4942.415608
_symmetry_space_group_name_H-M "F D D 2"
_symmetry_group_IT_number 43
_symmetry_cell_setting 'orthorhombic'
loop_
_space_group_symop_operation_xyz
x,y,z
-x,-y,z
1/4-x,1/4+y,1/4+z
1/4+x,1/4-y,1/4+z
x,1/2+y,1/2+z
-x,1/2-y,1/2+z
1/4-x,3/4+y,3/4+z
1/4+x,3/4-y,3/4+z
1/2+x,y,1/2+z
1/2-x,-y,1/2+z
3/4-x,1/4+y,3/4+z
3/4+x,1/4-y,3/4+z
1/2+x,1/2+y,z
1/2-x,1/2-y,z
3/4-x,3/4+y,1/4+z
3/4+x,3/4-y,1/4+z
loop_
_atom_site_type_symbol
_atom_site_label
_atom_site_fract_x
_atom_site_fract_y
_atom_site_fract_z
Si Si1 0.544614 0.556942 0.702330
Si Si2 0.738456 0.574037 0.713441
Si Si3 0.714052 0.028355 0.850147
Si Si4 0.311600 0.702550 0.234884
Si Si5 0.320044 0.029254 0.524462
Si Si6 0.584913 0.355902 0.776236
Si Si7 0.965008 0.610150 0.482488
O O1 0.500000 0.500000 0.754215
O O2 0.637781 0.574324 0.746404
O O3 0.569042 0.535515 0.597035
O O4 0.479372 0.612481 0.700225
O O5 0.785849 0.531353 0.789215
O O6 0.780209 0.637216 0.718534
O O7 0.753825 0.555788 0.602530
O O8 0.650434 0.028878 0.939126
O O9 0.685826 0.079042 0.778184
O O10 0.800889 0.041475 0.910823
O O11 0.250000 0.750000 0.185688
O O12 0.416188 0.057096 0.538434
O O13 0.312806 0.960835 0.542796
O O14 0.566152 0.391265 0.873219
O O15 0.682275 0.357628 0.738864
#
# Coordination Sequence:
#
# PCOD8187791 Si02
#       7
#    16  16  16  16  16  16  16
#     4  11  27  47  73 109 147 192 251 311 378 446
#     4  12  26  46  76 110 147 199 247 311 381 447
#     4  12  25  47  73 108 150 197 250 312 375 447
#     4  11  27  46  73 106 147 193 250 308 373 447
#     4  12  26  47  76 106 155 195 248 314 377 455
#     4  12  28  46  76 107 152 199 253 313 377 453
#     4  12  26  49  71 110 150 200 253 307 377 453
#
# _framework density 22.660985
#
# number of rings (size 3 to 8) (size 9 to 14) (size 15 to 20)
#    0.000    0.286    5.714    2.143    8.000    0.000 
#    2.571    0.000    0.000    0.000    0.000    0.000 
#    0.000    0.000    0.000    0.000    0.000    0.000 
#
# Total GULP energy -346991.204384 kJ/mol
# GULP energy per Si atom -12392.543014 kJ/mol
# Density = 2.260941 g / cm^3
# Si number density = 22.660985 Si / 1000 Ang^3
#
#
#
# Elastic Constant Matrix: (Units=GPa)
#
#
# Indices 1 2 3 4 5 6 
#
# 1 129.4827 44.9829 18.6026 0.0000 0.0000 0.0000
# 2 44.9829 141.2120 15.2596 0.0000 0.0000 0.0000
# 3 18.6026 15.2596 83.8774 0.0000 0.0000 0.0000
# 4 0.0000 0.0000 0.0000 26.4211 0.0000 0.0000
# 5 0.0000 0.0000 0.0000 0.0000 29.9421 0.0000
# 6 0.0000 0.0000 0.0000 0.0000 0.0000 39.3735
#
#
#
# Elastic Compliance Matrix: (Units=1/GPa)
#
#
# Indices 1 2 3 4 5 6 
#
# 1 0.008861 -0.002663 -0.001481 0.000000 0.000000 0.000000
# 2 -0.002663 0.008024 -0.000869 0.000000 0.000000 0.000000
# 3 -0.001481 -0.000869 0.012409 0.000000 0.000000 0.000000
# 4 0.000000 0.000000 0.000000 0.037848 0.000000 0.000000
# 5 0.000000 0.000000 0.000000 0.000000 0.033398 0.000000
# 6 0.000000 0.000000 0.000000 0.000000 0.000000 0.025398
#
#
# Mechanical properties :
#
#
# Convention : Reuss Voigt Hill
#
# Bulk Modulus (GPa) = 51.89950 56.91803 54.40876
# Shear Modulus (GPa) = 35.11606 37.52914 36.32260
#
# Velocity S-wave (km/s) = 3.94080 4.07395 4.00793
# Velocity P-wave (km/s) = 6.60748 6.87758 6.74389
#
# Compressibility (1/GPa) = 0.01926801
#
# Stress axis : x y z
#
# Youngs Moduli (GPa) = 112.85706 124.63172 80.58859
#
# Poissons Ratio (x) = 0.33184 0.11933
# Poissons Ratio (y) = 0.30049 0.07005
# Poissons Ratio (z) = 0.16712 0.10833
#
# Static dielectric constant tensor:
#      x y z
#    x 4.357980 0.000000 0.000000 
#    y 0.000000 4.460490 0.000000 
#    z 0.000000 0.000000 4.096100 
# 
# 
# High freq. dielectric constant tensor:
#      x y z
#    x 1.900820 0.000000 0.000000 
#    y 0.000000 1.904060 0.000000 
#    z 0.000000 0.000000 1.896020 
# 
# From -- ./inp_files/10177.got.cif
#   From: 2010.06.25/outbox.cif.g09.slc.cpg/sg43_6_cif.got.tgz:10177.got - 2010.06.26 16:48:59.
