data_PCOD8187224
_publ_section_title
;
Structure prediction by ZEFSAII (Michael W. Deem and Ramdas Pophale) SiO2 
 PCOD8187224
Probable space group: F D D 2
;
_chemical_formula_sum "Si O2"
_cell_formula_units_Z 104
_cell_length_a 13.992257
_cell_length_b 21.546921
_cell_length_c 15.359455
_cell_angle_alpha 90.000000
_cell_angle_beta 90.000000
_cell_angle_gamma 90.000000
_cell_volume 4630.722951
_symmetry_space_group_name_H-M "F D D 2"
_symmetry_group_IT_number 43
_symmetry_cell_setting 'orthorhombic'
loop_
_space_group_symop_operation_xyz
x,y,z
-x,-y,z
1/4-x,1/4+y,1/4+z
1/4+x,1/4-y,1/4+z
x,1/2+y,1/2+z
-x,1/2-y,1/2+z
1/4-x,3/4+y,3/4+z
1/4+x,3/4-y,3/4+z
1/2+x,y,1/2+z
1/2-x,-y,1/2+z
3/4-x,1/4+y,3/4+z
3/4+x,1/4-y,3/4+z
1/2+x,1/2+y,z
1/2-x,1/2-y,z
3/4-x,3/4+y,1/4+z
3/4+x,3/4-y,1/4+z
loop_
_atom_site_type_symbol
_atom_site_label
_atom_site_fract_x
_atom_site_fract_y
_atom_site_fract_z
Si Si1 0.750000 0.750000 0.375000
Si Si2 0.202059 0.452322 0.923468
Si Si3 0.356618 0.652512 0.755105
Si Si4 0.824192 0.060675 0.222802
Si Si5 0.370210 0.677633 0.436584
Si Si6 0.502000 0.432975 0.849849
Si Si7 0.578310 0.547512 0.498587
O O1 0.704025 0.804905 0.319527
O O2 0.833558 0.776902 0.435594
O O3 0.307148 0.437111 0.957287
O O4 0.195023 0.461534 0.820569
O O5 0.127885 0.397330 0.948637
O O6 0.178267 0.515787 0.973378
O O7 0.398478 0.593521 0.809382
O O8 0.287206 0.633864 0.673021
O O9 0.725953 0.043917 0.172955
O O10 0.833723 0.134350 0.208619
O O11 0.320341 0.702054 0.522877
O O12 0.309796 0.696538 0.351925
O O13 0.500000 0.500000 0.899516
O O14 0.500000 0.500000 0.458388
#
# Coordination Sequence:
#
# PCOD8187224 Si02
#       7
#     8  16  16  16  16  16  16
#     4  12  28  48  66 106 154 190 230 286 366 450
#     4  10  22  41  69  97 136 180 238 293 345 424
#     4  11  25  48  71 100 144 190 238 292 354 429
#     4  11  24  43  66 100 141 183 232 289 361 422
#     4  10  21  39  68 100 131 182 237 293 352 408
#     4  11  24  45  76 103 139 184 244 296 357 423
#     4  11  22  39  69 101 136 178 234 296 355 416
#
# _framework density 22.458696
#
# number of rings (size 3 to 8) (size 9 to 14) (size 15 to 20)
#    0.000    1.231    3.846    1.385    1.077    4.923 
#    8.308    0.000    0.000    0.000    0.000    0.000 
#    0.000    0.000    0.000    0.000    0.000    0.000 
#
# Total GULP energy -322126.811384 kJ/mol
# GULP energy per Si atom -12389.492746 kJ/mol
# Density = 2.240758 g / cm^3
# Si number density = 22.458696 Si / 1000 Ang^3
#
#
#
# Elastic Constant Matrix: (Units=GPa)
#
#
# Indices 1 2 3 4 5 6 
#
# 1 95.4727 13.2202 15.0164 0.0000 0.0000 0.0000
# 2 13.2202 71.8779 9.7963 0.0000 0.0000 0.0000
# 3 15.0164 9.7963 56.2714 0.0000 0.0000 0.0000
# 4 0.0000 0.0000 0.0000 25.9411 0.0000 0.0000
# 5 0.0000 0.0000 0.0000 0.0000 37.2224 0.0000
# 6 0.0000 0.0000 0.0000 0.0000 0.0000 35.6915
#
#
#
# Elastic Compliance Matrix: (Units=1/GPa)
#
#
# Indices 1 2 3 4 5 6 
#
# 1 0.011128 -0.001682 -0.002677 0.000000 0.000000 0.000000
# 2 -0.001682 0.014505 -0.002076 0.000000 0.000000 0.000000
# 3 -0.002677 -0.002076 0.018847 0.000000 0.000000 0.000000
# 4 0.000000 0.000000 0.000000 0.038549 0.000000 0.000000
# 5 0.000000 0.000000 0.000000 0.000000 0.026866 0.000000
# 6 0.000000 0.000000 0.000000 0.000000 0.000000 0.028018
#
#
# Mechanical properties :
#
#
# Convention : Reuss Voigt Hill
#
# Bulk Modulus (GPa) = 31.63592 33.29866 32.46729
# Shear Modulus (GPa) = 30.99455 32.14361 31.56908
#
# Velocity S-wave (km/s) = 3.71896 3.78727 3.75327
# Velocity P-wave (km/s) = 5.70594 5.82952 5.76806
#
# Compressibility (1/GPa) = 0.03160964
#
# Stress axis : x y z
#
# Youngs Moduli (GPa) = 89.86249 68.94262 53.05940
#
# Poissons Ratio (x) = 0.11596 0.14203
# Poissons Ratio (y) = 0.15114 0.11017
# Poissons Ratio (z) = 0.24054 0.14315
#
# Static dielectric constant tensor:
#      x y z
#    x 4.177560 0.000000 0.000000 
#    y 0.000000 3.984630 0.000000 
#    z 0.000000 0.000000 3.979210 
# 
# 
# High freq. dielectric constant tensor:
#      x y z
#    x 1.885870 0.000000 0.000000 
#    y 0.000000 1.876820 0.000000 
#    z 0.000000 0.000000 1.888480 
# 
# From -- ./inp_files/13903.got.cif
#   From: 2010.06.25/outbox.cif.g09.slc.cpg/sg43_7_cif.got.tgz:13903.got - 2010.06.26 16:48:59.
