data_PCOD8187572
_publ_section_title
;
Structure prediction by ZEFSAII (Michael W. Deem and Ramdas Pophale) SiO2 
 PCOD8187572
Probable space group: F D D 2
;
_chemical_formula_sum "Si O2"
_cell_formula_units_Z 120
_cell_length_a 27.919545
_cell_length_b 8.142010
_cell_length_c 23.073699
_cell_angle_alpha 90.000000
_cell_angle_beta 90.000000
_cell_angle_gamma 90.000000
_cell_volume 5245.141282
_symmetry_space_group_name_H-M "F D D 2"
_symmetry_group_IT_number 43
_symmetry_cell_setting 'orthorhombic'
loop_
_space_group_symop_operation_xyz
x,y,z
-x,-y,z
1/4-x,1/4+y,1/4+z
1/4+x,1/4-y,1/4+z
x,1/2+y,1/2+z
-x,1/2-y,1/2+z
1/4-x,3/4+y,3/4+z
1/4+x,3/4-y,3/4+z
1/2+x,y,1/2+z
1/2-x,-y,1/2+z
3/4-x,1/4+y,3/4+z
3/4+x,1/4-y,3/4+z
1/2+x,1/2+y,z
1/2-x,1/2-y,z
3/4-x,3/4+y,1/4+z
3/4+x,3/4-y,1/4+z
loop_
_atom_site_type_symbol
_atom_site_label
_atom_site_fract_x
_atom_site_fract_y
_atom_site_fract_z
Si Si1 0.073457 0.658800 0.022030
Si Si2 0.987542 0.320399 0.804695
Si Si3 0.388929 0.638554 0.922883
Si Si4 0.250000 0.250000 0.854021
Si Si5 0.395714 0.159105 0.963272
Si Si6 0.891341 0.932138 0.357284
Si Si7 0.457970 0.379243 0.897286
Si Si8 0.938165 0.642471 0.206624
O O1 0.116122 0.760988 0.049816
O O2 0.026559 0.636130 0.062762
O O3 0.069770 0.765698 0.962694
O O4 0.091461 0.473612 0.011295
O O5 0.943084 0.351800 0.846654
O O6 0.978712 0.186565 0.754004
O O7 0.000000 0.500000 0.778252
O O8 0.029980 0.243731 0.844242
O O9 0.362602 0.779484 0.885486
O O10 0.413894 0.502111 0.881423
O O11 0.345151 0.553279 0.955913
O O12 0.287324 0.347961 0.895049
O O13 0.440460 0.284934 0.955841
O O14 0.344987 0.242560 0.978969
O O15 0.391417 0.086202 0.899257
O O16 0.500000 0.500000 0.915450
#
# Coordination Sequence:
#
# PCOD8187572 Si02
#       8
#    16  16  16   8  16  16  16  16
#     4  11  25  46  74 100 142 191 230 293 365 429
#     4  12  25  41  70 106 140 184 241 297 356 414
#     4  10  24  45  74 102 144 185 238 281 361 437
#     4  12  28  44  72 106 146 178 244 300 360 408
#     4  10  24  45  74  97 142 187 237 284 362 433
#     4  11  21  44  72  99 134 184 234 286 358 424
#     4  11  23  40  68 113 138 172 233 314 335 411
#     4  11  26  47  68 107 138 190 237 291 353 434
#
# _framework density 22.878316000000002
#
# number of rings (size 3 to 8) (size 9 to 14) (size 15 to 20)
#    0.000    1.067    5.333    0.000    2.800    4.267 
#    0.000    0.000    0.000    0.000    0.000    0.000 
#    0.000    0.000    0.000    0.000    0.000    0.000 
#
# Total GULP energy -371689.414959 kJ/mol
# GULP energy per Si atom -12389.647165 kJ/mol
# Density = 2.282624 g / cm^3
# Si number density = 22.878316 Si / 1000 Ang^3
#
#
#
# Elastic Constant Matrix: (Units=GPa)
#
#
# Indices 1 2 3 4 5 6 
#
# 1 80.8998 39.1721 34.9377 0.0000 0.0000 -0.0001
# 2 39.1721 125.6538 45.4390 0.0000 0.0000 -0.0002
# 3 34.9377 45.4390 88.3293 0.0000 0.0000 0.0000
# 4 0.0000 0.0000 0.0000 32.9233 0.0000 0.0000
# 5 0.0000 0.0000 0.0000 0.0000 30.3991 0.0000
# 6 -0.0001 -0.0002 0.0000 0.0000 0.0000 37.3855
#
#
#
# Elastic Compliance Matrix: (Units=1/GPa)
#
#
# Indices 1 2 3 4 5 6 
#
# 1 0.015952 -0.003306 -0.004609 0.000000 0.000000 0.000000
# 2 -0.003306 0.010463 -0.004074 0.000000 0.000000 0.000000
# 3 -0.004609 -0.004074 0.015240 0.000000 0.000000 0.000000
# 4 0.000000 0.000000 0.000000 0.030374 0.000000 0.000000
# 5 0.000000 0.000000 0.000000 0.000000 0.032896 0.000000
# 6 0.000000 0.000000 0.000000 0.000000 0.000000 0.026748
#
#
# Mechanical properties :
#
#
# Convention : Reuss Voigt Hill
#
# Bulk Modulus (GPa) = 56.57466 59.33118 57.95292
# Shear Modulus (GPa) = 30.95130 31.83052 31.39091
#
# Velocity S-wave (km/s) = 3.68212 3.73406 3.70818
# Velocity P-wave (km/s) = 6.54672 6.67687 6.61211
#
# Compressibility (1/GPa) = 0.01767576
#
# Stress axis : x y z
#
# Youngs Moduli (GPa) = 62.68657 95.57925 65.61575
#
# Poissons Ratio (x) = 0.31603 0.30242
# Poissons Ratio (y) = 0.20727 0.26734
# Poissons Ratio (z) = 0.28891 0.38943
#
# Static dielectric constant tensor:
#      x y z
#    x 4.164610 0.000000 0.000000 
#    y 0.000000 4.506700 0.000000 
#    z 0.000000 0.000000 3.808960 
# 
# 
# High freq. dielectric constant tensor:
#      x y z
#    x 1.889110 0.000000 0.000000 
#    y 0.000000 1.927390 0.000000 
#    z 0.000000 0.000000 1.888370 
# 
# From -- ./inp_files/22817.got.cif
#   From: 2010.06.25/outbox.cif.g09.slc.cpg/sg43_12_cif.got.tgz:22817.got - 2010.06.26 16:48:59.
