data_PCOD8187689
_publ_section_title
;
Structure prediction by ZEFSAII (Michael W. Deem and Ramdas Pophale) SiO2 
 PCOD8187689
Probable space group: F D D 2
;
_chemical_formula_sum "Si O2"
_cell_formula_units_Z 120
_cell_length_a 19.827983
_cell_length_b 10.778252
_cell_length_c 26.471359
_cell_angle_alpha 90.000000
_cell_angle_beta 90.000000
_cell_angle_gamma 90.000000
_cell_volume 5657.220535
_symmetry_space_group_name_H-M "F D D 2"
_symmetry_group_IT_number 43
_symmetry_cell_setting 'orthorhombic'
loop_
_space_group_symop_operation_xyz
x,y,z
-x,-y,z
1/4-x,1/4+y,1/4+z
1/4+x,1/4-y,1/4+z
x,1/2+y,1/2+z
-x,1/2-y,1/2+z
1/4-x,3/4+y,3/4+z
1/4+x,3/4-y,3/4+z
1/2+x,y,1/2+z
1/2-x,-y,1/2+z
3/4-x,1/4+y,3/4+z
3/4+x,1/4-y,3/4+z
1/2+x,1/2+y,z
1/2-x,1/2-y,z
3/4-x,3/4+y,1/4+z
3/4+x,3/4-y,1/4+z
loop_
_atom_site_type_symbol
_atom_site_label
_atom_site_fract_x
_atom_site_fract_y
_atom_site_fract_z
Si Si1 0.453316 0.116525 0.285480
Si Si2 0.936104 0.790304 0.084863
Si Si3 0.250000 0.750000 0.897212
Si Si4 0.374445 0.138814 0.684165
Si Si5 0.909729 0.652702 0.926207
Si Si6 0.514154 0.139045 0.847159
Si Si7 0.483723 0.869612 0.012538
Si Si8 0.304610 0.347234 0.922748
O O1 0.379060 0.068249 0.300891
O O2 0.471092 0.249938 0.308839
O O3 0.466533 0.152571 0.226847
O O4 0.500000 0.000000 0.301852
O O5 0.923528 0.695395 0.130751
O O6 0.958187 0.916002 0.109739
O O7 0.997835 0.742251 0.049861
O O8 0.303844 0.820345 0.932267
O O9 0.391250 0.285168 0.678761
O O10 0.324566 0.106401 0.638008
O O11 0.341693 0.105664 0.739306
O O12 0.968826 0.624453 0.964381
O O13 0.871584 0.776189 0.939920
O O14 0.942242 0.671745 0.871512
O O15 0.500000 0.000000 0.823850
O O16 0.500000 0.000000 0.041324
O O17 0.250000 0.250000 0.900576
#
# Coordination Sequence:
#
# PCOD8187689 Si02
#       8
#    16  16   8  16  16  16  16  16
#     4  11  23  42  66 104 140 175 232 293 346 411
#     4  12  24  43  66  94 140 182 221 291 346 409
#     4  12  24  42  62  94 142 172 220 280 346 406
#     4   9  19  37  65  95 131 172 217 279 333 407
#     4   9  17  37  67  95 123 166 220 277 326 403
#     4   9  18  38  67  93 127 175 225 269 337 417
#     4   9  19  39  68  96 123 171 232 268 332 418
#     4  11  23  39  64  96 136 173 225 281 350 405
#
# _framework density 21.211829999999999
#
# number of rings (size 3 to 8) (size 9 to 14) (size 15 to 20)
#    0.000    1.867    2.667    3.600    0.000    0.000 
#    3.600    0.000    0.000    0.000    1.733    0.000 
#    0.000    0.000    0.000    0.000    0.000    0.000 
#
# Total GULP energy -371669.827169 kJ/mol
# GULP energy per Si atom -12388.994239 kJ/mol
# Density = 2.116355 g / cm^3
# Si number density = 21.211830 Si / 1000 Ang^3
#
#
#
# Elastic Constant Matrix: (Units=GPa)
#
#
# Indices 1 2 3 4 5 6 
#
# 1 78.8616 20.6596 18.7651 0.0000 0.0000 0.0000
# 2 20.6596 97.7814 36.4722 0.0000 0.0000 0.0000
# 3 18.7651 36.4722 80.8748 0.0000 0.0000 0.0000
# 4 0.0000 0.0000 0.0000 8.9049 0.0000 0.0000
# 5 0.0000 0.0000 0.0000 0.0000 24.2691 0.0000
# 6 0.0000 0.0000 0.0000 0.0000 0.0000 39.0900
#
#
#
# Elastic Compliance Matrix: (Units=1/GPa)
#
#
# Indices 1 2 3 4 5 6 
#
# 1 0.013759 -0.002063 -0.002262 0.000000 0.000000 0.000000
# 2 -0.002063 0.012604 -0.005205 0.000000 0.000000 0.000000
# 3 -0.002262 -0.005205 0.015237 0.000000 0.000000 0.000000
# 4 0.000000 0.000000 0.000000 0.112298 0.000000 0.000000
# 5 0.000000 0.000000 0.000000 0.000000 0.041205 0.000000
# 6 0.000000 0.000000 0.000000 0.000000 0.000000 0.025582
#
#
# Mechanical properties :
#
#
# Convention : Reuss Voigt Hill
#
# Bulk Modulus (GPa) = 44.36724 45.47907 44.92316
# Shear Modulus (GPa) = 20.22162 26.56086 23.39124
#
# Velocity S-wave (km/s) = 3.09093 3.54244 3.32436
# Velocity P-wave (km/s) = 5.80519 6.18214 5.99662
#
# Compressibility (1/GPa) = 0.02253915
#
# Stress axis : x y z
#
# Youngs Moduli (GPa) = 72.67850 79.33685 65.62903
#
# Poissons Ratio (x) = 0.16370 0.14845
# Poissons Ratio (y) = 0.14996 0.34163
# Poissons Ratio (z) = 0.16440 0.41299
#
# Static dielectric constant tensor:
#      x y z
#    x 4.343470 0.000000 0.000000 
#    y 0.000000 4.050610 0.000000 
#    z 0.000000 0.000000 3.710810 
# 
# 
# High freq. dielectric constant tensor:
#      x y z
#    x 1.833170 0.000000 0.000000 
#    y 0.000000 1.835360 0.000000 
#    z 0.000000 0.000000 1.825160 
# 
# From -- ./inp_files/26069.got.cif
#   From: 2010.06.25/outbox.cif.g09.slc.cpg/sg43_14_cif.got.tgz:26069.got - 2010.06.26 16:48:59.
