data_PCOD8187141
_publ_section_title
;
Structure prediction by ZEFSAII (Michael W. Deem and Ramdas Pophale) SiO2 
 PCOD8187141
Probable space group: F D D 2
;
_chemical_formula_sum "Si O2"
_cell_formula_units_Z 96
_cell_length_a 12.804810
_cell_length_b 15.264889
_cell_length_c 24.368941
_cell_angle_alpha 90.000000
_cell_angle_beta 90.000000
_cell_angle_gamma 90.000000
_cell_volume 4763.250764
_symmetry_space_group_name_H-M "F D D 2"
_symmetry_group_IT_number 43
_symmetry_cell_setting 'orthorhombic'
loop_
_space_group_symop_operation_xyz
x,y,z
-x,-y,z
1/4-x,1/4+y,1/4+z
1/4+x,1/4-y,1/4+z
x,1/2+y,1/2+z
-x,1/2-y,1/2+z
1/4-x,3/4+y,3/4+z
1/4+x,3/4-y,3/4+z
1/2+x,y,1/2+z
1/2-x,-y,1/2+z
3/4-x,1/4+y,3/4+z
3/4+x,1/4-y,3/4+z
1/2+x,1/2+y,z
1/2-x,1/2-y,z
3/4-x,3/4+y,1/4+z
3/4+x,3/4-y,1/4+z
loop_
_atom_site_type_symbol
_atom_site_label
_atom_site_fract_x
_atom_site_fract_y
_atom_site_fract_z
Si Si1 0.763687 0.519672 0.603120
Si Si2 0.900048 0.560564 0.828169
Si Si3 0.346696 0.811345 0.951647
Si Si4 0.739572 0.477238 0.908898
Si Si5 0.612380 0.532766 0.006515
Si Si6 0.813869 0.335978 0.582576
O O1 0.670379 0.587317 0.592090
O O2 0.806480 0.535447 0.663900
O O3 0.850793 0.535533 0.554784
O O4 0.732819 0.415807 0.598320
O O5 0.869221 0.550579 0.764638
O O6 0.800641 0.533250 0.863828
O O7 0.000000 0.500000 0.842541
O O8 0.250000 0.750000 0.936672
O O9 0.317654 0.910851 0.938492
O O10 0.641093 0.427796 0.883048
O O11 0.692642 0.538382 0.956191
O O12 0.500000 0.500000 0.985894
O O13 0.614294 0.631569 0.031294
O O14 0.750000 0.250000 0.566388
#
# Coordination Sequence:
#
# PCOD8187141 Si02
#       6
#    16  16  16  16  16  16
#     4  10  20  41  66  97 132 173 225 275 340 401
#     4  11  24  37  66 103 133 176 225 280 346 397
#     4  11  19  37  62  99 130 168 229 283 323 394
#     4  12  22  41  66 101 138 174 226 283 337 415
#     4  10  22  41  71  96 131 173 226 287 338 401
#     4  10  23  44  66  98 137 172 223 277 341 407
#
# _framework density 20.154302999999999
#
# number of rings (size 3 to 8) (size 9 to 14) (size 15 to 20)
#    1.000    0.333    5.000    2.000    0.000    0.000 
#    6.000    0.833    0.000    0.000    0.000    0.000 
#    0.000    0.000    0.000    0.000    0.000    0.000 
#
# Total GULP energy -297434.433047 kJ/mol
# GULP energy per Si atom -12393.101377 kJ/mol
# Density = 2.010843 g / cm^3
# Si number density = 20.154303 Si / 1000 Ang^3
#
#
#
# Elastic Constant Matrix: (Units=GPa)
#
#
# Indices 1 2 3 4 5 6 
#
# 1 54.7024 34.8147 41.2610 0.0000 0.0000 0.0000
# 2 34.8147 115.9288 29.1778 0.0000 0.0000 0.0000
# 3 41.2610 29.1778 127.1571 0.0000 0.0000 0.0000
# 4 0.0000 0.0000 0.0000 25.0222 0.0000 0.0000
# 5 0.0000 0.0000 0.0000 0.0000 31.2598 0.0000
# 6 0.0000 0.0000 0.0000 0.0000 0.0000 34.0937
#
#
#
# Elastic Compliance Matrix: (Units=1/GPa)
#
#
# Indices 1 2 3 4 5 6 
#
# 1 0.028223 -0.006549 -0.007655 0.000000 0.000000 0.000000
# 2 -0.006549 0.010674 -0.000324 0.000000 0.000000 0.000000
# 3 -0.007655 -0.000324 0.010423 0.000000 0.000000 0.000000
# 4 0.000000 0.000000 0.000000 0.039965 0.000000 0.000000
# 5 0.000000 0.000000 0.000000 0.000000 0.031990 0.000000
# 6 0.000000 0.000000 0.000000 0.000000 0.000000 0.029331
#
#
# Mechanical properties :
#
#
# Convention : Reuss Voigt Hill
#
# Bulk Modulus (GPa) = 49.35105 56.47725 52.91415
# Shear Modulus (GPa) = 26.82160 30.91078 28.86619
#
# Velocity S-wave (km/s) = 3.65199 3.92050 3.78863
# Velocity P-wave (km/s) = 6.50557 6.96973 6.74164
#
# Compressibility (1/GPa) = 0.02026299
#
# Stress axis : x y z
#
# Youngs Moduli (GPa) = 35.43213 93.68267 95.94399
#
# Poissons Ratio (x) = 0.61352 0.73448
# Poissons Ratio (y) = 0.23204 0.03111
# Poissons Ratio (z) = 0.27124 0.03038
#
# Static dielectric constant tensor:
#      x y z
#    x 3.248250 0.000000 0.000000 
#    y 0.000000 3.655860 0.000000 
#    z 0.000000 0.000000 3.710060 
# 
# 
# High freq. dielectric constant tensor:
#      x y z
#    x 1.747030 0.000000 0.000000 
#    y 0.000000 1.782970 0.000000 
#    z 0.000000 0.000000 1.799920 
# 
# From -- ./inp_files/21061.got.cif
#   From: 2010.06.25/outbox.cif.g09.slc.cpg/sg43_11_cif.got.tgz:21061.got - 2010.06.26 16:48:59.
