data_PCOD8187185
_publ_section_title
;
Structure prediction by ZEFSAII (Michael W. Deem and Ramdas Pophale) SiO2 
 PCOD8187185
Probable space group: F D D 2
;
_chemical_formula_sum "Si O2"
_cell_formula_units_Z 64
_cell_length_a 25.172451
_cell_length_b 4.926740
_cell_length_c 25.173624
_cell_angle_alpha 90.000000
_cell_angle_beta 90.000000
_cell_angle_gamma 90.000000
_cell_volume 3121.985553
_symmetry_space_group_name_H-M "F D D 2"
_symmetry_group_IT_number 43
_symmetry_cell_setting 'orthorhombic'
loop_
_space_group_symop_operation_xyz
x,y,z
-x,-y,z
1/4-x,1/4+y,1/4+z
1/4+x,1/4-y,1/4+z
x,1/2+y,1/2+z
-x,1/2-y,1/2+z
1/4-x,3/4+y,3/4+z
1/4+x,3/4-y,3/4+z
1/2+x,y,1/2+z
1/2-x,-y,1/2+z
3/4-x,1/4+y,3/4+z
3/4+x,1/4-y,3/4+z
1/2+x,1/2+y,z
1/2-x,1/2-y,z
3/4-x,3/4+y,1/4+z
3/4+x,3/4-y,1/4+z
loop_
_atom_site_type_symbol
_atom_site_label
_atom_site_fract_x
_atom_site_fract_y
_atom_site_fract_z
Si Si1 0.692628 0.861442 0.565280
Si Si2 0.105101 0.388619 0.477694
Si Si3 0.855097 0.638557 0.112967
Si Si4 0.307376 0.361388 0.775382
O O1 0.750000 0.750000 0.548973
O O2 0.658698 0.875083 0.511661
O O3 0.669071 0.663205 0.611074
O O4 0.690721 0.163197 0.589452
O O5 0.121444 0.500038 0.420331
O O6 0.059283 0.586851 0.501212
O O7 0.080937 0.086840 0.479588
O O8 0.908696 0.624988 0.079002
O O9 0.250000 0.250000 0.791684
#
# Coordination Sequence:
#
# PCOD8187185 Si02
#       4
#    16  16  16  16
#     4  10  21  37  56  81 112 144 183 229 275 329
#     4  10  21  37  56  81 112 144 183 229 275 329
#     4  10  21  37  56  81 112 144 183 229 275 329
#     4  10  21  37  56  81 112 144 183 229 275 329
#
# _framework density 20.499776000000001
#
# number of rings (size 3 to 8) (size 9 to 14) (size 15 to 20)
#    0.000    2.000    0.000    3.000    0.000    6.000 
#    0.000   15.000    0.000    0.000    0.000    0.000 
#    0.000    0.000    0.000    0.000    0.000    0.000 
#
# Total GULP energy -198282.088227 kJ/mol
# GULP energy per Si atom -12392.630514 kJ/mol
# Density = 2.045312 g / cm^3
# Si number density = 20.499776 Si / 1000 Ang^3
#
#
#
# Elastic Constant Matrix: (Units=GPa)
#
#
# Indices 1 2 3 4 5 6 
#
# 1 105.3420 31.5468 46.6725 -0.0164 0.0048 0.0191
# 2 31.5468 93.2251 31.6207 -0.0942 0.0069 0.0514
# 3 46.6725 31.6207 105.5636 -0.0005 0.0013 -0.0014
# 4 -0.0164 -0.0942 -0.0005 36.3016 0.0017 0.0059
# 5 0.0048 0.0069 0.0013 0.0017 8.3014 0.0099
# 6 0.0191 0.0514 -0.0014 0.0059 0.0099 36.2906
#
#
#
# Elastic Compliance Matrix: (Units=1/GPa)
#
#
# Indices 1 2 3 4 5 6 
#
# 1 0.012342 -0.002589 -0.004681 -0.000001 -0.000004 -0.000003
# 2 -0.002589 0.012483 -0.002595 0.000031 -0.000008 -0.000016
# 3 -0.004681 -0.002595 0.012320 -0.000009 0.000003 0.000007
# 4 -0.000001 0.000031 -0.000009 0.027547 -0.000006 -0.000004
# 5 -0.000004 -0.000008 0.000003 -0.000006 0.120462 -0.000033
# 6 -0.000003 -0.000016 0.000007 -0.000004 -0.000033 0.027555
#
#
# Mechanical properties :
#
#
# Convention : Reuss Voigt Hill
#
# Bulk Modulus (GPa) = 57.41977 58.20121 57.81049
# Shear Modulus (GPa) = 20.98692 29.13143 25.05918
#
# Velocity S-wave (km/s) = 3.20310 3.77379 3.50009
# Velocity P-wave (km/s) = 6.46147 6.88777 6.67802
#
# Compressibility (1/GPa) = 0.01741560
#
# Stress axis : x y z
#
# Youngs Moduli (GPa) = 81.02247 80.11017 81.16923
#
# Poissons Ratio (x) = 0.20738 0.37999
# Poissons Ratio (y) = 0.20974 0.21060
# Poissons Ratio (z) = 0.37930 0.20785
#
# Static dielectric constant tensor:
#      x y z
#    x 3.461960 -0.000010 0.000000 
#    y -0.000010 4.216670 -0.000030 
#    z 0.000000 -0.000030 3.462910 
# 
# 
# High freq. dielectric constant tensor:
#      x y z
#    x 1.786530 0.000000 0.000000 
#    y 0.000000 1.830430 0.000000 
#    z 0.000000 0.000000 1.786620 
# 
# From -- ./inp_files/644.got.cif
#   From: 2010.06.25/outbox.cif.g09.slc.cpg/sg43_1_cif.got.tgz:644.got - 2010.06.26 16:48:59.
