data_PCOD8187445
_publ_section_title
;
Structure prediction by ZEFSAII (Michael W. Deem and Ramdas Pophale) SiO2 
 PCOD8187445
Probable space group: F D D 2
;
_chemical_formula_sum "Si O2"
_cell_formula_units_Z 72
_cell_length_a 16.407863
_cell_length_b 21.360200
_cell_length_c 10.035775
_cell_angle_alpha 90.000000
_cell_angle_beta 90.000000
_cell_angle_gamma 90.000000
_cell_volume 3517.290604
_symmetry_space_group_name_H-M "F D D 2"
_symmetry_group_IT_number 43
_symmetry_cell_setting 'orthorhombic'
loop_
_space_group_symop_operation_xyz
x,y,z
-x,-y,z
1/4-x,1/4+y,1/4+z
1/4+x,1/4-y,1/4+z
x,1/2+y,1/2+z
-x,1/2-y,1/2+z
1/4-x,3/4+y,3/4+z
1/4+x,3/4-y,3/4+z
1/2+x,y,1/2+z
1/2-x,-y,1/2+z
3/4-x,1/4+y,3/4+z
3/4+x,1/4-y,3/4+z
1/2+x,1/2+y,z
1/2-x,1/2-y,z
3/4-x,3/4+y,1/4+z
3/4+x,3/4-y,1/4+z
loop_
_atom_site_type_symbol
_atom_site_label
_atom_site_fract_x
_atom_site_fract_y
_atom_site_fract_z
Si Si1 0.500000 0.000000 0.502741
Si Si2 0.129304 0.088564 0.887161
Si Si3 0.488827 0.680387 0.875764
Si Si4 0.236569 0.074041 0.628135
Si Si5 0.666038 0.131958 0.874809
O O1 0.431329 0.970535 0.406298
O O2 0.539214 0.947945 0.598851
O O3 0.193723 0.075893 0.771126
O O4 0.078074 0.150935 0.858728
O O5 0.178129 0.102344 0.022099
O O6 0.495066 0.752802 0.841035
O O7 0.450590 0.669251 0.021465
O O8 0.178283 0.106413 0.522381
O O9 0.319597 0.112387 0.617165
#
# Coordination Sequence:
#
# PCOD8187445 Si02
#       5
#     8  16  16  16  16
#     4  10  22  44  72  92 134 188 222 264 348 428
#     4  11  24  42  67  99 132 174 223 274 341 397
#     4  11  24  44  68  95 134 180 221 273 341 410
#     4  12  25  43  67 102 135 171 226 289 326 397
#     4  11  24  44  69  99 132 178 229 274 342 400
#
# _framework density 20.470303000000001
#
# number of rings (size 3 to 8) (size 9 to 14) (size 15 to 20)
#    0.000    0.889    2.222    5.333    6.222    0.000 
#    0.000    0.000    0.000    0.000    0.000    0.000 
#    0.000    0.000    0.000    0.000    0.000    0.000 
#
# Total GULP energy -223286.060950 kJ/mol
# GULP energy per Si atom -12404.781164 kJ/mol
# Density = 2.042371 g / cm^3
# Si number density = 20.470303 Si / 1000 Ang^3
#
#
#
# Elastic Constant Matrix: (Units=GPa)
#
#
# Indices 1 2 3 4 5 6 
#
# 1 98.8361 17.3950 16.7381 0.0000 0.0000 0.0000
# 2 17.3950 78.8431 10.1353 0.0000 0.0000 0.0000
# 3 16.7381 10.1353 80.3894 0.0000 0.0000 0.0000
# 4 0.0000 0.0000 0.0000 29.8772 0.0000 0.0000
# 5 0.0000 0.0000 0.0000 0.0000 48.4502 0.0000
# 6 0.0000 0.0000 0.0000 0.0000 0.0000 17.4211
#
#
#
# Elastic Compliance Matrix: (Units=1/GPa)
#
#
# Indices 1 2 3 4 5 6 
#
# 1 0.010830 -0.002134 -0.001986 0.000000 0.000000 0.000000
# 2 -0.002134 0.013313 -0.001234 0.000000 0.000000 0.000000
# 3 -0.001986 -0.001234 0.013009 0.000000 0.000000 0.000000
# 4 0.000000 0.000000 0.000000 0.033470 0.000000 0.000000
# 5 0.000000 0.000000 0.000000 0.000000 0.020640 0.000000
# 6 0.000000 0.000000 0.000000 0.000000 0.000000 0.057402
#
#
# Mechanical properties :
#
#
# Convention : Reuss Voigt Hill
#
# Bulk Modulus (GPa) = 37.81708 38.51174 38.16441
# Shear Modulus (GPa) = 29.72912 33.40304 31.56608
#
# Velocity S-wave (km/s) = 3.81505 4.04391 3.93115
# Velocity P-wave (km/s) = 6.15795 6.37641 6.26813
#
# Compressibility (1/GPa) = 0.02644308
#
# Stress axis : x y z
#
# Youngs Moduli (GPa) = 92.33904 75.11515 76.87270
#
# Poissons Ratio (x) = 0.16030 0.15266
# Poissons Ratio (y) = 0.19706 0.09487
# Poissons Ratio (z) = 0.18337 0.09270
#
# Static dielectric constant tensor:
#      x y z
#    x 3.946280 0.000000 0.000000 
#    y 0.000000 3.698450 0.000000 
#    z 0.000000 0.000000 3.638350 
# 
# 
# High freq. dielectric constant tensor:
#      x y z
#    x 1.820600 0.000000 0.000000 
#    y 0.000000 1.800750 0.000000 
#    z 0.000000 0.000000 1.801970 
# 
# From -- ./inp_files/2330.got.cif
#   From: 2010.06.25/outbox.cif.g09.slc.cpg/sg43_2_cif.got.tgz:2330.got - 2010.06.26 16:48:59.
