data_PCOD8187324
_publ_section_title
;
Structure prediction by ZEFSAII (Michael W. Deem and Ramdas Pophale) SiO2 
 PCOD8187324
Probable space group: F D D 2
;
_chemical_formula_sum "Si O2"
_cell_formula_units_Z 104
_cell_length_a 26.453581
_cell_length_b 21.773169
_cell_length_c 8.634736
_cell_angle_alpha 90.000000
_cell_angle_beta 90.000000
_cell_angle_gamma 90.000000
_cell_volume 4973.420474
_symmetry_space_group_name_H-M "F D D 2"
_symmetry_group_IT_number 43
_symmetry_cell_setting 'orthorhombic'
loop_
_space_group_symop_operation_xyz
x,y,z
-x,-y,z
1/4-x,1/4+y,1/4+z
1/4+x,1/4-y,1/4+z
x,1/2+y,1/2+z
-x,1/2-y,1/2+z
1/4-x,3/4+y,3/4+z
1/4+x,3/4-y,3/4+z
1/2+x,y,1/2+z
1/2-x,-y,1/2+z
3/4-x,1/4+y,3/4+z
3/4+x,1/4-y,3/4+z
1/2+x,1/2+y,z
1/2-x,1/2-y,z
3/4-x,3/4+y,1/4+z
3/4+x,3/4-y,1/4+z
loop_
_atom_site_type_symbol
_atom_site_label
_atom_site_fract_x
_atom_site_fract_y
_atom_site_fract_z
Si Si1 0.082172 0.546212 0.214170
Si Si2 0.311111 0.059345 0.469980
Si Si3 0.831631 0.829496 0.116524
Si Si4 0.474301 0.909694 0.502964
Si Si5 0.000000 0.000000 0.237494
Si Si6 0.180655 0.073570 0.880599
Si Si7 0.985509 0.896551 0.462897
O O1 0.070917 0.474417 0.240780
O O2 0.052886 0.585527 0.340816
O O3 0.142089 0.560163 0.237893
O O4 0.060518 0.566674 0.047200
O O5 0.371874 0.062353 0.477539
O O6 0.290381 0.094174 0.320084
O O7 0.288082 0.088431 0.624381
O O8 0.295109 0.988549 0.449632
O O9 0.784559 0.839106 0.229765
O O10 0.846653 0.891224 0.022508
O O11 0.459411 0.966512 0.620878
O O12 0.016300 0.943246 0.349000
O O13 0.225399 0.119041 0.833400
#
# Coordination Sequence:
#
# PCOD8187324 Si02
#       7
#    16  16  16  16   8  16  16
#     4  11  22  41  66  95 119 170 220 257 314 390
#     4  10  26  41  60  98 131 162 215 264 322 388
#     4  11  21  40  70  87 120 175 214 257 314 389
#     4  11  20  40  68  88 124 166 211 265 315 381
#     4  10  22  38  64  98 120 158 224 264 322 358
#     4  11  24  41  65  93 132 169 212 257 329 387
#     4  11  24  41  65  96 133 162 214 280 314 370
#
# _framework density 20.911162000000001
#
# number of rings (size 3 to 8) (size 9 to 14) (size 15 to 20)
#    0.000    1.231    4.615    0.923    2.154    2.462 
#    0.000    1.538    0.000    0.000    0.000    0.000 
#    0.000    0.000    0.000    0.000    0.000    0.000 
#
# Total GULP energy -322261.665060 kJ/mol
# GULP energy per Si atom -12394.679425 kJ/mol
# Density = 2.086357 g / cm^3
# Si number density = 20.911162 Si / 1000 Ang^3
#
#
#
# Elastic Constant Matrix: (Units=GPa)
#
#
# Indices 1 2 3 4 5 6 
#
# 1 71.3590 21.3022 8.9863 0.0012 -0.0002 -0.0002
# 2 21.3022 108.5489 25.8323 0.0002 0.0000 0.0003
# 3 8.9863 25.8323 68.5891 -0.0042 0.0013 0.0015
# 4 0.0012 0.0002 -0.0042 34.3669 0.0013 0.0016
# 5 -0.0002 0.0000 0.0013 0.0013 21.5370 -0.0005
# 6 -0.0002 0.0003 0.0015 0.0016 -0.0005 30.0515
#
#
#
# Elastic Compliance Matrix: (Units=1/GPa)
#
#
# Indices 1 2 3 4 5 6 
#
# 1 0.014940 -0.002709 -0.000937 -0.000001 0.000000 0.000000
# 2 -0.002709 0.010611 -0.003641 0.000000 0.000000 0.000000
# 3 -0.000937 -0.003641 0.016074 0.000002 -0.000001 -0.000001
# 4 -0.000001 0.000000 0.000002 0.029098 -0.000002 -0.000002
# 5 0.000000 0.000000 -0.000001 -0.000002 0.046432 0.000001
# 6 0.000000 0.000000 -0.000001 -0.000002 0.000001 0.033276
#
#
# Mechanical properties :
#
#
# Convention : Reuss Voigt Hill
#
# Bulk Modulus (GPa) = 36.96873 40.08205 38.52539
# Shear Modulus (GPa) = 28.73202 30.01617 29.37409
#
# Velocity S-wave (km/s) = 3.71078 3.79280 3.75201
# Velocity P-wave (km/s) = 6.00643 6.19595 6.10192
#
# Compressibility (1/GPa) = 0.02704989
#
# Stress axis : x y z
#
# Youngs Moduli (GPa) = 66.93290 94.24534 62.21324
#
# Poissons Ratio (x) = 0.25530 0.05830
# Poissons Ratio (y) = 0.18132 0.22654
# Poissons Ratio (z) = 0.06273 0.34317
#
# Static dielectric constant tensor:
#      x y z
#    x 3.638460 0.000000 0.000000 
#    y 0.000000 3.966660 0.000000 
#    z 0.000000 0.000000 3.774140 
# 
# 
# High freq. dielectric constant tensor:
#      x y z
#    x 1.799810 0.000000 0.000000 
#    y 0.000000 1.836210 0.000000 
#    z 0.000000 0.000000 1.810590 
# 
# From -- ./inp_files/3381.got.cif
#   From: 2010.06.25/outbox.cif.g09.slc.cpg/sg43_2_cif.got.tgz:3381.got - 2010.06.26 16:48:59.
