data_PCOD8187472
_publ_section_title
;
Structure prediction by ZEFSAII (Michael W. Deem and Ramdas Pophale) SiO2 
 PCOD8187472
Probable space group: F D D 2
;
_chemical_formula_sum "Si O2"
_cell_formula_units_Z 112
_cell_length_a 12.867511
_cell_length_b 28.199881
_cell_length_c 13.929114
_cell_angle_alpha 90.000000
_cell_angle_beta 90.000000
_cell_angle_gamma 90.000000
_cell_volume 5054.350050
_symmetry_space_group_name_H-M "F D D 2"
_symmetry_group_IT_number 43
_symmetry_cell_setting 'orthorhombic'
loop_
_space_group_symop_operation_xyz
x,y,z
-x,-y,z
1/4-x,1/4+y,1/4+z
1/4+x,1/4-y,1/4+z
x,1/2+y,1/2+z
-x,1/2-y,1/2+z
1/4-x,3/4+y,3/4+z
1/4+x,3/4-y,3/4+z
1/2+x,y,1/2+z
1/2-x,-y,1/2+z
3/4-x,1/4+y,3/4+z
3/4+x,1/4-y,3/4+z
1/2+x,1/2+y,z
1/2-x,1/2-y,z
3/4-x,3/4+y,1/4+z
3/4+x,3/4-y,1/4+z
loop_
_atom_site_type_symbol
_atom_site_label
_atom_site_fract_x
_atom_site_fract_y
_atom_site_fract_z
Si Si1 0.390396 0.911052 0.967190
Si Si2 0.250000 0.250000 0.740709
Si Si3 0.000000 0.000000 0.197949
Si Si4 0.680956 0.937270 0.004658
Si Si5 0.469809 0.268101 0.548695
Si Si6 0.997813 0.838308 0.054835
Si Si7 0.827748 0.902960 0.685377
Si Si8 0.622142 0.332504 0.872950
O O1 0.283990 0.900262 0.913664
O O2 0.467967 0.872474 0.926322
O O3 0.377766 0.911932 0.081369
O O4 0.430115 0.963032 0.928975
O O5 0.169096 0.215993 0.798699
O O6 0.101421 0.984125 0.258941
O O7 0.966502 0.955071 0.132593
O O8 0.712228 0.957950 0.902035
O O9 0.654232 0.881292 0.996210
O O10 0.774004 0.945206 0.078260
O O11 0.527297 0.217284 0.549086
O O12 0.553173 0.297596 0.486391
O O13 0.899970 0.874199 0.049771
O O14 0.085010 0.852064 0.976478
#
# Coordination Sequence:
#
# PCOD8187472 Si02
#       8
#    16   8   8  16  16  16  16  16
#     4  11  22  40  69 100 131 175 236 289 337 408
#     4  10  23  38  70  99 130 176 241 280 346 397
#     4  10  25  46  70 105 134 182 239 294 332 427
#     4  11  24  45  68 100 140 182 226 295 344 411
#     4  11  23  43  71  99 139 178 241 286 345 405
#     4  11  25  42  69  99 142 185 228 283 351 428
#     4  11  24  40  69 100 132 177 233 290 344 401
#     4  11  27  43  70 100 149 184 230 283 362 413
#
# _framework density 22.159130000000001
#
# number of rings (size 3 to 8) (size 9 to 14) (size 15 to 20)
#    0.000    1.143    2.857    2.143   12.000    1.143 
#    0.000    0.000    0.000    0.000    0.000    0.000 
#    0.000    0.000    0.000    0.000    0.000    0.000 
#
# Total GULP energy -346957.490107 kJ/mol
# GULP energy per Si atom -12391.338932 kJ/mol
# Density = 2.210869 g / cm^3
# Si number density = 22.159130 Si / 1000 Ang^3
#
#
#
# Elastic Constant Matrix: (Units=GPa)
#
#
# Indices 1 2 3 4 5 6 
#
# 1 85.7222 48.2237 41.7580 0.0000 0.0000 0.0000
# 2 48.2237 148.2881 42.3241 0.0000 0.0000 0.0000
# 3 41.7580 42.3241 84.0653 0.0000 0.0000 0.0000
# 4 0.0000 0.0000 0.0000 26.9764 0.0000 0.0000
# 5 0.0000 0.0000 0.0000 0.0000 27.8866 0.0000
# 6 0.0000 0.0000 0.0000 0.0000 0.0000 36.4520
#
#
#
# Elastic Compliance Matrix: (Units=1/GPa)
#
#
# Indices 1 2 3 4 5 6 
#
# 1 0.016905 -0.003621 -0.006574 0.000000 0.000000 0.000000
# 2 -0.003621 0.008651 -0.002557 0.000000 0.000000 0.000000
# 3 -0.006574 -0.002557 0.016448 0.000000 0.000000 0.000000
# 4 0.000000 0.000000 0.000000 0.037069 0.000000 0.000000
# 5 0.000000 0.000000 0.000000 0.000000 0.035859 0.000000
# 6 0.000000 0.000000 0.000000 0.000000 0.000000 0.027433
#
#
# Mechanical properties :
#
#
# Convention : Reuss Voigt Hill
#
# Bulk Modulus (GPa) = 60.60501 64.74304 62.67402
# Shear Modulus (GPa) = 28.83985 30.64767 29.74376
#
# Velocity S-wave (km/s) = 3.61153 3.72300 3.66769
# Velocity P-wave (km/s) = 6.69329 6.91099 6.80301
#
# Compressibility (1/GPa) = 0.01650029
#
# Stress axis : x y z
#
# Youngs Moduli (GPa) = 59.15316 115.59367 60.79635
#
# Poissons Ratio (x) = 0.41859 0.39969
# Poissons Ratio (y) = 0.21421 0.15544
# Poissons Ratio (z) = 0.38889 0.29554
#
# Static dielectric constant tensor:
#      x y z
#    x 3.947950 0.000000 0.000000 
#    y 0.000000 4.352150 0.000000 
#    z 0.000000 0.000000 3.774530 
# 
# 
# High freq. dielectric constant tensor:
#      x y z
#    x 1.864360 0.000000 0.000000 
#    y 0.000000 1.892180 0.000000 
#    z 0.000000 0.000000 1.853740 
# 
# From -- ./inp_files/8307.got.cif
#   From: 2010.06.25/outbox.cif.g09.slc.cpg/sg43_5_cif.got.tgz:8307.got - 2010.06.26 16:48:59.
