data_PCOD8187231
_publ_section_title
;
Structure prediction by ZEFSAII (Michael W. Deem and Ramdas Pophale) SiO2 
 PCOD8187231
Probable space group: F D D 2
;
_chemical_formula_sum "Si O2"
_cell_formula_units_Z 112
_cell_length_a 15.413752
_cell_length_b 12.281240
_cell_length_c 25.949189
_cell_angle_alpha 90.000000
_cell_angle_beta 90.000000
_cell_angle_gamma 90.000000
_cell_volume 4912.181156
_symmetry_space_group_name_H-M "F D D 2"
_symmetry_group_IT_number 43
_symmetry_cell_setting 'orthorhombic'
loop_
_space_group_symop_operation_xyz
x,y,z
-x,-y,z
1/4-x,1/4+y,1/4+z
1/4+x,1/4-y,1/4+z
x,1/2+y,1/2+z
-x,1/2-y,1/2+z
1/4-x,3/4+y,3/4+z
1/4+x,3/4-y,3/4+z
1/2+x,y,1/2+z
1/2-x,-y,1/2+z
3/4-x,1/4+y,3/4+z
3/4+x,1/4-y,3/4+z
1/2+x,1/2+y,z
1/2-x,1/2-y,z
3/4-x,3/4+y,1/4+z
3/4+x,3/4-y,1/4+z
loop_
_atom_site_type_symbol
_atom_site_label
_atom_site_fract_x
_atom_site_fract_y
_atom_site_fract_z
Si Si1 0.574078 0.912842 0.815170
Si Si2 0.653678 0.272774 0.540074
Si Si3 0.590912 0.047960 0.511716
Si Si4 0.130103 0.201170 0.149038
Si Si5 0.568874 0.797052 0.639094
Si Si6 0.148714 0.742476 0.240202
Si Si7 0.939879 0.767277 0.360416
O O1 0.612906 0.852495 0.766007
O O2 0.533151 0.826924 0.856584
O O3 0.500000 0.000000 0.798414
O O4 0.656252 0.974872 0.839568
O O5 0.750000 0.250000 0.518251
O O6 0.590777 0.179070 0.516666
O O7 0.656685 0.279646 0.602265
O O8 0.617817 0.389360 0.525575
O O9 0.664339 0.003693 0.550469
O O10 0.500000 0.000000 0.531412
O O11 0.606841 0.009747 0.453329
O O12 0.191013 0.093740 0.143792
O O13 0.030796 0.168760 0.139732
O O14 0.594572 0.725005 0.688311
O O15 0.622577 0.907805 0.640416
O O16 0.250000 0.750000 0.227501
#
# Coordination Sequence:
#
# PCOD8187231 Si02
#       7
#    16  16  16  16  16  16  16
#     4  10  23  43  65  91 129 168 210 261 315 376
#     4  11  24  44  64  93 130 163 208 266 315 372
#     4  11  24  41  64  93 124 166 214 263 313 372
#     4  11  22  40  66  92 122 168 214 255 313 377
#     4  11  23  40  61  94 130 165 205 261 315 370
#     4  12  25  42  65  95 128 169 209 255 317 380
#     4  10  21  40  63  92 125 161 210 265 309 367
#
# _framework density 22.800463000000001
#
# number of rings (size 3 to 8) (size 9 to 14) (size 15 to 20)
#    0.000    1.143    0.000    8.143    0.000    8.000 
#    0.000    2.857    0.000    0.000    0.000    0.000 
#    0.000    0.000    0.000    0.000    0.000    0.000 
#
# Total GULP energy -347223.429584 kJ/mol
# GULP energy per Si atom -12400.836771 kJ/mol
# Density = 2.274857 g / cm^3
# Si number density = 22.800463 Si / 1000 Ang^3
#
#
#
# Elastic Constant Matrix: (Units=GPa)
#
#
# Indices 1 2 3 4 5 6 
#
# 1 76.0839 2.8945 -9.7783 0.0000 0.0000 0.0000
# 2 2.8945 105.7967 38.1037 0.0000 0.0000 0.0000
# 3 -9.7783 38.1037 91.8945 0.0000 0.0000 0.0000
# 4 0.0000 0.0000 0.0000 27.2177 0.0000 0.0000
# 5 0.0000 0.0000 0.0000 0.0000 24.3203 0.0000
# 6 0.0000 0.0000 0.0000 0.0000 0.0000 29.5737
#
#
#
# Elastic Compliance Matrix: (Units=1/GPa)
#
#
# Indices 1 2 3 4 5 6 
#
# 1 0.013422 -0.001036 0.001858 0.000000 0.000000 0.000000
# 2 -0.001036 0.011191 -0.004751 0.000000 0.000000 0.000000
# 3 0.001858 -0.004751 0.013050 0.000000 0.000000 0.000000
# 4 0.000000 0.000000 0.000000 0.036741 0.000000 0.000000
# 5 0.000000 0.000000 0.000000 0.000000 0.041118 0.000000
# 6 0.000000 0.000000 0.000000 0.000000 0.000000 0.033814
#
#
# Mechanical properties :
#
#
# Convention : Reuss Voigt Hill
#
# Bulk Modulus (GPa) = 33.55230 37.35721 35.45475
# Shear Modulus (GPa) = 29.91711 32.39268 31.15490
#
# Velocity S-wave (km/s) = 3.62626 3.77331 3.70052
# Velocity P-wave (km/s) = 5.68160 5.95011 5.81740
#
# Compressibility (1/GPa) = 0.02980422
#
# Stress axis : x y z
#
# Youngs Moduli (GPa) = 74.50684 89.35372 76.63059
#
# Poissons Ratio (x) = 0.09260 -0.14237
# Poissons Ratio (y) = 0.07721 0.36405
# Poissons Ratio (z) = -0.13842 0.42450
#
# Static dielectric constant tensor:
#      x y z
#    x 4.285390 0.000000 0.000000 
#    y 0.000000 4.250680 0.000000 
#    z 0.000000 0.000000 3.954640 
# 
# 
# High freq. dielectric constant tensor:
#      x y z
#    x 1.905820 0.000000 0.000000 
#    y 0.000000 1.907000 0.000000 
#    z 0.000000 0.000000 1.894200 
# 
# From -- ./inp_files/29072.got.cif
#   From: 2010.06.25/outbox.cif.g09.slc.cpg/sg43_15_cif.got.tgz:29072.got - 2010.06.26 16:48:59.
