data_PCOD8187422
_publ_section_title
;
Structure prediction by ZEFSAII (Michael W. Deem and Ramdas Pophale) SiO2 
 PCOD8187422
Probable space group: F D D 2
;
_chemical_formula_sum "Si O2"
_cell_formula_units_Z 80
_cell_length_a 18.605230
_cell_length_b 12.988879
_cell_length_c 15.208108
_cell_angle_alpha 90.000000
_cell_angle_beta 90.000000
_cell_angle_gamma 90.000000
_cell_volume 3675.207823
_symmetry_space_group_name_H-M "F D D 2"
_symmetry_group_IT_number 43
_symmetry_cell_setting 'orthorhombic'
loop_
_space_group_symop_operation_xyz
x,y,z
-x,-y,z
1/4-x,1/4+y,1/4+z
1/4+x,1/4-y,1/4+z
x,1/2+y,1/2+z
-x,1/2-y,1/2+z
1/4-x,3/4+y,3/4+z
1/4+x,3/4-y,3/4+z
1/2+x,y,1/2+z
1/2-x,-y,1/2+z
3/4-x,1/4+y,3/4+z
3/4+x,1/4-y,3/4+z
1/2+x,1/2+y,z
1/2-x,1/2-y,z
3/4-x,3/4+y,1/4+z
3/4+x,3/4-y,1/4+z
loop_
_atom_site_type_symbol
_atom_site_label
_atom_site_fract_x
_atom_site_fract_y
_atom_site_fract_z
Si Si1 0.681522 0.534308 0.367000
Si Si2 0.914641 0.287755 0.919590
Si Si3 0.570916 0.212429 0.391332
Si Si4 0.690157 0.837882 0.969902
Si Si5 0.301825 0.167903 0.305597
O O1 0.612367 0.593388 0.410254
O O2 0.659841 0.498986 0.269657
O O3 0.715327 0.441966 0.423201
O O4 0.748685 0.610837 0.372444
O O5 0.866604 0.214359 0.859935
O O6 0.994949 0.270852 0.882674
O O7 0.586452 0.127371 0.315828
O O8 0.629994 0.301359 0.399984
O O9 0.583919 0.156765 0.483750
O O10 0.750000 0.750000 0.980850
O O11 0.250000 0.250000 0.256054
#
# Coordination Sequence:
#
# PCOD8187422 Si02
#       5
#    16  16  16  16  16
#     4  10  23  42  67 102 131 179 218 281 334 407
#     4  10  22  43  70  98 131 172 231 275 339 404
#     4  11  25  42  67 100 131 184 218 287 337 416
#     4  12  27  44  67  97 143 178 228 279 355 404
#     4   9  20  41  69  96 130 164 228 276 337 401
#
# _framework density 21.767475000000001
#
# number of rings (size 3 to 8) (size 9 to 14) (size 15 to 20)
#    0.000    1.600    0.000    3.000    8.400    4.000 
#    3.600    0.000    0.000    0.000    0.000    0.000 
#    0.000    0.000    0.000    0.000    0.000    0.000 
#
# Total GULP energy -247834.342038 kJ/mol
# GULP energy per Si atom -12391.717102 kJ/mol
# Density = 2.171793 g / cm^3
# Si number density = 21.767475 Si / 1000 Ang^3
#
#
#
# Elastic Constant Matrix: (Units=GPa)
#
#
# Indices 1 2 3 4 5 6 
#
# 1 104.3303 39.5595 29.9138 0.0000 0.0000 0.0000
# 2 39.5595 112.5555 17.0352 0.0000 0.0000 0.0000
# 3 29.9138 17.0352 60.0374 0.0000 0.0000 0.0000
# 4 0.0000 0.0000 0.0000 32.3380 0.0000 0.0000
# 5 0.0000 0.0000 0.0000 0.0000 23.7921 0.0000
# 6 0.0000 0.0000 0.0000 0.0000 0.0000 36.7085
#
#
#
# Elastic Compliance Matrix: (Units=1/GPa)
#
#
# Indices 1 2 3 4 5 6 
#
# 1 0.012428 -0.003585 -0.005175 0.000000 0.000000 0.000000
# 2 -0.003585 0.010317 -0.001141 0.000000 0.000000 0.000000
# 3 -0.005175 -0.001141 0.019559 0.000000 0.000000 0.000000
# 4 0.000000 0.000000 0.000000 0.030923 0.000000 0.000000
# 5 0.000000 0.000000 0.000000 0.000000 0.042031 0.000000
# 6 0.000000 0.000000 0.000000 0.000000 0.000000 0.027242
#
#
# Mechanical properties :
#
#
# Convention : Reuss Voigt Hill
#
# Bulk Modulus (GPa) = 44.44168 49.99335 47.21752
# Shear Modulus (GPa) = 29.44595 31.26202 30.35399
#
# Velocity S-wave (km/s) = 3.68197 3.79381 3.73830
# Velocity P-wave (km/s) = 6.20779 6.49673 6.35390
#
# Compressibility (1/GPa) = 0.02250140
#
# Stress axis : x y z
#
# Youngs Moduli (GPa) = 80.46323 96.92579 51.12827
#
# Poissons Ratio (x) = 0.34746 0.26460
# Poissons Ratio (y) = 0.28844 0.05835
# Poissons Ratio (z) = 0.41641 0.11062
#
# Static dielectric constant tensor:
#      x y z
#    x 3.930420 0.000000 0.000000 
#    y 0.000000 4.329210 0.000000 
#    z 0.000000 0.000000 3.932630 
# 
# 
# High freq. dielectric constant tensor:
#      x y z
#    x 1.852080 0.000000 0.000000 
#    y 0.000000 1.873510 0.000000 
#    z 0.000000 0.000000 1.856120 
# 
# From -- ./inp_files/10868.got.cif
#   From: 2010.06.25/outbox.cif.g09.slc.cpg/sg43_6_cif.got.tgz:10868.got - 2010.06.26 16:48:59.
