data_PCOD8187534
_publ_section_title
;
Structure prediction by ZEFSAII (Michael W. Deem and Ramdas Pophale) SiO2 
 PCOD8187534
Probable space group: F D D 2
;
_chemical_formula_sum "Si O2"
_cell_formula_units_Z 104
_cell_length_a 21.965332
_cell_length_b 8.349429
_cell_length_c 26.786156
_cell_angle_alpha 90.000000
_cell_angle_beta 90.000000
_cell_angle_gamma 90.000000
_cell_volume 4912.526902
_symmetry_space_group_name_H-M "F D D 2"
_symmetry_group_IT_number 43
_symmetry_cell_setting 'orthorhombic'
loop_
_space_group_symop_operation_xyz
x,y,z
-x,-y,z
1/4-x,1/4+y,1/4+z
1/4+x,1/4-y,1/4+z
x,1/2+y,1/2+z
-x,1/2-y,1/2+z
1/4-x,3/4+y,3/4+z
1/4+x,3/4-y,3/4+z
1/2+x,y,1/2+z
1/2-x,-y,1/2+z
3/4-x,1/4+y,3/4+z
3/4+x,1/4-y,3/4+z
1/2+x,1/2+y,z
1/2-x,1/2-y,z
3/4-x,3/4+y,1/4+z
3/4+x,3/4-y,1/4+z
loop_
_atom_site_type_symbol
_atom_site_label
_atom_site_fract_x
_atom_site_fract_y
_atom_site_fract_z
Si Si1 0.064139 0.965779 0.358860
Si Si2 0.351878 0.475908 0.866053
Si Si3 0.500000 0.000000 0.085396
Si Si4 0.957389 0.325898 0.419444
Si Si5 0.932995 0.942766 0.027700
Si Si6 0.405578 0.296480 0.529967
Si Si7 0.845117 0.992076 0.170267
O O1 0.050198 0.863166 0.408784
O O2 0.105605 0.877602 0.317175
O O3 0.096306 0.129458 0.376147
O O4 0.000000 0.000000 0.331950
O O5 0.298631 0.341476 0.871327
O O6 0.419210 0.401229 0.873117
O O7 0.345885 0.555516 0.811921
O O8 0.349604 0.617855 0.908271
O O9 0.470247 0.865243 0.049194
O O10 0.928509 0.370090 0.472371
O O11 0.030700 0.362560 0.420943
O O12 0.895005 0.105574 0.031457
O O13 0.000000 0.000000 0.043892
O O14 0.396070 0.339152 0.471868
#
# Coordination Sequence:
#
# PCOD8187534 Si02
#       7
#    16  16   8  16  16  16  16
#     4  10  24  41  65  95 132 167 214 273 336 388
#     4  12  23  39  64  95 133 168 217 274 334 380
#     4  12  26  38  66  98 136 172 214 286 326 396
#     4  11  22  42  67  98 125 167 226 277 322 396
#     4  12  22  39  66  94 125 167 219 267 322 396
#     4  12  23  43  63  97 129 166 222 268 323 396
#     4  11  23  39  71  91 123 177 221 266 325 395
#
# _framework density 21.170368
#
# number of rings (size 3 to 8) (size 9 to 14) (size 15 to 20)
#    0.000    0.615    7.692    0.462    5.385    0.000 
#    0.000    2.308   10.154    0.000    0.000    0.000 
#    0.000    0.000    0.000    0.000    0.000    0.000 
#
# Total GULP energy -322136.691974 kJ/mol
# GULP energy per Si atom -12389.872768 kJ/mol
# Density = 2.112218 g / cm^3
# Si number density = 21.170368 Si / 1000 Ang^3
#
#
#
# Elastic Constant Matrix: (Units=GPa)
#
#
# Indices 1 2 3 4 5 6 
#
# 1 77.6830 44.0885 69.0548 0.0000 0.0000 0.0001
# 2 44.0885 75.2785 37.4473 0.0000 0.0000 0.0003
# 3 69.0548 37.4473 127.7062 0.0000 0.0000 0.0000
# 4 0.0000 0.0000 0.0000 37.0316 0.0000 0.0000
# 5 0.0000 0.0000 0.0000 0.0000 31.2763 0.0000
# 6 0.0001 0.0003 0.0000 0.0000 0.0000 37.8610
#
#
#
# Elastic Compliance Matrix: (Units=1/GPa)
#
#
# Indices 1 2 3 4 5 6 
#
# 1 0.031742 -0.011769 -0.013713 0.000000 0.000000 0.000000
# 2 -0.011769 0.019916 0.000524 0.000000 0.000000 0.000000
# 3 -0.013713 0.000524 0.015092 0.000000 0.000000 0.000000
# 4 0.000000 0.000000 0.000000 0.027004 0.000000 0.000000
# 5 0.000000 0.000000 0.000000 0.000000 0.031973 0.000000
# 6 0.000000 0.000000 0.000000 0.000000 0.000000 0.026412
#
#
# Mechanical properties :
#
#
# Convention : Reuss Voigt Hill
#
# Bulk Modulus (GPa) = 59.40350 64.64986 62.02668
# Shear Modulus (GPa) = 24.07702 29.90559 26.99131
#
# Velocity S-wave (km/s) = 3.37604 3.76256 3.57453
# Velocity P-wave (km/s) = 6.58161 7.03420 6.81166
#
# Compressibility (1/GPa) = 0.01683403
#
# Stress axis : x y z
#
# Youngs Moduli (GPa) = 31.50397 50.21051 66.26077
#
# Poissons Ratio (x) = 0.59092 0.90863
# Poissons Ratio (y) = 0.37077 -0.03471
# Poissons Ratio (z) = 0.43201 -0.02630
#
# Static dielectric constant tensor:
#      x y z
#    x 3.802120 0.000000 0.000000 
#    y 0.000000 4.159460 0.000000 
#    z 0.000000 0.000000 3.672070 
# 
# 
# High freq. dielectric constant tensor:
#      x y z
#    x 1.804760 0.000000 0.000000 
#    y 0.000000 1.857890 0.000000 
#    z 0.000000 0.000000 1.814380 
# 
# From -- ./inp_files/26335.got.cif
#   From: 2010.06.25/outbox.cif.g09.slc.cpg/sg43_14_cif.got.tgz:26335.got - 2010.06.26 16:48:59.
