data_PCOD8187114
_publ_section_title
;
Structure prediction by ZEFSAII (Michael W. Deem and Ramdas Pophale) SiO2 
 PCOD8187114
Probable space group: F D D 2
;
_chemical_formula_sum "Si O2"
_cell_formula_units_Z 112
_cell_length_a 17.749478
_cell_length_b 16.239098
_cell_length_c 19.817565
_cell_angle_alpha 90.000000
_cell_angle_beta 90.000000
_cell_angle_gamma 90.000000
_cell_volume 5712.126008
_symmetry_space_group_name_H-M "F D D 2"
_symmetry_group_IT_number 43
_symmetry_cell_setting 'orthorhombic'
loop_
_space_group_symop_operation_xyz
x,y,z
-x,-y,z
1/4-x,1/4+y,1/4+z
1/4+x,1/4-y,1/4+z
x,1/2+y,1/2+z
-x,1/2-y,1/2+z
1/4-x,3/4+y,3/4+z
1/4+x,3/4-y,3/4+z
1/2+x,y,1/2+z
1/2-x,-y,1/2+z
3/4-x,1/4+y,3/4+z
3/4+x,1/4-y,3/4+z
1/2+x,1/2+y,z
1/2-x,1/2-y,z
3/4-x,3/4+y,1/4+z
3/4+x,3/4-y,1/4+z
loop_
_atom_site_type_symbol
_atom_site_label
_atom_site_fract_x
_atom_site_fract_y
_atom_site_fract_z
Si Si1 0.897572 0.969772 0.529700
Si Si2 0.684695 0.506189 0.346345
Si Si3 0.500000 0.000000 0.151107
Si Si4 0.000000 0.000000 0.147829
Si Si5 0.488873 0.328430 0.469269
Si Si6 0.999372 0.164909 0.223832
Si Si7 0.602536 0.128295 0.191805
Si Si8 0.607497 0.675484 0.339820
O O1 0.924185 0.000945 0.603852
O O2 0.968751 0.922346 0.494361
O O3 0.826586 0.907280 0.520145
O O4 0.861707 0.050465 0.496162
O O5 0.727346 0.490610 0.276654
O O6 0.741801 0.526455 0.408114
O O7 0.645203 0.419258 0.366594
O O8 0.623412 0.577745 0.339751
O O9 0.477767 0.922103 0.198992
O O10 0.066845 0.978059 0.096235
O O11 0.979667 0.925310 0.197149
O O12 0.575771 0.319339 0.448974
O O13 0.441377 0.302407 0.404834
O O14 0.066434 0.199641 0.270503
#
# Coordination Sequence:
#
# PCOD8187114 Si02
#       8
#    16  16   8   8  16  16  16  16
#     4  11  20  37  57  90 121 156 204 266 308 373
#     4  10  22  38  57  92 126 149 205 269 309 370
#     4  12  22  36  59  89 126 160 196 266 312 382
#     4  10  20  40  57  91 122 156 216 264 324 368
#     4  12  20  36  61  89 120 160 201 258 319 371
#     4  10  22  38  59  89 126 160 203 265 322 379
#     4  11  21  35  57  84 124 158 200 242 323 369
#     4  11  22  34  63  88 119 164 201 262 317 380
#
# _framework density 19.607410999999999
#
# number of rings (size 3 to 8) (size 9 to 14) (size 15 to 20)
#    0.000    1.143    7.143    1.714    0.000    0.000 
#    0.000    5.714    0.000    4.286    0.000    0.000 
#    0.000    0.000    0.000    0.000    0.000    0.000 
#
# Total GULP energy -346873.695147 kJ/mol
# GULP energy per Si atom -12388.346255 kJ/mol
# Density = 1.956278 g / cm^3
# Si number density = 19.607411 Si / 1000 Ang^3
#
#
#
# Elastic Constant Matrix: (Units=GPa)
#
#
# Indices 1 2 3 4 5 6 
#
# 1 95.1487 38.0654 48.6109 0.0000 0.0000 0.0000
# 2 38.0654 72.0046 32.0865 0.0000 0.0000 0.0000
# 3 48.6109 32.0865 118.9447 0.0000 0.0000 0.0000
# 4 0.0000 0.0000 0.0000 19.6922 0.0000 0.0000
# 5 0.0000 0.0000 0.0000 0.0000 39.5610 0.0000
# 6 0.0000 0.0000 0.0000 0.0000 0.0000 25.9134
#
#
#
# Elastic Compliance Matrix: (Units=1/GPa)
#
#
# Indices 1 2 3 4 5 6 
#
# 1 0.015278 -0.006018 -0.004621 0.000000 0.000000 0.000000
# 2 -0.006018 0.018156 -0.002438 0.000000 0.000000 0.000000
# 3 -0.004621 -0.002438 0.010953 0.000000 0.000000 0.000000
# 4 0.000000 0.000000 0.000000 0.050781 0.000000 0.000000
# 5 0.000000 0.000000 0.000000 0.000000 0.025277 0.000000
# 6 0.000000 0.000000 0.000000 0.000000 0.000000 0.038590
#
#
# Mechanical properties :
#
#
# Convention : Reuss Voigt Hill
#
# Bulk Modulus (GPa) = 54.84276 58.18038 56.51157
# Shear Modulus (GPa) = 26.14143 28.18902 27.16523
#
# Velocity S-wave (km/s) = 3.65532 3.79578 3.72621
# Velocity P-wave (km/s) = 6.77099 6.99626 6.88455
#
# Compressibility (1/GPa) = 0.01823395
#
# Stress axis : x y z
#
# Youngs Moduli (GPa) = 65.45399 55.07868 91.29609
#
# Poissons Ratio (x) = 0.33145 0.42183
# Poissons Ratio (y) = 0.39388 0.22261
# Poissons Ratio (z) = 0.30243 0.13430
#
# Static dielectric constant tensor:
#      x y z
#    x 3.763810 0.000000 0.000000 
#    y 0.000000 3.575020 0.000000 
#    z 0.000000 0.000000 3.625370 
# 
# 
# High freq. dielectric constant tensor:
#      x y z
#    x 1.750530 0.000000 0.000000 
#    y 0.000000 1.753340 0.000000 
#    z 0.000000 0.000000 1.761160 
# 
# From -- ./inp_files/18062.got.cif
#   From: 2010.06.25/outbox.cif.g09.slc.cpg/sg43_10_cif.got.tgz:18062.got - 2010.06.26 16:48:59.
