data_PCOD8187683
_publ_section_title
;
Structure prediction by ZEFSAII (Michael W. Deem and Ramdas Pophale) SiO2 
 PCOD8187683
Probable space group: F D D 2
;
_chemical_formula_sum "Si O2"
_cell_formula_units_Z 112
_cell_length_a 10.648614
_cell_length_b 30.147398
_cell_length_c 14.865842
_cell_angle_alpha 90.000000
_cell_angle_beta 90.000000
_cell_angle_gamma 90.000000
_cell_volume 4772.351591
_symmetry_space_group_name_H-M "F D D 2"
_symmetry_group_IT_number 43
_symmetry_cell_setting 'orthorhombic'
loop_
_space_group_symop_operation_xyz
x,y,z
-x,-y,z
1/4-x,1/4+y,1/4+z
1/4+x,1/4-y,1/4+z
x,1/2+y,1/2+z
-x,1/2-y,1/2+z
1/4-x,3/4+y,3/4+z
1/4+x,3/4-y,3/4+z
1/2+x,y,1/2+z
1/2-x,-y,1/2+z
3/4-x,1/4+y,3/4+z
3/4+x,1/4-y,3/4+z
1/2+x,1/2+y,z
1/2-x,1/2-y,z
3/4-x,3/4+y,1/4+z
3/4+x,3/4-y,1/4+z
loop_
_atom_site_type_symbol
_atom_site_label
_atom_site_fract_x
_atom_site_fract_y
_atom_site_fract_z
Si Si1 0.126475 0.159870 0.028920
Si Si2 0.981079 0.232510 0.930441
Si Si3 0.425403 0.327084 0.496604
Si Si4 0.876328 0.228786 0.271532
Si Si5 0.611648 0.965591 0.450180
Si Si6 0.768521 0.177474 0.857305
Si Si7 0.343770 0.645936 0.386665
O O1 0.169112 0.180334 0.122972
O O2 0.085702 0.110183 0.049599
O O3 0.236221 0.159380 0.956313
O O4 0.013882 0.189819 0.990432
O O5 0.861491 0.219097 0.870396
O O6 0.094384 0.244471 0.863573
O O7 0.951511 0.274172 0.995743
O O8 0.288887 0.337864 0.452609
O O9 0.526944 0.353975 0.439603
O O10 0.426869 0.346030 0.598122
O O11 0.750000 0.250000 0.227806
O O12 0.847360 0.178164 0.299753
O O13 0.992955 0.232707 0.200297
O O14 0.600121 0.943818 0.548787
O O15 0.500000 0.000000 0.434315
#
# Coordination Sequence:
#
# PCOD8187683 Si02
#       7
#    16  16  16  16  16  16  16
#     4  12  29  42  74 110 152 196 255 314 383 464
#     4  11  24  47  74 108 147 205 246 316 374 453
#     4  11  26  48  74 102 148 196 254 310 385 453
#     4  11  22  47  75 104 152 197 252 311 387 446
#     4  12  25  46  76 109 144 199 255 312 378 466
#     4  12  24  48  74 109 148 197 255 312 384 450
#     4  11  26  45  73 106 144 200 243 319 380 451
#
# _framework density 23.468513999999999
#
# number of rings (size 3 to 8) (size 9 to 14) (size 15 to 20)
#    0.000    0.571    5.714    2.143   10.000    0.000 
#    2.571    0.000    0.000    0.000    0.000    0.000 
#    0.000    0.000    0.000    0.000    0.000    0.000 
#
# Total GULP energy -347213.920139 kJ/mol
# GULP energy per Si atom -12400.497148 kJ/mol
# Density = 2.341510 g / cm^3
# Si number density = 23.468514 Si / 1000 Ang^3
#
#
#
# Elastic Constant Matrix: (Units=GPa)
#
#
# Indices 1 2 3 4 5 6 
#
# 1 142.9922 56.1756 33.9596 0.0000 0.0000 0.0000
# 2 56.1756 116.1642 42.8284 0.0000 0.0000 0.0000
# 3 33.9596 42.8284 81.5562 0.0000 0.0000 0.0000
# 4 0.0000 0.0000 0.0000 43.5483 0.0000 0.0000
# 5 0.0000 0.0000 0.0000 0.0000 17.4544 0.0000
# 6 0.0000 0.0000 0.0000 0.0000 0.0000 26.1314
#
#
#
# Elastic Compliance Matrix: (Units=1/GPa)
#
#
# Indices 1 2 3 4 5 6 
#
# 1 0.008837 -0.003617 -0.001780 0.000000 0.000000 0.000000
# 2 -0.003617 0.012156 -0.004877 0.000000 0.000000 0.000000
# 3 -0.001780 -0.004877 0.015564 0.000000 0.000000 0.000000
# 4 0.000000 0.000000 0.000000 0.022963 0.000000 0.000000
# 5 0.000000 0.000000 0.000000 0.000000 0.057292 0.000000
# 6 0.000000 0.000000 0.000000 0.000000 0.000000 0.038268
#
#
# Mechanical properties :
#
#
# Convention : Reuss Voigt Hill
#
# Bulk Modulus (GPa) = 62.47037 67.40443 64.93740
# Shear Modulus (GPa) = 27.62946 31.27674 29.45310
#
# Velocity S-wave (km/s) = 3.43490 3.65459 3.54645
# Velocity P-wave (km/s) = 6.51214 6.82581 6.67082
#
# Compressibility (1/GPa) = 0.01600759
#
# Stress axis : x y z
#
# Youngs Moduli (GPa) = 113.15752 82.26398 64.25057
#
# Poissons Ratio (x) = 0.29757 0.11438
# Poissons Ratio (y) = 0.40932 0.31337
# Poissons Ratio (z) = 0.20145 0.40123
#
# Static dielectric constant tensor:
#      x y z
#    x 4.190310 0.000000 0.000000 
#    y 0.000000 4.299500 0.000000 
#    z 0.000000 0.000000 4.051370 
# 
# 
# High freq. dielectric constant tensor:
#      x y z
#    x 1.937440 0.000000 0.000000 
#    y 0.000000 1.933330 0.000000 
#    z 0.000000 0.000000 1.917290 
# 
# From -- ./inp_files/9773.got.cif
#   From: 2010.06.25/outbox.cif.g09.slc.cpg/sg43_5_cif.got.tgz:9773.got - 2010.06.26 16:48:59.
