data_PCOD8187756
_publ_section_title
;
Structure prediction by ZEFSAII (Michael W. Deem and Ramdas Pophale) SiO2 
 PCOD8187756
Probable space group: F D D 2
;
_chemical_formula_sum "Si O2"
_cell_formula_units_Z 88
_cell_length_a 9.348168
_cell_length_b 20.307741
_cell_length_c 18.550638
_cell_angle_alpha 90.000000
_cell_angle_beta 90.000000
_cell_angle_gamma 90.000000
_cell_volume 3521.656356
_symmetry_space_group_name_H-M "F D D 2"
_symmetry_group_IT_number 43
_symmetry_cell_setting 'orthorhombic'
loop_
_space_group_symop_operation_xyz
x,y,z
-x,-y,z
1/4-x,1/4+y,1/4+z
1/4+x,1/4-y,1/4+z
x,1/2+y,1/2+z
-x,1/2-y,1/2+z
1/4-x,3/4+y,3/4+z
1/4+x,3/4-y,3/4+z
1/2+x,y,1/2+z
1/2-x,-y,1/2+z
3/4-x,1/4+y,3/4+z
3/4+x,1/4-y,3/4+z
1/2+x,1/2+y,z
1/2-x,1/2-y,z
3/4-x,3/4+y,1/4+z
3/4+x,3/4-y,1/4+z
loop_
_atom_site_type_symbol
_atom_site_label
_atom_site_fract_x
_atom_site_fract_y
_atom_site_fract_z
Si Si1 0.007703 0.816344 0.287200
Si Si2 0.997949 0.185524 0.939400
Si Si3 0.727932 0.861088 0.328180
Si Si4 0.000000 0.000000 0.624584
Si Si5 0.669054 0.496749 0.895167
Si Si6 0.624829 0.456871 0.290823
O O1 0.145738 0.791845 0.326287
O O2 0.052285 0.889682 0.258225
O O3 0.874693 0.821385 0.343877
O O4 0.962916 0.761667 0.228043
O O5 0.163057 0.198896 0.922951
O O6 0.910472 0.172473 0.864562
O O7 0.010566 0.119064 0.989221
O O8 0.933884 0.251685 0.973481
O O9 0.736891 0.935099 0.354091
O O10 0.500000 0.500000 0.883235
O O11 0.752065 0.556272 0.852634
O O12 0.500000 0.500000 0.328279
#
# Coordination Sequence:
#
# PCOD8187756 Si02
#       6
#    16  16  16   8  16  16
#     4  12  28  49  74 114 154 205 258 322 395 475
#     4  11  27  49  75 113 148 204 254 321 396 463
#     4  11  24  48  80 104 149 202 254 316 399 470
#     4  12  34  42  72 114 152 202 258 326 368 484
#     4  11  26  47  75 115 147 202 255 322 396 476
#     4  11  24  48  80 107 153 200 257 321 395 477
#
# _framework density 24.988240999999999
#
# number of rings (size 3 to 8) (size 9 to 14) (size 15 to 20)
#    0.000    0.727    5.455    0.000   16.545    0.000 
#    0.000    0.000    0.000    0.000    0.000    0.000 
#    0.000    0.000    0.000    0.000    0.000    0.000 
#
# Total GULP energy -272585.291145 kJ/mol
# GULP energy per Si atom -12390.240507 kJ/mol
# Density = 2.493137 g / cm^3
# Si number density = 24.988241 Si / 1000 Ang^3
#
#
#
# Elastic Constant Matrix: (Units=GPa)
#
#
# Indices 1 2 3 4 5 6 
#
# 1 202.2494 30.0981 70.1556 0.0000 0.0000 0.0000
# 2 30.0981 53.9068 27.4964 0.0000 0.0000 0.0000
# 3 70.1556 27.4964 108.2449 0.0000 0.0000 0.0000
# 4 0.0000 0.0000 0.0000 32.3528 0.0000 0.0000
# 5 0.0000 0.0000 0.0000 0.0000 50.6762 0.0000
# 6 0.0000 0.0000 0.0000 0.0000 0.0000 40.9717
#
#
#
# Elastic Compliance Matrix: (Units=1/GPa)
#
#
# Indices 1 2 3 4 5 6 
#
# 1 0.006512 -0.001704 -0.003788 0.000000 0.000000 0.000000
# 2 -0.001704 0.021758 -0.004423 0.000000 0.000000 0.000000
# 3 -0.003788 -0.004423 0.012817 0.000000 0.000000 0.000000
# 4 0.000000 0.000000 0.000000 0.030909 0.000000 0.000000
# 5 0.000000 0.000000 0.000000 0.000000 0.019733 0.000000
# 6 0.000000 0.000000 0.000000 0.000000 0.000000 0.024407
#
#
# Mechanical properties :
#
#
# Convention : Reuss Voigt Hill
#
# Bulk Modulus (GPa) = 47.04121 68.87793 57.95957
# Shear Modulus (GPa) = 34.95291 40.57685 37.76488
#
# Velocity S-wave (km/s) = 3.74408 4.03406 3.89177
# Velocity P-wave (km/s) = 6.12838 7.02297 6.59087
#
# Compressibility (1/GPa) = 0.02125796
#
# Stress axis : x y z
#
# Youngs Moduli (GPa) = 153.56783 45.96075 78.02399
#
# Poissons Ratio (x) = 0.07831 0.29552
# Poissons Ratio (y) = 0.26165 0.34507
# Poissons Ratio (z) = 0.58165 0.20327
#
# Static dielectric constant tensor:
#      x y z
#    x 4.854150 0.000000 0.000000 
#    y 0.000000 4.498600 0.000000 
#    z 0.000000 0.000000 4.700720 
# 
# 
# High freq. dielectric constant tensor:
#      x y z
#    x 2.014940 0.000000 0.000000 
#    y 0.000000 1.992160 0.000000 
#    z 0.000000 0.000000 1.987820 
# 
# From -- ./inp_files/16395.got.cif
#   From: 2010.06.25/outbox.cif.g09.slc.cpg/sg43_9_cif.got.tgz:16395.got - 2010.06.26 16:48:59.
