data_PCOD8187614
_publ_section_title
;
Structure prediction by ZEFSAII (Michael W. Deem and Ramdas Pophale) SiO2 
 PCOD8187614
Probable space group: F D D 2
;
_chemical_formula_sum "Si O2"
_cell_formula_units_Z 120
_cell_length_a 35.374976
_cell_length_b 10.882530
_cell_length_c 16.731788
_cell_angle_alpha 90.000000
_cell_angle_beta 90.000000
_cell_angle_gamma 90.000000
_cell_volume 6441.223670
_symmetry_space_group_name_H-M "F D D 2"
_symmetry_group_IT_number 43
_symmetry_cell_setting 'orthorhombic'
loop_
_space_group_symop_operation_xyz
x,y,z
-x,-y,z
1/4-x,1/4+y,1/4+z
1/4+x,1/4-y,1/4+z
x,1/2+y,1/2+z
-x,1/2-y,1/2+z
1/4-x,3/4+y,3/4+z
1/4+x,3/4-y,3/4+z
1/2+x,y,1/2+z
1/2-x,-y,1/2+z
3/4-x,1/4+y,3/4+z
3/4+x,1/4-y,3/4+z
1/2+x,1/2+y,z
1/2-x,1/2-y,z
3/4-x,3/4+y,1/4+z
3/4+x,3/4-y,1/4+z
loop_
_atom_site_type_symbol
_atom_site_label
_atom_site_fract_x
_atom_site_fract_y
_atom_site_fract_z
Si Si1 0.633616 0.503970 0.777510
Si Si2 0.094510 0.865053 0.373248
Si Si3 0.810929 0.101332 0.524454
Si Si4 0.559825 0.335499 0.951542
Si Si5 0.588794 0.626044 0.350576
Si Si6 0.131245 0.998064 0.953554
Si Si7 0.000000 0.500000 0.363445
Si Si8 0.664635 0.505979 0.365462
O O1 0.655908 0.597228 0.719489
O O2 0.589006 0.533337 0.772793
O O3 0.637691 0.365143 0.746128
O O4 0.650222 0.525352 0.867010
O O5 0.076807 0.744401 0.337756
O O6 0.138420 0.886161 0.343558
O O7 0.070874 0.988162 0.350433
O O8 0.771267 0.155013 0.554664
O O9 0.808485 0.028656 0.440164
O O10 0.561519 0.207146 0.904802
O O11 0.598429 0.403541 0.931499
O O12 0.525325 0.419280 0.923246
O O13 0.557367 0.301134 0.045501
O O14 0.588455 0.683569 0.261526
O O15 0.632877 0.613940 0.382921
#
# Coordination Sequence:
#
# PCOD8187614 Si02
#       8
#    16  16  16  16  16  16   8  16
#     4  11  19  31  54  86 121 144 183 241 292 339
#     4   9  19  32  59  89 112 139 188 249 309 326
#     4  11  20  37  56  84 114 157 189 232 286 353
#     4  11  20  37  56  84 114 157 189 232 286 353
#     4   9  19  32  59  89 112 139 188 249 309 326
#     4  11  19  31  54  86 121 144 183 241 292 339
#     4  12  24  36  62  68 126 166 196 210 280 364
#     4   8  20  32  64  81 113 136 192 252 298 320
#
# _framework density 18.630001
#
# number of rings (size 3 to 8) (size 9 to 14) (size 15 to 20)
#    0.800    1.067    4.000    0.800    0.000    0.000 
#    0.000    0.667   17.600    0.000    0.000    0.000 
#    0.000    0.000    0.000    0.000    0.000    0.000 
#
# Total GULP energy -371652.700018 kJ/mol
# GULP energy per Si atom -12388.423334 kJ/mol
# Density = 1.858760 g / cm^3
# Si number density = 18.630001 Si / 1000 Ang^3
#
#
#
# Elastic Constant Matrix: (Units=GPa)
#
#
# Indices 1 2 3 4 5 6 
#
# 1 47.2829 19.7788 34.1793 0.0000 0.0000 0.0000
# 2 19.7788 82.5752 41.3638 0.0000 0.0000 0.0000
# 3 34.1793 41.3638 145.6979 0.0000 0.0000 0.0000
# 4 0.0000 0.0000 0.0000 36.8074 0.0000 0.0000
# 5 0.0000 0.0000 0.0000 0.0000 11.3053 0.0000
# 6 0.0000 0.0000 0.0000 0.0000 0.0000 21.2232
#
#
#
# Elastic Compliance Matrix: (Units=1/GPa)
#
#
# Indices 1 2 3 4 5 6 
#
# 1 0.026433 -0.003760 -0.005133 0.000000 0.000000 0.000000
# 2 -0.003760 0.014653 -0.003278 0.000000 0.000000 0.000000
# 3 -0.005133 -0.003278 0.008998 0.000000 0.000000 0.000000
# 4 0.000000 0.000000 0.000000 0.027168 0.000000 0.000000
# 5 0.000000 0.000000 0.000000 0.000000 0.088454 0.000000
# 6 0.000000 0.000000 0.000000 0.000000 0.000000 0.047118
#
#
# Mechanical properties :
#
#
# Convention : Reuss Voigt Hill
#
# Bulk Modulus (GPa) = 38.84769 51.79996 45.32383
# Shear Modulus (GPa) = 20.34608 25.88279 23.11444
#
# Velocity S-wave (km/s) = 3.30830 3.73138 3.52619
# Velocity P-wave (km/s) = 5.95740 6.81390 6.40000
#
# Compressibility (1/GPa) = 0.02574156
#
# Stress axis : x y z
#
# Youngs Moduli (GPa) = 37.83162 68.24663 111.13116
#
# Poissons Ratio (x) = 0.25660 0.57049
# Poissons Ratio (y) = 0.14224 0.36428
# Poissons Ratio (z) = 0.19421 0.22371
#
# Static dielectric constant tensor:
#      x y z
#    x 2.860930 0.000000 0.000000 
#    y 0.000000 3.546980 0.000000 
#    z 0.000000 0.000000 3.650280 
# 
# 
# High freq. dielectric constant tensor:
#      x y z
#    x 1.646960 0.000000 0.000000 
#    y 0.000000 1.739320 0.000000 
#    z 0.000000 0.000000 1.735750 
# 
# From -- ./inp_files/15280.got.cif
#   From: 2010.06.25/outbox.cif.g09.slc.cpg/sg43_8_cif.got.tgz:15280.got - 2010.06.26 16:48:59.
