data_PCOD8187135
_publ_section_title
;
Structure prediction by ZEFSAII (Michael W. Deem and Ramdas Pophale) SiO2 
 PCOD8187135
Probable space group: F D D 2
;
_chemical_formula_sum "Si O2"
_cell_formula_units_Z 72
_cell_length_a 22.210904
_cell_length_b 15.255663
_cell_length_c 9.397573
_cell_angle_alpha 90.000000
_cell_angle_beta 90.000000
_cell_angle_gamma 90.000000
_cell_volume 3184.293054
_symmetry_space_group_name_H-M "F D D 2"
_symmetry_group_IT_number 43
_symmetry_cell_setting 'orthorhombic'
loop_
_space_group_symop_operation_xyz
x,y,z
-x,-y,z
1/4-x,1/4+y,1/4+z
1/4+x,1/4-y,1/4+z
x,1/2+y,1/2+z
-x,1/2-y,1/2+z
1/4-x,3/4+y,3/4+z
1/4+x,3/4-y,3/4+z
1/2+x,y,1/2+z
1/2-x,-y,1/2+z
3/4-x,1/4+y,3/4+z
3/4+x,1/4-y,3/4+z
1/2+x,1/2+y,z
1/2-x,1/2-y,z
3/4-x,3/4+y,1/4+z
3/4+x,3/4-y,1/4+z
loop_
_atom_site_type_symbol
_atom_site_label
_atom_site_fract_x
_atom_site_fract_y
_atom_site_fract_z
Si Si1 0.448105 0.753232 0.943760
Si Si2 0.750000 0.750000 0.304973
Si Si3 0.085673 0.123392 0.200507
Si Si4 0.015085 0.645572 0.220163
Si Si5 0.669534 0.230468 0.546004
O O1 0.389181 0.695590 0.969152
O O2 0.427074 0.836146 0.852993
O O3 0.501293 0.701880 0.861507
O O4 0.473642 0.788032 0.092749
O O5 0.726320 0.828521 0.402755
O O6 0.697301 0.714358 0.203887
O O7 0.101809 0.196440 0.075913
O O8 0.956985 0.582807 0.188333
O O9 0.073589 0.582165 0.248529
#
# Coordination Sequence:
#
# PCOD8187135 Si02
#       5
#    16   8  16  16  16
#     4  11  24  41  68 104 134 179 226 290 343 411
#     4  10  20  40  70  92 130 186 214 286 330 414
#     4  11  23  41  67  97 137 177 229 268 354 405
#     4   9  22  41  67  93 133 169 228 278 342 397
#     4   9  21  46  64  92 134 179 230 266 348 407
#
# _framework density 22.610984999999999
#
# number of rings (size 3 to 8) (size 9 to 14) (size 15 to 20)
#    0.000    2.222    2.222    0.000    9.333    1.778 
#    8.000    2.222    0.000    0.000    0.000    0.000 
#    0.000    0.000    0.000    0.000    0.000    0.000 
#
# Total GULP energy -223048.647573 kJ/mol
# GULP energy per Si atom -12391.591532 kJ/mol
# Density = 2.255952 g / cm^3
# Si number density = 22.610985 Si / 1000 Ang^3
#
#
#
# Elastic Constant Matrix: (Units=GPa)
#
#
# Indices 1 2 3 4 5 6 
#
# 1 46.0815 40.1066 20.2999 0.0000 0.0000 0.0000
# 2 40.1066 141.5390 64.4707 0.0000 0.0000 0.0000
# 3 20.2999 64.4707 82.7075 0.0000 0.0000 0.0000
# 4 0.0000 0.0000 0.0000 50.1085 0.0000 0.0000
# 5 0.0000 0.0000 0.0000 0.0000 12.8215 0.0000
# 6 0.0000 0.0000 0.0000 0.0000 0.0000 39.6666
#
#
#
# Elastic Compliance Matrix: (Units=1/GPa)
#
#
# Indices 1 2 3 4 5 6 
#
# 1 0.028869 -0.007680 -0.001099 0.000000 0.000000 0.000000
# 2 -0.007680 0.012998 -0.008247 0.000000 0.000000 0.000000
# 3 -0.001099 -0.008247 0.018789 0.000000 0.000000 0.000000
# 4 0.000000 0.000000 0.000000 0.019957 0.000000 0.000000
# 5 0.000000 0.000000 0.000000 0.000000 0.077994 0.000000
# 6 0.000000 0.000000 0.000000 0.000000 0.000000 0.025210
#
#
# Mechanical properties :
#
#
# Convention : Reuss Voigt Hill
#
# Bulk Modulus (GPa) = 37.58831 57.78693 47.68762
# Shear Modulus (GPa) = 22.05206 30.21603 26.13405
#
# Velocity S-wave (km/s) = 3.12634 3.65957 3.40341
# Velocity P-wave (km/s) = 5.44903 6.59311 6.04818
#
# Compressibility (1/GPa) = 0.02660401
#
# Stress axis : x y z
#
# Youngs Moduli (GPa) = 34.63950 76.93675 53.22236
#
# Poissons Ratio (x) = 0.59084 0.05851
# Poissons Ratio (y) = 0.26601 0.43892
# Poissons Ratio (z) = 0.03808 0.63449
#
# Static dielectric constant tensor:
#      x y z
#    x 4.147300 0.000000 0.000000 
#    y 0.000000 4.398430 0.000000 
#    z 0.000000 0.000000 3.761770 
# 
# 
# High freq. dielectric constant tensor:
#      x y z
#    x 1.877730 0.000000 0.000000 
#    y 0.000000 1.912780 0.000000 
#    z 0.000000 0.000000 1.860600 
# 
# From -- ./inp_files/4102.got.cif
#   From: 2010.06.25/outbox.cif.g09.slc.cpg/sg43_3_cif.got.tgz:4102.got - 2010.06.26 16:48:59.
