data_PCOD8187737
_publ_section_title
;
Structure prediction by ZEFSAII (Michael W. Deem and Ramdas Pophale) SiO2 
 PCOD8187737
Probable space group: F D D 2
;
_chemical_formula_sum "Si O2"
_cell_formula_units_Z 72
_cell_length_a 23.891681
_cell_length_b 14.238365
_cell_length_c 9.076291
_cell_angle_alpha 90.000000
_cell_angle_beta 90.000000
_cell_angle_gamma 90.000000
_cell_volume 3087.558827
_symmetry_space_group_name_H-M "F D D 2"
_symmetry_group_IT_number 43
_symmetry_cell_setting 'orthorhombic'
loop_
_space_group_symop_operation_xyz
x,y,z
-x,-y,z
1/4-x,1/4+y,1/4+z
1/4+x,1/4-y,1/4+z
x,1/2+y,1/2+z
-x,1/2-y,1/2+z
1/4-x,3/4+y,3/4+z
1/4+x,3/4-y,3/4+z
1/2+x,y,1/2+z
1/2-x,-y,1/2+z
3/4-x,1/4+y,3/4+z
3/4+x,1/4-y,3/4+z
1/2+x,1/2+y,z
1/2-x,1/2-y,z
3/4-x,3/4+y,1/4+z
3/4+x,3/4-y,1/4+z
loop_
_atom_site_type_symbol
_atom_site_label
_atom_site_fract_x
_atom_site_fract_y
_atom_site_fract_z
Si Si1 0.674453 0.136881 0.920250
Si Si2 0.832570 0.241167 0.457323
Si Si3 0.317630 0.554856 0.278438
Si Si4 0.555004 0.843432 0.989768
Si Si5 0.500000 0.000000 0.461891
O O1 0.724821 0.169360 0.816131
O O2 0.665648 0.026155 0.893269
O O3 0.614655 0.191988 0.896582
O O4 0.688938 0.155254 0.091637
O O5 0.818880 0.156427 0.350475
O O6 0.812164 0.338708 0.382655
O O7 0.898686 0.239724 0.494880
O O8 0.800670 0.217911 0.608581
O O9 0.254184 0.539788 0.225799
#
# Coordination Sequence:
#
# PCOD8187737 Si02
#       5
#    16  16  16  16   8
#     4  11  28  42  75 105 143 185 249 290 366 424
#     4  11  24  46  73 104 142 190 241 300 366 420
#     4  11  24  47  71 101 142 193 236 288 364 427
#     4  11  24  45  78  98 147 191 241 294 364 431
#     4  12  28  44  68 112 146 180 244 308 354 430
#
# _framework density 23.319395
#
# number of rings (size 3 to 8) (size 9 to 14) (size 15 to 20)
#    0.000    0.889    2.222    5.333   12.444    3.556 
#    0.000    0.000    0.000    0.000    0.000    0.000 
#    0.000    0.000    0.000    0.000    0.000    0.000 
#
# Total GULP energy -223051.443293 kJ/mol
# GULP energy per Si atom -12391.746850 kJ/mol
# Density = 2.326632 g / cm^3
# Si number density = 23.319395 Si / 1000 Ang^3
#
#
#
# Elastic Constant Matrix: (Units=GPa)
#
#
# Indices 1 2 3 4 5 6 
#
# 1 212.6977 32.1600 63.6975 0.0000 0.0000 0.0000
# 2 32.1600 69.9626 23.8377 0.0000 0.0000 0.0000
# 3 63.6975 23.8377 102.2799 0.0000 0.0000 0.0000
# 4 0.0000 0.0000 0.0000 23.8286 0.0000 0.0000
# 5 0.0000 0.0000 0.0000 0.0000 46.6198 0.0000
# 6 0.0000 0.0000 0.0000 0.0000 0.0000 31.7259
#
#
#
# Elastic Compliance Matrix: (Units=1/GPa)
#
#
# Indices 1 2 3 4 5 6 
#
# 1 0.005939 -0.001597 -0.003327 0.000000 0.000000 0.000000
# 2 -0.001597 0.015956 -0.002724 0.000000 0.000000 0.000000
# 3 -0.003327 -0.002724 0.012484 0.000000 0.000000 0.000000
# 4 0.000000 0.000000 0.000000 0.041966 0.000000 0.000000
# 5 0.000000 0.000000 0.000000 0.000000 0.021450 0.000000
# 6 0.000000 0.000000 0.000000 0.000000 0.000000 0.031520
#
#
# Mechanical properties :
#
#
# Convention : Reuss Voigt Hill
#
# Bulk Modulus (GPa) = 52.40186 69.37005 60.88596
# Shear Modulus (GPa) = 33.11888 38.11785 35.61837
#
# Velocity S-wave (km/s) = 3.77268 4.04740 3.91245
# Velocity P-wave (km/s) = 6.44187 7.18710 6.82466
#
# Compressibility (1/GPa) = 0.01908329
#
# Stress axis : x y z
#
# Youngs Moduli (GPa) = 168.37377 62.67430 80.10385
#
# Poissons Ratio (x) = 0.10007 0.26648
# Poissons Ratio (y) = 0.26883 0.21823
# Poissons Ratio (z) = 0.56012 0.17074
#
# Static dielectric constant tensor:
#      x y z
#    x 5.215080 0.000000 0.000000 
#    y 0.000000 3.769410 0.000000 
#    z 0.000000 0.000000 4.142840 
# 
# 
# High freq. dielectric constant tensor:
#      x y z
#    x 1.954460 0.000000 0.000000 
#    y 0.000000 1.899760 0.000000 
#    z 0.000000 0.000000 1.908120 
# 
# From -- ./inp_files/2321.got.cif
#   From: 2010.06.25/outbox.cif.g09.slc.cpg/sg43_2_cif.got.tgz:2321.got - 2010.06.26 16:48:59.
