data_PCOD8187230
_publ_section_title
;
Structure prediction by ZEFSAII (Michael W. Deem and Ramdas Pophale) SiO2 
 PCOD8187230
Probable space group: F D D 2
;
_chemical_formula_sum "Si O2"
_cell_formula_units_Z 120
_cell_length_a 17.393496
_cell_length_b 12.317002
_cell_length_c 24.040608
_cell_angle_alpha 90.000000
_cell_angle_beta 90.000000
_cell_angle_gamma 90.000000
_cell_volume 5150.357085
_symmetry_space_group_name_H-M "F D D 2"
_symmetry_group_IT_number 43
_symmetry_cell_setting 'orthorhombic'
loop_
_space_group_symop_operation_xyz
x,y,z
-x,-y,z
1/4-x,1/4+y,1/4+z
1/4+x,1/4-y,1/4+z
x,1/2+y,1/2+z
-x,1/2-y,1/2+z
1/4-x,3/4+y,3/4+z
1/4+x,3/4-y,3/4+z
1/2+x,y,1/2+z
1/2-x,-y,1/2+z
3/4-x,1/4+y,3/4+z
3/4+x,1/4-y,3/4+z
1/2+x,1/2+y,z
1/2-x,1/2-y,z
3/4-x,3/4+y,1/4+z
3/4+x,3/4-y,1/4+z
loop_
_atom_site_type_symbol
_atom_site_label
_atom_site_fract_x
_atom_site_fract_y
_atom_site_fract_z
Si Si1 0.247606 0.982415 0.613980
Si Si2 0.051111 0.314075 0.594091
Si Si3 0.612101 0.371688 0.302172
Si Si4 0.905602 0.773687 0.026631
Si Si5 0.000000 0.000000 0.840807
Si Si6 0.497022 0.881193 0.706254
Si Si7 0.508120 0.619193 0.461985
Si Si8 0.629191 0.488499 0.021399
O O1 0.162326 0.029207 0.597324
O O2 0.289413 0.052688 0.662565
O O3 0.298828 0.981178 0.559299
O O4 0.244964 0.855275 0.631275
O O5 0.121494 0.232572 0.584422
O O6 0.045370 0.315415 0.660812
O O7 0.067694 0.423355 0.558810
O O8 0.968644 0.269450 0.575226
O O9 0.538396 0.390801 0.264836
O O10 0.685359 0.346417 0.263767
O O11 0.823300 0.742346 0.050431
O O12 0.905466 0.896094 0.000188
O O13 0.930180 0.681680 0.981527
O O14 0.411499 0.831776 0.718506
O O15 0.500000 0.000000 0.678831
O O16 0.500000 0.500000 0.435251
#
# Coordination Sequence:
#
# PCOD8187230 Si02
#       8
#    16  16  16  16   8  16  16  16
#     4  10  23  40  70  96 131 183 219 282 353 407
#     4  11  22  39  65  98 141 174 230 291 349 415
#     4  10  23  41  61 102 135 173 228 291 336 427
#     4  10  23  43  64  93 130 184 223 288 342 415
#     4  10  22  48  66  88 136 172 230 274 342 428
#     4  11  21  36  64  96 136 187 225 286 361 407
#     4  11  24  41  67  98 132 176 227 278 353 415
#     4  10  21  40  62  96 135 172 233 284 339 427
#
# _framework density 23.299356
#
# number of rings (size 3 to 8) (size 9 to 14) (size 15 to 20)
#    0.000    1.600    1.333    2.800    3.733    2.133 
#    4.800    0.000    0.000    0.000    0.000    0.000 
#    0.000    0.000    0.000    0.000    0.000    0.000 
#
# Total GULP energy -371698.177749 kJ/mol
# GULP energy per Si atom -12389.939258 kJ/mol
# Density = 2.324633 g / cm^3
# Si number density = 23.299356 Si / 1000 Ang^3
#
#
#
# Elastic Constant Matrix: (Units=GPa)
#
#
# Indices 1 2 3 4 5 6 
#
# 1 90.4800 33.8825 16.6697 0.0000 0.0000 0.0000
# 2 33.8825 178.9167 43.2888 0.0000 0.0000 0.0000
# 3 16.6697 43.2888 85.1834 0.0000 0.0000 0.0000
# 4 0.0000 0.0000 0.0000 20.5734 0.0000 0.0000
# 5 0.0000 0.0000 0.0000 0.0000 21.3584 0.0000
# 6 0.0000 0.0000 0.0000 0.0000 0.0000 34.4884
#
#
#
# Elastic Compliance Matrix: (Units=1/GPa)
#
#
# Indices 1 2 3 4 5 6 
#
# 1 0.012033 -0.001949 -0.001365 0.000000 0.000000 0.000000
# 2 -0.001949 0.006688 -0.003018 0.000000 0.000000 0.000000
# 3 -0.001365 -0.003018 0.013540 0.000000 0.000000 0.000000
# 4 0.000000 0.000000 0.000000 0.048606 0.000000 0.000000
# 5 0.000000 0.000000 0.000000 0.000000 0.046820 0.000000
# 6 0.000000 0.000000 0.000000 0.000000 0.000000 0.028995
#
#
# Mechanical properties :
#
#
# Convention : Reuss Voigt Hill
#
# Bulk Modulus (GPa) = 51.02050 60.25136 55.63593
# Shear Modulus (GPa) = 28.42880 32.66664 30.54772
#
# Velocity S-wave (km/s) = 3.49686 3.74845 3.62484
# Velocity P-wave (km/s) = 6.18461 6.68209 6.43815
#
# Compressibility (1/GPa) = 0.01959996
#
# Stress axis : x y z
#
# Youngs Moduli (GPa) = 83.10273 149.51432 73.85588
#
# Poissons Ratio (x) = 0.29135 0.10078
# Poissons Ratio (y) = 0.16194 0.22286
# Poissons Ratio (z) = 0.11340 0.45117
#
# Static dielectric constant tensor:
#      x y z
#    x 4.086320 0.000000 0.000000 
#    y 0.000000 4.780680 0.000000 
#    z 0.000000 0.000000 3.931020 
# 
# 
# High freq. dielectric constant tensor:
#      x y z
#    x 1.916720 0.000000 0.000000 
#    y 0.000000 1.932220 0.000000 
#    z 0.000000 0.000000 1.902070 
# 
# From -- ./inp_files/26093.got.cif
#   From: 2010.06.25/outbox.cif.g09.slc.cpg/sg43_14_cif.got.tgz:26093.got - 2010.06.26 16:48:59.
