data_PCOD8187023
_publ_section_title
;
Structure prediction by ZEFSAII (Michael W. Deem and Ramdas Pophale) SiO2 
 PCOD8187023
Probable space group: F D D 2
;
_chemical_formula_sum "Si O2"
_cell_formula_units_Z 120
_cell_length_a 12.519711
_cell_length_b 20.679460
_cell_length_c 24.983276
_cell_angle_alpha 90.000000
_cell_angle_beta 90.000000
_cell_angle_gamma 90.000000
_cell_volume 6468.191713
_symmetry_space_group_name_H-M "F D D 2"
_symmetry_group_IT_number 43
_symmetry_cell_setting 'orthorhombic'
loop_
_space_group_symop_operation_xyz
x,y,z
-x,-y,z
1/4-x,1/4+y,1/4+z
1/4+x,1/4-y,1/4+z
x,1/2+y,1/2+z
-x,1/2-y,1/2+z
1/4-x,3/4+y,3/4+z
1/4+x,3/4-y,3/4+z
1/2+x,y,1/2+z
1/2-x,-y,1/2+z
3/4-x,1/4+y,3/4+z
3/4+x,1/4-y,3/4+z
1/2+x,1/2+y,z
1/2-x,1/2-y,z
3/4-x,3/4+y,1/4+z
3/4+x,3/4-y,1/4+z
loop_
_atom_site_type_symbol
_atom_site_label
_atom_site_fract_x
_atom_site_fract_y
_atom_site_fract_z
Si Si1 0.581629 0.089101 0.853860
Si Si2 0.517441 0.384091 0.016570
Si Si3 0.893934 0.077483 0.196550
Si Si4 0.133295 0.040604 0.851245
Si Si5 0.500000 0.000000 0.447442
Si Si6 0.325944 0.850014 0.576772
Si Si7 0.111657 0.193881 0.569644
Si Si8 0.114389 0.312510 0.427920
O O1 0.662072 0.134372 0.820429
O O2 0.596265 0.109380 0.916335
O O3 0.457112 0.102477 0.839932
O O4 0.610092 0.015733 0.839439
O O5 0.390052 0.387828 0.030312
O O6 0.556072 0.447277 0.984671
O O7 0.536963 0.322012 0.979025
O O8 0.848742 0.066889 0.256191
O O9 0.020669 0.084927 0.199644
O O10 0.862942 0.013182 0.162403
O O11 0.248190 0.075148 0.846786
O O12 0.087667 0.037881 0.911643
O O13 0.047390 0.080902 0.814760
O O14 0.144197 0.966118 0.833071
O O15 0.325897 0.893745 0.629408
#
# Coordination Sequence:
#
# PCOD8187023 Si02
#       8
#    16  16  16  16   8  16  16  16
#     4  11  22  34  60  88 115 151 197 248 292 359
#     4  12  19  36  56  89 115 144 195 248 305 341
#     4  11  21  33  56  90 113 150 196 241 300 352
#     4  10  19  39  54  77 113 152 197 226 288 360
#     4  10  24  32  60  92 108 152 194 248 296 342
#     4  10  20  32  56  81 109 149 183 248 286 349
#     4  11  21  39  59  80 116 160 193 237 299 351
#     4  11  18  33  55  82 119 143 184 248 300 340
#
# _framework density 18.552326999999998
#
# number of rings (size 3 to 8) (size 9 to 14) (size 15 to 20)
#    0.000    1.333    8.000    0.800    1.867    0.000 
#    2.400    0.000    0.000    0.800    0.000    0.000 
#    0.000    0.000    0.000    0.000    0.000    0.000 
#
# Total GULP energy -371729.796627 kJ/mol
# GULP energy per Si atom -12390.993221 kJ/mol
# Density = 1.851010 g / cm^3
# Si number density = 18.552327 Si / 1000 Ang^3
#
#
#
# Elastic Constant Matrix: (Units=GPa)
#
#
# Indices 1 2 3 4 5 6 
#
# 1 125.2207 23.2103 43.2976 0.0000 0.0000 0.0000
# 2 23.2103 50.3621 39.4177 0.0000 0.0000 0.0000
# 3 43.2976 39.4177 97.5417 0.0000 0.0000 0.0000
# 4 0.0000 0.0000 0.0000 28.9389 0.0000 0.0000
# 5 0.0000 0.0000 0.0000 0.0000 21.9525 0.0000
# 6 0.0000 0.0000 0.0000 0.0000 0.0000 16.6582
#
#
#
# Elastic Compliance Matrix: (Units=1/GPa)
#
#
# Indices 1 2 3 4 5 6 
#
# 1 0.009519 -0.001579 -0.003587 0.000000 0.000000 0.000000
# 2 -0.001579 0.029304 -0.011141 0.000000 0.000000 0.000000
# 3 -0.003587 -0.011141 0.016346 0.000000 0.000000 0.000000
# 4 0.000000 0.000000 0.000000 0.034556 0.000000 0.000000
# 5 0.000000 0.000000 0.000000 0.000000 0.045553 0.000000
# 6 0.000000 0.000000 0.000000 0.000000 0.000000 0.060031
#
#
# Mechanical properties :
#
#
# Convention : Reuss Voigt Hill
#
# Bulk Modulus (GPa) = 44.33717 53.88620 49.11168
# Shear Modulus (GPa) = 21.23669 24.65651 22.94660
#
# Velocity S-wave (km/s) = 3.38700 3.64953 3.52072
# Velocity P-wave (km/s) = 6.26466 6.84598 6.56176
#
# Compressibility (1/GPa) = 0.02255444
#
# Stress axis : x y z
#
# Youngs Moduli (GPa) = 105.05349 34.12510 61.17528
#
# Poissons Ratio (x) = 0.05390 0.21944
# Poissons Ratio (y) = 0.16592 0.68155
# Poissons Ratio (z) = 0.37684 0.38019
#
# Static dielectric constant tensor:
#      x y z
#    x 3.583250 0.000000 0.000000 
#    y 0.000000 3.328180 0.000000 
#    z 0.000000 0.000000 3.354250 
# 
# 
# High freq. dielectric constant tensor:
#      x y z
#    x 1.713850 0.000000 0.000000 
#    y 0.000000 1.699520 0.000000 
#    z 0.000000 0.000000 1.709150 
# 
# From -- ./inp_files/21247.got.cif
#   From: 2010.06.25/outbox.cif.g09.slc.cpg/sg43_11_cif.got.tgz:21247.got - 2010.06.26 16:48:59.
