data_PCOD8187927
_publ_section_title
;
Structure prediction by ZEFSAII (Michael W. Deem and Ramdas Pophale) SiO2 
 PCOD8187927
Probable space group: I M M 2
;
_chemical_formula_sum "Si O2"
_cell_formula_units_Z 64
_cell_length_a 8.893327
_cell_length_b 23.580425
_cell_length_c 19.093360
_cell_angle_alpha 90.000000
_cell_angle_beta 90.000000
_cell_angle_gamma 90.000000
_cell_volume 4004.038555
_symmetry_space_group_name_H-M "I M M 2"
_symmetry_group_IT_number 44
_symmetry_cell_setting 'orthorhombic'
loop_
_space_group_symop_operation_xyz
x,y,z
-x,-y,z
-x,y,z
x,-y,z
1/2+x,1/2+y,1/2+z
1/2-x,1/2-y,1/2+z
1/2-x,1/2+y,1/2+z
1/2+x,1/2-y,1/2+z
loop_
_atom_site_type_symbol
_atom_site_label
_atom_site_fract_x
_atom_site_fract_y
_atom_site_fract_z
Si Si1 0.322329 0.437580 0.704020
Si Si2 0.822423 0.937093 0.487219
Si Si3 0.677176 0.378088 0.847012
Si Si4 0.323877 0.668526 0.624320
Si Si5 0.176527 0.837326 0.584006
Si Si6 0.822146 0.721240 0.206865
Si Si7 0.175518 0.743624 0.841455
Si Si8 0.825368 0.759713 0.998488
O O1 0.500000 0.441298 0.694855
O O2 0.251740 0.500000 0.689873
O O3 0.282226 0.418762 0.782523
O O4 0.253096 0.391693 0.648658
O O5 0.759150 0.908262 0.416584
O O6 0.780160 0.899468 0.554793
O O7 0.000000 0.941388 0.478665
O O8 0.752790 0.000000 0.496706
O O9 0.500000 0.365584 0.851216
O O10 0.759569 0.319013 0.836582
O O11 0.500000 0.664221 0.637081
O O12 0.264637 0.719478 0.673491
O O13 0.285603 0.683475 0.543356
O O14 0.261280 0.829297 0.657700
O O15 0.225987 0.792256 0.525334
O O16 0.000000 0.830910 0.596342
O O17 0.754005 0.715767 0.284455
O O18 0.000000 0.716869 0.210817
O O19 0.000000 0.741284 0.825879
O O20 0.209528 0.771213 0.917352
O O21 0.000000 0.743521 0.010860
#
# Coordination Sequence:
#
# PCOD8187927 Si02
#       8
#     8   8   8   8   8   8   8   8
#     4   9  15  23  41  67  89 113 152 190 216 258
#     4   9  17  28  44  67  95 127 161 194 227 269
#     4  10  17  28  43  64  93 125 158 187 221 264
#     4   8  14  26  42  61  84 112 143 177 223 267
#     4  10  18  29  47  70  92 117 155 197 232 272
#     4  10  19  32  48  64  89 121 151 188 239 287
#     4  11  20  29  44  67  92 121 157 192 231 273
#     4   9  18  30  44  62  91 124 150 186 234 278
#
# _framework density 15.983862
#
# number of rings (size 3 to 8) (size 9 to 14) (size 15 to 20)
#    0.000    2.500    2.500    2.250    0.000    2.000 
#    0.000    0.000    0.000    4.500    0.000    0.875 
#    0.000    5.000    0.000    0.000    0.000    0.000 
#
# Total GULP energy -396650.003885 kJ/mol
# GULP energy per Si atom -12395.312621 kJ/mol
# Density = 1.594748 g / cm^3
# Si number density = 15.983862 Si / 1000 Ang^3
#
#
#
# Elastic Constant Matrix: (Units=GPa)
#
#
# Indices 1 2 3 4 5 6 
#
# 1 45.7418 22.3497 37.9839 0.0000 0.0000 0.0000
# 2 22.3497 80.2494 55.1722 0.0000 0.0000 0.0000
# 3 37.9839 55.1722 122.7944 -0.0001 0.0000 0.0000
# 4 0.0000 0.0000 -0.0001 22.9741 0.0000 0.0000
# 5 0.0000 0.0000 0.0000 0.0000 20.8627 0.0000
# 6 0.0000 0.0000 0.0000 0.0000 0.0000 14.4632
#
#
#
# Elastic Compliance Matrix: (Units=1/GPa)
#
#
# Indices 1 2 3 4 5 6 
#
# 1 0.029861 -0.002845 -0.007959 0.000000 0.000000 0.000000
# 2 -0.002845 0.018302 -0.007343 0.000000 0.000000 0.000000
# 3 -0.007959 -0.007343 0.013905 0.000000 0.000000 0.000000
# 4 0.000000 0.000000 0.000000 0.043527 0.000000 0.000000
# 5 0.000000 0.000000 0.000000 0.000000 0.047932 0.000000
# 6 0.000000 0.000000 0.000000 0.000000 0.000000 0.069141
#
#
# Mechanical properties :
#
#
# Convention : Reuss Voigt Hill
#
# Bulk Modulus (GPa) = 38.79818 53.31080 46.05449
# Shear Modulus (GPa) = 18.68793 20.54533 19.61663
#
# Velocity S-wave (km/s) = 3.42303 3.58911 3.50705
# Velocity P-wave (km/s) = 6.32051 7.11343 6.72866
#
# Compressibility (1/GPa) = 0.02577440
#
# Stress axis : x y z
#
# Youngs Moduli (GPa) = 33.48895 54.63902 71.91711
#
# Poissons Ratio (x) = 0.15543 0.57236
# Poissons Ratio (y) = 0.09526 0.52810
# Poissons Ratio (z) = 0.26653 0.40123
#
# Static dielectric constant tensor:
#      x y z
#    x 2.805780 0.000000 0.000000 
#    y 0.000000 3.181250 0.000000 
#    z 0.000000 0.000000 3.238930 
# 
# 
# High freq. dielectric constant tensor:
#      x y z
#    x 1.589270 0.000000 0.000000 
#    y 0.000000 1.589710 0.000000 
#    z 0.000000 0.000000 1.614950 
# 
# From -- ./inp_files/20852.got.cif
#   From: 2010.03.12/outbox.cif.g09.slc.cpg/sg44_11_cif.got.tgz:20852.got - 2010.04.14 02:36:11.
