data_PCOD8187790
_publ_section_title
;
Structure prediction by ZEFSAII (Michael W. Deem and Ramdas Pophale) SiO2 
 PCOD8187790
Probable space group: F D D 2
;
_chemical_formula_sum "Si O2"
_cell_formula_units_Z 64
_cell_length_a 13.443357
_cell_length_b 12.505710
_cell_length_c 14.386569
_cell_angle_alpha 90.000000
_cell_angle_beta 90.000000
_cell_angle_gamma 90.000000
_cell_volume 2418.651624
_symmetry_space_group_name_H-M "F D D 2"
_symmetry_group_IT_number 43
_symmetry_cell_setting 'orthorhombic'
loop_
_space_group_symop_operation_xyz
x,y,z
-x,-y,z
1/4-x,1/4+y,1/4+z
1/4+x,1/4-y,1/4+z
x,1/2+y,1/2+z
-x,1/2-y,1/2+z
1/4-x,3/4+y,3/4+z
1/4+x,3/4-y,3/4+z
1/2+x,y,1/2+z
1/2-x,-y,1/2+z
3/4-x,1/4+y,3/4+z
3/4+x,1/4-y,3/4+z
1/2+x,1/2+y,z
1/2-x,1/2-y,z
3/4-x,3/4+y,1/4+z
3/4+x,3/4-y,1/4+z
loop_
_atom_site_type_symbol
_atom_site_label
_atom_site_fract_x
_atom_site_fract_y
_atom_site_fract_z
Si Si1 0.917821 0.756106 0.006130
Si Si2 0.516160 0.612060 0.280058
Si Si3 0.686019 0.849438 0.843052
Si Si4 0.666267 0.568297 0.125329
O O1 0.836109 0.835742 0.050142
O O2 0.992667 0.703822 0.082661
O O3 0.859480 0.664504 0.947426
O O4 0.983882 0.829679 0.936545
O O5 0.500000 0.500000 0.338240
O O6 0.402786 0.652253 0.267084
O O7 0.565217 0.579884 0.182925
O O8 0.584474 0.700048 0.330299
O O9 0.750000 0.750000 0.813727
#
# Coordination Sequence:
#
# PCOD8187790 Si02
#       4
#    16  16  16  16
#     4  11  28  52  81 116 164 215 279 338 407 493
#     4  11  26  52  80 117 161 213 276 342 416 496
#     4  11  28  50  78 117 164 219 269 339 416 489
#     4  11  28  50  84 117 160 215 276 340 408 491
#
# _framework density 26.461023000000001
#
# number of rings (size 3 to 8) (size 9 to 14) (size 15 to 20)
#    0.000    1.000    2.500    0.000   10.500    6.000 
#    4.500    0.000    0.000    0.000    0.000    0.000 
#    0.000    0.000    0.000    0.000    0.000    0.000 
#
# Total GULP energy -198279.859408 kJ/mol
# GULP energy per Si atom -12392.491213 kJ/mol
# Density = 2.640080 g / cm^3
# Si number density = 26.461023 Si / 1000 Ang^3
#
#
#
# Elastic Constant Matrix: (Units=GPa)
#
#
# Indices 1 2 3 4 5 6 
#
# 1 140.0976 76.1815 53.2692 0.0000 0.0000 0.0000
# 2 76.1815 170.4175 76.9526 0.0000 0.0000 0.0000
# 3 53.2692 76.9526 97.8319 0.0000 0.0000 0.0000
# 4 0.0000 0.0000 0.0000 28.9590 0.0000 0.0000
# 5 0.0000 0.0000 0.0000 0.0000 -214.4941 0.0000
# 6 0.0000 0.0000 0.0000 0.0000 0.0000 68.5205
#
#
#
# Elastic Compliance Matrix: (Units=1/GPa)
#
#
# Indices 1 2 3 4 5 6 
#
# 1 0.009960 -0.003107 -0.002979 0.000000 0.000000 0.000000
# 2 -0.003107 0.010070 -0.006229 0.000000 0.000000 0.000000
# 3 -0.002979 -0.006229 0.016743 0.000000 0.000000 0.000000
# 4 0.000000 0.000000 0.000000 0.034532 0.000000 0.000000
# 5 0.000000 0.000000 0.000000 0.000000 -0.004662 0.000000
# 6 0.000000 0.000000 0.000000 0.000000 0.000000 0.014594
#
#
# Mechanical properties :
#
#
# Convention : Reuss Voigt Hill
#
# Bulk Modulus (GPa) = 82.35383 91.23929 86.79656
# Shear Modulus (GPa) = 45.48997 -9.94001 17.77498
#
# Velocity S-wave (km/s) = 4.15074 -1.94026 2.59461
# Velocity P-wave (km/s) = 7.35947 5.43470 6.46907
#
# Compressibility (1/GPa) = 0.01214273
#
# Stress axis : x y z
#
# Youngs Moduli (GPa) = 100.39827 99.30962 59.72608
#
# Poissons Ratio (x) = 0.30858 0.17794
# Poissons Ratio (y) = 0.31196 0.37201
# Poissons Ratio (z) = 0.29911 0.61856
#
# Static dielectric constant tensor:
#      x y z
#    x 8.152300 0.000000 0.000000 
#    y 0.000000 5.036260 0.000000 
#    z 0.000000 0.000000 4.535430 
# 
# 
# High freq. dielectric constant tensor:
#      x y z
#    x 2.081130 0.000000 0.000000 
#    y 0.000000 2.068140 0.000000 
#    z 0.000000 0.000000 2.035000 
# 
# From -- ./inp_files/13691.got.cif
#   From: 2010.06.25/outbox.cif.g09.slc.cpg/sg43_7_cif.got.tgz:13691.got - 2010.06.26 16:48:59.
