data_PCOD8187481
_publ_section_title
;
Structure prediction by ZEFSAII (Michael W. Deem and Ramdas Pophale) SiO2 
 PCOD8187481
Probable space group: F D D 2
;
_chemical_formula_sum "Si O2"
_cell_formula_units_Z 104
_cell_length_a 8.128314
_cell_length_b 22.860607
_cell_length_c 25.399703
_cell_angle_alpha 90.000000
_cell_angle_beta 90.000000
_cell_angle_gamma 90.000000
_cell_volume 4719.726887
_symmetry_space_group_name_H-M "F D D 2"
_symmetry_group_IT_number 43
_symmetry_cell_setting 'orthorhombic'
loop_
_space_group_symop_operation_xyz
x,y,z
-x,-y,z
1/4-x,1/4+y,1/4+z
1/4+x,1/4-y,1/4+z
x,1/2+y,1/2+z
-x,1/2-y,1/2+z
1/4-x,3/4+y,3/4+z
1/4+x,3/4-y,3/4+z
1/2+x,y,1/2+z
1/2-x,-y,1/2+z
3/4-x,1/4+y,3/4+z
3/4+x,1/4-y,3/4+z
1/2+x,1/2+y,z
1/2-x,1/2-y,z
3/4-x,3/4+y,1/4+z
3/4+x,3/4-y,1/4+z
loop_
_atom_site_type_symbol
_atom_site_label
_atom_site_fract_x
_atom_site_fract_y
_atom_site_fract_z
Si Si1 0.224220 0.685155 0.331900
Si Si2 0.330901 0.009574 0.918685
Si Si3 0.439011 0.711142 0.057022
Si Si4 0.904997 0.143397 0.785075
Si Si5 0.000000 0.000000 0.983166
Si Si6 0.148993 0.919548 0.264402
Si Si7 0.894461 0.388624 0.183315
O O1 0.250000 0.750000 0.308915
O O2 0.328482 0.638757 0.298577
O O3 0.285481 0.686175 0.392617
O O4 0.030846 0.670704 0.327216
O O5 0.361802 0.970335 0.867334
O O6 0.164615 0.991000 0.948466
O O7 0.500000 0.000000 0.953516
O O8 0.334423 0.077557 0.902404
O O9 0.576244 0.662392 0.061966
O O10 0.292003 0.687747 0.019385
O O11 0.503896 0.773643 0.034555
O O12 0.771417 0.192585 0.769125
O O13 0.996312 0.117040 0.735043
O O14 0.209927 0.905622 0.204203
#
# Coordination Sequence:
#
# PCOD8187481 Si02
#       7
#    16  16  16  16   8  16  16
#     4  11  24  43  67  97 139 184 230 284 365 431
#     4  11  22  43  71 100 138 188 241 290 353 436
#     4  11  22  43  69 100 140 180 238 297 362 420
#     4  10  26  40  68  99 136 182 232 300 358 415
#     4  10  26  42  66 108 140 184 242 296 358 432
#     4  10  23  43  67  98 134 184 234 291 362 426
#     4  10  23  42  65 101 132 183 236 285 361 423
#
# _framework density 22.035173
#
# number of rings (size 3 to 8) (size 9 to 14) (size 15 to 20)
#    0.000    1.538    3.077    0.000   10.769    6.154 
#    0.000    0.000    0.000    0.000    0.000    0.000 
#    0.000    0.000    0.000    0.000    0.000    0.000 
#
# Total GULP energy -322145.149110 kJ/mol
# GULP energy per Si atom -12390.198043 kJ/mol
# Density = 2.198502 g / cm^3
# Si number density = 22.035173 Si / 1000 Ang^3
#
#
#
# Elastic Constant Matrix: (Units=GPa)
#
#
# Indices 1 2 3 4 5 6 
#
# 1 129.4873 50.7920 45.3957 0.0000 0.0000 0.0000
# 2 50.7920 148.9404 36.8299 0.0000 0.0000 0.0000
# 3 45.3957 36.8299 99.7331 0.0000 0.0000 0.0000
# 4 0.0000 0.0000 0.0000 19.8551 0.0000 0.0000
# 5 0.0000 0.0000 0.0000 0.0000 24.2987 0.0000
# 6 0.0000 0.0000 0.0000 0.0000 0.0000 44.3104
#
#
#
# Elastic Compliance Matrix: (Units=1/GPa)
#
#
# Indices 1 2 3 4 5 6 
#
# 1 0.009973 -0.002508 -0.003614 0.000000 0.000000 0.000000
# 2 -0.002508 0.008019 -0.001820 0.000000 0.000000 0.000000
# 3 -0.003614 -0.001820 0.012344 0.000000 0.000000 0.000000
# 4 0.000000 0.000000 0.000000 0.050365 0.000000 0.000000
# 5 0.000000 0.000000 0.000000 0.000000 0.041155 0.000000
# 6 0.000000 0.000000 0.000000 0.000000 0.000000 0.022568
#
#
# Mechanical properties :
#
#
# Convention : Reuss Voigt Hill
#
# Bulk Modulus (GPa) = 69.18534 71.57734 70.38134
# Shear Modulus (GPa) = 30.28034 34.03573 32.15803
#
# Velocity S-wave (km/s) = 3.71102 3.93442 3.82435
# Velocity P-wave (km/s) = 7.05890 7.29337 7.17709
#
# Compressibility (1/GPa) = 0.01445393
#
# Stress axis : x y z
#
# Youngs Moduli (GPa) = 100.26896 124.69955 81.01339
#
# Poissons Ratio (x) = 0.31269 0.29274
# Poissons Ratio (y) = 0.25143 0.14745
# Poissons Ratio (z) = 0.36232 0.22696
#
# Static dielectric constant tensor:
#      x y z
#    x 4.067690 0.000000 0.000000 
#    y 0.000000 4.316970 0.000000 
#    z 0.000000 0.000000 3.774270 
# 
# 
# High freq. dielectric constant tensor:
#      x y z
#    x 1.862100 0.000000 0.000000 
#    y 0.000000 1.886060 0.000000 
#    z 0.000000 0.000000 1.847660 
# 
# From -- ./inp_files/24293.got.cif
#   From: 2010.06.25/outbox.cif.g09.slc.cpg/sg43_13_cif.got.tgz:24293.got - 2010.06.26 16:48:59.
