data_PCOD8187217
_publ_section_title
;
Structure prediction by ZEFSAII (Michael W. Deem and Ramdas Pophale) SiO2 
 PCOD8187217
Probable space group: F D D 2
;
_chemical_formula_sum "Si O2"
_cell_formula_units_Z 80
_cell_length_a 16.509813
_cell_length_b 22.279462
_cell_length_c 9.158539
_cell_angle_alpha 90.000000
_cell_angle_beta 90.000000
_cell_angle_gamma 90.000000
_cell_volume 3368.783123
_symmetry_space_group_name_H-M "F D D 2"
_symmetry_group_IT_number 43
_symmetry_cell_setting 'orthorhombic'
loop_
_space_group_symop_operation_xyz
x,y,z
-x,-y,z
1/4-x,1/4+y,1/4+z
1/4+x,1/4-y,1/4+z
x,1/2+y,1/2+z
-x,1/2-y,1/2+z
1/4-x,3/4+y,3/4+z
1/4+x,3/4-y,3/4+z
1/2+x,y,1/2+z
1/2-x,-y,1/2+z
3/4-x,1/4+y,3/4+z
3/4+x,1/4-y,3/4+z
1/2+x,1/2+y,z
1/2-x,1/2-y,z
3/4-x,3/4+y,1/4+z
3/4+x,3/4-y,1/4+z
loop_
_atom_site_type_symbol
_atom_site_label
_atom_site_fract_x
_atom_site_fract_y
_atom_site_fract_z
Si Si1 0.035927 0.141455 0.917260
Si Si2 0.004341 0.101669 0.335301
Si Si3 0.713451 0.470148 0.921352
Si Si4 0.674858 0.416742 0.358036
Si Si5 0.133319 0.304617 0.364228
O O1 0.081698 0.135285 0.764818
O O2 0.940653 0.149370 0.887108
O O3 0.072106 0.197029 0.015702
O O4 0.052468 0.078875 0.996708
O O5 0.994039 0.161982 0.239251
O O6 0.030693 0.120889 0.498011
O O7 0.069205 0.053688 0.268802
O O8 0.917913 0.068975 0.319104
O O9 0.777483 0.520855 0.876172
O O10 0.649372 0.491955 0.045909
#
# Coordination Sequence:
#
# PCOD8187217 Si02
#       5
#    16  16  16  16  16
#     4  10  21  39  62  91 122 168 212 257 316 379
#     4  11  23  40  64  96 127 165 214 264 318 382
#     4  10  22  42  64  88 129 178 211 254 321 382
#     4  11  21  38  64  92 127 161 208 268 317 373
#     4  10  21  41  64  87 127 168 211 259 312 380
#
# _framework density 23.747446
#
# number of rings (size 3 to 8) (size 9 to 14) (size 15 to 20)
#    0.000    1.600    0.000    7.200    0.000    0.000 
#    0.000   21.000    0.000   21.600    0.000    0.000 
#    0.000    0.000    0.000    0.000    0.000    0.000 
#
# Total GULP energy -247791.909396 kJ/mol
# GULP energy per Si atom -12389.595470 kJ/mol
# Density = 2.369340 g / cm^3
# Si number density = 23.747446 Si / 1000 Ang^3
#
#
#
# Elastic Constant Matrix: (Units=GPa)
#
#
# Indices 1 2 3 4 5 6 
#
# 1 103.4452 14.4592 25.0684 0.0000 0.0000 0.0000
# 2 14.4592 68.4937 41.3484 0.0000 0.0000 0.0000
# 3 25.0684 41.3484 150.0403 -0.0001 0.0001 0.0000
# 4 0.0000 0.0000 -0.0001 26.4190 0.0000 0.0000
# 5 0.0000 0.0000 0.0001 0.0000 36.2308 0.0000
# 6 0.0000 0.0000 0.0000 0.0000 0.0000 23.2898
#
#
#
# Elastic Compliance Matrix: (Units=1/GPa)
#
#
# Indices 1 2 3 4 5 6 
#
# 1 0.010177 -0.001346 -0.001330 0.000000 0.000000 0.000000
# 2 -0.001346 0.017691 -0.004651 0.000000 0.000000 0.000000
# 3 -0.001330 -0.004651 0.008169 0.000000 0.000000 0.000000
# 4 0.000000 0.000000 0.000000 0.037852 0.000000 0.000000
# 5 0.000000 0.000000 0.000000 0.000000 0.027601 0.000000
# 6 0.000000 0.000000 0.000000 0.000000 0.000000 0.042937
#
#
# Mechanical properties :
#
#
# Convention : Reuss Voigt Hill
#
# Bulk Modulus (GPa) = 46.76072 53.74790 50.25431
# Shear Modulus (GPa) = 30.08290 33.26146 31.67218
#
# Velocity S-wave (km/s) = 3.56305 3.74656 3.65596
# Velocity P-wave (km/s) = 6.05481 6.43412 6.24735
#
# Compressibility (1/GPa) = 0.02138547
#
# Stress axis : x y z
#
# Youngs Moduli (GPa) = 98.25829 56.52444 122.41964
#
# Poissons Ratio (x) = 0.07607 0.16276
# Poissons Ratio (y) = 0.13224 0.56932
# Poissons Ratio (z) = 0.13063 0.26287
#
# Static dielectric constant tensor:
#      x y z
#    x 4.269120 0.000000 0.000000 
#    y 0.000000 4.014990 0.000000 
#    z 0.000000 0.000000 4.990200 
# 
# 
# High freq. dielectric constant tensor:
#      x y z
#    x 1.932060 0.000000 0.000000 
#    y 0.000000 1.922750 0.000000 
#    z 0.000000 0.000000 1.967140 
# 
# From -- ./inp_files/2808.got.cif
#   From: 2010.06.25/outbox.cif.g09.slc.cpg/sg43_2_cif.got.tgz:2808.got - 2010.06.26 16:48:59.
