data_PCOD8187589
_publ_section_title
;
Structure prediction by ZEFSAII (Michael W. Deem and Ramdas Pophale) SiO2 
 PCOD8187589
Probable space group: F D D 2
;
_chemical_formula_sum "Si O2"
_cell_formula_units_Z 80
_cell_length_a 12.983678
_cell_length_b 17.051792
_cell_length_c 17.247414
_cell_angle_alpha 90.000000
_cell_angle_beta 90.000000
_cell_angle_gamma 90.000000
_cell_volume 3818.490820
_symmetry_space_group_name_H-M "F D D 2"
_symmetry_group_IT_number 43
_symmetry_cell_setting 'orthorhombic'
loop_
_space_group_symop_operation_xyz
x,y,z
-x,-y,z
1/4-x,1/4+y,1/4+z
1/4+x,1/4-y,1/4+z
x,1/2+y,1/2+z
-x,1/2-y,1/2+z
1/4-x,3/4+y,3/4+z
1/4+x,3/4-y,3/4+z
1/2+x,y,1/2+z
1/2-x,-y,1/2+z
3/4-x,1/4+y,3/4+z
3/4+x,1/4-y,3/4+z
1/2+x,1/2+y,z
1/2-x,1/2-y,z
3/4-x,3/4+y,1/4+z
3/4+x,3/4-y,1/4+z
loop_
_atom_site_type_symbol
_atom_site_label
_atom_site_fract_x
_atom_site_fract_y
_atom_site_fract_z
Si Si1 0.445225 0.624095 0.252660
Si Si2 0.223210 0.835409 0.490222
Si Si3 0.734251 0.160833 0.179988
Si Si4 0.913492 0.738278 0.253704
Si Si5 0.750000 0.250000 0.635311
Si Si6 0.000000 0.000000 0.135058
O O1 0.326945 0.615318 0.224090
O O2 0.475910 0.590620 0.336824
O O3 0.478737 0.715265 0.253495
O O4 0.509751 0.576256 0.189138
O O5 0.250000 0.750000 0.450608
O O6 0.118586 0.869836 0.458594
O O7 0.315642 0.897868 0.480162
O O8 0.212057 0.822650 0.582591
O O9 0.750000 0.250000 0.206351
O O10 0.843877 0.778320 0.188068
O O11 0.854322 0.748662 0.334747
#
# Coordination Sequence:
#
# PCOD8187589 Si02
#       6
#    16  16  16  16   8   8
#     4  12  25  44  70 104 136 188 234 299 357 434
#     4  10  25  45  67 105 136 188 229 292 353 436
#     4  12  26  45  72 103 145 184 240 296 364 427
#     4  11  22  45  73  96 141 182 237 295 356 425
#     4   9  24  44  66 101 130 184 234 289 340 438
#     4  11  24  44  68 103 132 186 236 289 360 424
#
# _framework density 20.950686000000001
#
# number of rings (size 3 to 8) (size 9 to 14) (size 15 to 20)
#    0.600    0.400    5.000    1.200    2.800    2.400 
#    7.200    0.000    0.000    0.000    0.000    0.000 
#    0.000    0.000    0.000    0.000    0.000    0.000 
#
# Total GULP energy -247800.672704 kJ/mol
# GULP energy per Si atom -12390.033635 kJ/mol
# Density = 2.090300 g / cm^3
# Si number density = 20.950686 Si / 1000 Ang^3
#
#
#
# Elastic Constant Matrix: (Units=GPa)
#
#
# Indices 1 2 3 4 5 6 
#
# 1 115.4956 43.2274 52.1433 0.0000 0.0000 0.0000
# 2 43.2274 133.4051 32.8256 0.0000 0.0000 0.0000
# 3 52.1433 32.8256 108.6058 0.0000 0.0000 0.0000
# 4 0.0000 0.0000 0.0000 28.8124 0.0000 0.0000
# 5 0.0000 0.0000 0.0000 0.0000 28.3422 0.0000
# 6 0.0000 0.0000 0.0000 0.0000 0.0000 36.1565
#
#
#
# Elastic Compliance Matrix: (Units=1/GPa)
#
#
# Indices 1 2 3 4 5 6 
#
# 1 0.011855 -0.002637 -0.004895 0.000000 0.000000 0.000000
# 2 -0.002637 0.008685 -0.001359 0.000000 0.000000 0.000000
# 3 -0.004895 -0.001359 0.011968 0.000000 0.000000 0.000000
# 4 0.000000 0.000000 0.000000 0.034707 0.000000 0.000000
# 5 0.000000 0.000000 0.000000 0.000000 0.035283 0.000000
# 6 0.000000 0.000000 0.000000 0.000000 0.000000 0.027658
#
#
# Mechanical properties :
#
#
# Convention : Reuss Voigt Hill
#
# Bulk Modulus (GPa) = 67.90269 68.21102 68.05685
# Shear Modulus (GPa) = 32.71249 33.94956 33.33103
#
# Velocity S-wave (km/s) = 3.95575 4.02985 3.99297
# Velocity P-wave (km/s) = 7.30377 7.36760 7.33575
#
# Compressibility (1/GPa) = 0.01472696
#
# Stress axis : x y z
#
# Youngs Moduli (GPa) = 84.35105 115.14360 83.55330
#
# Poissons Ratio (x) = 0.30364 0.40898
# Poissons Ratio (y) = 0.22244 0.11354
# Poissons Ratio (z) = 0.41289 0.15646
#
# Static dielectric constant tensor:
#      x y z
#    x 3.636650 0.000000 0.000000 
#    y 0.000000 3.770600 0.000000 
#    z 0.000000 0.000000 3.841890 
# 
# 
# High freq. dielectric constant tensor:
#      x y z
#    x 1.818690 0.000000 0.000000 
#    y 0.000000 1.821760 0.000000 
#    z 0.000000 0.000000 1.826230 
# 
# From -- ./inp_files/13803.got.cif
#   From: 2010.06.25/outbox.cif.g09.slc.cpg/sg43_7_cif.got.tgz:13803.got - 2010.06.26 16:48:59.
