data_PCOD8187709
_publ_section_title
;
Structure prediction by ZEFSAII (Michael W. Deem and Ramdas Pophale) SiO2 
 PCOD8187709
Probable space group: F D D 2
;
_chemical_formula_sum "Si O2"
_cell_formula_units_Z 96
_cell_length_a 19.380679
_cell_length_b 9.042697
_cell_length_c 27.210860
_cell_angle_alpha 90.000000
_cell_angle_beta 90.000000
_cell_angle_gamma 90.000000
_cell_volume 4768.801388
_symmetry_space_group_name_H-M "F D D 2"
_symmetry_group_IT_number 43
_symmetry_cell_setting 'orthorhombic'
loop_
_space_group_symop_operation_xyz
x,y,z
-x,-y,z
1/4-x,1/4+y,1/4+z
1/4+x,1/4-y,1/4+z
x,1/2+y,1/2+z
-x,1/2-y,1/2+z
1/4-x,3/4+y,3/4+z
1/4+x,3/4-y,3/4+z
1/2+x,y,1/2+z
1/2-x,-y,1/2+z
3/4-x,1/4+y,3/4+z
3/4+x,1/4-y,3/4+z
1/2+x,1/2+y,z
1/2-x,1/2-y,z
3/4-x,3/4+y,1/4+z
3/4+x,3/4-y,1/4+z
loop_
_atom_site_type_symbol
_atom_site_label
_atom_site_fract_x
_atom_site_fract_y
_atom_site_fract_z
Si Si1 0.058550 0.384809 0.325140
Si Si2 0.917311 0.863263 0.587300
Si Si3 0.538698 0.725792 0.227767
Si Si4 0.394750 0.586379 0.234369
Si Si5 0.430390 0.682906 0.618239
Si Si6 0.435940 0.396737 0.388524
O O1 0.058045 0.352396 0.266886
O O2 0.132764 0.448645 0.340424
O O3 0.039215 0.236018 0.353998
O O4 0.000000 0.500000 0.339700
O O5 0.899803 0.889007 0.530475
O O6 0.871960 0.735353 0.609915
O O7 0.996046 0.811106 0.591532
O O8 0.901501 0.016361 0.615412
O O9 0.456242 0.703376 0.225522
O O10 0.575326 0.575537 0.244382
O O11 0.565544 0.776354 0.175158
O O12 0.344490 0.580223 0.188168
O O13 0.500000 0.500000 0.401353
#
# Coordination Sequence:
#
# PCOD8187709 Si02
#       6
#    16  16  16  16  16  16
#     4  12  26  45  69 103 138 179 234 287 345 407
#     4  11  25  45  68 103 136 181 229 283 345 406
#     4  11  23  44  73  98 135 185 232 281 346 416
#     4  11  23  44  70  99 135 184 232 275 352 416
#     4  11  25  45  69 103 141 176 233 287 337 411
#     4  12  24  43  69  99 138 179 226 287 341 404
#
# _framework density 20.130845999999998
#
# number of rings (size 3 to 8) (size 9 to 14) (size 15 to 20)
#    0.000    0.667    5.000    3.000    4.667    2.000 
#    3.000    0.000    0.000    0.000    0.000    0.000 
#    0.000    0.000    0.000    0.000    0.000    0.000 
#
# Total GULP energy -297778.194712 kJ/mol
# GULP energy per Si atom -12407.424780 kJ/mol
# Density = 2.008503 g / cm^3
# Si number density = 20.130846 Si / 1000 Ang^3
#
#
#
# Elastic Constant Matrix: (Units=GPa)
#
#
# Indices 1 2 3 4 5 6 
#
# 1 97.3066 46.5403 46.1424 0.0000 0.0000 0.0000
# 2 46.5403 106.6931 39.5231 0.0000 0.0000 -0.0001
# 3 46.1424 39.5231 124.8472 0.0000 0.0000 0.0000
# 4 0.0000 0.0000 0.0000 30.7774 0.0000 0.0000
# 5 0.0000 0.0000 0.0000 0.0000 38.4617 0.0000
# 6 0.0000 -0.0001 0.0000 0.0000 0.0000 37.6166
#
#
#
# Elastic Compliance Matrix: (Units=1/GPa)
#
#
# Indices 1 2 3 4 5 6 
#
# 1 0.014404 -0.004884 -0.003777 0.000000 0.000000 0.000000
# 2 -0.004884 0.012274 -0.002081 0.000000 0.000000 0.000000
# 3 -0.003777 -0.002081 0.010065 0.000000 0.000000 0.000000
# 4 0.000000 0.000000 0.000000 0.032491 0.000000 0.000000
# 5 0.000000 0.000000 0.000000 0.000000 0.026000 0.000000
# 6 0.000000 0.000000 0.000000 0.000000 0.000000 0.026584
#
#
# Mechanical properties :
#
#
# Convention : Reuss Voigt Hill
#
# Bulk Modulus (GPa) = 65.53672 65.91762 65.72717
# Shear Modulus (GPa) = 33.69565 34.48057 34.08811
#
# Velocity S-wave (km/s) = 4.09569 4.14312 4.11947
# Velocity P-wave (km/s) = 7.41568 7.46344 7.43959
#
# Compressibility (1/GPa) = 0.01525862
#
# Stress axis : x y z
#
# Youngs Moduli (GPa) = 69.42568 81.47501 99.35864
#
# Poissons Ratio (x) = 0.39790 0.37533
# Poissons Ratio (y) = 0.33906 0.20672
# Poissons Ratio (z) = 0.26225 0.16951
#
# Static dielectric constant tensor:
#      x y z
#    x 3.854900 0.000000 0.000000 
#    y 0.000000 3.980310 0.000000 
#    z 0.000000 0.000000 3.751610 
# 
# 
# High freq. dielectric constant tensor:
#      x y z
#    x 1.791460 0.000000 0.000000 
#    y 0.000000 1.796550 0.000000 
#    z 0.000000 0.000000 1.796300 
# 
# From -- ./inp_files/24225.got.cif
#   From: 2010.06.25/outbox.cif.g09.slc.cpg/sg43_13_cif.got.tgz:24225.got - 2010.06.26 16:48:59.
