data_PCOD8187195
_publ_section_title
;
Structure prediction by ZEFSAII (Michael W. Deem and Ramdas Pophale) SiO2 
 PCOD8187195
Probable space group: F D D 2
;
_chemical_formula_sum "Si O2"
_cell_formula_units_Z 88
_cell_length_a 26.294405
_cell_length_b 12.241058
_cell_length_c 13.818476
_cell_angle_alpha 90.000000
_cell_angle_beta 90.000000
_cell_angle_gamma 90.000000
_cell_volume 4447.771341
_symmetry_space_group_name_H-M "F D D 2"
_symmetry_group_IT_number 43
_symmetry_cell_setting 'orthorhombic'
loop_
_space_group_symop_operation_xyz
x,y,z
-x,-y,z
1/4-x,1/4+y,1/4+z
1/4+x,1/4-y,1/4+z
x,1/2+y,1/2+z
-x,1/2-y,1/2+z
1/4-x,3/4+y,3/4+z
1/4+x,3/4-y,3/4+z
1/2+x,y,1/2+z
1/2-x,-y,1/2+z
3/4-x,1/4+y,3/4+z
3/4+x,1/4-y,3/4+z
1/2+x,1/2+y,z
1/2-x,1/2-y,z
3/4-x,3/4+y,1/4+z
3/4+x,3/4-y,1/4+z
loop_
_atom_site_type_symbol
_atom_site_label
_atom_site_fract_x
_atom_site_fract_y
_atom_site_fract_z
Si Si1 0.341149 0.877874 0.025700
Si Si2 0.186075 0.980761 0.347976
Si Si3 0.519613 0.113579 0.545691
Si Si4 0.895186 0.831402 0.903282
Si Si5 0.000000 0.500000 0.730038
Si Si6 0.805784 0.716793 0.986234
O O1 0.392362 0.807322 0.024931
O O2 0.292970 0.800818 0.048007
O O3 0.339459 0.963808 0.112159
O O4 0.337412 0.929120 0.919675
O O5 0.206407 0.877511 0.408476
O O6 0.229764 0.036539 0.282650
O O7 0.572834 0.146278 0.499495
O O8 0.500000 0.000000 0.496355
O O9 0.526299 0.092485 0.661035
O O10 0.907119 0.923031 0.822244
O O11 0.835686 0.819261 0.935627
O O12 0.750000 0.750000 0.026504
#
# Coordination Sequence:
#
# PCOD8187195 Si02
#       6
#    16  16  16  16   8  16
#     4   9  18  36  54  80 107 151 187 238 278 346
#     4   9  19  36  58  79 116 146 190 241 286 339
#     4   9  19  37  54  80 115 151 184 239 292 336
#     4  10  21  38  58  82 118 150 192 236 289 346
#     4   8  18  36  54  78 114 144 188 234 288 336
#     4  10  22  39  61  87 118 153 198 241 293 348
#
# _framework density 19.785188999999999
#
# number of rings (size 3 to 8) (size 9 to 14) (size 15 to 20)
#    0.545    2.182    0.000    0.545    2.545    1.455 
#    6.545    0.000    0.000    0.000    0.000    0.000 
#    0.000    0.000    0.000    0.000    0.000    0.000 
#
# Total GULP energy -272624.220857 kJ/mol
# GULP energy per Si atom -12392.010039 kJ/mol
# Density = 1.974016 g / cm^3
# Si number density = 19.785189 Si / 1000 Ang^3
#
#
#
# Elastic Constant Matrix: (Units=GPa)
#
#
# Indices 1 2 3 4 5 6 
#
# 1 109.2337 44.8491 32.6262 0.0000 0.0000 0.0000
# 2 44.8491 66.9830 10.3118 0.0000 0.0000 0.0000
# 3 32.6262 10.3118 41.8624 0.0000 0.0000 0.0000
# 4 0.0000 0.0000 0.0000 11.9647 0.0000 0.0000
# 5 0.0000 0.0000 0.0000 0.0000 35.6328 0.0000
# 6 0.0000 0.0000 0.0000 0.0000 0.0000 39.2918
#
#
#
# Elastic Compliance Matrix: (Units=1/GPa)
#
#
# Indices 1 2 3 4 5 6 
#
# 1 0.015929 -0.009099 -0.010173 0.000000 0.000000 0.000000
# 2 -0.009099 0.020716 0.001989 0.000000 0.000000 0.000000
# 3 -0.010173 0.001989 0.031327 0.000000 0.000000 0.000000
# 4 0.000000 0.000000 0.000000 0.083579 0.000000 0.000000
# 5 0.000000 0.000000 0.000000 0.000000 0.028064 0.000000
# 6 0.000000 0.000000 0.000000 0.000000 0.000000 0.025451
#
#
# Mechanical properties :
#
#
# Convention : Reuss Voigt Hill
#
# Bulk Modulus (GPa) = 29.93657 43.73924 36.83791
# Shear Modulus (GPa) = 19.93875 26.06397 23.00136
#
# Velocity S-wave (km/s) = 3.17797 3.63347 3.41332
# Velocity P-wave (km/s) = 5.35067 6.30538 5.84754
#
# Compressibility (1/GPa) = 0.03340396
#
# Stress axis : x y z
#
# Youngs Moduli (GPa) = 62.77718 48.27281 31.92168
#
# Poissons Ratio (x) = 0.43926 0.32475
# Poissons Ratio (y) = 0.57124 -0.06349
# Poissons Ratio (z) = 0.63866 -0.09602
#
# Static dielectric constant tensor:
#      x y z
#    x 3.571140 0.000000 0.000000 
#    y 0.000000 3.720710 0.000000 
#    z 0.000000 0.000000 3.300640 
# 
# 
# High freq. dielectric constant tensor:
#      x y z
#    x 1.763740 0.000000 0.000000 
#    y 0.000000 1.769480 0.000000 
#    z 0.000000 0.000000 1.749110 
# 
# From -- ./inp_files/10133.got.cif
#   From: 2010.06.25/outbox.cif.g09.slc.cpg/sg43_6_cif.got.tgz:10133.got - 2010.06.26 16:48:59.
