data_PCOD8187949
_publ_section_title
;
Structure prediction by ZEFSAII (Michael W. Deem and Ramdas Pophale) SiO2 
 PCOD8187949
Probable space group: I M M 2
;
_chemical_formula_sum "Si O2"
_cell_formula_units_Z 64
_cell_length_a 28.785082
_cell_length_b 8.521930
_cell_length_c 12.292385
_cell_angle_alpha 90.000000
_cell_angle_beta 90.000000
_cell_angle_gamma 90.000000
_cell_volume 3015.376789
_symmetry_space_group_name_H-M "I M M 2"
_symmetry_group_IT_number 44
_symmetry_cell_setting 'orthorhombic'
loop_
_space_group_symop_operation_xyz
x,y,z
-x,-y,z
-x,y,z
x,-y,z
1/2+x,1/2+y,1/2+z
1/2-x,1/2-y,1/2+z
1/2-x,1/2+y,1/2+z
1/2+x,1/2-y,1/2+z
loop_
_atom_site_type_symbol
_atom_site_label
_atom_site_fract_x
_atom_site_fract_y
_atom_site_fract_z
Si Si1 0.277138 0.176921 0.229930
Si Si2 0.549793 0.823157 0.564357
Si Si3 0.448654 0.685299 0.103670
Si Si4 0.687825 0.818956 0.826104
Si Si5 0.659886 0.822699 0.424031
Si Si6 0.361042 0.680348 0.641487
Si Si7 0.845660 0.185104 0.549288
Si Si8 0.069229 0.817717 0.847862
O O1 0.228907 0.268343 0.242681
O O2 0.293518 0.178082 0.355076
O O3 0.315179 0.250993 0.149666
O O4 0.267702 0.000000 0.189591
O O5 0.500000 0.803815 0.622494
O O6 0.584883 0.695582 0.611681
O O7 0.542949 0.787878 0.436372
O O8 0.568570 0.000000 0.580736
O O9 0.500000 0.745691 0.057584
O O10 0.447644 0.500000 0.090222
O O11 0.399899 0.750231 0.049390
O O12 0.447640 0.734907 0.229455
O O13 0.643407 0.779140 0.752391
O O14 0.692162 0.000000 0.855451
O O15 0.681782 0.727732 0.939261
O O16 0.670040 0.751220 0.543284
O O17 0.624085 0.713037 0.359075
O O18 0.640321 0.000000 0.436364
O O19 0.347685 0.500000 0.660771
O O20 0.847386 0.000000 0.562823
O O21 0.058337 0.000000 0.867703
#
# Coordination Sequence:
#
# PCOD8187949 Si02
#       8
#     8   8   8   8   8   8   8   8
#     4  11  24  42  66  95 127 163 207 255 316 384
#     4  10  20  34  54  84 123 165 208 258 318 376
#     4   9  18  33  57  90 127 168 212 259 312 371
#     4  12  27  46  67  90 124 166 214 266 324 385
#     4  10  20  35  58  88 126 163 199 247 306 369
#     4  11  23  40  63  89 122 160 209 259 312 375
#     4  11  23  43  68  95 132 170 216 270 323 380
#     4  10  17  29  52  84 123 163 204 252 306 368
#
# _framework density 21.224544999999999
#
# number of rings (size 3 to 8) (size 9 to 14) (size 15 to 20)
#    0.000    1.500    1.250    6.000    1.750    3.000 
#    0.000    0.625    0.000    6.000    0.000    0.000 
#    0.000    0.000    0.000    0.000    0.000    0.000 
#
# Total GULP energy -396440.659049 kJ/mol
# GULP energy per Si atom -12388.770595 kJ/mol
# Density = 2.117624 g / cm^3
# Si number density = 21.224545 Si / 1000 Ang^3
#
#
#
# Elastic Constant Matrix: (Units=GPa)
#
#
# Indices 1 2 3 4 5 6 
#
# 1 105.9703 21.6974 37.4763 0.0000 0.0000 0.0000
# 2 21.6974 87.4864 23.3331 0.0000 0.0000 0.0000
# 3 37.4763 23.3331 87.2001 0.0000 0.0000 0.0000
# 4 0.0000 0.0000 0.0000 31.3794 0.0000 0.0000
# 5 0.0000 0.0000 0.0000 0.0000 6.1507 0.0000
# 6 0.0000 0.0000 0.0000 0.0000 0.0000 17.6439
#
#
#
# Elastic Compliance Matrix: (Units=1/GPa)
#
#
# Indices 1 2 3 4 5 6 
#
# 1 0.011339 -0.001629 -0.004438 0.000000 0.000000 0.000000
# 2 -0.001629 0.012543 -0.002656 0.000000 0.000000 0.000000
# 3 -0.004438 -0.002656 0.014086 0.000000 0.000000 0.000000
# 4 0.000000 0.000000 0.000000 0.031868 0.000000 0.000000
# 5 0.000000 0.000000 0.000000 0.000000 0.162583 0.000000
# 6 0.000000 0.000000 0.000000 0.000000 0.000000 0.056677
#
#
# Mechanical properties :
#
#
# Convention : Reuss Voigt Hill
#
# Bulk Modulus (GPa) = 48.72610 49.51894 49.12252
# Shear Modulus (GPa) = 15.95500 24.24480 20.09990
#
# Velocity S-wave (km/s) = 2.74473 3.38346 3.08069
# Velocity P-wave (km/s) = 5.74909 6.21654 5.98738
#
# Compressibility (1/GPa) = 0.02052288
#
# Stress axis : x y z
#
# Youngs Moduli (GPa) = 88.18785 79.72749 70.99364
#
# Poissons Ratio (x) = 0.12986 0.31504
# Poissons Ratio (y) = 0.14364 0.18857
# Poissons Ratio (z) = 0.39134 0.21177
#
# Static dielectric constant tensor:
#      x y z
#    x 4.065860 0.000000 0.000000 
#    y 0.000000 3.702210 0.000000 
#    z 0.000000 0.000000 3.733730 
# 
# 
# High freq. dielectric constant tensor:
#      x y z
#    x 1.842830 0.000000 0.000000 
#    y 0.000000 1.823700 0.000000 
#    z 0.000000 0.000000 1.812890 
# 
# From -- ./inp_files/15106.got.cif
#   From: 2010.03.12/outbox.cif.g09.slc.cpg/sg44_8_cif.got.tgz:15106.got - 2010.04.14 02:36:11.
