data_PCOD8187260
_publ_section_title
;
Structure prediction by ZEFSAII (Michael W. Deem and Ramdas Pophale) SiO2 
 PCOD8187260
Probable space group: F D D 2
;
_chemical_formula_sum "Si O2"
_cell_formula_units_Z 112
_cell_length_a 14.388783
_cell_length_b 31.720081
_cell_length_c 11.666765
_cell_angle_alpha 90.000000
_cell_angle_beta 90.000000
_cell_angle_gamma 90.000000
_cell_volume 5324.867440
_symmetry_space_group_name_H-M "F D D 2"
_symmetry_group_IT_number 43
_symmetry_cell_setting 'orthorhombic'
loop_
_space_group_symop_operation_xyz
x,y,z
-x,-y,z
1/4-x,1/4+y,1/4+z
1/4+x,1/4-y,1/4+z
x,1/2+y,1/2+z
-x,1/2-y,1/2+z
1/4-x,3/4+y,3/4+z
1/4+x,3/4-y,3/4+z
1/2+x,y,1/2+z
1/2-x,-y,1/2+z
3/4-x,1/4+y,3/4+z
3/4+x,1/4-y,3/4+z
1/2+x,1/2+y,z
1/2-x,1/2-y,z
3/4-x,3/4+y,1/4+z
3/4+x,3/4-y,1/4+z
loop_
_atom_site_type_symbol
_atom_site_label
_atom_site_fract_x
_atom_site_fract_y
_atom_site_fract_z
Si Si1 0.460543 0.836806 0.375000
Si Si2 0.811187 0.323753 0.201395
Si Si3 0.862036 0.483416 0.599759
Si Si4 0.924292 0.583467 0.331752
Si Si5 0.313727 0.075577 0.555644
Si Si6 0.000000 0.500000 0.792014
Si Si7 0.000000 0.000000 0.899661
Si Si8 0.623460 0.614901 0.512111
O O1 0.383642 0.813382 0.299544
O O2 0.546851 0.805930 0.370997
O O3 0.413412 0.842966 0.499514
O O4 0.494935 0.881352 0.322560
O O5 0.799852 0.284242 0.119687
O O6 0.715568 0.334502 0.267630
O O7 0.857812 0.361725 0.131083
O O8 0.806759 0.527597 0.600224
O O9 0.926292 0.477649 0.710544
O O10 0.919240 0.480362 0.481004
O O11 0.892672 0.582834 0.462936
O O12 0.966048 0.536607 0.312759
O O13 0.216421 0.087425 0.495073
O O14 0.350693 0.103344 0.660076
#
# Coordination Sequence:
#
# PCOD8187260 Si02
#       8
#    16  16  16  16  16   8   8  16
#     4  12  26  42  65  98 131 173 214 263 327 391
#     4  11  25  42  64  93 132 171 214 267 327 385
#     4  10  23  42  64  97 131 167 216 269 321 384
#     4  11  24  42  68  95 130 170 217 264 327 383
#     4  10  21  41  66  99 123 168 219 271 321 384
#     4  11  24  41  66  96 132 169 219 266 322 390
#     4   9  22  45  66  94 130 169 211 274 320 382
#     4  10  22  41  67  92 127 168 219 267 323 384
#
# _framework density 21.033387000000001
#
# number of rings (size 3 to 8) (size 9 to 14) (size 15 to 20)
#    0.000    1.429    1.429    2.571    8.000    1.714 
#    5.143    0.000    0.000    0.000    0.000    0.000 
#    0.000    0.000    0.000    0.000    0.000    0.000 
#
# Total GULP energy -347108.345340 kJ/mol
# GULP energy per Si atom -12396.726619 kJ/mol
# Density = 2.098551 g / cm^3
# Si number density = 21.033387 Si / 1000 Ang^3
#
#
#
# Elastic Constant Matrix: (Units=GPa)
#
#
# Indices 1 2 3 4 5 6 
#
# 1 117.3857 46.7628 32.0616 0.0000 0.0000 0.0000
# 2 46.7628 96.4696 21.9553 0.0000 0.0000 0.0000
# 3 32.0616 21.9553 60.5006 0.0000 0.0000 0.0000
# 4 0.0000 0.0000 0.0000 23.4872 0.0000 0.0000
# 5 0.0000 0.0000 0.0000 0.0000 -237.1610 0.0000
# 6 0.0000 0.0000 0.0000 0.0000 0.0000 43.1372
#
#
#
# Elastic Compliance Matrix: (Units=1/GPa)
#
#
# Indices 1 2 3 4 5 6 
#
# 1 0.011567 -0.004591 -0.004464 0.000000 0.000000 0.000000
# 2 -0.004591 0.013121 -0.002329 0.000000 0.000000 0.000000
# 3 -0.004464 -0.002329 0.019739 0.000000 0.000000 0.000000
# 4 0.000000 0.000000 0.000000 0.042576 0.000000 0.000000
# 5 0.000000 0.000000 0.000000 0.000000 -0.004217 0.000000
# 6 0.000000 0.000000 0.000000 0.000000 0.000000 0.023182
#
#
# Mechanical properties :
#
#
# Convention : Reuss Voigt Hill
#
# Bulk Modulus (GPa) = 46.16645 52.87946 49.52296
# Shear Modulus (GPa) = 36.77634 -22.53558 7.12038
#
# Velocity S-wave (km/s) = 4.18601 -3.27681 1.84191
# Velocity P-wave (km/s) = 6.73501 3.29829 5.30279
#
# Compressibility (1/GPa) = 0.02166075
#
# Stress axis : x y z
#
# Youngs Moduli (GPa) = 86.45223 76.21106 50.66026
#
# Poissons Ratio (x) = 0.34990 0.22613
# Poissons Ratio (y) = 0.39691 0.11797
# Poissons Ratio (z) = 0.38590 0.17747
#
# Static dielectric constant tensor:
#      x y z
#    x 4.400710 0.000000 0.000000 
#    y 0.000000 3.483420 0.000000 
#    z 0.000000 0.000000 3.703330 
# 
# 
# High freq. dielectric constant tensor:
#      x y z
#    x 1.833220 0.000000 0.000000 
#    y 0.000000 1.826450 0.000000 
#    z 0.000000 0.000000 1.824140 
# 
# From -- ./inp_files/6346.got.cif
#   From: 2010.06.25/outbox.cif.g09.slc.cpg/sg43_4_cif.got.tgz:6346.got - 2010.06.26 16:48:59.
