data_PCOD8187380
_publ_section_title
;
Structure prediction by ZEFSAII (Michael W. Deem and Ramdas Pophale) SiO2 
 PCOD8187380
Probable space group: F D D 2
;
_chemical_formula_sum "Si O2"
_cell_formula_units_Z 80
_cell_length_a 25.844628
_cell_length_b 4.893094
_cell_length_c 24.483820
_cell_angle_alpha 90.000000
_cell_angle_beta 90.000000
_cell_angle_gamma 90.000000
_cell_volume 3096.228632
_symmetry_space_group_name_H-M "F D D 2"
_symmetry_group_IT_number 43
_symmetry_cell_setting 'orthorhombic'
loop_
_space_group_symop_operation_xyz
x,y,z
-x,-y,z
1/4-x,1/4+y,1/4+z
1/4+x,1/4-y,1/4+z
x,1/2+y,1/2+z
-x,1/2-y,1/2+z
1/4-x,3/4+y,3/4+z
1/4+x,3/4-y,3/4+z
1/2+x,y,1/2+z
1/2-x,-y,1/2+z
3/4-x,1/4+y,3/4+z
3/4+x,1/4-y,3/4+z
1/2+x,1/2+y,z
1/2-x,1/2-y,z
3/4-x,3/4+y,1/4+z
3/4+x,3/4-y,1/4+z
loop_
_atom_site_type_symbol
_atom_site_label
_atom_site_fract_x
_atom_site_fract_y
_atom_site_fract_z
Si Si1 0.604108 0.393947 0.970310
Si Si2 0.557456 0.078965 0.643165
Si Si3 0.120761 0.432110 0.831026
Si Si4 0.557217 0.905730 0.360328
Si Si5 0.285947 0.988841 0.281582
O O1 0.661617 0.441605 0.945798
O O2 0.563259 0.304109 0.923269
O O3 0.603079 0.166858 0.019962
O O4 0.584057 0.687673 0.992410
O O5 0.557264 0.310879 0.593997
O O6 0.500000 0.000000 0.662430
O O7 0.587728 0.807143 0.623230
O O8 0.098616 0.146137 0.851463
O O9 0.073127 0.648045 0.823170
O O10 0.500000 0.000000 0.345861
O O11 0.250000 0.750000 0.258090
O O12 0.250000 0.250000 0.289202
#
# Coordination Sequence:
#
# PCOD8187380 Si02
#       5
#    16  16  16  16  16
#     4  10  23  42  69 100 135 180 230 282 343 412
#     4   9  21  40  66  97 136 179 226 277 336 406
#     4  10  24  43  65  99 139 177 226 286 343 409
#     4  11  24  44  68  98 136 180 228 284 346 412
#     4  10  22  41  66  96 131 174 225 281 339 403
#
# _framework density 25.837883000000001
#
# number of rings (size 3 to 8) (size 9 to 14) (size 15 to 20)
#    0.000    2.000    0.000    1.200    0.000   24.800 
#    0.000    1.000    0.000    0.000    0.000    0.000 
#    0.000    0.000    0.000    0.000    0.000    0.000 
#
# Total GULP energy -247919.219043 kJ/mol
# GULP energy per Si atom -12395.960952 kJ/mol
# Density = 2.577907 g / cm^3
# Si number density = 25.837883 Si / 1000 Ang^3
#
#
#
# Elastic Constant Matrix: (Units=GPa)
#
#
# Indices 1 2 3 4 5 6 
#
# 1 159.2869 -10.9905 31.3174 0.0119 0.0216 0.0316
# 2 -10.9905 62.3693 23.6739 0.0556 -0.0045 0.0408
# 3 31.3174 23.6739 118.7948 0.0012 0.0154 -0.0020
# 4 0.0119 0.0556 0.0012 16.7848 -0.0042 0.0038
# 5 0.0216 -0.0045 0.0154 -0.0042 6.4763 0.0638
# 6 0.0316 0.0408 -0.0020 0.0038 0.0638 32.4315
#
#
#
# Elastic Compliance Matrix: (Units=1/GPa)
#
#
# Indices 1 2 3 4 5 6 
#
# 1 0.006855 0.002049 -0.002215 -0.000011 -0.000016 -0.000009
# 2 0.002049 0.017958 -0.004119 -0.000061 0.000016 -0.000025
# 3 -0.002215 -0.004119 0.009823 0.000014 -0.000019 0.000008
# 4 -0.000011 -0.000061 0.000014 0.059578 0.000038 -0.000007
# 5 -0.000016 0.000016 -0.000019 0.000038 0.154413 -0.000304
# 6 -0.000009 -0.000025 0.000008 -0.000007 -0.000304 0.030835
#
#
# Mechanical properties :
#
#
# Convention : Reuss Voigt Hill
#
# Bulk Modulus (GPa) = 38.36583 47.60586 42.98585
# Shear Modulus (GPa) = 16.85086 30.90185 23.87635
#
# Velocity S-wave (km/s) = 2.55655 3.46206 3.04317
# Velocity P-wave (km/s) = 4.85752 5.86907 5.38709
#
# Compressibility (1/GPa) = 0.02606486
#
# Stress axis : x y z
#
# Youngs Moduli (GPa) = 145.88027 55.68523 101.80433
#
# Poissons Ratio (x) = -0.11409 0.22554
# Poissons Ratio (y) = -0.29889 0.41932
# Poissons Ratio (z) = 0.32319 0.22936
#
# Static dielectric constant tensor:
#      x y z
#    x 5.193940 -0.000080 -0.000010 
#    y -0.000080 4.685810 -0.000030 
#    z -0.000010 -0.000030 4.823880 
# 
# 
# High freq. dielectric constant tensor:
#      x y z
#    x 2.056990 0.000000 0.000000 
#    y 0.000000 2.031500 0.000000 
#    z 0.000000 0.000000 2.016620 
# 
# From -- ./inp_files/26688.got.cif
#   From: 2010.06.25/outbox.cif.g09.slc.cpg/sg43_14_cif.got.tgz:26688.got - 2010.06.26 16:48:59.
