data_PCOD8187194
_publ_section_title
;
Structure prediction by ZEFSAII (Michael W. Deem and Ramdas Pophale) SiO2 
 PCOD8187194
Probable space group: F D D 2
;
_chemical_formula_sum "Si O2"
_cell_formula_units_Z 104
_cell_length_a 14.434338
_cell_length_b 25.489839
_cell_length_c 14.733419
_cell_angle_alpha 90.000000
_cell_angle_beta 90.000000
_cell_angle_gamma 90.000000
_cell_volume 5420.851408
_symmetry_space_group_name_H-M "F D D 2"
_symmetry_group_IT_number 43
_symmetry_cell_setting 'orthorhombic'
loop_
_space_group_symop_operation_xyz
x,y,z
-x,-y,z
1/4-x,1/4+y,1/4+z
1/4+x,1/4-y,1/4+z
x,1/2+y,1/2+z
-x,1/2-y,1/2+z
1/4-x,3/4+y,3/4+z
1/4+x,3/4-y,3/4+z
1/2+x,y,1/2+z
1/2-x,-y,1/2+z
3/4-x,1/4+y,3/4+z
3/4+x,1/4-y,3/4+z
1/2+x,1/2+y,z
1/2-x,1/2-y,z
3/4-x,3/4+y,1/4+z
3/4+x,3/4-y,1/4+z
loop_
_atom_site_type_symbol
_atom_site_label
_atom_site_fract_x
_atom_site_fract_y
_atom_site_fract_z
Si Si1 0.082240 0.698297 0.145810
Si Si2 0.670876 0.822970 0.902767
Si Si3 0.350470 0.006492 0.449704
Si Si4 0.594826 0.423400 0.217890
Si Si5 0.250000 0.250000 0.338415
Si Si6 0.737416 0.911157 0.576476
Si Si7 0.750000 0.250000 0.553507
Si Si8 0.750000 0.250000 0.256084
O O1 0.078631 0.635810 0.164630
O O2 0.161797 0.731348 0.197345
O O3 0.980913 0.717654 0.172968
O O4 0.096806 0.709689 0.037972
O O5 0.565074 0.804750 0.880462
O O6 0.729754 0.801362 0.817561
O O7 0.710576 0.797906 0.994441
O O8 0.414922 0.021644 0.364136
O O9 0.414661 0.979640 0.526907
O O10 0.309103 0.058947 0.493025
O O11 0.525227 0.452808 0.153124
O O12 0.663779 0.391530 0.151704
O O13 0.534863 0.388926 0.284737
#
# Coordination Sequence:
#
# PCOD8187194 Si02
#       8
#    16  16  16  16   8  16   8   8
#     4  11  23  37  68  88 126 162 211 254 327 362
#     4  10  23  38  60  89 127 156 207 259 314 369
#     4  10  21  39  61  83 116 161 200 251 306 375
#     4  10  22  35  60  84 118 157 200 252 311 372
#     4   9  21  41  55  84 120 154 203 251 305 373
#     4  10  21  38  57  86 119 155 199 254 305 373
#     4  10  22  40  60  84 124 156 210 250 312 368
#     4  11  23  41  61 102 126 168 209 275 307 391
#
# _framework density 19.185178000000001
#
# number of rings (size 3 to 8) (size 9 to 14) (size 15 to 20)
#    0.000    1.846    1.538    1.385   10.769    2.462 
#    0.000    0.000    0.000    0.000    0.000    0.000 
#    0.000    0.000    0.000    0.000    0.000    0.000 
#
# Total GULP energy -322142.739400 kJ/mol
# GULP energy per Si atom -12390.105362 kJ/mol
# Density = 1.914151 g / cm^3
# Si number density = 19.185178 Si / 1000 Ang^3
#
#
#
# Elastic Constant Matrix: (Units=GPa)
#
#
# Indices 1 2 3 4 5 6 
#
# 1 141.7426 46.1843 75.1866 0.0000 0.0000 0.0000
# 2 46.1843 67.2993 49.5744 0.0000 0.0000 0.0000
# 3 75.1866 49.5744 140.9995 0.0000 0.0000 0.0000
# 4 0.0000 0.0000 0.0000 12.5045 0.0000 0.0000
# 5 0.0000 0.0000 0.0000 0.0000 97.3315 0.0000
# 6 0.0000 0.0000 0.0000 0.0000 0.0000 28.3224
#
#
#
# Elastic Compliance Matrix: (Units=1/GPa)
#
#
# Indices 1 2 3 4 5 6 
#
# 1 0.010658 -0.004221 -0.004199 0.000000 0.000000 0.000000
# 2 -0.004221 0.021724 -0.005387 0.000000 0.000000 0.000000
# 3 -0.004199 -0.005387 0.011226 0.000000 0.000000 0.000000
# 4 0.000000 0.000000 0.000000 0.079971 0.000000 0.000000
# 5 0.000000 0.000000 0.000000 0.000000 0.010274 0.000000
# 6 0.000000 0.000000 0.000000 0.000000 0.000000 0.035308
#
#
# Mechanical properties :
#
#
# Convention : Reuss Voigt Hill
#
# Bulk Modulus (GPa) = 62.52811 76.88134 69.70472
# Shear Modulus (GPa) = 24.73956 39.57143 32.15549
#
# Velocity S-wave (km/s) = 3.59488 4.54652 4.09841
# Velocity P-wave (km/s) = 7.06353 8.22930 7.66860
#
# Compressibility (1/GPa) = 0.01599281
#
# Stress axis : x y z
#
# Youngs Moduli (GPa) = 93.82903 46.03232 89.08269
#
# Poissons Ratio (x) = 0.19429 0.37407
# Poissons Ratio (y) = 0.39602 0.47992
# Poissons Ratio (z) = 0.39400 0.24799
#
# Static dielectric constant tensor:
#      x y z
#    x 3.147020 0.000000 0.000000 
#    y 0.000000 3.168270 0.000000 
#    z 0.000000 0.000000 4.026150 
# 
# 
# High freq. dielectric constant tensor:
#      x y z
#    x 1.767130 0.000000 0.000000 
#    y 0.000000 1.714610 0.000000 
#    z 0.000000 0.000000 1.769180 
# 
# From -- ./inp_files/13986.got.cif
#   From: 2010.06.25/outbox.cif.g09.slc.cpg/sg43_7_cif.got.tgz:13986.got - 2010.06.26 16:48:59.
