data_PCOD8187634
_publ_section_title
;
Structure prediction by ZEFSAII (Michael W. Deem and Ramdas Pophale) SiO2 
 PCOD8187634
Probable space group: F D D 2
;
_chemical_formula_sum "Si O2"
_cell_formula_units_Z 96
_cell_length_a 13.885495
_cell_length_b 22.693056
_cell_length_c 13.573336
_cell_angle_alpha 90.000000
_cell_angle_beta 90.000000
_cell_angle_gamma 90.000000
_cell_volume 4277.016751
_symmetry_space_group_name_H-M "F D D 2"
_symmetry_group_IT_number 43
_symmetry_cell_setting 'orthorhombic'
loop_
_space_group_symop_operation_xyz
x,y,z
-x,-y,z
1/4-x,1/4+y,1/4+z
1/4+x,1/4-y,1/4+z
x,1/2+y,1/2+z
-x,1/2-y,1/2+z
1/4-x,3/4+y,3/4+z
1/4+x,3/4-y,3/4+z
1/2+x,y,1/2+z
1/2-x,-y,1/2+z
3/4-x,1/4+y,3/4+z
3/4+x,1/4-y,3/4+z
1/2+x,1/2+y,z
1/2-x,1/2-y,z
3/4-x,3/4+y,1/4+z
3/4+x,3/4-y,1/4+z
loop_
_atom_site_type_symbol
_atom_site_label
_atom_site_fract_x
_atom_site_fract_y
_atom_site_fract_z
Si Si1 0.656626 0.880338 0.778550
Si Si2 0.779145 0.181703 0.087198
Si Si3 0.511896 0.836242 0.501765
Si Si4 0.408991 0.162391 0.282933
Si Si5 0.788478 0.686645 0.957253
Si Si6 0.444741 0.221027 0.096204
O O1 0.545600 0.900718 0.760439
O O2 0.718915 0.851650 0.691724
O O3 0.648047 0.832536 0.864573
O O4 0.706320 0.940007 0.816419
O O5 0.750000 0.250000 0.100654
O O6 0.885376 0.170011 0.050446
O O7 0.534615 0.829674 0.385354
O O8 0.456447 0.896927 0.534167
O O9 0.443921 0.785512 0.547959
O O10 0.450293 0.107746 0.220825
O O11 0.429740 0.220821 0.215769
O O12 0.750000 0.750000 0.930440
O O13 0.853153 0.685610 0.054954
#
# Coordination Sequence:
#
# PCOD8187634 Si02
#       6
#    16  16  16  16  16  16
#     4  11  24  44  66  98 142 178 236 297 352 421
#     4  12  25  45  69 102 140 187 237 289 365 435
#     4  12  25  46  70 102 146 187 238 296 361 439
#     4  11  25  44  71 104 143 182 237 296 359 428
#     4  11  21  40  72 101 133 178 233 294 351 422
#     4  11  23  43  68 102 137 180 236 293 355 423
#
# _framework density 22.445550999999998
#
# number of rings (size 3 to 8) (size 9 to 14) (size 15 to 20)
#    0.000    0.667    6.667    1.500    0.000    1.333 
#    3.000    0.833    0.000    0.000    0.000    0.000 
#    0.000    0.000    0.000    0.000    0.000    0.000 
#
# Total GULP energy -297392.266024 kJ/mol
# GULP energy per Si atom -12391.344418 kJ/mol
# Density = 2.239446 g / cm^3
# Si number density = 22.445551 Si / 1000 Ang^3
#
#
#
# Elastic Constant Matrix: (Units=GPa)
#
#
# Indices 1 2 3 4 5 6 
#
# 1 107.7089 27.4209 17.2016 0.0000 0.0000 0.0000
# 2 27.4209 80.0995 42.2085 0.0000 0.0000 0.0000
# 3 17.2016 42.2085 101.8096 0.0000 0.0000 0.0000
# 4 0.0000 0.0000 0.0000 28.4109 0.0000 0.0000
# 5 0.0000 0.0000 0.0000 0.0000 36.5955 0.0000
# 6 0.0000 0.0000 0.0000 0.0000 0.0000 29.2634
#
#
#
# Elastic Compliance Matrix: (Units=1/GPa)
#
#
# Indices 1 2 3 4 5 6 
#
# 1 0.010181 -0.003300 -0.000352 0.000000 0.000000 0.000000
# 2 -0.003300 0.017044 -0.006509 0.000000 0.000000 0.000000
# 3 -0.000352 -0.006509 0.012580 0.000000 0.000000 0.000000
# 4 0.000000 0.000000 0.000000 0.035198 0.000000 0.000000
# 5 0.000000 0.000000 0.000000 0.000000 0.027326 0.000000
# 6 0.000000 0.000000 0.000000 0.000000 0.000000 0.034172
#
#
# Mechanical properties :
#
#
# Convention : Reuss Voigt Hill
#
# Bulk Modulus (GPa) = 51.32467 51.47554 51.40010
# Shear Modulus (GPa) = 30.61561 32.37309 31.49435
#
# Velocity S-wave (km/s) = 3.69724 3.80188 3.74992
# Velocity P-wave (km/s) = 6.41420 6.50043 6.45746
#
# Compressibility (1/GPa) = 0.01948381
#
# Stress axis : x y z
#
# Youngs Moduli (GPa) = 98.22650 58.67259 79.49073
#
# Poissons Ratio (x) = 0.19360 0.02799
# Poissons Ratio (y) = 0.32411 0.51737
# Poissons Ratio (z) = 0.03459 0.38187
#
# Static dielectric constant tensor:
#      x y z
#    x 4.242170 0.000000 0.000000 
#    y 0.000000 3.958310 0.000000 
#    z 0.000000 0.000000 4.199630 
# 
# 
# High freq. dielectric constant tensor:
#      x y z
#    x 1.903840 0.000000 0.000000 
#    y 0.000000 1.869940 0.000000 
#    z 0.000000 0.000000 1.880850 
# 
# From -- ./inp_files/10067.got.cif
#   From: 2010.06.25/outbox.cif.g09.slc.cpg/sg43_6_cif.got.tgz:10067.got - 2010.06.26 16:48:59.
