data_PCOD8187071
_publ_section_title
;
Structure prediction by ZEFSAII (Michael W. Deem and Ramdas Pophale) SiO2 
 PCOD8187071
Probable space group: F D D 2
;
_chemical_formula_sum "Si O2"
_cell_formula_units_Z 104
_cell_length_a 26.301825
_cell_length_b 10.301095
_cell_length_c 17.461943
_cell_angle_alpha 90.000000
_cell_angle_beta 90.000000
_cell_angle_gamma 90.000000
_cell_volume 4731.096893
_symmetry_space_group_name_H-M "F D D 2"
_symmetry_group_IT_number 43
_symmetry_cell_setting 'orthorhombic'
loop_
_space_group_symop_operation_xyz
x,y,z
-x,-y,z
1/4-x,1/4+y,1/4+z
1/4+x,1/4-y,1/4+z
x,1/2+y,1/2+z
-x,1/2-y,1/2+z
1/4-x,3/4+y,3/4+z
1/4+x,3/4-y,3/4+z
1/2+x,y,1/2+z
1/2-x,-y,1/2+z
3/4-x,1/4+y,3/4+z
3/4+x,1/4-y,3/4+z
1/2+x,1/2+y,z
1/2-x,1/2-y,z
3/4-x,3/4+y,1/4+z
3/4+x,3/4-y,1/4+z
loop_
_atom_site_type_symbol
_atom_site_label
_atom_site_fract_x
_atom_site_fract_y
_atom_site_fract_z
Si Si1 0.750000 0.250000 0.504460
Si Si2 0.983888 0.712586 0.705124
Si Si3 0.584076 0.391417 0.843023
Si Si4 0.166699 0.977345 0.318957
Si Si5 0.934861 0.591901 0.854318
Si Si6 0.652417 0.426069 0.976351
Si Si7 0.970063 0.332810 0.924018
O O1 0.746008 0.382621 0.456107
O O2 0.699503 0.254763 0.556451
O O3 0.952207 0.688888 0.626284
O O4 0.950410 0.654986 0.773375
O O5 0.038387 0.640449 0.709308
O O6 0.628561 0.453370 0.892981
O O7 0.607272 0.303810 0.775846
O O8 0.545939 0.308107 0.895943
O O9 0.127008 0.058336 0.266911
O O10 0.126248 0.887135 0.366371
O O11 0.201768 0.893545 0.261332
O O12 0.946940 0.436462 0.863063
O O13 0.968230 0.659424 0.921444
#
# Coordination Sequence:
#
# PCOD8187071 Si02
#       7
#     8  16  16  16  16  16  16
#     4  10  22  46  60  84 142 182 216 268 348 418
#     4  11  24  44  68  99 134 185 226 283 344 418
#     4  10  20  42  64  91 127 178 219 278 334 416
#     4  11  23  39  65 107 135 168 226 288 343 406
#     4  11  19  38  67  91 131 173 214 279 343 388
#     4  10  21  42  67  93 135 169 223 280 340 396
#     4  10  20  37  64  96 127 165 222 285 332 394
#
# _framework density 21.982216999999999
#
# number of rings (size 3 to 8) (size 9 to 14) (size 15 to 20)
#    0.000    1.538    4.615    1.846    2.154    1.231 
#   13.846    0.000    0.000    0.000    0.000    0.000 
#    0.000    0.000    0.000    0.000    0.000    0.000 
#
# Total GULP energy -322137.432034 kJ/mol
# GULP energy per Si atom -12389.901232 kJ/mol
# Density = 2.193218 g / cm^3
# Si number density = 21.982217 Si / 1000 Ang^3
#
#
#
# Elastic Constant Matrix: (Units=GPa)
#
#
# Indices 1 2 3 4 5 6 
#
# 1 146.4723 15.7003 84.6431 0.0000 0.0000 0.0000
# 2 15.7003 45.6776 14.9880 0.0000 0.0000 0.0000
# 3 84.6431 14.9880 110.0773 0.0000 0.0000 0.0000
# 4 0.0000 0.0000 0.0000 26.1081 0.0000 0.0000
# 5 0.0000 0.0000 0.0000 0.0000 38.3885 0.0000
# 6 0.0000 0.0000 0.0000 0.0000 0.0000 29.3446
#
#
#
# Elastic Compliance Matrix: (Units=1/GPa)
#
#
# Indices 1 2 3 4 5 6 
#
# 1 0.012348 -0.001181 -0.009334 0.000000 0.000000 0.000000
# 2 -0.001181 0.023029 -0.002227 0.000000 0.000000 0.000000
# 3 -0.009334 -0.002227 0.016565 0.000000 0.000000 0.000000
# 4 0.000000 0.000000 0.000000 0.038302 0.000000 0.000000
# 5 0.000000 0.000000 0.000000 0.000000 0.026049 0.000000
# 6 0.000000 0.000000 0.000000 0.000000 0.000000 0.034078
#
#
# Mechanical properties :
#
#
# Convention : Reuss Voigt Hill
#
# Bulk Modulus (GPa) = 37.79694 59.21001 48.50347
# Shear Modulus (GPa) = 27.07452 31.22795 29.15124
#
# Velocity S-wave (km/s) = 3.51330 3.77317 3.64555
# Velocity P-wave (km/s) = 5.80426 6.78059 6.31133
#
# Compressibility (1/GPa) = 0.02645717
#
# Stress axis : x y z
#
# Youngs Moduli (GPa) = 80.98714 43.42262 60.36866
#
# Poissons Ratio (x) = 0.05130 0.56347
# Poissons Ratio (y) = 0.09568 0.13445
# Poissons Ratio (z) = 0.75591 0.09671
#
# Static dielectric constant tensor:
#      x y z
#    x 4.536830 0.000000 0.000000 
#    y 0.000000 3.669480 0.000000 
#    z 0.000000 0.000000 4.060020 
# 
# 
# High freq. dielectric constant tensor:
#      x y z
#    x 1.877040 0.000000 0.000000 
#    y 0.000000 1.833660 0.000000 
#    z 0.000000 0.000000 1.855560 
# 
# From -- ./inp_files/15056.got.cif
#   From: 2010.06.25/outbox.cif.g09.slc.cpg/sg43_8_cif.got.tgz:15056.got - 2010.06.26 16:48:59.
