data_PCOD8187528
_publ_section_title
;
Structure prediction by ZEFSAII (Michael W. Deem and Ramdas Pophale) SiO2 
 PCOD8187528
Probable space group: F D D 2
;
_chemical_formula_sum "Si O2"
_cell_formula_units_Z 64
_cell_length_a 20.483033
_cell_length_b 8.645283
_cell_length_c 12.450639
_cell_angle_alpha 90.000000
_cell_angle_beta 90.000000
_cell_angle_gamma 90.000000
_cell_volume 2204.779287
_symmetry_space_group_name_H-M "F D D 2"
_symmetry_group_IT_number 43
_symmetry_cell_setting 'orthorhombic'
loop_
_space_group_symop_operation_xyz
x,y,z
-x,-y,z
1/4-x,1/4+y,1/4+z
1/4+x,1/4-y,1/4+z
x,1/2+y,1/2+z
-x,1/2-y,1/2+z
1/4-x,3/4+y,3/4+z
1/4+x,3/4-y,3/4+z
1/2+x,y,1/2+z
1/2-x,-y,1/2+z
3/4-x,1/4+y,3/4+z
3/4+x,1/4-y,3/4+z
1/2+x,1/2+y,z
1/2-x,1/2-y,z
3/4-x,3/4+y,1/4+z
3/4+x,3/4-y,1/4+z
loop_
_atom_site_type_symbol
_atom_site_label
_atom_site_fract_x
_atom_site_fract_y
_atom_site_fract_z
Si Si1 0.311595 0.650842 0.057390
Si Si2 0.562176 0.293790 0.615107
Si Si3 0.278399 0.090426 0.154318
Si Si4 0.079881 0.640776 0.170384
O O1 0.250000 0.750000 0.015981
O O2 0.283674 0.518612 0.135287
O O3 0.359853 0.757954 0.126250
O O4 0.346587 0.567813 0.954447
O O5 0.577127 0.235632 0.493373
O O6 0.485073 0.270627 0.634240
O O7 0.250000 0.250000 0.198771
O O8 0.418179 0.028339 0.120071
O O9 0.325027 0.123185 0.051204
#
# Coordination Sequence:
#
# PCOD8187528 Si02
#       4
#    16  16  16  16
#     4  11  25  49  85 129 176 232 294 367 460 536
#     4  10  23  50  86 125 173 229 303 365 444 543
#     4  11  23  52  87 122 178 231 304 368 449 551
#     4  10  23  52  84 121 182 231 290 382 443 530
#
# _framework density 29.027847999999999
#
# number of rings (size 3 to 8) (size 9 to 14) (size 15 to 20)
#    0.000    1.500    5.000    0.750    3.500    4.000 
#   13.500    0.000    0.000    0.000    0.000    0.000 
#    0.000    0.000    0.000    0.000    0.000    0.000 
#
# Total GULP energy -198452.616022 kJ/mol
# GULP energy per Si atom -12403.288501 kJ/mol
# Density = 2.896178 g / cm^3
# Si number density = 29.027848 Si / 1000 Ang^3
#
#
#
# Elastic Constant Matrix: (Units=GPa)
#
#
# Indices 1 2 3 4 5 6 
#
# 1 121.8022 59.7407 38.0329 0.0000 0.0000 0.0000
# 2 59.7407 246.2862 96.4762 0.0000 0.0000 0.0000
# 3 38.0329 96.4762 207.8570 0.0000 0.0000 0.0000
# 4 0.0000 0.0000 0.0000 53.0740 0.0000 0.0000
# 5 0.0000 0.0000 0.0000 0.0000 31.5145 0.0000
# 6 0.0000 0.0000 0.0000 0.0000 0.0000 27.6466
#
#
#
# Elastic Compliance Matrix: (Units=1/GPa)
#
#
# Indices 1 2 3 4 5 6 
#
# 1 0.009429 -0.001969 -0.000811 0.000000 0.000000 0.000000
# 2 -0.001969 0.005374 -0.002134 0.000000 0.000000 0.000000
# 3 -0.000811 -0.002134 0.005950 0.000000 0.000000 0.000000
# 4 0.000000 0.000000 0.000000 0.018842 0.000000 0.000000
# 5 0.000000 0.000000 0.000000 0.000000 0.031731 0.000000
# 6 0.000000 0.000000 0.000000 0.000000 0.000000 0.036171
#
#
# Mechanical properties :
#
#
# Convention : Reuss Voigt Hill
#
# Bulk Modulus (GPa) = 91.54223 107.16055 99.35139
# Shear Modulus (GPa) = 41.33337 47.89339 44.61338
#
# Velocity S-wave (km/s) = 3.77758 4.06632 3.92461
# Velocity P-wave (km/s) = 7.11557 7.68396 7.40522
#
# Compressibility (1/GPa) = 0.01092392
#
# Stress axis : x y z
#
# Youngs Moduli (GPa) = 106.05239 186.08268 168.07019
#
# Poissons Ratio (x) = 0.36648 0.13634
# Poissons Ratio (y) = 0.20887 0.35865
# Poissons Ratio (z) = 0.08603 0.39709
#
# Static dielectric constant tensor:
#      x y z
#    x 5.903770 0.000000 0.000000 
#    y 0.000000 5.702930 0.000000 
#    z 0.000000 0.000000 5.779410 
# 
# 
# High freq. dielectric constant tensor:
#      x y z
#    x 2.217550 0.000000 0.000000 
#    y 0.000000 2.199030 0.000000 
#    z 0.000000 0.000000 2.187150 
# 
# From -- ./inp_files/7842.got.cif
#   From: 2010.06.25/outbox.cif.g09.slc.cpg/sg43_4_cif.got.tgz:7842.got - 2010.06.26 16:48:59.
