data_PCOD8187597
_publ_section_title
;
Structure prediction by ZEFSAII (Michael W. Deem and Ramdas Pophale) SiO2 
 PCOD8187597
Probable space group: F D D 2
;
_chemical_formula_sum "Si O2"
_cell_formula_units_Z 88
_cell_length_a 31.656844
_cell_length_b 16.241084
_cell_length_c 7.695036
_cell_angle_alpha 90.000000
_cell_angle_beta 90.000000
_cell_angle_gamma 90.000000
_cell_volume 3956.337064
_symmetry_space_group_name_H-M "F D D 2"
_symmetry_group_IT_number 43
_symmetry_cell_setting 'orthorhombic'
loop_
_space_group_symop_operation_xyz
x,y,z
-x,-y,z
1/4-x,1/4+y,1/4+z
1/4+x,1/4-y,1/4+z
x,1/2+y,1/2+z
-x,1/2-y,1/2+z
1/4-x,3/4+y,3/4+z
1/4+x,3/4-y,3/4+z
1/2+x,y,1/2+z
1/2-x,-y,1/2+z
3/4-x,1/4+y,3/4+z
3/4+x,1/4-y,3/4+z
1/2+x,1/2+y,z
1/2-x,1/2-y,z
3/4-x,3/4+y,1/4+z
3/4+x,3/4-y,1/4+z
loop_
_atom_site_type_symbol
_atom_site_label
_atom_site_fract_x
_atom_site_fract_y
_atom_site_fract_z
Si Si1 0.277819 0.074409 0.809420
Si Si2 0.416310 0.071506 0.932404
Si Si3 0.869486 0.849299 0.040893
Si Si4 0.556406 0.749822 0.914380
Si Si5 0.000000 0.500000 0.997798
Si Si6 0.890394 0.280489 0.877583
O O1 0.236736 0.021595 0.761952
O O2 0.265974 0.169660 0.855058
O O3 0.312538 0.068152 0.654063
O O4 0.298110 0.033786 0.975039
O O5 0.414632 0.168777 0.895694
O O6 0.381770 0.026036 0.815183
O O7 0.407388 0.053697 0.138575
O O8 0.461476 0.032726 0.879861
O O9 0.860301 0.831188 0.244282
O O10 0.857786 0.944478 0.024433
O O11 0.918610 0.822563 0.016096
#
# Coordination Sequence:
#
# PCOD8187597 Si02
#       6
#    16  16  16  16   8  16
#     4  11  24  45  71 104 141 192 227 301 353 425
#     4  11  25  48  66 104 139 189 231 302 346 420
#     4  12  25  42  68 107 134 187 233 289 349 426
#     4  11  24  45  68 101 147 178 237 293 355 418
#     4  10  26  44  74  96 146 182 236 284 364 410
#     4  12  25  43  75 101 140 185 240 281 362 419
#
# _framework density 22.242798000000001
#
# number of rings (size 3 to 8) (size 9 to 14) (size 15 to 20)
#    0.000    0.727    3.636    3.273    7.636    1.455 
#    0.000    0.909    0.000    0.000    0.000    0.000 
#    0.000    0.000    0.000    0.000    0.000    0.000 
#
# Total GULP energy -272623.183545 kJ/mol
# GULP energy per Si atom -12391.962888 kJ/mol
# Density = 2.219217 g / cm^3
# Si number density = 22.242798 Si / 1000 Ang^3
#
#
#
# Elastic Constant Matrix: (Units=GPa)
#
#
# Indices 1 2 3 4 5 6 
#
# 1 115.0702 41.6333 29.2871 0.0000 0.0000 0.0000
# 2 41.6333 96.1530 30.4476 0.0000 0.0000 0.0000
# 3 29.2871 30.4476 104.2243 0.0000 0.0000 0.0000
# 4 0.0000 0.0000 0.0000 31.6202 0.0000 0.0000
# 5 0.0000 0.0000 0.0000 0.0000 29.5044 0.0000
# 6 0.0000 0.0000 0.0000 0.0000 0.0000 36.7440
#
#
#
# Elastic Compliance Matrix: (Units=1/GPa)
#
#
# Indices 1 2 3 4 5 6 
#
# 1 0.010604 -0.004020 -0.001805 0.000000 0.000000 0.000000
# 2 -0.004020 0.012984 -0.002664 0.000000 0.000000 0.000000
# 3 -0.001805 -0.002664 0.010880 0.000000 0.000000 0.000000
# 4 0.000000 0.000000 0.000000 0.031625 0.000000 0.000000
# 5 0.000000 0.000000 0.000000 0.000000 0.033893 0.000000
# 6 0.000000 0.000000 0.000000 0.000000 0.000000 0.027215
#
#
# Mechanical properties :
#
#
# Convention : Reuss Voigt Hill
#
# Bulk Modulus (GPa) = 57.17286 57.57594 57.37440
# Shear Modulus (GPa) = 33.33104 33.84569 33.58836
#
# Velocity S-wave (km/s) = 3.87526 3.90506 3.89019
# Velocity P-wave (km/s) = 6.76633 6.80251 6.78444
#
# Compressibility (1/GPa) = 0.01749082
#
# Stress axis : x y z
#
# Youngs Moduli (GPa) = 94.30154 77.01742 91.91058
#
# Poissons Ratio (x) = 0.30960 0.16594
# Poissons Ratio (y) = 0.37908 0.24481
# Poissons Ratio (z) = 0.17026 0.20514
#
# Static dielectric constant tensor:
#      x y z
#    x 4.190020 0.000000 0.000000 
#    y 0.000000 4.107620 0.000000 
#    z 0.000000 0.000000 3.941350 
# 
# 
# High freq. dielectric constant tensor:
#      x y z
#    x 1.877610 0.000000 0.000000 
#    y 0.000000 1.881360 0.000000 
#    z 0.000000 0.000000 1.871460 
# 
# From -- ./inp_files/4705.got.cif
#   From: 2010.06.25/outbox.cif.g09.slc.cpg/sg43_3_cif.got.tgz:4705.got - 2010.06.26 16:48:59.
