data_PCOD8187129
_publ_section_title
;
Structure prediction by ZEFSAII (Michael W. Deem and Ramdas Pophale) SiO2 
 PCOD8187129
Probable space group: F D D 2
;
_chemical_formula_sum "Si O2"
_cell_formula_units_Z 96
_cell_length_a 19.963814
_cell_length_b 18.442801
_cell_length_c 12.739939
_cell_angle_alpha 90.000000
_cell_angle_beta 90.000000
_cell_angle_gamma 90.000000
_cell_volume 4690.700926
_symmetry_space_group_name_H-M "F D D 2"
_symmetry_group_IT_number 43
_symmetry_cell_setting 'orthorhombic'
loop_
_space_group_symop_operation_xyz
x,y,z
-x,-y,z
1/4-x,1/4+y,1/4+z
1/4+x,1/4-y,1/4+z
x,1/2+y,1/2+z
-x,1/2-y,1/2+z
1/4-x,3/4+y,3/4+z
1/4+x,3/4-y,3/4+z
1/2+x,y,1/2+z
1/2-x,-y,1/2+z
3/4-x,1/4+y,3/4+z
3/4+x,1/4-y,3/4+z
1/2+x,1/2+y,z
1/2-x,1/2-y,z
3/4-x,3/4+y,1/4+z
3/4+x,3/4-y,1/4+z
loop_
_atom_site_type_symbol
_atom_site_label
_atom_site_fract_x
_atom_site_fract_y
_atom_site_fract_z
Si Si1 0.987260 0.355361 0.609660
Si Si2 0.226792 0.602941 0.092706
Si Si3 0.737717 0.046299 0.644075
Si Si4 0.500000 0.000000 0.506192
Si Si5 0.118717 0.498269 0.126462
Si Si6 0.250000 0.750000 0.212229
Si Si7 0.589598 0.931239 0.337768
O O1 0.027444 0.314454 0.516543
O O2 0.972024 0.437845 0.580360
O O3 0.916130 0.318132 0.622115
O O4 0.029013 0.353767 0.716679
O O5 0.280005 0.538665 0.124249
O O6 0.152445 0.579103 0.134262
O O7 0.251839 0.678789 0.139120
O O8 0.817513 0.057582 0.614993
O O9 0.693854 0.101313 0.573569
O O10 0.440460 0.025760 0.433681
O O11 0.078267 0.476513 0.230890
O O12 0.067340 0.495173 0.030271
#
# Coordination Sequence:
#
# PCOD8187129 Si02
#       7
#    16  16  16   8  16   8  16
#     4  10  21  40  61  88 127 165 207 263 318 382
#     4  10  24  44  59  98 131 168 218 270 329 391
#     4   8  21  43  63  95 125 164 218 265 324 375
#     4  10  22  34  60  96 116 156 218 248 308 384
#     4   9  23  42  63  96 127 173 214 270 324 395
#     4  12  24  42  66  94 132 174 216 264 348 392
#     4  10  20  40  67  91 122 167 213 262 317 382
#
# _framework density 20.466023
#
# number of rings (size 3 to 8) (size 9 to 14) (size 15 to 20)
#    1.000    1.333    0.000    1.000    2.333    9.333 
#    6.000    0.000    0.000    0.000    0.000    0.000 
#    0.000    0.000    0.000    0.000    0.000    0.000 
#
# Total GULP energy -297339.981693 kJ/mol
# GULP energy per Si atom -12389.165904 kJ/mol
# Density = 2.041944 g / cm^3
# Si number density = 20.466023 Si / 1000 Ang^3
#
#
#
# Elastic Constant Matrix: (Units=GPa)
#
#
# Indices 1 2 3 4 5 6 
#
# 1 46.8364 14.7110 30.3105 0.0000 0.0000 0.0000
# 2 14.7110 145.7812 71.8541 0.0000 0.0000 0.0000
# 3 30.3105 71.8541 133.9273 0.0000 0.0000 0.0000
# 4 0.0000 0.0000 0.0000 18.6726 0.0000 0.0000
# 5 0.0000 0.0000 0.0000 0.0000 24.5410 0.0000
# 6 0.0000 0.0000 0.0000 0.0000 0.0000 33.5415
#
#
#
# Elastic Compliance Matrix: (Units=1/GPa)
#
#
# Indices 1 2 3 4 5 6 
#
# 1 0.025029 0.000362 -0.005859 0.000000 0.000000 0.000000
# 2 0.000362 0.009331 -0.005088 0.000000 0.000000 0.000000
# 3 -0.005859 -0.005088 0.011523 0.000000 0.000000 0.000000
# 4 0.000000 0.000000 0.000000 0.053555 0.000000 0.000000
# 5 0.000000 0.000000 0.000000 0.000000 0.040748 0.000000
# 6 0.000000 0.000000 0.000000 0.000000 0.000000 0.029814
#
#
# Mechanical properties :
#
#
# Convention : Reuss Voigt Hill
#
# Bulk Modulus (GPa) = 40.46530 62.25513 51.36022
# Shear Modulus (GPa) = 25.07447 29.32896 27.20172
#
# Velocity S-wave (km/s) = 3.50405 3.78968 3.64966
# Velocity P-wave (km/s) = 6.01548 7.04512 6.55056
#
# Compressibility (1/GPa) = 0.02471253
#
# Stress axis : x y z
#
# Youngs Moduli (GPa) = 39.95406 107.17019 86.78624
#
# Poissons Ratio (x) = -0.03880 0.50846
# Poissons Ratio (y) = -0.01446 0.44158
# Poissons Ratio (z) = 0.23408 0.54530
#
# Static dielectric constant tensor:
#      x y z
#    x 3.497570 0.000000 0.000000 
#    y 0.000000 4.005280 0.000000 
#    z 0.000000 0.000000 3.646520 
# 
# 
# High freq. dielectric constant tensor:
#      x y z
#    x 1.784690 0.000000 0.000000 
#    y 0.000000 1.798090 0.000000 
#    z 0.000000 0.000000 1.798890 
# 
# From -- ./inp_files/7112.got.cif
#   From: 2010.06.25/outbox.cif.g09.slc.cpg/sg43_4_cif.got.tgz:7112.got - 2010.06.26 16:48:59.
