data_PCOD8187446
_publ_section_title
;
Structure prediction by ZEFSAII (Michael W. Deem and Ramdas Pophale) SiO2 
 PCOD8187446
Probable space group: F D D 2
;
_chemical_formula_sum "Si O2"
_cell_formula_units_Z 120
_cell_length_a 7.603377
_cell_length_b 25.319570
_cell_length_c 26.834930
_cell_angle_alpha 90.000000
_cell_angle_beta 90.000000
_cell_angle_gamma 90.000000
_cell_volume 5166.106052
_symmetry_space_group_name_H-M "F D D 2"
_symmetry_group_IT_number 43
_symmetry_cell_setting 'orthorhombic'
loop_
_space_group_symop_operation_xyz
x,y,z
-x,-y,z
1/4-x,1/4+y,1/4+z
1/4+x,1/4-y,1/4+z
x,1/2+y,1/2+z
-x,1/2-y,1/2+z
1/4-x,3/4+y,3/4+z
1/4+x,3/4-y,3/4+z
1/2+x,y,1/2+z
1/2-x,-y,1/2+z
3/4-x,1/4+y,3/4+z
3/4+x,1/4-y,3/4+z
1/2+x,1/2+y,z
1/2-x,1/2-y,z
3/4-x,3/4+y,1/4+z
3/4+x,3/4-y,1/4+z
loop_
_atom_site_type_symbol
_atom_site_label
_atom_site_fract_x
_atom_site_fract_y
_atom_site_fract_z
Si Si1 0.189928 0.592582 0.447250
Si Si2 0.690048 0.399972 0.788831
Si Si3 0.474960 0.674477 0.449146
Si Si4 0.364492 0.105986 0.099767
Si Si5 0.543723 0.258869 0.252947
Si Si6 0.559369 0.871410 0.773115
Si Si7 0.500000 0.000000 0.265169
Si Si8 0.048221 0.250055 0.365507
O O1 0.067854 0.629723 0.481640
O O2 0.385404 0.617057 0.448133
O O3 0.125514 0.596847 0.390060
O O4 0.199179 0.531345 0.464533
O O5 0.566309 0.360884 0.819561
O O6 0.621528 0.459987 0.797526
O O7 0.893573 0.393175 0.805377
O O8 0.652980 0.665429 0.480738
O O9 0.375178 0.716452 0.481572
O O10 0.480277 0.696931 0.393014
O O11 0.527917 0.108288 0.060885
O O12 0.331987 0.049873 0.128610
O O13 0.750000 0.250000 0.255831
O O14 0.507680 0.319829 0.239908
O O15 0.455933 0.254238 0.306699
O O16 0.250000 0.250000 0.384225
#
# Coordination Sequence:
#
# PCOD8187446 Si02
#       8
#    16  16  16  16  16  16   8  16
#     4  11  24  44  74 101 155 196 246 312 382 452
#     4  11  24  48  73 107 150 198 249 314 378 453
#     4  11  23  41  70 116 138 194 247 312 381 444
#     4  12  24  50  70 111 153 201 252 322 385 460
#     4  12  22  46  70 104 149 206 243 312 387 454
#     4  12  25  45  80 105 157 195 255 321 380 458
#     4  10  22  44  72  98 152 186 236 316 380 444
#     4  12  25  40  74 112 144 193 262 313 387 459
#
# _framework density 23.228325999999999
#
# number of rings (size 3 to 8) (size 9 to 14) (size 15 to 20)
#    0.000    0.533    6.667    3.200    4.667    0.000 
#    0.000    2.667    0.000    0.000    0.000    0.000 
#    0.000    0.000    0.000    0.000    0.000    0.000 
#
# Total GULP energy -371673.825562 kJ/mol
# GULP energy per Si atom -12389.127519 kJ/mol
# Density = 2.317546 g / cm^3
# Si number density = 23.228326 Si / 1000 Ang^3
#
#
#
# Elastic Constant Matrix: (Units=GPa)
#
#
# Indices 1 2 3 4 5 6 
#
# 1 122.0312 47.6492 23.4074 0.0000 0.0000 0.0000
# 2 47.6492 153.2362 53.7923 0.0000 0.0000 0.0000
# 3 23.4074 53.7923 97.6211 0.0000 0.0000 0.0000
# 4 0.0000 0.0000 0.0000 44.3900 0.0000 0.0000
# 5 0.0000 0.0000 0.0000 0.0000 19.2103 0.0000
# 6 0.0000 0.0000 0.0000 0.0000 0.0000 26.6869
#
#
#
# Elastic Compliance Matrix: (Units=1/GPa)
#
#
# Indices 1 2 3 4 5 6 
#
# 1 0.009377 -0.002636 -0.000796 0.000000 0.000000 0.000000
# 2 -0.002636 0.008832 -0.004235 0.000000 0.000000 0.000000
# 3 -0.000796 -0.004235 0.012768 0.000000 0.000000 0.000000
# 4 0.000000 0.000000 0.000000 0.022528 0.000000 0.000000
# 5 0.000000 0.000000 0.000000 0.000000 0.052055 0.000000
# 6 0.000000 0.000000 0.000000 0.000000 0.000000 0.037472
#
#
# Mechanical properties :
#
#
# Convention : Reuss Voigt Hill
#
# Bulk Modulus (GPa) = 63.92454 69.17625 66.55039
# Shear Modulus (GPa) = 30.56627 34.59343 32.57985
#
# Velocity S-wave (km/s) = 3.63148 3.86330 3.74918
# Velocity P-wave (km/s) = 6.72037 7.05307 6.88873
#
# Compressibility (1/GPa) = 0.01564344
#
# Stress axis : x y z
#
# Youngs Moduli (GPa) = 106.64778 113.22181 78.32154
#
# Poissons Ratio (x) = 0.29850 0.06231
# Poissons Ratio (y) = 0.28117 0.33167
# Poissons Ratio (z) = 0.08485 0.47946
#
# Static dielectric constant tensor:
#      x y z
#    x 4.336250 0.000000 0.000000 
#    y 0.000000 4.380190 0.000000 
#    z 0.000000 0.000000 4.024840 
# 
# 
# High freq. dielectric constant tensor:
#      x y z
#    x 1.926560 0.000000 0.000000 
#    y 0.000000 1.921650 0.000000 
#    z 0.000000 0.000000 1.893820 
# 
# From -- ./inp_files/28133.got.cif
#   From: 2010.06.25/outbox.cif.g09.slc.cpg/sg43_15_cif.got.tgz:28133.got - 2010.06.26 16:48:59.
