data_PCOD8187585
_publ_section_title
;
Structure prediction by ZEFSAII (Michael W. Deem and Ramdas Pophale) SiO2 
 PCOD8187585
Probable space group: F D D 2
;
_chemical_formula_sum "Si O2"
_cell_formula_units_Z 112
_cell_length_a 13.166343
_cell_length_b 17.078777
_cell_length_c 23.695796
_cell_angle_alpha 90.000000
_cell_angle_beta 90.000000
_cell_angle_gamma 90.000000
_cell_volume 5328.356021
_symmetry_space_group_name_H-M "F D D 2"
_symmetry_group_IT_number 43
_symmetry_cell_setting 'orthorhombic'
loop_
_space_group_symop_operation_xyz
x,y,z
-x,-y,z
1/4-x,1/4+y,1/4+z
1/4+x,1/4-y,1/4+z
x,1/2+y,1/2+z
-x,1/2-y,1/2+z
1/4-x,3/4+y,3/4+z
1/4+x,3/4-y,3/4+z
1/2+x,y,1/2+z
1/2-x,-y,1/2+z
3/4-x,1/4+y,3/4+z
3/4+x,1/4-y,3/4+z
1/2+x,1/2+y,z
1/2-x,1/2-y,z
3/4-x,3/4+y,1/4+z
3/4+x,3/4-y,1/4+z
loop_
_atom_site_type_symbol
_atom_site_label
_atom_site_fract_x
_atom_site_fract_y
_atom_site_fract_z
Si Si1 0.318015 0.961129 0.692110
Si Si2 0.904722 0.553184 0.789957
Si Si3 0.715860 0.425774 0.979286
Si Si4 0.247375 0.536526 0.378136
Si Si5 0.166717 0.688513 0.433246
Si Si6 0.363577 0.730322 0.827581
Si Si7 0.410620 0.053640 0.314094
O O1 0.373472 0.877444 0.705139
O O2 0.200949 0.957213 0.673173
O O3 0.370961 0.011734 0.641560
O O4 0.325598 0.010399 0.748931
O O5 0.851269 0.569358 0.850353
O O6 0.000000 0.500000 0.804297
O O7 0.941545 0.630044 0.757791
O O8 0.765445 0.474922 0.928436
O O9 0.680715 0.483167 0.028870
O O10 0.182266 0.607054 0.402245
O O11 0.191194 0.494287 0.326123
O O12 0.250000 0.750000 0.408556
O O13 0.185584 0.681302 0.499302
O O14 0.250000 0.750000 0.808424
O O15 0.395512 0.640059 0.839262
O O16 0.500000 0.000000 0.341657
#
# Coordination Sequence:
#
# PCOD8187585 Si02
#       7
#    16  16  16  16  16  16  16
#     4  11  23  44  68 100 138 177 228 288 340 402
#     4  10  25  44  66 100 139 181 222 280 344 415
#     4  11  25  41  72 104 134 174 234 279 346 406
#     4  12  24  45  70  98 138 178 228 281 349 404
#     4  11  25  44  67  98 140 182 229 278 341 416
#     4  12  24  39  72 105 134 172 231 289 343 401
#     4  11  23  43  66 101 138 179 221 287 347 402
#
# _framework density 21.019615999999999
#
# number of rings (size 3 to 8) (size 9 to 14) (size 15 to 20)
#    0.000    0.857    4.286    3.000    4.000    0.000 
#    0.000    0.000    0.000    0.000    0.000    0.000 
#    0.000    0.000    0.000    0.000    0.000    0.000 
#
# Total GULP energy -346964.794704 kJ/mol
# GULP energy per Si atom -12391.599811 kJ/mol
# Density = 2.097177 g / cm^3
# Si number density = 21.019616 Si / 1000 Ang^3
#
#
#
# Elastic Constant Matrix: (Units=GPa)
#
#
# Indices 1 2 3 4 5 6 
#
# 1 119.0846 56.8236 54.2421 0.0000 0.0000 0.0000
# 2 56.8236 106.9705 41.9156 0.0000 0.0000 0.0000
# 3 54.2421 41.9156 112.1257 0.0000 0.0000 0.0000
# 4 0.0000 0.0000 0.0000 36.6624 0.0000 0.0000
# 5 0.0000 0.0000 0.0000 0.0000 30.3996 0.0000
# 6 0.0000 0.0000 0.0000 0.0000 0.0000 24.7549
#
#
#
# Elastic Compliance Matrix: (Units=1/GPa)
#
#
# Indices 1 2 3 4 5 6 
#
# 1 0.012785 -0.005118 -0.004272 0.000000 0.000000 0.000000
# 2 -0.005118 0.013001 -0.002384 0.000000 0.000000 0.000000
# 3 -0.004272 -0.002384 0.011877 0.000000 0.000000 0.000000
# 4 0.000000 0.000000 0.000000 0.027276 0.000000 0.000000
# 5 0.000000 0.000000 0.000000 0.000000 0.032895 0.000000
# 6 0.000000 0.000000 0.000000 0.000000 0.000000 0.040396
#
#
# Mechanical properties :
#
#
# Convention : Reuss Voigt Hill
#
# Bulk Modulus (GPa) = 70.84707 71.57148 71.20927
# Shear Modulus (GPa) = 30.03307 30.71002 30.37154
#
# Velocity S-wave (km/s) = 3.78406 3.82647 3.80533
# Velocity P-wave (km/s) = 7.27121 7.32436 7.29784
#
# Compressibility (1/GPa) = 0.01411491
#
# Stress axis : x y z
#
# Youngs Moduli (GPa) = 78.21542 76.91546 84.19988
#
# Poissons Ratio (x) = 0.39363 0.35969
# Poissons Ratio (y) = 0.40028 0.20077
# Poissons Ratio (z) = 0.33412 0.18340
#
# Static dielectric constant tensor:
#      x y z
#    x 3.768320 0.000000 0.000000 
#    y 0.000000 2.474920 0.000000 
#    z 0.000000 0.000000 3.878690 
# 
# 
# High freq. dielectric constant tensor:
#      x y z
#    x 1.820020 0.000000 0.000000 
#    y 0.000000 1.816240 0.000000 
#    z 0.000000 0.000000 1.840080 
# 
# From -- ./inp_files/21734.got.cif
#   From: 2010.06.25/outbox.cif.g09.slc.cpg/sg43_11_cif.got.tgz:21734.got - 2010.06.26 16:48:59.
