data_PCOD8187601
_publ_section_title
;
Structure prediction by ZEFSAII (Michael W. Deem and Ramdas Pophale) SiO2 
 PCOD8187601
Probable space group: F D D 2
;
_chemical_formula_sum "Si O2"
_cell_formula_units_Z 104
_cell_length_a 16.855521
_cell_length_b 16.855543
_cell_length_c 15.528121
_cell_angle_alpha 90.000000
_cell_angle_beta 90.000000
_cell_angle_gamma 90.000000
_cell_volume 4411.678293
_symmetry_space_group_name_H-M "F D D 2"
_symmetry_group_IT_number 43
_symmetry_cell_setting 'orthorhombic'
loop_
_space_group_symop_operation_xyz
x,y,z
-x,-y,z
1/4-x,1/4+y,1/4+z
1/4+x,1/4-y,1/4+z
x,1/2+y,1/2+z
-x,1/2-y,1/2+z
1/4-x,3/4+y,3/4+z
1/4+x,3/4-y,3/4+z
1/2+x,y,1/2+z
1/2-x,-y,1/2+z
3/4-x,1/4+y,3/4+z
3/4+x,1/4-y,3/4+z
1/2+x,1/2+y,z
1/2-x,1/2-y,z
3/4-x,3/4+y,1/4+z
3/4+x,3/4-y,1/4+z
loop_
_atom_site_type_symbol
_atom_site_label
_atom_site_fract_x
_atom_site_fract_y
_atom_site_fract_z
Si Si1 0.408223 0.981058 0.437790
Si Si2 0.222968 0.948350 0.834637
Si Si3 0.187851 0.909665 0.270870
Si Si4 0.301651 0.527033 0.080815
Si Si5 0.518941 0.408223 0.227662
Si Si6 0.000000 0.500000 0.082726
Si Si7 0.159665 0.937852 0.644582
O O1 0.393173 0.904274 0.376687
O O2 0.500000 0.000000 0.445302
O O3 0.359783 0.047842 0.386429
O O4 0.370962 0.974478 0.535039
O O5 0.275522 0.879038 0.880413
O O6 0.203145 0.931479 0.736536
O O7 0.273691 0.030335 0.840209
O O8 0.181477 0.953146 0.178917
O O9 0.095725 0.893173 0.288765
O O10 0.236654 0.826933 0.271921
O O11 0.219665 0.476310 0.075244
O O12 0.297843 0.609783 0.029023
O O13 0.500000 0.500000 0.220149
O O14 0.076933 0.486654 0.143530
#
# Coordination Sequence:
#
# PCOD8187601 Si02
#       7
#    16  16  16  16  16   8  16
#     4  11  26  45  73 104 145 195 240 307 367 445
#     4  10  26  46  67 110 142 187 248 299 372 442
#     4  11  25  46  74 106 146 190 245 303 374 448
#     4  10  26  46  67 110 142 187 248 299 372 442
#     4  11  26  45  73 104 145 195 240 307 367 445
#     4  12  24  48  76 112 144 196 246 312 376 444
#     4  11  25  46  74 106 146 190 245 303 374 448
#
# _framework density 23.573795
#
# number of rings (size 3 to 8) (size 9 to 14) (size 15 to 20)
#    0.000    1.231    3.077    0.000   10.769    2.462 
#    0.000    0.000    0.000    0.000    0.000    0.000 
#    0.000    0.000    0.000    0.000    0.000    0.000 
#
# Total GULP energy -322219.142635 kJ/mol
# GULP energy per Si atom -12393.043948 kJ/mol
# Density = 2.352014 g / cm^3
# Si number density = 23.573795 Si / 1000 Ang^3
#
#
#
# Elastic Constant Matrix: (Units=GPa)
#
#
# Indices 1 2 3 4 5 6 
#
# 1 146.7482 46.1587 25.2619 0.0000 0.0000 0.0000
# 2 46.1587 146.7497 25.2628 0.0000 0.0000 0.0000
# 3 25.2619 25.2628 69.8446 0.0000 0.0000 0.0000
# 4 0.0000 0.0000 0.0000 30.2162 0.0000 0.0000
# 5 0.0000 0.0000 0.0000 0.0000 30.2160 0.0000
# 6 0.0000 0.0000 0.0000 0.0000 0.0000 28.0334
#
#
#
# Elastic Compliance Matrix: (Units=1/GPa)
#
#
# Indices 1 2 3 4 5 6 
#
# 1 0.007834 -0.002108 -0.002071 0.000000 0.000000 0.000000
# 2 -0.002108 0.007834 -0.002071 0.000000 0.000000 0.000000
# 3 -0.002071 -0.002071 0.015816 0.000000 0.000000 0.000000
# 4 0.000000 0.000000 0.000000 0.033095 0.000000 0.000000
# 5 0.000000 0.000000 0.000000 0.000000 0.033095 0.000000
# 6 0.000000 0.000000 0.000000 0.000000 0.000000 0.035672
#
#
# Mechanical properties :
#
#
# Convention : Reuss Voigt Hill
#
# Bulk Modulus (GPa) = 52.67683 61.85659 57.26671
# Shear Modulus (GPa) = 32.85745 35.47041 34.16393
#
# Velocity S-wave (km/s) = 3.73743 3.88320 3.81101
# Velocity P-wave (km/s) = 6.40457 6.81191 6.61138
#
# Compressibility (1/GPa) = 0.01898368
#
# Stress axis : x y z
#
# Youngs Moduli (GPa) = 127.65154 127.65235 63.22814
#
# Poissons Ratio (x) = 0.26903 0.13095
# Poissons Ratio (y) = 0.26903 0.13096
# Poissons Ratio (z) = 0.26438 0.26440
#
# Static dielectric constant tensor:
#      x y z
#    x 4.629440 0.000000 0.000000 
#    y 0.000000 4.629480 0.000000 
#    z 0.000000 0.000000 4.082110 
# 
# 
# High freq. dielectric constant tensor:
#      x y z
#    x 1.945540 0.000000 0.000000 
#    y 0.000000 1.945540 0.000000 
#    z 0.000000 0.000000 1.913810 
# 
# From -- ./inp_files/14256.got.cif
#   From: 2010.06.25/outbox.cif.g09.slc.cpg/sg43_8_cif.got.tgz:14256.got - 2010.06.26 16:48:59.
