data_PCOD8187378
_publ_section_title
;
Structure prediction by ZEFSAII (Michael W. Deem and Ramdas Pophale) SiO2 
 PCOD8187378
Probable space group: F D D 2
;
_chemical_formula_sum "Si O2"
_cell_formula_units_Z 80
_cell_length_a 6.049047
_cell_length_b 28.457174
_cell_length_c 17.946316
_cell_angle_alpha 90.000000
_cell_angle_beta 90.000000
_cell_angle_gamma 90.000000
_cell_volume 3089.256996
_symmetry_space_group_name_H-M "F D D 2"
_symmetry_group_IT_number 43
_symmetry_cell_setting 'orthorhombic'
loop_
_space_group_symop_operation_xyz
x,y,z
-x,-y,z
1/4-x,1/4+y,1/4+z
1/4+x,1/4-y,1/4+z
x,1/2+y,1/2+z
-x,1/2-y,1/2+z
1/4-x,3/4+y,3/4+z
1/4+x,3/4-y,3/4+z
1/2+x,y,1/2+z
1/2-x,-y,1/2+z
3/4-x,1/4+y,3/4+z
3/4+x,1/4-y,3/4+z
1/2+x,1/2+y,z
1/2-x,1/2-y,z
3/4-x,3/4+y,1/4+z
3/4+x,3/4-y,1/4+z
loop_
_atom_site_type_symbol
_atom_site_label
_atom_site_fract_x
_atom_site_fract_y
_atom_site_fract_z
Si Si1 0.857803 0.896114 0.096150
Si Si2 0.113757 0.796581 0.597794
Si Si3 0.004653 0.770212 0.756868
Si Si4 0.076694 0.829400 0.306476
Si Si5 0.319291 0.587731 0.214346
O O1 0.769075 0.843014 0.096353
O O2 0.692358 0.938273 0.067892
O O3 0.072511 0.902994 0.041759
O O4 0.934431 0.910275 0.179783
O O5 0.250000 0.750000 0.588336
O O6 0.977510 0.792072 0.674491
O O7 0.949817 0.796798 0.526366
O O8 0.250000 0.750000 0.773499
O O9 0.863433 0.721822 0.770092
O O10 0.111657 0.832337 0.397058
O O11 0.234269 0.865141 0.261389
#
# Coordination Sequence:
#
# PCOD8187378 Si02
#       5
#    16  16  16  16  16
#     4   9  20  39  65  95 130 176 219 281 327 397
#     4  11  23  41  68  95 130 181 228 275 339 409
#     4   9  18  39  64  85 132 174 214 265 353 386
#     4   9  21  43  63  94 130 171 219 283 332 403
#     4  10  22  41  65  95 132 167 234 272 335 407
#
# _framework density 25.896191999999999
#
# number of rings (size 3 to 8) (size 9 to 14) (size 15 to 20)
#    1.200    1.200    0.000    3.600    2.800    0.000 
#   10.800    1.000    4.400    0.000    0.000    0.000 
#    0.000    0.000    0.000    0.000    0.000    0.000 
#
# Total GULP energy -247777.800439 kJ/mol
# GULP energy per Si atom -12388.890022 kJ/mol
# Density = 2.583725 g / cm^3
# Si number density = 25.896192 Si / 1000 Ang^3
#
#
#
# Elastic Constant Matrix: (Units=GPa)
#
#
# Indices 1 2 3 4 5 6 
#
# 1 82.5407 68.6889 47.0653 0.0000 0.0000 0.0000
# 2 68.6889 202.7988 121.4291 0.0000 0.0000 0.0000
# 3 47.0653 121.4291 231.4211 0.0000 0.0000 0.0000
# 4 0.0000 0.0000 0.0000 55.2566 0.0000 0.0000
# 5 0.0000 0.0000 0.0000 0.0000 26.8494 0.0000
# 6 0.0000 0.0000 0.0000 0.0000 0.0000 52.7421
#
#
#
# Elastic Compliance Matrix: (Units=1/GPa)
#
#
# Indices 1 2 3 4 5 6 
#
# 1 0.016934 -0.005356 -0.000633 0.000000 0.000000 0.000000
# 2 -0.005356 0.008884 -0.003572 0.000000 0.000000 0.000000
# 3 -0.000633 -0.003572 0.006324 0.000000 0.000000 0.000000
# 4 0.000000 0.000000 0.000000 0.018097 0.000000 0.000000
# 5 0.000000 0.000000 0.000000 0.000000 0.037245 0.000000
# 6 0.000000 0.000000 0.000000 0.000000 0.000000 0.018960
#
#
# Mechanical properties :
#
#
# Convention : Reuss Voigt Hill
#
# Bulk Modulus (GPa) = 76.81448 110.12521 93.46985
# Shear Modulus (GPa) = 38.48873 45.60810 42.04842
#
# Velocity S-wave (km/s) = 3.85940 4.20121 4.03392
# Velocity P-wave (km/s) = 7.04179 8.13336 7.60718
#
# Compressibility (1/GPa) = 0.01301838
#
# Stress axis : x y z
#
# Youngs Moduli (GPa) = 59.05335 112.55989 158.11886
#
# Poissons Ratio (x) = 0.60291 0.10015
# Poissons Ratio (y) = 0.31631 0.56484
# Poissons Ratio (z) = 0.03740 0.40209
#
# Static dielectric constant tensor:
#      x y z
#    x 4.937610 0.000000 0.000000 
#    y 0.000000 4.875670 0.000000 
#    z 0.000000 0.000000 4.952150 
# 
# 
# High freq. dielectric constant tensor:
#      x y z
#    x 2.066990 0.000000 0.000000 
#    y 0.000000 2.053580 0.000000 
#    z 0.000000 0.000000 2.034060 
# 
# From -- ./inp_files/12755.got.cif
#   From: 2010.06.25/outbox.cif.g09.slc.cpg/sg43_7_cif.got.tgz:12755.got - 2010.06.26 16:48:59.
