data_PCOD8187566
_publ_section_title
;
Structure prediction by ZEFSAII (Michael W. Deem and Ramdas Pophale) SiO2 
 PCOD8187566
Probable space group: F D D 2
;
_chemical_formula_sum "Si O2"
_cell_formula_units_Z 120
_cell_length_a 24.844920
_cell_length_b 18.260793
_cell_length_c 11.762330
_cell_angle_alpha 90.000000
_cell_angle_beta 90.000000
_cell_angle_gamma 90.000000
_cell_volume 5336.427282
_symmetry_space_group_name_H-M "F D D 2"
_symmetry_group_IT_number 43
_symmetry_cell_setting 'orthorhombic'
loop_
_space_group_symop_operation_xyz
x,y,z
-x,-y,z
1/4-x,1/4+y,1/4+z
1/4+x,1/4-y,1/4+z
x,1/2+y,1/2+z
-x,1/2-y,1/2+z
1/4-x,3/4+y,3/4+z
1/4+x,3/4-y,3/4+z
1/2+x,y,1/2+z
1/2-x,-y,1/2+z
3/4-x,1/4+y,3/4+z
3/4+x,1/4-y,3/4+z
1/2+x,1/2+y,z
1/2-x,1/2-y,z
3/4-x,3/4+y,1/4+z
3/4+x,3/4-y,1/4+z
loop_
_atom_site_type_symbol
_atom_site_label
_atom_site_fract_x
_atom_site_fract_y
_atom_site_fract_z
Si Si1 0.701014 0.960307 0.868380
Si Si2 0.500000 0.500000 0.614971
Si Si3 0.637068 0.884929 0.045969
Si Si4 0.521560 0.373319 0.476152
Si Si5 0.646250 0.374197 0.945112
Si Si6 0.482520 0.139374 0.715725
Si Si7 0.852831 0.282626 0.506117
Si Si8 0.383607 0.046125 0.676685
O O1 0.759328 0.945877 0.809929
O O2 0.654084 0.935762 0.782777
O O3 0.699483 0.044031 0.909335
O O4 0.690156 0.908560 0.977246
O O5 0.481134 0.435316 0.528633
O O6 0.455124 0.531231 0.699047
O O7 0.630905 0.797549 0.049828
O O8 0.642861 0.927510 0.165995
O O9 0.581169 0.908091 0.984917
O O10 0.507748 0.348879 0.349595
O O11 0.708892 0.382356 0.908756
O O12 0.604378 0.419092 0.868689
O O13 0.630073 0.291168 0.918192
O O14 0.638514 0.406304 0.071338
O O15 0.445915 0.067504 0.699044
#
# Coordination Sequence:
#
# PCOD8187566 Si02
#       8
#    16   8  16  16  16  16  16  16
#     4  12  24  43  71 110 145 186 246 314 375 442
#     4  10  24  44  74 102 140 192 248 312 366 452
#     4  11  23  42  72  99 144 181 243 300 371 434
#     4  11  23  41  71 105 139 187 245 299 371 440
#     4  12  27  49  73 103 155 199 251 311 383 461
#     4  12  26  44  75 109 147 198 253 312 380 458
#     4  11  24  47  67 105 142 196 240 306 371 450
#     4  12  26  48  72 107 149 197 252 314 377 457
#
# _framework density 22.486954999999998
#
# number of rings (size 3 to 8) (size 9 to 14) (size 15 to 20)
#    0.000    0.533    5.333    2.800    1.867    1.067 
#    4.800    0.000    0.000    0.000    0.000    0.000 
#    0.000    0.000    0.000    0.000    0.000    0.000 
#
# Total GULP energy -371754.645388 kJ/mol
# GULP energy per Si atom -12391.821513 kJ/mol
# Density = 2.243577 g / cm^3
# Si number density = 22.486955 Si / 1000 Ang^3
#
#
#
# Elastic Constant Matrix: (Units=GPa)
#
#
# Indices 1 2 3 4 5 6 
#
# 1 79.9494 17.2884 28.0203 0.0000 0.0000 0.0000
# 2 17.2884 146.1367 40.9030 0.0000 0.0000 0.0000
# 3 28.0203 40.9030 96.4433 0.0000 0.0000 0.0000
# 4 0.0000 0.0000 0.0000 40.1420 0.0000 0.0000
# 5 0.0000 0.0000 0.0000 0.0000 36.7471 0.0000
# 6 0.0000 0.0000 0.0000 0.0000 0.0000 30.0625
#
#
#
# Elastic Compliance Matrix: (Units=1/GPa)
#
#
# Indices 1 2 3 4 5 6 
#
# 1 0.013970 -0.000586 -0.003810 0.000000 0.000000 0.000000
# 2 -0.000586 0.007789 -0.003133 0.000000 0.000000 0.000000
# 3 -0.003810 -0.003133 0.012805 0.000000 0.000000 0.000000
# 4 0.000000 0.000000 0.000000 0.024912 0.000000 0.000000
# 5 0.000000 0.000000 0.000000 0.000000 0.027213 0.000000
# 6 0.000000 0.000000 0.000000 0.000000 0.000000 0.033264
#
#
# Mechanical properties :
#
#
# Convention : Reuss Voigt Hill
#
# Bulk Modulus (GPa) = 51.26980 54.99475 53.13228
# Shear Modulus (GPa) = 35.33236 37.14482 36.23859
#
# Velocity S-wave (km/s) = 3.96818 4.06869 4.01875
# Velocity P-wave (km/s) = 6.62153 6.82508 6.72407
#
# Compressibility (1/GPa) = 0.01950466
#
# Stress axis : x y z
#
# Youngs Moduli (GPa) = 71.58170 128.38231 78.09684
#
# Poissons Ratio (x) = 0.07526 0.29756
# Poissons Ratio (y) = 0.04196 0.24469
# Poissons Ratio (z) = 0.27274 0.40225
#
# Static dielectric constant tensor:
#      x y z
#    x 4.026490 0.000000 0.000000 
#    y 0.000000 4.173440 0.000000 
#    z 0.000000 0.000000 4.098020 
# 
# 
# High freq. dielectric constant tensor:
#      x y z
#    x 1.878570 0.000000 0.000000 
#    y 0.000000 1.897580 0.000000 
#    z 0.000000 0.000000 1.887680 
# 
# From -- ./inp_files/6821.got.cif
#   From: 2010.06.25/outbox.cif.g09.slc.cpg/sg43_4_cif.got.tgz:6821.got - 2010.06.26 16:48:59.
