data_PCOD8187974
_publ_section_title
;
Structure prediction by ZEFSAII (Michael W. Deem and Ramdas Pophale) SiO2 
 PCOD8187974
Probable space group: I M M 2
;
_chemical_formula_sum "Si O2"
_cell_formula_units_Z 64
_cell_length_a 8.853514
_cell_length_b 30.969960
_cell_length_c 12.010060
_cell_angle_alpha 90.000000
_cell_angle_beta 90.000000
_cell_angle_gamma 90.000000
_cell_volume 3293.074075
_symmetry_space_group_name_H-M "I M M 2"
_symmetry_group_IT_number 44
_symmetry_cell_setting 'orthorhombic'
loop_
_space_group_symop_operation_xyz
x,y,z
-x,-y,z
-x,y,z
x,-y,z
1/2+x,1/2+y,1/2+z
1/2-x,1/2-y,1/2+z
1/2-x,1/2+y,1/2+z
1/2+x,1/2-y,1/2+z
loop_
_atom_site_type_symbol
_atom_site_label
_atom_site_fract_x
_atom_site_fract_y
_atom_site_fract_z
Si Si1 0.820775 0.128220 0.009530
Si Si2 0.678178 0.203947 0.869416
Si Si3 0.823020 0.294880 0.908861
Si Si4 0.678232 0.047543 0.401092
Si Si5 0.321697 0.833448 0.638168
Si Si6 0.677233 0.874599 0.249742
Si Si7 0.679461 0.070326 0.643681
Si Si8 0.825629 0.952585 0.866367
O O1 0.765998 0.125965 0.135309
O O2 0.000000 0.130222 0.008164
O O3 0.757478 0.171598 0.954697
O O4 0.759667 0.085474 0.944945
O O5 0.500000 0.198647 0.885151
O O6 0.726667 0.252622 0.887745
O O7 0.730711 0.193865 0.744092
O O8 0.790121 0.330199 0.814332
O O9 0.000000 0.283394 0.913961
O O10 0.759276 0.312322 0.025854
O O11 0.500000 0.054132 0.406639
O O12 0.742778 0.085092 0.321528
O O13 0.740500 0.051114 0.527143
O O14 0.721708 0.000000 0.354039
O O15 0.500000 0.836419 0.627635
O O16 0.256632 0.881237 0.652083
O O17 0.500000 0.880152 0.226176
O O18 0.500000 0.067760 0.649625
O O19 0.743582 0.044514 0.747903
O O20 0.000000 0.943022 0.843985
O O21 0.802882 0.000000 0.923182
#
# Coordination Sequence:
#
# PCOD8187974 Si02
#       8
#     8   8   8   8   8   8   8   8
#     4  11  24  41  59  80 112 154 196 237 286 337
#     4  11  23  39  60  88 117 147 190 238 283 336
#     4  10  21  39  60  85 118 154 187 228 288 344
#     4   9  17  31  56  89 119 148 186 233 285 337
#     4   9  18  35  60  85 115 148 180 229 284 335
#     4  10  21  38  59  83 116 153 192 237 284 335
#     4  10  17  33  60  89 116 146 184 228 282 340
#     4  10  22  39  57  81 115 152 188 231 285 340
#
# _framework density 19.434729000000001
#
# number of rings (size 3 to 8) (size 9 to 14) (size 15 to 20)
#    0.000    2.000    2.500    1.125    1.750    2.250 
#    0.000    1.875    0.000    0.750    0.000    0.000 
#    0.000    0.000    0.000    0.000    0.000    0.000 
#
# Total GULP energy -396756.863500 kJ/mol
# GULP energy per Si atom -12398.651984 kJ/mol
# Density = 1.939049 g / cm^3
# Si number density = 19.434729 Si / 1000 Ang^3
#
#
#
# Elastic Constant Matrix: (Units=GPa)
#
#
# Indices 1 2 3 4 5 6 
#
# 1 41.0587 31.1414 36.5237 -0.0022 0.0000 0.0000
# 2 31.1414 146.1755 60.2012 -0.0069 -0.0011 0.0004
# 3 36.5237 60.2012 140.7626 -0.0138 -0.0028 0.0003
# 4 -0.0022 -0.0069 -0.0138 26.4447 -0.0037 0.0004
# 5 0.0000 -0.0011 -0.0028 -0.0037 20.7214 -0.0004
# 6 0.0000 0.0004 0.0003 0.0004 -0.0004 14.2530
#
#
#
# Elastic Compliance Matrix: (Units=1/GPa)
#
#
# Indices 1 2 3 4 5 6 
#
# 1 0.033805 -0.004357 -0.006908 -0.000002 -0.000001 0.000000
# 2 -0.004357 0.008865 -0.002661 0.000001 0.000000 0.000000
# 3 -0.006908 -0.002661 0.010035 0.000004 0.000001 0.000000
# 4 -0.000002 0.000001 0.000004 0.037815 0.000007 -0.000001
# 5 -0.000001 0.000000 0.000001 0.000007 0.048259 0.000001
# 6 0.000000 0.000000 0.000000 -0.000001 0.000001 0.070161
#
#
# Mechanical properties :
#
#
# Convention : Reuss Voigt Hill
#
# Bulk Modulus (GPa) = 40.23659 64.85883 52.54771
# Shear Modulus (GPa) = 20.40188 25.62584 23.01386
#
# Velocity S-wave (km/s) = 3.24352 3.63514 3.44490
# Velocity P-wave (km/s) = 5.89709 7.14591 6.55132
#
# Compressibility (1/GPa) = 0.02485300
#
# Stress axis : x y z
#
# Youngs Moduli (GPa) = 29.58157 112.80097 99.65474
#
# Poissons Ratio (x) = 0.49145 0.68842
# Poissons Ratio (y) = 0.12888 0.26518
# Poissons Ratio (z) = 0.20435 0.30016
#
# Static dielectric constant tensor:
#      x y z
#    x 3.193490 0.000000 0.000000 
#    y 0.000000 3.754090 0.000000 
#    z 0.000000 0.000000 3.684680 
# 
# 
# High freq. dielectric constant tensor:
#      x y z
#    x 1.722970 0.000000 0.000000 
#    y 0.000000 1.775930 0.000000 
#    z 0.000000 0.000000 1.762390 
# 
# From -- ./inp_files/11461.got.cif
#   From: 2010.03.12/outbox.cif.g09.slc.cpg/sg44_6_cif.got.tgz:11461.got - 2010.04.14 02:36:11.
