data_PCOD8187757
_publ_section_title
;
Structure prediction by ZEFSAII (Michael W. Deem and Ramdas Pophale) SiO2 
 PCOD8187757
Probable space group: F D D 2
;
_chemical_formula_sum "Si O2"
_cell_formula_units_Z 72
_cell_length_a 20.806042
_cell_length_b 18.861004
_cell_length_c 7.430254
_cell_angle_alpha 90.000000
_cell_angle_beta 90.000000
_cell_angle_gamma 90.000000
_cell_volume 2915.801387
_symmetry_space_group_name_H-M "F D D 2"
_symmetry_group_IT_number 43
_symmetry_cell_setting 'orthorhombic'
loop_
_space_group_symop_operation_xyz
x,y,z
-x,-y,z
1/4-x,1/4+y,1/4+z
1/4+x,1/4-y,1/4+z
x,1/2+y,1/2+z
-x,1/2-y,1/2+z
1/4-x,3/4+y,3/4+z
1/4+x,3/4-y,3/4+z
1/2+x,y,1/2+z
1/2-x,-y,1/2+z
3/4-x,1/4+y,3/4+z
3/4+x,1/4-y,3/4+z
1/2+x,1/2+y,z
1/2-x,1/2-y,z
3/4-x,3/4+y,1/4+z
3/4+x,3/4-y,1/4+z
loop_
_atom_site_type_symbol
_atom_site_label
_atom_site_fract_x
_atom_site_fract_y
_atom_site_fract_z
Si Si1 0.246403 0.015032 0.355830
Si Si2 0.142808 0.604920 0.682702
Si Si3 0.891419 0.489188 0.355578
Si Si4 0.500000 0.000000 0.086099
Si Si5 0.472196 0.364300 0.427623
O O1 0.205708 0.057384 0.206645
O O2 0.319565 0.005211 0.287943
O O3 0.243181 0.059773 0.538999
O O4 0.214680 0.935380 0.357245
O O5 0.106462 0.572151 0.507777
O O6 0.169132 0.684774 0.668367
O O7 0.094180 0.603849 0.851768
O O8 0.939035 0.468142 0.194186
O O9 0.519229 0.931385 0.965556
#
# Coordination Sequence:
#
# PCOD8187757 Si02
#       5
#    16  16  16   8  16
#     4  11  24  52  74 106 154 206 252 305 405 447
#     4  11  24  49  75 111 143 211 252 313 385 465
#     4  11  27  47  76 106 158 198 256 324 377 463
#     4  12  30  46  72 126 150 196 270 320 384 456
#     4  11  28  45  78 111 154 204 249 325 379 468
#
# _framework density 24.69304
#
# number of rings (size 3 to 8) (size 9 to 14) (size 15 to 20)
#    0.000    0.889    4.444    1.333   12.444    0.000 
#    0.000    0.000    0.000    0.000    0.000    0.000 
#    0.000    0.000    0.000    0.000    0.000    0.000 
#
# Total GULP energy -222995.925654 kJ/mol
# GULP energy per Si atom -12388.662536 kJ/mol
# Density = 2.463684 g / cm^3
# Si number density = 24.693040 Si / 1000 Ang^3
#
#
#
# Elastic Constant Matrix: (Units=GPa)
#
#
# Indices 1 2 3 4 5 6 
#
# 1 105.7978 20.1961 45.9005 0.0002 0.0002 -0.0001
# 2 20.1961 179.4562 56.9855 -0.0039 0.0022 0.0016
# 3 45.9005 56.9855 91.7105 -0.0077 0.0025 0.0031
# 4 0.0002 -0.0039 -0.0077 59.1401 0.0023 0.0028
# 5 0.0002 0.0022 0.0025 0.0023 37.4015 -0.0014
# 6 -0.0001 0.0016 0.0031 0.0028 -0.0014 31.3736
#
#
#
# Elastic Compliance Matrix: (Units=1/GPa)
#
#
# Indices 1 2 3 4 5 6 
#
# 1 0.012144 0.000702 -0.006514 -0.000001 0.000000 0.000001
# 2 0.000702 0.006983 -0.004690 0.000000 0.000000 0.000000
# 3 -0.006514 -0.004690 0.017078 0.000002 -0.000001 -0.000001
# 4 -0.000001 0.000000 0.000002 0.016909 -0.000001 -0.000002
# 5 0.000000 0.000000 -0.000001 -0.000001 0.026737 0.000001
# 6 0.000001 0.000000 -0.000001 -0.000002 0.000001 0.031874
#
#
# Mechanical properties :
#
#
# Convention : Reuss Voigt Hill
#
# Bulk Modulus (GPa) = 65.78731 69.23653 67.51192
# Shear Modulus (GPa) = 36.28528 42.50851 39.39690
#
# Velocity S-wave (km/s) = 3.83750 4.15357 3.99866
# Velocity P-wave (km/s) = 6.80699 7.14861 6.97989
#
# Compressibility (1/GPa) = 0.01520050
#
# Stress axis : x y z
#
# Youngs Moduli (GPa) = 82.34378 143.21081 58.55337
#
# Poissons Ratio (x) = -0.10051 0.38143
# Poissons Ratio (y) = -0.05779 0.27462
# Poissons Ratio (z) = 0.53640 0.67167
#
# Static dielectric constant tensor:
#      x y z
#    x 4.172170 0.000010 0.000000 
#    y 0.000010 4.972950 0.000010 
#    z 0.000000 0.000010 4.393470 
# 
# 
# High freq. dielectric constant tensor:
#      x y z
#    x 1.964010 0.000000 0.000000 
#    y 0.000000 2.015470 0.000000 
#    z 0.000000 0.000000 1.971300 
# 
# From -- ./inp_files/2669.got.cif
#   From: 2010.06.25/outbox.cif.g09.slc.cpg/sg43_2_cif.got.tgz:2669.got - 2010.06.26 16:48:59.
