data_PCOD8187769
_publ_section_title
;
Structure prediction by ZEFSAII (Michael W. Deem and Ramdas Pophale) SiO2 
 PCOD8187769
Probable space group: F D D 2
;
_chemical_formula_sum "Si O2"
_cell_formula_units_Z 88
_cell_length_a 12.259313
_cell_length_b 24.296119
_cell_length_c 10.669641
_cell_angle_alpha 90.000000
_cell_angle_beta 90.000000
_cell_angle_gamma 90.000000
_cell_volume 3177.992343
_symmetry_space_group_name_H-M "F D D 2"
_symmetry_group_IT_number 43
_symmetry_cell_setting 'orthorhombic'
loop_
_space_group_symop_operation_xyz
x,y,z
-x,-y,z
1/4-x,1/4+y,1/4+z
1/4+x,1/4-y,1/4+z
x,1/2+y,1/2+z
-x,1/2-y,1/2+z
1/4-x,3/4+y,3/4+z
1/4+x,3/4-y,3/4+z
1/2+x,y,1/2+z
1/2-x,-y,1/2+z
3/4-x,1/4+y,3/4+z
3/4+x,1/4-y,3/4+z
1/2+x,1/2+y,z
1/2-x,1/2-y,z
3/4-x,3/4+y,1/4+z
3/4+x,3/4-y,1/4+z
loop_
_atom_site_type_symbol
_atom_site_label
_atom_site_fract_x
_atom_site_fract_y
_atom_site_fract_z
Si Si1 0.091416 0.208960 0.125000
Si Si2 0.250000 0.250000 0.934275
Si Si3 0.518226 0.899130 0.561931
Si Si4 0.683138 0.434366 0.264902
Si Si5 0.299799 0.463693 0.104675
Si Si6 0.837646 0.838843 0.773644
O O1 0.004421 0.166278 0.062512
O O2 0.191982 0.172114 0.178007
O O3 0.036969 0.248034 0.230290
O O4 0.140918 0.247836 0.017004
O O5 0.255845 0.196792 0.843403
O O6 0.622447 0.906995 0.649254
O O7 0.416013 0.934290 0.609933
O O8 0.796911 0.401665 0.287391
O O9 0.601504 0.430927 0.381686
O O10 0.709804 0.498169 0.230669
O O11 0.202657 0.418652 0.097470
#
# Coordination Sequence:
#
# PCOD8187769 Si02
#       6
#    16   8  16  16  16  16
#     4  11  25  50  77 115 156 203 271 318 397 486
#     4  12  30  48  76 114 160 214 260 328 404 474
#     4  11  25  47  87 111 157 212 260 332 395 480
#     4  11  27  56  75 121 160 206 276 325 418 483
#     4  11  27  50  81 117 157 217 258 342 397 485
#     4  12  32  46  82 112 165 207 265 340 400 489
#
# _framework density 27.690436999999999
#
# number of rings (size 3 to 8) (size 9 to 14) (size 15 to 20)
#    0.000    0.727    1.818    3.818   15.273    0.000 
#    0.000    0.000    0.000    0.000    0.000    0.000 
#    0.000    0.000    0.000    0.000    0.000    0.000 
#
# Total GULP energy -272874.352418 kJ/mol
# GULP energy per Si atom -12403.379655 kJ/mol
# Density = 2.762741 g / cm^3
# Si number density = 27.690437 Si / 1000 Ang^3
#
#
#
# Elastic Constant Matrix: (Units=GPa)
#
#
# Indices 1 2 3 4 5 6 
#
# 1 143.1904 82.0197 24.0091 0.0000 0.0000 0.0000
# 2 82.0197 187.1361 42.6235 0.0000 0.0000 0.0000
# 3 24.0091 42.6235 122.7668 0.0000 0.0000 0.0000
# 4 0.0000 0.0000 0.0000 37.8069 0.0000 0.0000
# 5 0.0000 0.0000 0.0000 0.0000 20.6405 0.0000
# 6 0.0000 0.0000 0.0000 0.0000 0.0000 66.8086
#
#
#
# Elastic Compliance Matrix: (Units=1/GPa)
#
#
# Indices 1 2 3 4 5 6 
#
# 1 0.009347 -0.003996 -0.000440 0.000000 0.000000 0.000000
# 2 -0.003996 0.007511 -0.001826 0.000000 0.000000 0.000000
# 3 -0.000440 -0.001826 0.008866 0.000000 0.000000 0.000000
# 4 0.000000 0.000000 0.000000 0.026450 0.000000 0.000000
# 5 0.000000 0.000000 0.000000 0.000000 0.048448 0.000000
# 6 0.000000 0.000000 0.000000 0.000000 0.000000 0.014968
#
#
# Mechanical properties :
#
#
# Convention : Reuss Voigt Hill
#
# Bulk Modulus (GPa) = 75.77107 83.37754 79.57431
# Shear Modulus (GPa) = 37.73152 45.34727 41.53939
#
# Velocity S-wave (km/s) = 3.69537 4.05118 3.87736
# Velocity P-wave (km/s) = 6.75505 7.21517 6.98890
#
# Compressibility (1/GPa) = 0.01319765
#
# Stress axis : x y z
#
# Youngs Moduli (GPa) = 106.99103 133.13526 112.79383
#
# Poissons Ratio (x) = 0.53203 0.04968
# Poissons Ratio (y) = 0.42756 0.20599
# Poissons Ratio (z) = 0.04712 0.24314
#
# Static dielectric constant tensor:
#      x y z
#    x 5.034830 0.000000 0.000000 
#    y 0.000000 5.346440 0.000000 
#    z 0.000000 0.000000 5.599280 
# 
# 
# High freq. dielectric constant tensor:
#      x y z
#    x 2.122350 0.000000 0.000000 
#    y 0.000000 2.136550 0.000000 
#    z 0.000000 0.000000 2.148030 
# 
# From -- ./inp_files/6156.got.cif
#   From: 2010.06.25/outbox.cif.g09.slc.cpg/sg43_4_cif.got.tgz:6156.got - 2010.06.26 16:48:59.
