data_PCOD8187196
_publ_section_title
;
Structure prediction by ZEFSAII (Michael W. Deem and Ramdas Pophale) SiO2 
 PCOD8187196
Probable space group: F D D 2
;
_chemical_formula_sum "Si O2"
_cell_formula_units_Z 80
_cell_length_a 26.529136
_cell_length_b 20.331256
_cell_length_c 7.730589
_cell_angle_alpha 90.000000
_cell_angle_beta 90.000000
_cell_angle_gamma 90.000000
_cell_volume 4169.652856
_symmetry_space_group_name_H-M "F D D 2"
_symmetry_group_IT_number 43
_symmetry_cell_setting 'orthorhombic'
loop_
_space_group_symop_operation_xyz
x,y,z
-x,-y,z
1/4-x,1/4+y,1/4+z
1/4+x,1/4-y,1/4+z
x,1/2+y,1/2+z
-x,1/2-y,1/2+z
1/4-x,3/4+y,3/4+z
1/4+x,3/4-y,3/4+z
1/2+x,y,1/2+z
1/2-x,-y,1/2+z
3/4-x,1/4+y,3/4+z
3/4+x,1/4-y,3/4+z
1/2+x,1/2+y,z
1/2-x,1/2-y,z
3/4-x,3/4+y,1/4+z
3/4+x,3/4-y,1/4+z
loop_
_atom_site_type_symbol
_atom_site_label
_atom_site_fract_x
_atom_site_fract_y
_atom_site_fract_z
Si Si1 0.287183 0.808603 0.846860
Si Si2 0.217228 0.924797 0.754531
Si Si3 0.789781 0.805783 0.737058
Si Si4 0.897493 0.593438 0.286723
Si Si5 0.227540 0.567293 0.414673
O O1 0.250000 0.750000 0.792108
O O2 0.256508 0.876473 0.844940
O O3 0.333774 0.809379 0.714158
O O4 0.308956 0.798588 0.040180
O O5 0.161880 0.896572 0.791646
O O6 0.226238 0.929087 0.549107
O O7 0.223587 0.996406 0.833515
O O8 0.750000 0.750000 0.783773
O O9 0.836585 0.798030 0.871054
O O10 0.763207 0.877227 0.766968
O O11 0.925137 0.664491 0.265312
#
# Coordination Sequence:
#
# PCOD8187196 Si02
#       5
#    16  16  16  16  16
#     4  10  21  38  60  87 119 156 200 247 300 363
#     4  11  21  40  60  86 128 157 195 264 295 361
#     4   9  19  40  58  86 117 152 201 244 298 365
#     4   9  22  37  61  87 117 159 205 237 309 359
#     4   9  22  37  59  89 119 159 199 243 313 351
#
# _framework density 19.186247999999999
#
# number of rings (size 3 to 8) (size 9 to 14) (size 15 to 20)
#    1.200    1.200    0.000    1.800    2.800    0.000 
#    7.200    4.000    0.000    0.000    0.000    0.000 
#    0.000    0.000    0.000    0.000    0.000    0.000 
#
# Total GULP energy -247862.599524 kJ/mol
# GULP energy per Si atom -12393.129976 kJ/mol
# Density = 1.914258 g / cm^3
# Si number density = 19.186248 Si / 1000 Ang^3
#
#
#
# Elastic Constant Matrix: (Units=GPa)
#
#
# Indices 1 2 3 4 5 6 
#
# 1 89.0935 9.0769 33.9818 0.0004 0.0007 0.0001
# 2 9.0769 98.0046 3.9101 -0.0001 0.0000 0.0003
# 3 33.9818 3.9101 106.0508 -0.0008 0.0015 0.0002
# 4 0.0004 -0.0001 -0.0008 26.1814 -0.0006 0.0002
# 5 0.0007 0.0000 0.0015 -0.0006 0.6056 0.0001
# 6 0.0001 0.0003 0.0002 0.0002 0.0001 19.1591
#
#
#
# Elastic Compliance Matrix: (Units=1/GPa)
#
#
# Indices 1 2 3 4 5 6 
#
# 1 0.012890 -0.001031 -0.004092 0.000000 -0.000005 0.000000
# 2 -0.001031 0.010301 -0.000050 0.000000 0.000001 0.000000
# 3 -0.004092 -0.000050 0.010743 0.000000 -0.000021 0.000000
# 4 0.000000 0.000000 0.000000 0.038195 0.000038 0.000000
# 5 -0.000005 0.000001 -0.000021 0.000038 1.651324 -0.000005
# 6 0.000000 0.000000 0.000000 0.000000 -0.000005 0.052195
#
#
# Mechanical properties :
#
#
# Convention : Reuss Voigt Hill
#
# Bulk Modulus (GPa) = 42.39324 43.00962 42.70143
# Shear Modulus (GPa) = 2.78729 25.60123 14.19426
#
# Velocity S-wave (km/s) = 1.20661 3.65684 2.72290
# Velocity P-wave (km/s) = 4.90763 6.34788 5.67364
#
# Compressibility (1/GPa) = 0.02358866
#
# Stress axis : x y z
#
# Youngs Moduli (GPa) = 77.57916 97.07770 93.08751
#
# Poissons Ratio (x) = 0.10004 0.38095
# Poissons Ratio (y) = 0.07995 0.00462
# Poissons Ratio (z) = 0.31748 0.00481
#
# Static dielectric constant tensor:
#      x y z
#    x 3.181480 0.000000 0.000000 
#    y 0.000000 3.429530 0.000000 
#    z 0.000000 0.000000 3.564290 
# 
# 
# High freq. dielectric constant tensor:
#      x y z
#    x 1.716800 0.000000 0.000000 
#    y 0.000000 1.747520 0.000000 
#    z 0.000000 0.000000 1.756270 
# 
# From -- ./inp_files/4165.got.cif
#   From: 2010.06.25/outbox.cif.g09.slc.cpg/sg43_3_cif.got.tgz:4165.got - 2010.06.26 16:48:59.
