data_PCOD8187208
_publ_section_title
;
Structure prediction by ZEFSAII (Michael W. Deem and Ramdas Pophale) SiO2 
 PCOD8187208
Probable space group: F D D 2
;
_chemical_formula_sum "Si O2"
_cell_formula_units_Z 120
_cell_length_a 25.955168
_cell_length_b 23.253217
_cell_length_c 9.227669
_cell_angle_alpha 90.000000
_cell_angle_beta 90.000000
_cell_angle_gamma 90.000000
_cell_volume 5569.277995
_symmetry_space_group_name_H-M "F D D 2"
_symmetry_group_IT_number 43
_symmetry_cell_setting 'orthorhombic'
loop_
_space_group_symop_operation_xyz
x,y,z
-x,-y,z
1/4-x,1/4+y,1/4+z
1/4+x,1/4-y,1/4+z
x,1/2+y,1/2+z
-x,1/2-y,1/2+z
1/4-x,3/4+y,3/4+z
1/4+x,3/4-y,3/4+z
1/2+x,y,1/2+z
1/2-x,-y,1/2+z
3/4-x,1/4+y,3/4+z
3/4+x,1/4-y,3/4+z
1/2+x,1/2+y,z
1/2-x,1/2-y,z
3/4-x,3/4+y,1/4+z
3/4+x,3/4-y,1/4+z
loop_
_atom_site_type_symbol
_atom_site_label
_atom_site_fract_x
_atom_site_fract_y
_atom_site_fract_z
Si Si1 0.044550 0.274265 0.473480
Si Si2 0.344375 0.276535 0.431027
Si Si3 0.168107 0.596388 0.962485
Si Si4 0.553261 0.069750 0.242222
Si Si5 0.499374 0.817474 0.187629
Si Si6 0.413492 0.003450 0.994925
Si Si7 0.589584 0.366792 0.527359
Si Si8 0.250000 0.750000 0.722971
O O1 0.102543 0.259540 0.416657
O O2 0.042910 0.329890 0.582077
O O3 0.018530 0.223017 0.559696
O O4 0.006488 0.284834 0.339395
O O5 0.360260 0.344000 0.418763
O O6 0.314861 0.261901 0.582128
O O7 0.301793 0.263066 0.310486
O O8 0.133438 0.540108 0.977914
O O9 0.190857 0.607929 0.123490
O O10 0.544097 0.134355 0.191846
O O11 0.612740 0.072555 0.290945
O O12 0.514397 0.053921 0.371191
O O13 0.546133 0.024619 0.108258
O O14 0.552837 0.849210 0.157013
O O15 0.394848 0.066158 0.051395
#
# Coordination Sequence:
#
# PCOD8187208 Si02
#       8
#    16  16  16  16  16  16  16   8
#     4  11  23  42  63  91 125 160 206 258 308 370
#     4  10  22  41  63  91 126 163 206 253 304 365
#     4   9  18  38  63  88 120 160 201 250 303 360
#     4  11  23  41  61  92 125 159 205 257 305 367
#     4  12  24  40  64  91 121 164 205 253 314 370
#     4   9  19  38  65  87 119 165 203 247 301 364
#     4  10  21  38  63  91 121 159 206 252 306 366
#     4  12  24  38  60  92 130 166 204 258 314 358
#
# _framework density 21.546779000000001
#
# number of rings (size 3 to 8) (size 9 to 14) (size 15 to 20)
#    0.000    1.600    0.000    6.400    0.000    3.733 
#    0.000    9.333    0.000    0.000    0.000    0.000 
#    0.000    0.000    0.000    0.000    0.000    0.000 
#
# Total GULP energy -371689.211069 kJ/mol
# GULP energy per Si atom -12389.640369 kJ/mol
# Density = 2.149774 g / cm^3
# Si number density = 21.546779 Si / 1000 Ang^3
#
#
#
# Elastic Constant Matrix: (Units=GPa)
#
#
# Indices 1 2 3 4 5 6 
#
# 1 70.7846 20.4521 38.6433 -0.0033 0.0014 0.0004
# 2 20.4521 122.8380 53.1133 -0.0123 0.0055 0.0017
# 3 38.6433 53.1133 115.0024 -0.0299 0.0111 0.0071
# 4 -0.0033 -0.0123 -0.0299 37.1453 0.0069 0.0036
# 5 0.0014 0.0055 0.0111 0.0069 37.3183 -0.0022
# 6 0.0004 0.0017 0.0071 0.0036 -0.0022 29.5171
#
#
#
# Elastic Compliance Matrix: (Units=1/GPa)
#
#
# Indices 1 2 3 4 5 6 
#
# 1 0.017322 -0.000459 -0.005609 -0.000003 0.000001 0.000001
# 2 -0.000459 0.010184 -0.004549 0.000000 0.000000 0.000001
# 3 -0.005609 -0.004549 0.012681 0.000008 -0.000003 -0.000003
# 4 -0.000003 0.000000 0.000008 0.026921 -0.000005 -0.000003
# 5 0.000001 0.000000 -0.000003 -0.000005 0.026797 0.000002
# 6 0.000001 0.000001 -0.000003 -0.000003 0.000002 0.033879
#
#
# Mechanical properties :
#
#
# Convention : Reuss Voigt Hill
#
# Bulk Modulus (GPa) = 52.76051 59.22694 55.99373
# Shear Modulus (GPa) = 32.18843 33.89056 33.03949
#
# Velocity S-wave (km/s) = 3.86928 3.97026 3.92009
# Velocity P-wave (km/s) = 6.67093 6.96883 6.82151
#
# Compressibility (1/GPa) = 0.01895357
#
# Stress axis : x y z
#
# Youngs Moduli (GPa) = 57.73055 98.19056 78.85724
#
# Poissons Ratio (x) = 0.04507 0.44227
# Poissons Ratio (y) = 0.02650 0.35875
# Poissons Ratio (z) = 0.32378 0.44670
#
# Static dielectric constant tensor:
#      x y z
#    x 3.572040 0.000000 0.000000 
#    y 0.000000 4.086380 -0.000010 
#    z 0.000000 -0.000010 4.266580 
# 
# 
# High freq. dielectric constant tensor:
#      x y z
#    x 1.819470 0.000000 0.000000 
#    y 0.000000 1.861500 0.000000 
#    z 0.000000 0.000000 1.853200 
# 
# From -- ./inp_files/3906.got.cif
#   From: 2010.06.25/outbox.cif.g09.slc.cpg/sg43_2_cif.got.tgz:3906.got - 2010.06.26 16:48:59.
