data_PCOD8187941
_publ_section_title
;
Structure prediction by ZEFSAII (Michael W. Deem and Ramdas Pophale) SiO2 
 PCOD8187941
Probable space group: I M M 2
;
_chemical_formula_sum "Si O2"
_cell_formula_units_Z 40
_cell_length_a 8.880327
_cell_length_b 21.010585
_cell_length_c 12.703902
_cell_angle_alpha 90.000000
_cell_angle_beta 90.000000
_cell_angle_gamma 90.000000
_cell_volume 2370.305027
_symmetry_space_group_name_H-M "I M M 2"
_symmetry_group_IT_number 44
_symmetry_cell_setting 'orthorhombic'
loop_
_space_group_symop_operation_xyz
x,y,z
-x,-y,z
-x,y,z
x,-y,z
1/2+x,1/2+y,1/2+z
1/2-x,1/2-y,1/2+z
1/2-x,1/2+y,1/2+z
1/2+x,1/2-y,1/2+z
loop_
_atom_site_type_symbol
_atom_site_label
_atom_site_fract_x
_atom_site_fract_y
_atom_site_fract_z
Si Si1 0.822429 0.838632 0.252870
Si Si2 0.823527 0.073380 0.064155
Si Si3 0.321888 0.800516 0.454643
Si Si4 0.177117 0.666308 0.406769
Si Si5 0.824308 0.702656 0.183476
O O1 0.774588 0.895425 0.175068
O O2 0.748974 0.847967 0.368206
O O3 0.755917 0.772851 0.205641
O O4 0.000000 0.836321 0.269599
O O5 0.000000 0.083553 0.044378
O O6 0.777986 0.000000 0.069250
O O7 0.734562 0.104484 0.967537
O O8 0.500000 0.800698 0.440842
O O9 0.263349 0.728515 0.445947
O O10 0.268890 0.825004 0.571049
O O11 0.212636 0.656180 0.281692
O O12 0.000000 0.676103 0.425347
O O13 0.000000 0.714341 0.172988
#
# Coordination Sequence:
#
# PCOD8187941 Si02
#       5
#     8   8   8   8   8
#     4   9  17  31  46  68  99 127 159 200 247 293
#     4  10  20  35  53  70  96 134 169 203 244 291
#     4  10  17  29  49  72  98 128 160 198 243 295
#     4  10  19  31  47  71 100 129 162 200 244 293
#     4   8  15  28  46  67  97 127 151 192 246 292
#
# _framework density 16.875464999999998
#
# number of rings (size 3 to 8) (size 9 to 14) (size 15 to 20)
#    0.000    2.600    2.000    2.400    0.000    1.200 
#    0.000    3.000    0.000    1.200    0.000    5.600 
#    0.000    0.000    0.000    0.000    0.000    0.000 
#
# Total GULP energy -247854.586389 kJ/mol
# GULP energy per Si atom -12392.729319 kJ/mol
# Density = 1.683706 g / cm^3
# Si number density = 16.875465 Si / 1000 Ang^3
#
#
#
# Elastic Constant Matrix: (Units=GPa)
#
#
# Indices 1 2 3 4 5 6 
#
# 1 47.5497 25.6687 47.6874 0.0000 0.0000 0.0000
# 2 25.6687 76.0416 60.2067 0.0000 0.0000 0.0000
# 3 47.6874 60.2067 184.0584 0.0001 0.0000 0.0000
# 4 0.0000 0.0000 0.0001 24.7319 0.0000 0.0000
# 5 0.0000 0.0000 0.0000 0.0000 29.0599 0.0000
# 6 0.0000 0.0000 0.0000 0.0000 0.0000 15.0671
#
#
#
# Elastic Compliance Matrix: (Units=1/GPa)
#
#
# Indices 1 2 3 4 5 6 
#
# 1 0.029945 -0.005351 -0.006008 0.000000 0.000000 0.000000
# 2 -0.005351 0.018703 -0.004732 0.000000 0.000000 0.000000
# 3 -0.006008 -0.004732 0.008537 0.000000 0.000000 0.000000
# 4 0.000000 0.000000 0.000000 0.040434 0.000000 0.000000
# 5 0.000000 0.000000 0.000000 0.000000 0.034412 0.000000
# 6 0.000000 0.000000 0.000000 0.000000 0.000000 0.066370
#
#
# Mechanical properties :
#
#
# Convention : Reuss Voigt Hill
#
# Bulk Modulus (GPa) = 39.99377 63.86392 51.92884
# Shear Modulus (GPa) = 20.92781 25.37757 23.15269
#
# Velocity S-wave (km/s) = 3.52537 3.88211 3.70803
# Velocity P-wave (km/s) = 6.34994 7.61714 7.01222
#
# Compressibility (1/GPa) = 0.02500389
#
# Stress axis : x y z
#
# Youngs Moduli (GPa) = 33.39489 53.46640 117.13265
#
# Poissons Ratio (x) = 0.28612 0.70372
# Poissons Ratio (y) = 0.17871 0.55421
# Poissons Ratio (z) = 0.20063 0.25298
#
# Static dielectric constant tensor:
#      x y z
#    x 3.027890 0.000000 0.000000 
#    y 0.000000 2.807620 0.000000 
#    z 0.000000 0.000000 3.727310 
# 
# 
# High freq. dielectric constant tensor:
#      x y z
#    x 1.640240 0.000000 0.000000 
#    y 0.000000 1.599400 0.000000 
#    z 0.000000 0.000000 1.672250 
# 
# From -- ./inp_files/10990.got.cif
#   From: 2010.03.12/outbox.cif.g09.slc.cpg/sg44_6_cif.got.tgz:10990.got - 2010.04.14 02:36:11.
