data_PCOD8187856
_publ_section_title
;
Structure prediction by ZEFSAII (Michael W. Deem and Ramdas Pophale) SiO2 
 PCOD8187856
Probable space group: F D D 2
;
_chemical_formula_sum "Si O2"
_cell_formula_units_Z 64
_cell_length_a 15.889469
_cell_length_b 17.536830
_cell_length_c 9.938167
_cell_angle_alpha 90.000000
_cell_angle_beta 90.000000
_cell_angle_gamma 90.000000
_cell_volume 2769.279344
_symmetry_space_group_name_H-M "F D D 2"
_symmetry_group_IT_number 43
_symmetry_cell_setting 'orthorhombic'
loop_
_space_group_symop_operation_xyz
x,y,z
-x,-y,z
1/4-x,1/4+y,1/4+z
1/4+x,1/4-y,1/4+z
x,1/2+y,1/2+z
-x,1/2-y,1/2+z
1/4-x,3/4+y,3/4+z
1/4+x,3/4-y,3/4+z
1/2+x,y,1/2+z
1/2-x,-y,1/2+z
3/4-x,1/4+y,3/4+z
3/4+x,1/4-y,3/4+z
1/2+x,1/2+y,z
1/2-x,1/2-y,z
3/4-x,3/4+y,1/4+z
3/4+x,3/4-y,1/4+z
loop_
_atom_site_type_symbol
_atom_site_label
_atom_site_fract_x
_atom_site_fract_y
_atom_site_fract_z
Si Si1 0.458608 0.207010 0.605210
Si Si2 0.158419 0.237531 0.827636
Si Si3 0.930118 0.440101 0.629412
Si Si4 0.606915 0.310143 0.592862
O O1 0.407315 0.212771 0.743070
O O2 0.397479 0.188545 0.481997
O O3 0.529289 0.142893 0.621480
O O4 0.508826 0.285873 0.579140
O O5 0.250000 0.250000 0.762851
O O6 0.132716 0.149796 0.823242
O O7 0.161128 0.267913 0.979545
O O8 0.894015 0.466000 0.485779
O O9 0.000000 0.500000 0.679109
#
# Coordination Sequence:
#
# PCOD8187856 Si02
#       4
#    16  16  16  16
#     4  12  28  50  76 114 151 198 253 319 385 457
#     4  12  28  45  80 109 153 196 256 314 384 455
#     4  12  28  49  78 110 155 200 253 317 386 455
#     4  12  26  52  76 111 150 202 255 312 384 461
#
# _framework density 23.110706
#
# number of rings (size 3 to 8) (size 9 to 14) (size 15 to 20)
#    0.000    0.000    2.500    6.000   14.000    0.000 
#    0.000    0.000    0.000    0.000    0.000    0.000 
#    0.000    0.000    0.000    0.000    0.000    0.000 
#
# Total GULP energy -198544.465647 kJ/mol
# GULP energy per Si atom -12409.029103 kJ/mol
# Density = 2.305810 g / cm^3
# Si number density = 23.110706 Si / 1000 Ang^3
#
#
#
# Elastic Constant Matrix: (Units=GPa)
#
#
# Indices 1 2 3 4 5 6 
#
# 1 133.6519 43.9902 65.4720 0.0000 0.0000 0.0000
# 2 43.9902 117.7414 53.7933 0.0000 0.0000 0.0000
# 3 65.4720 53.7933 146.3394 0.0000 0.0000 0.0000
# 4 0.0000 0.0000 0.0000 34.6647 0.0000 0.0000
# 5 0.0000 0.0000 0.0000 0.0000 49.7007 0.0000
# 6 0.0000 0.0000 0.0000 0.0000 0.0000 56.0747
#
#
#
# Elastic Compliance Matrix: (Units=1/GPa)
#
#
# Indices 1 2 3 4 5 6 
#
# 1 0.009969 -0.002027 -0.003715 0.000000 0.000000 0.000000
# 2 -0.002027 0.010620 -0.002997 0.000000 0.000000 0.000000
# 3 -0.003715 -0.002997 0.009597 0.000000 0.000000 0.000000
# 4 0.000000 0.000000 0.000000 0.028848 0.000000 0.000000
# 5 0.000000 0.000000 0.000000 0.000000 0.020120 0.000000
# 6 0.000000 0.000000 0.000000 0.000000 0.000000 0.017833
#
#
# Mechanical properties :
#
#
# Convention : Reuss Voigt Hill
#
# Bulk Modulus (GPa) = 78.69080 80.47153 79.58116
# Shear Modulus (GPa) = 42.12233 43.71982 42.92108
#
# Velocity S-wave (km/s) = 4.27386 4.35415 4.31419
# Velocity P-wave (km/s) = 7.64709 7.75718 7.70233
#
# Compressibility (1/GPa) = 0.01270797
#
# Stress axis : x y z
#
# Youngs Moduli (GPa) = 100.30812 94.16388 104.19840
#
# Poissons Ratio (x) = 0.19091 0.38710
# Poissons Ratio (y) = 0.20337 0.31225
# Poissons Ratio (z) = 0.37264 0.28218
#
# Static dielectric constant tensor:
#      x y z
#    x 4.359230 0.000000 0.000000 
#    y 0.000000 4.207030 0.000000 
#    z 0.000000 0.000000 4.208300 
# 
# 
# High freq. dielectric constant tensor:
#      x y z
#    x 1.932050 0.000000 0.000000 
#    y 0.000000 1.920230 0.000000 
#    z 0.000000 0.000000 1.922880 
# 
# From -- ./inp_files/2616.got.cif
#   From: 2010.06.25/outbox.cif.g09.slc.cpg/sg43_2_cif.got.tgz:2616.got - 2010.06.26 16:48:59.
