data_PCOD8187025
_publ_section_title
;
Structure prediction by ZEFSAII (Michael W. Deem and Ramdas Pophale) SiO2 
 PCOD8187025
Probable space group: F D D 2
;
_chemical_formula_sum "Si O2"
_cell_formula_units_Z 120
_cell_length_a 13.353063
_cell_length_b 13.986709
_cell_length_c 33.155662
_cell_angle_alpha 90.000000
_cell_angle_beta 90.000000
_cell_angle_gamma 90.000000
_cell_volume 6192.330689
_symmetry_space_group_name_H-M "F D D 2"
_symmetry_group_IT_number 43
_symmetry_cell_setting 'orthorhombic'
loop_
_space_group_symop_operation_xyz
x,y,z
-x,-y,z
1/4-x,1/4+y,1/4+z
1/4+x,1/4-y,1/4+z
x,1/2+y,1/2+z
-x,1/2-y,1/2+z
1/4-x,3/4+y,3/4+z
1/4+x,3/4-y,3/4+z
1/2+x,y,1/2+z
1/2-x,-y,1/2+z
3/4-x,1/4+y,3/4+z
3/4+x,1/4-y,3/4+z
1/2+x,1/2+y,z
1/2-x,1/2-y,z
3/4-x,3/4+y,1/4+z
3/4+x,3/4-y,1/4+z
loop_
_atom_site_type_symbol
_atom_site_label
_atom_site_fract_x
_atom_site_fract_y
_atom_site_fract_z
Si Si1 0.403345 0.559231 0.085470
Si Si2 0.750000 0.750000 0.111828
Si Si3 0.588075 0.577819 0.404561
Si Si4 0.694468 0.113802 0.546236
Si Si5 0.251086 0.142635 0.734913
Si Si6 0.718213 0.355920 0.463705
Si Si7 0.505877 0.742623 0.053013
Si Si8 0.037722 0.781314 0.639901
O O1 0.500000 0.500000 0.101226
O O2 0.329404 0.585669 0.122578
O O3 0.344775 0.491028 0.055577
O O4 0.428334 0.656565 0.060996
O O5 0.761221 0.655316 0.083259
O O6 0.847955 0.759082 0.140719
O O7 0.500000 0.500000 0.396105
O O8 0.584365 0.615253 0.450226
O O9 0.703486 0.545769 0.400519
O O10 0.752824 0.090968 0.505133
O O11 0.609654 0.194388 0.539467
O O12 0.250000 0.250000 0.753641
O O13 0.149829 0.121647 0.709481
O O14 0.279112 0.064333 0.768150
O O15 0.750000 0.250000 0.472033
O O16 0.776800 0.385634 0.422950
O O17 0.518126 0.808771 0.093014
#
# Coordination Sequence:
#
# PCOD8187025 Si02
#       8
#    16   8  16  16  16  16  16  16
#     4   9  20  39  66  90 121 173 213 259 323 379
#     4  10  20  40  64  92 124 164 212 274 314 384
#     4  10  20  41  63  88 133 168 210 259 321 383
#     4  10  19  39  63  87 127 166 210 267 328 370
#     4  11  21  39  65  87 126 177 207 253 333 379
#     4  12  21  37  60  91 125 165 206 268 320 371
#     4   9  19  40  63  91 125 165 216 265 310 390
#     4  10  21  39  61  92 125 160 211 265 315 375
#
# _framework density 19.378810000000001
#
# number of rings (size 3 to 8) (size 9 to 14) (size 15 to 20)
#    0.000    1.867    4.667    1.600    0.000    1.600 
#    8.400    4.000    0.000    0.000    0.000    0.000 
#    0.000    0.000    0.000    0.000    0.000    0.000 
#
# Total GULP energy -371659.876958 kJ/mol
# GULP energy per Si atom -12388.662565 kJ/mol
# Density = 1.933470 g / cm^3
# Si number density = 19.378810 Si / 1000 Ang^3
#
#
#
# Elastic Constant Matrix: (Units=GPa)
#
#
# Indices 1 2 3 4 5 6 
#
# 1 95.4411 31.3893 48.4126 0.0000 0.0000 0.0000
# 2 31.3893 105.0347 53.6025 0.0000 0.0000 0.0000
# 3 48.4126 53.6025 128.5985 0.0000 0.0000 0.0000
# 4 0.0000 0.0000 0.0000 -10.7645 0.0000 0.0000
# 5 0.0000 0.0000 0.0000 0.0000 69.8529 0.0000
# 6 0.0000 0.0000 0.0000 0.0000 0.0000 16.6561
#
#
#
# Elastic Compliance Matrix: (Units=1/GPa)
#
#
# Indices 1 2 3 4 5 6 
#
# 1 0.013211 -0.001791 -0.004227 0.000000 0.000000 0.000000
# 2 -0.001791 0.012336 -0.004468 0.000000 0.000000 0.000000
# 3 -0.004227 -0.004468 0.011230 0.000000 0.000000 0.000000
# 4 0.000000 0.000000 0.000000 -0.092898 0.000000 0.000000
# 5 0.000000 0.000000 0.000000 0.000000 0.014316 0.000000
# 6 0.000000 0.000000 0.000000 0.000000 0.000000 0.060038
#
#
# Mechanical properties :
#
#
# Convention : Reuss Voigt Hill
#
# Bulk Modulus (GPa) = 63.26949 66.20923 64.73936
# Shear Modulus (GPa) = 112.43167 28.19356 70.31262
#
# Velocity S-wave (km/s) = 7.62521 3.81841 6.03009
# Velocity P-wave (km/s) = 10.49975 7.32668 9.05331
#
# Compressibility (1/GPa) = 0.01580541
#
# Stress axis : x y z
#
# Youngs Moduli (GPa) = 75.69590 81.06472 89.05036
#
# Poissons Ratio (x) = 0.14518 0.37641
# Poissons Ratio (y) = 0.13556 0.39784
# Poissons Ratio (z) = 0.31996 0.36217
#
# Static dielectric constant tensor:
#      x y z
#    x 2.303080 0.000000 0.000000 
#    y 0.000000 3.490860 0.000000 
#    z 0.000000 0.000000 3.813370 
# 
# 
# High freq. dielectric constant tensor:
#      x y z
#    x 1.750490 0.000000 0.000000 
#    y 0.000000 1.740640 0.000000 
#    z 0.000000 0.000000 1.755490 
# 
# From -- ./inp_files/29223.got.cif
#   From: 2010.06.25/outbox.cif.g09.slc.cpg/sg43_15_cif.got.tgz:29223.got - 2010.06.26 16:48:59.
