data_PCOD8187063
_publ_section_title
;
Structure prediction by ZEFSAII (Michael W. Deem and Ramdas Pophale) SiO2 
 PCOD8187063
Probable space group: F D D 2
;
_chemical_formula_sum "Si O2"
_cell_formula_units_Z 96
_cell_length_a 9.791305
_cell_length_b 22.596879
_cell_length_c 22.669660
_cell_angle_alpha 90.000000
_cell_angle_beta 90.000000
_cell_angle_gamma 90.000000
_cell_volume 5015.728795
_symmetry_space_group_name_H-M "F D D 2"
_symmetry_group_IT_number 43
_symmetry_cell_setting 'orthorhombic'
loop_
_space_group_symop_operation_xyz
x,y,z
-x,-y,z
1/4-x,1/4+y,1/4+z
1/4+x,1/4-y,1/4+z
x,1/2+y,1/2+z
-x,1/2-y,1/2+z
1/4-x,3/4+y,3/4+z
1/4+x,3/4-y,3/4+z
1/2+x,y,1/2+z
1/2-x,-y,1/2+z
3/4-x,1/4+y,3/4+z
3/4+x,1/4-y,3/4+z
1/2+x,1/2+y,z
1/2-x,1/2-y,z
3/4-x,3/4+y,1/4+z
3/4+x,3/4-y,1/4+z
loop_
_atom_site_type_symbol
_atom_site_label
_atom_site_fract_x
_atom_site_fract_y
_atom_site_fract_z
Si Si1 0.804821 0.043919 0.359060
Si Si2 0.801273 0.442709 0.698866
Si Si3 0.548432 0.062871 0.577369
Si Si4 0.627021 0.790777 0.002577
Si Si5 0.097175 0.080302 0.323585
Si Si6 0.690382 0.608514 0.965596
O O1 0.702053 0.066291 0.308865
O O2 0.738521 0.056037 0.422810
O O3 0.944559 0.080581 0.349172
O O4 0.821887 0.973222 0.355131
O O5 0.887148 0.449414 0.640435
O O6 0.720362 0.503635 0.709358
O O7 0.904562 0.431281 0.753279
O O8 0.697653 0.388063 0.691165
O O9 0.422953 0.108158 0.586550
O O10 0.662170 0.086663 0.532073
O O11 0.500000 0.000000 0.551508
O O12 0.750000 0.750000 0.026564
O O13 0.685432 0.845288 0.965640
#
# Coordination Sequence:
#
# PCOD8187063 Si02
#       6
#    16  16  16  16  16  16
#     4  10  20  36  63  82 117 159 201 245 301 367
#     4   9  20  38  60  84 116 155 203 246 301 374
#     4  11  24  37  59  88 121 157 199 259 317 360
#     4   9  19  36  61  85 111 158 202 246 297 370
#     4   9  22  39  57  89 113 156 210 246 297 371
#     4  10  21  37  56  88 121 148 197 250 309 364
#
# _framework density 19.139790999999999
#
# number of rings (size 3 to 8) (size 9 to 14) (size 15 to 20)
#    0.000    2.333    0.000    2.000    7.000    3.333 
#    0.000    1.667   11.000    0.000    0.000    0.000 
#    0.000    0.000    0.000    0.000    0.000    0.000 
#
# Total GULP energy -297623.441350 kJ/mol
# GULP energy per Si atom -12400.976723 kJ/mol
# Density = 1.909623 g / cm^3
# Si number density = 19.139791 Si / 1000 Ang^3
#
#
#
# Elastic Constant Matrix: (Units=GPa)
#
#
# Indices 1 2 3 4 5 6 
#
# 1 73.4584 33.5925 34.6186 0.0000 0.0000 0.0000
# 2 33.5925 103.4770 35.3140 0.0000 0.0000 0.0000
# 3 34.6186 35.3140 100.0245 0.0000 0.0000 0.0000
# 4 0.0000 0.0000 0.0000 25.5967 0.0000 0.0000
# 5 0.0000 0.0000 0.0000 0.0000 27.4812 0.0000
# 6 0.0000 0.0000 0.0000 0.0000 0.0000 22.1940
#
#
#
# Elastic Compliance Matrix: (Units=1/GPa)
#
#
# Indices 1 2 3 4 5 6 
#
# 1 0.017712 -0.004159 -0.004662 0.000000 0.000000 0.000000
# 2 -0.004159 0.011964 -0.002785 0.000000 0.000000 0.000000
# 3 -0.004662 -0.002785 0.012594 0.000000 0.000000 0.000000
# 4 0.000000 0.000000 0.000000 0.039068 0.000000 0.000000
# 5 0.000000 0.000000 0.000000 0.000000 0.036389 0.000000
# 6 0.000000 0.000000 0.000000 0.000000 0.000000 0.045057
#
#
# Mechanical properties :
#
#
# Convention : Reuss Voigt Hill
#
# Bulk Modulus (GPa) = 52.46678 53.77891 53.12284
# Shear Modulus (GPa) = 25.99452 26.61668 26.30560
#
# Velocity S-wave (km/s) = 3.68929 3.73318 3.71130
# Velocity P-wave (km/s) = 6.75424 6.83675 6.79562
#
# Compressibility (1/GPa) = 0.01905968
#
# Stress axis : x y z
#
# Youngs Moduli (GPa) = 56.45886 83.58067 79.40204
#
# Poissons Ratio (x) = 0.34761 0.37015
# Poissons Ratio (y) = 0.23481 0.22111
# Poissons Ratio (z) = 0.26320 0.23274
#
# Static dielectric constant tensor:
#      x y z
#    x 3.580860 0.000000 0.000000 
#    y 0.000000 3.615370 0.000000 
#    z 0.000000 0.000000 3.278360 
# 
# 
# High freq. dielectric constant tensor:
#      x y z
#    x 1.749720 0.000000 0.000000 
#    y 0.000000 1.741330 0.000000 
#    z 0.000000 0.000000 1.736380 
# 
# From -- ./inp_files/13315.got.cif
#   From: 2010.06.25/outbox.cif.g09.slc.cpg/sg43_7_cif.got.tgz:13315.got - 2010.06.26 16:48:59.
