data_PCOD8187829
_publ_section_title
;
Structure prediction by ZEFSAII (Michael W. Deem and Ramdas Pophale) SiO2 
 PCOD8187829
Probable space group: F D D 2
;
_chemical_formula_sum "Si O2"
_cell_formula_units_Z 48
_cell_length_a 12.874269
_cell_length_b 5.668296
_cell_length_c 25.492846
_cell_angle_alpha 90.000000
_cell_angle_beta 90.000000
_cell_angle_gamma 90.000000
_cell_volume 1860.344706
_symmetry_space_group_name_H-M "F D D 2"
_symmetry_group_IT_number 43
_symmetry_cell_setting 'orthorhombic'
loop_
_space_group_symop_operation_xyz
x,y,z
-x,-y,z
1/4-x,1/4+y,1/4+z
1/4+x,1/4-y,1/4+z
x,1/2+y,1/2+z
-x,1/2-y,1/2+z
1/4-x,3/4+y,3/4+z
1/4+x,3/4-y,3/4+z
1/2+x,y,1/2+z
1/2-x,-y,1/2+z
3/4-x,1/4+y,3/4+z
3/4+x,1/4-y,3/4+z
1/2+x,1/2+y,z
1/2-x,1/2-y,z
3/4-x,3/4+y,1/4+z
3/4+x,3/4-y,1/4+z
loop_
_atom_site_type_symbol
_atom_site_label
_atom_site_fract_x
_atom_site_fract_y
_atom_site_fract_z
Si Si1 0.632569 0.791048 0.846830
Si Si2 0.750000 0.250000 0.182976
Si Si3 0.000000 0.000000 0.772974
Si Si4 0.395329 0.639235 0.003849
O O1 0.750000 0.750000 0.864872
O O2 0.596146 0.576383 0.809861
O O3 0.560751 0.808344 0.898086
O O4 0.623695 0.033159 0.813660
O O5 0.660496 0.378903 0.217425
O O6 0.953290 0.219733 0.738576
O O7 0.500000 0.500000 0.997972
#
# Coordination Sequence:
#
# PCOD8187829 Si02
#       4
#    16   8   8  16
#     4  12  26  53  80 115 157 214 275 347 406 491
#     4  12  28  50  82 125 170 217 278 338 434 484
#     4  12  24  50  84 107 170 215 268 350 408 486
#     4  12  25  52  79 120 163 216 279 343 407 499
#
# _framework density 25.801669
#
# number of rings (size 3 to 8) (size 9 to 14) (size 15 to 20)
#    0.000    0.000    8.333    0.000    2.333    0.000 
#   18.000    3.333    0.000    0.000    0.000    0.000 
#    0.000    0.000    0.000    0.000    0.000    0.000 
#
# Total GULP energy -148804.356697 kJ/mol
# GULP energy per Si atom -12400.363058 kJ/mol
# Density = 2.574294 g / cm^3
# Si number density = 25.801669 Si / 1000 Ang^3
#
#
#
# Elastic Constant Matrix: (Units=GPa)
#
#
# Indices 1 2 3 4 5 6 
#
# 1 158.5220 37.1695 41.2667 0.0000 0.0000 0.0000
# 2 37.1695 115.0073 37.2899 0.0000 0.0000 0.0000
# 3 41.2667 37.2899 97.5509 0.0000 0.0000 0.0000
# 4 0.0000 0.0000 0.0000 9.0544 0.0000 0.0000
# 5 0.0000 0.0000 0.0000 0.0000 36.3282 0.0000
# 6 0.0000 0.0000 0.0000 0.0000 0.0000 62.2481
#
#
#
# Elastic Compliance Matrix: (Units=1/GPa)
#
#
# Indices 1 2 3 4 5 6 
#
# 1 0.007325 -0.001555 -0.002504 0.000000 0.000000 0.000000
# 2 -0.001555 0.010256 -0.003262 0.000000 0.000000 0.000000
# 3 -0.002504 -0.003262 0.012557 0.000000 0.000000 0.000000
# 4 0.000000 0.000000 0.000000 0.110444 0.000000 0.000000
# 5 0.000000 0.000000 0.000000 0.000000 0.027527 0.000000
# 6 0.000000 0.000000 0.000000 0.000000 0.000000 0.016065
#
#
# Mechanical properties :
#
#
# Convention : Reuss Voigt Hill
#
# Bulk Modulus (GPa) = 64.54004 66.94803 65.74403
# Shear Modulus (GPa) = 24.51202 38.54974 31.53088
#
# Velocity S-wave (km/s) = 3.08558 3.86953 3.49957
# Velocity P-wave (km/s) = 6.14513 6.77996 6.47033
#
# Compressibility (1/GPa) = 0.01549426
#
# Stress axis : x y z
#
# Youngs Moduli (GPa) = 136.52194 97.50797 79.63443
#
# Poissons Ratio (x) = 0.15167 0.19941
# Poissons Ratio (y) = 0.21235 0.25979
# Poissons Ratio (z) = 0.34185 0.31810
#
# Static dielectric constant tensor:
#      x y z
#    x 5.152410 0.000000 0.000000 
#    y 0.000000 5.193770 0.000000 
#    z 0.000000 0.000000 4.426300 
# 
# 
# High freq. dielectric constant tensor:
#      x y z
#    x 2.055040 0.000000 0.000000 
#    y 0.000000 2.039640 0.000000 
#    z 0.000000 0.000000 2.003900 
# 
# From -- ./inp_files/23147.got.cif
#   From: 2010.06.25/outbox.cif.g09.slc.cpg/sg43_12_cif.got.tgz:23147.got - 2010.06.26 16:48:59.
