data_PCOD8187396
_publ_section_title
;
Structure prediction by ZEFSAII (Michael W. Deem and Ramdas Pophale) SiO2 
 PCOD8187396
Probable space group: F D D 2
;
_chemical_formula_sum "Si O2"
_cell_formula_units_Z 88
_cell_length_a 12.045471
_cell_length_b 27.842081
_cell_length_c 11.999303
_cell_angle_alpha 90.000000
_cell_angle_beta 90.000000
_cell_angle_gamma 90.000000
_cell_volume 4024.217998
_symmetry_space_group_name_H-M "F D D 2"
_symmetry_group_IT_number 43
_symmetry_cell_setting 'orthorhombic'
loop_
_space_group_symop_operation_xyz
x,y,z
-x,-y,z
1/4-x,1/4+y,1/4+z
1/4+x,1/4-y,1/4+z
x,1/2+y,1/2+z
-x,1/2-y,1/2+z
1/4-x,3/4+y,3/4+z
1/4+x,3/4-y,3/4+z
1/2+x,y,1/2+z
1/2-x,-y,1/2+z
3/4-x,1/4+y,3/4+z
3/4+x,1/4-y,3/4+z
1/2+x,1/2+y,z
1/2-x,1/2-y,z
3/4-x,3/4+y,1/4+z
3/4+x,3/4-y,1/4+z
loop_
_atom_site_type_symbol
_atom_site_label
_atom_site_fract_x
_atom_site_fract_y
_atom_site_fract_z
Si Si1 0.837555 0.912344 0.569530
Si Si2 0.227432 0.092745 0.907100
Si Si3 0.977933 0.339733 0.409446
Si Si4 0.902847 0.406653 0.832780
Si Si5 0.999855 0.763640 0.467960
Si Si6 0.500000 0.500000 0.249016
O O1 0.821263 0.914606 0.436752
O O2 0.731873 0.885937 0.621788
O O3 0.826721 0.965342 0.619882
O O4 0.948244 0.885873 0.609447
O O5 0.106647 0.116413 0.919788
O O6 0.231140 0.045221 0.829857
O O7 0.260504 0.075692 0.030265
O O8 0.951959 0.290682 0.480174
O O9 0.091658 0.357844 0.468043
O O10 0.980415 0.453481 0.824383
O O11 0.867203 0.759872 0.433540
#
# Coordination Sequence:
#
# PCOD8187396 Si02
#       6
#    16  16  16  16  16   8
#     4  12  22  41  73  98 140 183 244 289 362 439
#     4  12  23  48  68 106 144 189 239 301 359 444
#     4  11  27  43  70 101 149 181 237 305 374 429
#     4  11  22  40  67  99 134 188 233 300 364 424
#     4  11  25  43  71 105 135 191 240 296 360 436
#     4  10  22  42  66  98 132 180 248 286 350 440
#
# _framework density 21.867602000000002
#
# number of rings (size 3 to 8) (size 9 to 14) (size 15 to 20)
#    0.000    0.727    5.455    1.091    5.091    2.182 
#    0.000    0.000    0.000    0.000    0.000    0.000 
#    0.000    0.000    0.000    0.000    0.000    0.000 
#
# Total GULP energy -272557.026407 kJ/mol
# GULP energy per Si atom -12388.955746 kJ/mol
# Density = 2.181783 g / cm^3
# Si number density = 21.867602 Si / 1000 Ang^3
#
#
#
# Elastic Constant Matrix: (Units=GPa)
#
#
# Indices 1 2 3 4 5 6 
#
# 1 62.2232 32.7262 13.5009 0.0000 0.0000 0.0000
# 2 32.7262 82.5102 6.2554 0.0000 0.0000 0.0000
# 3 13.5009 6.2554 100.0093 0.0000 0.0000 0.0000
# 4 0.0000 0.0000 0.0000 32.7371 0.0000 0.0000
# 5 0.0000 0.0000 0.0000 0.0000 25.8962 0.0000
# 6 0.0000 0.0000 0.0000 0.0000 0.0000 42.5039
#
#
#
# Elastic Compliance Matrix: (Units=1/GPa)
#
#
# Indices 1 2 3 4 5 6 
#
# 1 0.020823 -0.008084 -0.002305 0.000000 0.000000 0.000000
# 2 -0.008084 0.015316 0.000133 0.000000 0.000000 0.000000
# 3 -0.002305 0.000133 0.010302 0.000000 0.000000 0.000000
# 4 0.000000 0.000000 0.000000 0.030546 0.000000 0.000000
# 5 0.000000 0.000000 0.000000 0.000000 0.038616 0.000000
# 6 0.000000 0.000000 0.000000 0.000000 0.000000 0.023527
#
#
# Mechanical properties :
#
#
# Convention : Reuss Voigt Hill
#
# Bulk Modulus (GPa) = 38.56755 38.85639 38.71197
# Shear Modulus (GPa) = 29.71123 33.04480 31.37802
#
# Velocity S-wave (km/s) = 3.69004 3.89154 3.79213
# Velocity P-wave (km/s) = 5.98584 6.16439 6.07577
#
# Compressibility (1/GPa) = 0.02592853
#
# Stress axis : x y z
#
# Youngs Moduli (GPa) = 48.02294 65.29059 97.06902
#
# Poissons Ratio (x) = 0.52784 0.22378
# Poissons Ratio (y) = 0.38824 -0.01295
# Poissons Ratio (z) = 0.11071 -0.00871
#
# Static dielectric constant tensor:
#      x y z
#    x 3.962730 0.000000 0.000000 
#    y 0.000000 4.035260 0.000000 
#    z 0.000000 0.000000 3.926720 
# 
# 
# High freq. dielectric constant tensor:
#      x y z
#    x 1.852590 0.000000 0.000000 
#    y 0.000000 1.868930 0.000000 
#    z 0.000000 0.000000 1.856060 
# 
# From -- ./inp_files/5731.got.cif
#   From: 2010.06.25/outbox.cif.g09.slc.cpg/sg43_3_cif.got.tgz:5731.got - 2010.06.26 16:48:59.
