data_PCOD8187121
_publ_section_title
;
Structure prediction by ZEFSAII (Michael W. Deem and Ramdas Pophale) SiO2 
 PCOD8187121
Probable space group: F D D 2
;
_chemical_formula_sum "Si O2"
_cell_formula_units_Z 104
_cell_length_a 28.321788
_cell_length_b 18.912757
_cell_length_c 8.443560
_cell_angle_alpha 90.000000
_cell_angle_beta 90.000000
_cell_angle_gamma 90.000000
_cell_volume 4522.734605
_symmetry_space_group_name_H-M "F D D 2"
_symmetry_group_IT_number 43
_symmetry_cell_setting 'orthorhombic'
loop_
_space_group_symop_operation_xyz
x,y,z
-x,-y,z
1/4-x,1/4+y,1/4+z
1/4+x,1/4-y,1/4+z
x,1/2+y,1/2+z
-x,1/2-y,1/2+z
1/4-x,3/4+y,3/4+z
1/4+x,3/4-y,3/4+z
1/2+x,y,1/2+z
1/2-x,-y,1/2+z
3/4-x,1/4+y,3/4+z
3/4+x,1/4-y,3/4+z
1/2+x,1/2+y,z
1/2-x,1/2-y,z
3/4-x,3/4+y,1/4+z
3/4+x,3/4-y,1/4+z
loop_
_atom_site_type_symbol
_atom_site_label
_atom_site_fract_x
_atom_site_fract_y
_atom_site_fract_z
Si Si1 0.500000 0.000000 0.556041
Si Si2 0.570581 0.248497 0.086713
Si Si3 0.330118 0.369156 0.789184
Si Si4 0.988717 0.851592 0.076870
Si Si5 0.346664 0.023096 0.192552
Si Si6 0.922204 0.501215 0.809236
Si Si7 0.272840 0.631098 0.193884
O O1 0.494898 0.923976 0.469366
O O2 0.451196 0.006413 0.650837
O O3 0.620297 0.281687 0.026780
O O4 0.561533 0.173681 0.003600
O O5 0.529549 0.299094 0.023696
O O6 0.570413 0.239870 0.276050
O O7 0.354416 0.446920 0.778553
O O8 0.355207 0.319389 0.923077
O O9 0.338686 0.329798 0.622638
O O10 0.272988 0.373130 0.810228
O O11 0.993467 0.869311 0.262610
O O12 0.937695 0.818444 0.052193
O O13 0.951194 0.457487 0.944301
#
# Coordination Sequence:
#
# PCOD8187121 Si02
#       7
#     8  16  16  16  16  16  16
#     4  10  20  40  64  86 132 168 220 274 326 406
#     4  11  22  37  71  94 129 170 228 277 337 404
#     4  11  21  43  65  96 134 179 220 285 330 412
#     4  11  21  45  60  96 133 175 212 284 336 406
#     4  11  25  41  67  96 136 177 225 277 345 402
#     4  10  21  36  64  99 120 166 224 279 316 401
#     4  11  22  41  68  95 132 175 229 274 339 399
#
# _framework density 22.994937
#
# number of rings (size 3 to 8) (size 9 to 14) (size 15 to 20)
#    0.000    1.231    6.154    0.000   10.769    0.000 
#    5.538    1.538    0.000    0.000    0.000    0.000 
#    0.000    0.000    0.000    0.000    0.000    0.000 
#
# Total GULP energy -322116.138444 kJ/mol
# GULP energy per Si atom -12389.082248 kJ/mol
# Density = 2.294260 g / cm^3
# Si number density = 22.994937 Si / 1000 Ang^3
#
#
#
# Elastic Constant Matrix: (Units=GPa)
#
#
# Indices 1 2 3 4 5 6 
#
# 1 166.4177 47.7689 17.7045 0.0000 0.0000 0.0000
# 2 47.7689 162.8191 8.8532 -0.0001 0.0000 0.0000
# 3 17.7045 8.8532 10.2404 -0.0001 0.0000 0.0000
# 4 0.0000 -0.0001 -0.0001 15.4972 0.0000 0.0000
# 5 0.0000 0.0000 0.0000 0.0000 26.6488 0.0000
# 6 0.0000 0.0000 0.0000 0.0000 0.0000 36.9689
#
#
#
# Elastic Compliance Matrix: (Units=1/GPa)
#
#
# Indices 1 2 3 4 5 6 
#
# 1 0.007751 -0.001622 -0.011998 0.000000 0.000000 0.000000
# 2 -0.001622 0.006784 -0.003061 0.000000 0.000000 0.000000
# 3 -0.011998 -0.003061 0.121043 0.000001 0.000000 0.000000
# 4 0.000000 0.000000 0.000001 0.064528 0.000000 0.000000
# 5 0.000000 0.000000 0.000000 0.000000 0.037525 0.000000
# 6 0.000000 0.000000 0.000000 0.000000 0.000000 0.027050
#
#
# Mechanical properties :
#
#
# Convention : Reuss Voigt Hill
#
# Bulk Modulus (GPa) = 9.78332 54.23673 32.01002
# Shear Modulus (GPa) = 15.05500 33.49968 24.27734
#
# Velocity S-wave (km/s) = 2.56151 3.82098 3.25279
# Velocity P-wave (km/s) = 3.60724 6.56537 5.29700
#
# Compressibility (1/GPa) = 0.10221476
#
# Stress axis : x y z
#
# Youngs Moduli (GPa) = 129.01709 147.40555 8.26153
#
# Poissons Ratio (x) = 0.23903 0.09913
# Poissons Ratio (y) = 0.20921 0.02529
# Poissons Ratio (z) = 1.54801 0.45128
#
# Static dielectric constant tensor:
#      x y z
#    x 4.486380 0.000000 0.000000 
#    y 0.000000 4.756580 0.000000 
#    z 0.000000 0.000000 3.485650 
# 
# 
# High freq. dielectric constant tensor:
#      x y z
#    x 1.925800 0.000000 0.000000 
#    y 0.000000 1.931240 0.000000 
#    z 0.000000 0.000000 1.841130 
# 
# From -- ./inp_files/6852.got.cif
#   From: 2010.06.25/outbox.cif.g09.slc.cpg/sg43_4_cif.got.tgz:6852.got - 2010.06.26 16:48:59.
