data_PCOD8187521
_publ_section_title
;
Structure prediction by ZEFSAII (Michael W. Deem and Ramdas Pophale) SiO2 
 PCOD8187521
Probable space group: F D D 2
;
_chemical_formula_sum "Si O2"
_cell_formula_units_Z 56
_cell_length_a 17.098069
_cell_length_b 17.428702
_cell_length_c 7.426995
_cell_angle_alpha 90.000000
_cell_angle_beta 90.000000
_cell_angle_gamma 90.000000
_cell_volume 2213.223338
_symmetry_space_group_name_H-M "F D D 2"
_symmetry_group_IT_number 43
_symmetry_cell_setting 'orthorhombic'
loop_
_space_group_symop_operation_xyz
x,y,z
-x,-y,z
1/4-x,1/4+y,1/4+z
1/4+x,1/4-y,1/4+z
x,1/2+y,1/2+z
-x,1/2-y,1/2+z
1/4-x,3/4+y,3/4+z
1/4+x,3/4-y,3/4+z
1/2+x,y,1/2+z
1/2-x,-y,1/2+z
3/4-x,1/4+y,3/4+z
3/4+x,1/4-y,3/4+z
1/2+x,1/2+y,z
1/2-x,1/2-y,z
3/4-x,3/4+y,1/4+z
3/4+x,3/4-y,1/4+z
loop_
_atom_site_type_symbol
_atom_site_label
_atom_site_fract_x
_atom_site_fract_y
_atom_site_fract_z
Si Si1 0.250000 0.250000 0.910400
Si Si2 0.542888 0.312957 0.103495
Si Si3 0.620753 0.894186 0.299929
Si Si4 0.486757 0.156549 0.010510
O O1 0.224295 0.321889 0.782250
O O2 0.176940 0.224667 0.035171
O O3 0.461419 0.340712 0.013273
O O4 0.550190 0.221550 0.065953
O O5 0.547188 0.331369 0.312433
O O6 0.611498 0.358126 0.999795
O O7 0.586852 0.835940 0.148974
#
# Coordination Sequence:
#
# PCOD8187521 Si02
#       4
#     8  16  16  16
#     4   8  22  44  62 100 136 174 230 298 330 428
#     4  12  24  47  73 101 144 191 233 296 357 425
#     4  10  26  42  71 102 142 183 240 289 356 419
#     4  10  23  47  67 104 135 186 230 297 348 429
#
# _framework density 25.302462999999999
#
# number of rings (size 3 to 8) (size 9 to 14) (size 15 to 20)
#    1.714    0.000    2.857    0.000    4.000    5.714 
#    0.000    0.000    0.000    0.000    0.000    0.000 
#    0.000    0.000    0.000    0.000    0.000    0.000 
#
# Total GULP energy -173562.549394 kJ/mol
# GULP energy per Si atom -12397.324957 kJ/mol
# Density = 2.524487 g / cm^3
# Si number density = 25.302463 Si / 1000 Ang^3
#
#
#
# Elastic Constant Matrix: (Units=GPa)
#
#
# Indices 1 2 3 4 5 6 
#
# 1 36.0679 4.8481 -21.3673 -0.0002 0.0002 0.0001
# 2 4.8481 182.5655 52.7413 -0.0006 0.0006 0.0002
# 3 -21.3673 52.7413 155.3017 -0.0018 0.0020 0.0009
# 4 -0.0002 -0.0006 -0.0018 46.2900 0.0009 0.0004
# 5 0.0002 0.0006 0.0020 0.0009 21.9049 -0.0004
# 6 0.0001 0.0002 0.0009 0.0004 -0.0004 28.2119
#
#
#
# Elastic Compliance Matrix: (Units=1/GPa)
#
#
# Indices 1 2 3 4 5 6 
#
# 1 0.031019 -0.002280 0.005042 0.000000 -0.000001 0.000000
# 2 -0.002280 0.006241 -0.002433 0.000000 0.000000 0.000000
# 3 0.005042 -0.002433 0.007959 0.000000 -0.000001 0.000000
# 4 0.000000 0.000000 0.000000 0.021603 -0.000001 0.000000
# 5 -0.000001 0.000000 -0.000001 -0.000001 0.045652 0.000001
# 6 0.000000 0.000000 0.000000 0.000000 0.000001 0.035446
#
#
# Mechanical properties :
#
#
# Convention : Reuss Voigt Hill
#
# Bulk Modulus (GPa) = 21.79766 49.59770 35.69768
# Shear Modulus (GPa) = 30.75882 41.79556 36.27719
#
# Velocity S-wave (km/s) = 3.49039 4.06869 3.79059
# Velocity P-wave (km/s) = 4.98772 6.45885 5.77036
#
# Compressibility (1/GPa) = 0.04587648
#
# Stress axis : x y z
#
# Youngs Moduli (GPa) = 32.23818 160.23141 125.64160
#
# Poissons Ratio (x) = 0.36539 -0.63351
# Poissons Ratio (y) = 0.07352 0.30571
# Poissons Ratio (z) = -0.16255 0.38988
#
# Static dielectric constant tensor:
#      x y z
#    x 4.047640 0.000000 0.000000 
#    y 0.000000 4.634210 0.000000 
#    z 0.000000 0.000000 4.253670 
# 
# 
# High freq. dielectric constant tensor:
#      x y z
#    x 1.982920 0.000000 0.000000 
#    y 0.000000 2.017820 0.000000 
#    z 0.000000 0.000000 2.010950 
# 
# From -- ./inp_files/2150.got.cif
#   From: 2010.06.25/outbox.cif.g09.slc.cpg/sg43_2_cif.got.tgz:2150.got - 2010.06.26 16:48:59.
