data_PCOD8187546
_publ_section_title
;
Structure prediction by ZEFSAII (Michael W. Deem and Ramdas Pophale) SiO2 
 PCOD8187546
Probable space group: F D D 2
;
_chemical_formula_sum "Si O2"
_cell_formula_units_Z 120
_cell_length_a 17.742407
_cell_length_b 11.972676
_cell_length_c 23.515788
_cell_angle_alpha 90.000000
_cell_angle_beta 90.000000
_cell_angle_gamma 90.000000
_cell_volume 4995.319878
_symmetry_space_group_name_H-M "F D D 2"
_symmetry_group_IT_number 43
_symmetry_cell_setting 'orthorhombic'
loop_
_space_group_symop_operation_xyz
x,y,z
-x,-y,z
1/4-x,1/4+y,1/4+z
1/4+x,1/4-y,1/4+z
x,1/2+y,1/2+z
-x,1/2-y,1/2+z
1/4-x,3/4+y,3/4+z
1/4+x,3/4-y,3/4+z
1/2+x,y,1/2+z
1/2-x,-y,1/2+z
3/4-x,1/4+y,3/4+z
3/4+x,1/4-y,3/4+z
1/2+x,1/2+y,z
1/2-x,1/2-y,z
3/4-x,3/4+y,1/4+z
3/4+x,3/4-y,1/4+z
loop_
_atom_site_type_symbol
_atom_site_label
_atom_site_fract_x
_atom_site_fract_y
_atom_site_fract_z
Si Si1 0.230339 0.501540 0.185210
Si Si2 0.791157 0.633425 0.790374
Si Si3 0.285076 0.928104 0.858840
Si Si4 0.552014 0.314722 0.235731
Si Si5 0.930992 0.806961 0.324606
Si Si6 0.174281 0.808855 0.461674
Si Si7 0.881813 0.067761 0.822390
Si Si8 0.250000 0.750000 0.659951
O O1 0.245882 0.559381 0.245252
O O2 0.282536 0.559024 0.137475
O O3 0.143924 0.533853 0.167091
O O4 0.242645 0.367277 0.194425
O O5 0.750000 0.750000 0.801813
O O6 0.793236 0.563172 0.849856
O O7 0.873844 0.647007 0.767017
O O8 0.293160 0.883172 0.923093
O O9 0.351302 0.870094 0.822371
O O10 0.202563 0.893953 0.837704
O O11 0.484131 0.358595 0.275669
O O12 0.555092 0.184451 0.224257
O O13 0.925556 0.679227 0.305975
O O14 0.250000 0.750000 0.440194
O O15 0.138664 0.762332 0.519574
O O16 0.922918 0.005220 0.874230
#
# Coordination Sequence:
#
# PCOD8187546 Si02
#       8
#    16  16  16  16  16  16  16   8
#     4  11  24  46  78 105 157 200 251 318 399 460
#     4  12  26  49  75 110 157 201 259 323 386 470
#     4  12  28  47  76 111 149 208 262 315 392 475
#     4  12  27  48  74 110 154 199 263 312 388 476
#     4  11  26  50  74 109 153 202 249 331 391 468
#     4  12  23  45  73 107 143 194 251 311 377 454
#     4  11  22  47  73 105 152 189 249 321 383 459
#     4  10  24  42  74 112 144 196 252 306 396 452
#
# _framework density 24.022486000000001
#
# number of rings (size 3 to 8) (size 9 to 14) (size 15 to 20)
#    0.000    0.533    6.000    1.200    3.733    4.267 
#    2.400    0.000    0.000    0.000    0.000    0.000 
#    0.000    0.000    0.000    0.000    0.000    0.000 
#
# Total GULP energy -371911.803336 kJ/mol
# GULP energy per Si atom -12397.060111 kJ/mol
# Density = 2.396781 g / cm^3
# Si number density = 24.022486 Si / 1000 Ang^3
#
#
#
# Elastic Constant Matrix: (Units=GPa)
#
#
# Indices 1 2 3 4 5 6 
#
# 1 157.3113 9.3439 14.3659 0.0000 0.0000 0.0000
# 2 9.3439 71.3040 4.1377 0.0000 0.0000 0.0000
# 3 14.3659 4.1377 68.1396 0.0000 0.0000 0.0000
# 4 0.0000 0.0000 0.0000 7.9752 0.0000 0.0000
# 5 0.0000 0.0000 0.0000 0.0000 26.4310 0.0000
# 6 0.0000 0.0000 0.0000 0.0000 0.0000 44.8010
#
#
#
# Elastic Compliance Matrix: (Units=1/GPa)
#
#
# Indices 1 2 3 4 5 6 
#
# 1 0.006524 -0.000778 -0.001328 0.000000 0.000000 0.000000
# 2 -0.000778 0.014167 -0.000696 0.000000 0.000000 0.000000
# 3 -0.001328 -0.000696 0.014998 0.000000 0.000000 0.000000
# 4 0.000000 0.000000 0.000000 0.125388 0.000000 0.000000
# 5 0.000000 0.000000 0.000000 0.000000 0.037834 0.000000
# 6 0.000000 0.000000 0.000000 0.000000 0.000000 0.022321
#
#
# Mechanical properties :
#
#
# Convention : Reuss Voigt Hill
#
# Bulk Modulus (GPa) = 33.23992 39.16111 36.20051
# Shear Modulus (GPa) = 21.10899 33.76859 27.43879
#
# Velocity S-wave (km/s) = 2.96753 3.75334 3.38333
# Velocity P-wave (km/s) = 5.06051 5.92627 5.51042
#
# Compressibility (1/GPa) = 0.03008431
#
# Stress axis : x y z
#
# Youngs Moduli (GPa) = 153.27245 70.58758 66.67524
#
# Poissons Ratio (x) = 0.05491 0.08856
# Poissons Ratio (y) = 0.11923 0.04642
# Poissons Ratio (z) = 0.20359 0.04915
#
# Static dielectric constant tensor:
#      x y z
#    x 4.777100 0.000000 0.000000 
#    y 0.000000 4.168190 0.000000 
#    z 0.000000 0.000000 4.386820 
# 
# 
# High freq. dielectric constant tensor:
#      x y z
#    x 1.978680 0.000000 0.000000 
#    y 0.000000 1.952340 0.000000 
#    z 0.000000 0.000000 1.946930 
# 
# From -- ./inp_files/26072.got.cif
#   From: 2010.06.25/outbox.cif.g09.slc.cpg/sg43_14_cif.got.tgz:26072.got - 2010.06.26 16:48:59.
