data_PCOD8187726
_publ_section_title
;
Structure prediction by ZEFSAII (Michael W. Deem and Ramdas Pophale) SiO2 
 PCOD8187726
Probable space group: F D D 2
;
_chemical_formula_sum "Si O2"
_cell_formula_units_Z 120
_cell_length_a 17.341701
_cell_length_b 25.384910
_cell_length_c 11.183059
_cell_angle_alpha 90.000000
_cell_angle_beta 90.000000
_cell_angle_gamma 90.000000
_cell_volume 4922.978489
_symmetry_space_group_name_H-M "F D D 2"
_symmetry_group_IT_number 43
_symmetry_cell_setting 'orthorhombic'
loop_
_space_group_symop_operation_xyz
x,y,z
-x,-y,z
1/4-x,1/4+y,1/4+z
1/4+x,1/4-y,1/4+z
x,1/2+y,1/2+z
-x,1/2-y,1/2+z
1/4-x,3/4+y,3/4+z
1/4+x,3/4-y,3/4+z
1/2+x,y,1/2+z
1/2-x,-y,1/2+z
3/4-x,1/4+y,3/4+z
3/4+x,1/4-y,3/4+z
1/2+x,1/2+y,z
1/2-x,1/2-y,z
3/4-x,3/4+y,1/4+z
3/4+x,3/4-y,1/4+z
loop_
_atom_site_type_symbol
_atom_site_label
_atom_site_fract_x
_atom_site_fract_y
_atom_site_fract_z
Si Si1 0.357639 0.324828 0.160180
Si Si2 0.404048 0.933810 0.755772
Si Si3 0.241333 0.160599 0.724928
Si Si4 0.000000 0.500000 0.567398
Si Si5 0.832917 0.443012 0.236711
Si Si6 0.478360 0.387296 0.746409
Si Si7 0.155364 0.970104 0.551937
Si Si8 0.011077 0.268536 0.605495
O O1 0.376656 0.374102 0.242769
O O2 0.312952 0.280231 0.236185
O O3 0.439808 0.307752 0.109764
O O4 0.310333 0.342555 0.042653
O O5 0.448226 0.935726 0.883376
O O6 0.457656 0.956463 0.650098
O O7 0.324639 0.966981 0.755309
O O8 0.201218 0.108185 0.666457
O O9 0.278537 0.143914 0.852429
O O10 0.177714 0.205448 0.749196
O O11 0.768668 0.458391 0.334885
O O12 0.911760 0.425168 0.301048
O O13 0.850506 0.500005 0.177505
O O14 0.462284 0.329794 0.801291
O O15 0.193381 0.018016 0.479054
#
# Coordination Sequence:
#
# PCOD8187726 Si02
#       8
#    16  16  16   8  16  16  16  16
#     4  12  28  48  77 112 158 208 261 326 399 485
#     4  12  28  48  77 112 158 208 261 326 399 485
#     4  11  25  48  74 108 150 196 262 323 380 458
#     4  12  30  52  78 112 168 210 264 324 420 486
#     4  11  24  43  73 105 144 193 249 315 382 455
#     4  11  25  48  74 108 150 196 262 323 380 458
#     4  11  24  43  73 105 144 193 249 315 382 455
#     4  12  25  44  70 105 145 196 254 307 392 454
#
# _framework density 24.375485999999999
#
# number of rings (size 3 to 8) (size 9 to 14) (size 15 to 20)
#    0.000    0.533    1.333    5.600    5.600    9.067 
#    0.000    0.000    0.000    0.000    0.000    0.000 
#    0.000    0.000    0.000    0.000    0.000    0.000 
#
# Total GULP energy -371782.666949 kJ/mol
# GULP energy per Si atom -12392.755565 kJ/mol
# Density = 2.432001 g / cm^3
# Si number density = 24.375486 Si / 1000 Ang^3
#
#
#
# Elastic Constant Matrix: (Units=GPa)
#
#
# Indices 1 2 3 4 5 6 
#
# 1 133.7407 39.1166 18.8882 0.0000 0.0000 0.0000
# 2 39.1166 103.4406 22.5945 0.0000 0.0000 0.0000
# 3 18.8882 22.5945 77.4363 0.0000 0.0000 0.0000
# 4 0.0000 0.0000 0.0000 31.0680 0.0000 0.0000
# 5 0.0000 0.0000 0.0000 0.0000 35.6006 0.0000
# 6 0.0000 0.0000 0.0000 0.0000 0.0000 49.5230
#
#
#
# Elastic Compliance Matrix: (Units=1/GPa)
#
#
# Indices 1 2 3 4 5 6 
#
# 1 0.008513 -0.002954 -0.001215 0.000000 0.000000 0.000000
# 2 -0.002954 0.011350 -0.002591 0.000000 0.000000 0.000000
# 3 -0.001215 -0.002591 0.013966 0.000000 0.000000 0.000000
# 4 0.000000 0.000000 0.000000 0.032187 0.000000 0.000000
# 5 0.000000 0.000000 0.000000 0.000000 0.028089 0.000000
# 6 0.000000 0.000000 0.000000 0.000000 0.000000 0.020193
#
#
# Mechanical properties :
#
#
# Convention : Reuss Voigt Hill
#
# Bulk Modulus (GPa) = 49.23716 52.86846 51.05281
# Shear Modulus (GPa) = 37.15041 38.83954 37.99498
#
# Velocity S-wave (km/s) = 3.90819 3.99605 3.95237
# Velocity P-wave (km/s) = 6.37249 6.55954 6.46669
#
# Compressibility (1/GPa) = 0.02030986
#
# Stress axis : x y z
#
# Youngs Moduli (GPa) = 117.47274 88.10251 71.60140
#
# Poissons Ratio (x) = 0.26024 0.08696
# Poissons Ratio (y) = 0.34699 0.18555
# Poissons Ratio (z) = 0.14267 0.22831
#
# Static dielectric constant tensor:
#      x y z
#    x 4.667290 0.000000 0.000000 
#    y 0.000000 4.599130 0.000000 
#    z 0.000000 0.000000 4.299890 
# 
# 
# High freq. dielectric constant tensor:
#      x y z
#    x 1.987760 0.000000 0.000000 
#    y 0.000000 1.988300 0.000000 
#    z 0.000000 0.000000 1.953770 
# 
# From -- ./inp_files/6806.got.cif
#   From: 2010.06.25/outbox.cif.g09.slc.cpg/sg43_4_cif.got.tgz:6806.got - 2010.06.26 16:48:59.
