data_PCOD8187120
_publ_section_title
;
Structure prediction by ZEFSAII (Michael W. Deem and Ramdas Pophale) SiO2 
 PCOD8187120
Probable space group: F D D 2
;
_chemical_formula_sum "Si O2"
_cell_formula_units_Z 120
_cell_length_a 11.613329
_cell_length_b 19.746992
_cell_length_c 23.854559
_cell_angle_alpha 90.000000
_cell_angle_beta 90.000000
_cell_angle_gamma 90.000000
_cell_volume 5470.525817
_symmetry_space_group_name_H-M "F D D 2"
_symmetry_group_IT_number 43
_symmetry_cell_setting 'orthorhombic'
loop_
_space_group_symop_operation_xyz
x,y,z
-x,-y,z
1/4-x,1/4+y,1/4+z
1/4+x,1/4-y,1/4+z
x,1/2+y,1/2+z
-x,1/2-y,1/2+z
1/4-x,3/4+y,3/4+z
1/4+x,3/4-y,3/4+z
1/2+x,y,1/2+z
1/2-x,-y,1/2+z
3/4-x,1/4+y,3/4+z
3/4+x,1/4-y,3/4+z
1/2+x,1/2+y,z
1/2-x,1/2-y,z
3/4-x,3/4+y,1/4+z
3/4+x,3/4-y,1/4+z
loop_
_atom_site_type_symbol
_atom_site_label
_atom_site_fract_x
_atom_site_fract_y
_atom_site_fract_z
Si Si1 0.291009 0.894260 0.761350
Si Si2 0.285867 0.412447 0.522153
Si Si3 0.049761 0.700224 0.209824
Si Si4 0.192306 0.644069 0.547885
Si Si5 0.500000 0.000000 0.214209
Si Si6 0.368329 0.278964 0.466461
Si Si7 0.191710 0.317616 0.162594
Si Si8 0.677942 0.088565 0.151183
O O1 0.397596 0.844454 0.772960
O O2 0.193696 0.877645 0.809701
O O3 0.232961 0.878909 0.701227
O O4 0.329870 0.972561 0.758750
O O5 0.325218 0.472628 0.479497
O O6 0.344941 0.344143 0.503097
O O7 0.331980 0.419151 0.584951
O O8 0.160145 0.664597 0.178615
O O9 0.013745 0.665509 0.268547
O O10 0.945577 0.693916 0.164916
O O11 0.170957 0.705667 0.504857
O O12 0.266742 0.666266 0.600370
O O13 0.428004 0.952277 0.174944
O O14 0.250000 0.250000 0.439154
O O15 0.452973 0.302523 0.417407
O O16 0.250000 0.250000 0.185697
#
# Coordination Sequence:
#
# PCOD8187120 Si02
#       8
#    16  16  16  16   8  16  16  16
#     4  10  22  43  65  99 137 175 235 287 338 430
#     4  11  25  46  67  99 142 189 224 295 349 421
#     4  10  25  43  64 105 142 173 243 289 342 431
#     4  10  21  36  71  99 135 177 224 288 352 402
#     4  10  20  40  64 106 134 172 230 288 330 428
#     4  10  24  47  68  96 139 180 240 284 341 432
#     4  11  21  40  70 103 136 177 229 298 351 404
#     4  11  25  44  71  99 139 187 231 281 367 413
#
# _framework density 21.935734
#
# number of rings (size 3 to 8) (size 9 to 14) (size 15 to 20)
#    0.000    1.600    3.333    0.000    1.867    6.933 
#    9.600    0.000    0.000    0.000    0.000    0.000 
#    0.000    0.000    0.000    0.000    0.000    0.000 
#
# Total GULP energy -371772.474819 kJ/mol
# GULP energy per Si atom -12392.415827 kJ/mol
# Density = 2.188581 g / cm^3
# Si number density = 21.935734 Si / 1000 Ang^3
#
#
#
# Elastic Constant Matrix: (Units=GPa)
#
#
# Indices 1 2 3 4 5 6 
#
# 1 85.2188 27.0118 37.6371 0.0000 0.0000 0.0000
# 2 27.0118 103.3263 41.2612 0.0000 0.0000 0.0000
# 3 37.6371 41.2612 108.9688 0.0000 0.0000 0.0000
# 4 0.0000 0.0000 0.0000 11.2156 0.0000 0.0000
# 5 0.0000 0.0000 0.0000 0.0000 18.6239 0.0000
# 6 0.0000 0.0000 0.0000 0.0000 0.0000 32.4185
#
#
#
# Elastic Compliance Matrix: (Units=1/GPa)
#
#
# Indices 1 2 3 4 5 6 
#
# 1 0.014212 -0.002068 -0.004126 0.000000 0.000000 0.000000
# 2 -0.002068 0.011703 -0.003717 0.000000 0.000000 0.000000
# 3 -0.004126 -0.003717 0.012009 0.000000 0.000000 0.000000
# 4 0.000000 0.000000 0.000000 0.089162 0.000000 0.000000
# 5 0.000000 0.000000 0.000000 0.000000 0.053694 0.000000
# 6 0.000000 0.000000 0.000000 0.000000 0.000000 0.030847
#
#
# Mechanical properties :
#
#
# Convention : Reuss Voigt Hill
#
# Bulk Modulus (GPa) = 55.23923 56.59266 55.91595
# Shear Modulus (GPa) = 21.05413 25.22520 23.13966
#
# Velocity S-wave (km/s) = 3.10144 3.39478 3.25142
# Velocity P-wave (km/s) = 6.16946 6.42039 6.29617
#
# Compressibility (1/GPa) = 0.01810308
#
# Stress axis : x y z
#
# Youngs Moduli (GPa) = 70.36263 85.44809 83.26772
#
# Poissons Ratio (x) = 0.17669 0.34354
# Poissons Ratio (y) = 0.14550 0.30952
# Poissons Ratio (z) = 0.29030 0.31762
#
# Static dielectric constant tensor:
#      x y z
#    x 4.240380 0.000000 0.000000 
#    y 0.000000 4.490710 0.000000 
#    z 0.000000 0.000000 3.628800 
# 
# 
# High freq. dielectric constant tensor:
#      x y z
#    x 1.870750 0.000000 0.000000 
#    y 0.000000 1.876940 0.000000 
#    z 0.000000 0.000000 1.837960 
# 
# From -- ./inp_files/21233.got.cif
#   From: 2010.06.25/outbox.cif.g09.slc.cpg/sg43_11_cif.got.tgz:21233.got - 2010.06.26 16:48:59.
