data_PCOD8187609
_publ_section_title
;
Structure prediction by ZEFSAII (Michael W. Deem and Ramdas Pophale) SiO2 
 PCOD8187609
Probable space group: F D D 2
;
_chemical_formula_sum "Si O2"
_cell_formula_units_Z 88
_cell_length_a 4.980396
_cell_length_b 29.610353
_cell_length_c 23.539429
_cell_angle_alpha 90.000000
_cell_angle_beta 90.000000
_cell_angle_gamma 90.000000
_cell_volume 3471.389811
_symmetry_space_group_name_H-M "F D D 2"
_symmetry_group_IT_number 43
_symmetry_cell_setting 'orthorhombic'
loop_
_space_group_symop_operation_xyz
x,y,z
-x,-y,z
1/4-x,1/4+y,1/4+z
1/4+x,1/4-y,1/4+z
x,1/2+y,1/2+z
-x,1/2-y,1/2+z
1/4-x,3/4+y,3/4+z
1/4+x,3/4-y,3/4+z
1/2+x,y,1/2+z
1/2-x,-y,1/2+z
3/4-x,1/4+y,3/4+z
3/4+x,1/4-y,3/4+z
1/2+x,1/2+y,z
1/2-x,1/2-y,z
3/4-x,3/4+y,1/4+z
3/4+x,3/4-y,1/4+z
loop_
_atom_site_type_symbol
_atom_site_label
_atom_site_fract_x
_atom_site_fract_y
_atom_site_fract_z
Si Si1 0.521753 0.679129 0.091640
Si Si2 0.500000 0.000000 0.767082
Si Si3 0.080405 0.178689 0.428282
Si Si4 0.399925 0.608038 0.997890
Si Si5 0.263085 0.528453 0.062785
Si Si6 0.219954 0.904581 0.409140
O O1 0.470054 0.724477 0.055655
O O2 0.468625 0.635833 0.053483
O O3 0.829172 0.674442 0.111166
O O4 0.316613 0.677830 0.145451
O O5 0.679579 0.965327 0.729245
O O6 0.157023 0.204072 0.370767
O O7 0.805344 0.150969 0.413588
O O8 0.282718 0.138658 0.447005
O O9 0.193381 0.569613 0.019887
O O10 0.663030 0.583088 0.971399
O O11 0.500000 0.500000 0.033215
O O12 0.000000 0.500000 0.076930
#
# Coordination Sequence:
#
# PCOD8187609 Si02
#       6
#    16   8  16  16  16  16
#     4  11  27  47  77 111 157 200 266 317 399 467
#     4  10  26  54  74 124 150 212 258 354 378 470
#     4  11  25  50  81 113 152 201 272 315 395 473
#     4  11  26  49  79 107 155 213 250 314 406 476
#     4  12  29  48  75 115 156 194 262 334 385 461
#     4  12  25  47  76 109 151 210 257 313 386 494
#
# _framework density 25.350075
#
# number of rings (size 3 to 8) (size 9 to 14) (size 15 to 20)
#    0.000    0.727    4.545    0.000   12.727    0.727 
#    8.182    0.000    0.000    0.000    0.000    0.000 
#    0.000    0.000    0.000    0.000    0.000    0.000 
#
# Total GULP energy -272538.821489 kJ/mol
# GULP energy per Si atom -12388.128249 kJ/mol
# Density = 2.529238 g / cm^3
# Si number density = 25.350075 Si / 1000 Ang^3
#
#
#
# Elastic Constant Matrix: (Units=GPa)
#
#
# Indices 1 2 3 4 5 6 
#
# 1 102.9734 28.4920 18.2962 0.0000 0.0000 0.0000
# 2 28.4920 112.2226 33.8752 0.0000 0.0000 0.0000
# 3 18.2962 33.8752 59.0197 0.0000 0.0000 0.0000
# 4 0.0000 0.0000 0.0000 53.0933 0.0000 0.0000
# 5 0.0000 0.0000 0.0000 0.0000 22.8104 0.0000
# 6 0.0000 0.0000 0.0000 0.0000 0.0000 35.1373
#
#
#
# Elastic Compliance Matrix: (Units=1/GPa)
#
#
# Indices 1 2 3 4 5 6 
#
# 1 0.010660 -0.002067 -0.002118 0.000000 0.000000 0.000000
# 2 -0.002067 0.011179 -0.005776 0.000000 0.000000 0.000000
# 3 -0.002118 -0.005776 0.020915 0.000000 0.000000 0.000000
# 4 0.000000 0.000000 0.000000 0.018835 0.000000 0.000000
# 5 0.000000 0.000000 0.000000 0.000000 0.043840 0.000000
# 6 0.000000 0.000000 0.000000 0.000000 0.000000 0.028460
#
#
# Mechanical properties :
#
#
# Convention : Reuss Voigt Hill
#
# Bulk Modulus (GPa) = 43.79757 48.39359 46.09558
# Shear Modulus (GPa) = 30.97509 35.11168 33.04338
#
# Velocity S-wave (km/s) = 3.49935 3.72569 3.61429
# Velocity P-wave (km/s) = 5.80016 6.13509 5.96997
#
# Compressibility (1/GPa) = 0.02283232
#
# Stress axis : x y z
#
# Youngs Moduli (GPa) = 93.81301 89.45313 47.81232
#
# Poissons Ratio (x) = 0.18490 0.10127
# Poissons Ratio (y) = 0.19391 0.27615
# Poissons Ratio (z) = 0.19871 0.51665
#
# Static dielectric constant tensor:
#      x y z
#    x 4.357470 0.000000 0.000000 
#    y 0.000000 4.796420 0.000000 
#    z 0.000000 0.000000 4.686330 
# 
# 
# High freq. dielectric constant tensor:
#      x y z
#    x 1.995680 0.000000 0.000000 
#    y 0.000000 2.015670 0.000000 
#    z 0.000000 0.000000 2.023060 
# 
# From -- ./inp_files/19558.got.cif
#   From: 2010.06.25/outbox.cif.g09.slc.cpg/sg43_10_cif.got.tgz:19558.got - 2010.06.26 16:48:59.
