data_PCOD8187490
_publ_section_title
;
Structure prediction by ZEFSAII (Michael W. Deem and Ramdas Pophale) SiO2 
 PCOD8187490
Probable space group: F D D 2
;
_chemical_formula_sum "Si O2"
_cell_formula_units_Z 112
_cell_length_a 14.985947
_cell_length_b 26.925739
_cell_length_c 12.204617
_cell_angle_alpha 90.000000
_cell_angle_beta 90.000000
_cell_angle_gamma 90.000000
_cell_volume 4924.656906
_symmetry_space_group_name_H-M "F D D 2"
_symmetry_group_IT_number 43
_symmetry_cell_setting 'orthorhombic'
loop_
_space_group_symop_operation_xyz
x,y,z
-x,-y,z
1/4-x,1/4+y,1/4+z
1/4+x,1/4-y,1/4+z
x,1/2+y,1/2+z
-x,1/2-y,1/2+z
1/4-x,3/4+y,3/4+z
1/4+x,3/4-y,3/4+z
1/2+x,y,1/2+z
1/2-x,-y,1/2+z
3/4-x,1/4+y,3/4+z
3/4+x,1/4-y,3/4+z
1/2+x,1/2+y,z
1/2-x,1/2-y,z
3/4-x,3/4+y,1/4+z
3/4+x,3/4-y,1/4+z
loop_
_atom_site_type_symbol
_atom_site_label
_atom_site_fract_x
_atom_site_fract_y
_atom_site_fract_z
Si Si1 0.023254 0.051302 0.153260
Si Si2 0.437898 0.187177 0.098827
Si Si3 0.829704 0.081481 0.169719
Si Si4 0.900818 0.517224 0.199074
Si Si5 0.847552 0.425529 0.819075
Si Si6 0.978728 0.741747 0.762787
Si Si7 0.923480 0.368659 0.485063
O O1 0.091417 0.036064 0.250770
O O2 0.932386 0.073297 0.203927
O O3 0.076761 0.091536 0.082661
O O4 0.000000 0.000000 0.088380
O O5 0.476385 0.209337 0.211728
O O6 0.360177 0.147036 0.125270
O O7 0.517041 0.162817 0.026513
O O8 0.395926 0.232558 0.035861
O O9 0.831646 0.133525 0.105464
O O10 0.797445 0.037341 0.090415
O O11 0.853648 0.512985 0.081625
O O12 0.895632 0.572869 0.249495
O O13 0.000000 0.500000 0.179771
O O14 0.773415 0.403823 0.733752
O O15 0.803060 0.453593 0.919826
#
# Coordination Sequence:
#
# PCOD8187490 Si02
#       7
#    16  16  16  16  16  16  16
#     4  11  24  43  73 106 135 184 249 297 362 421
#     4  11  25  44  74 100 144 187 238 290 362 435
#     4  10  23  43  66 104 137 184 227 289 359 416
#     4  11  28  46  69 106 150 192 236 295 373 433
#     4  11  24  45  71 101 141 181 236 294 350 424
#     4  11  24  47  69 100 148 178 231 301 343 430
#     4  11  26  46  72 106 144 190 238 301 364 438
#
# _framework density 22.742702000000001
#
# number of rings (size 3 to 8) (size 9 to 14) (size 15 to 20)
#    0.000    1.143    1.429    3.429    8.000    3.429 
#    2.571    0.000    0.000    0.000    0.000    0.000 
#    0.000    0.000    0.000    0.000    0.000    0.000 
#
# Total GULP energy -347057.673546 kJ/mol
# GULP energy per Si atom -12394.916912 kJ/mol
# Density = 2.269094 g / cm^3
# Si number density = 22.742702 Si / 1000 Ang^3
#
#
#
# Elastic Constant Matrix: (Units=GPa)
#
#
# Indices 1 2 3 4 5 6 
#
# 1 127.8163 52.7394 78.3098 0.0000 0.0000 0.0000
# 2 52.7394 133.1117 42.4534 0.0000 0.0000 0.0000
# 3 78.3098 42.4534 102.7616 0.0000 0.0000 0.0000
# 4 0.0000 0.0000 0.0000 10.9859 0.0000 0.0000
# 5 0.0000 0.0000 0.0000 0.0000 17.2354 0.0000
# 6 0.0000 0.0000 0.0000 0.0000 0.0000 13.3511
#
#
#
# Elastic Compliance Matrix: (Units=1/GPa)
#
#
# Indices 1 2 3 4 5 6 
#
# 1 0.015493 -0.002733 -0.010678 0.000000 0.000000 0.000000
# 2 -0.002733 0.009135 -0.001691 0.000000 0.000000 0.000000
# 3 -0.010678 -0.001691 0.018567 0.000000 0.000000 0.000000
# 4 0.000000 0.000000 0.000000 0.091026 0.000000 0.000000
# 5 0.000000 0.000000 0.000000 0.000000 0.058020 0.000000
# 6 0.000000 0.000000 0.000000 0.000000 0.000000 0.074900
#
#
# Mechanical properties :
#
#
# Convention : Reuss Voigt Hill
#
# Bulk Modulus (GPa) = 76.97444 78.96610 77.97027
# Shear Modulus (GPa) = 16.57412 20.99360 18.78386
#
# Velocity S-wave (km/s) = 2.70250 3.04154 2.87702
# Velocity P-wave (km/s) = 6.60736 6.86524 6.73753
#
# Compressibility (1/GPa) = 0.01299132
#
# Stress axis : x y z
#
# Youngs Moduli (GPa) = 64.54361 109.47303 53.85957
#
# Poissons Ratio (x) = 0.29920 0.57509
# Poissons Ratio (y) = 0.17640 0.09108
# Poissons Ratio (z) = 0.68918 0.18512
#
# Static dielectric constant tensor:
#      x y z
#    x 4.572320 0.000000 0.000000 
#    y 0.000000 4.298750 0.000000 
#    z 0.000000 0.000000 3.996750 
# 
# 
# High freq. dielectric constant tensor:
#      x y z
#    x 1.908770 0.000000 0.000000 
#    y 0.000000 1.911270 0.000000 
#    z 0.000000 0.000000 1.883390 
# 
# From -- ./inp_files/6314.got.cif
#   From: 2010.06.25/outbox.cif.g09.slc.cpg/sg43_4_cif.got.tgz:6314.got - 2010.06.26 16:48:59.
