data_PCOD8187559
_publ_section_title
;
Structure prediction by ZEFSAII (Michael W. Deem and Ramdas Pophale) SiO2 
 PCOD8187559
Probable space group: F D D 2
;
_chemical_formula_sum "Si O2"
_cell_formula_units_Z 120
_cell_length_a 22.187689
_cell_length_b 28.299772
_cell_length_c 8.581338
_cell_angle_alpha 90.000000
_cell_angle_beta 90.000000
_cell_angle_gamma 90.000000
_cell_volume 5388.278251
_symmetry_space_group_name_H-M "F D D 2"
_symmetry_group_IT_number 43
_symmetry_cell_setting 'orthorhombic'
loop_
_space_group_symop_operation_xyz
x,y,z
-x,-y,z
1/4-x,1/4+y,1/4+z
1/4+x,1/4-y,1/4+z
x,1/2+y,1/2+z
-x,1/2-y,1/2+z
1/4-x,3/4+y,3/4+z
1/4+x,3/4-y,3/4+z
1/2+x,y,1/2+z
1/2-x,-y,1/2+z
3/4-x,1/4+y,3/4+z
3/4+x,1/4-y,3/4+z
1/2+x,1/2+y,z
1/2-x,1/2-y,z
3/4-x,3/4+y,1/4+z
3/4+x,3/4-y,1/4+z
loop_
_atom_site_type_symbol
_atom_site_label
_atom_site_fract_x
_atom_site_fract_y
_atom_site_fract_z
Si Si1 0.349887 0.081834 0.220430
Si Si2 0.572835 0.548124 0.409272
Si Si3 0.219831 0.442732 0.753576
Si Si4 0.977433 0.596553 0.120556
Si Si5 0.377672 0.856887 0.804693
Si Si6 0.690919 0.506040 0.537327
Si Si7 0.750000 0.250000 0.925352
Si Si8 0.251966 0.842885 0.725839
O O1 0.404989 0.091503 0.099330
O O2 0.368950 0.074567 0.399339
O O3 0.314561 0.036245 0.160948
O O4 0.308781 0.127894 0.232139
O O5 0.513503 0.560318 0.511097
O O6 0.586772 0.593843 0.302754
O O7 0.627994 0.534184 0.521271
O O8 0.557874 0.505529 0.290365
O O9 0.253836 0.400716 0.843486
O O10 0.154215 0.424776 0.695697
O O11 0.259045 0.458224 0.603866
O O12 0.211688 0.486519 0.870080
O O13 0.988408 0.581263 0.296339
O O14 0.306724 0.870566 0.814271
O O15 0.749077 0.205661 0.815972
#
# Coordination Sequence:
#
# PCOD8187559 Si02
#       8
#    16  16  16  16  16  16   8  16
#     4  11  23  46  68  99 141 185 224 293 349 432
#     4  11  25  43  71 106 134 185 227 303 342 428
#     4  11  25  44  66 105 135 191 229 300 342 430
#     4  10  25  46  69  99 147 180 231 279 373 414
#     4  10  24  44  69  97 140 182 232 278 362 411
#     4  12  26  41  72 102 144 178 246 290 356 419
#     4  12  24  44  72 102 136 174 248 284 346 418
#     4  11  24  45  69 101 137 186 225 291 347 426
#
# _framework density 22.270565999999999
#
# number of rings (size 3 to 8) (size 9 to 14) (size 15 to 20)
#    0.000    1.067    2.667    2.400    5.600    2.667 
#    2.400    0.000    0.000    0.000    0.000    0.000 
#    0.000    0.000    0.000    0.000    0.000    0.000 
#
# Total GULP energy -371880.693538 kJ/mol
# GULP energy per Si atom -12396.023118 kJ/mol
# Density = 2.221988 g / cm^3
# Si number density = 22.270566 Si / 1000 Ang^3
#
#
#
# Elastic Constant Matrix: (Units=GPa)
#
#
# Indices 1 2 3 4 5 6 
#
# 1 129.0357 40.2725 47.1229 -0.0004 -0.0023 0.0000
# 2 40.2725 91.0443 49.0593 0.0002 -0.0002 0.0006
# 3 47.1229 49.0593 102.5098 -0.0072 -0.0153 0.0022
# 4 -0.0004 0.0002 -0.0072 27.8791 -0.0075 0.0007
# 5 -0.0023 -0.0002 -0.0153 -0.0075 17.6184 -0.0006
# 6 0.0000 0.0006 0.0022 0.0007 -0.0006 32.2399
#
#
#
# Elastic Compliance Matrix: (Units=1/GPa)
#
#
# Indices 1 2 3 4 5 6 
#
# 1 0.009735 -0.002553 -0.003253 -0.000001 -0.000002 0.000000
# 2 -0.002553 0.015470 -0.006230 -0.000002 -0.000006 0.000000
# 3 -0.003253 -0.006230 0.014232 0.000004 0.000012 -0.000001
# 4 -0.000001 -0.000002 0.000004 0.035869 0.000015 -0.000001
# 5 -0.000002 -0.000006 0.000012 0.000015 0.056759 0.000001
# 6 0.000000 0.000000 -0.000001 -0.000001 0.000001 0.031017
#
#
# Mechanical properties :
#
#
# Convention : Reuss Voigt Hill
#
# Bulk Modulus (GPa) = 65.08537 66.16656 65.62597
# Shear Modulus (GPa) = 26.00423 27.95647 26.98035
#
# Velocity S-wave (km/s) = 3.42080 3.54688 3.48441
# Velocity P-wave (km/s) = 6.70006 6.82266 6.76163
#
# Compressibility (1/GPa) = 0.01536444
#
# Stress axis : x y z
#
# Youngs Moduli (GPa) = 102.72618 64.64092 70.26335
#
# Poissons Ratio (x) = 0.16503 0.22857
# Poissons Ratio (y) = 0.26227 0.43775
# Poissons Ratio (z) = 0.33417 0.40272
#
# Static dielectric constant tensor:
#      x y z
#    x 5.506340 -0.000200 -0.000010 
#    y -0.000200 4.068470 0.000000 
#    z -0.000010 0.000000 4.088920 
# 
# 
# High freq. dielectric constant tensor:
#      x y z
#    x 1.887420 0.000000 0.000000 
#    y 0.000000 1.871780 0.000000 
#    z 0.000000 0.000000 1.886250 
# 
# From -- ./inp_files/3875.got.cif
#   From: 2010.06.25/outbox.cif.g09.slc.cpg/sg43_2_cif.got.tgz:3875.got - 2010.06.26 16:48:59.
