data_PCOD8187981
_publ_section_title
;
Structure prediction by ZEFSAII (Michael W. Deem and Ramdas Pophale) SiO2 
 PCOD8187981
Probable space group: I M M 2
;
_chemical_formula_sum "Si O2"
_cell_formula_units_Z 56
_cell_length_a 29.645694
_cell_length_b 9.049057
_cell_length_c 13.722666
_cell_angle_alpha 90.000000
_cell_angle_beta 90.000000
_cell_angle_gamma 90.000000
_cell_volume 3681.318882
_symmetry_space_group_name_H-M "I M M 2"
_symmetry_group_IT_number 44
_symmetry_cell_setting 'orthorhombic'
loop_
_space_group_symop_operation_xyz
x,y,z
-x,-y,z
-x,y,z
x,-y,z
1/2+x,1/2+y,1/2+z
1/2-x,1/2-y,1/2+z
1/2-x,1/2+y,1/2+z
1/2+x,1/2-y,1/2+z
loop_
_atom_site_type_symbol
_atom_site_label
_atom_site_fract_x
_atom_site_fract_y
_atom_site_fract_z
Si Si1 0.815520 0.175345 0.383310
Si Si2 0.683224 0.327638 0.290194
Si Si3 0.096837 0.171614 0.482490
Si Si4 0.765348 0.171291 0.979343
Si Si5 0.764902 0.172503 0.196843
Si Si6 0.000000 0.828517 0.496656
Si Si7 0.000000 0.325132 0.700034
Si Si8 0.089569 0.174847 0.704386
O O1 0.864434 0.243129 0.414025
O O2 0.779131 0.234063 0.459832
O O3 0.802541 0.229477 0.274114
O O4 0.815374 0.000000 0.388211
O O5 0.687982 0.500000 0.268916
O O6 0.695376 0.287828 0.402266
O O7 0.717057 0.249011 0.215757
O O8 0.632159 0.276089 0.269811
O O9 0.046489 0.201779 0.437073
O O10 0.098693 0.230025 0.593541
O O11 0.107561 0.000000 0.485487
O O12 0.782543 0.209302 0.088210
O O13 0.752109 0.000000 0.969844
O O14 0.756571 0.000000 0.211085
O O15 0.000000 0.719651 0.587418
O O16 0.000000 0.000000 0.533745
O O17 0.954605 0.256656 0.748020
O O18 0.000000 0.500000 0.713612
O O19 0.080997 0.000000 0.708112
#
# Coordination Sequence:
#
# PCOD8187981 Si02
#       8
#     8   8   8   8   8   4   4   8
#     4   9  16  26  40  58  77 104 137 162 190 235
#     4   9  17  28  43  59  76 104 141 167 188 229
#     4   8  13  22  38  56  73  95 128 161 187 220
#     4   9  17  28  39  56  81 106 130 162 200 232
#     4   9  17  27  39  57  84 109 129 162 206 237
#     4   8  14  26  40  54  75 102 130 162 193 226
#     4  10  18  26  38  58  81 102 122 152 195 240
#     4   9  16  27  41  56  75 102 132 161 189 224
#
# _framework density 15.21194
#
# number of rings (size 3 to 8) (size 9 to 14) (size 15 to 20)
#    0.000    3.143    0.000    2.357    0.000    2.286 
#    0.000    4.286    0.000    0.000    0.000    1.000 
#    0.000    6.857    0.000    5.143    0.000    5.714 
#
# Total GULP energy -346926.546131 kJ/mol
# GULP energy per Si atom -12390.233790 kJ/mol
# Density = 1.517732 g / cm^3
# Si number density = 15.211940 Si / 1000 Ang^3
#
#
#
# Elastic Constant Matrix: (Units=GPa)
#
#
# Indices 1 2 3 4 5 6 
#
# 1 156.3379 28.6755 59.8640 0.0000 0.0000 0.0000
# 2 28.6755 27.0762 17.4653 0.0000 0.0000 0.0000
# 3 59.8640 17.4653 83.0885 0.0000 0.0000 0.0000
# 4 0.0000 0.0000 0.0000 13.0693 0.0000 0.0000
# 5 0.0000 0.0000 0.0000 0.0000 23.0498 0.0000
# 6 0.0000 0.0000 0.0000 0.0000 0.0000 19.2038
#
#
#
# Elastic Compliance Matrix: (Units=1/GPa)
#
#
# Indices 1 2 3 4 5 6 
#
# 1 0.009790 -0.006731 -0.005639 0.000000 0.000000 0.000000
# 2 -0.006731 0.047354 -0.005104 0.000000 0.000000 0.000000
# 3 -0.005639 -0.005104 0.017171 0.000000 0.000000 0.000000
# 4 0.000000 0.000000 0.000000 0.076515 0.000000 0.000000
# 5 0.000000 0.000000 0.000000 0.000000 0.043384 0.000000
# 6 0.000000 0.000000 0.000000 0.000000 0.000000 0.052073
#
#
# Mechanical properties :
#
#
# Convention : Reuss Voigt Hill
#
# Bulk Modulus (GPa) = 25.40204 53.16803 39.28504
# Shear Modulus (GPa) = 16.98610 21.76443 19.37526
#
# Velocity S-wave (km/s) = 3.34523 3.78662 3.57275
# Velocity P-wave (km/s) = 5.62634 7.35836 6.54985
#
# Compressibility (1/GPa) = 0.03936691
#
# Stress axis : x y z
#
# Youngs Moduli (GPa) = 102.14262 21.11751 58.23806
#
# Poissons Ratio (x) = 0.14215 0.32839
# Poissons Ratio (y) = 0.68755 0.29725
# Poissons Ratio (z) = 0.57596 0.10779
#
# Static dielectric constant tensor:
#      x y z
#    x 3.281010 0.000000 0.000000 
#    y 0.000000 2.752290 0.000000 
#    z 0.000000 0.000000 2.926530 
# 
# 
# High freq. dielectric constant tensor:
#      x y z
#    x 1.585620 0.000000 0.000000 
#    y 0.000000 1.566380 0.000000 
#    z 0.000000 0.000000 1.551110 
# 
# From -- ./inp_files/17042.got.cif
#   From: 2010.03.12/outbox.cif.g09.slc.cpg/sg44_9_cif.got.tgz:17042.got - 2010.04.14 02:36:11.
