data_PCOD8187881
_publ_section_title
;
Structure prediction by ZEFSAII (Michael W. Deem and Ramdas Pophale) SiO2 
 PCOD8187881
Probable space group: I M M 2
;
_chemical_formula_sum "Si O2"
_cell_formula_units_Z 40
_cell_length_a 8.725598
_cell_length_b 11.672519
_cell_length_c 20.192214
_cell_angle_alpha 90.000000
_cell_angle_beta 90.000000
_cell_angle_gamma 90.000000
_cell_volume 2056.571109
_symmetry_space_group_name_H-M "I M M 2"
_symmetry_group_IT_number 44
_symmetry_cell_setting 'orthorhombic'
loop_
_space_group_symop_operation_xyz
x,y,z
-x,-y,z
-x,y,z
x,-y,z
1/2+x,1/2+y,1/2+z
1/2-x,1/2-y,1/2+z
1/2-x,1/2+y,1/2+z
1/2+x,1/2-y,1/2+z
loop_
_atom_site_type_symbol
_atom_site_label
_atom_site_fract_x
_atom_site_fract_y
_atom_site_fract_z
Si Si1 0.317518 0.627388 0.560760
Si Si2 0.818871 0.284473 0.174654
Si Si3 0.321732 0.865789 0.813544
Si Si4 0.179743 0.000000 0.449520
Si Si5 0.680336 0.237582 0.432378
Si Si6 0.182013 0.500000 0.092455
O O1 0.500000 0.623633 0.557542
O O2 0.248979 0.500000 0.551047
O O3 0.264457 0.672344 0.633616
O O4 0.258259 0.711169 0.502384
O O5 0.758726 0.293014 0.250109
O O6 0.760346 0.391670 0.133020
O O7 0.000000 0.291093 0.178759
O O8 0.500000 0.840013 0.827484
O O9 0.222507 0.828473 0.876069
O O10 0.296302 0.000000 0.799416
O O11 0.244477 0.884827 0.415500
O O12 0.227298 0.000000 0.524994
O O13 0.000000 0.000000 0.439796
O O14 0.500000 0.220085 0.435514
O O15 0.000000 0.500000 0.077924
#
# Coordination Sequence:
#
# PCOD8187881 Si02
#       6
#     8   8   8   4   8   4
#     4   9  17  30  53  84 111 141 188 236 272 321
#     4   9  16  30  55  82 112 149 192 233 274 332
#     4  10  20  35  56  83 117 154 193 239 288 334
#     4  12  24  38  58  86 114 141 186 243 300 351
#     4  11  22  38  59  81 112 152 193 236 287 348
#     4  10  16  32  60  86 108 145 192 233 278 337
#
# _framework density 19.449849
#
# number of rings (size 3 to 8) (size 9 to 14) (size 15 to 20)
#    0.000    2.000    3.000    2.100    0.000    1.200 
#    1.800    1.000    0.000    0.000    0.000    0.000 
#    0.000    0.000    0.000    0.000    0.000    0.000 
#
# Total GULP energy -247914.669456 kJ/mol
# GULP energy per Si atom -12395.733473 kJ/mol
# Density = 1.940558 g / cm^3
# Si number density = 19.449849 Si / 1000 Ang^3
#
#
#
# Elastic Constant Matrix: (Units=GPa)
#
#
# Indices 1 2 3 4 5 6 
#
# 1 48.5973 24.7140 19.7534 0.0000 0.0000 0.0000
# 2 24.7140 115.6416 34.5376 0.0000 0.0000 0.0000
# 3 19.7534 34.5376 114.0956 0.0000 0.0000 0.0000
# 4 0.0000 0.0000 0.0000 35.9645 0.0000 0.0000
# 5 0.0000 0.0000 0.0000 0.0000 23.3482 0.0000
# 6 0.0000 0.0000 0.0000 0.0000 0.0000 19.5373
#
#
#
# Elastic Compliance Matrix: (Units=1/GPa)
#
#
# Indices 1 2 3 4 5 6 
#
# 1 0.023900 -0.004257 -0.002849 0.000000 0.000000 0.000000
# 2 -0.004257 0.010265 -0.002370 0.000000 0.000000 0.000000
# 3 -0.002849 -0.002370 0.009975 0.000000 0.000000 0.000000
# 4 0.000000 0.000000 0.000000 0.027805 0.000000 0.000000
# 5 0.000000 0.000000 0.000000 0.000000 0.042830 0.000000
# 6 0.000000 0.000000 0.000000 0.000000 0.000000 0.051184
#
#
# Mechanical properties :
#
#
# Convention : Reuss Voigt Hill
#
# Bulk Modulus (GPa) = 39.70169 48.48272 44.09221
# Shear Modulus (GPa) = 25.86537 29.05862 27.46200
#
# Velocity S-wave (km/s) = 3.65067 3.86946 3.76165
# Velocity P-wave (km/s) = 6.18276 6.70409 6.44869
#
# Compressibility (1/GPa) = 0.02518784
#
# Stress axis : x y z
#
# Youngs Moduli (GPa) = 41.84066 97.41788 100.24659
#
# Poissons Ratio (x) = 0.41469 0.28563
# Poissons Ratio (y) = 0.17811 0.23762
# Poissons Ratio (z) = 0.11922 0.23091
#
# Static dielectric constant tensor:
#      x y z
#    x 3.074750 0.000000 0.000000 
#    y 0.000000 3.372500 0.000000 
#    z 0.000000 0.000000 3.699100 
# 
# 
# High freq. dielectric constant tensor:
#      x y z
#    x 1.708840 0.000000 0.000000 
#    y 0.000000 1.764230 0.000000 
#    z 0.000000 0.000000 1.761960 
# 
# From -- ./inp_files/22780.got.cif
#   From: 2010.03.12/outbox.cif.g09.slc.cpg/sg44_12_cif.got.tgz:22780.got - 2010.04.14 02:36:11.
