data_PCOD8187173
_publ_section_title
;
Structure prediction by ZEFSAII (Michael W. Deem and Ramdas Pophale) SiO2 
 PCOD8187173
Probable space group: F D D 2
;
_chemical_formula_sum "Si O2"
_cell_formula_units_Z 88
_cell_length_a 22.742154
_cell_length_b 10.858057
_cell_length_c 14.224400
_cell_angle_alpha 90.000000
_cell_angle_beta 90.000000
_cell_angle_gamma 90.000000
_cell_volume 3512.510812
_symmetry_space_group_name_H-M "F D D 2"
_symmetry_group_IT_number 43
_symmetry_cell_setting 'orthorhombic'
loop_
_space_group_symop_operation_xyz
x,y,z
-x,-y,z
1/4-x,1/4+y,1/4+z
1/4+x,1/4-y,1/4+z
x,1/2+y,1/2+z
-x,1/2-y,1/2+z
1/4-x,3/4+y,3/4+z
1/4+x,3/4-y,3/4+z
1/2+x,y,1/2+z
1/2-x,-y,1/2+z
3/4-x,1/4+y,3/4+z
3/4+x,1/4-y,3/4+z
1/2+x,1/2+y,z
1/2-x,1/2-y,z
3/4-x,3/4+y,1/4+z
3/4+x,3/4-y,1/4+z
loop_
_atom_site_type_symbol
_atom_site_label
_atom_site_fract_x
_atom_site_fract_y
_atom_site_fract_z
Si Si1 0.845283 0.103983 0.675410
Si Si2 0.640766 0.157186 0.224501
Si Si3 0.271649 0.507618 0.399303
Si Si4 0.750000 0.250000 0.297876
Si Si5 0.927538 0.735833 0.297466
Si Si6 0.560939 0.900935 0.490421
O O1 0.862270 0.139367 0.570626
O O2 0.902163 0.115928 0.743311
O O3 0.795272 0.205822 0.707112
O O4 0.826280 0.961322 0.678455
O O5 0.590364 0.213429 0.160216
O O6 0.690911 0.262037 0.235344
O O7 0.239928 0.629028 0.359892
O O8 0.238201 0.470612 0.495784
O O9 0.267437 0.397316 0.322813
O O10 0.877963 0.842651 0.283123
O O11 0.940807 0.697656 0.404894
#
# Coordination Sequence:
#
# PCOD8187173 Si02
#       6
#    16  16  16   8  16  16
#     4  10  20  45  75 100 145 191 255 304 366 453
#     4  12  23  45  74 106 148 201 249 312 371 467
#     4  12  26  46  77 112 152 200 249 319 392 454
#     4  12  26  44  72 102 150 190 250 300 380 444
#     4  10  22  48  75 110 151 193 260 312 383 460
#     4  10  24  46  76 108 158 190 256 324 376 459
#
# _framework density 25.053304000000001
#
# number of rings (size 3 to 8) (size 9 to 14) (size 15 to 20)
#    1.091    0.000    5.455    0.000    2.545    1.455 
#    0.000    7.273    0.000    0.000    0.000    0.000 
#    0.000    0.000    0.000    0.000    0.000    0.000 
#
# Total GULP energy -272603.044846 kJ/mol
# GULP energy per Si atom -12391.047493 kJ/mol
# Density = 2.499628 g / cm^3
# Si number density = 25.053304 Si / 1000 Ang^3
#
#
#
# Elastic Constant Matrix: (Units=GPa)
#
#
# Indices 1 2 3 4 5 6 
#
# 1 65.2720 32.0644 27.9511 0.0000 0.0000 0.0000
# 2 32.0644 88.6471 45.4273 0.0000 0.0000 0.0000
# 3 27.9511 45.4273 123.2637 0.0000 0.0000 0.0000
# 4 0.0000 0.0000 0.0000 31.3555 0.0000 0.0000
# 5 0.0000 0.0000 0.0000 0.0000 48.0101 0.0000
# 6 0.0000 0.0000 0.0000 0.0000 0.0000 43.0922
#
#
#
# Elastic Compliance Matrix: (Units=1/GPa)
#
#
# Indices 1 2 3 4 5 6 
#
# 1 0.019103 -0.005782 -0.002201 0.000000 0.000000 0.000000
# 2 -0.005782 0.015657 -0.004459 0.000000 0.000000 0.000000
# 3 -0.002201 -0.004459 0.010255 0.000000 0.000000 0.000000
# 4 0.000000 0.000000 0.000000 0.031892 0.000000 0.000000
# 5 0.000000 0.000000 0.000000 0.000000 0.020829 0.000000
# 6 0.000000 0.000000 0.000000 0.000000 0.000000 0.023206
#
#
# Mechanical properties :
#
#
# Convention : Reuss Voigt Hill
#
# Bulk Modulus (GPa) = 49.67339 54.22983 51.95161
# Shear Modulus (GPa) = 32.77878 35.94087 34.35982
#
# Velocity S-wave (km/s) = 3.62105 3.79169 3.70735
# Velocity P-wave (km/s) = 6.11169 6.39234 6.25359
#
# Compressibility (1/GPa) = 0.02013150
#
# Stress axis : x y z
#
# Youngs Moduli (GPa) = 52.34682 63.86855 97.51206
#
# Poissons Ratio (x) = 0.36928 0.21462
# Poissons Ratio (y) = 0.30267 0.43482
# Poissons Ratio (z) = 0.11521 0.28480
#
# Static dielectric constant tensor:
#      x y z
#    x 4.492480 0.000000 0.000000 
#    y 0.000000 4.154410 0.000000 
#    z 0.000000 0.000000 4.337820 
# 
# 
# High freq. dielectric constant tensor:
#      x y z
#    x 2.009590 0.000000 0.000000 
#    y 0.000000 1.976120 0.000000 
#    z 0.000000 0.000000 1.992630 
# 
# From -- ./inp_files/11214.got.cif
#   From: 2010.06.25/outbox.cif.g09.slc.cpg/sg43_6_cif.got.tgz:11214.got - 2010.06.26 16:48:59.
