data_PCOD8187740
_publ_section_title
;
Structure prediction by ZEFSAII (Michael W. Deem and Ramdas Pophale) SiO2 
 PCOD8187740
Probable space group: F D D 2
;
_chemical_formula_sum "Si O2"
_cell_formula_units_Z 120
_cell_length_a 24.849512
_cell_length_b 24.181222
_cell_length_c 9.240594
_cell_angle_alpha 90.000000
_cell_angle_beta 90.000000
_cell_angle_gamma 90.000000
_cell_volume 5552.595002
_symmetry_space_group_name_H-M "F D D 2"
_symmetry_group_IT_number 43
_symmetry_cell_setting 'orthorhombic'
loop_
_space_group_symop_operation_xyz
x,y,z
-x,-y,z
1/4-x,1/4+y,1/4+z
1/4+x,1/4-y,1/4+z
x,1/2+y,1/2+z
-x,1/2-y,1/2+z
1/4-x,3/4+y,3/4+z
1/4+x,3/4-y,3/4+z
1/2+x,y,1/2+z
1/2-x,-y,1/2+z
3/4-x,1/4+y,3/4+z
3/4+x,1/4-y,3/4+z
1/2+x,1/2+y,z
1/2-x,1/2-y,z
3/4-x,3/4+y,1/4+z
3/4+x,3/4-y,1/4+z
loop_
_atom_site_type_symbol
_atom_site_label
_atom_site_fract_x
_atom_site_fract_y
_atom_site_fract_z
Si Si1 0.093719 0.159960 0.308810
Si Si2 0.841827 0.225498 0.479404
Si Si3 0.456754 0.363320 0.792462
Si Si4 0.807906 0.520806 0.813014
Si Si5 0.802126 0.535769 0.291102
Si Si6 0.750000 0.250000 0.932791
Si Si7 0.293709 0.815441 0.680827
Si Si8 0.838834 0.213819 0.150906
O O1 0.094391 0.203901 0.437086
O O2 0.049791 0.184087 0.196520
O O3 0.150394 0.157063 0.227267
O O4 0.077872 0.100925 0.375189
O O5 0.836058 0.160330 0.504685
O O6 0.903163 0.238277 0.523126
O O7 0.802635 0.259997 0.585230
O O8 0.824282 0.235036 0.312251
O O9 0.464377 0.319390 0.664738
O O10 0.514538 0.389496 0.831103
O O11 0.431185 0.332624 0.928349
O O12 0.756195 0.488614 0.752789
O O13 0.847776 0.477270 0.888360
O O14 0.740742 0.197713 0.825846
O O15 0.802359 0.245123 0.033486
#
# Coordination Sequence:
#
# PCOD8187740 Si02
#       8
#    16  16  16  16  16   8  16  16
#     4  11  25  44  71 104 136 184 228 289 356 408
#     4  11  25  44  69 102 140 180 234 281 347 420
#     4  12  23  45  71  98 142 187 225 286 350 408
#     4  12  25  47  69 103 142 179 233 289 349 414
#     4  11  26  44  72 102 137 183 232 286 345 421
#     4  12  24  42  72  94 138 176 224 294 332 400
#     4  11  24  46  71 103 137 182 237 282 341 426
#     4  12  26  45  68 103 139 176 231 290 343 420
#
# _framework density 21.611516999999999
#
# number of rings (size 3 to 8) (size 9 to 14) (size 15 to 20)
#    0.000    0.533    5.333    2.400    1.867    2.133 
#    2.400    0.000    0.000    0.000    0.000    0.000 
#    0.000    0.000    0.000    0.000    0.000    0.000 
#
# Total GULP energy -372023.513713 kJ/mol
# GULP energy per Si atom -12400.783790 kJ/mol
# Density = 2.156233 g / cm^3
# Si number density = 21.611517 Si / 1000 Ang^3
#
#
#
# Elastic Constant Matrix: (Units=GPa)
#
#
# Indices 1 2 3 4 5 6 
#
# 1 112.2166 31.4235 29.9871 -0.0023 0.0018 0.0011
# 2 31.4235 87.6063 36.3041 -0.0036 0.0025 0.0015
# 3 29.9871 36.3041 129.8454 -0.0098 0.0031 0.0005
# 4 -0.0023 -0.0036 -0.0098 40.4419 0.0020 -0.0002
# 5 0.0018 0.0025 0.0031 0.0020 33.5595 0.0019
# 6 0.0011 0.0015 0.0005 -0.0002 0.0019 16.4215
#
#
#
# Elastic Compliance Matrix: (Units=1/GPa)
#
#
# Indices 1 2 3 4 5 6 
#
# 1 0.010159 -0.003022 -0.001501 0.000000 0.000000 0.000000
# 2 -0.003022 0.013809 -0.003163 0.000000 -0.000001 -0.000001
# 3 -0.001501 -0.003163 0.008933 0.000002 -0.000001 0.000000
# 4 0.000000 0.000000 0.000002 0.024727 -0.000001 0.000000
# 5 0.000000 -0.000001 -0.000001 -0.000001 0.029798 -0.000003
# 6 0.000000 -0.000001 0.000000 0.000000 -0.000003 0.060896
#
#
# Mechanical properties :
#
#
# Convention : Reuss Voigt Hill
#
# Bulk Modulus (GPa) = 57.05033 58.34419 57.69726
# Shear Modulus (GPa) = 29.49227 33.54816 31.52021
#
# Velocity S-wave (km/s) = 3.69813 3.94423 3.82316
# Velocity P-wave (km/s) = 6.68508 6.91361 6.80031
#
# Compressibility (1/GPa) = 0.01752838
#
# Stress axis : x y z
#
# Youngs Moduli (GPa) = 98.43818 72.41454 111.94970
#
# Poissons Ratio (x) = 0.21881 0.16806
# Poissons Ratio (y) = 0.29745 0.35412
# Poissons Ratio (z) = 0.14778 0.22906
#
# Static dielectric constant tensor:
#      x y z
#    x 3.768770 0.000000 -0.000010 
#    y 0.000000 3.864420 -0.000010 
#    z -0.000010 -0.000010 4.181140 
# 
# 
# High freq. dielectric constant tensor:
#      x y z
#    x 1.845310 0.000000 0.000000 
#    y 0.000000 1.848610 0.000000 
#    z 0.000000 0.000000 1.865360 
# 
# From -- ./inp_files/4335.got.cif
#   From: 2010.06.25/outbox.cif.g09.slc.cpg/sg43_3_cif.got.tgz:4335.got - 2010.06.26 16:48:59.
