data_PCOD8187558
_publ_section_title
;
Structure prediction by ZEFSAII (Michael W. Deem and Ramdas Pophale) SiO2 
 PCOD8187558
Probable space group: F D D 2
;
_chemical_formula_sum "Si O2"
_cell_formula_units_Z 104
_cell_length_a 12.131308
_cell_length_b 15.248560
_cell_length_c 25.028381
_cell_angle_alpha 90.000000
_cell_angle_beta 90.000000
_cell_angle_gamma 90.000000
_cell_volume 4629.874507
_symmetry_space_group_name_H-M "F D D 2"
_symmetry_group_IT_number 43
_symmetry_cell_setting 'orthorhombic'
loop_
_space_group_symop_operation_xyz
x,y,z
-x,-y,z
1/4-x,1/4+y,1/4+z
1/4+x,1/4-y,1/4+z
x,1/2+y,1/2+z
-x,1/2-y,1/2+z
1/4-x,3/4+y,3/4+z
1/4+x,3/4-y,3/4+z
1/2+x,y,1/2+z
1/2-x,-y,1/2+z
3/4-x,1/4+y,3/4+z
3/4+x,1/4-y,3/4+z
1/2+x,1/2+y,z
1/2-x,1/2-y,z
3/4-x,3/4+y,1/4+z
3/4+x,3/4-y,1/4+z
loop_
_atom_site_type_symbol
_atom_site_label
_atom_site_fract_x
_atom_site_fract_y
_atom_site_fract_z
Si Si1 0.352882 0.371592 0.963470
Si Si2 0.000000 0.500000 0.624191
Si Si3 0.541811 0.234121 0.948008
Si Si4 0.750000 0.250000 0.258137
Si Si5 0.204750 0.433132 0.811327
Si Si6 0.859425 0.587493 0.330589
Si Si7 0.873100 0.338206 0.173617
Si Si8 0.250000 0.750000 0.661427
O O1 0.444545 0.304267 0.943161
O O2 0.235888 0.357933 0.934079
O O3 0.400116 0.467464 0.948991
O O4 0.329231 0.363411 0.026168
O O5 0.889975 0.498684 0.658249
O O6 0.987200 0.410274 0.590088
O O7 0.487425 0.142524 0.932947
O O8 0.593035 0.229804 0.007983
O O9 0.765620 0.167626 0.297934
O O10 0.857580 0.261212 0.218357
O O11 0.312977 0.488409 0.827459
O O12 0.121486 0.441563 0.861552
O O13 0.952348 0.581354 0.376413
#
# Coordination Sequence:
#
# PCOD8187558 Si02
#       8
#    16   8  16   8  16  16  16   8
#     4  11  24  44  69 104 141 182 243 298 350 432
#     4  12  25  51  70 100 154 187 247 300 372 448
#     4  10  25  44  68 104 137 191 240 293 363 434
#     4  10  26  43  65 114 141 185 240 292 364 444
#     4  10  24  44  69 103 143 184 239 289 371 424
#     4  11  26  43  73 102 144 192 238 302 364 434
#     4  11  24  42  72  99 147 180 241 301 357 426
#     4  12  23  42  71 106 137 188 243 290 360 430
#
# _framework density 22.462810999999999
#
# number of rings (size 3 to 8) (size 9 to 14) (size 15 to 20)
#    0.000    1.231    3.077    0.923   12.923    1.846 
#    2.769    0.000    0.000    0.000    0.000    0.000 
#    0.000    0.000    0.000    0.000    0.000    0.000 
#
# Total GULP energy -322220.077019 kJ/mol
# GULP energy per Si atom -12393.079885 kJ/mol
# Density = 2.241168 g / cm^3
# Si number density = 22.462811 Si / 1000 Ang^3
#
#
#
# Elastic Constant Matrix: (Units=GPa)
#
#
# Indices 1 2 3 4 5 6 
#
# 1 89.7542 32.6348 29.9234 0.0000 0.0000 0.0000
# 2 32.6348 106.9108 33.9636 0.0000 0.0000 0.0000
# 3 29.9234 33.9636 107.7938 0.0000 0.0000 0.0000
# 4 0.0000 0.0000 0.0000-2189.9069 0.0000 0.0000
# 5 0.0000 0.0000 0.0000 0.0000 30.1800 0.0000
# 6 0.0000 0.0000 0.0000 0.0000 0.0000 35.9189
#
#
#
# Elastic Compliance Matrix: (Units=1/GPa)
#
#
# Indices 1 2 3 4 5 6 
#
# 1 0.013184 -0.003180 -0.002658 0.000000 0.000000 0.000000
# 2 -0.003180 0.011161 -0.002634 0.000000 0.000000 0.000000
# 3 -0.002658 -0.002634 0.010845 0.000000 0.000000 0.000000
# 4 0.000000 0.000000 0.000000 -0.000457 0.000000 0.000000
# 5 0.000000 0.000000 0.000000 0.000000 0.033135 0.000000
# 6 0.000000 0.000000 0.000000 0.000000 0.000000 0.027840
#
#
# Mechanical properties :
#
#
# Convention : Reuss Voigt Hill
#
# Bulk Modulus (GPa) = 54.80625 55.27804 55.04214
# Shear Modulus (GPa) = 42.11110 -410.89913 -184.39402
#
# Velocity S-wave (km/s) = 4.33448 -13.53962 -9.07010
# Velocity P-wave (km/s) = 7.03576 14.82452 9.22671
#
# Compressibility (1/GPa) = 0.01824610
#
# Stress axis : x y z
#
# Youngs Moduli (GPa) = 75.84989 89.59741 92.21135
#
# Poissons Ratio (x) = 0.28493 0.24508
# Poissons Ratio (y) = 0.24121 0.24287
# Poissons Ratio (z) = 0.20160 0.23598
#
# Static dielectric constant tensor:
#      x y z
#    x 3.705220 0.000000 0.000000 
#    y 0.000000 42.061160 0.000000 
#    z 0.000000 0.000000 4.418850 
# 
# 
# High freq. dielectric constant tensor:
#      x y z
#    x 1.862710 0.000000 0.000000 
#    y 0.000000 1.887360 0.000000 
#    z 0.000000 0.000000 1.900580 
# 
# From -- ./inp_files/25161.got.cif
#   From: 2010.06.25/outbox.cif.g09.slc.cpg/sg43_13_cif.got.tgz:25161.got - 2010.06.26 16:48:59.
