data_PCOD8187718
_publ_section_title
;
Structure prediction by ZEFSAII (Michael W. Deem and Ramdas Pophale) SiO2 
 PCOD8187718
Probable space group: F D D 2
;
_chemical_formula_sum "Si O2"
_cell_formula_units_Z 88
_cell_length_a 25.085608
_cell_length_b 12.222586
_cell_length_c 11.177553
_cell_angle_alpha 90.000000
_cell_angle_beta 90.000000
_cell_angle_gamma 90.000000
_cell_volume 3427.160716
_symmetry_space_group_name_H-M "F D D 2"
_symmetry_group_IT_number 43
_symmetry_cell_setting 'orthorhombic'
loop_
_space_group_symop_operation_xyz
x,y,z
-x,-y,z
1/4-x,1/4+y,1/4+z
1/4+x,1/4-y,1/4+z
x,1/2+y,1/2+z
-x,1/2-y,1/2+z
1/4-x,3/4+y,3/4+z
1/4+x,3/4-y,3/4+z
1/2+x,y,1/2+z
1/2-x,-y,1/2+z
3/4-x,1/4+y,3/4+z
3/4+x,1/4-y,3/4+z
1/2+x,1/2+y,z
1/2-x,1/2-y,z
3/4-x,3/4+y,1/4+z
3/4+x,3/4-y,1/4+z
loop_
_atom_site_type_symbol
_atom_site_label
_atom_site_fract_x
_atom_site_fract_y
_atom_site_fract_z
Si Si1 0.510230 0.790654 0.173100
Si Si2 0.866832 0.446750 0.547333
Si Si3 0.175519 0.092516 0.294976
Si Si4 0.250000 0.250000 0.758571
Si Si5 0.598784 0.925987 0.899992
Si Si6 0.327705 0.564814 0.602971
O O1 0.570970 0.758940 0.206233
O O2 0.484146 0.686751 0.099538
O O3 0.510210 0.891669 0.083064
O O4 0.480063 0.835810 0.293223
O O5 0.832394 0.387348 0.651999
O O6 0.901913 0.546529 0.602713
O O7 0.910184 0.364694 0.484054
O O8 0.142647 0.983514 0.320490
O O9 0.198694 0.262593 0.673365
O O10 0.578988 0.816443 0.837536
O O11 0.625651 0.884592 0.022701
#
# Coordination Sequence:
#
# PCOD8187718 Si02
#       6
#    16  16  16   8  16  16
#     4  11  27  46  76 108 145 204 252 306 382 476
#     4  12  26  46  75 106 155 191 243 321 384 442
#     4  11  26  46  68 111 149 185 253 311 375 458
#     4  12  24  44  80 100 138 198 262 292 382 460
#     4  11  23  45  72 102 145 197 245 312 362 461
#     4  11  24  45  72 107 147 191 254 304 373 459
#
# _framework density 25.677232
#
# number of rings (size 3 to 8) (size 9 to 14) (size 15 to 20)
#    0.000    0.727    1.818    6.545    7.636    0.000 
#    0.000    1.818    0.000    0.000    0.000    0.000 
#    0.000    0.000    0.000    0.000    0.000    0.000 
#
# Total GULP energy -272584.417107 kJ/mol
# GULP energy per Si atom -12390.200778 kJ/mol
# Density = 2.561879 g / cm^3
# Si number density = 25.677232 Si / 1000 Ang^3
#
#
#
# Elastic Constant Matrix: (Units=GPa)
#
#
# Indices 1 2 3 4 5 6 
#
# 1 95.0237 6.0202 -6.4508 0.0000 0.0000 0.0000
# 2 6.0202 54.5783 -26.9318 0.0000 0.0000 0.0000
# 3 -6.4508 -26.9318 56.0230 0.0000 0.0000 0.0000
# 4 0.0000 0.0000 0.0000 41.7012 0.0000 0.0000
# 5 0.0000 0.0000 0.0000 0.0000 -10.0877 0.0000
# 6 0.0000 0.0000 0.0000 0.0000 0.0000 35.8387
#
#
#
# Elastic Compliance Matrix: (Units=1/GPa)
#
#
# Indices 1 2 3 4 5 6 
#
# 1 0.010630 -0.000745 0.000866 0.000000 0.000000 0.000000
# 2 -0.000745 0.024073 0.011487 0.000000 0.000000 0.000000
# 3 0.000866 0.011487 0.023471 0.000000 0.000000 0.000000
# 4 0.000000 0.000000 0.000000 0.023980 0.000000 0.000000
# 5 0.000000 0.000000 0.000000 0.000000 -0.099131 0.000000
# 6 0.000000 0.000000 0.000000 0.000000 0.000000 0.027903
#
#
# Mechanical properties :
#
#
# Convention : Reuss Voigt Hill
#
# Bulk Modulus (GPa) = 12.28693 16.76669 14.52681
# Shear Modulus (GPa) = 336.89938 29.02294 182.96116
#
# Velocity S-wave (km/s) = 11.46692 3.36564 8.45038
# Velocity P-wave (km/s) = 13.42073 4.65267 10.04399
#
# Compressibility (1/GPa) = 0.08138732
#
# Stress axis : x y z
#
# Youngs Moduli (GPa) = 94.07624 41.54107 42.60508
#
# Poissons Ratio (x) = 0.03096 -0.03688
# Poissons Ratio (y) = 0.07012 -0.48938
# Poissons Ratio (z) = -0.08144 -0.47716
#
# Static dielectric constant tensor:
#      x y z
#    x 4.869260 0.000000 0.000000 
#    y 0.000000 4.183310 0.000000 
#    z 0.000000 0.000000 4.951010 
# 
# 
# High freq. dielectric constant tensor:
#      x y z
#    x 2.028970 0.000000 0.000000 
#    y 0.000000 2.006240 0.000000 
#    z 0.000000 0.000000 2.036740 
# 
# From -- ./inp_files/5758.got.cif
#   From: 2010.06.25/outbox.cif.g09.slc.cpg/sg43_3_cif.got.tgz:5758.got - 2010.06.26 16:48:59.
