data_PCOD8187362
_publ_section_title
;
Structure prediction by ZEFSAII (Michael W. Deem and Ramdas Pophale) SiO2 
 PCOD8187362
Probable space group: F D D 2
;
_chemical_formula_sum "Si O2"
_cell_formula_units_Z 56
_cell_length_a 16.904114
_cell_length_b 14.797515
_cell_length_c 7.757348
_cell_angle_alpha 90.000000
_cell_angle_beta 90.000000
_cell_angle_gamma 90.000000
_cell_volume 1940.414344
_symmetry_space_group_name_H-M "F D D 2"
_symmetry_group_IT_number 43
_symmetry_cell_setting 'orthorhombic'
loop_
_space_group_symop_operation_xyz
x,y,z
-x,-y,z
1/4-x,1/4+y,1/4+z
1/4+x,1/4-y,1/4+z
x,1/2+y,1/2+z
-x,1/2-y,1/2+z
1/4-x,3/4+y,3/4+z
1/4+x,3/4-y,3/4+z
1/2+x,y,1/2+z
1/2-x,-y,1/2+z
3/4-x,1/4+y,3/4+z
3/4+x,1/4-y,3/4+z
1/2+x,1/2+y,z
1/2-x,1/2-y,z
3/4-x,3/4+y,1/4+z
3/4+x,3/4-y,1/4+z
loop_
_atom_site_type_symbol
_atom_site_label
_atom_site_fract_x
_atom_site_fract_y
_atom_site_fract_z
Si Si1 0.104747 0.977763 0.205530
Si Si2 0.038455 0.640035 0.557289
Si Si3 0.000000 0.500000 0.007648
Si Si4 0.998736 0.321769 0.175669
O O1 0.188899 0.940193 0.261931
O O2 0.045075 0.904683 0.119501
O O3 0.110757 0.068758 0.083985
O O4 0.072137 0.023858 0.381605
O O5 0.041251 0.669814 0.360169
O O6 0.054637 0.731549 0.669946
O O7 0.965309 0.580851 0.127863
#
# Coordination Sequence:
#
# PCOD8187362 Si02
#       4
#    16  16   8  16
#     4  10  23  45  68 101 144 186 234 297 361 423
#     4  10  23  43  70 105 142 185 247 293 351 447
#     4  10  22  40  66 102 138 180 244 290 348 442
#     4  12  23  43  73 102 143 190 233 303 364 418
#
# _framework density 28.859815000000001
#
# number of rings (size 3 to 8) (size 9 to 14) (size 15 to 20)
#    0.000    1.714    0.000    6.857    0.000    2.286 
#    0.000   22.857    0.000    0.000    0.000    0.000 
#    0.000    0.000    0.000    0.000    0.000    0.000 
#
# Total GULP energy -173448.070123 kJ/mol
# GULP energy per Si atom -12389.147866 kJ/mol
# Density = 2.879413 g / cm^3
# Si number density = 28.859815 Si / 1000 Ang^3
#
#
#
# Elastic Constant Matrix: (Units=GPa)
#
#
# Indices 1 2 3 4 5 6 
#
# 1 27.5191 9.2513 -6.1996 0.0001 0.0000 0.0000
# 2 9.2513 238.1606 83.2568 0.0001 0.0000 0.0000
# 3 -6.1996 83.2568 164.2115 0.0007 -0.0002 -0.0002
# 4 0.0001 0.0001 0.0007 66.6211 -0.0001 -0.0001
# 5 0.0000 0.0000 -0.0002 -0.0001 11.2334 0.0001
# 6 0.0000 0.0000 -0.0002 -0.0001 0.0001 42.9549
#
#
#
# Elastic Compliance Matrix: (Units=1/GPa)
#
#
# Indices 1 2 3 4 5 6 
#
# 1 0.037734 -0.002387 0.002635 0.000000 0.000000 0.000000
# 2 -0.002387 0.005254 -0.002754 0.000000 0.000000 0.000000
# 3 0.002635 -0.002754 0.007586 0.000000 0.000000 0.000000
# 4 0.000000 0.000000 0.000000 0.015010 0.000000 0.000000
# 5 0.000000 0.000000 0.000000 0.000000 0.089020 0.000000
# 6 0.000000 0.000000 0.000000 0.000000 0.000000 0.023280
#
#
# Mechanical properties :
#
#
# Convention : Reuss Voigt Hill
#
# Bulk Modulus (GPa) = 21.94816 66.94535 44.44676
# Shear Modulus (GPa) = 25.24170 47.06738 36.15454
#
# Velocity S-wave (km/s) = 2.96063 4.04282 3.54328
# Velocity P-wave (km/s) = 4.39416 6.71115 5.67222
#
# Compressibility (1/GPa) = 0.04556190
#
# Stress axis : x y z
#
# Youngs Moduli (GPa) = 26.50102 190.31822 131.82966
#
# Poissons Ratio (x) = 0.45426 -0.34734
# Poissons Ratio (y) = 0.06325 0.36308
# Poissons Ratio (z) = -0.06982 0.52416
#
# Static dielectric constant tensor:
#      x y z
#    x 5.188890 0.000000 0.000000 
#    y 0.000000 5.906020 0.000000 
#    z 0.000000 0.000000 5.434150 
# 
# 
# High freq. dielectric constant tensor:
#      x y z
#    x 2.148090 0.000000 0.000000 
#    y 0.000000 2.196390 0.000000 
#    z 0.000000 0.000000 2.202880 
# 
# From -- ./inp_files/1928.got.cif
#   From: 2010.06.25/outbox.cif.g09.slc.cpg/sg43_1_cif.got.tgz:1928.got - 2010.06.26 16:48:59.
