data_PCOD8187628
_publ_section_title
;
Structure prediction by ZEFSAII (Michael W. Deem and Ramdas Pophale) SiO2 
 PCOD8187628
Probable space group: F D D 2
;
_chemical_formula_sum "Si O2"
_cell_formula_units_Z 80
_cell_length_a 27.201947
_cell_length_b 18.080912
_cell_length_c 7.749541
_cell_angle_alpha 90.000000
_cell_angle_beta 90.000000
_cell_angle_gamma 90.000000
_cell_volume 3811.503324
_symmetry_space_group_name_H-M "F D D 2"
_symmetry_group_IT_number 43
_symmetry_cell_setting 'orthorhombic'
loop_
_space_group_symop_operation_xyz
x,y,z
-x,-y,z
1/4-x,1/4+y,1/4+z
1/4+x,1/4-y,1/4+z
x,1/2+y,1/2+z
-x,1/2-y,1/2+z
1/4-x,3/4+y,3/4+z
1/4+x,3/4-y,3/4+z
1/2+x,y,1/2+z
1/2-x,-y,1/2+z
3/4-x,1/4+y,3/4+z
3/4+x,1/4-y,3/4+z
1/2+x,1/2+y,z
1/2-x,1/2-y,z
3/4-x,3/4+y,1/4+z
3/4+x,3/4-y,1/4+z
loop_
_atom_site_type_symbol
_atom_site_label
_atom_site_fract_x
_atom_site_fract_y
_atom_site_fract_z
Si Si1 0.300232 0.708968 0.838340
Si Si2 0.195405 0.947098 0.713755
Si Si3 0.795269 0.696662 0.709855
Si Si4 0.915776 0.538623 0.256723
Si Si5 0.240005 0.582096 0.401207
O O1 0.250000 0.750000 0.862575
O O2 0.282075 0.627696 0.787578
O O3 0.333447 0.752405 0.698437
O O4 0.326063 0.701625 0.029035
O O5 0.137283 0.929295 0.709845
O O6 0.221970 0.957757 0.530539
O O7 0.204118 0.019421 0.828849
O O8 0.750000 0.750000 0.691990
O O9 0.773869 0.614843 0.747516
O O10 0.827410 0.721265 0.873011
O O11 0.956973 0.602681 0.237925
#
# Coordination Sequence:
#
# PCOD8187628 Si02
#       5
#    16  16  16  16  16
#     4  11  20  43  70  93 131 184 225 275 348 411
#     4  12  24  41  69 100 142 178 227 292 346 405
#     4   9  20  40  68  94 130 181 224 272 342 409
#     4  11  22  45  68  97 136 186 227 277 348 421
#     4  11  23  43  67 103 145 174 232 292 340 408
#
# _framework density 20.989093
#
# number of rings (size 3 to 8) (size 9 to 14) (size 15 to 20)
#    0.000    1.200    4.000    3.000    0.000    0.000 
#   10.800    0.000    0.000    0.000    0.000    0.000 
#    0.000    0.000    0.000    0.000    0.000    0.000 
#
# Total GULP energy -247813.909419 kJ/mol
# GULP energy per Si atom -12390.695471 kJ/mol
# Density = 2.094132 g / cm^3
# Si number density = 20.989093 Si / 1000 Ang^3
#
#
#
# Elastic Constant Matrix: (Units=GPa)
#
#
# Indices 1 2 3 4 5 6 
#
# 1 79.7454 18.9423 51.2923 0.0006 0.0000 0.0000
# 2 18.9423 108.9403 32.4466 -0.0045 0.0000 0.0000
# 3 51.2923 32.4466 142.2029 -0.0113 -0.0001 0.0000
# 4 0.0006 -0.0045 -0.0113 1140.9186 0.0007 0.0007
# 5 0.0000 0.0000 -0.0001 0.0007 15.7709 0.0000
# 6 0.0000 0.0000 0.0000 0.0007 0.0000 17.7025
#
#
#
# Elastic Compliance Matrix: (Units=1/GPa)
#
#
# Indices 1 2 3 4 5 6 
#
# 1 0.016467 -0.001174 -0.005672 0.000000 0.000000 0.000000
# 2 -0.001174 0.009932 -0.001843 0.000000 0.000000 0.000000
# 3 -0.005672 -0.001843 0.009498 0.000000 0.000000 0.000000
# 4 0.000000 0.000000 0.000000 0.000876 0.000000 0.000000
# 5 0.000000 0.000000 0.000000 0.000000 0.063408 0.000000
# 6 0.000000 0.000000 0.000000 0.000000 0.000000 0.056489
#
#
# Mechanical properties :
#
#
# Convention : Reuss Voigt Hill
#
# Bulk Modulus (GPa) = 53.99383 59.58344 56.78864
# Shear Modulus (GPa) = 27.74362 250.09222 138.91792
#
# Velocity S-wave (km/s) = 3.63962 10.92758 8.14429
# Velocity P-wave (km/s) = 6.59113 13.69911 10.74962
#
# Compressibility (1/GPa) = 0.01852063
#
# Stress axis : x y z
#
# Youngs Moduli (GPa) = 60.72834 100.68135 105.28044
#
# Poissons Ratio (x) = 0.11820 0.59712
# Poissons Ratio (y) = 0.07129 0.19401
# Poissons Ratio (z) = 0.34443 0.18554
#
# Static dielectric constant tensor:
#      x y z
#    x 3.478890 0.000000 0.000000 
#    y 0.000000 2.832760 0.000000 
#    z 0.000000 0.000000 4.779170 
# 
# 
# High freq. dielectric constant tensor:
#      x y z
#    x 1.794710 0.000000 0.000000 
#    y 0.000000 1.830100 0.000000 
#    z 0.000000 0.000000 1.833250 
# 
# From -- ./inp_files/4153.got.cif
#   From: 2010.06.25/outbox.cif.g09.slc.cpg/sg43_3_cif.got.tgz:4153.got - 2010.06.26 16:48:59.
