data_PCOD8187910
_publ_section_title
;
Structure prediction by ZEFSAII (Michael W. Deem and Ramdas Pophale) SiO2 
 PCOD8187910
Probable space group: I M M 2
;
_chemical_formula_sum "Si O2"
_cell_formula_units_Z 64
_cell_length_a 8.810671
_cell_length_b 14.494886
_cell_length_c 28.602450
_cell_angle_alpha 90.000000
_cell_angle_beta 90.000000
_cell_angle_gamma 90.000000
_cell_volume 3652.809500
_symmetry_space_group_name_H-M "I M M 2"
_symmetry_group_IT_number 44
_symmetry_cell_setting 'orthorhombic'
loop_
_space_group_symop_operation_xyz
x,y,z
-x,-y,z
-x,y,z
x,-y,z
1/2+x,1/2+y,1/2+z
1/2-x,1/2-y,1/2+z
1/2-x,1/2+y,1/2+z
1/2+x,1/2-y,1/2+z
loop_
_atom_site_type_symbol
_atom_site_label
_atom_site_fract_x
_atom_site_fract_y
_atom_site_fract_z
Si Si1 0.672987 0.108553 0.057410
Si Si2 0.178829 0.772777 0.697137
Si Si3 0.680396 0.396558 0.384770
Si Si4 0.180131 0.600354 0.013872
Si Si5 0.319514 0.286332 0.472493
Si Si6 0.180487 0.896613 0.781073
Si Si7 0.674100 0.893020 0.619471
Si Si8 0.320931 0.604842 0.654510
O O1 0.500000 0.142881 0.058737
O O2 0.752709 0.138918 0.105373
O O3 0.684300 0.000000 0.050767
O O4 0.759827 0.152841 0.014561
O O5 0.244172 0.824303 0.743219
O O6 0.217756 0.833730 0.652206
O O7 0.256833 0.672217 0.694621
O O8 0.000000 0.758643 0.700251
O O9 0.500000 0.396001 0.386203
O O10 0.738989 0.500000 0.396114
O O11 0.745578 0.325677 0.423478
O O12 0.735976 0.366513 0.333000
O O13 0.245674 0.500000 0.998149
O O14 0.232091 0.623677 0.066600
O O15 0.000000 0.594654 0.014086
O O16 0.237171 0.680451 0.978792
O O17 0.500000 0.291538 0.473487
O O18 0.000000 0.897826 0.779083
O O19 0.240791 0.000000 0.769836
O O20 0.500000 0.860213 0.625602
O O21 0.689982 0.000000 0.632922
O O22 0.500000 0.613166 0.651559
O O23 0.270402 0.500000 0.666076
#
# Coordination Sequence:
#
# PCOD8187910 Si02
#       8
#     8   8   8   8   8   8   8   8
#     4  10  20  32  46  68  99 127 149 182 231 281
#     4  11  20  29  47  71  93 119 153 196 245 290
#     4   8  14  25  42  66  94 121 153 192 229 271
#     4   8  15  27  41  60  88 119 148 182 225 265
#     4  10  17  26  47  72  91 120 162 199 229 269
#     4   8  15  28  44  65  96 128 153 183 229 282
#     4   9  17  29  44  63  92 128 160 190 228 279
#     4  10  21  36  51  66  89 123 160 194 228 275
#
# _framework density 17.520762000000001
#
# number of rings (size 3 to 8) (size 9 to 14) (size 15 to 20)
#    0.000    2.750    0.000    4.125    0.000    3.750 
#    0.000    0.000    0.000    3.375    0.000    8.750 
#    0.000    0.000    0.000    0.000    0.000    0.000 
#
# Total GULP energy -396663.053511 kJ/mol
# GULP energy per Si atom -12395.720422 kJ/mol
# Density = 1.748088 g / cm^3
# Si number density = 17.520762 Si / 1000 Ang^3
#
#
#
# Elastic Constant Matrix: (Units=GPa)
#
#
# Indices 1 2 3 4 5 6 
#
# 1 17.8495 14.8289 12.2620 0.0000 0.0000 0.0000
# 2 14.8289 104.4121 87.3389 0.0000 0.0000 0.0000
# 3 12.2620 87.3389 122.2127 0.0000 0.0000 0.0000
# 4 0.0000 0.0000 0.0000 33.2062 0.0000 0.0000
# 5 0.0000 0.0000 0.0000 0.0000 15.5853 0.0000
# 6 0.0000 0.0000 0.0000 0.0000 0.0000 20.1509
#
#
#
# Elastic Compliance Matrix: (Units=1/GPa)
#
#
# Indices 1 2 3 4 5 6 
#
# 1 0.063520 -0.009175 0.000184 0.000000 0.000000 0.000000
# 2 -0.009175 0.025137 -0.017044 0.000000 0.000000 0.000000
# 3 0.000184 -0.017044 0.020344 0.000000 0.000000 0.000000
# 4 0.000000 0.000000 0.000000 0.030115 0.000000 0.000000
# 5 0.000000 0.000000 0.000000 0.000000 0.064163 0.000000
# 6 0.000000 0.000000 0.000000 0.000000 0.000000 0.049626
#
#
# Mechanical properties :
#
#
# Convention : Reuss Voigt Hill
#
# Bulk Modulus (GPa) = 17.56496 52.59267 35.07881
# Shear Modulus (GPa) = 15.43440 22.45812 18.94626
#
# Velocity S-wave (km/s) = 2.97125 3.58411 3.29197
# Velocity P-wave (km/s) = 4.67098 6.87097 5.87488
#
# Compressibility (1/GPa) = 0.05693153
#
# Stress axis : x y z
#
# Youngs Moduli (GPa) = 15.74309 39.78170 49.15394
#
# Poissons Ratio (x) = 0.36499 -0.00902
# Poissons Ratio (y) = 0.14444 0.83776
# Poissons Ratio (z) = -0.00289 0.67803
#
# Static dielectric constant tensor:
#      x y z
#    x 2.923650 0.000000 0.000000 
#    y 0.000000 3.726520 0.000000 
#    z 0.000000 0.000000 3.404720 
# 
# 
# High freq. dielectric constant tensor:
#      x y z
#    x 1.643910 0.000000 0.000000 
#    y 0.000000 1.682530 0.000000 
#    z 0.000000 0.000000 1.661030 
# 
# From -- ./inp_files/27309.got.cif
#   From: 2010.03.12/outbox.cif.g09.slc.cpg/sg44_14_cif.got.tgz:27309.got - 2010.04.14 02:36:11.
