data_PCOD8187430
_publ_section_title
;
Structure prediction by ZEFSAII (Michael W. Deem and Ramdas Pophale) SiO2 
 PCOD8187430
Probable space group: F D D 2
;
_chemical_formula_sum "Si O2"
_cell_formula_units_Z 88
_cell_length_a 27.172619
_cell_length_b 12.515040
_cell_length_c 12.493149
_cell_angle_alpha 90.000000
_cell_angle_beta 90.000000
_cell_angle_gamma 90.000000
_cell_volume 4248.500376
_symmetry_space_group_name_H-M "F D D 2"
_symmetry_group_IT_number 43
_symmetry_cell_setting 'orthorhombic'
loop_
_space_group_symop_operation_xyz
x,y,z
-x,-y,z
1/4-x,1/4+y,1/4+z
1/4+x,1/4-y,1/4+z
x,1/2+y,1/2+z
-x,1/2-y,1/2+z
1/4-x,3/4+y,3/4+z
1/4+x,3/4-y,3/4+z
1/2+x,y,1/2+z
1/2-x,-y,1/2+z
3/4-x,1/4+y,3/4+z
3/4+x,1/4-y,3/4+z
1/2+x,1/2+y,z
1/2-x,1/2-y,z
3/4-x,3/4+y,1/4+z
3/4+x,3/4-y,1/4+z
loop_
_atom_site_type_symbol
_atom_site_label
_atom_site_fract_x
_atom_site_fract_y
_atom_site_fract_z
Si Si1 0.000000 0.500000 0.847510
Si Si2 0.172674 0.118959 0.959595
Si Si3 0.583166 0.760750 0.585498
Si Si4 0.627040 0.913998 0.412311
Si Si5 0.586884 0.522133 0.507043
Si Si6 0.765555 0.069270 0.926840
O O1 0.003824 0.607358 0.778445
O O2 0.047618 0.484128 0.920303
O O3 0.167051 0.195334 0.858617
O O4 0.128680 0.030942 0.965492
O O5 0.225020 0.055722 0.961517
O O6 0.163660 0.180208 0.070132
O O7 0.614254 0.824220 0.498171
O O8 0.575857 0.641362 0.544449
O O9 0.609793 0.762621 0.701162
O O10 0.530323 0.818941 0.596095
O O11 0.683565 0.889327 0.371105
#
# Coordination Sequence:
#
# PCOD8187430 Si02
#       6
#     8  16  16  16  16  16
#     4  12  22  42  70  98 128 178 238 280 354 418
#     4  10  23  44  63  95 137 174 226 274 363 406
#     4  12  23  43  68 103 134 180 242 281 363 413
#     4  10  22  44  65  93 135 181 214 289 333 429
#     4  12  24  41  70  99 139 181 226 304 341 438
#     4  10  25  40  71  97 128 179 228 288 340 431
#
# _framework density 20.713191999999999
#
# number of rings (size 3 to 8) (size 9 to 14) (size 15 to 20)
#    1.091    0.000    1.818    5.455    2.545    0.000 
#    3.273    0.000    0.000    0.000    0.000    0.000 
#    0.000    0.000    0.000    0.000    0.000    0.000 
#
# Total GULP energy -272604.393673 kJ/mol
# GULP energy per Si atom -12391.108803 kJ/mol
# Density = 2.066605 g / cm^3
# Si number density = 20.713192 Si / 1000 Ang^3
#
#
#
# Elastic Constant Matrix: (Units=GPa)
#
#
# Indices 1 2 3 4 5 6 
#
# 1 104.1881 22.3966 23.0992 0.0000 0.0000 0.0000
# 2 22.3966 96.7941 38.1433 0.0000 0.0000 0.0000
# 3 23.0992 38.1433 87.1767 0.0000 0.0000 0.0000
# 4 0.0000 0.0000 0.0000 43.7176 0.0000 0.0000
# 5 0.0000 0.0000 0.0000 0.0000 37.2917 0.0000
# 6 0.0000 0.0000 0.0000 0.0000 0.0000 28.3451
#
#
#
# Elastic Compliance Matrix: (Units=1/GPa)
#
#
# Indices 1 2 3 4 5 6 
#
# 1 0.010397 -0.001595 -0.002057 0.000000 0.000000 0.000000
# 2 -0.001595 0.012728 -0.005147 0.000000 0.000000 0.000000
# 3 -0.002057 -0.005147 0.014268 0.000000 0.000000 0.000000
# 4 0.000000 0.000000 0.000000 0.022874 0.000000 0.000000
# 5 0.000000 0.000000 0.000000 0.000000 0.026816 0.000000
# 6 0.000000 0.000000 0.000000 0.000000 0.000000 0.035279
#
#
# Mechanical properties :
#
#
# Convention : Reuss Voigt Hill
#
# Bulk Modulus (GPa) = 50.51537 50.60412 50.55975
# Shear Modulus (GPa) = 34.11618 35.50555 34.81086
#
# Velocity S-wave (km/s) = 4.06282 4.14472 4.10398
# Velocity P-wave (km/s) = 6.81540 6.88396 6.84976
#
# Compressibility (1/GPa) = 0.01979595
#
# Stress axis : x y z
#
# Youngs Moduli (GPa) = 96.18201 78.56470 70.08799
#
# Poissons Ratio (x) = 0.12532 0.14417
# Poissons Ratio (y) = 0.15342 0.36071
# Poissons Ratio (z) = 0.19784 0.40433
#
# Static dielectric constant tensor:
#      x y z
#    x 3.795750 0.000000 0.000000 
#    y 0.000000 3.912130 0.000000 
#    z 0.000000 0.000000 3.604930 
# 
# 
# High freq. dielectric constant tensor:
#      x y z
#    x 1.811380 0.000000 0.000000 
#    y 0.000000 1.818110 0.000000 
#    z 0.000000 0.000000 1.802030 
# 
# From -- ./inp_files/7908.got.cif
#   From: 2010.06.25/outbox.cif.g09.slc.cpg/sg43_4_cif.got.tgz:7908.got - 2010.06.26 16:48:59.
