data_PCOD8187160
_publ_section_title
;
Structure prediction by ZEFSAII (Michael W. Deem and Ramdas Pophale) SiO2 
 PCOD8187160
Probable space group: F D D 2
;
_chemical_formula_sum "Si O2"
_cell_formula_units_Z 72
_cell_length_a 9.801709
_cell_length_b 11.120097
_cell_length_c 29.883149
_cell_angle_alpha 90.000000
_cell_angle_beta 90.000000
_cell_angle_gamma 90.000000
_cell_volume 3257.142359
_symmetry_space_group_name_H-M "F D D 2"
_symmetry_group_IT_number 43
_symmetry_cell_setting 'orthorhombic'
loop_
_space_group_symop_operation_xyz
x,y,z
-x,-y,z
1/4-x,1/4+y,1/4+z
1/4+x,1/4-y,1/4+z
x,1/2+y,1/2+z
-x,1/2-y,1/2+z
1/4-x,3/4+y,3/4+z
1/4+x,3/4-y,3/4+z
1/2+x,y,1/2+z
1/2-x,-y,1/2+z
3/4-x,1/4+y,3/4+z
3/4+x,1/4-y,3/4+z
1/2+x,1/2+y,z
1/2-x,1/2-y,z
3/4-x,3/4+y,1/4+z
3/4+x,3/4-y,1/4+z
loop_
_atom_site_type_symbol
_atom_site_label
_atom_site_fract_x
_atom_site_fract_y
_atom_site_fract_z
Si Si1 0.198859 0.121954 0.996150
Si Si2 0.541328 0.308906 0.930834
Si Si3 0.154403 0.996607 0.087465
Si Si4 0.250000 0.250000 0.610374
Si Si5 0.318731 0.439620 0.438016
O O1 0.250000 0.250000 0.011927
O O2 0.084753 0.139929 0.958283
O O3 0.323397 0.040269 0.977254
O O4 0.141124 0.064830 0.041203
O O5 0.505577 0.305391 0.877481
O O6 0.582425 0.174106 0.947225
O O7 0.661962 0.402513 0.937669
O O8 0.222457 0.865218 0.078631
O O9 0.000000 0.000000 0.108030
O O10 0.383660 0.256965 0.642551
#
# Coordination Sequence:
#
# PCOD8187160 Si02
#       5
#    16  16  16   8  16
#     4  12  26  39  65 103 139 179 233 286 345 426
#     4  10  21  44  71  92 136 180 223 290 352 405
#     4  11  22  43  65 100 132 178 234 284 348 419
#     4  10  20  42  74  90 136 178 230 282 350 414
#     4  10  20  42  68  95 127 181 227 283 354 409
#
# _framework density 22.105266
#
# number of rings (size 3 to 8) (size 9 to 14) (size 15 to 20)
#    0.000    1.333    4.444    4.667    0.000    5.333 
#    0.000    0.000    7.333    0.000    0.000    0.000 
#    0.000    0.000    0.000    0.000    0.000    0.000 
#
# Total GULP energy -223020.719788 kJ/mol
# GULP energy per Si atom -12390.039988 kJ/mol
# Density = 2.205495 g / cm^3
# Si number density = 22.105266 Si / 1000 Ang^3
#
#
#
# Elastic Constant Matrix: (Units=GPa)
#
#
# Indices 1 2 3 4 5 6 
#
# 1 75.1082 38.3947 33.8470 0.0000 0.0000 0.0000
# 2 38.3947 140.0508 53.9196 0.0000 0.0000 0.0000
# 3 33.8470 53.9196 140.7686 0.0000 0.0000 0.0000
# 4 0.0000 0.0000 0.0000 45.5912 0.0000 0.0000
# 5 0.0000 0.0000 0.0000 0.0000 23.1938 0.0000
# 6 0.0000 0.0000 0.0000 0.0000 0.0000 29.8985
#
#
#
# Elastic Compliance Matrix: (Units=1/GPa)
#
#
# Indices 1 2 3 4 5 6 
#
# 1 0.016246 -0.003460 -0.002581 0.000000 0.000000 0.000000
# 2 -0.003460 0.009112 -0.002658 0.000000 0.000000 0.000000
# 3 -0.002581 -0.002658 0.008743 0.000000 0.000000 0.000000
# 4 0.000000 0.000000 0.000000 0.021934 0.000000 0.000000
# 5 0.000000 0.000000 0.000000 0.000000 0.043115 0.000000
# 6 0.000000 0.000000 0.000000 0.000000 0.000000 0.033446
#
#
# Mechanical properties :
#
#
# Convention : Reuss Voigt Hill
#
# Bulk Modulus (GPa) = 59.87260 67.58336 63.72798
# Shear Modulus (GPa) = 32.14138 35.05447 33.59792
#
# Velocity S-wave (km/s) = 3.81729 3.98653 3.90283
# Velocity P-wave (km/s) = 6.82444 7.19928 7.01436
#
# Compressibility (1/GPa) = 0.01670213
#
# Stress axis : x y z
#
# Youngs Moduli (GPa) = 61.55361 109.74122 114.38149
#
# Poissons Ratio (x) = 0.37972 0.29520
# Poissons Ratio (y) = 0.21299 0.30407
# Poissons Ratio (z) = 0.15886 0.29173
#
# Static dielectric constant tensor:
#      x y z
#    x 3.862660 0.000000 0.000000 
#    y 0.000000 4.469740 0.000000 
#    z 0.000000 0.000000 3.755260 
# 
# 
# High freq. dielectric constant tensor:
#      x y z
#    x 1.853250 0.000000 0.000000 
#    y 0.000000 1.889050 0.000000 
#    z 0.000000 0.000000 1.858430 
# 
# From -- ./inp_files/24850.got.cif
#   From: 2010.06.25/outbox.cif.g09.slc.cpg/sg43_13_cif.got.tgz:24850.got - 2010.06.26 16:48:59.
