data_PCOD8187168
_publ_section_title
;
Structure prediction by ZEFSAII (Michael W. Deem and Ramdas Pophale) SiO2 
 PCOD8187168
Probable space group: F D D 2
;
_chemical_formula_sum "Si O2"
_cell_formula_units_Z 88
_cell_length_a 19.512584
_cell_length_b 8.496685
_cell_length_c 26.048730
_cell_angle_alpha 90.000000
_cell_angle_beta 90.000000
_cell_angle_gamma 90.000000
_cell_volume 4318.678332
_symmetry_space_group_name_H-M "F D D 2"
_symmetry_group_IT_number 43
_symmetry_cell_setting 'orthorhombic'
loop_
_space_group_symop_operation_xyz
x,y,z
-x,-y,z
1/4-x,1/4+y,1/4+z
1/4+x,1/4-y,1/4+z
x,1/2+y,1/2+z
-x,1/2-y,1/2+z
1/4-x,3/4+y,3/4+z
1/4+x,3/4-y,3/4+z
1/2+x,y,1/2+z
1/2-x,-y,1/2+z
3/4-x,1/4+y,3/4+z
3/4+x,1/4-y,3/4+z
1/2+x,1/2+y,z
1/2-x,1/2-y,z
3/4-x,3/4+y,1/4+z
3/4+x,3/4-y,1/4+z
loop_
_atom_site_type_symbol
_atom_site_label
_atom_site_fract_x
_atom_site_fract_y
_atom_site_fract_z
Si Si1 0.817090 0.105393 0.219410
Si Si2 0.000000 0.000000 0.561373
Si Si3 0.663523 0.060762 0.194964
Si Si4 0.344292 0.943752 0.378093
Si Si5 0.925518 0.574877 0.287191
Si Si6 0.811136 0.627288 0.476554
O O1 0.809751 0.177653 0.276226
O O2 0.745110 0.035285 0.199831
O O3 0.847122 0.251082 0.185076
O O4 0.866888 0.961215 0.221646
O O5 0.030538 0.861235 0.594902
O O6 0.637043 0.958326 0.147297
O O7 0.625081 0.007089 0.246641
O O8 0.394218 0.055458 0.344431
O O9 0.305037 0.032150 0.423767
O O10 0.935102 0.759936 0.275007
O O11 0.000000 0.500000 0.283514
O O12 0.750000 0.750000 0.484420
#
# Coordination Sequence:
#
# PCOD8187168 Si02
#       6
#    16   8  16  16  16  16
#     4  10  20  45  62  92 132 170 207 263 337 385
#     4  10  22  42  72  90 122 174 214 264 322 392
#     4   9  21  41  68  90 129 169 207 267 327 383
#     4  11  24  41  68  98 121 172 224 262 320 394
#     4  11  23  42  64  92 132 171 215 266 322 383
#     4  11  27  41  64  96 134 171 211 275 327 384
#
# _framework density 20.376604
#
# number of rings (size 3 to 8) (size 9 to 14) (size 15 to 20)
#    0.000    1.818    3.636    1.091   10.182    3.636 
#    0.000    0.000    0.000    0.000    0.000    0.000 
#    0.000    0.000    0.000    0.000    0.000    0.000 
#
# Total GULP energy -272728.599350 kJ/mol
# GULP energy per Si atom -12396.754516 kJ/mol
# Density = 2.033023 g / cm^3
# Si number density = 20.376604 Si / 1000 Ang^3
#
#
#
# Elastic Constant Matrix: (Units=GPa)
#
#
# Indices 1 2 3 4 5 6 
#
# 1 71.8680 43.3865 5.4212 0.0000 0.0000 0.0000
# 2 43.3865 114.3672 32.8103 0.0000 0.0000 0.0000
# 3 5.4212 32.8103 83.1901 0.0000 0.0000 0.0000
# 4 0.0000 0.0000 0.0000 32.6956 0.0000 0.0000
# 5 0.0000 0.0000 0.0000 0.0000 6.7699 0.0000
# 6 0.0000 0.0000 0.0000 0.0000 0.0000 49.2258
#
#
#
# Elastic Compliance Matrix: (Units=1/GPa)
#
#
# Indices 1 2 3 4 5 6 
#
# 1 0.018268 -0.007429 0.001740 0.000000 0.000000 0.000000
# 2 -0.007429 0.012881 -0.004596 0.000000 0.000000 0.000000
# 3 0.001740 -0.004596 0.013720 0.000000 0.000000 0.000000
# 4 0.000000 0.000000 0.000000 0.030585 0.000000 0.000000
# 5 0.000000 0.000000 0.000000 0.000000 0.147712 0.000000
# 6 0.000000 0.000000 0.000000 0.000000 0.000000 0.020315
#
#
# Mechanical properties :
#
#
# Convention : Reuss Voigt Hill
#
# Bulk Modulus (GPa) = 41.15648 48.07349 44.61498
# Shear Modulus (GPa) = 18.37216 30.25874 24.31545
#
# Velocity S-wave (km/s) = 3.00597 3.85772 3.45817
# Velocity P-wave (km/s) = 5.68239 6.59442 6.15532
#
# Compressibility (1/GPa) = 0.02429751
#
# Stress axis : x y z
#
# Youngs Moduli (GPa) = 54.73977 77.63543 72.88639
#
# Poissons Ratio (x) = 0.57678 -0.12680
# Poissons Ratio (y) = 0.40668 0.33499
# Poissons Ratio (z) = -0.09523 0.35682
#
# Static dielectric constant tensor:
#      x y z
#    x 3.842190 0.000000 0.000000 
#    y 0.000000 3.750380 0.000000 
#    z 0.000000 0.000000 3.717950 
# 
# 
# High freq. dielectric constant tensor:
#      x y z
#    x 1.804950 0.000000 0.000000 
#    y 0.000000 1.803040 0.000000 
#    z 0.000000 0.000000 1.787530 
# 
# From -- ./inp_files/20193.got.cif
#   From: 2010.06.25/outbox.cif.g09.slc.cpg/sg43_11_cif.got.tgz:20193.got - 2010.06.26 16:48:59.
