data_PCOD8187256
_publ_section_title
;
Structure prediction by ZEFSAII (Michael W. Deem and Ramdas Pophale) SiO2 
 PCOD8187256
Probable space group: F D D 2
;
_chemical_formula_sum "Si O2"
_cell_formula_units_Z 72
_cell_length_a 17.156336
_cell_length_b 8.006059
_cell_length_c 26.085608
_cell_angle_alpha 90.000000
_cell_angle_beta 90.000000
_cell_angle_gamma 90.000000
_cell_volume 3582.979250
_symmetry_space_group_name_H-M "F D D 2"
_symmetry_group_IT_number 43
_symmetry_cell_setting 'orthorhombic'
loop_
_space_group_symop_operation_xyz
x,y,z
-x,-y,z
1/4-x,1/4+y,1/4+z
1/4+x,1/4-y,1/4+z
x,1/2+y,1/2+z
-x,1/2-y,1/2+z
1/4-x,3/4+y,3/4+z
1/4+x,3/4-y,3/4+z
1/2+x,y,1/2+z
1/2-x,-y,1/2+z
3/4-x,1/4+y,3/4+z
3/4+x,1/4-y,3/4+z
1/2+x,1/2+y,z
1/2-x,1/2-y,z
3/4-x,3/4+y,1/4+z
3/4+x,3/4-y,1/4+z
loop_
_atom_site_type_symbol
_atom_site_label
_atom_site_fract_x
_atom_site_fract_y
_atom_site_fract_z
Si Si1 0.659525 0.449737 0.489820
Si Si2 0.250000 0.250000 0.700205
Si Si3 0.000000 0.000000 0.280729
Si Si4 0.708525 0.990357 0.617489
Si Si5 0.000000 0.000000 0.654324
Si Si6 0.359174 0.671106 0.600136
O O1 0.566626 0.422782 0.485384
O O2 0.688970 0.641920 0.496887
O O3 0.704015 0.376533 0.440838
O O4 0.671121 0.343941 0.541562
O O5 0.304059 0.126534 0.666345
O O6 0.048322 0.129209 0.316035
O O7 0.642855 0.133552 0.615149
O O8 0.793793 0.066195 0.629921
O O9 0.056974 0.900533 0.615850
#
# Coordination Sequence:
#
# PCOD8187256 Si02
#       6
#    16   8   8  16   8  16
#     4  11  23  39  62  93 126 165 210 270 320 388
#     4  11  21  38  60  90 124 158 204 261 327 374
#     4   9  20  38  65  90 122 165 214 266 323 386
#     4   9  19  40  62  82 124 168 201 260 326 381
#     4  12  23  40  69  96 124 173 216 267 326 384
#     4  10  21  41  63  89 126 166 216 264 318 387
#
# _framework density 20.095009000000001
#
# number of rings (size 3 to 8) (size 9 to 14) (size 15 to 20)
#    0.000    1.778    2.222    3.333    3.111    0.000 
#    0.000    0.000    0.000    0.000    0.000    0.000 
#    0.000    0.000    0.000    0.000    0.000    0.000 
#
# Total GULP energy -223038.052764 kJ/mol
# GULP energy per Si atom -12391.002931 kJ/mol
# Density = 2.004927 g / cm^3
# Si number density = 20.095009 Si / 1000 Ang^3
#
#
#
# Elastic Constant Matrix: (Units=GPa)
#
#
# Indices 1 2 3 4 5 6 
#
# 1 104.9307 38.9323 22.6342 0.0000 0.0000 -0.0001
# 2 38.9323 123.4978 27.2998 -0.0001 0.0000 -0.0002
# 3 22.6342 27.2998 60.6698 0.0000 0.0000 0.0000
# 4 0.0000 -0.0001 0.0000 18.8743 0.0000 0.0000
# 5 0.0000 0.0000 0.0000 0.0000 15.7963 0.0000
# 6 -0.0001 -0.0002 0.0000 0.0000 0.0000 34.6694
#
#
#
# Elastic Compliance Matrix: (Units=1/GPa)
#
#
# Indices 1 2 3 4 5 6 
#
# 1 0.011229 -0.002903 -0.002883 0.000000 0.000000 0.000000
# 2 -0.002903 0.009742 -0.003301 0.000000 0.000000 0.000000
# 3 -0.002883 -0.003301 0.019044 0.000000 0.000000 0.000000
# 4 0.000000 0.000000 0.000000 0.052982 0.000000 0.000000
# 5 0.000000 0.000000 0.000000 0.000000 0.063306 0.000000
# 6 0.000000 0.000000 0.000000 0.000000 0.000000 0.028844
#
#
# Mechanical properties :
#
#
# Convention : Reuss Voigt Hill
#
# Bulk Modulus (GPa) = 45.78430 51.87009 48.82720
# Shear Modulus (GPa) = 23.74171 27.21681 25.47926
#
# Velocity S-wave (km/s) = 3.44099 3.68422 3.56468
# Velocity P-wave (km/s) = 6.21454 6.63072 6.42600
#
# Compressibility (1/GPa) = 0.02184155
#
# Stress axis : x y z
#
# Youngs Moduli (GPa) = 89.05561 102.64851 52.51129
#
# Poissons Ratio (x) = 0.29794 0.15140
# Poissons Ratio (y) = 0.25849 0.17333
# Poissons Ratio (z) = 0.25676 0.33882
#
# Static dielectric constant tensor:
#      x y z
#    x 3.467280 0.000000 0.000000 
#    y 0.000000 3.759560 0.000000 
#    z 0.000000 0.000000 3.578950 
# 
# 
# High freq. dielectric constant tensor:
#      x y z
#    x 1.770950 0.000000 0.000000 
#    y 0.000000 1.786210 0.000000 
#    z 0.000000 0.000000 1.785780 
# 
# From -- ./inp_files/16182.got.cif
#   From: 2010.06.25/outbox.cif.g09.slc.cpg/sg43_9_cif.got.tgz:16182.got - 2010.06.26 16:48:59.
