data_PCOD8187470
_publ_section_title
;
Structure prediction by ZEFSAII (Michael W. Deem and Ramdas Pophale) SiO2 
 PCOD8187470
Probable space group: F D D 2
;
_chemical_formula_sum "Si O2"
_cell_formula_units_Z 72
_cell_length_a 29.710699
_cell_length_b 4.830621
_cell_length_c 18.245814
_cell_angle_alpha 90.000000
_cell_angle_beta 90.000000
_cell_angle_gamma 90.000000
_cell_volume 2618.659779
_symmetry_space_group_name_H-M "F D D 2"
_symmetry_group_IT_number 43
_symmetry_cell_setting 'orthorhombic'
loop_
_space_group_symop_operation_xyz
x,y,z
-x,-y,z
1/4-x,1/4+y,1/4+z
1/4+x,1/4-y,1/4+z
x,1/2+y,1/2+z
-x,1/2-y,1/2+z
1/4-x,3/4+y,3/4+z
1/4+x,3/4-y,3/4+z
1/2+x,y,1/2+z
1/2-x,-y,1/2+z
3/4-x,1/4+y,3/4+z
3/4+x,1/4-y,3/4+z
1/2+x,1/2+y,z
1/2-x,1/2-y,z
3/4-x,3/4+y,1/4+z
3/4+x,3/4-y,1/4+z
loop_
_atom_site_type_symbol
_atom_site_label
_atom_site_fract_x
_atom_site_fract_y
_atom_site_fract_z
Si Si1 0.250000 0.750000 0.757261
Si Si2 0.112831 0.360228 0.189342
Si Si3 0.193511 0.620882 0.889325
Si Si4 0.250000 0.250000 0.655582
Si Si5 0.750000 0.750000 0.977528
Si Si6 0.926125 0.660041 0.333077
O O1 0.206909 0.644647 0.803745
O O2 0.266346 0.505025 0.704298
O O3 0.099352 0.665399 0.157213
O O4 0.117398 0.308623 0.278358
O O5 0.069768 0.172941 0.168283
O O6 0.159467 0.256051 0.154401
O O7 0.240239 0.515686 0.926351
O O8 0.294352 0.176787 0.606647
O O9 0.707370 0.771083 0.030666
#
# Coordination Sequence:
#
# PCOD8187470 Si02
#       6
#     8  16  16   8   8  16
#     4  12  25  47  78 117 155 200 274 324 385 483
#     4  11  27  47  81 108 164 193 264 323 410 462
#     4  11  24  48  77 116 151 207 248 329 397 472
#     4  12  27  45  80 110 162 210 266 328 392 484
#     4  10  22  50  82 105 151 206 260 316 393 491
#     4  11  26  51  76 117 152 213 259 329 397 470
#
# _framework density 27.494982
#
# number of rings (size 3 to 8) (size 9 to 14) (size 15 to 20)
#    0.000    0.889    0.000    6.667    3.111    8.889 
#    8.000    0.000    0.000    0.000    0.000    0.000 
#    0.000    0.000    0.000    0.000    0.000    0.000 
#
# Total GULP energy -223001.603921 kJ/mol
# GULP energy per Si atom -12388.977996 kJ/mol
# Density = 2.743240 g / cm^3
# Si number density = 27.494982 Si / 1000 Ang^3
#
#
#
# Elastic Constant Matrix: (Units=GPa)
#
#
# Indices 1 2 3 4 5 6 
#
# 1 83.8633 -4.1646 20.0755 -0.0008 0.0163 -0.0047
# 2 -4.1646 107.6106 43.3498 0.0039 -0.0086 0.0063
# 3 20.0755 43.3498 177.7300 -0.0001 0.0056 -0.0005
# 4 -0.0008 0.0039 -0.0001 5.6715 0.0034 0.0053
# 5 0.0163 -0.0086 0.0056 0.0034 69.0157 -0.0023
# 6 -0.0047 0.0063 -0.0005 0.0053 -0.0023 33.9025
#
#
#
# Elastic Compliance Matrix: (Units=1/GPa)
#
#
# Indices 1 2 3 4 5 6 
#
# 1 0.012384 0.001156 -0.001681 0.000001 -0.000003 0.000001
# 2 0.001156 0.010413 -0.002671 -0.000007 0.000001 -0.000002
# 3 -0.001681 -0.002671 0.006468 0.000002 0.000000 0.000000
# 4 0.000001 -0.000007 0.000002 0.176319 -0.000009 -0.000028
# 5 -0.000003 0.000001 0.000000 -0.000009 0.014489 0.000001
# 6 0.000001 -0.000002 0.000000 -0.000028 0.000001 0.029496
#
#
# Mechanical properties :
#
#
# Convention : Reuss Voigt Hill
#
# Bulk Modulus (GPa) = 43.71584 54.19170 48.95377
# Shear Modulus (GPa) = 18.96923 42.38083 30.67503
#
# Velocity S-wave (km/s) = 2.62947 3.93033 3.34377
# Velocity P-wave (km/s) = 5.01527 6.35209 5.72285
#
# Compressibility (1/GPa) = 0.02287500
#
# Stress axis : x y z
#
# Youngs Moduli (GPa) = 80.74953 96.03104 154.61365
#
# Poissons Ratio (x) = -0.11105 0.25989
# Poissons Ratio (y) = -0.09338 0.41290
# Poissons Ratio (z) = 0.13573 0.25645
#
# Static dielectric constant tensor:
#      x y z
#    x 5.106780 0.000040 -0.000050 
#    y 0.000040 4.455220 0.000020 
#    z -0.000050 0.000020 5.479750 
# 
# 
# High freq. dielectric constant tensor:
#      x y z
#    x 2.122590 0.000000 0.000000 
#    y 0.000000 2.104000 0.000000 
#    z 0.000000 0.000000 2.127240 
# 
# From -- ./inp_files/18941.got.cif
#   From: 2010.06.25/outbox.cif.g09.slc.cpg/sg43_10_cif.got.tgz:18941.got - 2010.06.26 16:48:59.
