data_PCOD8187711
_publ_section_title
;
Structure prediction by ZEFSAII (Michael W. Deem and Ramdas Pophale) SiO2 
 PCOD8187711
Probable space group: F D D 2
;
_chemical_formula_sum "Si O2"
_cell_formula_units_Z 64
_cell_length_a 16.611210
_cell_length_b 12.822391
_cell_length_c 13.263122
_cell_angle_alpha 90.000000
_cell_angle_beta 90.000000
_cell_angle_gamma 90.000000
_cell_volume 2824.984368
_symmetry_space_group_name_H-M "F D D 2"
_symmetry_group_IT_number 43
_symmetry_cell_setting 'orthorhombic'
loop_
_space_group_symop_operation_xyz
x,y,z
-x,-y,z
1/4-x,1/4+y,1/4+z
1/4+x,1/4-y,1/4+z
x,1/2+y,1/2+z
-x,1/2-y,1/2+z
1/4-x,3/4+y,3/4+z
1/4+x,3/4-y,3/4+z
1/2+x,y,1/2+z
1/2-x,-y,1/2+z
3/4-x,1/4+y,3/4+z
3/4+x,1/4-y,3/4+z
1/2+x,1/2+y,z
1/2-x,1/2-y,z
3/4-x,3/4+y,1/4+z
3/4+x,3/4-y,1/4+z
loop_
_atom_site_type_symbol
_atom_site_label
_atom_site_fract_x
_atom_site_fract_y
_atom_site_fract_z
Si Si1 0.301552 0.147490 0.760220
Si Si2 0.300196 0.515735 0.450446
Si Si3 0.800975 0.151281 0.857892
Si Si4 0.263088 0.441310 0.157449
O O1 0.250000 0.250000 0.775562
O O2 0.323369 0.103965 0.870383
O O3 0.381234 0.177979 0.700044
O O4 0.255565 0.060474 0.695163
O O5 0.219717 0.453284 0.420311
O O6 0.291007 0.571812 0.558038
O O7 0.750000 0.250000 0.898701
O O8 0.775577 0.135071 0.740659
O O9 0.895128 0.165666 0.878472
#
# Coordination Sequence:
#
# PCOD8187711 Si02
#       4
#    16  16  16  16
#     4  11  25  45  71 105 134 187 236 287 359 419
#     4  11  25  44  72 101 141 181 230 294 349 431
#     4  11  23  44  71 104 138 189 232 285 362 424
#     4  11  25  44  72 104 145 182 234 297 351 435
#
# _framework density 22.654993000000001
#
# number of rings (size 3 to 8) (size 9 to 14) (size 15 to 20)
#    0.000    1.000    2.500    3.000    7.000    2.000 
#    0.000    0.000    0.000    0.000    0.000    0.000 
#    0.000    0.000    0.000    0.000    0.000    0.000 
#
# Total GULP energy -198428.660536 kJ/mol
# GULP energy per Si atom -12401.791284 kJ/mol
# Density = 2.260343 g / cm^3
# Si number density = 22.654993 Si / 1000 Ang^3
#
#
#
# Elastic Constant Matrix: (Units=GPa)
#
#
# Indices 1 2 3 4 5 6 
#
# 1 53.5236 31.6985 29.2161 0.0000 0.0000 0.0000
# 2 31.6985 112.4589 37.6163 0.0000 0.0000 0.0000
# 3 29.2161 37.6163 133.4382 0.0000 0.0000 0.0000
# 4 0.0000 0.0000 0.0000 39.9978 0.0000 0.0000
# 5 0.0000 0.0000 0.0000 0.0000 37.3511 0.0000
# 6 0.0000 0.0000 0.0000 0.0000 0.0000 39.5736
#
#
#
# Elastic Compliance Matrix: (Units=1/GPa)
#
#
# Indices 1 2 3 4 5 6 
#
# 1 0.023968 -0.005521 -0.003691 0.000000 0.000000 0.000000
# 2 -0.005521 0.011090 -0.001917 0.000000 0.000000 0.000000
# 3 -0.003691 -0.001917 0.008843 0.000000 0.000000 0.000000
# 4 0.000000 0.000000 0.000000 0.025001 0.000000 0.000000
# 5 0.000000 0.000000 0.000000 0.000000 0.026773 0.000000
# 6 0.000000 0.000000 0.000000 0.000000 0.000000 0.025269
#
#
# Mechanical properties :
#
#
# Convention : Reuss Voigt Hill
#
# Bulk Modulus (GPa) = 46.20867 55.16471 50.68669
# Shear Modulus (GPa) = 33.24078 36.77716 35.00897
#
# Velocity S-wave (km/s) = 3.83464 4.03346 3.93531
# Velocity P-wave (km/s) = 6.32826 6.78930 6.56283
#
# Compressibility (1/GPa) = 0.02164096
#
# Stress axis : x y z
#
# Youngs Moduli (GPa) = 41.72211 90.17388 113.08590
#
# Poissons Ratio (x) = 0.49786 0.41744
# Poissons Ratio (y) = 0.23035 0.21683
# Poissons Ratio (z) = 0.15401 0.17289
#
# Static dielectric constant tensor:
#      x y z
#    x 4.041800 0.000000 0.000000 
#    y 0.000000 4.040550 0.000000 
#    z 0.000000 0.000000 4.200710 
# 
# 
# High freq. dielectric constant tensor:
#      x y z
#    x 1.890040 0.000000 0.000000 
#    y 0.000000 1.900960 0.000000 
#    z 0.000000 0.000000 1.901990 
# 
# From -- ./inp_files/5485.got.cif
#   From: 2010.06.25/outbox.cif.g09.slc.cpg/sg43_3_cif.got.tgz:5485.got - 2010.06.26 16:48:59.
