data_PCOD8187191
_publ_section_title
;
Structure prediction by ZEFSAII (Michael W. Deem and Ramdas Pophale) SiO2 
 PCOD8187191
Probable space group: F D D 2
;
_chemical_formula_sum "Si O2"
_cell_formula_units_Z 120
_cell_length_a 22.046241
_cell_length_b 22.454871
_cell_length_c 11.453970
_cell_angle_alpha 90.000000
_cell_angle_beta 90.000000
_cell_angle_gamma 90.000000
_cell_volume 5670.236279
_symmetry_space_group_name_H-M "F D D 2"
_symmetry_group_IT_number 43
_symmetry_cell_setting 'orthorhombic'
loop_
_space_group_symop_operation_xyz
x,y,z
-x,-y,z
1/4-x,1/4+y,1/4+z
1/4+x,1/4-y,1/4+z
x,1/2+y,1/2+z
-x,1/2-y,1/2+z
1/4-x,3/4+y,3/4+z
1/4+x,3/4-y,3/4+z
1/2+x,y,1/2+z
1/2-x,-y,1/2+z
3/4-x,1/4+y,3/4+z
3/4+x,1/4-y,3/4+z
1/2+x,1/2+y,z
1/2-x,1/2-y,z
3/4-x,3/4+y,1/4+z
3/4+x,3/4-y,1/4+z
loop_
_atom_site_type_symbol
_atom_site_label
_atom_site_fract_x
_atom_site_fract_y
_atom_site_fract_z
Si Si1 0.994134 0.640543 0.457200
Si Si2 0.475641 0.180072 0.211552
Si Si3 0.356372 0.311493 0.286930
Si Si4 0.324372 0.839131 0.036120
Si Si5 0.157264 0.799130 0.629984
Si Si6 0.763743 0.061478 0.944318
Si Si7 0.500000 0.000000 0.951125
Si Si8 0.066653 0.083778 0.628674
O O1 0.980293 0.684333 0.351372
O O2 0.927918 0.621668 0.502883
O O3 0.035657 0.586984 0.417216
O O4 0.030575 0.671110 0.562198
O O5 0.406533 0.173296 0.169639
O O6 0.506541 0.242785 0.177858
O O7 0.507746 0.122313 0.160131
O O8 0.340500 0.298503 0.422820
O O9 0.332646 0.263018 0.194879
O O10 0.428052 0.319022 0.276610
O O11 0.288331 0.796270 0.123667
O O12 0.384448 0.866716 0.092318
O O13 0.286547 0.897518 0.002009
O O14 0.158980 0.794968 0.488691
O O15 0.451596 0.963009 0.028286
#
# Coordination Sequence:
#
# PCOD8187191 Si02
#       8
#    16  16  16  16  16  16   8  16
#     4  10  21  37  64  94 131 169 218 274 344 410
#     4  10  23  42  64  98 133 177 226 286 350 420
#     4  10  22  40  68  96 130 170 225 287 341 416
#     4  11  26  46  69 101 139 187 235 290 361 433
#     4  10  22  40  68  96 130 170 225 287 341 416
#     4  10  23  42  64  98 133 177 226 286 350 420
#     4  12  28  46  74 104 146 188 244 298 360 448
#     4  11  26  46  69 101 139 187 235 290 361 433
#
# _framework density 21.163139000000001
#
# number of rings (size 3 to 8) (size 9 to 14) (size 15 to 20)
#    0.000    1.600    0.000    2.800    9.333    5.333 
#    9.600    0.000    0.000    0.000    0.000    0.000 
#    0.000    0.000    0.000    0.000    0.000    0.000 
#
# Total GULP energy -371869.973363 kJ/mol
# GULP energy per Si atom -12395.665779 kJ/mol
# Density = 2.111497 g / cm^3
# Si number density = 21.163139 Si / 1000 Ang^3
#
#
#
# Elastic Constant Matrix: (Units=GPa)
#
#
# Indices 1 2 3 4 5 6 
#
# 1 82.7606 20.5021 34.3618 0.0000 0.0000 0.0000
# 2 20.5021 69.5901 34.9017 0.0000 0.0000 0.0000
# 3 34.3618 34.9017 138.5454 0.0000 0.0000 0.0000
# 4 0.0000 0.0000 0.0000 38.9634 0.0000 0.0000
# 5 0.0000 0.0000 0.0000 0.0000 34.9258 0.0000
# 6 0.0000 0.0000 0.0000 0.0000 0.0000 3.7743
#
#
#
# Elastic Compliance Matrix: (Units=1/GPa)
#
#
# Indices 1 2 3 4 5 6 
#
# 1 0.013902 -0.002709 -0.002766 0.000000 0.000000 0.000000
# 2 -0.002709 0.016976 -0.003605 0.000000 0.000000 0.000000
# 3 -0.002766 -0.003605 0.008812 0.000000 0.000000 0.000000
# 4 0.000000 0.000000 0.000000 0.025665 0.000000 0.000000
# 5 0.000000 0.000000 0.000000 0.000000 0.028632 0.000000
# 6 0.000000 0.000000 0.000000 0.000000 0.000000 0.264951
#
#
# Mechanical properties :
#
#
# Convention : Reuss Voigt Hill
#
# Bulk Modulus (GPa) = 46.44279 52.26971 49.35625
# Shear Modulus (GPa) = 13.01155 28.94139 20.97647
#
# Velocity S-wave (km/s) = 2.48225 3.70204 3.15172
# Velocity P-wave (km/s) = 5.49620 6.55938 6.05119
#
# Compressibility (1/GPa) = 0.02153187
#
# Stress axis : x y z
#
# Youngs Moduli (GPa) = 71.93014 58.90763 113.48356
#
# Poissons Ratio (x) = 0.15957 0.31386
# Poissons Ratio (y) = 0.19484 0.40907
# Poissons Ratio (z) = 0.19894 0.21234
#
# Static dielectric constant tensor:
#      x y z
#    x 3.817870 0.000000 0.000000 
#    y 0.000000 3.909620 0.000000 
#    z 0.000000 0.000000 4.312760 
# 
# 
# High freq. dielectric constant tensor:
#      x y z
#    x 1.836730 0.000000 0.000000 
#    y 0.000000 1.826970 0.000000 
#    z 0.000000 0.000000 1.848590 
# 
# From -- ./inp_files/7619.got.cif
#   From: 2010.06.25/outbox.cif.g09.slc.cpg/sg43_4_cif.got.tgz:7619.got - 2010.06.26 16:48:59.
