data_PCOD8187926
_publ_section_title
;
Structure prediction by ZEFSAII (Michael W. Deem and Ramdas Pophale) SiO2 
 PCOD8187926
Probable space group: I M M 2
;
_chemical_formula_sum "Si O2"
_cell_formula_units_Z 56
_cell_length_a 8.682647
_cell_length_b 22.659255
_cell_length_c 17.769037
_cell_angle_alpha 90.000000
_cell_angle_beta 90.000000
_cell_angle_gamma 90.000000
_cell_volume 3495.921429
_symmetry_space_group_name_H-M "I M M 2"
_symmetry_group_IT_number 44
_symmetry_cell_setting 'orthorhombic'
loop_
_space_group_symop_operation_xyz
x,y,z
-x,-y,z
-x,y,z
x,-y,z
1/2+x,1/2+y,1/2+z
1/2-x,1/2-y,1/2+z
1/2-x,1/2+y,1/2+z
1/2+x,1/2-y,1/2+z
loop_
_atom_site_type_symbol
_atom_site_label
_atom_site_fract_x
_atom_site_fract_y
_atom_site_fract_z
Si Si1 0.317738 0.152842 0.364020
Si Si2 0.819268 0.350666 0.124007
Si Si3 0.820361 0.276144 0.412182
Si Si4 0.823656 0.778531 0.064141
Si Si5 0.683293 0.066180 0.492723
Si Si6 0.820617 0.815095 0.770087
Si Si7 0.678795 0.306568 0.724535
O O1 0.500000 0.151544 0.353542
O O2 0.269763 0.214820 0.400910
O O3 0.259976 0.100507 0.418375
O O4 0.235400 0.142646 0.282335
O O5 0.777064 0.287559 0.088231
O O6 0.756476 0.400998 0.067774
O O7 0.739086 0.359568 0.205328
O O8 0.000000 0.355657 0.137317
O O9 0.782148 0.300456 0.495527
O O10 0.764753 0.324473 0.350452
O O11 0.000000 0.264700 0.403334
O O12 0.797220 0.822070 0.136248
O O13 0.000000 0.780336 0.037319
O O14 0.500000 0.065891 0.494188
O O15 0.750736 0.000000 0.491134
O O16 0.784513 0.748992 0.743994
O O17 0.000000 0.824890 0.782274
O O18 0.500000 0.290406 0.738785
#
# Coordination Sequence:
#
# PCOD8187926 Si02
#       7
#     8   8   8   8   8   8   8
#     4  10  17  28  43  59  82 111 144 180 214 248
#     4   9  16  29  44  58  82 111 143 180 215 249
#     4  11  19  26  40  61  85 112 142 172 209 256
#     4   9  16  27  41  59  83 112 141 172 209 250
#     4   9  17  29  46  65  84 113 151 185 216 250
#     4  10  18  27  40  58  81 109 142 173 209 255
#     4   9  17  28  41  58  81 110 141 172 210 255
#
# _framework density 16.018667000000001
#
# number of rings (size 3 to 8) (size 9 to 14) (size 15 to 20)
#    0.000    2.429    1.429    6.000    0.000    2.857 
#    0.000    0.000    0.000    3.857    0.000    0.000 
#    0.000    1.143    0.000   11.143    0.000    3.143 
#
# Total GULP energy -347004.471082 kJ/mol
# GULP energy per Si atom -12393.016824 kJ/mol
# Density = 1.598221 g / cm^3
# Si number density = 16.018667 Si / 1000 Ang^3
#
#
#
# Elastic Constant Matrix: (Units=GPa)
#
#
# Indices 1 2 3 4 5 6 
#
# 1 56.1084 11.0586 43.1300 0.0000 0.0000 0.0000
# 2 11.0586 51.8137 46.1267 0.0000 0.0000 0.0000
# 3 43.1300 46.1267 163.3689 0.0000 0.0000 0.0000
# 4 0.0000 0.0000 0.0000 17.3842 0.0000 0.0000
# 5 0.0000 0.0000 0.0000 0.0000 31.1899 0.0000
# 6 0.0000 0.0000 0.0000 0.0000 0.0000 8.8688
#
#
#
# Elastic Compliance Matrix: (Units=1/GPa)
#
#
# Indices 1 2 3 4 5 6 
#
# 1 0.022377 0.000645 -0.006090 0.000000 0.000000 0.000000
# 2 0.000645 0.025798 -0.007455 0.000000 0.000000 0.000000
# 3 -0.006090 -0.007455 0.009834 0.000000 0.000000 0.000000
# 4 0.000000 0.000000 0.000000 0.057524 0.000000 0.000000
# 5 0.000000 0.000000 0.000000 0.000000 0.032062 0.000000
# 6 0.000000 0.000000 0.000000 0.000000 0.000000 0.112755
#
#
# Mechanical properties :
#
#
# Convention : Reuss Voigt Hill
#
# Bulk Modulus (GPa) = 31.04525 52.43574 41.74049
# Shear Modulus (GPa) = 16.84164 22.88696 19.86430
#
# Velocity S-wave (km/s) = 3.24601 3.78401 3.52529
# Velocity P-wave (km/s) = 5.78546 7.20394 6.53331
#
# Compressibility (1/GPa) = 0.03221104
#
# Stress axis : x y z
#
# Youngs Moduli (GPa) = 44.68967 38.76200 101.69224
#
# Poissons Ratio (x) = -0.02502 0.61928
# Poissons Ratio (y) = -0.02885 0.75807
# Poissons Ratio (z) = 0.27215 0.28895
#
# Static dielectric constant tensor:
#      x y z
#    x 2.929100 0.000000 0.000000 
#    y 0.000000 2.659760 0.000000 
#    z 0.000000 0.000000 3.682250 
# 
# 
# High freq. dielectric constant tensor:
#      x y z
#    x 1.613060 0.000000 0.000000 
#    y 0.000000 1.533560 0.000000 
#    z 0.000000 0.000000 1.639460 
# 
# From -- ./inp_files/20811.got.cif
#   From: 2010.03.12/outbox.cif.g09.slc.cpg/sg44_11_cif.got.tgz:20811.got - 2010.04.14 02:36:11.
