data_PCOD8187804
_publ_section_title
;
Structure prediction by ZEFSAII (Michael W. Deem and Ramdas Pophale) SiO2 
 PCOD8187804
Probable space group: F D D 2
;
_chemical_formula_sum "Si O2"
_cell_formula_units_Z 120
_cell_length_a 8.831655
_cell_length_b 21.721091
_cell_length_c 26.035885
_cell_angle_alpha 90.000000
_cell_angle_beta 90.000000
_cell_angle_gamma 90.000000
_cell_volume 4994.546664
_symmetry_space_group_name_H-M "F D D 2"
_symmetry_group_IT_number 43
_symmetry_cell_setting 'orthorhombic'
loop_
_space_group_symop_operation_xyz
x,y,z
-x,-y,z
1/4-x,1/4+y,1/4+z
1/4+x,1/4-y,1/4+z
x,1/2+y,1/2+z
-x,1/2-y,1/2+z
1/4-x,3/4+y,3/4+z
1/4+x,3/4-y,3/4+z
1/2+x,y,1/2+z
1/2-x,-y,1/2+z
3/4-x,1/4+y,3/4+z
3/4+x,1/4-y,3/4+z
1/2+x,1/2+y,z
1/2-x,1/2-y,z
3/4-x,3/4+y,1/4+z
3/4+x,3/4-y,1/4+z
loop_
_atom_site_type_symbol
_atom_site_label
_atom_site_fract_x
_atom_site_fract_y
_atom_site_fract_z
Si Si1 0.000000 0.000000 0.862080
Si Si2 0.219970 0.906615 0.716827
Si Si3 0.934797 0.306845 0.696389
Si Si4 0.788525 0.075187 0.332905
Si Si5 0.602048 0.942808 0.109238
Si Si6 0.235517 0.156891 0.683666
Si Si7 0.760726 0.442474 0.510577
Si Si8 0.349714 0.532334 0.226217
O O1 0.134191 0.034328 0.831218
O O2 0.919587 0.051524 0.896568
O O3 0.384597 0.872506 0.720908
O O4 0.156852 0.905490 0.658853
O O5 0.108059 0.869903 0.754580
O O6 0.228642 0.977303 0.733754
O O7 0.902752 0.249444 0.734158
O O8 0.108826 0.306077 0.680067
O O9 0.747380 0.146273 0.325354
O O10 0.887690 0.071831 0.384641
O O11 0.887482 0.058447 0.282858
O O12 0.500000 0.000000 0.126040
O O13 0.739430 0.960734 0.070620
O O14 0.275428 0.083399 0.688077
O O15 0.150613 0.179384 0.734328
O O16 0.500000 0.500000 0.201919
#
# Coordination Sequence:
#
# PCOD8187804 Si02
#       8
#     8  16  16  16  16  16  16  16
#     4  12  24  44  72 110 148 190 254 304 368 454
#     4  12  26  50  74 105 157 193 248 320 372 439
#     4  12  22  45  74 104 152 189 246 309 365 447
#     4  12  27  46  74 111 144 202 252 306 384 453
#     4  12  25  45  75 111 146 196 256 308 379 450
#     4  12  24  46  74 104 151 193 248 312 371 444
#     4  12  25  44  76 109 141 201 251 304 377 446
#     4  12  29  48  72 112 152 194 253 320 377 446
#
# _framework density 24.026205000000001
#
# number of rings (size 3 to 8) (size 9 to 14) (size 15 to 20)
#    0.000    0.000    8.000    2.000    3.733    0.000 
#    0.000    1.333    0.000    0.000    0.000    0.000 
#    0.000    0.000    0.000    0.000    0.000    0.000 
#
# Total GULP energy -371892.318348 kJ/mol
# GULP energy per Si atom -12396.410612 kJ/mol
# Density = 2.397152 g / cm^3
# Si number density = 24.026205 Si / 1000 Ang^3
#
#
#
# Elastic Constant Matrix: (Units=GPa)
#
#
# Indices 1 2 3 4 5 6 
#
# 1 108.9221 14.9128 15.9889 0.0000 0.0000 0.0000
# 2 14.9128 124.2822 0.4952 0.0000 0.0000 0.0000
# 3 15.9889 0.4952 62.6954 0.0000 0.0000 0.0000
# 4 0.0000 0.0000 0.0000 28.0656 0.0000 0.0000
# 5 0.0000 0.0000 0.0000 0.0000 20.5769 0.0000
# 6 0.0000 0.0000 0.0000 0.0000 0.0000 43.7891
#
#
#
# Elastic Compliance Matrix: (Units=1/GPa)
#
#
# Indices 1 2 3 4 5 6 
#
# 1 0.009701 -0.001154 -0.002465 0.000000 0.000000 0.000000
# 2 -0.001154 0.008184 0.000230 0.000000 0.000000 0.000000
# 3 -0.002465 0.000230 0.016577 0.000000 0.000000 0.000000
# 4 0.000000 0.000000 0.000000 0.035631 0.000000 0.000000
# 5 0.000000 0.000000 0.000000 0.000000 0.048598 0.000000
# 6 0.000000 0.000000 0.000000 0.000000 0.000000 0.022837
#
#
# Mechanical properties :
#
#
# Convention : Reuss Voigt Hill
#
# Bulk Modulus (GPa) = 36.12349 39.85485 37.98917
# Shear Modulus (GPa) = 31.73932 36.11983 33.92958
#
# Velocity S-wave (km/s) = 3.63854 3.88151 3.76199
# Velocity P-wave (km/s) = 5.72011 6.05907 5.89203
#
# Compressibility (1/GPa) = 0.02768282
#
# Stress axis : x y z
#
# Youngs Moduli (GPa) = 103.08519 122.19293 60.32486
#
# Poissons Ratio (x) = 0.14103 0.14869
# Poissons Ratio (y) = 0.11898 -0.01386
# Poissons Ratio (z) = 0.25409 -0.02807
#
# Static dielectric constant tensor:
#      x y z
#    x 4.330870 0.000000 0.000000 
#    y 0.000000 4.624780 0.000000 
#    z 0.000000 0.000000 4.002570 
# 
# 
# High freq. dielectric constant tensor:
#      x y z
#    x 1.955700 0.000000 0.000000 
#    y 0.000000 1.976100 0.000000 
#    z 0.000000 0.000000 1.930790 
# 
# From -- ./inp_files/24481.got.cif
#   From: 2010.06.25/outbox.cif.g09.slc.cpg/sg43_13_cif.got.tgz:24481.got - 2010.06.26 16:48:59.
