data_PCOD8187261
_publ_section_title
;
Structure prediction by ZEFSAII (Michael W. Deem and Ramdas Pophale) SiO2 
 PCOD8187261
Probable space group: F D D 2
;
_chemical_formula_sum "Si O2"
_cell_formula_units_Z 80
_cell_length_a 21.924504
_cell_length_b 10.956102
_cell_length_c 16.211101
_cell_angle_alpha 90.000000
_cell_angle_beta 90.000000
_cell_angle_gamma 90.000000
_cell_volume 3894.021593
_symmetry_space_group_name_H-M "F D D 2"
_symmetry_group_IT_number 43
_symmetry_cell_setting 'orthorhombic'
loop_
_space_group_symop_operation_xyz
x,y,z
-x,-y,z
1/4-x,1/4+y,1/4+z
1/4+x,1/4-y,1/4+z
x,1/2+y,1/2+z
-x,1/2-y,1/2+z
1/4-x,3/4+y,3/4+z
1/4+x,3/4-y,3/4+z
1/2+x,y,1/2+z
1/2-x,-y,1/2+z
3/4-x,1/4+y,3/4+z
3/4+x,1/4-y,3/4+z
1/2+x,1/2+y,z
1/2-x,1/2-y,z
3/4-x,3/4+y,1/4+z
3/4+x,3/4-y,1/4+z
loop_
_atom_site_type_symbol
_atom_site_label
_atom_site_fract_x
_atom_site_fract_y
_atom_site_fract_z
Si Si1 0.342314 0.577006 0.261210
Si Si2 0.344386 0.683438 0.593323
Si Si3 0.715965 0.571578 0.134500
Si Si4 0.680400 0.761352 0.915996
Si Si5 0.811914 0.682362 0.601764
O O1 0.292007 0.478312 0.228892
O O2 0.319228 0.642590 0.342500
O O3 0.405047 0.506560 0.279773
O O4 0.352620 0.674608 0.186609
O O5 0.334104 0.822761 0.621368
O O6 0.284949 0.608189 0.619645
O O7 0.355613 0.684604 0.494710
O O8 0.401879 0.618303 0.636995
O O9 0.701112 0.457707 0.072712
O O10 0.750000 0.750000 0.946577
O O11 0.750000 0.750000 0.625599
#
# Coordination Sequence:
#
# PCOD8187261 Si02
#       5
#    16  16  16  16  16
#     4  10  23  38  68  93 131 173 223 270 341 390
#     4  11  24  44  66  96 138 174 227 279 341 405
#     4   9  23  43  65  91 137 178 213 287 329 398
#     4  12  25  41  69 101 129 182 222 280 345 404
#     4  10  21  41  68  94 133 170 221 282 322 407
#
# _framework density 20.544312999999999
#
# number of rings (size 3 to 8) (size 9 to 14) (size 15 to 20)
#    1.200    0.400    2.000    3.000    5.600    0.000 
#    0.000    0.000    4.400    0.000    0.000    0.000 
#    0.000    0.000    0.000    0.000    0.000    0.000 
#
# Total GULP energy -247772.028287 kJ/mol
# GULP energy per Si atom -12388.601414 kJ/mol
# Density = 2.049755 g / cm^3
# Si number density = 20.544313 Si / 1000 Ang^3
#
#
#
# Elastic Constant Matrix: (Units=GPa)
#
#
# Indices 1 2 3 4 5 6 
#
# 1 84.4932 51.1175 27.9846 0.0000 0.0000 0.0000
# 2 51.1175 130.4977 40.5457 0.0000 0.0000 0.0000
# 3 27.9846 40.5457 97.1964 0.0000 0.0000 0.0000
# 4 0.0000 0.0000 0.0000 17.9463 0.0000 0.0000
# 5 0.0000 0.0000 0.0000 0.0000 30.1849 0.0000
# 6 0.0000 0.0000 0.0000 0.0000 0.0000 34.2012
#
#
#
# Elastic Compliance Matrix: (Units=1/GPa)
#
#
# Indices 1 2 3 4 5 6 
#
# 1 0.015939 -0.005535 -0.002280 0.000000 0.000000 0.000000
# 2 -0.005535 0.010726 -0.002881 0.000000 0.000000 0.000000
# 3 -0.002280 -0.002881 0.012147 0.000000 0.000000 0.000000
# 4 0.000000 0.000000 0.000000 0.055722 0.000000 0.000000
# 5 0.000000 0.000000 0.000000 0.000000 0.033129 0.000000
# 6 0.000000 0.000000 0.000000 0.000000 0.000000 0.029239
#
#
# Mechanical properties :
#
#
# Convention : Reuss Voigt Hill
#
# Bulk Modulus (GPa) = 57.40576 61.27589 59.34083
# Shear Modulus (GPa) = 27.15909 29.30245 28.23077
#
# Velocity S-wave (km/s) = 3.63984 3.78074 3.71096
# Velocity P-wave (km/s) = 6.75779 6.99640 6.87813
#
# Compressibility (1/GPa) = 0.01741985
#
# Stress axis : x y z
#
# Youngs Moduli (GPa) = 62.73860 93.22965 82.32696
#
# Poissons Ratio (x) = 0.51604 0.18772
# Poissons Ratio (y) = 0.34726 0.23717
# Poissons Ratio (z) = 0.14306 0.26858
#
# Static dielectric constant tensor:
#      x y z
#    x 3.441040 0.000000 0.000000 
#    y 0.000000 3.975350 0.000000 
#    z 0.000000 0.000000 3.610150 
# 
# 
# High freq. dielectric constant tensor:
#      x y z
#    x 1.782660 0.000000 0.000000 
#    y 0.000000 1.820000 0.000000 
#    z 0.000000 0.000000 1.796020 
# 
# From -- ./inp_files/11187.got.cif
#   From: 2010.06.25/outbox.cif.g09.slc.cpg/sg43_6_cif.got.tgz:11187.got - 2010.06.26 16:48:59.
