data_PCOD8187970
_publ_section_title
;
Structure prediction by ZEFSAII (Michael W. Deem and Ramdas Pophale) SiO2 
 PCOD8187970
Probable space group: I M M 2
;
_chemical_formula_sum "Si O2"
_cell_formula_units_Z 64
_cell_length_a 19.037059
_cell_length_b 19.037055
_cell_length_c 9.691274
_cell_angle_alpha 90.000000
_cell_angle_beta 90.000000
_cell_angle_gamma 90.000000
_cell_volume 3512.210145
_symmetry_space_group_name_H-M "I M M 2"
_symmetry_group_IT_number 44
_symmetry_cell_setting 'orthorhombic'
loop_
_space_group_symop_operation_xyz
x,y,z
-x,-y,z
-x,y,z
x,-y,z
1/2+x,1/2+y,1/2+z
1/2-x,1/2-y,1/2+z
1/2-x,1/2+y,1/2+z
1/2+x,1/2-y,1/2+z
loop_
_atom_site_type_symbol
_atom_site_label
_atom_site_fract_x
_atom_site_fract_y
_atom_site_fract_z
Si Si1 0.312380 0.187621 0.338330
Si Si2 0.324131 0.148317 0.042266
Si Si3 0.339740 0.306355 0.940862
Si Si4 0.193646 0.839740 0.735798
Si Si5 0.824771 0.917426 0.995728
Si Si6 0.078493 0.421507 0.338330
Si Si7 0.648316 0.175870 0.634394
Si Si8 0.417426 0.324772 0.680933
O O1 0.343009 0.148763 0.204028
O O2 0.229960 0.172497 0.357461
O O3 0.327503 0.270041 0.319200
O O4 0.351238 0.156992 0.472631
O O5 0.243095 0.127944 0.034562
O O6 0.338796 0.222584 0.967520
O O7 0.371463 0.090709 0.968544
O O8 0.404312 0.333623 0.846242
O O9 0.345234 0.345235 0.088330
O O10 0.277417 0.838796 0.709139
O O11 0.166379 0.904313 0.830418
O O12 0.889841 0.889841 0.088330
O O13 0.815646 0.000000 0.023782
O O14 0.090926 0.500000 0.284633
O O15 0.090708 0.371463 0.208115
O O16 0.000000 0.409073 0.392028
O O17 0.627943 0.256905 0.642099
O O18 0.500000 0.315647 0.652880
#
# Coordination Sequence:
#
# PCOD8187970 Si02
#       8
#     8   8   8   8   8   8   8   8
#     4  10  17  32  59  87 114 137 181 244 285 322
#     4  11  19  34  61  86 115 147 188 233 286 344
#     4  10  18  33  58  87 115 139 182 239 296 334
#     4  10  18  33  58  87 115 139 182 239 296 334
#     4  12  22  37  58  84 116 153 198 243 292 344
#     4  11  23  38  55  82 120 156 185 220 283 359
#     4  11  19  34  61  86 115 147 188 233 286 344
#     4  12  22  37  58  84 116 153 198 243 292 344
#
# _framework density 18.222144
#
# number of rings (size 3 to 8) (size 9 to 14) (size 15 to 20)
#    0.000    1.125    7.500    1.500    0.000    0.250 
#    0.000    3.750    0.000    1.500    0.000    0.000 
#    0.000    0.000    0.000    0.000    0.000    0.000 
#
# Total GULP energy -396681.097338 kJ/mol
# GULP energy per Si atom -12396.284292 kJ/mol
# Density = 1.818067 g / cm^3
# Si number density = 18.222144 Si / 1000 Ang^3
#
#
#
# Elastic Constant Matrix: (Units=GPa)
#
#
# Indices 1 2 3 4 5 6 
#
# 1 65.5784 18.0973 35.2948 0.0000 0.0000 0.0000
# 2 18.0973 65.5784 35.2949 0.0000 0.0000 0.0000
# 3 35.2948 35.2949 132.2670 0.0000 0.0000 0.0000
# 4 0.0000 0.0000 0.0000 22.7891 0.0000 0.0000
# 5 0.0000 0.0000 0.0000 0.0000 22.7890 0.0000
# 6 0.0000 0.0000 0.0000 0.0000 0.0000 20.3563
#
#
#
# Elastic Compliance Matrix: (Units=1/GPa)
#
#
# Indices 1 2 3 4 5 6 
#
# 1 0.018242 -0.002819 -0.004115 0.000000 0.000000 0.000000
# 2 -0.002819 0.018242 -0.004116 0.000000 0.000000 0.000000
# 3 -0.004115 -0.004116 0.009757 0.000000 0.000000 0.000000
# 4 0.000000 0.000000 0.000000 0.043881 0.000000 0.000000
# 5 0.000000 0.000000 0.000000 0.000000 0.043881 0.000000
# 6 0.000000 0.000000 0.000000 0.000000 0.000000 0.049125
#
#
# Mechanical properties :
#
#
# Convention : Reuss Voigt Hill
#
# Bulk Modulus (GPa) = 41.42431 48.97754 45.20092
# Shear Modulus (GPa) = 23.44403 24.83600 24.14001
#
# Velocity S-wave (km/s) = 3.59077 3.69583 3.64368
# Velocity P-wave (km/s) = 6.32248 6.71927 6.52389
#
# Compressibility (1/GPa) = 0.02414042
#
# Stress axis : x y z
#
# Youngs Moduli (GPa) = 54.81890 54.81885 102.49195
#
# Poissons Ratio (x) = 0.15454 0.42180
# Poissons Ratio (y) = 0.15454 0.42181
# Poissons Ratio (z) = 0.22561 0.22561
#
# Static dielectric constant tensor:
#      x y z
#    x 3.105170 0.000000 0.000000 
#    y 0.000000 3.105170 0.000000 
#    z 0.000000 0.000000 3.850110 
# 
# 
# High freq. dielectric constant tensor:
#      x y z
#    x 1.678390 0.000000 0.000000 
#    y 0.000000 1.678390 0.000000 
#    z 0.000000 0.000000 1.726630 
# 
# From -- ./inp_files/9128.got.cif
#   From: 2010.03.12/outbox.cif.g09.slc.cpg/sg44_5_cif.got.tgz:9128.got - 2010.04.14 02:36:11.
