data_PCOD8187423
_publ_section_title
;
Structure prediction by ZEFSAII (Michael W. Deem and Ramdas Pophale) SiO2 
 PCOD8187423
Probable space group: F D D 2
;
_chemical_formula_sum "Si O2"
_cell_formula_units_Z 96
_cell_length_a 16.322572
_cell_length_b 17.003350
_cell_length_c 13.674077
_cell_angle_alpha 90.000000
_cell_angle_beta 90.000000
_cell_angle_gamma 90.000000
_cell_volume 3795.081515
_symmetry_space_group_name_H-M "F D D 2"
_symmetry_group_IT_number 43
_symmetry_cell_setting 'orthorhombic'
loop_
_space_group_symop_operation_xyz
x,y,z
-x,-y,z
1/4-x,1/4+y,1/4+z
1/4+x,1/4-y,1/4+z
x,1/2+y,1/2+z
-x,1/2-y,1/2+z
1/4-x,3/4+y,3/4+z
1/4+x,3/4-y,3/4+z
1/2+x,y,1/2+z
1/2-x,-y,1/2+z
3/4-x,1/4+y,3/4+z
3/4+x,1/4-y,3/4+z
1/2+x,1/2+y,z
1/2-x,1/2-y,z
3/4-x,3/4+y,1/4+z
3/4+x,3/4-y,1/4+z
loop_
_atom_site_type_symbol
_atom_site_label
_atom_site_fract_x
_atom_site_fract_y
_atom_site_fract_z
Si Si1 0.709868 0.588925 0.112290
Si Si2 0.638894 0.371162 0.286175
Si Si3 0.190698 0.449165 0.298326
Si Si4 0.685093 0.814830 0.984204
Si Si5 0.662034 0.286783 0.079568
Si Si6 0.283044 0.065399 0.509259
O O1 0.744137 0.590685 0.224347
O O2 0.636652 0.646288 0.081177
O O3 0.793012 0.609503 0.050403
O O4 0.679970 0.502887 0.077242
O O5 0.695707 0.335270 0.370467
O O6 0.658384 0.327788 0.185584
O O7 0.650735 0.467261 0.294312
O O8 0.546034 0.349645 0.314214
O O9 0.156355 0.532239 0.257653
O O10 0.239932 0.463554 0.399771
O O11 0.750000 0.750000 0.014536
O O12 0.750000 0.250000 0.067111
O O13 0.652307 0.360524 0.003789
#
# Coordination Sequence:
#
# PCOD8187423 Si02
#       6
#    16  16  16  16  16  16
#     4  11  24  46  73 106 152 199 250 314 382 459
#     4  11  22  44  69  99 145 179 245 299 377 435
#     4  11  25  44  72 108 148 196 251 306 384 465
#     4  10  22  43  71 107 139 185 243 304 362 452
#     4  10  25  43  66 106 137 188 239 306 372 464
#     4  11  25  42  67 103 139 195 243 299 378 447
#
# _framework density 25.295898999999999
#
# number of rings (size 3 to 8) (size 9 to 14) (size 15 to 20)
#    0.000    1.333    1.667    2.500    4.667    1.333 
#    3.000    2.500    0.000    0.000    0.000    0.000 
#    0.000    0.000    0.000    0.000    0.000    0.000 
#
# Total GULP energy -297325.719855 kJ/mol
# GULP energy per Si atom -12388.571661 kJ/mol
# Density = 2.523832 g / cm^3
# Si number density = 25.295899 Si / 1000 Ang^3
#
#
#
# Elastic Constant Matrix: (Units=GPa)
#
#
# Indices 1 2 3 4 5 6 
#
# 1 59.5190 15.3140 10.2356 0.0000 0.0000 0.0000
# 2 15.3140 123.9796 36.8198 0.0000 0.0000 0.0000
# 3 10.2356 36.8198 165.6355 0.0000 0.0000 0.0000
# 4 0.0000 0.0000 0.0000 44.4871 0.0000 0.0000
# 5 0.0000 0.0000 0.0000 0.0000 38.8682 0.0000
# 6 0.0000 0.0000 0.0000 0.0000 0.0000 -23.9340
#
#
#
# Elastic Compliance Matrix: (Units=1/GPa)
#
#
# Indices 1 2 3 4 5 6 
#
# 1 0.017416 -0.001961 -0.000640 0.000000 0.000000 0.000000
# 2 -0.001961 0.008857 -0.001848 0.000000 0.000000 0.000000
# 3 -0.000640 -0.001848 0.006488 0.000000 0.000000 0.000000
# 4 0.000000 0.000000 0.000000 0.022478 0.000000 0.000000
# 5 0.000000 0.000000 0.000000 0.000000 0.025728 0.000000
# 6 0.000000 0.000000 0.000000 0.000000 0.000000 -0.041782
#
#
# Mechanical properties :
#
#
# Convention : Reuss Voigt Hill
#
# Bulk Modulus (GPa) = 41.90680 52.65254 47.27967
# Shear Modulus (GPa) = 89.22601 31.00191 60.11396
#
# Velocity S-wave (km/s) = 5.94554 3.50461 4.88015
# Velocity P-wave (km/s) = 7.98344 6.10215 7.10533
#
# Compressibility (1/GPa) = 0.02386248
#
# Stress axis : x y z
#
# Youngs Moduli (GPa) = 57.41826 112.90775 154.13935
#
# Poissons Ratio (x) = 0.22142 0.09870
# Poissons Ratio (y) = 0.11260 0.28479
# Poissons Ratio (z) = 0.03677 0.20861
#
# Static dielectric constant tensor:
#      x y z
#    x 4.657170 0.000000 0.000000 
#    y 0.000000 5.031370 0.000000 
#    z 0.000000 0.000000 4.415310 
# 
# 
# High freq. dielectric constant tensor:
#      x y z
#    x 2.012800 0.000000 0.000000 
#    y 0.000000 2.019560 0.000000 
#    z 0.000000 0.000000 2.017480 
# 
# From -- ./inp_files/10912.got.cif
#   From: 2010.06.25/outbox.cif.g09.slc.cpg/sg43_6_cif.got.tgz:10912.got - 2010.06.26 16:48:59.
