data_PCOD8187288
_publ_section_title
;
Structure prediction by ZEFSAII (Michael W. Deem and Ramdas Pophale) SiO2 
 PCOD8187288
Probable space group: F D D 2
;
_chemical_formula_sum "Si O2"
_cell_formula_units_Z 80
_cell_length_a 5.279165
_cell_length_b 25.569657
_cell_length_c 23.872900
_cell_angle_alpha 90.000000
_cell_angle_beta 90.000000
_cell_angle_gamma 90.000000
_cell_volume 3222.517743
_symmetry_space_group_name_H-M "F D D 2"
_symmetry_group_IT_number 43
_symmetry_cell_setting 'orthorhombic'
loop_
_space_group_symop_operation_xyz
x,y,z
-x,-y,z
1/4-x,1/4+y,1/4+z
1/4+x,1/4-y,1/4+z
x,1/2+y,1/2+z
-x,1/2-y,1/2+z
1/4-x,3/4+y,3/4+z
1/4+x,3/4-y,3/4+z
1/2+x,y,1/2+z
1/2-x,-y,1/2+z
3/4-x,1/4+y,3/4+z
3/4+x,1/4-y,3/4+z
1/2+x,1/2+y,z
1/2-x,1/2-y,z
3/4-x,3/4+y,1/4+z
3/4+x,3/4-y,1/4+z
loop_
_atom_site_type_symbol
_atom_site_label
_atom_site_fract_x
_atom_site_fract_y
_atom_site_fract_z
Si Si1 0.059265 0.405629 0.275740
Si Si2 0.550131 0.122617 0.866934
Si Si3 0.757935 0.468529 0.354873
Si Si4 0.929649 0.055100 0.560679
Si Si5 0.366841 0.447194 0.174767
O O1 0.258020 0.410065 0.327282
O O2 0.156696 0.427874 0.217756
O O3 0.835171 0.445673 0.293677
O O4 0.966120 0.345325 0.269505
O O5 0.325436 0.083983 0.889734
O O6 0.442134 0.169245 0.829122
O O7 0.684552 0.148993 0.920364
O O8 0.500000 0.500000 0.348660
O O9 0.000000 0.500000 0.381778
O O10 0.760126 0.042096 0.614896
O O11 0.000000 0.000000 0.530032
O O12 0.500000 0.500000 0.196087
#
# Coordination Sequence:
#
# PCOD8187288 Si02
#       5
#    16  16  16  16  16
#     4  10  24  39  70 109 146 188 250 311 380 449
#     4  10  22  42  66 103 147 193 240 308 378 447
#     4  11  22  41  68 100 146 199 243 297 386 449
#     4  10  21  43  68 102 150 198 244 309 384 450
#     4  11  23  41  70 109 147 192 264 318 374 455
#
# _framework density 24.825306999999999
#
# number of rings (size 3 to 8) (size 9 to 14) (size 15 to 20)
#    0.000    1.600    4.000    0.000    2.800    4.000 
#    0.000    0.000    0.000   28.800    0.000    0.000 
#    0.000    0.000    0.000    0.000    0.000    0.000 
#
# Total GULP energy -247821.517240 kJ/mol
# GULP energy per Si atom -12391.075862 kJ/mol
# Density = 2.476880 g / cm^3
# Si number density = 24.825307 Si / 1000 Ang^3
#
#
#
# Elastic Constant Matrix: (Units=GPa)
#
#
# Indices 1 2 3 4 5 6 
#
# 1 140.2760 57.4233 15.9978 0.0000 0.0000 0.0000
# 2 57.4233 103.4175 14.7515 0.0000 0.0000 0.0000
# 3 15.9978 14.7515 45.9798 0.0000 0.0000 0.0000
# 4 0.0000 0.0000 0.0000 16.7120 0.0000 0.0000
# 5 0.0000 0.0000 0.0000 0.0000 27.0556 0.0000
# 6 0.0000 0.0000 0.0000 0.0000 0.0000 66.0465
#
#
#
# Elastic Compliance Matrix: (Units=1/GPa)
#
#
# Indices 1 2 3 4 5 6 
#
# 1 0.009346 -0.004952 -0.001663 0.000000 0.000000 0.000000
# 2 -0.004952 0.012757 -0.002370 0.000000 0.000000 0.000000
# 3 -0.001663 -0.002370 0.023088 0.000000 0.000000 0.000000
# 4 0.000000 0.000000 0.000000 0.059837 0.000000 0.000000
# 5 0.000000 0.000000 0.000000 0.000000 0.036961 0.000000
# 6 0.000000 0.000000 0.000000 0.000000 0.000000 0.015141
#
#
# Mechanical properties :
#
#
# Convention : Reuss Voigt Hill
#
# Bulk Modulus (GPa) = 36.73661 51.77984 44.25823
# Shear Modulus (GPa) = 27.14846 35.39621 31.27233
#
# Velocity S-wave (km/s) = 3.31052 3.78009 3.55307
# Velocity P-wave (km/s) = 5.42613 6.32100 5.89058
#
# Compressibility (1/GPa) = 0.02722080
#
# Stress axis : x y z
#
# Youngs Moduli (GPa) = 107.00225 78.38695 43.31339
#
# Poissons Ratio (x) = 0.38817 0.07203
# Poissons Ratio (y) = 0.52988 0.10265
# Poissons Ratio (z) = 0.17793 0.18577
#
# Static dielectric constant tensor:
#      x y z
#    x 4.916950 0.000000 0.000000 
#    y 0.000000 5.133160 0.000000 
#    z 0.000000 0.000000 3.622170 
# 
# 
# High freq. dielectric constant tensor:
#      x y z
#    x 2.011420 0.000000 0.000000 
#    y 0.000000 2.019770 0.000000 
#    z 0.000000 0.000000 1.914360 
# 
# From -- ./inp_files/27306.got.cif
#   From: 2010.06.25/outbox.cif.g09.slc.cpg/sg43_14_cif.got.tgz:27306.got - 2010.06.26 16:48:59.
