data_PCOD8187429
_publ_section_title
;
Structure prediction by ZEFSAII (Michael W. Deem and Ramdas Pophale) SiO2 
 PCOD8187429
Probable space group: F D D 2
;
_chemical_formula_sum "Si O2"
_cell_formula_units_Z 88
_cell_length_a 20.948291
_cell_length_b 11.369698
_cell_length_c 15.660491
_cell_angle_alpha 90.000000
_cell_angle_beta 90.000000
_cell_angle_gamma 90.000000
_cell_volume 3729.949068
_symmetry_space_group_name_H-M "F D D 2"
_symmetry_group_IT_number 43
_symmetry_cell_setting 'orthorhombic'
loop_
_space_group_symop_operation_xyz
x,y,z
-x,-y,z
1/4-x,1/4+y,1/4+z
1/4+x,1/4-y,1/4+z
x,1/2+y,1/2+z
-x,1/2-y,1/2+z
1/4-x,3/4+y,3/4+z
1/4+x,3/4-y,3/4+z
1/2+x,y,1/2+z
1/2-x,-y,1/2+z
3/4-x,1/4+y,3/4+z
3/4+x,1/4-y,3/4+z
1/2+x,1/2+y,z
1/2-x,1/2-y,z
3/4-x,3/4+y,1/4+z
3/4+x,3/4-y,1/4+z
loop_
_atom_site_type_symbol
_atom_site_label
_atom_site_fract_x
_atom_site_fract_y
_atom_site_fract_z
Si Si1 0.165551 0.000273 0.913210
Si Si2 0.000000 0.500000 0.278300
Si Si3 0.514115 0.247463 0.367392
Si Si4 0.627430 0.747580 0.352583
Si Si5 0.442677 0.211184 0.693274
Si Si6 0.128147 0.567606 0.235990
O O1 0.156644 0.863168 0.892978
O O2 0.241298 0.026101 0.917663
O O3 0.136217 0.081668 0.838655
O O4 0.127522 0.020035 0.001361
O O5 0.989465 0.387484 0.337658
O O6 0.935163 0.515733 0.221470
O O7 0.442239 0.286911 0.390755
O O8 0.544743 0.328911 0.291913
O O9 0.558157 0.258496 0.450276
O O10 0.675455 0.642893 0.378780
O O11 0.385183 0.306146 0.693204
#
# Coordination Sequence:
#
# PCOD8187429 Si02
#       6
#    16   8  16  16  16  16
#     4  11  26  46  75 109 142 195 248 297 365 445
#     4  10  22  44  64 104 140 188 248 306 340 452
#     4  10  24  43  73 102 145 187 245 295 374 432
#     4  11  25  48  73 108 144 189 247 304 363 441
#     4  10  26  45  69 106 150 186 242 305 367 441
#     4  11  25  43  73 103 146 190 239 304 373 432
#
# _framework density 23.592814000000001
#
# number of rings (size 3 to 8) (size 9 to 14) (size 15 to 20)
#    0.000    1.455    1.818    0.545   10.182    0.727 
#    0.000    1.818    0.000    0.000    0.000    0.000 
#    0.000    0.000    0.000    0.000    0.000    0.000 
#
# Total GULP energy -272713.041217 kJ/mol
# GULP energy per Si atom -12396.047328 kJ/mol
# Density = 2.353912 g / cm^3
# Si number density = 23.592814 Si / 1000 Ang^3
#
#
#
# Elastic Constant Matrix: (Units=GPa)
#
#
# Indices 1 2 3 4 5 6 
#
# 1 96.3468 -4.9574 37.7179 0.0000 0.0000 0.0000
# 2 -4.9574 45.7588 6.1972 0.0000 0.0000 0.0000
# 3 37.7179 6.1972 86.9512 0.0000 0.0000 0.0000
# 4 0.0000 0.0000 0.0000 25.9498 0.0000 0.0000
# 5 0.0000 0.0000 0.0000 0.0000 48.7783 0.0000
# 6 0.0000 0.0000 0.0000 0.0000 0.0000 39.8975
#
#
#
# Elastic Compliance Matrix: (Units=1/GPa)
#
#
# Indices 1 2 3 4 5 6 
#
# 1 0.012707 0.002144 -0.005665 0.000000 0.000000 0.000000
# 2 0.002144 0.022428 -0.002529 0.000000 0.000000 0.000000
# 3 -0.005665 -0.002529 0.014138 0.000000 0.000000 0.000000
# 4 0.000000 0.000000 0.000000 0.038536 0.000000 0.000000
# 5 0.000000 0.000000 0.000000 0.000000 0.020501 0.000000
# 6 0.000000 0.000000 0.000000 0.000000 0.000000 0.025064
#
#
# Mechanical properties :
#
#
# Convention : Reuss Voigt Hill
#
# Bulk Modulus (GPa) = 26.89998 34.10803 30.50401
# Shear Modulus (GPa) = 31.67249 35.59840 33.63544
#
# Velocity S-wave (km/s) = 3.66794 3.88863 3.77989
# Velocity P-wave (km/s) = 5.41894 5.88644 5.65752
#
# Compressibility (1/GPa) = 0.03717474
#
# Stress axis : x y z
#
# Youngs Moduli (GPa) = 78.69556 44.58628 70.73003
#
# Poissons Ratio (x) = -0.09559 0.40068
# Poissons Ratio (y) = -0.16872 0.17884
# Poissons Ratio (z) = 0.44581 0.11274
#
# Static dielectric constant tensor:
#      x y z
#    x 4.828120 0.000000 0.000000 
#    y 0.000000 4.072800 0.000000 
#    z 0.000000 0.000000 4.270600 
# 
# 
# High freq. dielectric constant tensor:
#      x y z
#    x 1.955710 0.000000 0.000000 
#    y 0.000000 1.927050 0.000000 
#    z 0.000000 0.000000 1.921350 
# 
# From -- ./inp_files/10034.got.cif
#   From: 2010.06.25/outbox.cif.g09.slc.cpg/sg43_6_cif.got.tgz:10034.got - 2010.06.26 16:48:59.
