data_PCOD8187467
_publ_section_title
;
Structure prediction by ZEFSAII (Michael W. Deem and Ramdas Pophale) SiO2 
 PCOD8187467
Probable space group: F D D 2
;
_chemical_formula_sum "Si O2"
_cell_formula_units_Z 72
_cell_length_a 25.999621
_cell_length_b 17.813430
_cell_length_c 7.338213
_cell_angle_alpha 90.000000
_cell_angle_beta 90.000000
_cell_angle_gamma 90.000000
_cell_volume 3398.637791
_symmetry_space_group_name_H-M "F D D 2"
_symmetry_group_IT_number 43
_symmetry_cell_setting 'orthorhombic'
loop_
_space_group_symop_operation_xyz
x,y,z
-x,-y,z
1/4-x,1/4+y,1/4+z
1/4+x,1/4-y,1/4+z
x,1/2+y,1/2+z
-x,1/2-y,1/2+z
1/4-x,3/4+y,3/4+z
1/4+x,3/4-y,3/4+z
1/2+x,y,1/2+z
1/2-x,-y,1/2+z
3/4-x,1/4+y,3/4+z
3/4+x,1/4-y,3/4+z
1/2+x,1/2+y,z
1/2-x,1/2-y,z
3/4-x,3/4+y,1/4+z
3/4+x,3/4-y,1/4+z
loop_
_atom_site_type_symbol
_atom_site_label
_atom_site_fract_x
_atom_site_fract_y
_atom_site_fract_z
Si Si1 0.313857 0.971894 0.711290
Si Si2 0.750782 0.410955 0.385409
Si Si3 0.181974 0.778473 0.896348
Si Si4 0.750000 0.250000 0.567816
Si Si5 0.225393 0.634726 0.011606
O O1 0.277701 0.965101 0.532061
O O2 0.371577 0.959447 0.644917
O O3 0.301950 0.904046 0.843576
O O4 0.303165 0.049686 0.821675
O O5 0.744809 0.324974 0.446934
O O6 0.783438 0.410529 0.198197
O O7 0.199534 0.749822 0.695733
O O8 0.197137 0.714286 0.040558
O O9 0.213790 0.853008 0.958056
#
# Coordination Sequence:
#
# PCOD8187467 Si02
#       5
#    16  16  16   8  16
#     4  12  25  42  72 104 137 180 234 297 342 417
#     4  12  24  45  69 100 141 179 230 293 348 413
#     4  10  23  45  71  97 143 186 229 283 362 417
#     4  10  22  48  72  96 142 194 230 284 356 438
#     4  10  23  46  66 100 140 179 230 290 344 427
#
# _framework density 21.18496
#
# number of rings (size 3 to 8) (size 9 to 14) (size 15 to 20)
#    0.000    1.333    6.667    1.333    3.111    1.778 
#    4.000    0.000    0.000    0.000    0.000    0.000 
#    0.000    0.000    0.000    0.000    0.000    0.000 
#
# Total GULP energy -223017.299356 kJ/mol
# GULP energy per Si atom -12389.849964 kJ/mol
# Density = 2.113674 g / cm^3
# Si number density = 21.184960 Si / 1000 Ang^3
#
#
#
# Elastic Constant Matrix: (Units=GPa)
#
#
# Indices 1 2 3 4 5 6 
#
# 1 136.8109 52.2824 50.8863 0.0002 0.0000 0.0000
# 2 52.2824 106.7320 47.2709 -0.0002 0.0000 0.0000
# 3 50.8863 47.2709 126.8448 -0.0003 0.0000 0.0002
# 4 0.0002 -0.0002 -0.0003 42.5505 0.0001 0.0001
# 5 0.0000 0.0000 0.0000 0.0001 13.2401 0.0000
# 6 0.0000 0.0000 0.0002 0.0001 0.0000 17.2098
#
#
#
# Elastic Compliance Matrix: (Units=1/GPa)
#
#
# Indices 1 2 3 4 5 6 
#
# 1 0.009621 -0.003597 -0.002519 0.000000 0.000000 0.000000
# 2 -0.003597 0.012566 -0.003240 0.000000 0.000000 0.000000
# 3 -0.002519 -0.003240 0.010102 0.000000 0.000000 0.000000
# 4 0.000000 0.000000 0.000000 0.023502 0.000000 0.000000
# 5 0.000000 0.000000 0.000000 0.000000 0.075528 0.000000
# 6 0.000000 0.000000 0.000000 0.000000 0.000000 0.058106
#
#
# Mechanical properties :
#
#
# Convention : Reuss Voigt Hill
#
# Bulk Modulus (GPa) = 73.65672 74.58522 74.12097
# Shear Modulus (GPa) = 23.51139 29.26328 26.38733
#
# Velocity S-wave (km/s) = 3.33500 3.72065 3.53309
# Velocity P-wave (km/s) = 7.04795 7.33081 7.19077
#
# Compressibility (1/GPa) = 0.01357649
#
# Stress axis : x y z
#
# Youngs Moduli (GPa) = 103.93960 79.57820 98.99344
#
# Poissons Ratio (x) = 0.28625 0.24938
# Poissons Ratio (y) = 0.37388 0.32074
# Poissons Ratio (z) = 0.26184 0.25783
#
# Static dielectric constant tensor:
#      x y z
#    x 3.507700 0.000000 0.000000 
#    y 0.000000 4.178640 0.000000 
#    z 0.000000 0.000000 4.036430 
# 
# 
# High freq. dielectric constant tensor:
#      x y z
#    x 1.794420 0.000000 0.000000 
#    y 0.000000 1.847140 0.000000 
#    z 0.000000 0.000000 1.842330 
# 
# From -- ./inp_files/3258.got.cif
#   From: 2010.06.25/outbox.cif.g09.slc.cpg/sg43_2_cif.got.tgz:3258.got - 2010.06.26 16:48:59.
