data_PCOD8187815
_publ_section_title
;
Structure prediction by ZEFSAII (Michael W. Deem and Ramdas Pophale) SiO2 
 PCOD8187815
Probable space group: F D D 2
;
_chemical_formula_sum "Si O2"
_cell_formula_units_Z 112
_cell_length_a 26.131064
_cell_length_b 14.120003
_cell_length_c 12.882563
_cell_angle_alpha 90.000000
_cell_angle_beta 90.000000
_cell_angle_gamma 90.000000
_cell_volume 4753.288315
_symmetry_space_group_name_H-M "F D D 2"
_symmetry_group_IT_number 43
_symmetry_cell_setting 'orthorhombic'
loop_
_space_group_symop_operation_xyz
x,y,z
-x,-y,z
1/4-x,1/4+y,1/4+z
1/4+x,1/4-y,1/4+z
x,1/2+y,1/2+z
-x,1/2-y,1/2+z
1/4-x,3/4+y,3/4+z
1/4+x,3/4-y,3/4+z
1/2+x,y,1/2+z
1/2-x,-y,1/2+z
3/4-x,1/4+y,3/4+z
3/4+x,1/4-y,3/4+z
1/2+x,1/2+y,z
1/2-x,1/2-y,z
3/4-x,3/4+y,1/4+z
3/4+x,3/4-y,1/4+z
loop_
_atom_site_type_symbol
_atom_site_label
_atom_site_fract_x
_atom_site_fract_y
_atom_site_fract_z
Si Si1 0.558725 0.022165 0.110860
Si Si2 0.778756 0.349030 0.058264
Si Si3 0.965156 0.641727 0.578152
Si Si4 0.577990 0.668983 0.064510
Si Si5 0.876123 0.019308 0.023953
Si Si6 0.146336 0.112983 0.728481
Si Si7 0.696638 0.928131 0.697641
O O1 0.587016 0.083575 0.202166
O O2 0.555340 0.077023 0.002618
O O3 0.500000 0.000000 0.147444
O O4 0.593570 0.929531 0.079847
O O5 0.750000 0.250000 0.040690
O O6 0.829791 0.336283 0.127488
O O7 0.742502 0.425603 0.114387
O O8 0.798092 0.390965 0.949874
O O9 0.931580 0.567657 0.512849
O O10 0.955116 0.746743 0.538039
O O11 0.024211 0.614455 0.562385
O O12 0.619276 0.594794 0.019102
O O13 0.589695 0.695436 0.183206
O O14 0.575032 0.763650 0.997404
O O15 0.855130 0.049618 0.136190
#
# Coordination Sequence:
#
# PCOD8187815 Si02
#       7
#    16  16  16  16  16  16  16
#     4  12  26  49  74 111 155 191 260 318 372 460
#     4  12  23  46  78 111 147 192 257 311 375 452
#     4  12  26  44  75 105 147 194 238 313 381 431
#     4  12  25  47  71 101 151 195 248 302 379 452
#     4  12  26  45  70 109 144 194 250 309 367 452
#     4  12  26  47  74 108 149 204 247 314 378 451
#     4  12  24  46  74 108 146 189 249 309 377 447
#
# _framework density 23.562633999999999
#
# number of rings (size 3 to 8) (size 9 to 14) (size 15 to 20)
#    0.000    0.000    7.143    3.000    4.000    0.000 
#    0.000    2.857    0.000    0.000    0.000    0.000 
#    0.000    0.000    0.000    0.000    0.000    0.000 
#
# Total GULP energy -347183.880274 kJ/mol
# GULP energy per Si atom -12399.424295 kJ/mol
# Density = 2.350900 g / cm^3
# Si number density = 23.562634 Si / 1000 Ang^3
#
#
#
# Elastic Constant Matrix: (Units=GPa)
#
#
# Indices 1 2 3 4 5 6 
#
# 1 126.1361 29.6057 37.9947 0.0000 0.0000 0.0000
# 2 29.6057 108.9684 28.4390 0.0000 0.0000 0.0000
# 3 37.9947 28.4390 79.9173 0.0000 0.0000 0.0000
# 4 0.0000 0.0000 0.0000 32.7326 0.0000 0.0000
# 5 0.0000 0.0000 0.0000 0.0000 37.0883 0.0000
# 6 0.0000 0.0000 0.0000 0.0000 0.0000 34.5411
#
#
#
# Elastic Compliance Matrix: (Units=1/GPa)
#
#
# Indices 1 2 3 4 5 6 
#
# 1 0.009483 -0.001543 -0.003959 0.000000 0.000000 0.000000
# 2 -0.001543 0.010368 -0.002956 0.000000 0.000000 0.000000
# 3 -0.003959 -0.002956 0.015447 0.000000 0.000000 0.000000
# 4 0.000000 0.000000 0.000000 0.030551 0.000000 0.000000
# 5 0.000000 0.000000 0.000000 0.000000 0.026963 0.000000
# 6 0.000000 0.000000 0.000000 0.000000 0.000000 0.028951
#
#
# Mechanical properties :
#
#
# Convention : Reuss Voigt Hill
#
# Bulk Modulus (GPa) = 54.40309 56.34453 55.37381
# Shear Modulus (GPa) = 34.52925 35.47125 35.00025
#
# Velocity S-wave (km/s) = 3.83224 3.88416 3.85829
# Velocity P-wave (km/s) = 6.53607 6.63929 6.58788
#
# Compressibility (1/GPa) = 0.01838131
#
# Stress axis : x y z
#
# Youngs Moduli (GPa) = 105.45508 96.45422 64.73725
#
# Poissons Ratio (x) = 0.14884 0.25631
# Poissons Ratio (y) = 0.16272 0.19135
# Poissons Ratio (z) = 0.41752 0.28510
#
# Static dielectric constant tensor:
#      x y z
#    x 4.330810 0.000000 0.000000 
#    y 0.000000 4.224370 0.000000 
#    z 0.000000 0.000000 4.058240 
# 
# 
# High freq. dielectric constant tensor:
#      x y z
#    x 1.935190 0.000000 0.000000 
#    y 0.000000 1.939000 0.000000 
#    z 0.000000 0.000000 1.924960 
# 
# From -- ./inp_files/11255.got.cif
#   From: 2010.06.25/outbox.cif.g09.slc.cpg/sg43_6_cif.got.tgz:11255.got - 2010.06.26 16:48:59.
