data_PCOD8187734
_publ_section_title
;
Structure prediction by ZEFSAII (Michael W. Deem and Ramdas Pophale) SiO2 
 PCOD8187734
Probable space group: F D D 2
;
_chemical_formula_sum "Si O2"
_cell_formula_units_Z 120
_cell_length_a 25.797975
_cell_length_b 11.683663
_cell_length_c 17.298238
_cell_angle_alpha 90.000000
_cell_angle_beta 90.000000
_cell_angle_gamma 90.000000
_cell_volume 5213.945743
_symmetry_space_group_name_H-M "F D D 2"
_symmetry_group_IT_number 43
_symmetry_cell_setting 'orthorhombic'
loop_
_space_group_symop_operation_xyz
x,y,z
-x,-y,z
1/4-x,1/4+y,1/4+z
1/4+x,1/4-y,1/4+z
x,1/2+y,1/2+z
-x,1/2-y,1/2+z
1/4-x,3/4+y,3/4+z
1/4+x,3/4-y,3/4+z
1/2+x,y,1/2+z
1/2-x,-y,1/2+z
3/4-x,1/4+y,3/4+z
3/4+x,1/4-y,3/4+z
1/2+x,1/2+y,z
1/2-x,1/2-y,z
3/4-x,3/4+y,1/4+z
3/4+x,3/4-y,1/4+z
loop_
_atom_site_type_symbol
_atom_site_label
_atom_site_fract_x
_atom_site_fract_y
_atom_site_fract_z
Si Si1 0.359135 0.413890 0.358030
Si Si2 0.456210 0.916643 0.766641
Si Si3 0.208251 0.874314 0.359788
Si Si4 0.987062 0.282096 0.337541
Si Si5 0.051106 0.559467 0.588381
Si Si6 0.250000 0.250000 0.005117
Si Si7 0.797572 0.958155 0.754694
Si Si8 0.377179 0.008996 0.016216
O O1 0.400585 0.461480 0.296202
O O2 0.307777 0.492272 0.359581
O O3 0.346933 0.283520 0.334644
O O4 0.381186 0.421270 0.444554
O O5 0.468401 0.795352 0.802174
O O6 0.459502 0.904924 0.675674
O O7 0.500000 0.000000 0.799549
O O8 0.213776 0.822761 0.446223
O O9 0.161918 0.796573 0.331139
O O10 0.260546 0.876157 0.308212
O O11 0.015091 0.403531 0.318621
O O12 0.981857 0.248891 0.427532
O O13 0.930830 0.272927 0.297681
O O14 0.066895 0.675040 0.544835
O O15 0.000000 0.500000 0.552157
O O16 0.849024 0.882363 0.740035
#
# Coordination Sequence:
#
# PCOD8187734 Si02
#       8
#    16  16  16  16  16   8  16  16
#     4  12  24  44  74 106 141 187 248 300 369 441
#     4  11  24  45  72 104 143 184 240 300 360 430
#     4  12  23  45  74 103 140 194 246 305 369 447
#     4  12  28  45  71 106 149 187 241 306 372 442
#     4  11  24  45  72 100 145 191 235 300 371 443
#     4  12  26  46  74 102 150 196 238 304 388 438
#     4  12  26  44  73 106 147 192 244 304 372 445
#     4  12  24  43  73 106 141 189 251 300 363 450
#
# _framework density 23.0152
#
# number of rings (size 3 to 8) (size 9 to 14) (size 15 to 20)
#    0.000    0.267    4.000    6.400    0.933    2.133 
#    0.000    0.000    0.000    0.000    0.000    0.000 
#    0.000    0.000    0.000    0.000    0.000    0.000 
#
# Total GULP energy -371696.533466 kJ/mol
# GULP energy per Si atom -12389.884449 kJ/mol
# Density = 2.296282 g / cm^3
# Si number density = 23.015200 Si / 1000 Ang^3
#
#
#
# Elastic Constant Matrix: (Units=GPa)
#
#
# Indices 1 2 3 4 5 6 
#
# 1 77.1507 21.5246 16.6566 0.0000 0.0000 0.0000
# 2 21.5246 109.0629 19.1611 0.0000 0.0000 0.0000
# 3 16.6566 19.1611 74.4001 0.0000 0.0000 0.0000
# 4 0.0000 0.0000 0.0000 37.2480 0.0000 0.0000
# 5 0.0000 0.0000 0.0000 0.0000 21.6258 0.0000
# 6 0.0000 0.0000 0.0000 0.0000 0.0000 38.7473
#
#
#
# Elastic Compliance Matrix: (Units=1/GPa)
#
#
# Indices 1 2 3 4 5 6 
#
# 1 0.014171 -0.002345 -0.002568 0.000000 0.000000 0.000000
# 2 -0.002345 0.009992 -0.002048 0.000000 0.000000 0.000000
# 3 -0.002568 -0.002048 0.014543 0.000000 0.000000 0.000000
# 4 0.000000 0.000000 0.000000 0.026847 0.000000 0.000000
# 5 0.000000 0.000000 0.000000 0.000000 0.046241 0.000000
# 6 0.000000 0.000000 0.000000 0.000000 0.000000 0.025808
#
#
# Mechanical properties :
#
#
# Convention : Reuss Voigt Hill
#
# Bulk Modulus (GPa) = 40.35270 41.69982 41.02626
# Shear Modulus (GPa) = 31.29169 33.07562 32.18366
#
# Velocity S-wave (km/s) = 3.69129 3.79505 3.74353
# Velocity P-wave (km/s) = 5.97818 6.11236 6.04564
#
# Compressibility (1/GPa) = 0.02478149
#
# Stress axis : x y z
#
# Youngs Moduli (GPa) = 70.56902 100.08242 68.75992
#
# Poissons Ratio (x) = 0.23474 0.17661
# Poissons Ratio (y) = 0.16552 0.14083
# Poissons Ratio (z) = 0.18125 0.20499
#
# Static dielectric constant tensor:
#      x y z
#    x 4.079400 0.000000 0.000000 
#    y 0.000000 4.460590 0.000000 
#    z 0.000000 0.000000 4.247940 
# 
# 
# High freq. dielectric constant tensor:
#      x y z
#    x 1.899120 0.000000 0.000000 
#    y 0.000000 1.930870 0.000000 
#    z 0.000000 0.000000 1.912880 
# 
# From -- ./inp_files/15088.got.cif
#   From: 2010.06.25/outbox.cif.g09.slc.cpg/sg43_8_cif.got.tgz:15088.got - 2010.06.26 16:48:59.
