data_PCOD8187945
_publ_section_title
;
Structure prediction by ZEFSAII (Michael W. Deem and Ramdas Pophale) SiO2 
 PCOD8187945
Probable space group: I M M 2
;
_chemical_formula_sum "Si O2"
_cell_formula_units_Z 64
_cell_length_a 23.254950
_cell_length_b 8.964851
_cell_length_c 18.990226
_cell_angle_alpha 90.000000
_cell_angle_beta 90.000000
_cell_angle_gamma 90.000000
_cell_volume 3959.028418
_symmetry_space_group_name_H-M "I M M 2"
_symmetry_group_IT_number 44
_symmetry_cell_setting 'orthorhombic'
loop_
_space_group_symop_operation_xyz
x,y,z
-x,-y,z
-x,y,z
x,-y,z
1/2+x,1/2+y,1/2+z
1/2-x,1/2-y,1/2+z
1/2-x,1/2+y,1/2+z
1/2+x,1/2-y,1/2+z
loop_
_atom_site_type_symbol
_atom_site_label
_atom_site_fract_x
_atom_site_fract_y
_atom_site_fract_z
Si Si1 0.263054 0.328243 0.670350
Si Si2 0.722627 0.174830 0.376187
Si Si3 0.248857 0.326953 0.513600
Si Si4 0.162657 0.823381 0.750602
Si Si5 0.435632 0.823321 0.876525
Si Si6 0.381965 0.176903 0.020157
Si Si7 0.933239 0.324969 0.666571
Si Si8 0.338678 0.328863 0.797348
O O1 0.243396 0.500000 0.682073
O O2 0.279008 0.299266 0.589088
O O3 0.209851 0.226678 0.693400
O O4 0.319280 0.293852 0.717231
O O5 0.716212 0.233391 0.455779
O O6 0.676192 0.256600 0.327383
O O7 0.786529 0.214695 0.349202
O O8 0.710381 0.000000 0.372941
O O9 0.250281 0.500000 0.491900
O O10 0.183648 0.267672 0.519015
O O11 0.100591 0.763439 0.727014
O O12 0.161797 0.000000 0.755765
O O13 0.500000 0.764675 0.862143
O O14 0.394390 0.768756 0.814065
O O15 0.433939 0.000000 0.877849
O O16 0.414310 0.758394 0.951546
O O17 0.413478 0.236000 0.090100
O O18 0.384658 0.000000 0.019476
O O19 0.919809 0.500000 0.673482
O O20 0.000000 0.289984 0.676755
O O21 0.355837 0.500000 0.807033
#
# Coordination Sequence:
#
# PCOD8187945 Si02
#       8
#     8   8   8   8   8   8   8   8
#     4   9  18  33  50  69  96 127 159 198 244 294
#     4  10  20  33  49  69  97 126 160 200 245 295
#     4  10  17  29  51  73  96 127 160 195 241 292
#     4  11  21  32  48  70  97 128 165 206 247 286
#     4  10  19  30  45  66  93 126 164 200 229 267
#     4   9  16  28  46  68  96 129 165 196 227 277
#     4  10  19  33  52  70  94 134 175 204 240 290
#     4   9  18  31  46  65  91 124 158 195 235 277
#
# _framework density 16.165583000000002
#
# number of rings (size 3 to 8) (size 9 to 14) (size 15 to 20)
#    0.000    2.250    2.500    2.625    0.000    4.500 
#    0.000    0.625    0.000    1.500    0.000    0.875 
#    0.000    5.000    0.000    0.000    0.000    0.000 
#
# Total GULP energy -396826.064238 kJ/mol
# GULP energy per Si atom -12400.814507 kJ/mol
# Density = 1.612879 g / cm^3
# Si number density = 16.165583 Si / 1000 Ang^3
#
#
#
# Elastic Constant Matrix: (Units=GPa)
#
#
# Indices 1 2 3 4 5 6 
#
# 1 91.2411 37.4766 62.6903 0.0000 0.0000 0.0000
# 2 37.4766 64.2591 47.0711 0.0000 0.0000 0.0000
# 3 62.6903 47.0711 128.0096 0.0000 0.0000 0.0000
# 4 0.0000 0.0000 0.0000 25.8063 0.0000 0.0000
# 5 0.0000 0.0000 0.0000 0.0000 25.6739 0.0000
# 6 0.0000 0.0000 0.0000 0.0000 0.0000 22.6588
#
#
#
# Elastic Compliance Matrix: (Units=1/GPa)
#
#
# Indices 1 2 3 4 5 6 
#
# 1 0.017823 -0.005476 -0.006715 0.000000 0.000000 0.000000
# 2 -0.005476 0.022981 -0.005769 0.000000 0.000000 0.000000
# 3 -0.006715 -0.005769 0.013222 0.000000 0.000000 0.000000
# 4 0.000000 0.000000 0.000000 0.038750 0.000000 0.000000
# 5 0.000000 0.000000 0.000000 0.000000 0.038950 0.000000
# 6 0.000000 0.000000 0.000000 0.000000 0.000000 0.044133
#
#
# Mechanical properties :
#
#
# Convention : Reuss Voigt Hill
#
# Bulk Modulus (GPa) = 55.22780 64.22065 59.72423
# Shear Modulus (GPa) = 22.95539 23.91258 23.43398
#
# Velocity S-wave (km/s) = 3.77240 3.85025 3.81152
# Velocity P-wave (km/s) = 7.29470 7.71874 7.50971
#
# Compressibility (1/GPa) = 0.01810682
#
# Stress axis : x y z
#
# Youngs Moduli (GPa) = 56.10812 43.51348 75.63280
#
# Poissons Ratio (x) = 0.23826 0.50787
# Poissons Ratio (y) = 0.30723 0.43633
# Poissons Ratio (z) = 0.37676 0.25103
#
# Static dielectric constant tensor:
#      x y z
#    x 2.901650 0.000000 0.000000 
#    y 0.000000 2.875300 0.000000 
#    z 0.000000 0.000000 3.166320 
# 
# 
# High freq. dielectric constant tensor:
#      x y z
#    x 1.593950 0.000000 0.000000 
#    y 0.000000 1.609100 0.000000 
#    z 0.000000 0.000000 1.620490 
# 
# From -- ./inp_files/20859.got.cif
#   From: 2010.03.12/outbox.cif.g09.slc.cpg/sg44_11_cif.got.tgz:20859.got - 2010.04.14 02:36:11.
