data_PCOD8187522
_publ_section_title
;
Structure prediction by ZEFSAII (Michael W. Deem and Ramdas Pophale) SiO2 
 PCOD8187522
Probable space group: F D D 2
;
_chemical_formula_sum "Si O2"
_cell_formula_units_Z 96
_cell_length_a 18.046791
_cell_length_b 23.087078
_cell_length_c 9.989218
_cell_angle_alpha 90.000000
_cell_angle_beta 90.000000
_cell_angle_gamma 90.000000
_cell_volume 4161.984419
_symmetry_space_group_name_H-M "F D D 2"
_symmetry_group_IT_number 43
_symmetry_cell_setting 'orthorhombic'
loop_
_space_group_symop_operation_xyz
x,y,z
-x,-y,z
1/4-x,1/4+y,1/4+z
1/4+x,1/4-y,1/4+z
x,1/2+y,1/2+z
-x,1/2-y,1/2+z
1/4-x,3/4+y,3/4+z
1/4+x,3/4-y,3/4+z
1/2+x,y,1/2+z
1/2-x,-y,1/2+z
3/4-x,1/4+y,3/4+z
3/4+x,1/4-y,3/4+z
1/2+x,1/2+y,z
1/2-x,1/2-y,z
3/4-x,3/4+y,1/4+z
3/4+x,3/4-y,1/4+z
loop_
_atom_site_type_symbol
_atom_site_label
_atom_site_fract_x
_atom_site_fract_y
_atom_site_fract_z
Si Si1 0.857479 0.504222 0.254580
Si Si2 0.200079 0.880314 0.837065
Si Si3 0.135401 0.739992 0.196779
Si Si4 0.983904 0.908636 0.370136
Si Si5 0.710689 0.156412 0.595554
Si Si6 0.503612 0.669615 0.604615
O O1 0.794590 0.553960 0.279076
O O2 0.934689 0.527107 0.318721
O O3 0.828823 0.445309 0.324706
O O4 0.874535 0.492365 0.100249
O O5 0.236305 0.840108 0.723577
O O6 0.113137 0.866384 0.866417
O O7 0.245635 0.869092 0.973404
O O8 0.190393 0.685652 0.178353
O O9 0.168141 0.794218 0.115071
O O10 0.055411 0.723326 0.141791
O O11 0.962060 0.857128 0.469821
O O12 0.753514 0.129689 0.468391
#
# Coordination Sequence:
#
# PCOD8187522 Si02
#       6
#    16  16  16  16  16  16
#     4  10  25  42  74 106 142 194 245 301 368 453
#     4  10  24  45  70 106 151 184 246 312 369 441
#     4  11  26  47  68 110 146 191 255 294 383 448
#     4  11  27  45  73 105 145 192 239 313 363 454
#     4  10  23  47  70 105 144 192 244 303 372 442
#     4  12  25  44  80  98 143 200 238 302 372 444
#
# _framework density 23.065919000000001
#
# number of rings (size 3 to 8) (size 9 to 14) (size 15 to 20)
#    1.000    0.333    3.333    0.000    9.333    0.000 
#    6.000    0.000    0.000    0.000    0.000    0.000 
#    0.000    0.000    0.000    0.000    0.000    0.000 
#
# Total GULP energy -297487.732587 kJ/mol
# GULP energy per Si atom -12395.322191 kJ/mol
# Density = 2.301342 g / cm^3
# Si number density = 23.065919 Si / 1000 Ang^3
#
#
#
# Elastic Constant Matrix: (Units=GPa)
#
#
# Indices 1 2 3 4 5 6 
#
# 1 84.8387 4.5122 23.0139 0.0000 0.0000 0.0000
# 2 4.5122 32.8376 6.3815 0.0000 0.0000 0.0000
# 3 23.0139 6.3815 144.5345 0.0000 0.0000 0.0000
# 4 0.0000 0.0000 0.0000 20.8936 0.0000 0.0000
# 5 0.0000 0.0000 0.0000 0.0000 29.2137 0.0000
# 6 0.0000 0.0000 0.0000 0.0000 0.0000 28.3876
#
#
#
# Elastic Compliance Matrix: (Units=1/GPa)
#
#
# Indices 1 2 3 4 5 6 
#
# 1 0.012376 -0.001329 -0.001912 0.000000 0.000000 0.000000
# 2 -0.001329 0.030859 -0.001151 0.000000 0.000000 0.000000
# 3 -0.001912 -0.001151 0.007274 0.000000 0.000000 0.000000
# 4 0.000000 0.000000 0.000000 0.047861 0.000000 0.000000
# 5 0.000000 0.000000 0.000000 0.000000 0.034230 0.000000
# 6 0.000000 0.000000 0.000000 0.000000 0.000000 0.035227
#
#
# Mechanical properties :
#
#
# Convention : Reuss Voigt Hill
#
# Bulk Modulus (GPa) = 23.96603 36.66958 30.31781
# Shear Modulus (GPa) = 26.24387 30.91920 28.58153
#
# Velocity S-wave (km/s) = 3.37675 3.66522 3.52394
# Velocity P-wave (km/s) = 5.06123 5.81756 5.45253
#
# Compressibility (1/GPa) = 0.04172572
#
# Stress axis : x y z
#
# Youngs Moduli (GPa) = 80.79881 32.40529 137.47560
#
# Poissons Ratio (x) = 0.04307 0.26285
# Poissons Ratio (y) = 0.10739 0.15822
# Poissons Ratio (z) = 0.15449 0.03729
#
# Static dielectric constant tensor:
#      x y z
#    x 3.999190 0.000000 0.000000 
#    y 0.000000 3.841020 0.000000 
#    z 0.000000 0.000000 4.001650 
# 
# 
# High freq. dielectric constant tensor:
#      x y z
#    x 1.909800 0.000000 0.000000 
#    y 0.000000 1.899340 0.000000 
#    z 0.000000 0.000000 1.909970 
# 
# From -- ./inp_files/3785.got.cif
#   From: 2010.06.25/outbox.cif.g09.slc.cpg/sg43_2_cif.got.tgz:3785.got - 2010.06.26 16:48:59.
