data_PCOD8187053
_publ_section_title
;
Structure prediction by ZEFSAII (Michael W. Deem and Ramdas Pophale) SiO2 
 PCOD8187053
Probable space group: F D D 2
;
_chemical_formula_sum "Si O2"
_cell_formula_units_Z 96
_cell_length_a 19.944015
_cell_length_b 16.819078
_cell_length_c 12.993569
_cell_angle_alpha 90.000000
_cell_angle_beta 90.000000
_cell_angle_gamma 90.000000
_cell_volume 4358.562057
_symmetry_space_group_name_H-M "F D D 2"
_symmetry_group_IT_number 43
_symmetry_cell_setting 'orthorhombic'
loop_
_space_group_symop_operation_xyz
x,y,z
-x,-y,z
1/4-x,1/4+y,1/4+z
1/4+x,1/4-y,1/4+z
x,1/2+y,1/2+z
-x,1/2-y,1/2+z
1/4-x,3/4+y,3/4+z
1/4+x,3/4-y,3/4+z
1/2+x,y,1/2+z
1/2-x,-y,1/2+z
3/4-x,1/4+y,3/4+z
3/4+x,1/4-y,3/4+z
1/2+x,1/2+y,z
1/2-x,1/2-y,z
3/4-x,3/4+y,1/4+z
3/4+x,3/4-y,1/4+z
loop_
_atom_site_type_symbol
_atom_site_label
_atom_site_fract_x
_atom_site_fract_y
_atom_site_fract_z
Si Si1 0.295542 0.461154 0.174160
Si Si2 0.430442 0.467802 0.646556
Si Si3 0.072192 0.114437 0.436768
Si Si4 0.960981 0.178295 0.155586
Si Si5 0.176953 0.425886 0.037148
Si Si6 0.807191 0.690745 0.469179
O O1 0.279819 0.555507 0.167914
O O2 0.278727 0.425979 0.284530
O O3 0.248413 0.414361 0.094257
O O4 0.374804 0.448823 0.153169
O O5 0.500000 0.500000 0.693387
O O6 0.452943 0.424021 0.541972
O O7 0.401801 0.406606 0.734085
O O8 0.376655 0.537325 0.619013
O O9 0.152302 0.133080 0.444162
O O10 0.066850 0.050694 0.342648
O O11 0.939606 0.265420 0.192136
O O12 0.030875 0.149531 0.203608
O O13 0.750000 0.750000 0.426924
#
# Coordination Sequence:
#
# PCOD8187053 Si02
#       6
#    16  16  16  16  16  16
#     4  11  22  38  62  92 132 169 226 280 342 405
#     4  11  26  44  70 101 136 180 231 285 350 417
#     4  10  20  35  64  97 126 170 224 286 333 403
#     4  10  21  37  59  95 131 173 226 278 340 407
#     4  11  25  43  68 100 139 182 229 287 347 420
#     4  11  21  36  62  94 133 177 227 288 342 407
#
# _framework density 22.025614000000001
#
# number of rings (size 3 to 8) (size 9 to 14) (size 15 to 20)
#    0.000    1.333    5.000    0.500    2.333    1.333 
#    0.000    0.833    0.000    0.000    0.000    0.000 
#    0.000    0.000    0.000    0.000    0.000    0.000 
#
# Total GULP energy -297473.122697 kJ/mol
# GULP energy per Si atom -12394.713446 kJ/mol
# Density = 2.197548 g / cm^3
# Si number density = 22.025614 Si / 1000 Ang^3
#
#
#
# Elastic Constant Matrix: (Units=GPa)
#
#
# Indices 1 2 3 4 5 6 
#
# 1 125.4424 39.4443 37.3702 0.0000 0.0000 0.0000
# 2 39.4443 74.6209 25.7032 0.0000 0.0000 0.0000
# 3 37.3702 25.7032 76.2563 0.0000 0.0000 0.0000
# 4 0.0000 0.0000 0.0000 30.8187 0.0000 0.0000
# 5 0.0000 0.0000 0.0000 0.0000 35.8433 0.0000
# 6 0.0000 0.0000 0.0000 0.0000 0.0000 32.4470
#
#
#
# Elastic Compliance Matrix: (Units=1/GPa)
#
#
# Indices 1 2 3 4 5 6 
#
# 1 0.010395 -0.004231 -0.003668 0.000000 0.000000 0.000000
# 2 -0.004231 0.016884 -0.003617 0.000000 0.000000 0.000000
# 3 -0.003668 -0.003617 0.016130 0.000000 0.000000 0.000000
# 4 0.000000 0.000000 0.000000 0.032448 0.000000 0.000000
# 5 0.000000 0.000000 0.000000 0.000000 0.027899 0.000000
# 6 0.000000 0.000000 0.000000 0.000000 0.000000 0.030819
#
#
# Mechanical properties :
#
#
# Convention : Reuss Voigt Hill
#
# Bulk Modulus (GPa) = 49.07723 53.48389 51.28056
# Shear Modulus (GPa) = 30.41348 31.40860 30.91104
#
# Velocity S-wave (km/s) = 3.71997 3.78034 3.75028
# Velocity P-wave (km/s) = 6.38602 6.58711 6.48734
#
# Compressibility (1/GPa) = 0.02037605
#
# Stress axis : x y z
#
# Youngs Moduli (GPa) = 96.20004 59.22870 61.99458
#
# Poissons Ratio (x) = 0.25062 0.22739
# Poissons Ratio (y) = 0.40705 0.22425
# Poissons Ratio (z) = 0.35286 0.21425
#
# Static dielectric constant tensor:
#      x y z
#    x 4.003930 0.000000 0.000000 
#    y 0.000000 3.775380 0.000000 
#    z 0.000000 0.000000 3.660750 
# 
# 
# High freq. dielectric constant tensor:
#      x y z
#    x 1.868300 0.000000 0.000000 
#    y 0.000000 1.848010 0.000000 
#    z 0.000000 0.000000 1.850810 
# 
# From -- ./inp_files/6685.got.cif
#   From: 2010.06.25/outbox.cif.g09.slc.cpg/sg43_4_cif.got.tgz:6685.got - 2010.06.26 16:48:59.
