data_PCOD8187482
_publ_section_title
;
Structure prediction by ZEFSAII (Michael W. Deem and Ramdas Pophale) SiO2 
 PCOD8187482
Probable space group: F D D 2
;
_chemical_formula_sum "Si O2"
_cell_formula_units_Z 104
_cell_length_a 21.583002
_cell_length_b 12.505466
_cell_length_c 16.860331
_cell_angle_alpha 90.000000
_cell_angle_beta 90.000000
_cell_angle_gamma 90.000000
_cell_volume 4550.696030
_symmetry_space_group_name_H-M "F D D 2"
_symmetry_group_IT_number 43
_symmetry_cell_setting 'orthorhombic'
loop_
_space_group_symop_operation_xyz
x,y,z
-x,-y,z
1/4-x,1/4+y,1/4+z
1/4+x,1/4-y,1/4+z
x,1/2+y,1/2+z
-x,1/2-y,1/2+z
1/4-x,3/4+y,3/4+z
1/4+x,3/4-y,3/4+z
1/2+x,y,1/2+z
1/2-x,-y,1/2+z
3/4-x,1/4+y,3/4+z
3/4+x,1/4-y,3/4+z
1/2+x,1/2+y,z
1/2-x,1/2-y,z
3/4-x,3/4+y,1/4+z
3/4+x,3/4-y,1/4+z
loop_
_atom_site_type_symbol
_atom_site_label
_atom_site_fract_x
_atom_site_fract_y
_atom_site_fract_z
Si Si1 0.750000 0.250000 0.633471
Si Si2 0.500000 0.500000 0.438451
Si Si3 0.319828 0.073861 0.055563
Si Si4 0.217898 0.966404 0.947129
Si Si5 0.392830 0.130550 0.907666
Si Si6 0.750000 0.750000 0.382871
Si Si7 0.784546 0.061868 0.306892
Si Si8 0.583702 0.408174 0.005943
O O1 0.698737 0.308594 0.581911
O O2 0.715444 0.161729 0.685322
O O3 0.442176 0.536643 0.383318
O O4 0.487767 0.390564 0.487712
O O5 0.333252 0.999084 0.133040
O O6 0.379422 0.099666 0.000076
O O7 0.261825 0.024280 0.009326
O O8 0.240807 0.846265 0.942426
O O9 0.225635 0.018969 0.858565
O O10 0.147914 0.961919 0.978696
O O11 0.327767 0.129522 0.863926
O O12 0.688868 0.731004 0.329434
O O13 0.830568 0.967319 0.277132
#
# Coordination Sequence:
#
# PCOD8187482 Si02
#       8
#     8   8  16  16  16   8  16  16
#     4  11  26  45  66 101 135 176 236 276 351 426
#     4  12  24  42  74  94 148 184 232 298 348 426
#     4  11  26  46  69 107 136 183 235 289 355 425
#     4  10  24  40  71  96 136 180 229 283 355 415
#     4  11  25  45  71 102 142 181 235 295 352 425
#     4   9  22  43  62 103 133 176 230 278 347 416
#     4  10  24  44  64 107 129 186 235 283 358 416
#     4  10  23  42  68  94 140 175 228 286 343 414
#
# _framework density 22.853646999999999
#
# number of rings (size 3 to 8) (size 9 to 14) (size 15 to 20)
#    0.000    1.538    1.538    0.923    8.615    4.923 
#    0.000    0.000    0.000    0.000    0.000    0.000 
#    0.000    0.000    0.000    0.000    0.000    0.000 
#
# Total GULP energy -322113.510734 kJ/mol
# GULP energy per Si atom -12388.981182 kJ/mol
# Density = 2.280163 g / cm^3
# Si number density = 22.853647 Si / 1000 Ang^3
#
#
#
# Elastic Constant Matrix: (Units=GPa)
#
#
# Indices 1 2 3 4 5 6 
#
# 1 103.3379 13.5689 20.1028 0.0000 0.0000 0.0000
# 2 13.5689 98.3798 24.4275 0.0000 0.0000 0.0000
# 3 20.1028 24.4275 56.7349 0.0000 0.0000 0.0000
# 4 0.0000 0.0000 0.0000 21.5555 0.0000 0.0000
# 5 0.0000 0.0000 0.0000 0.0000 -286.0511 0.0000
# 6 0.0000 0.0000 0.0000 0.0000 0.0000 30.1155
#
#
#
# Elastic Compliance Matrix: (Units=1/GPa)
#
#
# Indices 1 2 3 4 5 6 
#
# 1 0.010423 -0.000583 -0.003442 0.000000 0.000000 0.000000
# 2 -0.000583 0.011414 -0.004708 0.000000 0.000000 0.000000
# 3 -0.003442 -0.004708 0.020873 0.000000 0.000000 0.000000
# 4 0.000000 0.000000 0.000000 0.046392 0.000000 0.000000
# 5 0.000000 0.000000 0.000000 0.000000 -0.003496 0.000000
# 6 0.000000 0.000000 0.000000 0.000000 0.000000 0.033205
#
#
# Mechanical properties :
#
#
# Convention : Reuss Voigt Hill
#
# Bulk Modulus (GPa) = 39.61381 41.62790 40.62085
# Shear Modulus (GPa) = 34.55622 -33.51914 0.51854
#
# Velocity S-wave (km/s) = 3.89275 -3.83389 0.47685
# Velocity P-wave (km/s) = 6.12992 1.15920 4.25630
#
# Compressibility (1/GPa) = 0.02524372
#
# Stress axis : x y z
#
# Youngs Moduli (GPa) = 95.94008 87.61145 47.90990
#
# Poissons Ratio (x) = 0.05107 0.16492
# Poissons Ratio (y) = 0.05592 0.22555
# Poissons Ratio (z) = 0.33025 0.41246
#
# Static dielectric constant tensor:
#      x y z
#    x 4.596730 0.000000 0.000000 
#    y 0.000000 4.032730 0.000000 
#    z 0.000000 0.000000 4.174750 
# 
# 
# High freq. dielectric constant tensor:
#      x y z
#    x 1.909790 0.000000 0.000000 
#    y 0.000000 1.905440 0.000000 
#    z 0.000000 0.000000 1.895660 
# 
# From -- ./inp_files/13912.got.cif
#   From: 2010.06.25/outbox.cif.g09.slc.cpg/sg43_7_cif.got.tgz:13912.got - 2010.06.26 16:48:59.
