data_PCOD8187890
_publ_section_title
;
Structure prediction by ZEFSAII (Michael W. Deem and Ramdas Pophale) SiO2 
 PCOD8187890
Probable space group: I M M 2
;
_chemical_formula_sum "Si O2"
_cell_formula_units_Z 56
_cell_length_a 8.766697
_cell_length_b 22.304198
_cell_length_c 17.892072
_cell_angle_alpha 90.000000
_cell_angle_beta 90.000000
_cell_angle_gamma 90.000000
_cell_volume 3498.511013
_symmetry_space_group_name_H-M "I M M 2"
_symmetry_group_IT_number 44
_symmetry_cell_setting 'orthorhombic'
loop_
_space_group_symop_operation_xyz
x,y,z
-x,-y,z
-x,y,z
x,-y,z
1/2+x,1/2+y,1/2+z
1/2-x,1/2-y,1/2+z
1/2-x,1/2+y,1/2+z
1/2+x,1/2-y,1/2+z
loop_
_atom_site_type_symbol
_atom_site_label
_atom_site_fract_x
_atom_site_fract_y
_atom_site_fract_z
Si Si1 0.832033 0.178580 0.149250
Si Si2 0.175595 0.429345 0.369671
Si Si3 0.678688 0.725341 0.796468
Si Si4 0.323303 0.274570 0.961792
Si Si5 0.669853 0.183646 0.601775
Si Si6 0.182990 0.148592 0.993619
Si Si7 0.680327 0.347982 0.249778
O O1 0.755432 0.178911 0.232425
O O2 0.835985 0.247427 0.124261
O O3 0.000000 0.151332 0.157949
O O4 0.754047 0.142535 0.080279
O O5 0.194644 0.500000 0.369000
O O6 0.251582 0.405847 0.445979
O O7 0.259408 0.404193 0.296765
O O8 0.000000 0.409122 0.368020
O O9 0.500000 0.737976 0.779014
O O10 0.699486 0.697241 0.878784
O O11 0.765781 0.788032 0.791277
O O12 0.500000 0.263545 0.980196
O O13 0.238340 0.211156 0.959753
O O14 0.254946 0.321197 0.021803
O O15 0.500000 0.157058 0.593360
O O16 0.758312 0.146305 0.665109
O O17 0.000000 0.148221 0.992265
O O18 0.500000 0.349362 0.247805
#
# Coordination Sequence:
#
# PCOD8187890 Si02
#       7
#     8   8   8   8   8   8   8
#     4   7  13  25  40  59  82 113 144 172 213 260
#     4  11  23  36  48  62  84 117 155 193 234 275
#     4   9  16  27  43  63  91 122 148 176 216 266
#     4  10  17  25  42  66  92 120 152 181 214 263
#     4   9  17  29  43  59  86 118 149 181 220 266
#     4  10  18  29  45  62  85 116 150 189 228 265
#     4  11  20  30  46  64  85 112 149 190 229 270
#
# _framework density 16.006809000000001
#
# number of rings (size 3 to 8) (size 9 to 14) (size 15 to 20)
#    0.000    2.429    1.429    4.714    0.000    1.714 
#    0.000    0.714    0.000    0.000    0.000    0.000 
#    0.000    1.143    0.000   10.571    0.000    3.571 
#
# Total GULP energy -346904.392129 kJ/mol
# GULP energy per Si atom -12389.442576 kJ/mol
# Density = 1.597038 g / cm^3
# Si number density = 16.006809 Si / 1000 Ang^3
#
#
#
# Elastic Constant Matrix: (Units=GPa)
#
#
# Indices 1 2 3 4 5 6 
#
# 1 102.7375 25.9012 56.1086 0.0000 0.0000 0.0000
# 2 25.9012 34.7948 38.6191 0.0000 0.0000 0.0000
# 3 56.1086 38.6191 168.4923 -0.0001 0.0000 0.0000
# 4 0.0000 0.0000 -0.0001 18.7291 0.0000 0.0000
# 5 0.0000 0.0000 0.0000 0.0000 26.2468 0.0000
# 6 0.0000 0.0000 0.0000 0.0000 0.0000 14.7565
#
#
#
# Elastic Compliance Matrix: (Units=1/GPa)
#
#
# Indices 1 2 3 4 5 6 
#
# 1 0.012904 -0.006486 -0.002810 0.000000 0.000000 0.000000
# 2 -0.006486 0.041806 -0.007422 0.000000 0.000000 0.000000
# 3 -0.002810 -0.007422 0.008572 0.000000 0.000000 0.000000
# 4 0.000000 0.000000 0.000000 0.053393 0.000000 0.000000
# 5 0.000000 0.000000 0.000000 0.000000 0.038100 0.000000
# 6 0.000000 0.000000 0.000000 0.000000 0.000000 0.067767
#
#
# Mechanical properties :
#
#
# Convention : Reuss Voigt Hill
#
# Bulk Modulus (GPa) = 33.50710 60.80917 47.15813
# Shear Modulus (GPa) = 18.80213 24.30618 21.55416
#
# Velocity S-wave (km/s) = 3.43101 3.90101 3.67353
# Velocity P-wave (km/s) = 6.05593 7.63954 6.89336
#
# Compressibility (1/GPa) = 0.02984442
#
# Stress axis : x y z
#
# Youngs Moduli (GPa) = 77.49778 23.91980 116.65851
#
# Poissons Ratio (x) = 0.15515 0.32784
# Poissons Ratio (y) = 0.50267 0.86587
# Poissons Ratio (z) = 0.21779 0.17754
#
# Static dielectric constant tensor:
#      x y z
#    x 3.118030 0.000000 0.000000 
#    y 0.000000 2.477050 0.000000 
#    z 0.000000 0.000000 3.635300 
# 
# 
# High freq. dielectric constant tensor:
#      x y z
#    x 1.618420 0.000000 0.000000 
#    y 0.000000 1.534940 0.000000 
#    z 0.000000 0.000000 1.641950 
# 
# From -- ./inp_files/20690.got.cif
#   From: 2010.03.12/outbox.cif.g09.slc.cpg/sg44_11_cif.got.tgz:20690.got - 2010.04.14 02:36:11.
