data_PCOD8187518
_publ_section_title
;
Structure prediction by ZEFSAII (Michael W. Deem and Ramdas Pophale) SiO2 
 PCOD8187518
Probable space group: F D D 2
;
_chemical_formula_sum "Si O2"
_cell_formula_units_Z 96
_cell_length_a 15.161343
_cell_length_b 22.555672
_cell_length_c 12.970151
_cell_angle_alpha 90.000000
_cell_angle_beta 90.000000
_cell_angle_gamma 90.000000
_cell_volume 4435.458047
_symmetry_space_group_name_H-M "F D D 2"
_symmetry_group_IT_number 43
_symmetry_cell_setting 'orthorhombic'
loop_
_space_group_symop_operation_xyz
x,y,z
-x,-y,z
1/4-x,1/4+y,1/4+z
1/4+x,1/4-y,1/4+z
x,1/2+y,1/2+z
-x,1/2-y,1/2+z
1/4-x,3/4+y,3/4+z
1/4+x,3/4-y,3/4+z
1/2+x,y,1/2+z
1/2-x,-y,1/2+z
3/4-x,1/4+y,3/4+z
3/4+x,1/4-y,3/4+z
1/2+x,1/2+y,z
1/2-x,1/2-y,z
3/4-x,3/4+y,1/4+z
3/4+x,3/4-y,1/4+z
loop_
_atom_site_type_symbol
_atom_site_label
_atom_site_fract_x
_atom_site_fract_y
_atom_site_fract_z
Si Si1 0.555395 0.250000 0.270960
Si Si2 0.388378 0.720830 0.668476
Si Si3 0.361622 0.029170 0.623444
Si Si4 0.500000 0.500000 0.753695
Si Si5 0.816297 0.346735 0.356002
Si Si6 0.816297 0.653265 0.685918
Si Si7 0.750000 0.750000 0.538225
O O1 0.492907 0.237305 0.171055
O O2 0.492907 0.262695 0.370865
O O3 0.613516 0.193382 0.296372
O O4 0.613516 0.306618 0.245547
O O5 0.343561 0.750000 0.770960
O O6 0.339095 0.747500 0.570237
O O7 0.382401 0.649115 0.665982
O O8 0.367599 0.100885 0.625938
O O9 0.410905 0.002500 0.721683
O O10 0.492296 0.558427 0.684716
O O11 0.750000 0.374074 0.270960
O O12 0.757704 0.691573 0.607204
#
# Coordination Sequence:
#
# PCOD8187518 Si02
#       7
#    16  16  16   8  16  16   8
#     4  10  23  47  64 110 132 182 240 271 359 404
#     4  10  27  44  67 102 139 183 232 282 352 413
#     4  10  27  44  67 102 139 183 232 282 352 413
#     4  12  24  46  70 102 144 180 230 292 348 408
#     4  12  24  46  73 103 140 180 240 289 338 416
#     4  12  24  46  73 103 140 180 240 289 338 416
#     4  12  24  46  70 102 144 180 230 292 348 408
#
# _framework density 21.643761999999999
#
# number of rings (size 3 to 8) (size 9 to 14) (size 15 to 20)
#    1.000    0.000    3.333    2.500    4.667    4.000 
#    6.000    0.000    0.000    0.000    0.000    0.000 
#    0.000    0.000    0.000    0.000    0.000    0.000 
#
# Total GULP energy -297469.492167 kJ/mol
# GULP energy per Si atom -12394.562174 kJ/mol
# Density = 2.159450 g / cm^3
# Si number density = 21.643762 Si / 1000 Ang^3
#
#
#
# Elastic Constant Matrix: (Units=GPa)
#
#
# Indices 1 2 3 4 5 6 
#
# 1 109.5502 28.9238 50.4517 0.0000 0.0000 0.0000
# 2 28.9238 142.9767 54.4870 0.0000 0.0000 0.0000
# 3 50.4517 54.4870 121.1104 0.0000 0.0000 0.0000
# 4 0.0000 0.0000 0.0000 44.1331 0.0000 0.0000
# 5 0.0000 0.0000 0.0000 0.0000 37.3711 0.0000
# 6 0.0000 0.0000 0.0000 0.0000 0.0000 8.3396
#
#
#
# Elastic Compliance Matrix: (Units=1/GPa)
#
#
# Indices 1 2 3 4 5 6 
#
# 1 0.011337 -0.000596 -0.004455 0.000000 0.000000 0.000000
# 2 -0.000596 0.008473 -0.003564 0.000000 0.000000 0.000000
# 3 -0.004455 -0.003564 0.011716 0.000000 0.000000 0.000000
# 4 0.000000 0.000000 0.000000 0.022659 0.000000 0.000000
# 5 0.000000 0.000000 0.000000 0.000000 0.026759 0.000000
# 6 0.000000 0.000000 0.000000 0.000000 0.000000 0.119910
#
#
# Mechanical properties :
#
#
# Convention : Reuss Voigt Hill
#
# Bulk Modulus (GPa) = 69.94268 71.26247 70.60258
# Shear Modulus (GPa) = 22.43689 33.95373 28.19531
#
# Velocity S-wave (km/s) = 3.22319 3.96505 3.61321
# Velocity P-wave (km/s) = 6.79982 7.34566 7.07800
#
# Compressibility (1/GPa) = 0.01429742
#
# Stress axis : x y z
#
# Youngs Moduli (GPa) = 88.20608 118.02547 85.35403
#
# Poissons Ratio (x) = 0.07032 0.38023
# Poissons Ratio (y) = 0.05256 0.30417
# Poissons Ratio (z) = 0.39293 0.42060
#
# Static dielectric constant tensor:
#      x y z
#    x 3.873830 0.000000 0.000000 
#    y 0.000000 4.319190 0.000000 
#    z 0.000000 0.000000 3.925660 
# 
# 
# High freq. dielectric constant tensor:
#      x y z
#    x 1.854430 0.000000 0.000000 
#    y 0.000000 1.848180 0.000000 
#    z 0.000000 0.000000 1.847450 
# 
# From -- ./inp_files/6716.got.cif
#   From: 2010.06.25/outbox.cif.g09.slc.cpg/sg43_4_cif.got.tgz:6716.got - 2010.06.26 16:48:59.
