data_PCOD8187633
_publ_section_title
;
Structure prediction by ZEFSAII (Michael W. Deem and Ramdas Pophale) SiO2 
 PCOD8187633
Probable space group: F D D 2
;
_chemical_formula_sum "Si O2"
_cell_formula_units_Z 120
_cell_length_a 22.953208
_cell_length_b 24.777120
_cell_length_c 9.269602
_cell_angle_alpha 90.000000
_cell_angle_beta 90.000000
_cell_angle_gamma 90.000000
_cell_volume 5271.756038
_symmetry_space_group_name_H-M "F D D 2"
_symmetry_group_IT_number 43
_symmetry_cell_setting 'orthorhombic'
loop_
_space_group_symop_operation_xyz
x,y,z
-x,-y,z
1/4-x,1/4+y,1/4+z
1/4+x,1/4-y,1/4+z
x,1/2+y,1/2+z
-x,1/2-y,1/2+z
1/4-x,3/4+y,3/4+z
1/4+x,3/4-y,3/4+z
1/2+x,y,1/2+z
1/2-x,-y,1/2+z
3/4-x,1/4+y,3/4+z
3/4+x,1/4-y,3/4+z
1/2+x,1/2+y,z
1/2-x,1/2-y,z
3/4-x,3/4+y,1/4+z
3/4+x,3/4-y,1/4+z
loop_
_atom_site_type_symbol
_atom_site_label
_atom_site_fract_x
_atom_site_fract_y
_atom_site_fract_z
Si Si1 0.013893 0.695190 0.240710
Si Si2 0.673846 0.339771 0.546734
Si Si3 0.082827 0.791675 0.953573
Si Si4 0.539893 0.354401 0.194065
Si Si5 0.084860 0.623694 0.606700
Si Si6 0.107779 0.447611 0.569096
Si Si7 0.750000 0.750000 0.172167
Si Si8 0.945879 0.710712 0.950067
O O1 0.052515 0.641571 0.205262
O O2 0.049084 0.737151 0.345081
O O3 0.958678 0.678022 0.338182
O O4 0.986801 0.719183 0.090684
O O5 0.647438 0.366213 0.691253
O O6 0.728625 0.299853 0.573779
O O7 0.622006 0.303949 0.477546
O O8 0.143540 0.823424 0.950742
O O9 0.093712 0.729609 0.912358
O O10 0.057507 0.797784 0.114824
O O11 0.484170 0.378572 0.116338
O O12 0.590508 0.398148 0.171366
O O13 0.529375 0.341115 0.361306
O O14 0.111057 0.679299 0.670252
O O15 0.053637 0.484643 0.525767
#
# Coordination Sequence:
#
# PCOD8187633 Si02
#       8
#    16  16  16  16  16  16   8  16
#     4  12  26  46  71 103 145 185 245 302 360 437
#     4  12  26  43  71 107 141 188 240 302 357 432
#     4  11  21  40  73 104 135 185 234 289 354 422
#     4  11  24  43  67 103 143 183 236 296 355 427
#     4  11  21  40  68 100 136 183 233 281 356 426
#     4  11  22  38  72 103 138 181 236 293 351 434
#     4  12  22  42  70 110 138 188 236 290 362 432
#     4  12  29  47  71 105 145 191 242 301 367 427
#
# _framework density 22.762813999999999
#
# number of rings (size 3 to 8) (size 9 to 14) (size 15 to 20)
#    0.000    0.533    5.333    2.400    3.733    4.267 
#    0.000    0.000    0.000    1.600    0.000    0.000 
#    0.000    0.000    0.000    0.000    0.000    0.000 
#
# Total GULP energy -371783.647003 kJ/mol
# GULP energy per Si atom -12392.788233 kJ/mol
# Density = 2.271100 g / cm^3
# Si number density = 22.762814 Si / 1000 Ang^3
#
#
#
# Elastic Constant Matrix: (Units=GPa)
#
#
# Indices 1 2 3 4 5 6 
#
# 1 102.2216 50.6210 35.1846 0.0006 -0.0013 -0.0005
# 2 50.6210 110.3479 38.5473 0.0008 0.0009 0.0003
# 3 35.1846 38.5473 102.7686 0.0034 -0.0038 -0.0020
# 4 0.0006 0.0008 0.0034 34.9501 -0.0015 -0.0010
# 5 -0.0013 0.0009 -0.0038 -0.0015 28.5296 0.0012
# 6 -0.0005 0.0003 -0.0020 -0.0010 0.0012 46.0590
#
#
#
# Elastic Compliance Matrix: (Units=1/GPa)
#
#
# Indices 1 2 3 4 5 6 
#
# 1 0.013233 -0.005164 -0.002593 0.000000 0.000000 0.000000
# 2 -0.005164 0.012444 -0.002900 0.000000 -0.000001 0.000000
# 3 -0.002593 -0.002900 0.011706 -0.000001 0.000002 0.000001
# 4 0.000000 0.000000 -0.000001 0.028612 0.000001 0.000001
# 5 0.000000 -0.000001 0.000002 0.000001 0.035051 -0.000001
# 6 0.000000 0.000000 0.000001 0.000001 -0.000001 0.021711
#
#
# Mechanical properties :
#
#
# Convention : Reuss Voigt Hill
#
# Bulk Modulus (GPa) = 62.23404 62.67156 62.45280
# Shear Modulus (GPa) = 33.46073 34.64007 34.05040
#
# Velocity S-wave (km/s) = 3.83818 3.90524 3.87185
# Velocity P-wave (km/s) = 6.85870 6.92291 6.89088
#
# Compressibility (1/GPa) = 0.01606838
#
# Stress axis : x y z
#
# Youngs Moduli (GPa) = 75.56985 80.35813 85.42582
#
# Poissons Ratio (x) = 0.41501 0.22154
# Poissons Ratio (y) = 0.39028 0.24770
# Poissons Ratio (z) = 0.19598 0.23300
#
# Static dielectric constant tensor:
#      x y z
#    x 4.247840 0.000000 0.000010 
#    y 0.000000 4.153720 0.000000 
#    z 0.000010 0.000000 4.081110 
# 
# 
# High freq. dielectric constant tensor:
#      x y z
#    x 1.906000 0.000000 0.000000 
#    y 0.000000 1.907020 0.000000 
#    z 0.000000 0.000000 1.882460 
# 
# From -- ./inp_files/3871.got.cif
#   From: 2010.06.25/outbox.cif.g09.slc.cpg/sg43_2_cif.got.tgz:3871.got - 2010.06.26 16:48:59.
