data_PCOD8187768
_publ_section_title
;
Structure prediction by ZEFSAII (Michael W. Deem and Ramdas Pophale) SiO2 
 PCOD8187768
Probable space group: F D D 2
;
_chemical_formula_sum "Si O2"
_cell_formula_units_Z 80
_cell_length_a 15.314053
_cell_length_b 21.800910
_cell_length_c 9.130457
_cell_angle_alpha 90.000000
_cell_angle_beta 90.000000
_cell_angle_gamma 90.000000
_cell_volume 3048.297033
_symmetry_space_group_name_H-M "F D D 2"
_symmetry_group_IT_number 43
_symmetry_cell_setting 'orthorhombic'
loop_
_space_group_symop_operation_xyz
x,y,z
-x,-y,z
1/4-x,1/4+y,1/4+z
1/4+x,1/4-y,1/4+z
x,1/2+y,1/2+z
-x,1/2-y,1/2+z
1/4-x,3/4+y,3/4+z
1/4+x,3/4-y,3/4+z
1/2+x,y,1/2+z
1/2-x,-y,1/2+z
3/4-x,1/4+y,3/4+z
3/4+x,1/4-y,3/4+z
1/2+x,1/2+y,z
1/2-x,1/2-y,z
3/4-x,3/4+y,1/4+z
3/4+x,3/4-y,1/4+z
loop_
_atom_site_type_symbol
_atom_site_label
_atom_site_fract_x
_atom_site_fract_y
_atom_site_fract_z
Si Si1 0.906234 0.123851 0.139440
Si Si2 0.522707 0.430282 0.418111
Si Si3 0.284408 0.580125 0.471566
Si Si4 0.741647 0.981398 0.258832
Si Si5 0.059367 0.943769 0.846365
O O1 0.811217 0.138686 0.211726
O O2 0.960493 0.079352 0.245168
O O3 0.956190 0.187917 0.120395
O O4 0.900259 0.091128 0.984114
O O5 0.500000 0.500000 0.451838
O O6 0.611830 0.411877 0.502300
O O7 0.235620 0.534658 0.589323
O O8 0.266383 0.550372 0.309835
O O9 0.242939 0.647935 0.487326
O O10 0.638607 0.971877 0.257875
O O11 0.000000 0.000000 0.899283
#
# Coordination Sequence:
#
# PCOD8187768 Si02
#       5
#    16  16  16  16  16
#     4  11  25  47  77 114 156 209 262 324 396 481
#     4  12  26  49  77 116 156 210 266 327 403 480
#     4  11  29  47  81 115 160 206 269 323 405 473
#     4  11  26  49  73 114 159 206 260 327 396 468
#     4  11  27  47  78 116 160 205 260 332 402 473
#
# _framework density 26.244161999999999
#
# number of rings (size 3 to 8) (size 9 to 14) (size 15 to 20)
#    0.000    0.800    4.000    0.600   11.200    2.400 
#    0.000    0.000    0.000    0.000    0.000    0.000 
#    0.000    0.000    0.000    0.000    0.000    0.000 
#
# Total GULP energy -247981.906936 kJ/mol
# GULP energy per Si atom -12399.095347 kJ/mol
# Density = 2.618443 g / cm^3
# Si number density = 26.244162 Si / 1000 Ang^3
#
#
#
# Elastic Constant Matrix: (Units=GPa)
#
#
# Indices 1 2 3 4 5 6 
#
# 1 159.1310 59.0084 -5.6892 0.0000 0.0000 0.0000
# 2 59.0084 150.8470 8.9487 0.0000 0.0000 0.0000
# 3 -5.6892 8.9487 11.0818 0.0000 0.0000 0.0000
# 4 0.0000 0.0000 0.0000 44.1421 0.0000 0.0000
# 5 0.0000 0.0000 0.0000 0.0000 41.7077 0.0000
# 6 0.0000 0.0000 0.0000 0.0000 0.0000 45.4520
#
#
#
# Elastic Compliance Matrix: (Units=1/GPa)
#
#
# Indices 1 2 3 4 5 6 
#
# 1 0.007810 -0.003459 0.006802 0.000000 0.000000 0.000000
# 2 -0.003459 0.008494 -0.008635 0.000000 0.000000 0.000000
# 3 0.006802 -0.008635 0.100703 0.000000 0.000000 0.000000
# 4 0.000000 0.000000 0.000000 0.022654 0.000000 0.000000
# 5 0.000000 0.000000 0.000000 0.000000 0.023976 0.000000
# 6 0.000000 0.000000 0.000000 0.000000 0.000000 0.022001
#
#
# Mechanical properties :
#
#
# Convention : Reuss Voigt Hill
#
# Bulk Modulus (GPa) = 9.39629 49.51062 29.45345
# Shear Modulus (GPa) = 21.57994 43.51316 32.54655
#
# Velocity S-wave (km/s) = 2.87065 4.07629 3.52539
# Velocity P-wave (km/s) = 3.81780 6.40790 5.27431
#
# Compressibility (1/GPa) = 0.10642502
#
# Stress axis : x y z
#
# Youngs Moduli (GPa) = 128.04399 117.72453 9.93016
#
# Poissons Ratio (x) = 0.40716 -0.06755
# Poissons Ratio (y) = 0.44285 0.08575
# Poissons Ratio (z) = -0.87099 1.01654
#
# Static dielectric constant tensor:
#      x y z
#    x 4.806940 0.000000 0.000000 
#    y 0.000000 4.619910 0.000000 
#    z 0.000000 0.000000 4.566040 
# 
# 
# High freq. dielectric constant tensor:
#      x y z
#    x 2.059580 0.000000 0.000000 
#    y 0.000000 2.059270 0.000000 
#    z 0.000000 0.000000 2.059630 
# 
# From -- ./inp_files/6061.got.cif
#   From: 2010.06.25/outbox.cif.g09.slc.cpg/sg43_4_cif.got.tgz:6061.got - 2010.06.26 16:48:59.
