data_PCOD8187983
_publ_section_title
;
Structure prediction by ZEFSAII (Michael W. Deem and Ramdas Pophale) SiO2 
 PCOD8187983
Probable space group: I M M 2
;
_chemical_formula_sum "Si O2"
_cell_formula_units_Z 48
_cell_length_a 15.137333
_cell_length_b 8.909727
_cell_length_c 24.348062
_cell_angle_alpha 90.000000
_cell_angle_beta 90.000000
_cell_angle_gamma 90.000000
_cell_volume 3283.811058
_symmetry_space_group_name_H-M "I M M 2"
_symmetry_group_IT_number 44
_symmetry_cell_setting 'orthorhombic'
loop_
_space_group_symop_operation_xyz
x,y,z
-x,-y,z
-x,y,z
x,-y,z
1/2+x,1/2+y,1/2+z
1/2-x,1/2-y,1/2+z
1/2-x,1/2+y,1/2+z
1/2+x,1/2-y,1/2+z
loop_
_atom_site_type_symbol
_atom_site_label
_atom_site_fract_x
_atom_site_fract_y
_atom_site_fract_z
Si Si1 0.104917 0.669149 0.174520
Si Si2 0.604291 0.326915 0.564426
Si Si3 0.733001 0.177008 0.483342
Si Si4 0.898219 0.177002 0.285484
Si Si5 0.596847 0.168963 0.995516
Si Si6 0.814663 0.331115 0.387825
O O1 0.142376 0.500000 0.173379
O O2 0.140080 0.757710 0.121382
O O3 0.138450 0.752076 0.229183
O O4 0.000000 0.669039 0.173874
O O5 0.500000 0.305903 0.558770
O O6 0.632212 0.500000 0.562484
O O7 0.647561 0.239391 0.513954
O O8 0.822895 0.225445 0.516860
O O9 0.735543 0.248755 0.421865
O O10 0.727339 0.000000 0.479042
O O11 0.837414 0.237957 0.333957
O O12 0.000000 0.223732 0.295586
O O13 0.888101 0.000000 0.281527
O O14 0.500000 0.231357 0.012855
O O15 0.610060 0.000000 0.018611
O O16 0.600852 0.164881 0.928734
O O17 0.785641 0.500000 0.371488
#
# Coordination Sequence:
#
# PCOD8187983 Si02
#       6
#     8   8   8   8   8   8
#     4   9  17  28  42  60  82 110 144 178 214 257
#     4  10  19  32  48  63  83 113 148 186 224 260
#     4  10  19  29  42  62  86 112 145 182 219 262
#     4  10  18  26  38  59  86 115 146 177 210 254
#     4   8  15  27  41  57  81 113 144 172 207 251
#     4   9  17  28  40  56  82 114 146 175 209 250
#
# _framework density 14.617163
#
# number of rings (size 3 to 8) (size 9 to 14) (size 15 to 20)
#    1.000    1.667    0.000    3.500    0.000    5.000 
#    0.000    0.000    0.000    0.000    0.000    0.000 
#    0.000    1.333    0.000    5.000    0.000    7.833 
#
# Total GULP energy -297370.287491 kJ/mol
# GULP energy per Si atom -12390.428645 kJ/mol
# Density = 1.458389 g / cm^3
# Si number density = 14.617163 Si / 1000 Ang^3
#
#
#
# Elastic Constant Matrix: (Units=GPa)
#
#
# Indices 1 2 3 4 5 6 
#
# 1 29.3441 25.6330 26.2663 0.0000 0.0000 0.0000
# 2 25.6330 112.2996 44.3061 0.0000 0.0000 0.0000
# 3 26.2663 44.3061 87.0004 0.0000 0.0000 0.0000
# 4 0.0000 0.0000 0.0000 28.9165 0.0000 0.0000
# 5 0.0000 0.0000 0.0000 0.0000 21.8698 0.0000
# 6 0.0000 0.0000 0.0000 0.0000 0.0000 19.6496
#
#
#
# Elastic Compliance Matrix: (Units=1/GPa)
#
#
# Indices 1 2 3 4 5 6 
#
# 1 0.050659 -0.006919 -0.011771 0.000000 0.000000 0.000000
# 2 -0.006919 0.012089 -0.004067 0.000000 0.000000 0.000000
# 3 -0.011771 -0.004067 0.017119 0.000000 0.000000 0.000000
# 4 0.000000 0.000000 0.000000 0.034582 0.000000 0.000000
# 5 0.000000 0.000000 0.000000 0.000000 0.045725 0.000000
# 6 0.000000 0.000000 0.000000 0.000000 0.000000 0.050892
#
#
# Mechanical properties :
#
#
# Convention : Reuss Voigt Hill
#
# Bulk Modulus (GPa) = 29.11027 46.78388 37.94707
# Shear Modulus (GPa) = 18.65455 22.91642 20.78548
#
# Velocity S-wave (km/s) = 3.57628 3.96381 3.77502
# Velocity P-wave (km/s) = 6.08370 7.28180 6.70955
#
# Compressibility (1/GPa) = 0.03435214
#
# Stress axis : x y z
#
# Youngs Moduli (GPa) = 19.74001 82.72099 58.41358
#
# Poissons Ratio (x) = 0.57236 0.68757
# Poissons Ratio (y) = 0.13658 0.23759
# Poissons Ratio (z) = 0.23235 0.33646
#
# Static dielectric constant tensor:
#      x y z
#    x 2.495290 0.000000 0.000000 
#    y 0.000000 2.945190 0.000000 
#    z 0.000000 0.000000 2.705200 
# 
# 
# High freq. dielectric constant tensor:
#      x y z
#    x 1.511390 0.000000 0.000000 
#    y 0.000000 1.577160 0.000000 
#    z 0.000000 0.000000 1.539090 
# 
# From -- ./inp_files/24282.got.cif
#   From: 2010.03.12/outbox.cif.g09.slc.cpg/sg44_13_cif.got.tgz:24282.got - 2010.04.14 02:36:11.
