data_PCOD8187323
_publ_section_title
;
Structure prediction by ZEFSAII (Michael W. Deem and Ramdas Pophale) SiO2 
 PCOD8187323
Probable space group: F D D 2
;
_chemical_formula_sum "Si O2"
_cell_formula_units_Z 120
_cell_length_a 21.986895
_cell_length_b 20.797684
_cell_length_c 12.450844
_cell_angle_alpha 90.000000
_cell_angle_beta 90.000000
_cell_angle_gamma 90.000000
_cell_volume 5693.478296
_symmetry_space_group_name_H-M "F D D 2"
_symmetry_group_IT_number 43
_symmetry_cell_setting 'orthorhombic'
loop_
_space_group_symop_operation_xyz
x,y,z
-x,-y,z
1/4-x,1/4+y,1/4+z
1/4+x,1/4-y,1/4+z
x,1/2+y,1/2+z
-x,1/2-y,1/2+z
1/4-x,3/4+y,3/4+z
1/4+x,3/4-y,3/4+z
1/2+x,y,1/2+z
1/2-x,-y,1/2+z
3/4-x,1/4+y,3/4+z
3/4+x,1/4-y,3/4+z
1/2+x,1/2+y,z
1/2-x,1/2-y,z
3/4-x,3/4+y,1/4+z
3/4+x,3/4-y,1/4+z
loop_
_atom_site_type_symbol
_atom_site_label
_atom_site_fract_x
_atom_site_fract_y
_atom_site_fract_z
Si Si1 0.202378 0.198424 0.466770
Si Si2 0.926500 0.787779 0.844883
Si Si3 0.079736 0.566311 0.331538
Si Si4 0.682386 0.425356 0.252201
Si Si5 0.549479 0.249694 0.576639
Si Si6 0.485307 0.319380 0.275438
Si Si7 0.000000 0.500000 0.508730
Si Si8 0.440533 0.965441 0.096918
O O1 0.250000 0.250000 0.519607
O O2 0.133575 0.210334 0.508704
O O3 0.218194 0.126598 0.502579
O O4 0.207481 0.205604 0.336432
O O5 0.931795 0.859733 0.803582
O O6 0.982174 0.747768 0.798959
O O7 0.865310 0.755878 0.799468
O O8 0.927949 0.788612 0.973191
O O9 0.151932 0.556024 0.352571
O O10 0.058407 0.528143 0.226233
O O11 0.042133 0.544773 0.435523
O O12 0.732258 0.471001 0.308428
O O13 0.694418 0.411719 0.126745
O O14 0.683684 0.357926 0.312422
O O15 0.553495 0.195639 0.669208
O O16 0.500000 0.000000 0.049447
#
# Coordination Sequence:
#
# PCOD8187323 Si02
#       8
#    16  16  16  16  16  16   8  16
#     4  10  24  43  68 102 135 184 234 285 350 419
#     4  10  22  38  64  92 132 172 220 281 337 407
#     4  11  21  42  66  99 134 174 230 289 342 415
#     4  11  23  43  67  96 140 178 230 289 344 418
#     4  10  23  39  65  93 133 179 227 277 351 410
#     4  11  22  44  62  99 135 180 225 284 345 409
#     4  10  22  42  70 100 140 180 240 286 352 416
#     4  11  22  40  64  99 127 176 221 276 350 405
#
# _framework density 21.076747000000001
#
# number of rings (size 3 to 8) (size 9 to 14) (size 15 to 20)
#    0.400    1.067    2.000    3.200    0.000    1.600 
#    4.800    1.333    0.000    0.000    0.000    0.000 
#    0.000    0.000    0.000    0.000    0.000    0.000 
#
# Total GULP energy -371939.940293 kJ/mol
# GULP energy per Si atom -12397.998010 kJ/mol
# Density = 2.102878 g / cm^3
# Si number density = 21.076747 Si / 1000 Ang^3
#
#
#
# Elastic Constant Matrix: (Units=GPa)
#
#
# Indices 1 2 3 4 5 6 
#
# 1 132.3717 33.8776 19.9159 0.0000 0.0000 0.0000
# 2 33.8776 78.7877 10.3904 0.0000 0.0000 0.0000
# 3 19.9159 10.3904 77.1794 0.0000 0.0000 0.0000
# 4 0.0000 0.0000 0.0000 33.2664 0.0000 0.0000
# 5 0.0000 0.0000 0.0000 0.0000 17.2188 0.0000
# 6 0.0000 0.0000 0.0000 0.0000 0.0000 39.2607
#
#
#
# Elastic Compliance Matrix: (Units=1/GPa)
#
#
# Indices 1 2 3 4 5 6 
#
# 1 0.008722 -0.003516 -0.001777 0.000000 0.000000 0.000000
# 2 -0.003516 0.014339 -0.001023 0.000000 0.000000 0.000000
# 3 -0.001777 -0.001023 0.013553 0.000000 0.000000 0.000000
# 4 0.000000 0.000000 0.000000 0.030060 0.000000 0.000000
# 5 0.000000 0.000000 0.000000 0.000000 0.058076 0.000000
# 6 0.000000 0.000000 0.000000 0.000000 0.000000 0.025471
#
#
# Mechanical properties :
#
#
# Convention : Reuss Voigt Hill
#
# Bulk Modulus (GPa) = 41.69904 46.30074 43.99989
# Shear Modulus (GPa) = 29.26588 32.89284 31.07936
#
# Velocity S-wave (km/s) = 3.73035 3.95476 3.84419
# Velocity P-wave (km/s) = 6.19527 6.54743 6.37378
#
# Compressibility (1/GPa) = 0.02398136
#
# Stress axis : x y z
#
# Youngs Moduli (GPa) = 114.65676 69.73972 73.78337
#
# Poissons Ratio (x) = 0.24519 0.13113
# Poissons Ratio (y) = 0.40311 0.07549
# Poissons Ratio (z) = 0.20378 0.07136
#
# Static dielectric constant tensor:
#      x y z
#    x 3.808900 0.000000 0.000000 
#    y 0.000000 3.536660 0.000000 
#    z 0.000000 0.000000 3.933700 
# 
# 
# High freq. dielectric constant tensor:
#      x y z
#    x 1.827700 0.000000 0.000000 
#    y 0.000000 1.816790 0.000000 
#    z 0.000000 0.000000 1.834630 
# 
# From -- ./inp_files/7628.got.cif
#   From: 2010.06.25/outbox.cif.g09.slc.cpg/sg43_4_cif.got.tgz:7628.got - 2010.06.26 16:48:59.
