data_PCOD8187934
_publ_section_title
;
Structure prediction by ZEFSAII (Michael W. Deem and Ramdas Pophale) SiO2 
 PCOD8187934
Probable space group: I M M 2
;
_chemical_formula_sum "Si O2"
_cell_formula_units_Z 64
_cell_length_a 19.898182
_cell_length_b 9.429779
_cell_length_c 20.931180
_cell_angle_alpha 90.000000
_cell_angle_beta 90.000000
_cell_angle_gamma 90.000000
_cell_volume 3927.431562
_symmetry_space_group_name_H-M "I M M 2"
_symmetry_group_IT_number 44
_symmetry_cell_setting 'orthorhombic'
loop_
_space_group_symop_operation_xyz
x,y,z
-x,-y,z
-x,y,z
x,-y,z
1/2+x,1/2+y,1/2+z
1/2-x,1/2-y,1/2+z
1/2-x,1/2+y,1/2+z
1/2+x,1/2-y,1/2+z
loop_
_atom_site_type_symbol
_atom_site_label
_atom_site_fract_x
_atom_site_fract_y
_atom_site_fract_z
Si Si1 0.788658 0.167081 0.832910
Si Si2 0.425615 0.161147 0.511612
Si Si3 0.714358 0.168468 0.961014
Si Si4 0.073082 0.668621 0.271478
Si Si5 0.707891 0.830943 0.713186
Si Si6 0.074100 0.834329 0.885334
Si Si7 0.073175 0.668061 0.415089
Si Si8 0.787801 0.664721 0.071472
O O1 0.750774 0.223057 0.896323
O O2 0.757874 0.231564 0.767601
O O3 0.867729 0.209456 0.835268
O O4 0.778352 0.000000 0.830716
O O5 0.500000 0.193419 0.540703
O O6 0.410606 0.259549 0.451691
O O7 0.368149 0.188679 0.563988
O O8 0.422330 0.000000 0.486866
O O9 0.635956 0.217029 0.958520
O O10 0.722449 0.000000 0.968847
O O11 0.746109 0.243032 0.022010
O O12 0.076133 0.500000 0.272808
O O13 0.132859 0.728270 0.227296
O O14 0.083375 0.726748 0.343384
O O15 0.000000 0.718685 0.245170
O O16 0.730920 0.781591 0.642782
O O17 0.707206 0.000000 0.714915
O O18 0.000000 0.792855 0.858328
O O19 0.078445 0.000000 0.900048
O O20 0.073530 0.500000 0.411789
O O21 0.000000 0.720255 0.442070
O O22 0.769287 0.500000 0.061437
#
# Coordination Sequence:
#
# PCOD8187934 Si02
#       8
#     8   8   8   8   8   8   8   8
#     4   9  15  25  43  65  84 108 144 182 217 250
#     4   9  17  28  40  58  88 121 147 171 207 259
#     4  10  17  28  48  68  87 114 147 183 219 255
#     4   8  12  19  34  59  88 111 135 171 213 255
#     4   9  16  26  39  59  88 118 143 173 216 258
#     4   9  16  26  43  66  86 106 140 184 222 254
#     4   8  13  22  40  68  93 108 133 179 225 257
#     4  10  20  30  42  63  92 122 148 176 215 263
#
# _framework density 16.295636999999999
#
# number of rings (size 3 to 8) (size 9 to 14) (size 15 to 20)
#    0.000    3.000    2.500    0.750    0.000    0.500 
#    0.000    2.500    0.000    2.625    0.000    1.750 
#    0.000    0.000    0.000    0.000    0.000    0.000 
#
# Total GULP energy -396440.466549 kJ/mol
# GULP energy per Si atom -12388.764580 kJ/mol
# Density = 1.625855 g / cm^3
# Si number density = 16.295637 Si / 1000 Ang^3
#
#
#
# Elastic Constant Matrix: (Units=GPa)
#
#
# Indices 1 2 3 4 5 6 
#
# 1 133.3536 23.2339 76.1673 0.0000 0.0000 0.0000
# 2 23.2339 17.5745 22.0052 0.0000 0.0000 0.0000
# 3 76.1673 22.0052 119.5522 0.0000 0.0000 0.0000
# 4 0.0000 0.0000 0.0000 15.3364 0.0000 0.0000
# 5 0.0000 0.0000 0.0000 0.0000 23.1417 0.0000
# 6 0.0000 0.0000 0.0000 0.0000 0.0000 13.2982
#
#
#
# Elastic Compliance Matrix: (Units=1/GPa)
#
#
# Indices 1 2 3 4 5 6 
#
# 1 0.012731 -0.008674 -0.006514 0.000000 0.000000 0.000000
# 2 -0.008674 0.079851 -0.009172 0.000000 0.000000 0.000000
# 3 -0.006514 -0.009172 0.014203 0.000000 0.000000 0.000000
# 4 0.000000 0.000000 0.000000 0.065204 0.000000 0.000000
# 5 0.000000 0.000000 0.000000 0.000000 0.043212 0.000000
# 6 0.000000 0.000000 0.000000 0.000000 0.000000 0.075198
#
#
# Mechanical properties :
#
#
# Convention : Reuss Voigt Hill
#
# Bulk Modulus (GPa) = 17.22188 57.03258 37.12723
# Shear Modulus (GPa) = 13.94801 20.29354 17.12077
#
# Velocity S-wave (km/s) = 2.92881 3.53276 3.24487
# Velocity P-wave (km/s) = 4.69346 7.19133 6.07222
#
# Compressibility (1/GPa) = 0.05806566
#
# Stress axis : x y z
#
# Youngs Moduli (GPa) = 78.54918 12.52328 70.40735
#
# Poissons Ratio (x) = 0.10862 0.45866
# Poissons Ratio (y) = 0.68132 0.64575
# Poissons Ratio (z) = 0.51170 0.11486
#
# Static dielectric constant tensor:
#      x y z
#    x 3.584530 0.000000 0.000000 
#    y 0.000000 2.609520 0.000000 
#    z 0.000000 0.000000 3.011360 
# 
# 
# High freq. dielectric constant tensor:
#      x y z
#    x 1.643850 0.000000 0.000000 
#    y 0.000000 1.570710 0.000000 
#    z 0.000000 0.000000 1.600800 
# 
# From -- ./inp_files/21516.got.cif
#   From: 2010.03.12/outbox.cif.g09.slc.cpg/sg44_11_cif.got.tgz:21516.got - 2010.04.14 02:36:11.
