data_PCOD8187984
_publ_section_title
;
Structure prediction by ZEFSAII (Michael W. Deem and Ramdas Pophale) SiO2 
 PCOD8187984
Probable space group: I M M 2
;
_chemical_formula_sum "Si O2"
_cell_formula_units_Z 56
_cell_length_a 29.274583
_cell_length_b 9.115151
_cell_length_c 13.787324
_cell_angle_alpha 90.000000
_cell_angle_beta 90.000000
_cell_angle_gamma 90.000000
_cell_volume 3679.040482
_symmetry_space_group_name_H-M "I M M 2"
_symmetry_group_IT_number 44
_symmetry_cell_setting 'orthorhombic'
loop_
_space_group_symop_operation_xyz
x,y,z
-x,-y,z
-x,y,z
x,-y,z
1/2+x,1/2+y,1/2+z
1/2-x,1/2-y,1/2+z
1/2-x,1/2+y,1/2+z
1/2+x,1/2-y,1/2+z
loop_
_atom_site_type_symbol
_atom_site_label
_atom_site_fract_x
_atom_site_fract_y
_atom_site_fract_z
Si Si1 0.000000 0.173955 0.007151
Si Si2 0.770685 0.826949 0.507004
Si Si3 0.273099 0.671096 0.226672
Si Si4 0.817861 0.671888 0.341228
Si Si5 0.500000 0.168186 0.706270
Si Si6 0.901485 0.668993 0.222194
Si Si7 0.590494 0.825796 0.502151
Si Si8 0.318772 0.827803 0.393260
O O1 0.000000 0.216253 0.119843
O O2 0.954355 0.244279 0.959677
O O3 0.000000 0.000000 0.992596
O O4 0.775405 0.770390 0.616849
O O5 0.810245 0.752201 0.443385
O O6 0.720988 0.779044 0.467566
O O7 0.776871 0.000000 0.500677
O O8 0.283482 0.500000 0.231588
O O9 0.223046 0.707544 0.267501
O O10 0.311807 0.751717 0.289397
O O11 0.822081 0.500000 0.362959
O O12 0.863811 0.741084 0.292731
O O13 0.452950 0.191981 0.766612
O O14 0.500000 0.000000 0.664468
O O15 0.887549 0.500000 0.216653
O O16 0.899921 0.729697 0.112240
O O17 0.633015 0.776739 0.436663
O O18 0.582467 0.000000 0.499742
O O19 0.317660 0.000000 0.376426
#
# Coordination Sequence:
#
# PCOD8187984 Si02
#       8
#     4   8   8   8   4   8   8   8
#     4  10  18  26  38  60  87 110 133 166 203 242
#     4   9  17  29  42  59  84 112 138 167 204 246
#     4   9  17  28  41  57  82 111 135 163 204 248
#     4   9  16  26  41  61  81 105 137 170 202 241
#     4   8  14  26  42  58  79 110 141 168 201 244
#     4   8  13  23  41  61  80 104 136 167 198 239
#     4   9  16  28  44  60  81 111 140 167 201 243
#     4   9  17  28  44  63  81 105 141 175 201 234
#
# _framework density 15.221361
#
# number of rings (size 3 to 8) (size 9 to 14) (size 15 to 20)
#    0.000    3.143    0.000    2.357    0.000    4.571 
#    0.000    2.857    0.000    5.143    0.000    1.000 
#    0.000    6.857    0.000    0.000    0.000    0.000 
#
# Total GULP energy -347020.645924 kJ/mol
# GULP energy per Si atom -12393.594497 kJ/mol
# Density = 1.518672 g / cm^3
# Si number density = 15.221361 Si / 1000 Ang^3
#
#
#
# Elastic Constant Matrix: (Units=GPa)
#
#
# Indices 1 2 3 4 5 6 
#
# 1 134.4729 34.2637 63.0831 0.0000 0.0000 0.0000
# 2 34.2637 31.9889 28.5264 0.0000 0.0000 0.0000
# 3 63.0831 28.5264 108.4373 0.0000 0.0000 0.0000
# 4 0.0000 0.0000 0.0000 21.9268 0.0000 0.0000
# 5 0.0000 0.0000 0.0000 0.0000 26.3233 0.0000
# 6 0.0000 0.0000 0.0000 0.0000 0.0000 19.6032
#
#
#
# Elastic Compliance Matrix: (Units=1/GPa)
#
#
# Indices 1 2 3 4 5 6 
#
# 1 0.011761 -0.008487 -0.004609 0.000000 0.000000 0.000000
# 2 -0.008487 0.046967 -0.007418 0.000000 0.000000 0.000000
# 3 -0.004609 -0.007418 0.013855 0.000000 0.000000 0.000000
# 4 0.000000 0.000000 0.000000 0.045606 0.000000 0.000000
# 5 0.000000 0.000000 0.000000 0.000000 0.037989 0.000000
# 6 0.000000 0.000000 0.000000 0.000000 0.000000 0.051012
#
#
# Mechanical properties :
#
#
# Convention : Reuss Voigt Hill
#
# Bulk Modulus (GPa) = 31.69213 58.51616 45.10415
# Shear Modulus (GPa) = 19.32460 23.50572 21.41516
#
# Velocity S-wave (km/s) = 3.56697 3.93397 3.75496
# Velocity P-wave (km/s) = 6.15064 7.69167 6.96391
#
# Compressibility (1/GPa) = 0.03155358
#
# Stress axis : x y z
#
# Youngs Moduli (GPa) = 85.02460 21.29170 72.17670
#
# Poissons Ratio (x) = 0.18071 0.33269
# Poissons Ratio (y) = 0.72162 0.53541
# Poissons Ratio (z) = 0.39191 0.15794
#
# Static dielectric constant tensor:
#      x y z
#    x 3.178320 0.000000 0.000000 
#    y 0.000000 2.720960 0.000000 
#    z 0.000000 0.000000 2.815760 
# 
# 
# High freq. dielectric constant tensor:
#      x y z
#    x 1.585840 0.000000 0.000000 
#    y 0.000000 1.564800 0.000000 
#    z 0.000000 0.000000 1.552270 
# 
# From -- ./inp_files/19678.got.cif
#   From: 2010.03.12/outbox.cif.g09.slc.cpg/sg44_10_cif.got.tgz:19678.got - 2010.04.14 02:36:11.
