data_PCOD8187338
_publ_section_title
;
Structure prediction by ZEFSAII (Michael W. Deem and Ramdas Pophale) SiO2 
 PCOD8187338
Probable space group: F D D 2
;
_chemical_formula_sum "Si O2"
_cell_formula_units_Z 104
_cell_length_a 12.189003
_cell_length_b 19.541355
_cell_length_c 22.221102
_cell_angle_alpha 90.000000
_cell_angle_beta 90.000000
_cell_angle_gamma 90.000000
_cell_volume 5292.836168
_symmetry_space_group_name_H-M "F D D 2"
_symmetry_group_IT_number 43
_symmetry_cell_setting 'orthorhombic'
loop_
_space_group_symop_operation_xyz
x,y,z
-x,-y,z
1/4-x,1/4+y,1/4+z
1/4+x,1/4-y,1/4+z
x,1/2+y,1/2+z
-x,1/2-y,1/2+z
1/4-x,3/4+y,3/4+z
1/4+x,3/4-y,3/4+z
1/2+x,y,1/2+z
1/2-x,-y,1/2+z
3/4-x,1/4+y,3/4+z
3/4+x,1/4-y,3/4+z
1/2+x,1/2+y,z
1/2-x,1/2-y,z
3/4-x,3/4+y,1/4+z
3/4+x,3/4-y,1/4+z
loop_
_atom_site_type_symbol
_atom_site_label
_atom_site_fract_x
_atom_site_fract_y
_atom_site_fract_z
Si Si1 0.750000 0.750000 0.542130
Si Si2 0.799468 0.951331 0.661805
Si Si3 0.163131 0.135926 0.458983
Si Si4 0.225432 0.030283 0.362275
Si Si5 0.632142 0.264294 0.290869
Si Si6 0.782045 0.588768 0.950020
Si Si7 0.852310 0.796606 0.007499
O O1 0.758365 0.816732 0.499614
O O2 0.644271 0.762870 0.584524
O O3 0.677200 0.933351 0.679185
O O4 0.793121 0.975089 0.592778
O O5 0.884842 0.889413 0.666712
O O6 0.836015 0.014754 0.701268
O O7 0.226445 0.095830 0.406295
O O8 0.103319 0.081743 0.501288
O O9 0.313637 0.050288 0.312399
O O10 0.265469 0.963581 0.399943
O O11 0.750000 0.250000 0.321369
O O12 0.599500 0.200810 0.250298
O O13 0.684994 0.628526 0.984811
O O14 0.750000 0.750000 0.027861
#
# Coordination Sequence:
#
# PCOD8187338 Si02
#       7
#     8  16  16  16  16  16  16
#     4  12  24  42  68  94 132 170 214 274 314 382
#     4  11  21  37  61  94 126 159 217 259 318 375
#     4  11  23  39  63  95 125 168 211 266 324 374
#     4  11  23  43  66  95 128 171 218 263 324 388
#     4  11  21  36  64  95 122 164 215 269 313 367
#     4  10  22  39  64  92 127 166 212 266 316 377
#     4  10  23  40  60  94 131 171 208 261 327 388
#
# _framework density 19.6492
#
# number of rings (size 3 to 8) (size 9 to 14) (size 15 to 20)
#    0.000    1.231    3.077    4.154    2.154    3.692 
#    2.769    0.000    0.000    0.000    0.000    0.000 
#    0.000    0.000    0.000    0.000    0.000    0.000 
#
# Total GULP energy -322422.136461 kJ/mol
# GULP energy per Si atom -12400.851402 kJ/mol
# Density = 1.960448 g / cm^3
# Si number density = 19.649200 Si / 1000 Ang^3
#
#
#
# Elastic Constant Matrix: (Units=GPa)
#
#
# Indices 1 2 3 4 5 6 
#
# 1 76.9942 37.6405 42.1070 0.0000 0.0000 0.0000
# 2 37.6405 116.9436 48.0063 0.0000 0.0000 0.0000
# 3 42.1070 48.0063 122.3937 0.0000 0.0000 0.0000
# 4 0.0000 0.0000 0.0000 30.2101 0.0000 0.0000
# 5 0.0000 0.0000 0.0000 0.0000 7.5934 0.0000
# 6 0.0000 0.0000 0.0000 0.0000 0.0000 -5.1528
#
#
#
# Elastic Compliance Matrix: (Units=1/GPa)
#
#
# Indices 1 2 3 4 5 6 
#
# 1 0.017253 -0.003715 -0.004479 0.000000 0.000000 0.000000
# 2 -0.003715 0.010992 -0.003033 0.000000 0.000000 0.000000
# 3 -0.004479 -0.003033 0.010901 0.000000 0.000000 0.000000
# 4 0.000000 0.000000 0.000000 0.033101 0.000000 0.000000
# 5 0.000000 0.000000 0.000000 0.000000 0.131694 0.000000
# 6 0.000000 0.000000 0.000000 0.000000 0.000000 -0.194069
#
#
# Mechanical properties :
#
#
# Convention : Reuss Voigt Hill
#
# Bulk Modulus (GPa) = 59.90644 63.53768 61.72206
# Shear Modulus (GPa) = 131.95938 19.10198 75.53068
#
# Velocity S-wave (km/s) = 8.20387 3.12132 6.20669
# Velocity P-wave (km/s) = 10.96777 6.73768 9.10188
#
# Compressibility (1/GPa) = 0.01669270
#
# Stress axis : x y z
#
# Youngs Moduli (GPa) = 57.95978 90.97485 91.73548
#
# Poissons Ratio (x) = 0.33795 0.41085
# Poissons Ratio (y) = 0.21531 0.27827
# Poissons Ratio (z) = 0.25958 0.27596
#
# Static dielectric constant tensor:
#      x y z
#    x 3.707110 0.000000 0.000000 
#    y 0.000000 3.782550 0.000000 
#    z 0.000000 0.000000 3.713100 
# 
# 
# High freq. dielectric constant tensor:
#      x y z
#    x 1.745250 0.000000 0.000000 
#    y 0.000000 1.775160 0.000000 
#    z 0.000000 0.000000 1.782580 
# 
# From -- ./inp_files/17654.got.cif
#   From: 2010.06.25/outbox.cif.g09.slc.cpg/sg43_9_cif.got.tgz:17654.got - 2010.06.26 16:48:59.
