data_PCOD8187337
_publ_section_title
;
Structure prediction by ZEFSAII (Michael W. Deem and Ramdas Pophale) SiO2 
 PCOD8187337
Probable space group: F D D 2
;
_chemical_formula_sum "Si O2"
_cell_formula_units_Z 80
_cell_length_a 25.458689
_cell_length_b 15.518290
_cell_length_c 8.993947
_cell_angle_alpha 90.000000
_cell_angle_beta 90.000000
_cell_angle_gamma 90.000000
_cell_volume 3553.286479
_symmetry_space_group_name_H-M "F D D 2"
_symmetry_group_IT_number 43
_symmetry_cell_setting 'orthorhombic'
loop_
_space_group_symop_operation_xyz
x,y,z
-x,-y,z
1/4-x,1/4+y,1/4+z
1/4+x,1/4-y,1/4+z
x,1/2+y,1/2+z
-x,1/2-y,1/2+z
1/4-x,3/4+y,3/4+z
1/4+x,3/4-y,3/4+z
1/2+x,y,1/2+z
1/2-x,-y,1/2+z
3/4-x,1/4+y,3/4+z
3/4+x,1/4-y,3/4+z
1/2+x,1/2+y,z
1/2-x,1/2-y,z
3/4-x,3/4+y,1/4+z
3/4+x,3/4-y,1/4+z
loop_
_atom_site_type_symbol
_atom_site_label
_atom_site_fract_x
_atom_site_fract_y
_atom_site_fract_z
Si Si1 0.653066 0.595526 0.321540
Si Si2 0.442714 0.506492 0.255334
Si Si3 0.563107 0.391452 0.541470
Si Si4 0.168829 0.978500 0.596911
Si Si5 0.239033 0.650278 0.592027
O O1 0.591798 0.580475 0.274357
O O2 0.652948 0.683319 0.414546
O O3 0.673549 0.518553 0.430052
O O4 0.690154 0.608122 0.179672
O O5 0.500000 0.500000 0.172701
O O6 0.458569 0.547930 0.411851
O O7 0.576541 0.298303 0.476566
O O8 0.613081 0.434176 0.618950
O O9 0.518791 0.386593 0.666523
O O10 0.210313 0.904689 0.632228
O O11 0.250000 0.750000 0.632177
#
# Coordination Sequence:
#
# PCOD8187337 Si02
#       5
#    16  16  16  16  16
#     4  10  24  41  63  92 122 164 212 258 317 387
#     4  10  22  42  65  90 126 167 209 260 318 380
#     4  10  22  39  64  92 123 167 212 262 318 387
#     4  10  22  43  63  89 127 169 214 260 322 388
#     4  12  24  39  63  97 130 165 212 270 324 380
#
# _framework density 22.514367
#
# number of rings (size 3 to 8) (size 9 to 14) (size 15 to 20)
#    0.000    1.600    0.000    3.600    0.000   14.400 
#    0.000    0.000    0.000    0.000    0.000    0.000 
#    0.000    0.000    0.000    0.000    0.000    0.000 
#
# Total GULP energy -247970.256507 kJ/mol
# GULP energy per Si atom -12398.512825 kJ/mol
# Density = 2.246312 g / cm^3
# Si number density = 22.514367 Si / 1000 Ang^3
#
#
#
# Elastic Constant Matrix: (Units=GPa)
#
#
# Indices 1 2 3 4 5 6 
#
# 1 107.3296 54.9113 -0.0163 0.0000 0.0000 0.0000
# 2 54.9113 126.4644 13.9003 0.0000 0.0000 0.0000
# 3 -0.0163 13.9003 58.8074 0.0000 0.0000 0.0000
# 4 0.0000 0.0000 0.0000 17.4598 0.0000 0.0000
# 5 0.0000 0.0000 0.0000 0.0000 36.2319 0.0000
# 6 0.0000 0.0000 0.0000 0.0000 0.0000 40.6156
#
#
#
# Elastic Compliance Matrix: (Units=1/GPa)
#
#
# Indices 1 2 3 4 5 6 
#
# 1 0.012070 -0.005381 0.001275 0.000000 0.000000 0.000000
# 2 -0.005381 0.010517 -0.002487 0.000000 0.000000 0.000000
# 3 0.001275 -0.002487 0.017593 0.000000 0.000000 0.000000
# 4 0.000000 0.000000 0.000000 0.057274 0.000000 0.000000
# 5 0.000000 0.000000 0.000000 0.000000 0.027600 0.000000
# 6 0.000000 0.000000 0.000000 0.000000 0.000000 0.024621
#
#
# Mechanical properties :
#
#
# Convention : Reuss Voigt Hill
#
# Bulk Modulus (GPa) = 37.04533 47.79912 42.42222
# Shear Modulus (GPa) = 29.09331 33.78186 31.43759
#
# Velocity S-wave (km/s) = 3.59863 3.87778 3.74081
# Velocity P-wave (km/s) = 5.81005 6.42854 6.12710
#
# Compressibility (1/GPa) = 0.02699396
#
# Stress axis : x y z
#
# Youngs Moduli (GPa) = 82.84750 95.08139 56.84085
#
# Poissons Ratio (x) = 0.51165 -0.07249
# Poissons Ratio (y) = 0.44582 0.14139
# Poissons Ratio (z) = -0.10565 0.23651
#
# Static dielectric constant tensor:
#      x y z
#    x 3.723530 0.000000 0.000000 
#    y 0.000000 4.089960 0.000000 
#    z 0.000000 0.000000 4.054800 
# 
# 
# High freq. dielectric constant tensor:
#      x y z
#    x 1.885990 0.000000 0.000000 
#    y 0.000000 1.887700 0.000000 
#    z 0.000000 0.000000 1.895130 
# 
# From -- ./inp_files/7425.got.cif
#   From: 2010.06.25/outbox.cif.g09.slc.cpg/sg43_4_cif.got.tgz:7425.got - 2010.06.26 16:48:59.
