data_PCOD8187988
_publ_section_title
;
Structure prediction by ZEFSAII (Michael W. Deem and Ramdas Pophale) SiO2 
 PCOD8187988
Probable space group: I M M 2
;
_chemical_formula_sum "Si O2"
_cell_formula_units_Z 56
_cell_length_a 8.915130
_cell_length_b 29.217720
_cell_length_c 13.778550
_cell_angle_alpha 90.000000
_cell_angle_beta 90.000000
_cell_angle_gamma 90.000000
_cell_volume 3589.033564
_symmetry_space_group_name_H-M "I M M 2"
_symmetry_group_IT_number 44
_symmetry_cell_setting 'orthorhombic'
loop_
_space_group_symop_operation_xyz
x,y,z
-x,-y,z
-x,y,z
x,-y,z
1/2+x,1/2+y,1/2+z
1/2-x,1/2-y,1/2+z
1/2-x,1/2+y,1/2+z
1/2+x,1/2-y,1/2+z
loop_
_atom_site_type_symbol
_atom_site_label
_atom_site_fract_x
_atom_site_fract_y
_atom_site_fract_z
Si Si1 0.829652 0.500000 0.978060
Si Si2 0.675653 0.683074 0.866710
Si Si3 0.170929 0.400559 0.957239
Si Si4 0.175729 0.591477 0.182379
Si Si5 0.178474 0.769811 0.960499
Si Si6 0.321710 0.181936 0.789530
Si Si7 0.674636 0.500000 0.177218
Si Si8 0.175368 0.230736 0.175881
O O1 0.808605 0.547034 0.917229
O O2 0.000000 0.500000 0.022851
O O3 0.709076 0.500000 0.063214
O O4 0.500000 0.690598 0.885582
O O5 0.721931 0.631855 0.895046
O O6 0.713991 0.690480 0.752583
O O7 0.765721 0.719446 0.930935
O O8 0.000000 0.383953 0.944070
O O9 0.217444 0.398834 0.070285
O O10 0.232641 0.633563 0.247520
O O11 0.255701 0.546010 0.223461
O O12 0.000000 0.584158 0.193118
O O13 0.240267 0.779876 0.069331
O O14 0.000000 0.771150 0.952939
O O15 0.247718 0.809779 0.894268
O O16 0.500000 0.184379 0.801038
O O17 0.261207 0.221284 0.717048
O O18 0.500000 0.500000 0.197424
O O19 0.000000 0.236964 0.163517
#
# Coordination Sequence:
#
# PCOD8187988 Si02
#       8
#     4   8   8   8   8   8   4   8
#     4   8  16  30  44  58  85 120 145 166 211 272
#     4  10  19  30  43  62  87 114 143 175 211 252
#     4   9  16  28  45  64  84 112 146 174 204 251
#     4   9  17  30  46  61  87 123 147 166 211 271
#     4  10  18  30  46  62  83 113 146 178 209 248
#     4   9  17  30  46  64  85 112 145 177 209 251
#     4  10  18  26  40  64  91 112 143 186 213 238
#     4   8  16  30  44  58  83 116 142 166 207 256
#
# _framework density 15.603085
#
# number of rings (size 3 to 8) (size 9 to 14) (size 15 to 20)
#    0.000    2.857    0.000    4.071    0.000    5.143 
#    0.000   10.000    0.000    0.000    0.000    1.000 
#    0.000    4.571    0.000    0.000    0.000    0.000 
#
# Total GULP energy -347039.268109 kJ/mol
# GULP energy per Si atom -12394.259575 kJ/mol
# Density = 1.556757 g / cm^3
# Si number density = 15.603085 Si / 1000 Ang^3
#
#
#
# Elastic Constant Matrix: (Units=GPa)
#
#
# Indices 1 2 3 4 5 6 
#
# 1 46.7941 37.6316 30.2968 0.0002 0.0000 0.0000
# 2 37.6316 133.0924 57.5208 0.0001 0.0000 0.0000
# 3 30.2968 57.5208 103.2615 0.0009 0.0000 0.0000
# 4 0.0002 0.0001 0.0009 24.1873 0.0000 0.0000
# 5 0.0000 0.0000 0.0000 0.0000 20.4572 0.0001
# 6 0.0000 0.0000 0.0000 0.0000 0.0001 26.3032
#
#
#
# Elastic Compliance Matrix: (Units=1/GPa)
#
#
# Indices 1 2 3 4 5 6 
#
# 1 0.029725 -0.006105 -0.005320 0.000000 0.000000 0.000000
# 2 -0.006105 0.011150 -0.004420 0.000000 0.000000 0.000000
# 3 -0.005320 -0.004420 0.013707 0.000000 0.000000 0.000000
# 4 0.000000 0.000000 0.000000 0.041344 0.000000 0.000000
# 5 0.000000 0.000000 0.000000 0.000000 0.048883 0.000000
# 6 0.000000 0.000000 0.000000 0.000000 0.000000 0.038018
#
#
# Mechanical properties :
#
#
# Convention : Reuss Voigt Hill
#
# Bulk Modulus (GPa) = 43.68496 59.33848 51.51172
# Shear Modulus (GPa) = 22.50760 24.70280 23.60520
#
# Velocity S-wave (km/s) = 3.80216 3.98326 3.89376
# Velocity P-wave (km/s) = 6.87994 7.69855 7.30073
#
# Compressibility (1/GPa) = 0.02289117
#
# Stress axis : x y z
#
# Youngs Moduli (GPa) = 33.64220 89.68656 72.95498
#
# Poissons Ratio (x) = 0.54755 0.38814
# Poissons Ratio (y) = 0.20539 0.32244
# Poissons Ratio (z) = 0.17899 0.39639
#
# Static dielectric constant tensor:
#      x y z
#    x 2.834240 0.000000 0.000000 
#    y 0.000000 3.139540 0.000000 
#    z 0.000000 0.000000 2.943400 
# 
# 
# High freq. dielectric constant tensor:
#      x y z
#    x 1.591320 0.000000 0.000000 
#    y 0.000000 1.598620 0.000000 
#    z 0.000000 0.000000 1.567140 
# 
# From -- ./inp_files/17063.got.cif
#   From: 2010.03.12/outbox.cif.g09.slc.cpg/sg44_9_cif.got.tgz:17063.got - 2010.04.14 02:36:11.
