data_PCOD8187203
_publ_section_title
;
Structure prediction by ZEFSAII (Michael W. Deem and Ramdas Pophale) SiO2 
 PCOD8187203
Probable space group: F D D 2
;
_chemical_formula_sum "Si O2"
_cell_formula_units_Z 96
_cell_length_a 23.105602
_cell_length_b 14.424162
_cell_length_c 13.586264
_cell_angle_alpha 90.000000
_cell_angle_beta 90.000000
_cell_angle_gamma 90.000000
_cell_volume 4528.015751
_symmetry_space_group_name_H-M "F D D 2"
_symmetry_group_IT_number 43
_symmetry_cell_setting 'orthorhombic'
loop_
_space_group_symop_operation_xyz
x,y,z
-x,-y,z
1/4-x,1/4+y,1/4+z
1/4+x,1/4-y,1/4+z
x,1/2+y,1/2+z
-x,1/2-y,1/2+z
1/4-x,3/4+y,3/4+z
1/4+x,3/4-y,3/4+z
1/2+x,y,1/2+z
1/2-x,-y,1/2+z
3/4-x,1/4+y,3/4+z
3/4+x,1/4-y,3/4+z
1/2+x,1/2+y,z
1/2-x,1/2-y,z
3/4-x,3/4+y,1/4+z
3/4+x,3/4-y,1/4+z
loop_
_atom_site_type_symbol
_atom_site_label
_atom_site_fract_x
_atom_site_fract_y
_atom_site_fract_z
Si Si1 0.562631 0.478852 0.361270
Si Si2 0.156469 0.085255 0.064090
Si Si3 0.019310 0.598969 0.245910
Si Si4 0.853135 0.082346 0.197025
Si Si5 0.372948 0.712191 0.606069
Si Si6 0.485530 0.643889 0.533241
O O1 0.500000 0.500000 0.309882
O O2 0.600616 0.415557 0.287025
O O3 0.600961 0.569699 0.389183
O O4 0.546676 0.430520 0.464320
O O5 0.146721 0.182061 0.119567
O O6 0.129316 0.000752 0.124672
O O7 0.225821 0.073950 0.042386
O O8 0.122583 0.088952 0.960812
O O9 0.085214 0.605783 0.284603
O O10 0.000000 0.500000 0.287796
O O11 0.015367 0.596342 0.128077
O O12 0.788370 0.055238 0.229994
O O13 0.437999 0.718802 0.564024
#
# Coordination Sequence:
#
# PCOD8187203 Si02
#       6
#    16  16  16  16  16  16
#     4  10  23  43  65  93 127 170 216 271 321 386
#     4  10  22  37  58  88 129 163 208 256 317 393
#     4   9  18  36  58  84 118 155 203 262 309 360
#     4  11  22  42  61  91 131 167 213 261 326 390
#     4  10  21  38  61  90 122 165 209 266 318 375
#     4  10  21  38  65  92 119 160 219 268 315 376
#
# _framework density 21.201339999999998
#
# number of rings (size 3 to 8) (size 9 to 14) (size 15 to 20)
#    0.000    2.000    0.000    3.500    2.333    2.667 
#   18.000    2.500    0.000    0.000    0.000    0.000 
#    0.000    0.000    0.000    0.000    0.000    0.000 
#
# Total GULP energy -297388.548672 kJ/mol
# GULP energy per Si atom -12391.189528 kJ/mol
# Density = 2.115308 g / cm^3
# Si number density = 21.201340 Si / 1000 Ang^3
#
#
#
# Elastic Constant Matrix: (Units=GPa)
#
#
# Indices 1 2 3 4 5 6 
#
# 1 105.4553 21.7981 43.9084 0.0000 0.0000 0.0000
# 2 21.7981 63.1521 21.7231 0.0000 0.0000 0.0000
# 3 43.9084 21.7231 90.1421 0.0000 0.0000 0.0000
# 4 0.0000 0.0000 0.0000 21.4435 0.0000 0.0000
# 5 0.0000 0.0000 0.0000 0.0000 36.7925 0.0000
# 6 0.0000 0.0000 0.0000 0.0000 0.0000 27.3587
#
#
#
# Elastic Compliance Matrix: (Units=1/GPa)
#
#
# Indices 1 2 3 4 5 6 
#
# 1 0.012211 -0.002365 -0.005378 0.000000 0.000000 0.000000
# 2 -0.002365 0.017724 -0.003119 0.000000 0.000000 0.000000
# 3 -0.005378 -0.003119 0.014465 0.000000 0.000000 0.000000
# 4 0.000000 0.000000 0.000000 0.046634 0.000000 0.000000
# 5 0.000000 0.000000 0.000000 0.000000 0.027179 0.000000
# 6 0.000000 0.000000 0.000000 0.000000 0.000000 0.036551
#
#
# Mechanical properties :
#
#
# Convention : Reuss Voigt Hill
#
# Bulk Modulus (GPa) = 44.10066 48.17873 46.13970
# Shear Modulus (GPa) = 27.16687 28.54027 27.85357
#
# Velocity S-wave (km/s) = 3.58351 3.67298 3.62852
# Velocity P-wave (km/s) = 6.16183 6.38447 6.27413
#
# Compressibility (1/GPa) = 0.02267540
#
# Stress axis : x y z
#
# Youngs Moduli (GPa) = 81.89511 56.42052 69.13263
#
# Poissons Ratio (x) = 0.13343 0.37179
# Poissons Ratio (y) = 0.19367 0.21565
# Poissons Ratio (z) = 0.44043 0.17599
#
# Static dielectric constant tensor:
#      x y z
#    x 4.191090 0.000000 0.000000 
#    y 0.000000 3.458800 0.000000 
#    z 0.000000 0.000000 3.737380 
# 
# 
# High freq. dielectric constant tensor:
#      x y z
#    x 1.836480 0.000000 0.000000 
#    y 0.000000 1.808140 0.000000 
#    z 0.000000 0.000000 1.829050 
# 
# From -- ./inp_files/7524.got.cif
#   From: 2010.06.25/outbox.cif.g09.slc.cpg/sg43_4_cif.got.tgz:7524.got - 2010.06.26 16:48:59.
