data_PCOD8187407
_publ_section_title
;
Structure prediction by ZEFSAII (Michael W. Deem and Ramdas Pophale) SiO2 
 PCOD8187407
Probable space group: F D D 2
;
_chemical_formula_sum "Si O2"
_cell_formula_units_Z 64
_cell_length_a 13.681224
_cell_length_b 13.097990
_cell_length_c 12.508314
_cell_angle_alpha 90.000000
_cell_angle_beta 90.000000
_cell_angle_gamma 90.000000
_cell_volume 2241.446529
_symmetry_space_group_name_H-M "F D D 2"
_symmetry_group_IT_number 43
_symmetry_cell_setting 'orthorhombic'
loop_
_space_group_symop_operation_xyz
x,y,z
-x,-y,z
1/4-x,1/4+y,1/4+z
1/4+x,1/4-y,1/4+z
x,1/2+y,1/2+z
-x,1/2-y,1/2+z
1/4-x,3/4+y,3/4+z
1/4+x,3/4-y,3/4+z
1/2+x,y,1/2+z
1/2-x,-y,1/2+z
3/4-x,1/4+y,3/4+z
3/4+x,1/4-y,3/4+z
1/2+x,1/2+y,z
1/2-x,1/2-y,z
3/4-x,3/4+y,1/4+z
3/4+x,3/4-y,1/4+z
loop_
_atom_site_type_symbol
_atom_site_label
_atom_site_fract_x
_atom_site_fract_y
_atom_site_fract_z
Si Si1 0.072313 0.753842 0.639180
Si Si2 0.205064 0.428372 0.171528
Si Si3 0.363101 0.275573 0.368151
Si Si4 0.922678 0.413361 0.057961
O O1 0.071610 0.667137 0.547698
O O2 0.164239 0.828654 0.614076
O O3 0.084704 0.701252 0.754068
O O4 0.973799 0.823729 0.628610
O O5 0.322773 0.430638 0.164855
O O6 0.162686 0.536535 0.129591
O O7 0.250000 0.250000 0.355031
O O8 0.374792 0.371793 0.447963
O O9 0.000000 0.500000 0.025254
#
# Coordination Sequence:
#
# PCOD8187407 Si02
#       4
#    16  16  16  16
#     4  10  22  42  69  98 134 182 237 295 354 426
#     4  10  22  44  68  95 136 191 235 279 357 449
#     4  11  25  42  69 108 145 177 232 309 364 410
#     4   9  21  46  75  97 134 192 246 285 351 447
#
# _framework density 28.552990000000001
#
# number of rings (size 3 to 8) (size 9 to 14) (size 15 to 20)
#    0.000    2.000    0.000    1.500    0.000    9.000 
#    0.000   32.500    0.000    6.000    0.000    0.000 
#    0.000    0.000    0.000    0.000    0.000    0.000 
#
# Total GULP energy -198361.207201 kJ/mol
# GULP energy per Si atom -12397.575450 kJ/mol
# Density = 2.848800 g / cm^3
# Si number density = 28.552990 Si / 1000 Ang^3
#
#
#
# Elastic Constant Matrix: (Units=GPa)
#
#
# Indices 1 2 3 4 5 6 
#
# 1 148.2187 34.4314 74.6826 0.0000 0.0000 0.0000
# 2 34.4314 58.2265 28.1482 0.0000 0.0000 0.0000
# 3 74.6826 28.1482 202.4557 0.0000 0.0000 0.0000
# 4 0.0000 0.0000 0.0000 57.8042 0.0000 0.0000
# 5 0.0000 0.0000 0.0000 0.0000 47.3420 0.0000
# 6 0.0000 0.0000 0.0000 0.0000 0.0000 24.6264
#
#
#
# Elastic Compliance Matrix: (Units=1/GPa)
#
#
# Indices 1 2 3 4 5 6 
#
# 1 0.009089 -0.004024 -0.002793 0.000000 0.000000 0.000000
# 2 -0.004024 0.020194 -0.001323 0.000000 0.000000 0.000000
# 3 -0.002793 -0.001323 0.006154 0.000000 0.000000 0.000000
# 4 0.000000 0.000000 0.000000 0.017300 0.000000 0.000000
# 5 0.000000 0.000000 0.000000 0.000000 0.021123 0.000000
# 6 0.000000 0.000000 0.000000 0.000000 0.000000 0.040607
#
#
# Mechanical properties :
#
#
# Convention : Reuss Voigt Hill
#
# Bulk Modulus (GPa) = 52.20570 75.93614 64.07092
# Shear Modulus (GPa) = 36.46110 44.06377 40.26243
#
# Velocity S-wave (km/s) = 3.57734 3.93266 3.75920
# Velocity P-wave (km/s) = 5.94867 6.87558 6.42885
#
# Compressibility (1/GPa) = 0.01915500
#
# Stress axis : x y z
#
# Youngs Moduli (GPa) = 110.02186 49.52049 162.50365
#
# Poissons Ratio (x) = 0.19929 0.45392
# Poissons Ratio (y) = 0.44277 0.21501
# Poissons Ratio (z) = 0.30732 0.06552
#
# Static dielectric constant tensor:
#      x y z
#    x 5.580250 0.000000 0.000000 
#    y 0.000000 5.161000 0.000000 
#    z 0.000000 0.000000 5.296210 
# 
# 
# High freq. dielectric constant tensor:
#      x y z
#    x 2.175340 0.000000 0.000000 
#    y 0.000000 2.167290 0.000000 
#    z 0.000000 0.000000 2.161160 
# 
# From -- ./inp_files/5943.got.cif
#   From: 2010.06.25/outbox.cif.g09.slc.cpg/sg43_3_cif.got.tgz:5943.got - 2010.06.26 16:48:59.
