data_PCOD8187016
_publ_section_title
;
Structure prediction by ZEFSAII (Michael W. Deem and Ramdas Pophale) SiO2 
 PCOD8187016
Probable space group: F D D 2
;
_chemical_formula_sum "Si O2"
_cell_formula_units_Z 112
_cell_length_a 18.581803
_cell_length_b 11.819166
_cell_length_c 21.405440
_cell_angle_alpha 90.000000
_cell_angle_beta 90.000000
_cell_angle_gamma 90.000000
_cell_volume 4701.093005
_symmetry_space_group_name_H-M "F D D 2"
_symmetry_group_IT_number 43
_symmetry_cell_setting 'orthorhombic'
loop_
_space_group_symop_operation_xyz
x,y,z
-x,-y,z
1/4-x,1/4+y,1/4+z
1/4+x,1/4-y,1/4+z
x,1/2+y,1/2+z
-x,1/2-y,1/2+z
1/4-x,3/4+y,3/4+z
1/4+x,3/4-y,3/4+z
1/2+x,y,1/2+z
1/2-x,-y,1/2+z
3/4-x,1/4+y,3/4+z
3/4+x,1/4-y,3/4+z
1/2+x,1/2+y,z
1/2-x,1/2-y,z
3/4-x,3/4+y,1/4+z
3/4+x,3/4-y,1/4+z
loop_
_atom_site_type_symbol
_atom_site_label
_atom_site_fract_x
_atom_site_fract_y
_atom_site_fract_z
Si Si1 0.746988 0.573987 0.741450
Si Si2 0.632207 0.067420 0.335420
Si Si3 0.396064 0.117659 0.683857
Si Si4 0.442211 0.416518 0.956238
Si Si5 0.318948 0.308190 0.629267
Si Si6 0.618015 0.801127 0.330014
Si Si7 0.710139 0.010793 0.041408
O O1 0.714696 0.586606 0.811966
O O2 0.831360 0.599788 0.733971
O O3 0.733787 0.448159 0.718057
O O4 0.701006 0.660308 0.700142
O O5 0.623018 0.106066 0.407375
O O6 0.577546 0.137170 0.289380
O O7 0.611839 0.935640 0.333158
O O8 0.381775 0.215298 0.632336
O O9 0.461927 0.168095 0.725545
O O10 0.406974 0.003587 0.642023
O O11 0.500000 0.500000 0.924169
O O12 0.414353 0.477913 0.018783
O O13 0.250000 0.250000 0.595759
O O14 0.339977 0.417472 0.589234
O O15 0.539285 0.747143 0.321236
#
# Coordination Sequence:
#
# PCOD8187016 Si02
#       7
#    16  16  16  16  16  16  16
#     4  10  20  40  65  98 129 169 221 275 337 408
#     4  11  22  40  72  97 131 178 226 282 343 409
#     4  11  23  42  69  96 140 178 222 282 345 405
#     4  11  23  43  68  91 135 182 225 277 342 402
#     4  10  19  38  62  89 130 168 216 272 333 400
#     4  11  25  44  64 102 135 178 229 278 338 416
#     4  12  22  40  72  97 130 182 224 279 343 402
#
# _framework density 23.824247
#
# number of rings (size 3 to 8) (size 9 to 14) (size 15 to 20)
#    0.000    1.143    5.714    2.143    0.000    2.286 
#    7.714    0.000    3.143    0.000    0.000    0.000 
#    0.000    0.000    0.000    0.000    0.000    0.000 
#
# Total GULP energy -346896.577466 kJ/mol
# GULP energy per Si atom -12389.163481 kJ/mol
# Density = 2.377002 g / cm^3
# Si number density = 23.824247 Si / 1000 Ang^3
#
#
#
# Elastic Constant Matrix: (Units=GPa)
#
#
# Indices 1 2 3 4 5 6 
#
# 1 31.7095 11.2535 16.1396 0.0000 0.0000 0.0000
# 2 11.2535 122.3673 30.0750 0.0000 0.0000 0.0000
# 3 16.1396 30.0750 100.8542 0.0000 0.0000 0.0000
# 4 0.0000 0.0000 0.0000 34.5255 0.0000 0.0000
# 5 0.0000 0.0000 0.0000 0.0000 23.9155 0.0000
# 6 0.0000 0.0000 0.0000 0.0000 0.0000 16.5615
#
#
#
# Elastic Compliance Matrix: (Units=1/GPa)
#
#
# Indices 1 2 3 4 5 6 
#
# 1 0.034769 -0.001975 -0.004975 0.000000 0.000000 0.000000
# 2 -0.001975 0.008931 -0.002347 0.000000 0.000000 0.000000
# 3 -0.004975 -0.002347 0.011411 0.000000 0.000000 0.000000
# 4 0.000000 0.000000 0.000000 0.028964 0.000000 0.000000
# 5 0.000000 0.000000 0.000000 0.000000 0.041814 0.000000
# 6 0.000000 0.000000 0.000000 0.000000 0.000000 0.060381
#
#
# Mechanical properties :
#
#
# Convention : Reuss Voigt Hill
#
# Bulk Modulus (GPa) = 27.38436 41.09634 34.24035
# Shear Modulus (GPa) = 23.03755 28.16470 25.60113
#
# Velocity S-wave (km/s) = 3.11300 3.44202 3.28164
# Velocity P-wave (km/s) = 4.94372 5.75186 5.36303
#
# Compressibility (1/GPa) = 0.03651720
#
# Stress axis : x y z
#
# Youngs Moduli (GPa) = 28.76094 111.97465 87.63173
#
# Poissons Ratio (x) = 0.22112 0.43599
# Poissons Ratio (y) = 0.05680 0.20568
# Poissons Ratio (z) = 0.14309 0.26282
#
# Static dielectric constant tensor:
#      x y z
#    x 4.021160 0.000000 0.000000 
#    y 0.000000 4.635530 0.000000 
#    z 0.000000 0.000000 4.400200 
# 
# 
# High freq. dielectric constant tensor:
#      x y z
#    x 1.905210 0.000000 0.000000 
#    y 0.000000 1.968320 0.000000 
#    z 0.000000 0.000000 1.935440 
# 
# From -- ./inp_files/22398.got.cif
#   From: 2010.06.25/outbox.cif.g09.slc.cpg/sg43_12_cif.got.tgz:22398.got - 2010.06.26 16:48:59.
