data_PCOD8187607
_publ_section_title
;
Structure prediction by ZEFSAII (Michael W. Deem and Ramdas Pophale) SiO2 
 PCOD8187607
Probable space group: F D D 2
;
_chemical_formula_sum "Si O2"
_cell_formula_units_Z 56
_cell_length_a 33.063250
_cell_length_b 14.268288
_cell_length_c 4.889869
_cell_angle_alpha 90.000000
_cell_angle_beta 90.000000
_cell_angle_gamma 90.000000
_cell_volume 2306.824909
_symmetry_space_group_name_H-M "F D D 2"
_symmetry_group_IT_number 43
_symmetry_cell_setting 'orthorhombic'
loop_
_space_group_symop_operation_xyz
x,y,z
-x,-y,z
1/4-x,1/4+y,1/4+z
1/4+x,1/4-y,1/4+z
x,1/2+y,1/2+z
-x,1/2-y,1/2+z
1/4-x,3/4+y,3/4+z
1/4+x,3/4-y,3/4+z
1/2+x,y,1/2+z
1/2-x,-y,1/2+z
3/4-x,1/4+y,3/4+z
3/4+x,1/4-y,3/4+z
1/2+x,1/2+y,z
1/2-x,1/2-y,z
3/4-x,3/4+y,1/4+z
3/4+x,3/4-y,1/4+z
loop_
_atom_site_type_symbol
_atom_site_label
_atom_site_fract_x
_atom_site_fract_y
_atom_site_fract_z
Si Si1 0.768524 0.547967 0.197070
Si Si2 0.000000 0.000000 0.082303
Si Si3 0.849509 0.116214 0.569820
Si Si4 0.165833 0.762874 0.078183
O O1 0.756482 0.519279 0.501595
O O2 0.758572 0.658268 0.148228
O O3 0.817321 0.537541 0.172505
O O4 0.960566 0.024255 0.262844
O O5 0.829036 0.155841 0.297466
O O6 0.891432 0.069985 0.477664
O O7 0.856403 0.195857 0.804677
#
# Coordination Sequence:
#
# PCOD8187607 Si02
#       4
#    16   8  16  16
#     4  11  25  46  76 106 142 192 245 299 366 437
#     4  10  26  50  76 106 150 192 246 300 366 434
#     4  11  25  47  70 109 143 187 249 293 378 438
#     4  11  25  48  72 106 146 191 241 305 369 435
#
# _framework density 24.275793
#
# number of rings (size 3 to 8) (size 9 to 14) (size 15 to 20)
#    0.000    1.143    0.000    5.143    4.000   10.286 
#    5.143    0.000    0.000    0.000    0.000    0.000 
#    0.000    0.000    0.000    0.000    0.000    0.000 
#
# Total GULP energy -173569.035594 kJ/mol
# GULP energy per Si atom -12397.788257 kJ/mol
# Density = 2.422054 g / cm^3
# Si number density = 24.275793 Si / 1000 Ang^3
#
#
#
# Elastic Constant Matrix: (Units=GPa)
#
#
# Indices 1 2 3 4 5 6 
#
# 1 165.1318 47.2238 44.9492 0.0009 0.0003 0.0006
# 2 47.2238 91.4239 25.0268 0.0005 -0.0002 0.0002
# 3 44.9492 25.0268 116.1585 0.0015 -0.0019 0.0008
# 4 0.0009 0.0005 0.0015 29.7294 -0.0002 0.0005
# 5 0.0003 -0.0002 -0.0019 -0.0002 31.3921 0.0005
# 6 0.0006 0.0002 0.0008 0.0005 0.0005 24.3386
#
#
#
# Elastic Compliance Matrix: (Units=1/GPa)
#
#
# Indices 1 2 3 4 5 6 
#
# 1 0.007613 -0.003322 -0.002230 0.000000 0.000000 0.000000
# 2 -0.003322 0.013073 -0.001531 0.000000 0.000000 0.000000
# 3 -0.002230 -0.001531 0.009802 0.000000 0.000001 0.000000
# 4 0.000000 0.000000 0.000000 0.033637 0.000000 -0.000001
# 5 0.000000 0.000000 0.000001 0.000000 0.031855 -0.000001
# 6 0.000000 0.000000 0.000000 -0.000001 -0.000001 0.041087
#
#
# Mechanical properties :
#
#
# Convention : Reuss Voigt Hill
#
# Bulk Modulus (GPa) = 61.26972 67.45711 64.36341
# Shear Modulus (GPa) = 31.91354 34.12632 33.01993
#
# Velocity S-wave (km/s) = 3.62971 3.75344 3.69209
# Velocity P-wave (km/s) = 6.54677 6.82880 6.68927
#
# Compressibility (1/GPa) = 0.01632128
#
# Stress axis : x y z
#
# Youngs Moduli (GPa) = 131.35807 76.49327 102.02170
#
# Poissons Ratio (x) = 0.25409 0.22753
# Poissons Ratio (y) = 0.43634 0.15622
# Poissons Ratio (z) = 0.29295 0.11713
#
# Static dielectric constant tensor:
#      x y z
#    x 4.408460 0.000000 0.000000 
#    y 0.000000 4.283200 0.000000 
#    z 0.000000 0.000000 4.490530 
# 
# 
# High freq. dielectric constant tensor:
#      x y z
#    x 1.972350 0.000000 0.000000 
#    y 0.000000 1.954310 0.000000 
#    z 0.000000 0.000000 1.974580 
# 
# From -- ./inp_files/321.got.cif
#   From: 2010.06.25/outbox.cif.g09.slc.cpg/sg43_1_cif.got.tgz:321.got - 2010.06.26 16:48:59.
