data_PCOD8187122
_publ_section_title
;
Structure prediction by ZEFSAII (Michael W. Deem and Ramdas Pophale) SiO2 
 PCOD8187122
Probable space group: F D D 2
;
_chemical_formula_sum "Si O2"
_cell_formula_units_Z 112
_cell_length_a 24.078328
_cell_length_b 13.576875
_cell_length_c 13.965823
_cell_angle_alpha 90.000000
_cell_angle_beta 90.000000
_cell_angle_gamma 90.000000
_cell_volume 4565.545542
_symmetry_space_group_name_H-M "F D D 2"
_symmetry_group_IT_number 43
_symmetry_cell_setting 'orthorhombic'
loop_
_space_group_symop_operation_xyz
x,y,z
-x,-y,z
1/4-x,1/4+y,1/4+z
1/4+x,1/4-y,1/4+z
x,1/2+y,1/2+z
-x,1/2-y,1/2+z
1/4-x,3/4+y,3/4+z
1/4+x,3/4-y,3/4+z
1/2+x,y,1/2+z
1/2-x,-y,1/2+z
3/4-x,1/4+y,3/4+z
3/4+x,1/4-y,3/4+z
1/2+x,1/2+y,z
1/2-x,1/2-y,z
3/4-x,3/4+y,1/4+z
3/4+x,3/4-y,1/4+z
loop_
_atom_site_type_symbol
_atom_site_label
_atom_site_fract_x
_atom_site_fract_y
_atom_site_fract_z
Si Si1 0.404957 0.630476 0.476400
Si Si2 0.566625 0.467977 0.295042
Si Si3 0.191313 0.984871 0.255852
Si Si4 0.070987 0.184900 0.297306
Si Si5 0.190209 0.231591 0.334908
Si Si6 0.557227 0.542395 0.607915
Si Si7 0.955542 0.802889 0.096151
O O1 0.443509 0.607171 0.382698
O O2 0.405558 0.538428 0.550201
O O3 0.342411 0.658266 0.443641
O O4 0.428463 0.728205 0.523213
O O5 0.631416 0.493632 0.301261
O O6 0.539867 0.577315 0.309973
O O7 0.550325 0.428377 0.189498
O O8 0.190847 0.998977 0.141358
O O9 0.213749 0.875764 0.282851
O O10 0.230498 0.068169 0.306611
O O11 0.139138 0.178276 0.280312
O O12 0.044882 0.239688 0.205003
O O13 0.250000 0.250000 0.281891
O O14 0.170717 0.345803 0.351928
O O15 0.500000 0.500000 0.651466
#
# Coordination Sequence:
#
# PCOD8187122 Si02
#       7
#    16  16  16  16  16  16  16
#     4  11  24  42  71 100 139 182 237 287 357 425
#     4   9  20  39  64  94 122 167 229 291 334 399
#     4  10  20  40  64  95 128 180 230 285 340 415
#     4  10  21  41  63  90 135 176 225 289 347 409
#     4  10  22  39  63  92 129 176 225 275 347 422
#     4  11  23  45  70 101 142 183 234 300 353 423
#     4  11  24  39  62  98 137 175 228 282 352 419
#
# _framework density 24.531571
#
# number of rings (size 3 to 8) (size 9 to 14) (size 15 to 20)
#    0.000    1.714    2.857    0.857    2.000    2.857 
#    5.143    0.714    0.000    0.000    0.000    0.000 
#    0.000    0.000    0.000    0.000    0.000    0.000 
#
# Total GULP energy -346935.592208 kJ/mol
# GULP energy per Si atom -12390.556865 kJ/mol
# Density = 2.447574 g / cm^3
# Si number density = 24.531571 Si / 1000 Ang^3
#
#
#
# Elastic Constant Matrix: (Units=GPa)
#
#
# Indices 1 2 3 4 5 6 
#
# 1 50.8197 -28.5667 23.8293 0.0000 0.0000 0.0000
# 2 -28.5667 52.2870 17.3111 0.0000 0.0000 0.0000
# 3 23.8293 17.3111 127.6072 0.0000 0.0000 0.0000
# 4 0.0000 0.0000 0.0000 41.1898 0.0000 0.0000
# 5 0.0000 0.0000 0.0000 0.0000 32.9105 0.0000
# 6 0.0000 0.0000 0.0000 0.0000 0.0000 33.5951
#
#
#
# Elastic Compliance Matrix: (Units=1/GPa)
#
#
# Indices 1 2 3 4 5 6 
#
# 1 0.038283 0.024378 -0.010456 0.000000 0.000000 0.000000
# 2 0.024378 0.035547 -0.009375 0.000000 0.000000 0.000000
# 3 -0.010456 -0.009375 0.011061 0.000000 0.000000 0.000000
# 4 0.000000 0.000000 0.000000 0.024278 0.000000 0.000000
# 5 0.000000 0.000000 0.000000 0.000000 0.030385 0.000000
# 6 0.000000 0.000000 0.000000 0.000000 0.000000 0.029766
#
#
# Mechanical properties :
#
#
# Convention : Reuss Voigt Hill
#
# Bulk Modulus (GPa) = 10.63992 28.42902 19.53447
# Shear Modulus (GPa) = 26.10205 36.08177 31.09191
#
# Velocity S-wave (km/s) = 3.26547 3.83930 3.56395
# Velocity P-wave (km/s) = 4.30864 5.59174 4.99159
#
# Compressibility (1/GPa) = 0.09398571
#
# Stress axis : x y z
#
# Youngs Moduli (GPa) = 26.12100 28.13138 90.40899
#
# Poissons Ratio (x) = -0.68578 0.94532
# Poissons Ratio (y) = -0.63677 0.84755
# Poissons Ratio (z) = 0.27312 0.26372
#
# Static dielectric constant tensor:
#      x y z
#    x 4.731390 0.000000 0.000000 
#    y 0.000000 4.604330 0.000000 
#    z 0.000000 0.000000 4.149110 
# 
# 
# High freq. dielectric constant tensor:
#      x y z
#    x 1.989280 0.000000 0.000000 
#    y 0.000000 1.979380 0.000000 
#    z 0.000000 0.000000 1.951080 
# 
# From -- ./inp_files/10210.got.cif
#   From: 2010.06.25/outbox.cif.g09.slc.cpg/sg43_6_cif.got.tgz:10210.got - 2010.06.26 16:48:59.
