data_PCOD8187886
_publ_section_title
;
Structure prediction by ZEFSAII (Michael W. Deem and Ramdas Pophale) SiO2 
 PCOD8187886
Probable space group: I M M 2
;
_chemical_formula_sum "Si O2"
_cell_formula_units_Z 64
_cell_length_a 21.675423
_cell_length_b 8.990714
_cell_length_c 21.945379
_cell_angle_alpha 90.000000
_cell_angle_beta 90.000000
_cell_angle_gamma 90.000000
_cell_volume 4276.661233
_symmetry_space_group_name_H-M "I M M 2"
_symmetry_group_IT_number 44
_symmetry_cell_setting 'orthorhombic'
loop_
_space_group_symop_operation_xyz
x,y,z
-x,-y,z
-x,y,z
x,-y,z
1/2+x,1/2+y,1/2+z
1/2-x,1/2-y,1/2+z
1/2-x,1/2+y,1/2+z
1/2+x,1/2-y,1/2+z
loop_
_atom_site_type_symbol
_atom_site_label
_atom_site_fract_x
_atom_site_fract_y
_atom_site_fract_z
Si Si1 0.750071 0.671677 0.713210
Si Si2 0.836722 0.171124 0.111406
Si Si3 0.351273 0.835774 0.295255
Si Si4 0.672054 0.677412 0.476384
Si Si5 0.760180 0.168431 0.389954
Si Si6 0.341943 0.175213 0.800552
Si Si7 0.570790 0.675477 0.714183
Si Si8 0.431420 0.325009 0.383126
O O1 0.734315 0.500000 0.732943
O O2 0.731235 0.692772 0.642337
O O3 0.822953 0.702568 0.727749
O O4 0.709482 0.788299 0.750425
O O5 0.890175 0.235378 0.155777
O O6 0.852159 0.000000 0.100676
O O7 0.836725 0.244413 0.044425
O O8 0.292037 0.826405 0.338588
O O9 0.404355 0.724432 0.317406
O O10 0.380613 0.000000 0.296035
O O11 0.678663 0.500000 0.474670
O O12 0.734660 0.746549 0.449349
O O13 0.612514 0.731661 0.437591
O O14 0.821512 0.250933 0.364849
O O15 0.777267 0.000000 0.407807
O O16 0.406344 0.243736 0.776016
O O17 0.348681 0.000000 0.809817
O O18 0.500000 0.716877 0.702610
O O19 0.580986 0.500000 0.722806
O O20 0.500000 0.258180 0.392440
O O21 0.434515 0.500000 0.382531
#
# Coordination Sequence:
#
# PCOD8187886 Si02
#       8
#     8   8   8   8   8   8   8   8
#     4   8  14  26  41  57  77 100 127 160 202 246
#     4   8  14  25  41  59  79 105 136 167 195 229
#     4   8  14  24  39  55  70  93 126 162 196 232
#     4   9  16  26  40  58  80 106 137 168 197 230
#     4   9  16  27  41  56  76 101 130 164 204 247
#     4  10  17  25  40  60  79  99 128 169 213 247
#     4   9  17  29  43  58  80 113 147 172 198 237
#     4   9  17  26  35  51  77 105 131 161 193 223
#
# _framework density 14.964945
#
# number of rings (size 3 to 8) (size 9 to 14) (size 15 to 20)
#    0.000    3.250    0.000    3.000    0.000    4.000 
#    0.000    5.000    0.000    0.000    0.000    5.250 
#    0.000    1.000    0.000    9.250    0.000    3.875 
#
# Total GULP energy -396427.672076 kJ/mol
# GULP energy per Si atom -12388.364752 kJ/mol
# Density = 1.493088 g / cm^3
# Si number density = 14.964945 Si / 1000 Ang^3
#
#
#
# Elastic Constant Matrix: (Units=GPa)
#
#
# Indices 1 2 3 4 5 6 
#
# 1 69.7657 25.6474 71.4250 0.0000 0.0000 0.0000
# 2 25.6474 46.9751 26.2722 0.0000 0.0000 0.0000
# 3 71.4250 26.2722 83.0335 0.0000 0.0000 0.0000
# 4 0.0000 0.0000 0.0000 15.7992 0.0000 0.0000
# 5 0.0000 0.0000 0.0000 0.0000 17.4559 0.0000
# 6 0.0000 0.0000 0.0000 0.0000 0.0000 18.9458
#
#
#
# Elastic Compliance Matrix: (Units=1/GPa)
#
#
# Indices 1 2 3 4 5 6 
#
# 1 0.123670 -0.009750 -0.103295 0.000000 0.000000 0.000000
# 2 -0.009750 0.026634 -0.000040 0.000000 0.000000 0.000000
# 3 -0.103295 -0.000040 0.100910 0.000000 0.000000 0.000000
# 4 0.000000 0.000000 0.000000 0.063294 0.000000 0.000000
# 5 0.000000 0.000000 0.000000 0.000000 0.057287 0.000000
# 6 0.000000 0.000000 0.000000 0.000000 0.000000 0.052782
#
#
# Mechanical properties :
#
#
# Convention : Reuss Voigt Hill
#
# Bulk Modulus (GPa) = 39.93164 49.60705 44.76935
# Shear Modulus (GPa) = 7.58615 15.53550 11.56082
#
# Velocity S-wave (km/s) = 2.25395 3.22549 2.78245
# Velocity P-wave (km/s) = 5.78922 6.86240 6.34853
#
# Compressibility (1/GPa) = 0.02504280
#
# Stress axis : x y z
#
# Youngs Moduli (GPa) = 8.08602 37.54655 9.90982
#
# Poissons Ratio (x) = 0.36609 1.02364
# Poissons Ratio (y) = 0.07884 0.00039
# Poissons Ratio (z) = 0.83525 0.00149
#
# Static dielectric constant tensor:
#      x y z
#    x 2.945020 0.000000 0.000000 
#    y 0.000000 2.765500 0.000000 
#    z 0.000000 0.000000 3.008880 
# 
# 
# High freq. dielectric constant tensor:
#      x y z
#    x 1.546430 0.000000 0.000000 
#    y 0.000000 1.561770 0.000000 
#    z 0.000000 0.000000 1.548450 
# 
# From -- ./inp_files/20880.got.cif
#   From: 2010.03.12/outbox.cif.g09.slc.cpg/sg44_11_cif.got.tgz:20880.got - 2010.04.14 02:36:11.
