data_PCOD8187108
_publ_section_title
;
Structure prediction by ZEFSAII (Michael W. Deem and Ramdas Pophale) SiO2 
 PCOD8187108
Probable space group: F D D 2
;
_chemical_formula_sum "Si O2"
_cell_formula_units_Z 120
_cell_length_a 24.130273
_cell_length_b 11.284102
_cell_length_c 20.355732
_cell_angle_alpha 90.000000
_cell_angle_beta 90.000000
_cell_angle_gamma 90.000000
_cell_volume 5542.630955
_symmetry_space_group_name_H-M "F D D 2"
_symmetry_group_IT_number 43
_symmetry_cell_setting 'orthorhombic'
loop_
_space_group_symop_operation_xyz
x,y,z
-x,-y,z
1/4-x,1/4+y,1/4+z
1/4+x,1/4-y,1/4+z
x,1/2+y,1/2+z
-x,1/2-y,1/2+z
1/4-x,3/4+y,3/4+z
1/4+x,3/4-y,3/4+z
1/2+x,y,1/2+z
1/2-x,-y,1/2+z
3/4-x,1/4+y,3/4+z
3/4+x,1/4-y,3/4+z
1/2+x,1/2+y,z
1/2-x,1/2-y,z
3/4-x,3/4+y,1/4+z
3/4+x,3/4-y,1/4+z
loop_
_atom_site_type_symbol
_atom_site_label
_atom_site_fract_x
_atom_site_fract_y
_atom_site_fract_z
Si Si1 0.402597 0.878378 0.728040
Si Si2 0.250000 0.750000 0.426118
Si Si3 0.470496 0.618724 0.923860
Si Si4 0.325171 0.743552 0.303053
Si Si5 0.065154 0.364513 0.757238
Si Si6 0.720458 0.552760 0.031675
Si Si7 0.498324 0.130856 0.630319
Si Si8 0.756672 0.443820 0.263030
O O1 0.339510 0.886275 0.705802
O O2 0.410018 0.758843 0.772069
O O3 0.443577 0.851850 0.667507
O O4 0.420920 0.996560 0.768790
O O5 0.303854 0.731565 0.378837
O O6 0.259056 0.866726 0.470439
O O7 0.500000 0.500000 0.948528
O O8 0.467209 0.615632 0.845424
O O9 0.508811 0.729016 0.946769
O O10 0.389023 0.718344 0.291075
O O11 0.291213 0.654171 0.256733
O O12 0.314872 0.878086 0.277141
O O13 0.055006 0.352670 0.678640
O O14 0.009800 0.313288 0.791182
O O15 0.490032 0.223272 0.573258
O O16 0.500000 0.000000 0.599177
#
# Coordination Sequence:
#
# PCOD8187108 Si02
#       8
#    16   8  16  16  16  16  16  16
#     4  10  22  44  66  94 130 180 225 271 342 407
#     4  10  22  46  66  90 144 180 216 276 342 420
#     4  12  26  44  64  99 140 172 234 286 337 407
#     4  10  20  39  69  97 129 171 222 270 342 405
#     4  10  20  42  67 103 127 172 229 277 336 411
#     4  11  24  46  67  96 138 181 223 285 343 405
#     4   9  19  38  70  91 128 173 222 267 333 408
#     4  10  21  41  59  98 132 170 218 277 331 396
#
# _framework density 21.650366999999999
#
# number of rings (size 3 to 8) (size 9 to 14) (size 15 to 20)
#    0.000    1.867    2.000    4.800    0.000    5.333 
#   14.400    0.000    0.000    0.000    0.000    0.000 
#    0.000    0.000    0.000    0.000    0.000    0.000 
#
# Total GULP energy -371701.094333 kJ/mol
# GULP energy per Si atom -12390.036478 kJ/mol
# Density = 2.160109 g / cm^3
# Si number density = 21.650367 Si / 1000 Ang^3
#
#
#
# Elastic Constant Matrix: (Units=GPa)
#
#
# Indices 1 2 3 4 5 6 
#
# 1 85.3232 42.9290 30.3601 0.0000 0.0000 0.0000
# 2 42.9290 137.1543 45.8516 0.0000 0.0000 0.0000
# 3 30.3601 45.8516 84.3492 0.0000 0.0000 0.0000
# 4 0.0000 0.0000 0.0000 30.7583 0.0000 0.0000
# 5 0.0000 0.0000 0.0000 0.0000 12.3794 0.0000
# 6 0.0000 0.0000 0.0000 0.0000 0.0000 32.7243
#
#
#
# Elastic Compliance Matrix: (Units=1/GPa)
#
#
# Indices 1 2 3 4 5 6 
#
# 1 0.014668 -0.003454 -0.003402 0.000000 0.000000 0.000000
# 2 -0.003454 0.009724 -0.004042 0.000000 0.000000 0.000000
# 3 -0.003402 -0.004042 0.015277 0.000000 0.000000 0.000000
# 4 0.000000 0.000000 0.000000 0.032512 0.000000 0.000000
# 5 0.000000 0.000000 0.000000 0.000000 0.080780 0.000000
# 6 0.000000 0.000000 0.000000 0.000000 0.000000 0.030558
#
#
# Mechanical properties :
#
#
# Convention : Reuss Voigt Hill
#
# Bulk Modulus (GPa) = 55.95195 60.56756 58.25975
# Shear Modulus (GPa) = 23.66602 27.68481 25.67541
#
# Velocity S-wave (km/s) = 3.30979 3.57980 3.44744
# Velocity P-wave (km/s) = 6.36442 6.71734 6.54326
#
# Compressibility (1/GPa) = 0.01787248
#
# Stress axis : x y z
#
# Youngs Moduli (GPa) = 68.17353 102.84332 65.45575
#
# Poissons Ratio (x) = 0.35520 0.22269
# Poissons Ratio (y) = 0.23546 0.26460
# Poissons Ratio (z) = 0.23194 0.41574
#
# Static dielectric constant tensor:
#      x y z
#    x 3.833740 0.000000 0.000000 
#    y 0.000000 4.396030 0.000000 
#    z 0.000000 0.000000 3.756920 
# 
# 
# High freq. dielectric constant tensor:
#      x y z
#    x 1.831170 0.000000 0.000000 
#    y 0.000000 1.873950 0.000000 
#    z 0.000000 0.000000 1.830470 
# 
# From -- ./inp_files/18671.got.cif
#   From: 2010.06.25/outbox.cif.g09.slc.cpg/sg43_10_cif.got.tgz:18671.got - 2010.06.26 16:48:59.
