data_PCOD8187024
_publ_section_title
;
Structure prediction by ZEFSAII (Michael W. Deem and Ramdas Pophale) SiO2 
 PCOD8187024
Probable space group: F D D 2
;
_chemical_formula_sum "Si O2"
_cell_formula_units_Z 104
_cell_length_a 14.686357
_cell_length_b 15.633786
_cell_length_c 22.542460
_cell_angle_alpha 90.000000
_cell_angle_beta 90.000000
_cell_angle_gamma 90.000000
_cell_volume 5175.824614
_symmetry_space_group_name_H-M "F D D 2"
_symmetry_group_IT_number 43
_symmetry_cell_setting 'orthorhombic'
loop_
_space_group_symop_operation_xyz
x,y,z
-x,-y,z
1/4-x,1/4+y,1/4+z
1/4+x,1/4-y,1/4+z
x,1/2+y,1/2+z
-x,1/2-y,1/2+z
1/4-x,3/4+y,3/4+z
1/4+x,3/4-y,3/4+z
1/2+x,y,1/2+z
1/2-x,-y,1/2+z
3/4-x,1/4+y,3/4+z
3/4+x,1/4-y,3/4+z
1/2+x,1/2+y,z
1/2-x,1/2-y,z
3/4-x,3/4+y,1/4+z
3/4+x,3/4-y,1/4+z
loop_
_atom_site_type_symbol
_atom_site_label
_atom_site_fract_x
_atom_site_fract_y
_atom_site_fract_z
Si Si1 0.213927 0.472991 0.033360
Si Si2 0.250000 0.750000 0.819299
Si Si3 0.785181 0.345551 0.329782
Si Si4 0.929282 0.424304 0.970423
Si Si5 0.348991 0.951479 0.434175
Si Si6 0.672443 0.982367 0.641931
Si Si7 0.791076 0.859512 0.210283
O O1 0.136739 0.405412 0.052048
O O2 0.246403 0.516292 0.094409
O O3 0.170320 0.541629 0.988081
O O4 0.298244 0.431807 0.996940
O O5 0.166259 0.770980 0.861137
O O6 0.221432 0.668399 0.778786
O O7 0.750000 0.250000 0.350114
O O8 0.718714 0.377437 0.277333
O O9 0.783041 0.415911 0.382134
O O10 0.914603 0.364548 0.913821
O O11 0.000000 0.500000 0.954024
O O12 0.443425 0.900779 0.428896
O O13 0.378395 0.051609 0.430474
O O14 0.686250 0.041527 0.700213
#
# Coordination Sequence:
#
# PCOD8187024 Si02
#       7
#    16   8  16  16  16  16  16
#     4  10  20  40  63  84 124 158 194 259 301 356
#     4  10  24  40  58  94 132 154 204 256 298 376
#     4   9  20  39  60  88 123 156 203 254 303 362
#     4   9  24  42  59  91 121 157 211 254 302 370
#     4  10  19  39  61  88 124 155 196 253 304 358
#     4  12  22  41  67  86 125 166 201 256 310 370
#     4  10  22  38  60  94 122 155 206 250 302 372
#
# _framework density 20.093415
#
# number of rings (size 3 to 8) (size 9 to 14) (size 15 to 20)
#    0.000    2.462    4.615    0.000    2.154    6.154 
#    2.769    0.000    0.000    0.000    0.000    0.000 
#    0.000    0.000    0.000    0.000    0.000    0.000 
#
# Total GULP energy -322091.530495 kJ/mol
# GULP energy per Si atom -12388.135788 kJ/mol
# Density = 2.004768 g / cm^3
# Si number density = 20.093415 Si / 1000 Ang^3
#
#
#
# Elastic Constant Matrix: (Units=GPa)
#
#
# Indices 1 2 3 4 5 6 
#
# 1 76.5852 24.0140 26.5826 0.0000 0.0000 0.0000
# 2 24.0140 79.5603 46.4283 0.0000 0.0000 0.0000
# 3 26.5826 46.4283 103.2132 0.0000 0.0000 0.0000
# 4 0.0000 0.0000 0.0000 35.1417 0.0000 0.0000
# 5 0.0000 0.0000 0.0000 0.0000 31.8639 0.0000
# 6 0.0000 0.0000 0.0000 0.0000 0.0000 12.9010
#
#
#
# Elastic Compliance Matrix: (Units=1/GPa)
#
#
# Indices 1 2 3 4 5 6 
#
# 1 0.014867 -0.003055 -0.002455 0.000000 0.000000 0.000000
# 2 -0.003055 0.017671 -0.007162 0.000000 0.000000 0.000000
# 3 -0.002455 -0.007162 0.013543 0.000000 0.000000 0.000000
# 4 0.000000 0.000000 0.000000 0.028456 0.000000 0.000000
# 5 0.000000 0.000000 0.000000 0.000000 0.031383 0.000000
# 6 0.000000 0.000000 0.000000 0.000000 0.000000 0.077513
#
#
# Mechanical properties :
#
#
# Convention : Reuss Voigt Hill
#
# Bulk Modulus (GPa) = 48.22293 50.37874 49.30084
# Shear Modulus (GPa) = 23.18148 26.80358 24.99253
#
# Velocity S-wave (km/s) = 3.40028 3.65629 3.53060
# Velocity P-wave (km/s) = 6.28230 6.55372 6.41945
#
# Compressibility (1/GPa) = 0.02073702
#
# Stress axis : x y z
#
# Youngs Moduli (GPa) = 67.26154 56.59120 73.84096
#
# Poissons Ratio (x) = 0.17288 0.18127
# Poissons Ratio (y) = 0.20548 0.52885
# Poissons Ratio (z) = 0.16512 0.40530
#
# Static dielectric constant tensor:
#      x y z
#    x 3.862460 0.000000 0.000000 
#    y 0.000000 3.245330 0.000000 
#    z 0.000000 0.000000 3.563310 
# 
# 
# High freq. dielectric constant tensor:
#      x y z
#    x 1.800210 0.000000 0.000000 
#    y 0.000000 1.745540 0.000000 
#    z 0.000000 0.000000 1.780010 
# 
# From -- ./inp_files/17639.got.cif
#   From: 2010.06.25/outbox.cif.g09.slc.cpg/sg43_9_cif.got.tgz:17639.got - 2010.06.26 16:48:59.
