data_PCOD8187020
_publ_section_title
;
Structure prediction by ZEFSAII (Michael W. Deem and Ramdas Pophale) SiO2 
 PCOD8187020
Probable space group: F D D 2
;
_chemical_formula_sum "Si O2"
_cell_formula_units_Z 112
_cell_length_a 14.932225
_cell_length_b 25.221425
_cell_length_c 15.015538
_cell_angle_alpha 90.000000
_cell_angle_beta 90.000000
_cell_angle_gamma 90.000000
_cell_volume 5655.031691
_symmetry_space_group_name_H-M "F D D 2"
_symmetry_group_IT_number 43
_symmetry_cell_setting 'orthorhombic'
loop_
_space_group_symop_operation_xyz
x,y,z
-x,-y,z
1/4-x,1/4+y,1/4+z
1/4+x,1/4-y,1/4+z
x,1/2+y,1/2+z
-x,1/2-y,1/2+z
1/4-x,3/4+y,3/4+z
1/4+x,3/4-y,3/4+z
1/2+x,y,1/2+z
1/2-x,-y,1/2+z
3/4-x,1/4+y,3/4+z
3/4+x,1/4-y,3/4+z
1/2+x,1/2+y,z
1/2-x,1/2-y,z
3/4-x,3/4+y,1/4+z
3/4+x,3/4-y,1/4+z
loop_
_atom_site_type_symbol
_atom_site_label
_atom_site_fract_x
_atom_site_fract_y
_atom_site_fract_z
Si Si1 0.473028 0.771803 0.776230
Si Si2 0.073407 0.454731 0.860608
Si Si3 0.930297 0.389442 0.780772
Si Si4 0.679604 0.907753 0.193553
Si Si5 0.906762 0.528150 0.055454
Si Si6 0.283346 0.468637 0.330398
Si Si7 0.103415 0.335560 0.345313
O O1 0.425835 0.827054 0.802348
O O2 0.574850 0.764147 0.811530
O O3 0.475764 0.772789 0.668950
O O4 0.410982 0.725587 0.817350
O O5 0.160189 0.477912 0.809015
O O6 0.000000 0.500000 0.866963
O O7 0.031250 0.405222 0.809584
O O8 0.100407 0.440485 0.961888
O O9 0.852491 0.418419 0.838394
O O10 0.922233 0.406651 0.676950
O O11 0.598716 0.928045 0.132839
O O12 0.716315 0.958108 0.249479
O O13 0.759971 0.887620 0.128504
O O14 0.643731 0.862473 0.257838
O O15 0.000000 0.500000 0.069781
#
# Coordination Sequence:
#
# PCOD8187020 Si02
#       7
#    16  16  16  16  16  16  16
#     4  10  20  40  62  88 126 165 206 266 314 377
#     4   8  16  34  62  85 117 154 193 258 311 358
#     4  10  19  38  63  95 124 161 213 266 323 373
#     4  10  20  41  61  86 126 169 209 256 316 394
#     4   9  19  39  60  83 123 161 208 255 314 373
#     4   9  18  37  59  85 123 158 197 259 313 369
#     4  10  22  41  64  90 130 170 209 262 331 385
#
# _framework density 19.805371000000001
#
# number of rings (size 3 to 8) (size 9 to 14) (size 15 to 20)
#    0.000    2.571    1.429    0.857    0.000    0.000 
#   23.143    5.714    0.000    0.000    0.000    0.000 
#    0.000    0.000    0.000    0.000    0.000    0.000 
#
# Total GULP energy -346959.496570 kJ/mol
# GULP energy per Si atom -12391.410592 kJ/mol
# Density = 1.976029 g / cm^3
# Si number density = 19.805371 Si / 1000 Ang^3
#
#
#
# Elastic Constant Matrix: (Units=GPa)
#
#
# Indices 1 2 3 4 5 6 
#
# 1 75.1068 50.3805 44.1763 0.0000 0.0000 0.0000
# 2 50.3805 117.9019 65.7609 0.0000 0.0000 0.0000
# 3 44.1763 65.7609 88.9430 0.0000 0.0000 0.0000
# 4 0.0000 0.0000 0.0000 32.5484 0.0000 0.0000
# 5 0.0000 0.0000 0.0000 0.0000 39.5673 0.0000
# 6 0.0000 0.0000 0.0000 0.0000 0.0000 23.2472
#
#
#
# Elastic Compliance Matrix: (Units=1/GPa)
#
#
# Indices 1 2 3 4 5 6 
#
# 1 0.020562 -0.005259 -0.006325 0.000000 0.000000 0.000000
# 2 -0.005259 0.015779 -0.009054 0.000000 0.000000 0.000000
# 3 -0.006325 -0.009054 0.021079 0.000000 0.000000 0.000000
# 4 0.000000 0.000000 0.000000 0.030723 0.000000 0.000000
# 5 0.000000 0.000000 0.000000 0.000000 0.025273 0.000000
# 6 0.000000 0.000000 0.000000 0.000000 0.000000 0.043016
#
#
# Mechanical properties :
#
#
# Convention : Reuss Voigt Hill
#
# Bulk Modulus (GPa) = 61.94145 66.95415 64.44780
# Shear Modulus (GPa) = 24.61973 27.18152 25.90062
#
# Velocity S-wave (km/s) = 3.52956 3.70865 3.62022
# Velocity P-wave (km/s) = 6.92484 7.22622 7.07713
#
# Compressibility (1/GPa) = 0.01614428
#
# Stress axis : x y z
#
# Youngs Moduli (GPa) = 48.63386 63.37591 47.44063
#
# Poissons Ratio (x) = 0.33327 0.30005
# Poissons Ratio (y) = 0.25575 0.42955
# Poissons Ratio (z) = 0.30759 0.57383
#
# Static dielectric constant tensor:
#      x y z
#    x 3.710810 0.000000 0.000000 
#    y 0.000000 3.468060 0.000000 
#    z 0.000000 0.000000 3.778910 
# 
# 
# High freq. dielectric constant tensor:
#      x y z
#    x 1.766050 0.000000 0.000000 
#    y 0.000000 1.742030 0.000000 
#    z 0.000000 0.000000 1.779110 
# 
# From -- ./inp_files/10276.got.cif
#   From: 2010.06.25/outbox.cif.g09.slc.cpg/sg43_6_cif.got.tgz:10276.got - 2010.06.26 16:48:59.
