data_PCOD8187662
_publ_section_title
;
Structure prediction by ZEFSAII (Michael W. Deem and Ramdas Pophale) SiO2 
 PCOD8187662
Probable space group: F D D 2
;
_chemical_formula_sum "Si O2"
_cell_formula_units_Z 120
_cell_length_a 21.076840
_cell_length_b 18.139892
_cell_length_c 14.673999
_cell_angle_alpha 90.000000
_cell_angle_beta 90.000000
_cell_angle_gamma 90.000000
_cell_volume 5610.333535
_symmetry_space_group_name_H-M "F D D 2"
_symmetry_group_IT_number 43
_symmetry_cell_setting 'orthorhombic'
loop_
_space_group_symop_operation_xyz
x,y,z
-x,-y,z
1/4-x,1/4+y,1/4+z
1/4+x,1/4-y,1/4+z
x,1/2+y,1/2+z
-x,1/2-y,1/2+z
1/4-x,3/4+y,3/4+z
1/4+x,3/4-y,3/4+z
1/2+x,y,1/2+z
1/2-x,-y,1/2+z
3/4-x,1/4+y,3/4+z
3/4+x,1/4-y,3/4+z
1/2+x,1/2+y,z
1/2-x,1/2-y,z
3/4-x,3/4+y,1/4+z
3/4+x,3/4-y,1/4+z
loop_
_atom_site_type_symbol
_atom_site_label
_atom_site_fract_x
_atom_site_fract_y
_atom_site_fract_z
Si Si1 0.717563 0.048300 0.824200
Si Si2 0.913941 0.626199 0.929632
Si Si3 0.582958 0.883956 0.125558
Si Si4 0.803770 0.120072 0.300815
Si Si5 0.953519 0.280466 0.406046
Si Si6 0.000000 0.000000 0.357296
Si Si7 0.713269 0.504950 0.994121
Si Si8 0.163404 0.369744 0.593959
O O1 0.760015 0.072871 0.737535
O O2 0.756396 0.048700 0.918494
O O3 0.660560 0.105532 0.831194
O O4 0.690645 0.967011 0.811476
O O5 0.862571 0.651208 0.856538
O O6 0.965507 0.692748 0.923107
O O7 0.948128 0.547479 0.915737
O O8 0.882664 0.634737 0.029727
O O9 0.510775 0.904671 0.094596
O O10 0.628695 0.947881 0.165195
O O11 0.581337 0.815908 0.196059
O O12 0.814238 0.144715 0.197714
O O13 0.984317 0.297383 0.306609
O O14 0.958832 0.942197 0.294892
O O15 0.671583 0.452710 0.058836
#
# Coordination Sequence:
#
# PCOD8187662 Si02
#       8
#    16  16  16  16  16   8  16  16
#     4  11  23  43  66  97 140 185 228 291 367 426
#     4  12  23  41  67 106 139 170 242 302 367 422
#     4  11  24  42  68  96 137 190 231 287 359 427
#     4  11  22  41  65 106 133 177 242 301 362 416
#     4  12  24  45  67  96 146 189 233 300 357 437
#     4  12  22  38  66 110 136 170 226 304 378 426
#     4  11  23  46  68 101 139 185 236 297 360 432
#     4  12  24  39  71 102 142 180 231 304 366 433
#
# _framework density 21.389102999999999
#
# number of rings (size 3 to 8) (size 9 to 14) (size 15 to 20)
#    0.000    0.533    8.000    2.400    1.867    1.600 
#    0.000    0.667    0.000    0.000    0.000    0.000 
#    0.000    0.000    0.000    0.000    0.000    0.000 
#
# Total GULP energy -371672.014387 kJ/mol
# GULP energy per Si atom -12389.067146 kJ/mol
# Density = 2.134042 g / cm^3
# Si number density = 21.389103 Si / 1000 Ang^3
#
#
#
# Elastic Constant Matrix: (Units=GPa)
#
#
# Indices 1 2 3 4 5 6 
#
# 1 122.4316 46.5163 53.1961 0.0000 0.0000 0.0000
# 2 46.5163 89.0385 23.9812 0.0000 0.0000 0.0000
# 3 53.1961 23.9812 114.9390 0.0000 0.0000 0.0000
# 4 0.0000 0.0000 0.0000 26.4185 0.0000 0.0000
# 5 0.0000 0.0000 0.0000 0.0000 35.2315 0.0000
# 6 0.0000 0.0000 0.0000 0.0000 0.0000 38.8034
#
#
#
# Elastic Compliance Matrix: (Units=1/GPa)
#
#
# Indices 1 2 3 4 5 6 
#
# 1 0.012065 -0.005085 -0.004523 0.000000 0.000000 0.000000
# 2 -0.005085 0.014043 -0.000577 0.000000 0.000000 0.000000
# 3 -0.004523 -0.000577 0.010914 0.000000 0.000000 0.000000
# 4 0.000000 0.000000 0.000000 0.037852 0.000000 0.000000
# 5 0.000000 0.000000 0.000000 0.000000 0.028384 0.000000
# 6 0.000000 0.000000 0.000000 0.000000 0.000000 0.025771
#
#
# Mechanical properties :
#
#
# Convention : Reuss Voigt Hill
#
# Bulk Modulus (GPa) = 60.04970 63.75514 61.90242
# Shear Modulus (GPa) = 32.26878 33.60503 32.93690
#
# Velocity S-wave (km/s) = 3.88835 3.96805 3.92840
# Velocity P-wave (km/s) = 6.94945 7.13203 7.04133
#
# Compressibility (1/GPa) = 0.01665287
#
# Stress axis : x y z
#
# Youngs Moduli (GPa) = 82.88447 71.21044 91.62634
#
# Poissons Ratio (x) = 0.36210 0.41442
# Poissons Ratio (y) = 0.42146 0.05283
# Poissons Ratio (z) = 0.37489 0.04106
#
# Static dielectric constant tensor:
#      x y z
#    x 3.908120 0.000000 0.000000 
#    y 0.000000 3.608740 0.000000 
#    z 0.000000 0.000000 4.097880 
# 
# 
# High freq. dielectric constant tensor:
#      x y z
#    x 1.842440 0.000000 0.000000 
#    y 0.000000 1.821630 0.000000 
#    z 0.000000 0.000000 1.835400 
# 
# From -- ./inp_files/11322.got.cif
#   From: 2010.06.25/outbox.cif.g09.slc.cpg/sg43_6_cif.got.tgz:11322.got - 2010.06.26 16:48:59.
