data_PCOD8187454
_publ_section_title
;
Structure prediction by ZEFSAII (Michael W. Deem and Ramdas Pophale) SiO2 
 PCOD8187454
Probable space group: F D D 2
;
_chemical_formula_sum "Si O2"
_cell_formula_units_Z 64
_cell_length_a 9.788518
_cell_length_b 30.634985
_cell_length_c 9.164121
_cell_angle_alpha 90.000000
_cell_angle_beta 90.000000
_cell_angle_gamma 90.000000
_cell_volume 2748.055064
_symmetry_space_group_name_H-M "F D D 2"
_symmetry_group_IT_number 43
_symmetry_cell_setting 'orthorhombic'
loop_
_space_group_symop_operation_xyz
x,y,z
-x,-y,z
1/4-x,1/4+y,1/4+z
1/4+x,1/4-y,1/4+z
x,1/2+y,1/2+z
-x,1/2-y,1/2+z
1/4-x,3/4+y,3/4+z
1/4+x,3/4-y,3/4+z
1/2+x,y,1/2+z
1/2-x,-y,1/2+z
3/4-x,1/4+y,3/4+z
3/4+x,1/4-y,3/4+z
1/2+x,1/2+y,z
1/2-x,1/2-y,z
3/4-x,3/4+y,1/4+z
3/4+x,3/4-y,1/4+z
loop_
_atom_site_type_symbol
_atom_site_label
_atom_site_fract_x
_atom_site_fract_y
_atom_site_fract_z
Si Si1 0.550577 0.718560 0.967380
Si Si2 0.165418 0.830958 0.800225
Si Si3 0.544318 0.666083 0.235305
Si Si4 0.649595 0.315371 0.474622
O O1 0.439698 0.706878 0.844913
O O2 0.488922 0.701597 0.120969
O O3 0.567659 0.769992 0.976438
O O4 0.692868 0.693502 0.935445
O O5 0.321640 0.814139 0.815795
O O6 0.135130 0.840610 0.628551
O O7 0.149206 0.872994 0.903121
O O8 0.423156 0.655264 0.349570
#
# Coordination Sequence:
#
# PCOD8187454 Si02
#       4
#    16  16  16  16
#     4  10  22  45  66  97 133 174 226 276 337 407
#     4  11  23  43  65  98 135 169 223 283 332 400
#     4  11  23  42  65  99 133 171 223 281 333 399
#     4  10  24  42  70  94 134 181 221 277 342 400
#
# _framework density 23.289197999999999
#
# number of rings (size 3 to 8) (size 9 to 14) (size 15 to 20)
#    0.000    1.500    2.500    1.500    0.000    9.000 
#    0.000    0.000    0.000    0.000    0.000    0.000 
#    0.000    0.000    0.000    0.000    0.000    0.000 
#
# Total GULP energy -198344.692392 kJ/mol
# GULP energy per Si atom -12396.543274 kJ/mol
# Density = 2.323619 g / cm^3
# Si number density = 23.289198 Si / 1000 Ang^3
#
#
#
# Elastic Constant Matrix: (Units=GPa)
#
#
# Indices 1 2 3 4 5 6 
#
# 1 106.9156 11.9520 71.7837 0.0000 0.0000 0.0000
# 2 11.9520 69.4844 24.9223 0.0000 0.0000 0.0000
# 3 71.7837 24.9223 121.9730 0.0000 0.0000 0.0000
# 4 0.0000 0.0000 0.0000 35.1777 0.0000 0.0000
# 5 0.0000 0.0000 0.0000 0.0000 43.9390 0.0000
# 6 0.0000 0.0000 0.0000 0.0000 0.0000 27.7173
#
#
#
# Elastic Compliance Matrix: (Units=1/GPa)
#
#
# Indices 1 2 3 4 5 6 
#
# 1 0.015491 0.000653 -0.009250 0.000000 0.000000 0.000000
# 2 0.000653 0.015557 -0.003563 0.000000 0.000000 0.000000
# 3 -0.009250 -0.003563 0.014370 0.000000 0.000000 0.000000
# 4 0.000000 0.000000 0.000000 0.028427 0.000000 0.000000
# 5 0.000000 0.000000 0.000000 0.000000 0.022759 0.000000
# 6 0.000000 0.000000 0.000000 0.000000 0.000000 0.036078
#
#
# Mechanical properties :
#
#
# Convention : Reuss Voigt Hill
#
# Bulk Modulus (GPa) = 47.39696 57.29878 52.34787
# Shear Modulus (GPa) = 30.48113 34.01447 32.24780
#
# Velocity S-wave (km/s) = 3.62167 3.82583 3.72515
# Velocity P-wave (km/s) = 6.15503 6.64624 6.40534
#
# Compressibility (1/GPa) = 0.02109840
#
# Stress axis : x y z
#
# Youngs Moduli (GPa) = 64.55489 64.27808 69.58724
#
# Poissons Ratio (x) = -0.04199 0.64369
# Poissons Ratio (y) = -0.04217 0.24795
# Poissons Ratio (z) = 0.59714 0.22904
#
# Static dielectric constant tensor:
#      x y z
#    x 4.341630 0.000000 0.000000 
#    y 0.000000 3.883380 0.000000 
#    z 0.000000 0.000000 4.365540 
# 
# 
# High freq. dielectric constant tensor:
#      x y z
#    x 1.929490 0.000000 0.000000 
#    y 0.000000 1.903190 0.000000 
#    z 0.000000 0.000000 1.920260 
# 
# From -- ./inp_files/1953.got.cif
#   From: 2010.06.25/outbox.cif.g09.slc.cpg/sg43_1_cif.got.tgz:1953.got - 2010.06.26 16:48:59.
