data_PCOD8187861
_publ_section_title
;
Structure prediction by ZEFSAII (Michael W. Deem and Ramdas Pophale) SiO2 
 PCOD8187861
Probable space group: F D D 2
;
_chemical_formula_sum "Si O2"
_cell_formula_units_Z 48
_cell_length_a 19.165203
_cell_length_b 5.087131
_cell_length_c 19.263357
_cell_angle_alpha 90.000000
_cell_angle_beta 90.000000
_cell_angle_gamma 90.000000
_cell_volume 1878.098295
_symmetry_space_group_name_H-M "F D D 2"
_symmetry_group_IT_number 43
_symmetry_cell_setting 'orthorhombic'
loop_
_space_group_symop_operation_xyz
x,y,z
-x,-y,z
1/4-x,1/4+y,1/4+z
1/4+x,1/4-y,1/4+z
x,1/2+y,1/2+z
-x,1/2-y,1/2+z
1/4-x,3/4+y,3/4+z
1/4+x,3/4-y,3/4+z
1/2+x,y,1/2+z
1/2-x,-y,1/2+z
3/4-x,1/4+y,3/4+z
3/4+x,1/4-y,3/4+z
1/2+x,1/2+y,z
1/2-x,1/2-y,z
3/4-x,3/4+y,1/4+z
3/4+x,3/4-y,1/4+z
loop_
_atom_site_type_symbol
_atom_site_label
_atom_site_fract_x
_atom_site_fract_y
_atom_site_fract_z
Si Si1 0.616161 0.237999 0.304720
Si Si2 0.750000 0.750000 0.473587
Si Si3 0.500000 0.500000 0.633799
Si Si4 0.545494 0.234809 0.444536
O O1 0.568871 0.459561 0.269612
O O2 0.688021 0.355817 0.334670
O O3 0.572827 0.124814 0.370142
O O4 0.637691 0.027226 0.245366
O O5 0.771769 0.497070 0.429594
O O6 0.500000 0.500000 0.435701
O O7 0.500000 0.000000 0.477203
#
# Coordination Sequence:
#
# PCOD8187861 Si02
#       4
#    16   8   8  16
#     4  12  28  54  82 122 162 222 270 348 410 497
#     4  12  30  51  80 123 164 216 278 342 410 494
#     4  12  30  47  84 121 166 210 280 340 416 488
#     4  12  30  50  83 120 165 213 280 338 413 493
#
# _framework density 25.557770000000001
#
# number of rings (size 3 to 8) (size 9 to 14) (size 15 to 20)
#    0.000    0.000    6.667    0.000    9.333    5.333 
#    0.000    0.000    0.000    0.000    0.000    0.000 
#    0.000    0.000    0.000    0.000    0.000    0.000 
#
# Total GULP energy -148760.851933 kJ/mol
# GULP energy per Si atom -12396.737661 kJ/mol
# Density = 2.549960 g / cm^3
# Si number density = 25.557770 Si / 1000 Ang^3
#
#
#
# Elastic Constant Matrix: (Units=GPa)
#
#
# Indices 1 2 3 4 5 6 
#
# 1 191.1378 74.5543 76.9518 -0.0006 0.0005 -0.0001
# 2 74.5543 154.7812 70.5985 0.0023 0.0067 -0.0041
# 3 76.9518 70.5985 190.1959 -0.0002 -0.0001 -0.0001
# 4 -0.0006 0.0023 -0.0002 28.0181 0.0015 -0.0002
# 5 0.0005 0.0067 -0.0001 0.0015 33.5540 -0.0019
# 6 -0.0001 -0.0041 -0.0001 -0.0002 -0.0019 53.0312
#
#
#
# Elastic Compliance Matrix: (Units=1/GPa)
#
#
# Indices 1 2 3 4 5 6 
#
# 1 0.006966 -0.002492 -0.001894 0.000000 0.000000 0.000000
# 2 -0.002492 0.008669 -0.002210 -0.000001 -0.000002 0.000001
# 3 -0.001894 -0.002210 0.006844 0.000000 0.000000 0.000000
# 4 0.000000 -0.000001 0.000000 0.035691 -0.000002 0.000000
# 5 0.000000 -0.000002 0.000000 -0.000002 0.029803 0.000001
# 6 0.000000 0.000001 0.000000 0.000000 0.000001 0.018857
#
#
# Mechanical properties :
#
#
# Convention : Reuss Voigt Hill
#
# Bulk Modulus (GPa) = 107.65241 108.92492 108.28866
# Shear Modulus (GPa) = 40.61222 43.85468 42.23345
#
# Velocity S-wave (km/s) = 3.99060 4.14684 4.06947
# Velocity P-wave (km/s) = 7.96529 8.10185 8.03386
#
# Compressibility (1/GPa) = 0.00928916
#
# Stress axis : x y z
#
# Youngs Moduli (GPa) = 143.55316 115.35647 146.11274
#
# Poissons Ratio (x) = 0.28744 0.27667
# Poissons Ratio (y) = 0.35769 0.32285
# Poissons Ratio (z) = 0.27182 0.25489
#
# Static dielectric constant tensor:
#      x y z
#    x 4.919010 -0.000010 0.000000 
#    y -0.000010 3.382550 0.000000 
#    z 0.000000 0.000000 5.169600 
# 
# 
# High freq. dielectric constant tensor:
#      x y z
#    x 2.046760 0.000000 0.000000 
#    y 0.000000 1.986550 0.000000 
#    z 0.000000 0.000000 2.047360 
# 
# From -- ./inp_files/14723.got.cif
#   From: 2010.06.25/outbox.cif.g09.slc.cpg/sg43_8_cif.got.tgz:14723.got - 2010.06.26 16:48:59.
