data_PCOD8187348
_publ_section_title
;
Structure prediction by ZEFSAII (Michael W. Deem and Ramdas Pophale) SiO2 
 PCOD8187348
Probable space group: F D D 2
;
_chemical_formula_sum "Si O2"
_cell_formula_units_Z 104
_cell_length_a 30.919717
_cell_length_b 11.180174
_cell_length_c 15.425201
_cell_angle_alpha 90.000000
_cell_angle_beta 90.000000
_cell_angle_gamma 90.000000
_cell_volume 5332.304046
_symmetry_space_group_name_H-M "F D D 2"
_symmetry_group_IT_number 43
_symmetry_cell_setting 'orthorhombic'
loop_
_space_group_symop_operation_xyz
x,y,z
-x,-y,z
1/4-x,1/4+y,1/4+z
1/4+x,1/4-y,1/4+z
x,1/2+y,1/2+z
-x,1/2-y,1/2+z
1/4-x,3/4+y,3/4+z
1/4+x,3/4-y,3/4+z
1/2+x,y,1/2+z
1/2-x,-y,1/2+z
3/4-x,1/4+y,3/4+z
3/4+x,1/4-y,3/4+z
1/2+x,1/2+y,z
1/2-x,1/2-y,z
3/4-x,3/4+y,1/4+z
3/4+x,3/4-y,1/4+z
loop_
_atom_site_type_symbol
_atom_site_label
_atom_site_fract_x
_atom_site_fract_y
_atom_site_fract_z
Si Si1 0.521228 0.370111 0.751110
Si Si2 0.144236 0.226475 0.041488
Si Si3 0.788514 0.827326 0.737729
Si Si4 0.000000 0.500000 0.662487
Si Si5 0.198716 0.957895 0.842095
Si Si6 0.873152 0.273516 0.341176
Si Si7 0.458695 0.658367 0.302241
O O1 0.500000 0.500000 0.727612
O O2 0.563225 0.396802 0.811872
O O3 0.542435 0.304253 0.668290
O O4 0.487621 0.280392 0.797787
O O5 0.101063 0.166171 0.080914
O O6 0.148173 0.350554 0.092737
O O7 0.141255 0.257324 0.938721
O O8 0.750000 0.750000 0.780141
O O9 0.833015 0.773417 0.774720
O O10 0.782014 0.824845 0.634725
O O11 0.785972 0.969341 0.757664
O O12 0.974395 0.413564 0.599187
O O13 0.966969 0.576622 0.719215
O O14 0.907475 0.180268 0.303600
#
# Coordination Sequence:
#
# PCOD8187348 Si02
#       7
#    16  16  16   8  16  16  16
#     4  11  21  35  64  91 118 164 212 247 304 374
#     4  11  20  38  60  92 122 157 202 263 299 362
#     4  11  22  41  66  91 121 158 212 263 300 366
#     4  10  24  44  62  84 134 170 196 254 320 378
#     4  10  22  40  62  88 125 159 203 252 314 354
#     4  11  21  36  65  91 119 157 207 257 304 355
#     4  11  22  41  62  91 126 165 203 257 315 363
#
# _framework density 19.503764
#
# number of rings (size 3 to 8) (size 9 to 14) (size 15 to 20)
#    0.000    1.231    8.462    0.462    0.000    0.000 
#    6.923    0.000    0.000    0.000    0.000    0.000 
#    0.000    0.000    0.000    0.000    0.000    0.000 
#
# Total GULP energy -322137.028935 kJ/mol
# GULP energy per Si atom -12389.885728 kJ/mol
# Density = 1.945937 g / cm^3
# Si number density = 19.503764 Si / 1000 Ang^3
#
#
#
# Elastic Constant Matrix: (Units=GPa)
#
#
# Indices 1 2 3 4 5 6 
#
# 1 143.6593 57.4783 30.8679 0.0000 0.0000 0.0000
# 2 57.4783 84.0635 3.4577 0.0000 0.0000 0.0000
# 3 30.8679 3.4577 44.6656 0.0000 0.0000 0.0000
# 4 0.0000 0.0000 0.0000 20.0478 0.0000 0.0000
# 5 0.0000 0.0000 0.0000 0.0000 32.4348 0.0000
# 6 0.0000 0.0000 0.0000 0.0000 0.0000 30.4158
#
#
#
# Elastic Compliance Matrix: (Units=1/GPa)
#
#
# Indices 1 2 3 4 5 6 
#
# 1 0.011613 -0.007635 -0.007435 0.000000 0.000000 0.000000
# 2 -0.007635 0.016953 0.003964 0.000000 0.000000 0.000000
# 3 -0.007435 0.003964 0.027220 0.000000 0.000000 0.000000
# 4 0.000000 0.000000 0.000000 0.049881 0.000000 0.000000
# 5 0.000000 0.000000 0.000000 0.000000 0.030831 0.000000
# 6 0.000000 0.000000 0.000000 0.000000 0.000000 0.032878
#
#
# Mechanical properties :
#
#
# Convention : Reuss Voigt Hill
#
# Bulk Modulus (GPa) = 29.78424 50.66623 40.22524
# Shear Modulus (GPa) = 24.65760 28.61865 26.63812
#
# Velocity S-wave (km/s) = 3.55948 3.83474 3.69967
# Velocity P-wave (km/s) = 5.67428 6.75582 6.23853
#
# Compressibility (1/GPa) = 0.03357480
#
# Stress axis : x y z
#
# Youngs Moduli (GPa) = 86.11076 58.98723 36.73812
#
# Poissons Ratio (x) = 0.45034 0.27313
# Poissons Ratio (y) = 0.65742 -0.14562
# Poissons Ratio (z) = 0.64020 -0.23381
#
# Static dielectric constant tensor:
#      x y z
#    x 3.799740 0.000000 0.000000 
#    y 0.000000 3.602160 0.000000 
#    z 0.000000 0.000000 3.416600 
# 
# 
# High freq. dielectric constant tensor:
#      x y z
#    x 1.774220 0.000000 0.000000 
#    y 0.000000 1.751280 0.000000 
#    z 0.000000 0.000000 1.744370 
# 
# From -- ./inp_files/15269.got.cif
#   From: 2010.06.25/outbox.cif.g09.slc.cpg/sg43_8_cif.got.tgz:15269.got - 2010.06.26 16:48:59.
