data_PCOD8187914
_publ_section_title
;
Structure prediction by ZEFSAII (Michael W. Deem and Ramdas Pophale) SiO2 
 PCOD8187914
Probable space group: I M M 2
;
_chemical_formula_sum "Si O2"
_cell_formula_units_Z 64
_cell_length_a 14.026640
_cell_length_b 32.543784
_cell_length_c 10.117138
_cell_angle_alpha 90.000000
_cell_angle_beta 90.000000
_cell_angle_gamma 90.000000
_cell_volume 4618.270572
_symmetry_space_group_name_H-M "I M M 2"
_symmetry_group_IT_number 44
_symmetry_cell_setting 'orthorhombic'
loop_
_space_group_symop_operation_xyz
x,y,z
-x,-y,z
-x,y,z
x,-y,z
1/2+x,1/2+y,1/2+z
1/2-x,1/2-y,1/2+z
1/2-x,1/2+y,1/2+z
1/2+x,1/2-y,1/2+z
loop_
_atom_site_type_symbol
_atom_site_label
_atom_site_fract_x
_atom_site_fract_y
_atom_site_fract_z
Si Si1 0.112944 0.954349 0.708360
Si Si2 0.296512 0.692208 0.043651
Si Si3 0.108146 0.733849 0.038210
Si Si4 0.109645 0.789004 0.286263
Si Si5 0.113359 0.889743 0.916636
Si Si6 0.111161 0.876042 0.200458
Si Si7 0.111166 0.893779 0.485461
Si Si8 0.111215 0.198939 0.814750
O O1 0.155665 0.926397 0.826533
O O2 0.141087 0.933703 0.568526
O O3 0.000000 0.957444 0.720962
O O4 0.158123 0.000000 0.714962
O O5 0.181630 0.695968 0.029935
O O6 0.331675 0.711157 0.182557
O O7 0.339852 0.720153 0.925892
O O8 0.327062 0.644844 0.033287
O O9 0.122660 0.752361 0.184059
O O10 0.000000 0.717558 0.020298
O O11 0.132104 0.768007 0.928490
O O12 0.154605 0.830763 0.224846
O O13 0.000000 0.797303 0.319620
O O14 0.147460 0.845579 0.863533
O O15 0.000000 0.892019 0.910593
O O16 0.153918 0.895916 0.066378
O O17 0.130491 0.903845 0.330559
O O18 0.000000 0.870574 0.172257
O O19 0.000000 0.882572 0.509129
O O20 0.000000 0.197419 0.780088
#
# Coordination Sequence:
#
# PCOD8187914 Si02
#       8
#     8   8   8   8   8   8   8   8
#     4   9  16  25  37  56  81 104 128 162 200 235
#     4  11  18  26  41  60  76 100 142 169 195 239
#     4  10  20  30  38  53  81 109 132 167 211 236
#     4   9  16  27  40  55  76 100 128 170 203 227
#     4   9  14  23  38  54  73 102 131 156 189 230
#     4   8  13  22  37  52  70  98 129 154 183 221
#     4   9  16  26  40  58  77 102 133 164 195 231
#     4  10  17  27  42  59  78 102 133 170 201 235
#
# _framework density 13.858002000000001
#
# number of rings (size 3 to 8) (size 9 to 14) (size 15 to 20)
#    0.000    2.625    2.500    2.625    0.000    0.000 
#    0.000    0.625    0.000    3.750    0.000    0.000 
#    0.000    0.500    0.000    0.000    0.000    1.000 
#
# Total GULP energy -396540.175001 kJ/mol
# GULP energy per Si atom -12391.880469 kJ/mol
# Density = 1.382646 g / cm^3
# Si number density = 13.858002 Si / 1000 Ang^3
#
#
#
# Elastic Constant Matrix: (Units=GPa)
#
#
# Indices 1 2 3 4 5 6 
#
# 1 44.3840 30.2742 30.8025 0.0002 -0.0002 0.0000
# 2 30.2742 66.6161 34.9949 0.0010 -0.0002 -0.0001
# 3 30.8025 34.9949 112.7343 0.0055 -0.0014 -0.0003
# 4 0.0002 0.0010 0.0055 14.5316 -0.0003 -0.0002
# 5 -0.0002 -0.0002 -0.0014 -0.0003 8.3445 0.0000
# 6 0.0000 -0.0001 -0.0003 -0.0002 0.0000 9.5641
#
#
#
# Elastic Compliance Matrix: (Units=1/GPa)
#
#
# Indices 1 2 3 4 5 6 
#
# 1 0.035369 -0.013140 -0.005585 0.000003 -0.000001 0.000000
# 2 -0.013140 0.022818 -0.003493 0.000000 0.000000 0.000000
# 3 -0.005585 -0.003493 0.011481 -0.000004 0.000002 0.000000
# 4 0.000003 0.000000 -0.000004 0.068816 0.000003 0.000001
# 5 -0.000001 0.000000 0.000002 0.000003 0.119839 -0.000001
# 6 0.000000 0.000000 0.000000 0.000001 -0.000001 0.104557
#
#
# Mechanical properties :
#
#
# Convention : Reuss Voigt Hill
#
# Bulk Modulus (GPa) = 39.63205 46.20862 42.92033
# Shear Modulus (GPa) = 12.02716 14.99892 13.51304
#
# Velocity S-wave (km/s) = 2.94919 3.29345 3.12606
# Velocity P-wave (km/s) = 6.34489 6.91947 6.63840
#
# Compressibility (1/GPa) = 0.02523211
#
# Stress axis : x y z
#
# Youngs Moduli (GPa) = 28.27306 43.82548 87.10281
#
# Poissons Ratio (x) = 0.57586 0.48648
# Poissons Ratio (y) = 0.37150 0.30424
# Poissons Ratio (z) = 0.15791 0.15308
#
# Static dielectric constant tensor:
#      x y z
#    x 2.345830 0.000000 0.000000 
#    y 0.000000 2.623320 0.000000 
#    z 0.000000 0.000000 3.092630 
# 
# 
# High freq. dielectric constant tensor:
#      x y z
#    x 1.468220 0.000000 0.000000 
#    y 0.000000 1.497970 0.000000 
#    z 0.000000 0.000000 1.554610 
# 
# From -- ./inp_files/7724.got.cif
#   From: 2010.03.12/outbox.cif.g09.slc.cpg/sg44_4_cif.got.tgz:7724.got - 2010.04.14 02:36:11.
