data_PCOD8187252
_publ_section_title
;
Structure prediction by ZEFSAII (Michael W. Deem and Ramdas Pophale) SiO2 
 PCOD8187252
Probable space group: F D D 2
;
_chemical_formula_sum "Si O2"
_cell_formula_units_Z 96
_cell_length_a 22.133532
_cell_length_b 16.369632
_cell_length_c 12.162116
_cell_angle_alpha 90.000000
_cell_angle_beta 90.000000
_cell_angle_gamma 90.000000
_cell_volume 4406.550793
_symmetry_space_group_name_H-M "F D D 2"
_symmetry_group_IT_number 43
_symmetry_cell_setting 'orthorhombic'
loop_
_space_group_symop_operation_xyz
x,y,z
-x,-y,z
1/4-x,1/4+y,1/4+z
1/4+x,1/4-y,1/4+z
x,1/2+y,1/2+z
-x,1/2-y,1/2+z
1/4-x,3/4+y,3/4+z
1/4+x,3/4-y,3/4+z
1/2+x,y,1/2+z
1/2-x,-y,1/2+z
3/4-x,1/4+y,3/4+z
3/4+x,1/4-y,3/4+z
1/2+x,1/2+y,z
1/2-x,1/2-y,z
3/4-x,3/4+y,1/4+z
3/4+x,3/4-y,1/4+z
loop_
_atom_site_type_symbol
_atom_site_label
_atom_site_fract_x
_atom_site_fract_y
_atom_site_fract_z
Si Si1 0.215858 0.590558 0.389020
Si Si2 0.319335 0.016243 0.769958
Si Si3 0.328809 0.173906 0.160546
Si Si4 0.177226 0.613631 0.961950
Si Si5 0.750000 0.250000 0.475255
Si Si6 0.482152 0.769087 0.351281
Si Si7 0.500000 0.500000 0.093482
O O1 0.251951 0.557277 0.283681
O O2 0.148974 0.556064 0.397317
O O3 0.215453 0.688453 0.393716
O O4 0.259472 0.559635 0.483941
O O5 0.369129 0.085788 0.752874
O O6 0.300450 0.975678 0.653759
O O7 0.339220 0.950189 0.862620
O O8 0.305714 0.220193 0.269159
O O9 0.313856 0.077109 0.170370
O O10 0.299818 0.208899 0.050972
O O11 0.228245 0.675772 0.919636
O O12 0.202385 0.568922 0.071677
#
# Coordination Sequence:
#
# PCOD8187252 Si02
#       7
#    16  16  16  16   8  16   8
#     4  10  23  39  66  93 130 174 216 276 336 397
#     4  11  25  46  65 102 138 180 225 284 344 420
#     4  10  21  40  69  91 130 170 223 282 330 396
#     4  11  26  43  71  99 141 179 229 280 352 408
#     4   9  22  38  59 100 116 164 227 260 331 390
#     4  10  23  44  62  99 133 173 227 277 340 405
#     4  11  22  44  69 104 124 180 231 284 339 402
#
# _framework density 21.785747000000001
#
# number of rings (size 3 to 8) (size 9 to 14) (size 15 to 20)
#    0.000    1.667    1.667    1.000    7.000    2.667 
#    0.000    0.000    0.000    0.000    0.000    0.000 
#    0.000    0.000    0.000    0.000    0.000    0.000 
#
# Total GULP energy -297398.961088 kJ/mol
# GULP energy per Si atom -12391.623379 kJ/mol
# Density = 2.173616 g / cm^3
# Si number density = 21.785747 Si / 1000 Ang^3
#
#
#
# Elastic Constant Matrix: (Units=GPa)
#
#
# Indices 1 2 3 4 5 6 
#
# 1 130.1004 42.0687 12.9020 0.0000 0.0000 0.0000
# 2 42.0687 120.3776 24.3669 0.0000 0.0000 0.0000
# 3 12.9020 24.3669 39.3225 0.0000 0.0000 0.0000
# 4 0.0000 0.0000 0.0000 31.1508 0.0000 0.0000
# 5 0.0000 0.0000 0.0000 0.0000 19.6248 0.0000
# 6 0.0000 0.0000 0.0000 0.0000 0.0000 41.5393
#
#
#
# Elastic Compliance Matrix: (Units=1/GPa)
#
#
# Indices 1 2 3 4 5 6 
#
# 1 0.008708 -0.002818 -0.001111 0.000000 0.000000 0.000000
# 2 -0.002818 0.010411 -0.005527 0.000000 0.000000 0.000000
# 3 -0.001111 -0.005527 0.029220 0.000000 0.000000 0.000000
# 4 0.000000 0.000000 0.000000 0.032102 0.000000 0.000000
# 5 0.000000 0.000000 0.000000 0.000000 0.050956 0.000000
# 6 0.000000 0.000000 0.000000 0.000000 0.000000 0.024074
#
#
# Mechanical properties :
#
#
# Convention : Reuss Voigt Hill
#
# Bulk Modulus (GPa) = 33.98200 49.83065 41.90633
# Shear Modulus (GPa) = 27.14586 32.49383 29.81984
#
# Velocity S-wave (km/s) = 3.53376 3.86621 3.70371
# Velocity P-wave (km/s) = 5.68173 6.54620 6.12923
#
# Compressibility (1/GPa) = 0.02942734
#
# Stress axis : x y z
#
# Youngs Moduli (GPa) = 114.83902 96.05404 34.22337
#
# Poissons Ratio (x) = 0.27071 0.03801
# Poissons Ratio (y) = 0.32365 0.18914
# Poissons Ratio (z) = 0.12755 0.53085
#
# Static dielectric constant tensor:
#      x y z
#    x 3.711140 0.000000 0.000000 
#    y 0.000000 4.407440 0.000000 
#    z 0.000000 0.000000 4.046420 
# 
# 
# High freq. dielectric constant tensor:
#      x y z
#    x 1.849120 0.000000 0.000000 
#    y 0.000000 1.866510 0.000000 
#    z 0.000000 0.000000 1.857680 
# 
# From -- ./inp_files/6709.got.cif
#   From: 2010.06.25/outbox.cif.g09.slc.cpg/sg43_4_cif.got.tgz:6709.got - 2010.06.26 16:48:59.
