data_PCOD8187228
_publ_section_title
;
Structure prediction by ZEFSAII (Michael W. Deem and Ramdas Pophale) SiO2 
 PCOD8187228
Probable space group: F D D 2
;
_chemical_formula_sum "Si O2"
_cell_formula_units_Z 112
_cell_length_a 28.670608
_cell_length_b 11.485467
_cell_length_c 15.611713
_cell_angle_alpha 90.000000
_cell_angle_beta 90.000000
_cell_angle_gamma 90.000000
_cell_volume 5140.864060
_symmetry_space_group_name_H-M "F D D 2"
_symmetry_group_IT_number 43
_symmetry_cell_setting 'orthorhombic'
loop_
_space_group_symop_operation_xyz
x,y,z
-x,-y,z
1/4-x,1/4+y,1/4+z
1/4+x,1/4-y,1/4+z
x,1/2+y,1/2+z
-x,1/2-y,1/2+z
1/4-x,3/4+y,3/4+z
1/4+x,3/4-y,3/4+z
1/2+x,y,1/2+z
1/2-x,-y,1/2+z
3/4-x,1/4+y,3/4+z
3/4+x,1/4-y,3/4+z
1/2+x,1/2+y,z
1/2-x,1/2-y,z
3/4-x,3/4+y,1/4+z
3/4+x,3/4-y,1/4+z
loop_
_atom_site_type_symbol
_atom_site_label
_atom_site_fract_x
_atom_site_fract_y
_atom_site_fract_z
Si Si1 0.353312 0.015271 0.027270
Si Si2 0.570816 0.651803 0.457338
Si Si3 0.006099 0.799474 0.229270
Si Si4 0.853689 0.501211 0.227607
Si Si5 0.178769 0.596089 0.567921
Si Si6 0.000000 0.000000 0.359689
Si Si7 0.500000 0.000000 0.411467
Si Si8 0.741934 0.453182 0.790692
O O1 0.346587 0.031902 0.128315
O O2 0.383730 0.899432 0.004705
O O3 0.303896 0.019748 0.979594
O O4 0.373469 0.127373 0.982819
O O5 0.586666 0.750418 0.388887
O O6 0.543815 0.542636 0.415287
O O7 0.536071 0.713549 0.524329
O O8 0.016593 0.896097 0.300022
O O9 0.962695 0.716814 0.250765
O O10 0.996709 0.851785 0.135105
O O11 0.882952 0.606696 0.270668
O O12 0.805985 0.477214 0.279815
O O13 0.205908 0.707832 0.606000
O O14 0.515977 0.104786 0.470466
#
# Coordination Sequence:
#
# PCOD8187228 Si02
#       8
#    16  16  16  16  16   8   8  16
#     4  12  24  41  65  93 123 162 208 256 311 373
#     4  10  22  40  62  89 125 164 207 258 312 372
#     4  11  23  40  61  90 124 162 205 256 310 366
#     4  12  24  41  65  93 123 162 208 256 311 373
#     4  10  22  40  62  89 125 164 207 258 312 372
#     4  10  21  40  61  84 122 164 202 252 309 368
#     4  10  21  40  61  84 122 164 202 252 309 368
#     4  11  23  40  61  90 124 162 205 256 310 366
#
# _framework density 21.78622
#
# number of rings (size 3 to 8) (size 9 to 14) (size 15 to 20)
#    0.000    1.143    0.000    8.143    0.000    2.286 
#    0.000   10.000    0.000    0.000    0.000    0.000 
#    0.000    0.000    0.000    0.000    0.000    0.000 
#
# Total GULP energy -347161.930960 kJ/mol
# GULP energy per Si atom -12398.640391 kJ/mol
# Density = 2.173663 g / cm^3
# Si number density = 21.786220 Si / 1000 Ang^3
#
#
#
# Elastic Constant Matrix: (Units=GPa)
#
#
# Indices 1 2 3 4 5 6 
#
# 1 81.1719 8.0699 29.3337 0.0000 0.0000 0.0000
# 2 8.0699 73.0745 14.3927 0.0000 0.0000 0.0000
# 3 29.3337 14.3927 118.1299 0.0000 0.0000 0.0000
# 4 0.0000 0.0000 0.0000 25.7561 0.0000 0.0000
# 5 0.0000 0.0000 0.0000 0.0000 30.8135 0.0000
# 6 0.0000 0.0000 0.0000 0.0000 0.0000 33.6240
#
#
#
# Elastic Compliance Matrix: (Units=1/GPa)
#
#
# Indices 1 2 3 4 5 6 
#
# 1 0.013586 -0.000856 -0.003269 0.000000 0.000000 0.000000
# 2 -0.000856 0.014075 -0.001502 0.000000 0.000000 0.000000
# 3 -0.003269 -0.001502 0.009460 0.000000 0.000000 0.000000
# 4 0.000000 0.000000 0.000000 0.038826 0.000000 0.000000
# 5 0.000000 0.000000 0.000000 0.000000 0.032453 0.000000
# 6 0.000000 0.000000 0.000000 0.000000 0.000000 0.029741
#
#
# Mechanical properties :
#
#
# Convention : Reuss Voigt Hill
#
# Bulk Modulus (GPa) = 38.66167 41.77432 40.21799
# Shear Modulus (GPa) = 31.64180 32.74406 32.19293
#
# Velocity S-wave (km/s) = 3.81514 3.88102 3.84822
# Velocity P-wave (km/s) = 6.09848 6.26892 6.18429
#
# Compressibility (1/GPa) = 0.02586541
#
# Stress axis : x y z
#
# Youngs Moduli (GPa) = 73.60439 71.04733 105.70691
#
# Poissons Ratio (x) = 0.06085 0.34559
# Poissons Ratio (y) = 0.06304 0.15880
# Poissons Ratio (z) = 0.24064 0.10673
#
# Static dielectric constant tensor:
#      x y z
#    x 3.920230 0.000000 0.000000 
#    y 0.000000 4.002800 0.000000 
#    z 0.000000 0.000000 3.955580 
# 
# 
# High freq. dielectric constant tensor:
#      x y z
#    x 1.861320 0.000000 0.000000 
#    y 0.000000 1.862920 0.000000 
#    z 0.000000 0.000000 1.863860 
# 
# From -- ./inp_files/9816.got.cif
#   From: 2010.06.25/outbox.cif.g09.slc.cpg/sg43_5_cif.got.tgz:9816.got - 2010.06.26 16:48:59.
