data_PCOD8187419
_publ_section_title
;
Structure prediction by ZEFSAII (Michael W. Deem and Ramdas Pophale) SiO2 
 PCOD8187419
Probable space group: F D D 2
;
_chemical_formula_sum "Si O2"
_cell_formula_units_Z 64
_cell_length_a 8.832797
_cell_length_b 15.871914
_cell_length_c 17.345991
_cell_angle_alpha 90.000000
_cell_angle_beta 90.000000
_cell_angle_gamma 90.000000
_cell_volume 2431.793357
_symmetry_space_group_name_H-M "F D D 2"
_symmetry_group_IT_number 43
_symmetry_cell_setting 'orthorhombic'
loop_
_space_group_symop_operation_xyz
x,y,z
-x,-y,z
1/4-x,1/4+y,1/4+z
1/4+x,1/4-y,1/4+z
x,1/2+y,1/2+z
-x,1/2-y,1/2+z
1/4-x,3/4+y,3/4+z
1/4+x,3/4-y,3/4+z
1/2+x,y,1/2+z
1/2-x,-y,1/2+z
3/4-x,1/4+y,3/4+z
3/4+x,1/4-y,3/4+z
1/2+x,1/2+y,z
1/2-x,1/2-y,z
3/4-x,3/4+y,1/4+z
3/4+x,3/4-y,1/4+z
loop_
_atom_site_type_symbol
_atom_site_label
_atom_site_fract_x
_atom_site_fract_y
_atom_site_fract_z
Si Si1 0.434851 0.407812 0.078990
Si Si2 0.141158 0.830532 0.551512
Si Si3 0.307451 0.655993 0.997593
Si Si4 0.841801 0.336642 0.143815
O O1 0.500000 0.500000 0.064633
O O2 0.253506 0.408991 0.070444
O O3 0.480015 0.369703 0.163500
O O4 0.511505 0.346743 0.014806
O O5 0.250000 0.750000 0.550126
O O6 0.070676 0.852313 0.467641
O O7 0.016979 0.819622 0.619242
O O8 0.250000 0.750000 0.001268
O O9 0.228375 0.610125 0.070961
O O10 0.750000 0.250000 0.159121
#
# Coordination Sequence:
#
# PCOD8187419 Si02
#       4
#    16  16  16  16
#     4  11  25  44  70 101 137 184 238 296 363 434
#     4  12  27  48  75 109 147 192 248 307 369 444
#     4  10  22  43  67  97 137 182 231 289 354 426
#     4  11  26  47  72 105 147 192 242 302 368 436
#
# _framework density 26.318026
#
# number of rings (size 3 to 8) (size 9 to 14) (size 15 to 20)
#    0.000    1.000    0.000    6.000    0.000   17.000 
#    0.000    1.250    0.000    0.000    0.000    0.000 
#    0.000    0.000    0.000    0.000    0.000    0.000 
#
# Total GULP energy -198253.185415 kJ/mol
# GULP energy per Si atom -12390.824088 kJ/mol
# Density = 2.625812 g / cm^3
# Si number density = 26.318026 Si / 1000 Ang^3
#
#
#
# Elastic Constant Matrix: (Units=GPa)
#
#
# Indices 1 2 3 4 5 6 
#
# 1 138.1558 52.5471 2.7942 0.0000 0.0000 0.0000
# 2 52.5471 51.4787 34.4468 0.0000 0.0000 0.0000
# 3 2.7942 34.4468 107.0119 0.0000 0.0000 0.0000
# 4 0.0000 0.0000 0.0000 45.3276 0.0000 0.0000
# 5 0.0000 0.0000 0.0000 0.0000 69.5734 0.0000
# 6 0.0000 0.0000 0.0000 0.0000 0.0000 39.5316
#
#
#
# Elastic Compliance Matrix: (Units=1/GPa)
#
#
# Indices 1 2 3 4 5 6 
#
# 1 0.013881 -0.017750 0.005351 0.000000 0.000000 0.000000
# 2 -0.017750 0.047455 -0.014812 0.000000 0.000000 0.000000
# 3 0.005351 -0.014812 0.013973 0.000000 0.000000 0.000000
# 4 0.000000 0.000000 0.000000 0.022062 0.000000 0.000000
# 5 0.000000 0.000000 0.000000 0.000000 0.014373 0.000000
# 6 0.000000 0.000000 0.000000 0.000000 0.000000 0.025296
#
#
# Mechanical properties :
#
#
# Convention : Reuss Voigt Hill
#
# Bulk Modulus (GPa) = 47.87544 52.91361 50.39452
# Shear Modulus (GPa) = 25.19844 44.67707 34.93776
#
# Velocity S-wave (km/s) = 3.09764 4.12465 3.64747
# Velocity P-wave (km/s) = 5.56996 6.54467 6.07689
#
# Compressibility (1/GPa) = 0.02088754
#
# Stress axis : x y z
#
# Youngs Moduli (GPa) = 72.04052 21.07247 71.56633
#
# Poissons Ratio (x) = 0.37403 -0.38296
# Poissons Ratio (y) = 1.27871 1.06006
# Poissons Ratio (z) = -0.38550 0.31213
#
# Static dielectric constant tensor:
#      x y z
#    x 5.486090 0.000000 0.000000 
#    y 0.000000 4.327030 0.000000 
#    z 0.000000 0.000000 5.787510 
# 
# 
# High freq. dielectric constant tensor:
#      x y z
#    x 2.081120 0.000000 0.000000 
#    y 0.000000 2.026140 0.000000 
#    z 0.000000 0.000000 2.066430 
# 
# From -- ./inp_files/16116.got.cif
#   From: 2010.06.25/outbox.cif.g09.slc.cpg/sg43_9_cif.got.tgz:16116.got - 2010.06.26 16:48:59.
