data_PCOD8187073
_publ_section_title
;
Structure prediction by ZEFSAII (Michael W. Deem and Ramdas Pophale) SiO2 
 PCOD8187073
Probable space group: F D D 2
;
_chemical_formula_sum "Si O2"
_cell_formula_units_Z 64
_cell_length_a 18.826820
_cell_length_b 12.600540
_cell_length_c 13.405483
_cell_angle_alpha 90.000000
_cell_angle_beta 90.000000
_cell_angle_gamma 90.000000
_cell_volume 3180.157241
_symmetry_space_group_name_H-M "F D D 2"
_symmetry_group_IT_number 43
_symmetry_cell_setting 'orthorhombic'
loop_
_space_group_symop_operation_xyz
x,y,z
-x,-y,z
1/4-x,1/4+y,1/4+z
1/4+x,1/4-y,1/4+z
x,1/2+y,1/2+z
-x,1/2-y,1/2+z
1/4-x,3/4+y,3/4+z
1/4+x,3/4-y,3/4+z
1/2+x,y,1/2+z
1/2-x,-y,1/2+z
3/4-x,1/4+y,3/4+z
3/4+x,1/4-y,3/4+z
1/2+x,1/2+y,z
1/2-x,1/2-y,z
3/4-x,3/4+y,1/4+z
3/4+x,3/4-y,1/4+z
loop_
_atom_site_type_symbol
_atom_site_label
_atom_site_fract_x
_atom_site_fract_y
_atom_site_fract_z
Si Si1 0.688161 0.332792 0.631410
Si Si2 0.450187 0.903017 0.037026
Si Si3 0.570578 0.738215 0.708356
Si Si4 0.295006 0.527539 0.813875
O O1 0.750000 0.250000 0.608658
O O2 0.696991 0.440175 0.566832
O O3 0.689351 0.368920 0.747562
O O4 0.615277 0.274357 0.608046
O O5 0.610612 0.064660 0.958877
O O6 0.501000 0.808405 0.996182
O O7 0.500000 0.000000 0.067451
O O8 0.411630 0.863643 0.138563
O O9 0.504621 0.804785 0.660787
#
# Coordination Sequence:
#
# PCOD8187073 Si02
#       4
#    16  16  16  16
#     4  12  22  43  68  94 129 169 224 270 324 388
#     4  10  20  37  65  94 130 165 224 250 329 378
#     4  10  20  39  63  94 125 169 207 270 311 388
#     4  10  25  40  67  98 125 175 216 265 328 386
#
# _framework density 20.124790999999998
#
# number of rings (size 3 to 8) (size 9 to 14) (size 15 to 20)
#    1.500    0.000    2.500    3.750    0.000    0.000 
#    9.000    0.000    0.000    0.000    0.000    0.000 
#    0.000    0.000    0.000    0.000    0.000    0.000 
#
# Total GULP energy -198225.024335 kJ/mol
# GULP energy per Si atom -12389.064021 kJ/mol
# Density = 2.007899 g / cm^3
# Si number density = 20.124791 Si / 1000 Ang^3
#
#
#
# Elastic Constant Matrix: (Units=GPa)
#
#
# Indices 1 2 3 4 5 6 
#
# 1 174.7896 52.2002 56.2710 0.0000 0.0000 0.0000
# 2 52.2002 51.6743 14.9926 0.0000 0.0000 0.0000
# 3 56.2710 14.9926 66.8104 0.0000 0.0000 0.0000
# 4 0.0000 0.0000 0.0000 35.6828 0.0000 0.0000
# 5 0.0000 0.0000 0.0000 0.0000 30.1057 0.0000
# 6 0.0000 0.0000 0.0000 0.0000 0.0000 34.0103
#
#
#
# Elastic Compliance Matrix: (Units=1/GPa)
#
#
# Indices 1 2 3 4 5 6 
#
# 1 0.010529 -0.008624 -0.006932 0.000000 0.000000 0.000000
# 2 -0.008624 0.027764 0.001033 0.000000 0.000000 0.000000
# 3 -0.006932 0.001033 0.020575 0.000000 0.000000 0.000000
# 4 0.000000 0.000000 0.000000 0.028025 0.000000 0.000000
# 5 0.000000 0.000000 0.000000 0.000000 0.033216 0.000000
# 6 0.000000 0.000000 0.000000 0.000000 0.000000 0.029403
#
#
# Mechanical properties :
#
#
# Convention : Reuss Voigt Hill
#
# Bulk Modulus (GPa) = 33.53354 60.02244 46.77799
# Shear Modulus (GPa) = 26.52547 31.28047 28.90297
#
# Velocity S-wave (km/s) = 3.63443 3.94677 3.79382
# Velocity P-wave (km/s) = 5.85757 7.11753 6.51806
#
# Compressibility (1/GPa) = 0.02982089
#
# Stress axis : x y z
#
# Youngs Moduli (GPa) = 94.97965 36.01746 48.60372
#
# Poissons Ratio (x) = 0.31063 0.33694
# Poissons Ratio (y) = 0.81914 -0.05023
# Poissons Ratio (z) = 0.65843 -0.03722
#
# Static dielectric constant tensor:
#      x y z
#    x 3.734080 0.000000 0.000000 
#    y 0.000000 3.411010 0.000000 
#    z 0.000000 0.000000 3.406140 
# 
# 
# High freq. dielectric constant tensor:
#      x y z
#    x 1.799060 0.000000 0.000000 
#    y 0.000000 1.765910 0.000000 
#    z 0.000000 0.000000 1.764770 
# 
# From -- ./inp_files/5931.got.cif
#   From: 2010.06.25/outbox.cif.g09.slc.cpg/sg43_3_cif.got.tgz:5931.got - 2010.06.26 16:48:59.
