data_PCOD8187263
_publ_section_title
;
Structure prediction by ZEFSAII (Michael W. Deem and Ramdas Pophale) SiO2 
 PCOD8187263
Probable space group: F D D 2
;
_chemical_formula_sum "Si O2"
_cell_formula_units_Z 80
_cell_length_a 10.779157
_cell_length_b 29.278822
_cell_length_c 9.596579
_cell_angle_alpha 90.000000
_cell_angle_beta 90.000000
_cell_angle_gamma 90.000000
_cell_volume 3028.690112
_symmetry_space_group_name_H-M "F D D 2"
_symmetry_group_IT_number 43
_symmetry_cell_setting 'orthorhombic'
loop_
_space_group_symop_operation_xyz
x,y,z
-x,-y,z
1/4-x,1/4+y,1/4+z
1/4+x,1/4-y,1/4+z
x,1/2+y,1/2+z
-x,1/2-y,1/2+z
1/4-x,3/4+y,3/4+z
1/4+x,3/4-y,3/4+z
1/2+x,y,1/2+z
1/2-x,-y,1/2+z
3/4-x,1/4+y,3/4+z
3/4+x,1/4-y,3/4+z
1/2+x,1/2+y,z
1/2-x,1/2-y,z
3/4-x,3/4+y,1/4+z
3/4+x,3/4-y,1/4+z
loop_
_atom_site_type_symbol
_atom_site_label
_atom_site_fract_x
_atom_site_fract_y
_atom_site_fract_z
Si Si1 0.921332 0.075992 0.756300
Si Si2 0.111517 0.916586 0.192864
Si Si3 0.610002 0.571463 0.993369
Si Si4 0.300295 0.434358 0.457666
Si Si5 0.614076 0.717893 0.728098
O O1 0.930062 0.130193 0.733702
O O2 0.789814 0.063063 0.824313
O O3 0.940270 0.050883 0.609882
O O4 0.034461 0.060434 0.853421
O O5 0.130288 0.861798 0.198397
O O6 0.109729 0.937531 0.344478
O O7 0.223665 0.936032 0.101485
O O8 0.978595 0.929205 0.127208
O O9 0.715838 0.533384 0.010979
O O10 0.394397 0.478071 0.452746
#
# Coordination Sequence:
#
# PCOD8187263 Si02
#       5
#    16  16  16  16  16
#     4  10  21  41  69 101 137 186 238 289 353 425
#     4  10  25  45  70 104 146 181 239 297 353 422
#     4  10  22  43  68 100 139 189 230 286 363 412
#     4  10  24  47  69 104 144 187 234 297 358 424
#     4  12  24  45  76 101 142 188 241 294 350 427
#
# _framework density 26.414059000000002
#
# number of rings (size 3 to 8) (size 9 to 14) (size 15 to 20)
#    0.000    1.600    2.000    1.200    5.600    3.200 
#    3.600    4.000    0.000    0.000    0.000    0.000 
#    0.000    0.000    0.000    0.000    0.000    0.000 
#
# Total GULP energy -248195.299079 kJ/mol
# GULP energy per Si atom -12409.764954 kJ/mol
# Density = 2.635394 g / cm^3
# Si number density = 26.414059 Si / 1000 Ang^3
#
#
#
# Elastic Constant Matrix: (Units=GPa)
#
#
# Indices 1 2 3 4 5 6 
#
# 1 30.5169 -5.9699 12.5717 0.0000 0.0000 0.0000
# 2 -5.9699 104.0726 49.4296 0.0000 0.0000 0.0000
# 3 12.5717 49.4296 163.8866 0.0000 0.0000 0.0000
# 4 0.0000 0.0000 0.0000 15.1308 0.0000 0.0000
# 5 0.0000 0.0000 0.0000 0.0000 26.0755 0.0000
# 6 0.0000 0.0000 0.0000 0.0000 0.0000 46.2957
#
#
#
# Elastic Compliance Matrix: (Units=1/GPa)
#
#
# Indices 1 2 3 4 5 6 
#
# 1 0.035108 0.003844 -0.003852 0.000000 0.000000 0.000000
# 2 0.003844 0.011636 -0.003804 0.000000 0.000000 0.000000
# 3 -0.003852 -0.003804 0.007545 0.000000 0.000000 0.000000
# 4 0.000000 0.000000 0.000000 0.066090 0.000000 0.000000
# 5 0.000000 0.000000 0.000000 0.000000 0.038350 0.000000
# 6 0.000000 0.000000 0.000000 0.000000 0.000000 0.021600
#
#
# Mechanical properties :
#
#
# Convention : Reuss Voigt Hill
#
# Bulk Modulus (GPa) = 21.43067 45.61545 33.52306
# Shear Modulus (GPa) = 24.56885 33.66336 29.11611
#
# Velocity S-wave (km/s) = 3.05313 3.57381 3.32369
# Velocity P-wave (km/s) = 4.53429 5.85973 5.23909
#
# Compressibility (1/GPa) = 0.04666211
#
# Stress axis : x y z
#
# Youngs Moduli (GPa) = 28.48381 85.93982 132.54294
#
# Poissons Ratio (x) = -0.33031 0.51060
# Poissons Ratio (y) = -0.10948 0.50424
# Poissons Ratio (z) = 0.10973 0.32695
#
# Static dielectric constant tensor:
#      x y z
#    x 4.957060 0.000000 0.000000 
#    y 0.000000 4.723450 0.000000 
#    z 0.000000 0.000000 4.746240 
# 
# 
# High freq. dielectric constant tensor:
#      x y z
#    x 2.074030 0.000000 0.000000 
#    y 0.000000 2.055900 0.000000 
#    z 0.000000 0.000000 2.071440 
# 
# From -- ./inp_files/6172.got.cif
#   From: 2010.06.25/outbox.cif.g09.slc.cpg/sg43_4_cif.got.tgz:6172.got - 2010.06.26 16:48:59.
