data_PCOD8187028
_publ_section_title
;
Structure prediction by ZEFSAII (Michael W. Deem and Ramdas Pophale) SiO2 
 PCOD8187028
Probable space group: F D D 2
;
_chemical_formula_sum "Si O2"
_cell_formula_units_Z 88
_cell_length_a 18.466097
_cell_length_b 11.352335
_cell_length_c 19.580345
_cell_angle_alpha 90.000000
_cell_angle_beta 90.000000
_cell_angle_gamma 90.000000
_cell_volume 4104.692715
_symmetry_space_group_name_H-M "F D D 2"
_symmetry_group_IT_number 43
_symmetry_cell_setting 'orthorhombic'
loop_
_space_group_symop_operation_xyz
x,y,z
-x,-y,z
1/4-x,1/4+y,1/4+z
1/4+x,1/4-y,1/4+z
x,1/2+y,1/2+z
-x,1/2-y,1/2+z
1/4-x,3/4+y,3/4+z
1/4+x,3/4-y,3/4+z
1/2+x,y,1/2+z
1/2-x,-y,1/2+z
3/4-x,1/4+y,3/4+z
3/4+x,1/4-y,3/4+z
1/2+x,1/2+y,z
1/2-x,1/2-y,z
3/4-x,3/4+y,1/4+z
3/4+x,3/4-y,1/4+z
loop_
_atom_site_type_symbol
_atom_site_label
_atom_site_fract_x
_atom_site_fract_y
_atom_site_fract_z
Si Si1 0.000000 0.000000 0.304210
Si Si2 0.546288 0.121035 0.484266
Si Si3 0.464288 0.128299 0.232238
Si Si4 0.500851 0.244470 0.866213
Si Si5 0.347222 0.258239 0.427848
Si Si6 0.750787 0.940902 0.371413
O O1 0.928054 0.990090 0.256675
O O2 0.988184 0.107155 0.355637
O O3 0.630499 0.104905 0.503851
O O4 0.558333 0.191109 0.412923
O O5 0.504090 0.204533 0.539361
O O6 0.500000 0.000000 0.475341
O O7 0.504007 0.197834 0.292235
O O8 0.481378 0.188250 0.159360
O O9 0.500000 0.000000 0.229581
O O10 0.569429 0.265479 0.915747
O O11 0.307741 0.160345 0.383672
O O12 0.327310 0.389135 0.399094
#
# Coordination Sequence:
#
# PCOD8187028 Si02
#       6
#     8  16  16  16  16  16
#     4  10  24  44  62 100 130 174 230 288 346 416
#     4  12  25  43  71 105 130 182 245 282 336 435
#     4  12  26  44  67 101 148 180 221 294 362 406
#     4  12  24  42  70  98 132 180 231 287 345 416
#     4  10  19  40  72  89 124 171 233 284 322 403
#     4  10  20  41  65  97 128 175 225 280 334 403
#
# _framework density 21.438876
#
# number of rings (size 3 to 8) (size 9 to 14) (size 15 to 20)
#    0.000    1.091    7.273    1.636    5.091    1.455 
#    1.636    0.000    0.000    0.000    0.000    0.000 
#    0.000    0.000    0.000    0.000    0.000    0.000 
#
# Total GULP energy -272591.533980 kJ/mol
# GULP energy per Si atom -12390.524272 kJ/mol
# Density = 2.139008 g / cm^3
# Si number density = 21.438876 Si / 1000 Ang^3
#
#
#
# Elastic Constant Matrix: (Units=GPa)
#
#
# Indices 1 2 3 4 5 6 
#
# 1 29.7514 16.4910 -3.6112 0.0000 0.0000 0.0000
# 2 16.4910 138.8699 54.8168 0.0000 0.0000 0.0000
# 3 -3.6112 54.8168 128.5070 0.0000 0.0000 0.0000
# 4 0.0000 0.0000 0.0000 44.4297 0.0000 0.0000
# 5 0.0000 0.0000 0.0000 0.0000 12.8380 0.0000
# 6 0.0000 0.0000 0.0000 0.0000 0.0000 21.4651
#
#
#
# Elastic Compliance Matrix: (Units=1/GPa)
#
#
# Indices 1 2 3 4 5 6 
#
# 1 0.037265 -0.005818 0.003529 0.000000 0.000000 0.000000
# 2 -0.005818 0.009567 -0.004245 0.000000 0.000000 0.000000
# 3 0.003529 -0.004245 0.009691 0.000000 0.000000 0.000000
# 4 0.000000 0.000000 0.000000 0.022507 0.000000 0.000000
# 5 0.000000 0.000000 0.000000 0.000000 0.077894 0.000000
# 6 0.000000 0.000000 0.000000 0.000000 0.000000 0.046587
#
#
# Mechanical properties :
#
#
# Convention : Reuss Voigt Hill
#
# Bulk Modulus (GPa) = 23.01156 48.05794 35.53475
# Shear Modulus (GPa) = 21.63883 31.04201 26.34042
#
# Velocity S-wave (km/s) = 3.18044 3.80930 3.50898
# Velocity P-wave (km/s) = 4.92380 6.46626 5.74701
#
# Compressibility (1/GPa) = 0.04345641
#
# Stress axis : x y z
#
# Youngs Moduli (GPa) = 26.83460 104.52118 103.18344
#
# Poissons Ratio (x) = 0.60814 -0.36415
# Poissons Ratio (y) = 0.15613 0.43798
# Poissons Ratio (z) = -0.09470 0.44366
#
# Static dielectric constant tensor:
#      x y z
#    x 3.874940 0.000000 0.000000 
#    y 0.000000 3.821520 0.000000 
#    z 0.000000 0.000000 4.023220 
# 
# 
# High freq. dielectric constant tensor:
#      x y z
#    x 1.823350 0.000000 0.000000 
#    y 0.000000 1.827870 0.000000 
#    z 0.000000 0.000000 1.854040 
# 
# From -- ./inp_files/14558.got.cif
#   From: 2010.06.25/outbox.cif.g09.slc.cpg/sg43_8_cif.got.tgz:14558.got - 2010.06.26 16:48:59.
