data_PCOD8187087
_publ_section_title
;
Structure prediction by ZEFSAII (Michael W. Deem and Ramdas Pophale) SiO2 
 PCOD8187087
Probable space group: F D D 2
;
_chemical_formula_sum "Si O2"
_cell_formula_units_Z 120
_cell_length_a 14.302859
_cell_length_b 19.313090
_cell_length_c 21.163326
_cell_angle_alpha 90.000000
_cell_angle_beta 90.000000
_cell_angle_gamma 90.000000
_cell_volume 5845.996399
_symmetry_space_group_name_H-M "F D D 2"
_symmetry_group_IT_number 43
_symmetry_cell_setting 'orthorhombic'
loop_
_space_group_symop_operation_xyz
x,y,z
-x,-y,z
1/4-x,1/4+y,1/4+z
1/4+x,1/4-y,1/4+z
x,1/2+y,1/2+z
-x,1/2-y,1/2+z
1/4-x,3/4+y,3/4+z
1/4+x,3/4-y,3/4+z
1/2+x,y,1/2+z
1/2-x,-y,1/2+z
3/4-x,1/4+y,3/4+z
3/4+x,1/4-y,3/4+z
1/2+x,1/2+y,z
1/2-x,1/2-y,z
3/4-x,3/4+y,1/4+z
3/4+x,3/4-y,1/4+z
loop_
_atom_site_type_symbol
_atom_site_label
_atom_site_fract_x
_atom_site_fract_y
_atom_site_fract_z
Si Si1 0.075995 0.918990 0.933830
Si Si2 0.750000 0.750000 0.421245
Si Si3 0.259673 0.171460 0.885577
Si Si4 0.821675 0.453912 0.597508
Si Si5 0.045372 0.069931 0.492113
Si Si6 0.875438 0.183927 0.707565
Si Si7 0.279172 0.912162 0.138358
Si Si8 0.760175 0.875792 0.503713
O O1 0.056502 0.874796 0.870484
O O2 0.158403 0.892098 0.977670
O O3 0.980155 0.909412 0.974319
O O4 0.106092 0.997228 0.914932
O O5 0.829110 0.726135 0.373844
O O6 0.793970 0.807653 0.467293
O O7 0.250000 0.250000 0.909721
O O8 0.247470 0.166886 0.810006
O O9 0.183405 0.122263 0.918305
O O10 0.363042 0.147998 0.904313
O O11 0.820451 0.454390 0.521578
O O12 0.742238 0.506693 0.623198
O O13 0.158954 0.064875 0.496073
O O14 0.026215 0.136266 0.448986
O O15 0.000000 0.000000 0.463163
O O16 0.248166 0.864838 0.078718
#
# Coordination Sequence:
#
# PCOD8187087 Si02
#       8
#    16   8  16  16  16  16  16  16
#     4  10  23  40  65  95 130 172 218 276 333 400
#     4  10  20  38  62  94 134 166 212 278 334 410
#     4  10  24  44  64  90 131 173 221 275 327 401
#     4  11  22  41  68  93 133 178 217 276 344 406
#     4  10  23  41  63  90 129 170 216 272 332 395
#     4  11  23  44  65  97 131 173 226 281 334 403
#     4  11  22  39  67  94 126 176 214 275 339 400
#     4  10  21  38  61  96 127 167 219 266 337 404
#
# _framework density 20.526868
#
# number of rings (size 3 to 8) (size 9 to 14) (size 15 to 20)
#    0.000    1.600    2.667    1.600    2.800    2.133 
#    7.200    0.000    0.000    0.000    0.000    0.000 
#    0.000    0.000    0.000    0.000    0.000    0.000 
#
# Total GULP energy -371791.068224 kJ/mol
# GULP energy per Si atom -12393.035607 kJ/mol
# Density = 2.048015 g / cm^3
# Si number density = 20.526868 Si / 1000 Ang^3
#
#
#
# Elastic Constant Matrix: (Units=GPa)
#
#
# Indices 1 2 3 4 5 6 
#
# 1 113.0658 49.6912 35.0108 0.0000 0.0000 0.0000
# 2 49.6912 123.4777 56.6654 0.0000 0.0000 0.0000
# 3 35.0108 56.6654 90.0088 0.0000 0.0000 0.0000
# 4 0.0000 0.0000 0.0000 32.7069 0.0000 0.0000
# 5 0.0000 0.0000 0.0000 0.0000 22.1550 0.0000
# 6 0.0000 0.0000 0.0000 0.0000 0.0000 38.7320
#
#
#
# Elastic Compliance Matrix: (Units=1/GPa)
#
#
# Indices 1 2 3 4 5 6 
#
# 1 0.011020 -0.003470 -0.002102 0.000000 0.000000 0.000000
# 2 -0.003470 0.012482 -0.006508 0.000000 0.000000 0.000000
# 3 -0.002102 -0.006508 0.016025 0.000000 0.000000 0.000000
# 4 0.000000 0.000000 0.000000 0.030575 0.000000 0.000000
# 5 0.000000 0.000000 0.000000 0.000000 0.045137 0.000000
# 6 0.000000 0.000000 0.000000 0.000000 0.000000 0.025818
#
#
# Mechanical properties :
#
#
# Convention : Reuss Voigt Hill
#
# Bulk Modulus (GPa) = 65.07707 67.69856 66.38782
# Shear Modulus (GPa) = 29.35314 31.06445 30.20879
#
# Velocity S-wave (km/s) = 3.78562 3.89441 3.84040
# Velocity P-wave (km/s) = 7.13303 7.29890 7.21644
#
# Compressibility (1/GPa) = 0.01536640
#
# Stress axis : x y z
#
# Youngs Moduli (GPa) = 90.74044 80.11615 62.40330
#
# Poissons Ratio (x) = 0.27804 0.13116
# Poissons Ratio (y) = 0.31491 0.40613
# Poissons Ratio (z) = 0.19072 0.52141
#
# Static dielectric constant tensor:
#      x y z
#    x 3.849690 0.000000 0.000000 
#    y 0.000000 3.949910 0.000000 
#    z 0.000000 0.000000 3.597640 
# 
# 
# High freq. dielectric constant tensor:
#      x y z
#    x 1.820590 0.000000 0.000000 
#    y 0.000000 1.798440 0.000000 
#    z 0.000000 0.000000 1.787010 
# 
# From -- ./inp_files/21845.got.cif
#   From: 2010.06.25/outbox.cif.g09.slc.cpg/sg43_11_cif.got.tgz:21845.got - 2010.06.26 16:48:59.
