data_PCOD8187862
_publ_section_title
;
Structure prediction by ZEFSAII (Michael W. Deem and Ramdas Pophale) SiO2 
 PCOD8187862
Probable space group: F D D 2
;
_chemical_formula_sum "Si O2"
_cell_formula_units_Z 40
_cell_length_a 7.035539
_cell_length_b 7.035540
_cell_length_c 32.053976
_cell_angle_alpha 90.000000
_cell_angle_beta 90.000000
_cell_angle_gamma 90.000000
_cell_volume 1586.633862
_symmetry_space_group_name_H-M "F D D 2"
_symmetry_group_IT_number 43
_symmetry_cell_setting 'orthorhombic'
loop_
_space_group_symop_operation_xyz
x,y,z
-x,-y,z
1/4-x,1/4+y,1/4+z
1/4+x,1/4-y,1/4+z
x,1/2+y,1/2+z
-x,1/2-y,1/2+z
1/4-x,3/4+y,3/4+z
1/4+x,3/4-y,3/4+z
1/2+x,y,1/2+z
1/2-x,-y,1/2+z
3/4-x,1/4+y,3/4+z
3/4+x,1/4-y,3/4+z
1/2+x,1/2+y,z
1/2-x,1/2-y,z
3/4-x,3/4+y,1/4+z
3/4+x,3/4-y,1/4+z
loop_
_atom_site_type_symbol
_atom_site_label
_atom_site_fract_x
_atom_site_fract_y
_atom_site_fract_z
Si Si1 0.000000 0.000000 0.418670
Si Si2 0.500000 0.000000 0.613798
Si Si3 0.750000 0.750000 0.973542
Si Si4 0.028667 0.721333 0.043670
O O1 0.928012 0.820678 0.391491
O O2 0.179322 0.928012 0.445849
O O3 0.439156 0.824761 0.584139
O O4 0.574761 0.689156 0.003201
O O5 0.250000 0.750000 0.038505
O O6 0.000000 0.500000 0.048836
#
# Coordination Sequence:
#
# PCOD8187862 Si02
#       4
#     8   8   8  16
#     4  12  32  48  82 120 172 212 260 352 410 480
#     4  12  30  54  81 123 166 214 278 329 419 472
#     4  12  30  54  81 123 166 214 278 329 419 472
#     4  12  28  54  88 120 156 222 276 338 392 504
#
# _framework density 25.210608000000001
#
# number of rings (size 3 to 8) (size 9 to 14) (size 15 to 20)
#    0.000    0.000    4.000    2.400    5.600    8.000 
#    0.000    0.000    0.000    0.000    0.000    0.000 
#    0.000    0.000    0.000    0.000    0.000    0.000 
#
# Total GULP energy -124004.927260 kJ/mol
# GULP energy per Si atom -12400.492726 kJ/mol
# Density = 2.515323 g / cm^3
# Si number density = 25.210608 Si / 1000 Ang^3
#
#
#
# Elastic Constant Matrix: (Units=GPa)
#
#
# Indices 1 2 3 4 5 6 
#
# 1 177.0487 102.5121 86.4392 0.0000 0.0000 0.0000
# 2 102.5121 177.0481 86.4396 0.0000 0.0000 0.0000
# 3 86.4392 86.4396 183.5820 0.0000 0.0000 0.0000
# 4 0.0000 0.0000 0.0000 26.6162 0.0000 0.0000
# 5 0.0000 0.0000 0.0000 0.0000 26.6158 0.0000
# 6 0.0000 0.0000 0.0000 0.0000 0.0000 57.0845
#
#
#
# Elastic Compliance Matrix: (Units=1/GPa)
#
#
# Indices 1 2 3 4 5 6 
#
# 1 0.009231 -0.004185 -0.002376 0.000000 0.000000 0.000000
# 2 -0.004185 0.009231 -0.002376 0.000000 0.000000 0.000000
# 3 -0.002376 -0.002376 0.007685 0.000000 0.000000 0.000000
# 4 0.000000 0.000000 0.000000 0.037571 0.000000 0.000000
# 5 0.000000 0.000000 0.000000 0.000000 0.037572 0.000000
# 6 0.000000 0.000000 0.000000 0.000000 0.000000 0.017518
#
#
# Mechanical properties :
#
#
# Convention : Reuss Voigt Hill
#
# Bulk Modulus (GPa) = 120.87290 120.94008 120.90649
# Shear Modulus (GPa) = 35.85769 39.54916 37.70343
#
# Velocity S-wave (km/s) = 3.77546 3.96504 3.87141
# Velocity P-wave (km/s) = 8.18870 8.30892 8.24903
#
# Compressibility (1/GPa) = 0.00827315
#
# Stress axis : x y z
#
# Youngs Moduli (GPa) = 108.32701 108.32624 130.12827
#
# Poissons Ratio (x) = 0.45334 0.30919
# Poissons Ratio (y) = 0.45334 0.30920
# Poissons Ratio (z) = 0.25739 0.25740
#
# Static dielectric constant tensor:
#      x y z
#    x 5.348530 0.000000 0.000000 
#    y 0.000000 5.348440 0.000000 
#    z 0.000000 0.000000 5.077790 
# 
# 
# High freq. dielectric constant tensor:
#      x y z
#    x 2.010190 0.000000 0.000000 
#    y 0.000000 2.010190 0.000000 
#    z 0.000000 0.000000 2.021570 
# 
# From -- ./inp_files/27499.got.cif
#   From: 2010.06.25/outbox.cif.g09.slc.cpg/sg43_14_cif.got.tgz:27499.got - 2010.06.26 16:48:59.
