data_PCOD8187439
_publ_section_title
;
Structure prediction by ZEFSAII (Michael W. Deem and Ramdas Pophale) SiO2 
 PCOD8187439
Probable space group: F D D 2
;
_chemical_formula_sum "Si O2"
_cell_formula_units_Z 112
_cell_length_a 13.248556
_cell_length_b 30.128595
_cell_length_c 12.582597
_cell_angle_alpha 90.000000
_cell_angle_beta 90.000000
_cell_angle_gamma 90.000000
_cell_volume 5022.474175
_symmetry_space_group_name_H-M "F D D 2"
_symmetry_group_IT_number 43
_symmetry_cell_setting 'orthorhombic'
loop_
_space_group_symop_operation_xyz
x,y,z
-x,-y,z
1/4-x,1/4+y,1/4+z
1/4+x,1/4-y,1/4+z
x,1/2+y,1/2+z
-x,1/2-y,1/2+z
1/4-x,3/4+y,3/4+z
1/4+x,3/4-y,3/4+z
1/2+x,y,1/2+z
1/2-x,-y,1/2+z
3/4-x,1/4+y,3/4+z
3/4+x,1/4-y,3/4+z
1/2+x,1/2+y,z
1/2-x,1/2-y,z
3/4-x,3/4+y,1/4+z
3/4+x,3/4-y,1/4+z
loop_
_atom_site_type_symbol
_atom_site_label
_atom_site_fract_x
_atom_site_fract_y
_atom_site_fract_z
Si Si1 0.849147 0.271648 0.916510
Si Si2 0.765626 0.353606 0.189296
Si Si3 0.712467 0.931518 0.827791
Si Si4 0.941395 0.544980 0.131906
Si Si5 0.374445 0.357739 0.067705
Si Si6 0.592143 0.888472 0.549471
Si Si7 0.030622 0.797953 0.796749
O O1 0.750000 0.250000 0.966136
O O2 0.822006 0.320822 0.877816
O O3 0.891278 0.240610 0.824113
O O4 0.927342 0.275135 0.013248
O O5 0.868019 0.346014 0.124708
O O6 0.777878 0.400513 0.249869
O O7 0.749341 0.316839 0.281791
O O8 0.673096 0.355181 0.105085
O O9 0.782469 0.950650 0.919392
O O10 0.938516 0.576850 0.236125
O O11 0.827501 0.535304 0.095338
O O12 0.000000 0.500000 0.163129
O O13 0.488673 0.362239 0.026819
O O14 0.380425 0.339839 0.188763
O O15 0.318284 0.404430 0.084870
#
# Coordination Sequence:
#
# PCOD8187439 Si02
#       7
#    16  16  16  16  16  16  16
#     4  11  24  43  67 104 139 181 236 295 351 419
#     4  10  22  44  69 101 135 189 239 288 356 430
#     4  10  23  42  71  95 139 188 232 289 351 428
#     4  11  26  46  72 106 140 186 243 298 357 434
#     4  12  23  46  70  98 141 184 230 291 366 423
#     4  11  24  42  72  99 136 185 234 289 357 431
#     4  11  24  46  68 102 143 184 232 296 356 420
#
# _framework density 22.299766999999999
#
# number of rings (size 3 to 8) (size 9 to 14) (size 15 to 20)
#    0.000    1.143    4.286    1.714    0.000    7.429 
#    2.571    0.000    0.000    0.000    0.000    0.000 
#    0.000    0.000    0.000    0.000    0.000    0.000 
#
# Total GULP energy -347184.194508 kJ/mol
# GULP energy per Si atom -12399.435518 kJ/mol
# Density = 2.224901 g / cm^3
# Si number density = 22.299767 Si / 1000 Ang^3
#
#
#
# Elastic Constant Matrix: (Units=GPa)
#
#
# Indices 1 2 3 4 5 6 
#
# 1 54.6407 22.3951 16.5283 0.0000 0.0000 0.0000
# 2 22.3951 82.3175 23.9030 0.0000 0.0000 0.0000
# 3 16.5283 23.9030 124.6626 0.0000 0.0000 0.0000
# 4 0.0000 0.0000 0.0000 32.7286 0.0000 0.0000
# 5 0.0000 0.0000 0.0000 0.0000 30.3371 0.0000
# 6 0.0000 0.0000 0.0000 0.0000 0.0000 33.3440
#
#
#
# Elastic Compliance Matrix: (Units=1/GPa)
#
#
# Indices 1 2 3 4 5 6 
#
# 1 0.020967 -0.005186 -0.001786 0.000000 0.000000 0.000000
# 2 -0.005186 0.014147 -0.002025 0.000000 0.000000 0.000000
# 3 -0.001786 -0.002025 0.008647 0.000000 0.000000 0.000000
# 4 0.000000 0.000000 0.000000 0.030554 0.000000 0.000000
# 5 0.000000 0.000000 0.000000 0.000000 0.032963 0.000000
# 6 0.000000 0.000000 0.000000 0.000000 0.000000 0.029990
#
#
# Mechanical properties :
#
#
# Convention : Reuss Voigt Hill
#
# Bulk Modulus (GPa) = 38.80796 43.03039 40.91918
# Shear Modulus (GPa) = 30.51573 32.53492 31.52533
#
# Velocity S-wave (km/s) = 3.70325 3.82380 3.76401
# Velocity P-wave (km/s) = 5.97712 6.23166 6.10572
#
# Compressibility (1/GPa) = 0.02576791
#
# Stress axis : x y z
#
# Youngs Moduli (GPa) = 47.69423 70.68685 115.65153
#
# Poissons Ratio (x) = 0.36656 0.20650
# Poissons Ratio (y) = 0.24733 0.23419
# Poissons Ratio (z) = 0.08516 0.14314
#
# Static dielectric constant tensor:
#      x y z
#    x 3.954490 0.000000 0.000000 
#    y 0.000000 3.818600 0.000000 
#    z 0.000000 0.000000 4.288110 
# 
# 
# High freq. dielectric constant tensor:
#      x y z
#    x 1.875410 0.000000 0.000000 
#    y 0.000000 1.862400 0.000000 
#    z 0.000000 0.000000 1.897940 
# 
# From -- ./inp_files/6338.got.cif
#   From: 2010.06.25/outbox.cif.g09.slc.cpg/sg43_4_cif.got.tgz:6338.got - 2010.06.26 16:48:59.
