data_PCOD8187882
_publ_section_title
;
Structure prediction by ZEFSAII (Michael W. Deem and Ramdas Pophale) SiO2 
 PCOD8187882
Probable space group: I M M 2
;
_chemical_formula_sum "Si O2"
_cell_formula_units_Z 64
_cell_length_a 8.905911
_cell_length_b 26.269857
_cell_length_c 18.517852
_cell_angle_alpha 90.000000
_cell_angle_beta 90.000000
_cell_angle_gamma 90.000000
_cell_volume 4332.381256
_symmetry_space_group_name_H-M "I M M 2"
_symmetry_group_IT_number 44
_symmetry_cell_setting 'orthorhombic'
loop_
_space_group_symop_operation_xyz
x,y,z
-x,-y,z
-x,y,z
x,-y,z
1/2+x,1/2+y,1/2+z
1/2-x,1/2-y,1/2+z
1/2-x,1/2+y,1/2+z
1/2+x,1/2-y,1/2+z
loop_
_atom_site_type_symbol
_atom_site_label
_atom_site_fract_x
_atom_site_fract_y
_atom_site_fract_z
Si Si1 0.164299 0.304695 0.769500
Si Si2 0.679898 0.856460 0.133206
Si Si3 0.335156 0.296324 0.175670
Si Si4 0.177565 0.144112 0.811518
Si Si5 0.824900 0.558498 0.395745
Si Si6 0.174223 0.059083 0.045528
Si Si7 0.821315 0.242731 0.895526
Si Si8 0.676675 0.261453 0.558687
O O1 0.242144 0.345701 0.715450
O O2 0.149340 0.253428 0.723841
O O3 0.247223 0.288716 0.844660
O O4 0.000000 0.326390 0.788654
O O5 0.500000 0.855404 0.131820
O O6 0.741663 0.910860 0.108979
O O7 0.739392 0.813099 0.079597
O O8 0.500000 0.309771 0.143942
O O9 0.278712 0.341415 0.228784
O O10 0.221525 0.286270 0.109434
O O11 0.263787 0.092195 0.829957
O O12 0.234406 0.187834 0.867023
O O13 0.000000 0.135588 0.818653
O O14 0.789932 0.500000 0.376634
O O15 0.740588 0.575233 0.468543
O O16 0.000000 0.567890 0.407841
O O17 0.000000 0.073498 0.045653
O O18 0.202439 0.000000 0.061198
O O19 0.000000 0.244466 0.886006
O O20 0.771653 0.252019 0.977458
O O21 0.500000 0.271018 0.563604
#
# Coordination Sequence:
#
# PCOD8187882 Si02
#       8
#     8   8   8   8   8   8   8   8
#     4   7  12  24  39  54  74 101 130 159 193 232
#     4  10  18  28  43  59  78 106 137 170 205 239
#     4   8  15  27  40  55  78 107 136 166 200 237
#     4   9  16  28  45  59  76 108 143 170 199 237
#     4  10  20  31  42  59  83 107 133 169 207 239
#     4  10  20  32  44  58  79 107 137 168 200 238
#     4   8  14  24  38  57  79 103 133 164 194 231
#     4  10  17  24  39  61  83 108 137 168 200 238
#
# _framework density 14.772475
#
# number of rings (size 3 to 8) (size 9 to 14) (size 15 to 20)
#    0.000    3.000    0.000    4.500    0.000    3.000 
#    0.000    0.625    0.000    7.500    0.000    0.000 
#    0.000    1.000    0.000    5.000    0.000    3.500 
#
# Total GULP energy -396486.803979 kJ/mol
# GULP energy per Si atom -12390.212624 kJ/mol
# Density = 1.473885 g / cm^3
# Si number density = 14.772475 Si / 1000 Ang^3
#
#
#
# Elastic Constant Matrix: (Units=GPa)
#
#
# Indices 1 2 3 4 5 6 
#
# 1 53.5831 29.2414 34.6684 0.0001 0.0000 0.0000
# 2 29.2414 66.2826 47.7238 0.0001 0.0000 0.0000
# 3 34.6684 47.7238 103.2744 0.0001 0.0000 0.0000
# 4 0.0001 0.0001 0.0001 28.0635 0.0000 0.0000
# 5 0.0000 0.0000 0.0000 0.0000 19.7867 0.0000
# 6 0.0000 0.0000 0.0000 0.0000 0.0000 20.9094
#
#
#
# Elastic Compliance Matrix: (Units=1/GPa)
#
#
# Indices 1 2 3 4 5 6 
#
# 1 0.026320 -0.007868 -0.005200 0.000000 0.000000 0.000000
# 2 -0.007868 0.024961 -0.008894 0.000000 0.000000 0.000000
# 3 -0.005200 -0.008894 0.015538 0.000000 0.000000 0.000000
# 4 0.000000 0.000000 0.000000 0.035634 0.000000 0.000000
# 5 0.000000 0.000000 0.000000 0.000000 0.050539 0.000000
# 6 0.000000 0.000000 0.000000 0.000000 0.000000 0.047825
#
#
# Mechanical properties :
#
#
# Convention : Reuss Voigt Hill
#
# Bulk Modulus (GPa) = 43.67255 49.60081 46.63668
# Shear Modulus (GPa) = 19.81194 21.18568 20.49881
#
# Velocity S-wave (km/s) = 3.66613 3.79110 3.72914
# Velocity P-wave (km/s) = 6.89553 7.26723 7.08382
#
# Compressibility (1/GPa) = 0.02289768
#
# Stress axis : x y z
#
# Youngs Moduli (GPa) = 37.99324 40.06201 64.35700
#
# Poissons Ratio (x) = 0.31519 0.33465
# Poissons Ratio (y) = 0.29892 0.57237
# Poissons Ratio (z) = 0.19756 0.35630
#
# Static dielectric constant tensor:
#      x y z
#    x 2.751380 0.000000 0.000000 
#    y 0.000000 2.771420 0.000000 
#    z 0.000000 0.000000 3.106550 
# 
# 
# High freq. dielectric constant tensor:
#      x y z
#    x 1.554590 0.000000 0.000000 
#    y 0.000000 1.533430 0.000000 
#    z 0.000000 0.000000 1.557740 
# 
# From -- ./inp_files/20918.got.cif
#   From: 2010.03.12/outbox.cif.g09.slc.cpg/sg44_11_cif.got.tgz:20918.got - 2010.04.14 02:36:11.
