data_PCOD8187243
_publ_section_title
;
Structure prediction by ZEFSAII (Michael W. Deem and Ramdas Pophale) SiO2 
 PCOD8187243
Probable space group: F D D 2
;
_chemical_formula_sum "Si O2"
_cell_formula_units_Z 80
_cell_length_a 5.059655
_cell_length_b 21.654934
_cell_length_c 30.324599
_cell_angle_alpha 90.000000
_cell_angle_beta 90.000000
_cell_angle_gamma 90.000000
_cell_volume 3322.560027
_symmetry_space_group_name_H-M "F D D 2"
_symmetry_group_IT_number 43
_symmetry_cell_setting 'orthorhombic'
loop_
_space_group_symop_operation_xyz
x,y,z
-x,-y,z
1/4-x,1/4+y,1/4+z
1/4+x,1/4-y,1/4+z
x,1/2+y,1/2+z
-x,1/2-y,1/2+z
1/4-x,3/4+y,3/4+z
1/4+x,3/4-y,3/4+z
1/2+x,y,1/2+z
1/2-x,-y,1/2+z
3/4-x,1/4+y,3/4+z
3/4+x,1/4-y,3/4+z
1/2+x,1/2+y,z
1/2-x,1/2-y,z
3/4-x,3/4+y,1/4+z
3/4+x,3/4-y,1/4+z
loop_
_atom_site_type_symbol
_atom_site_label
_atom_site_fract_x
_atom_site_fract_y
_atom_site_fract_z
Si Si1 0.088990 0.328748 0.467450
Si Si2 0.000000 0.000000 0.442833
Si Si3 0.000000 0.500000 0.163123
Si Si4 0.088992 0.171252 0.138506
Si Si5 0.076986 0.882653 0.504767
Si Si6 0.826987 0.132653 0.351189
O O1 0.124997 0.375000 0.427978
O O2 0.366729 0.328108 0.493328
O O3 0.000567 0.263721 0.445381
O O4 0.865703 0.352990 0.501710
O O5 0.250567 0.013720 0.410574
O O6 0.931195 0.059492 0.471613
O O7 0.931196 0.440508 0.134343
O O8 0.366729 0.171892 0.112628
O O9 0.865705 0.147010 0.104246
O O10 0.999998 0.907929 0.552978
#
# Coordination Sequence:
#
# PCOD8187243 Si02
#       6
#    16   8   8  16  16  16
#     4  10  22  39  62  90 124 164 205 251 309 378
#     4  10  21  40  66  88 118 168 210 242 306 382
#     4  10  21  40  66  88 118 168 210 242 306 382
#     4  10  22  39  62  90 124 164 205 251 309 378
#     4  11  23  40  62  94 126 157 205 267 310 356
#     4  11  23  40  62  94 126 157 205 267 310 356
#
# _framework density 24.077819000000002
#
# number of rings (size 3 to 8) (size 9 to 14) (size 15 to 20)
#    0.000    1.600    0.000    6.600    0.000   14.400 
#    0.000   12.000    0.000    0.000    0.000    0.000 
#    0.000    0.000    0.000    0.000    0.000    0.000 
#
# Total GULP energy -247822.236879 kJ/mol
# GULP energy per Si atom -12391.111844 kJ/mol
# Density = 2.402302 g / cm^3
# Si number density = 24.077819 Si / 1000 Ang^3
#
#
#
# Elastic Constant Matrix: (Units=GPa)
#
#
# Indices 1 2 3 4 5 6 
#
# 1 128.4530 37.2714 15.4968 0.0000 0.0000 0.0000
# 2 37.2714 92.7691 57.1686 0.0000 0.0000 0.0000
# 3 15.4968 57.1686 65.8939 0.0000 0.0000 0.0000
# 4 0.0000 0.0000 0.0000 29.8832 0.0000 0.0000
# 5 0.0000 0.0000 0.0000 0.0000 39.3361 0.0000
# 6 0.0000 0.0000 0.0000 0.0000 0.0000 37.5050
#
#
#
# Elastic Compliance Matrix: (Units=1/GPa)
#
#
# Indices 1 2 3 4 5 6 
#
# 1 0.008956 -0.004943 0.002182 0.000000 0.000000 0.000000
# 2 -0.004943 0.025892 -0.021301 0.000000 0.000000 0.000000
# 3 0.002182 -0.021301 0.033143 0.000000 0.000000 0.000000
# 4 0.000000 0.000000 0.000000 0.033464 0.000000 0.000000
# 5 0.000000 0.000000 0.000000 0.000000 0.025422 0.000000
# 6 0.000000 0.000000 0.000000 0.000000 0.000000 0.026663
#
#
# Mechanical properties :
#
#
# Convention : Reuss Voigt Hill
#
# Bulk Modulus (GPa) = 50.33345 56.33218 53.33282
# Shear Modulus (GPa) = 24.00539 33.15680 28.58109
#
# Velocity S-wave (km/s) = 3.16094 3.71491 3.44907
# Velocity P-wave (km/s) = 5.85423 6.46896 6.16925
#
# Compressibility (1/GPa) = 0.01986750
#
# Stress axis : x y z
#
# Youngs Moduli (GPa) = 111.65807 38.62170 30.17195
#
# Poissons Ratio (x) = 0.19091 -0.06584
# Poissons Ratio (y) = 0.55192 0.64270
# Poissons Ratio (z) = -0.24366 0.82269
#
# Static dielectric constant tensor:
#      x y z
#    x 5.599620 0.000000 0.000000 
#    y 0.000000 4.547520 0.000000 
#    z 0.000000 0.000000 4.603220 
# 
# 
# High freq. dielectric constant tensor:
#      x y z
#    x 1.977080 0.000000 0.000000 
#    y 0.000000 1.947430 0.000000 
#    z 0.000000 0.000000 1.948960 
# 
# From -- ./inp_files/27216.got.cif
#   From: 2010.06.25/outbox.cif.g09.slc.cpg/sg43_14_cif.got.tgz:27216.got - 2010.06.26 16:48:59.
