data_PCOD8187267
_publ_section_title
;
Structure prediction by ZEFSAII (Michael W. Deem and Ramdas Pophale) SiO2 
 PCOD8187267
Probable space group: F D D 2
;
_chemical_formula_sum "Si O2"
_cell_formula_units_Z 96
_cell_length_a 30.451802
_cell_length_b 17.381239
_cell_length_c 8.401642
_cell_angle_alpha 90.000000
_cell_angle_beta 90.000000
_cell_angle_gamma 90.000000
_cell_volume 4446.905502
_symmetry_space_group_name_H-M "F D D 2"
_symmetry_group_IT_number 43
_symmetry_cell_setting 'orthorhombic'
loop_
_space_group_symop_operation_xyz
x,y,z
-x,-y,z
1/4-x,1/4+y,1/4+z
1/4+x,1/4-y,1/4+z
x,1/2+y,1/2+z
-x,1/2-y,1/2+z
1/4-x,3/4+y,3/4+z
1/4+x,3/4-y,3/4+z
1/2+x,y,1/2+z
1/2-x,-y,1/2+z
3/4-x,1/4+y,3/4+z
3/4+x,1/4-y,3/4+z
1/2+x,1/2+y,z
1/2-x,1/2-y,z
3/4-x,3/4+y,1/4+z
3/4+x,3/4-y,1/4+z
loop_
_atom_site_type_symbol
_atom_site_label
_atom_site_fract_x
_atom_site_fract_y
_atom_site_fract_z
Si Si1 0.460501 0.819828 0.694890
Si Si2 0.353224 0.092717 0.183235
Si Si3 0.844757 0.453921 0.652604
Si Si4 0.805859 0.889606 0.452523
Si Si5 0.819934 0.728349 0.562201
Si Si6 0.892443 0.939416 0.629070
O O1 0.440761 0.808310 0.517237
O O2 0.438232 0.764913 0.825218
O O3 0.512559 0.806532 0.708986
O O4 0.450040 0.909261 0.714446
O O5 0.377263 0.163114 0.267776
O O6 0.389265 0.025567 0.196105
O O7 0.342358 0.124318 0.005510
O O8 0.820737 0.391309 0.766705
O O9 0.879853 0.500478 0.760941
O O10 0.792464 0.805207 0.520638
O O11 0.843691 0.922549 0.564015
O O12 0.820148 0.697563 0.743839
#
# Coordination Sequence:
#
# PCOD8187267 Si02
#       6
#    16  16  16  16  16  16
#     4  11  24  39  64  93 133 164 211 271 330 376
#     4  11  22  40  64  95 124 167 219 264 312 388
#     4  10  22  39  63  88 122 172 216 251 313 400
#     4  11  24  40  64  93 131 164 213 270 330 378
#     4  10  21  42  63  90 119 176 210 258 320 398
#     4  11  22  40  68  92 122 169 222 261 312 394
#
# _framework density 21.588045999999999
#
# number of rings (size 3 to 8) (size 9 to 14) (size 15 to 20)
#    0.000    1.333    3.333    3.500    7.000    0.000 
#    0.000    1.667    0.000    0.000    0.000    0.000 
#    0.000    0.000    0.000    0.000    0.000    0.000 
#
# Total GULP energy -297380.184164 kJ/mol
# GULP energy per Si atom -12390.841007 kJ/mol
# Density = 2.153891 g / cm^3
# Si number density = 21.588046 Si / 1000 Ang^3
#
#
#
# Elastic Constant Matrix: (Units=GPa)
#
#
# Indices 1 2 3 4 5 6 
#
# 1 52.4925 -6.9188 23.0860 0.0000 0.0000 0.0000
# 2 -6.9188 64.4097 17.0772 0.0000 0.0000 0.0000
# 3 23.0860 17.0772 114.1672 0.0000 0.0000 0.0000
# 4 0.0000 0.0000 0.0000 40.4349 0.0000 0.0000
# 5 0.0000 0.0000 0.0000 0.0000 15.2801 0.0000
# 6 0.0000 0.0000 0.0000 0.0000 0.0000 22.1495
#
#
#
# Elastic Compliance Matrix: (Units=1/GPa)
#
#
# Indices 1 2 3 4 5 6 
#
# 1 0.021699 0.003639 -0.004932 0.000000 0.000000 0.000000
# 2 0.003639 0.016777 -0.003245 0.000000 0.000000 0.000000
# 3 -0.004932 -0.003245 0.010242 0.000000 0.000000 0.000000
# 4 0.000000 0.000000 0.000000 0.024731 0.000000 0.000000
# 5 0.000000 0.000000 0.000000 0.000000 0.065445 0.000000
# 6 0.000000 0.000000 0.000000 0.000000 0.000000 0.045148
#
#
# Mechanical properties :
#
#
# Convention : Reuss Voigt Hill
#
# Bulk Modulus (GPa) = 25.22694 33.06202 29.14448
# Shear Modulus (GPa) = 24.23278 28.76123 26.49700
#
# Velocity S-wave (km/s) = 3.35402 3.65400 3.50722
# Velocity P-wave (km/s) = 5.16820 5.75764 5.47086
#
# Compressibility (1/GPa) = 0.03964016
#
# Stress axis : x y z
#
# Youngs Moduli (GPa) = 46.08501 59.60584 97.63875
#
# Poissons Ratio (x) = -0.21688 0.48156
# Poissons Ratio (y) = -0.16768 0.31686
# Poissons Ratio (z) = 0.22729 0.19344
#
# Static dielectric constant tensor:
#      x y z
#    x 3.795700 0.000000 0.000000 
#    y 0.000000 3.864480 0.000000 
#    z 0.000000 0.000000 4.056520 
# 
# 
# High freq. dielectric constant tensor:
#      x y z
#    x 1.821800 0.000000 0.000000 
#    y 0.000000 1.854760 0.000000 
#    z 0.000000 0.000000 1.852290 
# 
# From -- ./inp_files/4206.got.cif
#   From: 2010.06.25/outbox.cif.g09.slc.cpg/sg43_3_cif.got.tgz:4206.got - 2010.06.26 16:48:59.
