data_PCOD8187190
_publ_section_title
;
Structure prediction by ZEFSAII (Michael W. Deem and Ramdas Pophale) SiO2 
 PCOD8187190
Probable space group: F D D 2
;
_chemical_formula_sum "Si O2"
_cell_formula_units_Z 112
_cell_length_a 14.417754
_cell_length_b 16.628812
_cell_length_c 21.933605
_cell_angle_alpha 90.000000
_cell_angle_beta 90.000000
_cell_angle_gamma 90.000000
_cell_volume 5258.584447
_symmetry_space_group_name_H-M "F D D 2"
_symmetry_group_IT_number 43
_symmetry_cell_setting 'orthorhombic'
loop_
_space_group_symop_operation_xyz
x,y,z
-x,-y,z
1/4-x,1/4+y,1/4+z
1/4+x,1/4-y,1/4+z
x,1/2+y,1/2+z
-x,1/2-y,1/2+z
1/4-x,3/4+y,3/4+z
1/4+x,3/4-y,3/4+z
1/2+x,y,1/2+z
1/2-x,-y,1/2+z
3/4-x,1/4+y,3/4+z
3/4+x,1/4-y,3/4+z
1/2+x,1/2+y,z
1/2-x,1/2-y,z
3/4-x,3/4+y,1/4+z
3/4+x,3/4-y,1/4+z
loop_
_atom_site_type_symbol
_atom_site_label
_atom_site_fract_x
_atom_site_fract_y
_atom_site_fract_z
Si Si1 0.000000 0.000000 0.303051
Si Si2 0.000000 0.500000 0.041046
Si Si3 0.915403 0.342518 0.988733
Si Si4 0.328405 0.313132 0.244312
Si Si5 0.061762 0.926028 0.857891
Si Si6 0.412904 0.288079 0.872281
Si Si7 0.547564 0.206884 0.505554
Si Si8 0.201306 0.908309 0.103270
O O1 0.069453 0.941439 0.265902
O O2 0.946804 0.937838 0.346178
O O3 0.061268 0.563117 0.001319
O O4 0.069828 0.447772 0.083633
O O5 0.899193 0.325196 0.916919
O O6 0.006624 0.296222 0.014522
O O7 0.250000 0.250000 0.260490
O O8 0.358753 0.304210 0.173616
O O9 0.294612 0.404004 0.250416
O O10 0.408333 0.298201 0.293667
O O11 0.145546 0.920129 0.811069
O O12 0.997907 0.847051 0.854917
O O13 0.000000 0.000000 0.836198
O O14 0.390449 0.299838 0.944039
O O15 0.445883 0.196271 0.859632
#
# Coordination Sequence:
#
# PCOD8187190 Si02
#       8
#     8   8  16  16  16  16  16  16
#     4  12  23  46  66 100 129 186 222 266 342 402
#     4  12  23  46  62  96 129 174 216 274 330 394
#     4  11  25  42  68  95 135 173 227 271 332 410
#     4  10  21  37  62  94 127 160 215 278 334 390
#     4  10  21  39  62  92 125 163 219 275 330 397
#     4  10  23  40  64  92 129 165 219 268 333 402
#     4  10  21  41  62  93 124 170 214 274 329 399
#     4  11  23  43  64  95 131 170 217 279 325 402
#
# _framework density 21.298507000000001
#
# number of rings (size 3 to 8) (size 9 to 14) (size 15 to 20)
#    0.000    1.429    2.857    2.143    2.000    1.143 
#    0.000    0.000    0.000    0.000    0.000    0.000 
#    0.000    0.000    0.000    0.000    0.000    0.000 
#
# Total GULP energy -346996.857121 kJ/mol
# GULP energy per Si atom -12392.744897 kJ/mol
# Density = 2.125003 g / cm^3
# Si number density = 21.298507 Si / 1000 Ang^3
#
#
#
# Elastic Constant Matrix: (Units=GPa)
#
#
# Indices 1 2 3 4 5 6 
#
# 1 71.7418 15.8883 54.2660 0.0000 0.0000 0.0000
# 2 15.8883 94.5964 18.8349 0.0000 0.0000 0.0000
# 3 54.2660 18.8349 113.5081 0.0000 0.0000 0.0000
# 4 0.0000 0.0000 0.0000 26.8502 0.0000 0.0000
# 5 0.0000 0.0000 0.0000 0.0000 31.7179 0.0000
# 6 0.0000 0.0000 0.0000 0.0000 0.0000 31.3769
#
#
#
# Elastic Compliance Matrix: (Units=1/GPa)
#
#
# Indices 1 2 3 4 5 6 
#
# 1 0.022085 -0.001662 -0.010282 0.000000 0.000000 0.000000
# 2 -0.001662 0.011057 -0.001040 0.000000 0.000000 0.000000
# 3 -0.010282 -0.001040 0.013898 0.000000 0.000000 0.000000
# 4 0.000000 0.000000 0.000000 0.037244 0.000000 0.000000
# 5 0.000000 0.000000 0.000000 0.000000 0.031528 0.000000
# 6 0.000000 0.000000 0.000000 0.000000 0.000000 0.031871
#
#
# Mechanical properties :
#
#
# Convention : Reuss Voigt Hill
#
# Bulk Modulus (GPa) = 47.45826 50.86940 49.16383
# Shear Modulus (GPa) = 27.67386 30.71281 29.19334
#
# Velocity S-wave (km/s) = 3.60854 3.80151 3.70628
# Velocity P-wave (km/s) = 6.30023 6.57301 6.43807
#
# Compressibility (1/GPa) = 0.02107115
#
# Stress axis : x y z
#
# Youngs Moduli (GPa) = 45.28024 90.43643 71.95074
#
# Poissons Ratio (x) = 0.15031 0.73983
# Poissons Ratio (y) = 0.07526 0.07485
# Poissons Ratio (z) = 0.46559 0.09408
#
# Static dielectric constant tensor:
#      x y z
#    x 3.563470 0.000000 0.000000 
#    y 0.000000 4.140190 0.000000 
#    z 0.000000 0.000000 3.966320 
# 
# 
# High freq. dielectric constant tensor:
#      x y z
#    x 1.809420 0.000000 0.000000 
#    y 0.000000 1.848900 0.000000 
#    z 0.000000 0.000000 1.842040 
# 
# From -- ./inp_files/21780.got.cif
#   From: 2010.06.25/outbox.cif.g09.slc.cpg/sg43_11_cif.got.tgz:21780.got - 2010.06.26 16:48:59.
