data_PCOD8187459
_publ_section_title
;
Structure prediction by ZEFSAII (Michael W. Deem and Ramdas Pophale) SiO2 
 PCOD8187459
Probable space group: F D D 2
;
_chemical_formula_sum "Si O2"
_cell_formula_units_Z 120
_cell_length_a 7.622523
_cell_length_b 28.785321
_cell_length_c 25.660895
_cell_angle_alpha 90.000000
_cell_angle_beta 90.000000
_cell_angle_gamma 90.000000
_cell_volume 5630.430732
_symmetry_space_group_name_H-M "F D D 2"
_symmetry_group_IT_number 43
_symmetry_cell_setting 'orthorhombic'
loop_
_space_group_symop_operation_xyz
x,y,z
-x,-y,z
1/4-x,1/4+y,1/4+z
1/4+x,1/4-y,1/4+z
x,1/2+y,1/2+z
-x,1/2-y,1/2+z
1/4-x,3/4+y,3/4+z
1/4+x,3/4-y,3/4+z
1/2+x,y,1/2+z
1/2-x,-y,1/2+z
3/4-x,1/4+y,3/4+z
3/4+x,1/4-y,3/4+z
1/2+x,1/2+y,z
1/2-x,1/2-y,z
3/4-x,3/4+y,1/4+z
3/4+x,3/4-y,1/4+z
loop_
_atom_site_type_symbol
_atom_site_label
_atom_site_fract_x
_atom_site_fract_y
_atom_site_fract_z
Si Si1 0.394614 0.041615 0.491290
Si Si2 0.039987 0.053938 0.439501
Si Si3 0.437773 0.363077 0.008928
Si Si4 0.935510 0.772423 0.950617
Si Si5 0.448188 0.761120 0.332643
Si Si6 0.099087 0.897928 0.539932
Si Si7 0.265953 0.841912 0.079549
Si Si8 0.250000 0.250000 0.523569
O O1 0.243319 0.058784 0.453445
O O2 0.532094 0.083517 0.493764
O O3 0.500000 0.000000 0.463636
O O4 0.325302 0.021418 0.547627
O O5 0.927740 0.073940 0.486577
O O6 0.001510 0.088634 0.391625
O O7 0.000000 0.000000 0.427993
O O8 0.442755 0.328533 0.958892
O O9 0.239220 0.356630 0.031057
O O10 0.580743 0.353717 0.053453
O O11 0.750000 0.750000 0.966471
O O12 0.987441 0.753382 0.893467
O O13 0.080189 0.754272 0.989068
O O14 0.250000 0.750000 0.315902
O O15 0.458232 0.816652 0.326404
O O16 0.915844 0.879576 0.564193
O O17 0.314247 0.791424 0.059796
#
# Coordination Sequence:
#
# PCOD8187459 Si02
#       8
#    16  16  16  16  16  16  16   8
#     4  12  22  44  69 101 144 178 230 301 348 426
#     4  12  23  46  71  98 139 191 229 289 365 421
#     4  11  24  44  66 102 136 178 238 291 346 427
#     4  10  24  41  65  97 135 179 231 283 349 417
#     4  11  21  40  65  96 134 178 226 282 357 408
#     4  12  23  43  68  98 137 175 230 292 342 425
#     4  11  25  45  68  96 137 179 233 285 351 414
#     4  10  22  46  64  90 134 178 220 282 342 412
#
# _framework density 21.312757000000001
#
# number of rings (size 3 to 8) (size 9 to 14) (size 15 to 20)
#    0.000    0.800    6.000    0.800    2.800    1.067 
#    4.800    0.667    0.000    0.000    0.000    0.000 
#    0.000    0.000    0.000    0.000    0.000    0.000 
#
# Total GULP energy -371727.825272 kJ/mol
# GULP energy per Si atom -12390.927509 kJ/mol
# Density = 2.126425 g / cm^3
# Si number density = 21.312757 Si / 1000 Ang^3
#
#
#
# Elastic Constant Matrix: (Units=GPa)
#
#
# Indices 1 2 3 4 5 6 
#
# 1 103.7019 26.9641 32.8930 0.0000 0.0000 0.0000
# 2 26.9641 110.3448 32.3692 0.0000 0.0000 0.0000
# 3 32.8930 32.3692 88.4926 0.0000 0.0000 0.0000
# 4 0.0000 0.0000 0.0000 -8.2229 0.0000 0.0000
# 5 0.0000 0.0000 0.0000 0.0000 56.3030 0.0000
# 6 0.0000 0.0000 0.0000 0.0000 0.0000 38.0443
#
#
#
# Elastic Compliance Matrix: (Units=1/GPa)
#
#
# Indices 1 2 3 4 5 6 
#
# 1 0.011209 -0.001699 -0.003545 0.000000 0.000000 0.000000
# 2 -0.001699 0.010409 -0.003176 0.000000 0.000000 0.000000
# 3 -0.003545 -0.003176 0.013780 0.000000 0.000000 0.000000
# 4 0.000000 0.000000 0.000000 -0.121612 0.000000 0.000000
# 5 0.000000 0.000000 0.000000 0.000000 0.017761 0.000000
# 6 0.000000 0.000000 0.000000 0.000000 0.000000 0.026285
#
#
# Mechanical properties :
#
#
# Convention : Reuss Voigt Hill
#
# Bulk Modulus (GPa) = 53.88485 54.11019 53.99752
# Shear Modulus (GPa) = -261.21947 31.24577 -114.98685
#
# Velocity S-wave (km/s) = -11.08291 3.83307 -7.35318
# Velocity P-wave (km/s) = 11.76592 6.71071 6.83385
#
# Compressibility (1/GPa) = 0.01855809
#
# Stress axis : x y z
#
# Youngs Moduli (GPa) = 89.21190 96.06716 72.57011
#
# Poissons Ratio (x) = 0.16324 0.25726
# Poissons Ratio (y) = 0.15159 0.23048
# Poissons Ratio (z) = 0.31625 0.30511
#
# Static dielectric constant tensor:
#      x y z
#    x 2.797880 0.000000 0.000000 
#    y 0.000000 4.135970 0.000000 
#    z 0.000000 0.000000 3.698560 
# 
# 
# High freq. dielectric constant tensor:
#      x y z
#    x 1.851710 0.000000 0.000000 
#    y 0.000000 1.844530 0.000000 
#    z 0.000000 0.000000 1.820030 
# 
# From -- ./inp_files/20541.got.cif
#   From: 2010.06.25/outbox.cif.g09.slc.cpg/sg43_11_cif.got.tgz:20541.got - 2010.06.26 16:48:59.
