data_PCOD8187269
_publ_section_title
;
Structure prediction by ZEFSAII (Michael W. Deem and Ramdas Pophale) SiO2 
 PCOD8187269
Probable space group: F D D 2
;
_chemical_formula_sum "Si O2"
_cell_formula_units_Z 80
_cell_length_a 11.365757
_cell_length_b 21.586277
_cell_length_c 15.295872
_cell_angle_alpha 90.000000
_cell_angle_beta 90.000000
_cell_angle_gamma 90.000000
_cell_volume 3752.756216
_symmetry_space_group_name_H-M "F D D 2"
_symmetry_group_IT_number 43
_symmetry_cell_setting 'orthorhombic'
loop_
_space_group_symop_operation_xyz
x,y,z
-x,-y,z
1/4-x,1/4+y,1/4+z
1/4+x,1/4-y,1/4+z
x,1/2+y,1/2+z
-x,1/2-y,1/2+z
1/4-x,3/4+y,3/4+z
1/4+x,3/4-y,3/4+z
1/2+x,y,1/2+z
1/2-x,-y,1/2+z
3/4-x,1/4+y,3/4+z
3/4+x,1/4-y,3/4+z
1/2+x,1/2+y,z
1/2-x,1/2-y,z
3/4-x,3/4+y,1/4+z
3/4+x,3/4-y,1/4+z
loop_
_atom_site_type_symbol
_atom_site_label
_atom_site_fract_x
_atom_site_fract_y
_atom_site_fract_z
Si Si1 0.527443 0.799816 0.404490
Si Si2 0.832327 0.534159 0.331672
Si Si3 0.755798 0.089105 0.146820
Si Si4 0.422845 0.907701 0.298437
Si Si5 0.994577 0.881614 0.208791
O O1 0.513878 0.798022 0.508714
O O2 0.435423 0.845710 0.356267
O O3 0.664013 0.821663 0.400386
O O4 0.997068 0.767696 0.364743
O O5 0.846121 0.460323 0.348950
O O6 0.789663 0.563447 0.422668
O O7 0.948542 0.563447 0.287529
O O8 0.639703 0.105895 0.204561
O O9 0.870245 0.100525 0.204040
O O10 0.772955 0.132399 0.062747
#
# Coordination Sequence:
#
# PCOD8187269 Si02
#       5
#    16  16  16  16  16
#     4  10  21  42  64  91 127 169 212 260 313 384
#     4   9  19  39  63  89 121 167 212 266 304 379
#     4  11  24  41  64  95 130 167 209 264 326 377
#     4   9  21  38  63  90 123 164 219 259 310 378
#     4  11  22  42  63  95 131 166 210 262 325 380
#
# _framework density 21.317665000000002
#
# number of rings (size 3 to 8) (size 9 to 14) (size 15 to 20)
#    0.000    2.000    2.000    0.600    2.800    3.200 
#   10.800    0.000    0.000    0.000    0.000    0.000 
#    0.000    0.000    0.000    0.000    0.000    0.000 
#
# Total GULP energy -247807.209348 kJ/mol
# GULP energy per Si atom -12390.360467 kJ/mol
# Density = 2.126915 g / cm^3
# Si number density = 21.317665 Si / 1000 Ang^3
#
#
#
# Elastic Constant Matrix: (Units=GPa)
#
#
# Indices 1 2 3 4 5 6 
#
# 1 87.3631 31.3048 27.3614 0.0000 0.0000 0.0000
# 2 31.3048 87.4111 28.4311 0.0000 0.0000 0.0000
# 3 27.3614 28.4311 76.9013 0.0000 0.0000 0.0000
# 4 0.0000 0.0000 0.0000 21.6477 0.0000 0.0000
# 5 0.0000 0.0000 0.0000 0.0000 37.1780 0.0000
# 6 0.0000 0.0000 0.0000 0.0000 0.0000 21.9766
#
#
#
# Elastic Compliance Matrix: (Units=1/GPa)
#
#
# Indices 1 2 3 4 5 6 
#
# 1 0.013930 -0.003838 -0.003537 0.000000 0.000000 0.000000
# 2 -0.003838 0.014062 -0.003833 0.000000 0.000000 0.000000
# 3 -0.003537 -0.003833 0.015679 0.000000 0.000000 0.000000
# 4 0.000000 0.000000 0.000000 0.046194 0.000000 0.000000
# 5 0.000000 0.000000 0.000000 0.000000 0.026898 0.000000
# 6 0.000000 0.000000 0.000000 0.000000 0.000000 0.045503
#
#
# Mechanical properties :
#
#
# Convention : Reuss Voigt Hill
#
# Bulk Modulus (GPa) = 47.05063 47.31892 47.18477
# Shear Modulus (GPa) = 26.07335 27.13232 26.60284
#
# Velocity S-wave (km/s) = 3.50106 3.57145 3.53643
# Velocity P-wave (km/s) = 6.20180 6.26516 6.23356
#
# Compressibility (1/GPa) = 0.02125370
#
# Stress axis : x y z
#
# Youngs Moduli (GPa) = 71.78943 71.11614 63.77830
#
# Poissons Ratio (x) = 0.27296 0.22559
# Poissons Ratio (y) = 0.27554 0.24447
# Poissons Ratio (z) = 0.25393 0.27259
#
# Static dielectric constant tensor:
#      x y z
#    x 3.786670 0.000000 0.000000 
#    y 0.000000 3.993830 0.000000 
#    z 0.000000 0.000000 3.489280 
# 
# 
# High freq. dielectric constant tensor:
#      x y z
#    x 1.838870 0.000000 0.000000 
#    y 0.000000 1.833510 0.000000 
#    z 0.000000 0.000000 1.819250 
# 
# From -- ./inp_files/12747.got.cif
#   From: 2010.06.25/outbox.cif.g09.slc.cpg/sg43_7_cif.got.tgz:12747.got - 2010.06.26 16:48:59.
