data_PCOD8187556
_publ_section_title
;
Structure prediction by ZEFSAII (Michael W. Deem and Ramdas Pophale) SiO2 
 PCOD8187556
Probable space group: F D D 2
;
_chemical_formula_sum "Si O2"
_cell_formula_units_Z 112
_cell_length_a 13.489721
_cell_length_b 35.832934
_cell_length_c 10.656917
_cell_angle_alpha 90.000000
_cell_angle_beta 90.000000
_cell_angle_gamma 90.000000
_cell_volume 5151.300920
_symmetry_space_group_name_H-M "F D D 2"
_symmetry_group_IT_number 43
_symmetry_cell_setting 'orthorhombic'
loop_
_space_group_symop_operation_xyz
x,y,z
-x,-y,z
1/4-x,1/4+y,1/4+z
1/4+x,1/4-y,1/4+z
x,1/2+y,1/2+z
-x,1/2-y,1/2+z
1/4-x,3/4+y,3/4+z
1/4+x,3/4-y,3/4+z
1/2+x,y,1/2+z
1/2-x,-y,1/2+z
3/4-x,1/4+y,3/4+z
3/4+x,1/4-y,3/4+z
1/2+x,1/2+y,z
1/2-x,1/2-y,z
3/4-x,3/4+y,1/4+z
3/4+x,3/4-y,1/4+z
loop_
_atom_site_type_symbol
_atom_site_label
_atom_site_fract_x
_atom_site_fract_y
_atom_site_fract_z
Si Si1 0.731516 0.151274 0.155100
Si Si2 0.599871 0.022067 0.239068
Si Si3 0.207132 0.404520 0.079381
Si Si4 0.568547 0.826163 0.783079
Si Si5 0.163144 0.830474 0.704830
Si Si6 0.492741 0.291343 0.044974
Si Si7 0.036636 0.541368 0.705987
O O1 0.641123 0.154700 0.248839
O O2 0.737507 0.109124 0.104936
O O3 0.832887 0.155889 0.228317
O O4 0.720373 0.183615 0.049987
O O5 0.651080 0.040945 0.118616
O O6 0.572110 0.052732 0.340271
O O7 0.500000 0.000000 0.198478
O O8 0.681226 0.996455 0.307588
O O9 0.221762 0.367088 0.160268
O O10 0.192991 0.436875 0.180446
O O11 0.298880 0.410266 0.985364
O O12 0.490110 0.812625 0.678040
O O13 0.215434 0.813736 0.826427
O O14 0.606582 0.284656 0.014470
O O15 0.000000 0.500000 0.681685
#
# Coordination Sequence:
#
# PCOD8187556 Si02
#       7
#    16  16  16  16  16  16  16
#     4  11  23  43  72 101 135 181 234 288 348 428
#     4  12  27  46  69 101 140 191 235 294 362 434
#     4  11  23  43  70  97 138 179 231 291 350 424
#     4  11  25  45  69 104 138 184 238 289 360 425
#     4  11  25  44  66 100 136 182 234 286 358 413
#     4  10  26  43  68 103 138 183 229 291 358 421
#     4  10  24  44  68 102 139 182 230 290 350 416
#
# _framework density 21.742080000000001
#
# number of rings (size 3 to 8) (size 9 to 14) (size 15 to 20)
#    0.000    1.143    1.429    3.000    8.000    3.429 
#    2.571    0.000    0.000    0.000    0.000    0.000 
#    0.000    0.000    0.000    0.000    0.000    0.000 
#
# Total GULP energy -347279.718204 kJ/mol
# GULP energy per Si atom -12402.847079 kJ/mol
# Density = 2.169259 g / cm^3
# Si number density = 21.742080 Si / 1000 Ang^3
#
#
#
# Elastic Constant Matrix: (Units=GPa)
#
#
# Indices 1 2 3 4 5 6 
#
# 1 33.0861 61.0967 45.9227 0.0000 0.0000 0.0000
# 2 61.0967 67.9643 -9.6281 0.0000 0.0000 0.0000
# 3 45.9227 -9.6281 65.7467 0.0000 0.0000 0.0000
# 4 0.0000 0.0000 0.0000 117.8128 0.0000 0.0000
# 5 0.0000 0.0000 0.0000 0.0000 8.3512 0.0000
# 6 0.0000 0.0000 0.0000 0.0000 0.0000 32.2392
#
#
#
# Elastic Compliance Matrix: (Units=1/GPa)
#
#
# Indices 1 2 3 4 5 6 
#
# 1 -0.014684 0.014963 0.012447 0.000000 0.000000 0.000000
# 2 0.014963 -0.000223 -0.010484 0.000000 0.000000 0.000000
# 3 0.012447 -0.010484 0.004980 0.000000 0.000000 0.000000
# 4 0.000000 0.000000 0.000000 0.008488 0.000000 0.000000
# 5 0.000000 0.000000 0.000000 0.000000 0.119743 0.000000
# 6 0.000000 0.000000 0.000000 0.000000 0.000000 0.031018
#
#
# Mechanical properties :
#
#
# Convention : Reuss Voigt Hill
#
# Bulk Modulus (GPa) = 41.79397 40.17552 40.98474
# Shear Modulus (GPa) = 40.50379 36.30770 38.40574
#
# Velocity S-wave (km/s) = 4.32084 4.09091 4.20744
# Velocity P-wave (km/s) = 6.64509 6.39002 6.51880
#
# Compressibility (1/GPa) = 0.02392690
#
# Stress axis : x y z
#
# Youngs Moduli (GPa) = -68.10328 -4487.15826 200.79097
#
# Poissons Ratio (x) = 67.14233 -2.49933
# Poissons Ratio (y) = 1.01904 2.10512
# Poissons Ratio (z) = 0.84771 -47.04392
#
# Static dielectric constant tensor:
#      x y z
#    x 3.892740 0.000000 0.000000 
#    y 0.000000 4.114700 0.000000 
#    z 0.000000 0.000000 4.244740 
# 
# 
# High freq. dielectric constant tensor:
#      x y z
#    x 1.852030 0.000000 0.000000 
#    y 0.000000 1.870460 0.000000 
#    z 0.000000 0.000000 1.871570 
# 
# From -- ./inp_files/6322.got.cif
#   From: 2010.06.25/outbox.cif.g09.slc.cpg/sg43_4_cif.got.tgz:6322.got - 2010.06.26 16:48:59.
