data_PCOD8187571
_publ_section_title
;
Structure prediction by ZEFSAII (Michael W. Deem and Ramdas Pophale) SiO2 
 PCOD8187571
Probable space group: F D D 2
;
_chemical_formula_sum "Si O2"
_cell_formula_units_Z 64
_cell_length_a 14.423768
_cell_length_b 7.196987
_cell_length_c 26.435467
_cell_angle_alpha 90.000000
_cell_angle_beta 90.000000
_cell_angle_gamma 90.000000
_cell_volume 2744.204255
_symmetry_space_group_name_H-M "F D D 2"
_symmetry_group_IT_number 43
_symmetry_cell_setting 'orthorhombic'
loop_
_space_group_symop_operation_xyz
x,y,z
-x,-y,z
1/4-x,1/4+y,1/4+z
1/4+x,1/4-y,1/4+z
x,1/2+y,1/2+z
-x,1/2-y,1/2+z
1/4-x,3/4+y,3/4+z
1/4+x,3/4-y,3/4+z
1/2+x,y,1/2+z
1/2-x,-y,1/2+z
3/4-x,1/4+y,3/4+z
3/4+x,1/4-y,3/4+z
1/2+x,1/2+y,z
1/2-x,1/2-y,z
3/4-x,3/4+y,1/4+z
3/4+x,3/4-y,1/4+z
loop_
_atom_site_type_symbol
_atom_site_label
_atom_site_fract_x
_atom_site_fract_y
_atom_site_fract_z
Si Si1 0.983192 0.286680 0.774900
Si Si2 0.648129 0.181081 0.864181
Si Si3 0.855276 0.263208 0.684510
Si Si4 0.354334 0.243507 0.842207
O O1 0.916921 0.237445 0.821096
O O2 0.933540 0.201078 0.725272
O O3 0.000000 0.500000 0.763695
O O4 0.083250 0.207308 0.792617
O O5 0.750000 0.250000 0.849378
O O6 0.620162 0.271447 0.918117
O O7 0.630680 0.960536 0.866443
O O8 0.750000 0.250000 0.705783
O O9 0.872588 0.138261 0.635753
O O10 0.250000 0.250000 0.822266
#
# Coordination Sequence:
#
# PCOD8187571 Si02
#       4
#    16  16  16  16
#     4  10  24  45  71 108 148 190 246 306 367 437
#     4  11  22  44  72 100 148 187 233 309 359 436
#     4  12  24  46  76 108 140 198 249 302 376 440
#     4  11  24  46  72 107 148 191 243 310 369 436
#
# _framework density 23.321878000000002
#
# number of rings (size 3 to 8) (size 9 to 14) (size 15 to 20)
#    0.000    1.000    5.000    1.500    0.000    0.000 
#    4.500    0.000    0.000    0.000    0.000    0.000 
#    0.000    0.000    0.000    0.000    0.000    0.000 
#
# Total GULP energy -198268.681257 kJ/mol
# GULP energy per Si atom -12391.792579 kJ/mol
# Density = 2.326880 g / cm^3
# Si number density = 23.321878 Si / 1000 Ang^3
#
#
#
# Elastic Constant Matrix: (Units=GPa)
#
#
# Indices 1 2 3 4 5 6 
#
# 1 211.6468 29.3335 78.3328 0.0000 0.0000 0.0000
# 2 29.3335 68.9825 33.2315 0.0000 0.0000 0.0000
# 3 78.3328 33.2315 132.2620 0.0000 0.0000 0.0000
# 4 0.0000 0.0000 0.0000 21.1524 0.0000 0.0000
# 5 0.0000 0.0000 0.0000 0.0000 34.8240 0.0000
# 6 0.0000 0.0000 0.0000 0.0000 0.0000 27.9455
#
#
#
# Elastic Compliance Matrix: (Units=1/GPa)
#
#
# Indices 1 2 3 4 5 6 
#
# 1 0.006108 -0.000972 -0.003373 0.000000 0.000000 0.000000
# 2 -0.000972 0.016647 -0.003607 0.000000 0.000000 0.000000
# 3 -0.003373 -0.003607 0.010465 0.000000 0.000000 0.000000
# 4 0.000000 0.000000 0.000000 0.047276 0.000000 0.000000
# 5 0.000000 0.000000 0.000000 0.000000 0.028716 0.000000
# 6 0.000000 0.000000 0.000000 0.000000 0.000000 0.035784
#
#
# Mechanical properties :
#
#
# Convention : Reuss Voigt Hill
#
# Bulk Modulus (GPa) = 57.75190 77.18743 67.46967
# Shear Modulus (GPa) = 29.99888 34.91728 32.45808
#
# Velocity S-wave (km/s) = 3.59039 3.87355 3.73466
# Velocity P-wave (km/s) = 6.48110 7.29207 6.89851
#
# Compressibility (1/GPa) = 0.01731545
#
# Stress axis : x y z
#
# Youngs Moduli (GPa) = 163.71738 60.06921 95.55824
#
# Poissons Ratio (x) = 0.05841 0.32234
# Poissons Ratio (y) = 0.15919 0.34467
# Poissons Ratio (z) = 0.55226 0.21666
#
# Static dielectric constant tensor:
#      x y z
#    x 4.840980 0.000000 0.000000 
#    y 0.000000 4.505520 0.000000 
#    z 0.000000 0.000000 4.063800 
# 
# 
# High freq. dielectric constant tensor:
#      x y z
#    x 1.946640 0.000000 0.000000 
#    y 0.000000 1.922950 0.000000 
#    z 0.000000 0.000000 1.901360 
# 
# From -- ./inp_files/19940.got.cif
#   From: 2010.06.25/outbox.cif.g09.slc.cpg/sg43_10_cif.got.tgz:19940.got - 2010.06.26 16:48:59.
