data_PCOD8187078
_publ_section_title
;
Structure prediction by ZEFSAII (Michael W. Deem and Ramdas Pophale) SiO2 
 PCOD8187078
Probable space group: F D D 2
;
_chemical_formula_sum "Si O2"
_cell_formula_units_Z 88
_cell_length_a 13.140730
_cell_length_b 12.971210
_cell_length_c 25.609901
_cell_angle_alpha 90.000000
_cell_angle_beta 90.000000
_cell_angle_gamma 90.000000
_cell_volume 4365.237548
_symmetry_space_group_name_H-M "F D D 2"
_symmetry_group_IT_number 43
_symmetry_cell_setting 'orthorhombic'
loop_
_space_group_symop_operation_xyz
x,y,z
-x,-y,z
1/4-x,1/4+y,1/4+z
1/4+x,1/4-y,1/4+z
x,1/2+y,1/2+z
-x,1/2-y,1/2+z
1/4-x,3/4+y,3/4+z
1/4+x,3/4-y,3/4+z
1/2+x,y,1/2+z
1/2-x,-y,1/2+z
3/4-x,1/4+y,3/4+z
3/4+x,1/4-y,3/4+z
1/2+x,1/2+y,z
1/2-x,1/2-y,z
3/4-x,3/4+y,1/4+z
3/4+x,3/4-y,1/4+z
loop_
_atom_site_type_symbol
_atom_site_label
_atom_site_fract_x
_atom_site_fract_y
_atom_site_fract_z
Si Si1 0.635477 0.274744 0.764520
Si Si2 0.868358 0.929340 0.688358
Si Si3 0.664480 0.104577 0.405856
Si Si4 0.671303 0.492328 0.796277
Si Si5 0.403113 0.441214 0.298184
Si Si6 0.000000 0.500000 0.896508
O O1 0.750000 0.250000 0.777310
O O2 0.617878 0.278575 0.702310
O O3 0.612609 0.382082 0.794745
O O4 0.572082 0.179070 0.787500
O O5 0.777184 0.849038 0.680861
O O6 0.968477 0.882614 0.662917
O O7 0.847087 0.040260 0.660652
O O8 0.880425 0.940385 0.750677
O O9 0.648384 0.048151 0.350756
O O10 0.791073 0.478948 0.780319
O O11 0.500000 0.500000 0.271034
O O12 0.405383 0.464331 0.360232
#
# Coordination Sequence:
#
# PCOD8187078 Si02
#       6
#    16  16  16  16  16   8
#     4   9  20  39  57  85 121 150 202 249 296 374
#     4  10  22  36  60  90 117 155 207 251 298 371
#     4  10  20  40  59  85 120 159 200 251 307 361
#     4  10  20  40  61  84 121 162 197 255 309 352
#     4   9  19  38  59  86 120 159 198 251 305 361
#     4  10  20  38  58  90 118 152 202 246 302 360
#
# _framework density 20.159269999999999
#
# number of rings (size 3 to 8) (size 9 to 14) (size 15 to 20)
#    0.545    1.818    1.818    0.000    0.000    4.364 
#   16.364    0.909    0.000    0.000    0.000    0.000 
#    0.000    0.000    0.000    0.000    0.000    0.000 
#
# Total GULP energy -272562.086317 kJ/mol
# GULP energy per Si atom -12389.185742 kJ/mol
# Density = 2.011339 g / cm^3
# Si number density = 20.159270 Si / 1000 Ang^3
#
#
#
# Elastic Constant Matrix: (Units=GPa)
#
#
# Indices 1 2 3 4 5 6 
#
# 1 33.0621 29.7649 5.6437 0.0000 0.0000 0.0000
# 2 29.7649 154.5252 81.7737 0.0000 0.0000 0.0000
# 3 5.6437 81.7737 137.7255 0.0000 0.0000 0.0000
# 4 0.0000 0.0000 0.0000 33.3042 0.0000 0.0000
# 5 0.0000 0.0000 0.0000 0.0000 24.0816 0.0000
# 6 0.0000 0.0000 0.0000 0.0000 0.0000 30.3749
#
#
#
# Elastic Compliance Matrix: (Units=1/GPa)
#
#
# Indices 1 2 3 4 5 6 
#
# 1 0.038100 -0.009496 0.004077 0.000000 0.000000 0.000000
# 2 -0.009496 0.011803 -0.006619 0.000000 0.000000 0.000000
# 3 0.004077 -0.006619 0.011024 0.000000 0.000000 0.000000
# 4 0.000000 0.000000 0.000000 0.030026 0.000000 0.000000
# 5 0.000000 0.000000 0.000000 0.000000 0.041525 0.000000
# 6 0.000000 0.000000 0.000000 0.000000 0.000000 0.032922
#
#
# Mechanical properties :
#
#
# Convention : Reuss Voigt Hill
#
# Bulk Modulus (GPa) = 27.13693 62.18636 44.66164
# Shear Modulus (GPa) = 24.78189 31.42751 28.10470
#
# Velocity S-wave (km/s) = 3.50995 3.95265 3.73786
# Velocity P-wave (km/s) = 5.46963 7.19345 6.38994
#
# Compressibility (1/GPa) = 0.03685016
#
# Stress axis : x y z
#
# Youngs Moduli (GPa) = 26.24706 84.72128 90.71304
#
# Poissons Ratio (x) = 0.80455 -0.36986
# Poissons Ratio (y) = 0.24925 0.60044
# Poissons Ratio (z) = -0.10701 0.56078
#
# Static dielectric constant tensor:
#      x y z
#    x 3.464690 0.000000 0.000000 
#    y 0.000000 4.105350 0.000000 
#    z 0.000000 0.000000 3.411850 
# 
# 
# High freq. dielectric constant tensor:
#      x y z
#    x 1.774490 0.000000 0.000000 
#    y 0.000000 1.799580 0.000000 
#    z 0.000000 0.000000 1.769990 
# 
# From -- ./inp_files/17548.got.cif
#   From: 2010.06.25/outbox.cif.g09.slc.cpg/sg43_9_cif.got.tgz:17548.got - 2010.06.26 16:48:59.
