data_PCOD8187101
_publ_section_title
;
Structure prediction by ZEFSAII (Michael W. Deem and Ramdas Pophale) SiO2 
 PCOD8187101
Probable space group: F D D 2
;
_chemical_formula_sum "Si O2"
_cell_formula_units_Z 112
_cell_length_a 33.820757
_cell_length_b 11.403288
_cell_length_c 15.033187
_cell_angle_alpha 90.000000
_cell_angle_beta 90.000000
_cell_angle_gamma 90.000000
_cell_volume 5797.816645
_symmetry_space_group_name_H-M "F D D 2"
_symmetry_group_IT_number 43
_symmetry_cell_setting 'orthorhombic'
loop_
_space_group_symop_operation_xyz
x,y,z
-x,-y,z
1/4-x,1/4+y,1/4+z
1/4+x,1/4-y,1/4+z
x,1/2+y,1/2+z
-x,1/2-y,1/2+z
1/4-x,3/4+y,3/4+z
1/4+x,3/4-y,3/4+z
1/2+x,y,1/2+z
1/2-x,-y,1/2+z
3/4-x,1/4+y,3/4+z
3/4+x,1/4-y,3/4+z
1/2+x,1/2+y,z
1/2-x,1/2-y,z
3/4-x,3/4+y,1/4+z
3/4+x,3/4-y,1/4+z
loop_
_atom_site_type_symbol
_atom_site_label
_atom_site_fract_x
_atom_site_fract_y
_atom_site_fract_z
Si Si1 0.021963 0.832879 0.002390
Si Si2 0.492769 0.133877 0.887706
Si Si3 0.517797 0.262761 0.206027
Si Si4 0.691725 0.801748 0.193310
Si Si5 0.079705 0.791374 0.488089
Si Si6 0.534167 0.921558 0.135326
Si Si7 0.167866 0.842514 0.496893
O O1 0.017177 0.820023 0.108306
O O2 0.023984 0.708928 0.949083
O O3 0.985070 0.895749 0.956503
O O4 0.059693 0.920230 0.985806
O O5 0.498774 0.150075 0.781525
O O6 0.500000 0.000000 0.912467
O O7 0.446790 0.170475 0.903598
O O8 0.488999 0.149464 0.212174
O O9 0.562191 0.218358 0.228144
O O10 0.680436 0.789123 0.090848
O O11 0.662566 0.899569 0.238340
O O12 0.052285 0.824874 0.570869
O O13 0.120829 0.860348 0.489795
O O14 0.500000 0.000000 0.086816
O O15 0.569484 0.999839 0.172130
#
# Coordination Sequence:
#
# PCOD8187101 Si02
#       7
#    16  16  16  16  16  16  16
#     4  10  21  38  62  88 121 154 203 258 299 360
#     4  11  23  38  61  95 123 157 214 258 310 367
#     4  11  21  38  61  91 121 167 204 252 314 367
#     4  10  20  39  61  87 118 157 200 253 302 363
#     4  11  21  39  59  93 124 156 202 260 317 366
#     4  10  21  34  61  91 119 156 213 252 301 369
#     4  11  22  36  65  87 122 162 207 256 311 376
#
# _framework density 19.317616999999998
#
# number of rings (size 3 to 8) (size 9 to 14) (size 15 to 20)
#    0.000    1.429    5.714    2.143    8.000    0.000 
#    0.000    0.000   12.571    0.000    0.000    0.000 
#    0.000    0.000    0.000    0.000    0.000    0.000 
#
# Total GULP energy -346912.892046 kJ/mol
# GULP energy per Si atom -12389.746144 kJ/mol
# Density = 1.927365 g / cm^3
# Si number density = 19.317617 Si / 1000 Ang^3
#
#
#
# Elastic Constant Matrix: (Units=GPa)
#
#
# Indices 1 2 3 4 5 6 
#
# 1 83.9948 21.4907 17.3341 0.0000 0.0000 0.0000
# 2 21.4907 119.2208 39.6356 0.0000 0.0000 0.0000
# 3 17.3341 39.6356 123.6807 0.0000 0.0000 0.0000
# 4 0.0000 0.0000 0.0000 26.5772 0.0000 0.0000
# 5 0.0000 0.0000 0.0000 0.0000 16.3053 0.0000
# 6 0.0000 0.0000 0.0000 0.0000 0.0000 17.4795
#
#
#
# Elastic Compliance Matrix: (Units=1/GPa)
#
#
# Indices 1 2 3 4 5 6 
#
# 1 0.012629 -0.001889 -0.001165 0.000000 0.000000 0.000000
# 2 -0.001889 0.009671 -0.002834 0.000000 0.000000 0.000000
# 3 -0.001165 -0.002834 0.009157 0.000000 0.000000 0.000000
# 4 0.000000 0.000000 0.000000 0.037626 0.000000 0.000000
# 5 0.000000 0.000000 0.000000 0.000000 0.061330 0.000000
# 6 0.000000 0.000000 0.000000 0.000000 0.000000 0.057210
#
#
# Mechanical properties :
#
#
# Convention : Reuss Voigt Hill
#
# Bulk Modulus (GPa) = 50.81230 53.75745 52.28487
# Shear Modulus (GPa) = 24.27666 28.63480 26.45573
#
# Velocity S-wave (km/s) = 3.54886 3.85426 3.70471
# Velocity P-wave (km/s) = 6.56911 6.90621 6.73977
#
# Compressibility (1/GPa) = 0.01968028
#
# Stress axis : x y z
#
# Youngs Moduli (GPa) = 79.18136 103.40552 109.20784
#
# Poissons Ratio (x) = 0.19537 0.12717
# Poissons Ratio (y) = 0.14960 0.30953
# Poissons Ratio (z) = 0.09221 0.29309
#
# Static dielectric constant tensor:
#      x y z
#    x 3.435180 0.000000 0.000000 
#    y 0.000000 4.079100 0.000000 
#    z 0.000000 0.000000 3.493100 
# 
# 
# High freq. dielectric constant tensor:
#      x y z
#    x 1.715630 0.000000 0.000000 
#    y 0.000000 1.756290 0.000000 
#    z 0.000000 0.000000 1.756960 
# 
# From -- ./inp_files/11683.got.cif
#   From: 2010.06.25/outbox.cif.g09.slc.cpg/sg43_6_cif.got.tgz:11683.got - 2010.06.26 16:48:59.
