data_PCOD8187484
_publ_section_title
;
Structure prediction by ZEFSAII (Michael W. Deem and Ramdas Pophale) SiO2 
 PCOD8187484
Probable space group: F D D 2
;
_chemical_formula_sum "Si O2"
_cell_formula_units_Z 112
_cell_length_a 14.199358
_cell_length_b 25.146754
_cell_length_c 14.113776
_cell_angle_alpha 90.000000
_cell_angle_beta 90.000000
_cell_angle_gamma 90.000000
_cell_volume 5039.574418
_symmetry_space_group_name_H-M "F D D 2"
_symmetry_group_IT_number 43
_symmetry_cell_setting 'orthorhombic'
loop_
_space_group_symop_operation_xyz
x,y,z
-x,-y,z
1/4-x,1/4+y,1/4+z
1/4+x,1/4-y,1/4+z
x,1/2+y,1/2+z
-x,1/2-y,1/2+z
1/4-x,3/4+y,3/4+z
1/4+x,3/4-y,3/4+z
1/2+x,y,1/2+z
1/2-x,-y,1/2+z
3/4-x,1/4+y,3/4+z
3/4+x,1/4-y,3/4+z
1/2+x,1/2+y,z
1/2-x,1/2-y,z
3/4-x,3/4+y,1/4+z
3/4+x,3/4-y,1/4+z
loop_
_atom_site_type_symbol
_atom_site_label
_atom_site_fract_x
_atom_site_fract_y
_atom_site_fract_z
Si Si1 0.750000 0.250000 0.344050
Si Si2 0.985139 0.392723 0.688026
Si Si3 0.557031 0.655544 0.372080
Si Si4 0.096703 0.156243 0.008704
Si Si5 0.573799 0.771198 0.973964
Si Si6 0.422881 0.566593 0.438603
Si Si7 0.000000 0.000000 0.288162
Si Si8 0.692367 0.862033 0.052546
O O1 0.655983 0.259233 0.400790
O O2 0.764304 0.301428 0.278899
O O3 0.939885 0.346780 0.756583
O O4 0.937700 0.385539 0.586402
O O5 0.959722 0.452333 0.723885
O O6 0.097396 0.388493 0.673552
O O7 0.520419 0.711109 0.416471
O O8 0.475669 0.613077 0.385479
O O9 0.209184 0.162846 0.018986
O O10 0.052182 0.215118 0.026083
O O11 0.060071 0.133735 0.908895
O O12 0.610022 0.817246 0.045147
O O13 0.414587 0.519769 0.359131
O O14 0.324256 0.589176 0.478186
#
# Coordination Sequence:
#
# PCOD8187484 Si02
#       8
#     8  16  16  16  16  16   8  16
#     4  11  16  38  63 100 130 160 209 288 334 409
#     4  11  24  46  65  98 141 180 233 278 345 423
#     4  10  23  42  69  97 128 179 227 288 340 402
#     4  12  25  44  67  97 143 183 226 285 341 423
#     4  11  22  40  69  97 136 172 228 282 346 407
#     4   9  19  36  71  97 128 163 223 290 339 396
#     4   9  22  42  65  96 132 180 217 280 348 401
#     4  11  22  43  66 103 131 179 228 286 351 404
#
# _framework density 22.2241
#
# number of rings (size 3 to 8) (size 9 to 14) (size 15 to 20)
#    0.000    1.429    2.857    1.714    0.000    9.143 
#    7.714    1.429    0.000    0.000    0.000    0.000 
#    0.000    0.000    0.000    0.000    0.000    0.000 
#
# Total GULP energy -346993.310396 kJ/mol
# GULP energy per Si atom -12392.618228 kJ/mol
# Density = 2.217352 g / cm^3
# Si number density = 22.224100 Si / 1000 Ang^3
#
#
#
# Elastic Constant Matrix: (Units=GPa)
#
#
# Indices 1 2 3 4 5 6 
#
# 1 51.3206 18.2104 29.0736 0.0000 0.0000 0.0000
# 2 18.2104 120.6311 58.3182 0.0000 0.0000 0.0000
# 3 29.0736 58.3182 105.2475 0.0000 0.0000 0.0000
# 4 0.0000 0.0000 0.0000 27.2258 0.0000 0.0000
# 5 0.0000 0.0000 0.0000 0.0000 30.2834 0.0000
# 6 0.0000 0.0000 0.0000 0.0000 0.0000 30.6238
#
#
#
# Elastic Compliance Matrix: (Units=1/GPa)
#
#
# Indices 1 2 3 4 5 6 
#
# 1 0.023127 -0.000550 -0.006084 0.000000 0.000000 0.000000
# 2 -0.000550 0.011336 -0.006129 0.000000 0.000000 0.000000
# 3 -0.006084 -0.006129 0.014578 0.000000 0.000000 0.000000
# 4 0.000000 0.000000 0.000000 0.036730 0.000000 0.000000
# 5 0.000000 0.000000 0.000000 0.000000 0.033021 0.000000
# 6 0.000000 0.000000 0.000000 0.000000 0.000000 0.032654
#
#
# Mechanical properties :
#
#
# Convention : Reuss Voigt Hill
#
# Bulk Modulus (GPa) = 42.52635 54.26706 48.39671
# Shear Modulus (GPa) = 27.05456 29.06641 28.06048
#
# Velocity S-wave (km/s) = 3.49284 3.62038 3.55718
# Velocity P-wave (km/s) = 5.95343 6.47668 6.22056
#
# Compressibility (1/GPa) = 0.02351483
#
# Stress axis : x y z
#
# Youngs Moduli (GPa) = 43.23937 88.21473 68.59503
#
# Poissons Ratio (x) = 0.04853 0.41732
# Poissons Ratio (y) = 0.02379 0.42044
# Poissons Ratio (z) = 0.26306 0.54070
#
# Static dielectric constant tensor:
#      x y z
#    x 3.814400 0.000000 0.000000 
#    y 0.000000 4.699850 0.000000 
#    z 0.000000 0.000000 4.260940 
# 
# 
# High freq. dielectric constant tensor:
#      x y z
#    x 1.855020 0.000000 0.000000 
#    y 0.000000 1.874670 0.000000 
#    z 0.000000 0.000000 1.885500 
# 
# From -- ./inp_files/10225.got.cif
#   From: 2010.06.25/outbox.cif.g09.slc.cpg/sg43_6_cif.got.tgz:10225.got - 2010.06.26 16:48:59.
