data_PCOD8187398
_publ_section_title
;
Structure prediction by ZEFSAII (Michael W. Deem and Ramdas Pophale) SiO2 
 PCOD8187398
Probable space group: F D D 2
;
_chemical_formula_sum "Si O2"
_cell_formula_units_Z 120
_cell_length_a 28.494759
_cell_length_b 21.501876
_cell_length_c 9.549893
_cell_angle_alpha 90.000000
_cell_angle_beta 90.000000
_cell_angle_gamma 90.000000
_cell_volume 5851.131340
_symmetry_space_group_name_H-M "F D D 2"
_symmetry_group_IT_number 43
_symmetry_cell_setting 'orthorhombic'
loop_
_space_group_symop_operation_xyz
x,y,z
-x,-y,z
1/4-x,1/4+y,1/4+z
1/4+x,1/4-y,1/4+z
x,1/2+y,1/2+z
-x,1/2-y,1/2+z
1/4-x,3/4+y,3/4+z
1/4+x,3/4-y,3/4+z
1/2+x,y,1/2+z
1/2-x,-y,1/2+z
3/4-x,1/4+y,3/4+z
3/4+x,1/4-y,3/4+z
1/2+x,1/2+y,z
1/2-x,1/2-y,z
3/4-x,3/4+y,1/4+z
3/4+x,3/4-y,1/4+z
loop_
_atom_site_type_symbol
_atom_site_label
_atom_site_fract_x
_atom_site_fract_y
_atom_site_fract_z
Si Si1 0.579741 0.638831 0.953750
Si Si2 0.303173 0.478475 0.648928
Si Si3 0.750000 0.750000 0.347360
Si Si4 0.913949 0.200986 0.102730
Si Si5 0.801419 0.527295 0.626744
Si Si6 0.472825 0.106720 0.419866
Si Si7 0.817952 0.655764 0.499838
Si Si8 0.827040 0.420984 0.427925
O O1 0.585469 0.711874 0.927219
O O2 0.528939 0.614679 0.906962
O O3 0.621387 0.601312 0.877953
O O4 0.590318 0.627924 0.116890
O O5 0.324791 0.444463 0.515311
O O6 0.250619 0.501758 0.617709
O O7 0.300153 0.432908 0.782449
O O8 0.784499 0.789106 0.243227
O O9 0.778764 0.704916 0.451356
O O10 0.858961 0.188756 0.085684
O O11 0.925895 0.268217 0.032047
O O12 0.948818 0.154280 0.025377
O O13 0.797139 0.600426 0.595131
O O14 0.831026 0.485405 0.516426
O O15 0.449416 0.116160 0.266538
#
# Coordination Sequence:
#
# PCOD8187398 Si02
#       8
#    16  16   8  16  16  16  16  16
#     4  11  21  38  66  98 132 172 220 281 342 399
#     4  12  23  42  66  98 135 173 229 286 340 410
#     4  10  24  40  68 104 138 178 232 294 352 424
#     4  11  24  40  68 100 131 178 233 283 340 415
#     4  11  22  43  71  94 127 176 233 280 331 414
#     4  10  22  42  67  97 130 177 229 279 339 413
#     4  11  23  42  70  95 134 182 229 286 342 417
#     4  11  23  40  68 100 132 172 227 279 342 411
#
# _framework density 20.508852999999998
#
# number of rings (size 3 to 8) (size 9 to 14) (size 15 to 20)
#    0.000    1.067    6.667    2.400    1.867    3.200 
#    2.400    0.000    0.000    0.800    0.000    0.000 
#    0.000    0.000    0.000    0.000    0.000    0.000 
#
# Total GULP energy -371859.850092 kJ/mol
# GULP energy per Si atom -12395.328336 kJ/mol
# Density = 2.046217 g / cm^3
# Si number density = 20.508853 Si / 1000 Ang^3
#
#
#
# Elastic Constant Matrix: (Units=GPa)
#
#
# Indices 1 2 3 4 5 6 
#
# 1 109.6400 46.8080 32.0105 0.0001 0.0000 0.0000
# 2 46.8080 116.1230 44.0076 0.0003 -0.0001 0.0000
# 3 32.0105 44.0076 116.7146 0.0010 -0.0001 -0.0001
# 4 0.0001 0.0003 0.0010 28.4431 -0.0001 -0.0001
# 5 0.0000 -0.0001 -0.0001 -0.0001 24.0406 0.0000
# 6 0.0000 0.0000 -0.0001 -0.0001 0.0000 28.5423
#
#
#
# Elastic Compliance Matrix: (Units=1/GPa)
#
#
# Indices 1 2 3 4 5 6 
#
# 1 0.011269 -0.003933 -0.001608 0.000000 0.000000 0.000000
# 2 -0.003933 0.011420 -0.003227 0.000000 0.000000 0.000000
# 3 -0.001608 -0.003227 0.010226 0.000000 0.000000 0.000000
# 4 0.000000 0.000000 0.000000 0.035158 0.000000 0.000000
# 5 0.000000 0.000000 0.000000 0.000000 0.041596 0.000000
# 6 0.000000 0.000000 0.000000 0.000000 0.000000 0.035036
#
#
# Mechanical properties :
#
#
# Convention : Reuss Voigt Hill
#
# Bulk Modulus (GPa) = 65.02513 65.34778 65.18645
# Shear Modulus (GPa) = 29.87436 30.84865 30.36151
#
# Velocity S-wave (km/s) = 3.82076 3.88256 3.85178
# Velocity P-wave (km/s) = 7.15814 7.21328 7.18576
#
# Compressibility (1/GPa) = 0.01537867
#
# Stress axis : x y z
#
# Youngs Moduli (GPa) = 88.73622 87.56528 97.79308
#
# Poissons Ratio (x) = 0.34442 0.15722
# Poissons Ratio (y) = 0.34902 0.31560
# Poissons Ratio (z) = 0.14266 0.28259
#
# Static dielectric constant tensor:
#      x y z
#    x 3.690680 0.000000 0.000000 
#    y 0.000000 3.822100 0.000000 
#    z 0.000000 0.000000 3.734630 
# 
# 
# High freq. dielectric constant tensor:
#      x y z
#    x 1.802460 0.000000 0.000000 
#    y 0.000000 1.793910 0.000000 
#    z 0.000000 0.000000 1.789030 
# 
# From -- ./inp_files/4350.got.cif
#   From: 2010.06.25/outbox.cif.g09.slc.cpg/sg43_3_cif.got.tgz:4350.got - 2010.06.26 16:48:59.
