data_PCOD8187632
_publ_section_title
;
Structure prediction by ZEFSAII (Michael W. Deem and Ramdas Pophale) SiO2 
 PCOD8187632
Probable space group: F D D 2
;
_chemical_formula_sum "Si O2"
_cell_formula_units_Z 120
_cell_length_a 9.063640
_cell_length_b 21.759148
_cell_length_c 30.950058
_cell_angle_alpha 90.000000
_cell_angle_beta 90.000000
_cell_angle_gamma 90.000000
_cell_volume 6103.880194
_symmetry_space_group_name_H-M "F D D 2"
_symmetry_group_IT_number 43
_symmetry_cell_setting 'orthorhombic'
loop_
_space_group_symop_operation_xyz
x,y,z
-x,-y,z
1/4-x,1/4+y,1/4+z
1/4+x,1/4-y,1/4+z
x,1/2+y,1/2+z
-x,1/2-y,1/2+z
1/4-x,3/4+y,3/4+z
1/4+x,3/4-y,3/4+z
1/2+x,y,1/2+z
1/2-x,-y,1/2+z
3/4-x,1/4+y,3/4+z
3/4+x,1/4-y,3/4+z
1/2+x,1/2+y,z
1/2-x,1/2-y,z
3/4-x,3/4+y,1/4+z
3/4+x,3/4-y,1/4+z
loop_
_atom_site_type_symbol
_atom_site_label
_atom_site_fract_x
_atom_site_fract_y
_atom_site_fract_z
Si Si1 0.940822 0.115305 0.750000
Si Si2 0.491445 0.645242 0.254591
Si Si3 0.825031 0.496060 0.862495
Si Si4 0.244532 0.063622 0.778525
Si Si5 0.315160 0.458237 0.215589
Si Si6 0.750000 0.250000 0.890374
Si Si7 0.972090 0.612338 0.576057
Si Si8 0.426285 0.739297 0.702999
O O1 0.844448 0.073846 0.717019
O O2 0.858354 0.136945 0.793197
O O3 0.981700 0.175970 0.723803
O O4 0.076185 0.073019 0.764819
O O5 0.325270 0.627230 0.266947
O O6 0.561693 0.592908 0.224459
O O7 0.575926 0.652934 0.299566
O O8 0.487865 0.708144 0.228656
O O9 0.765996 0.546387 0.828488
O O10 0.785573 0.427590 0.848768
O O11 0.730945 0.511577 0.904388
O O12 0.000000 0.500000 0.870319
O O13 0.322200 0.008202 0.753230
O O14 0.353366 0.490701 0.170011
O O15 0.762803 0.310329 0.861763
O O16 0.250000 0.750000 0.706107
#
# Coordination Sequence:
#
# PCOD8187632 Si02
#       8
#    16  16  16  16  16   8  16  16
#     4  11  26  42  68  97 134 174 221 270 339 396
#     4  11  21  45  72  90 127 179 220 262 331 401
#     4  12  26  42  67 100 131 171 225 277 328 396
#     4  12  23  44  68  93 129 175 222 274 322 397
#     4  11  21  40  67  97 122 171 223 260 323 395
#     4  12  24  38  70  98 132 174 224 272 330 392
#     4  11  23  42  67  95 130 175 224 265 328 399
#     4  12  26  43  67 100 134 169 220 280 337 395
#
# _framework density 19.659625999999999
#
# number of rings (size 3 to 8) (size 9 to 14) (size 15 to 20)
#    0.000    0.533    8.000    2.000    3.733    0.000 
#    0.000    0.000    2.933    0.000    0.000    0.000 
#    0.000    0.000    0.000    0.000    0.000    0.000 
#
# Total GULP energy -372025.339320 kJ/mol
# GULP energy per Si atom -12400.844644 kJ/mol
# Density = 1.961488 g / cm^3
# Si number density = 19.659626 Si / 1000 Ang^3
#
#
#
# Elastic Constant Matrix: (Units=GPa)
#
#
# Indices 1 2 3 4 5 6 
#
# 1 85.2544 35.5008 25.8689 0.0000 0.0000 0.0000
# 2 35.5008 99.8693 58.8120 0.0000 0.0000 0.0000
# 3 25.8689 58.8120 103.0587 0.0000 0.0000 0.0000
# 4 0.0000 0.0000 0.0000 28.8551 0.0000 0.0000
# 5 0.0000 0.0000 0.0000 0.0000 34.9508 0.0000
# 6 0.0000 0.0000 0.0000 0.0000 0.0000 16.0915
#
#
#
# Elastic Compliance Matrix: (Units=1/GPa)
#
#
# Indices 1 2 3 4 5 6 
#
# 1 0.013836 -0.004327 -0.001004 0.000000 0.000000 0.000000
# 2 -0.004327 0.016435 -0.008292 0.000000 0.000000 0.000000
# 3 -0.001004 -0.008292 0.014687 0.000000 0.000000 0.000000
# 4 0.000000 0.000000 0.000000 0.034656 0.000000 0.000000
# 5 0.000000 0.000000 0.000000 0.000000 0.028612 0.000000
# 6 0.000000 0.000000 0.000000 0.000000 0.000000 0.062145
#
#
# Mechanical properties :
#
#
# Convention : Reuss Voigt Hill
#
# Bulk Modulus (GPa) = 56.46106 58.72731 57.59419
# Shear Modulus (GPa) = 24.56749 27.17952 25.87351
#
# Velocity S-wave (km/s) = 3.53886 3.72224 3.63171
# Velocity P-wave (km/s) = 6.74386 6.95775 6.85164
#
# Compressibility (1/GPa) = 0.01771132
#
# Stress axis : x y z
#
# Youngs Moduli (GPa) = 72.27482 60.84680 68.08586
#
# Poissons Ratio (x) = 0.26331 0.06833
# Poissons Ratio (y) = 0.31276 0.56460
# Poissons Ratio (z) = 0.07253 0.50457
#
# Static dielectric constant tensor:
#      x y z
#    x 3.713470 0.000000 0.000000 
#    y 0.000000 3.729050 0.000000 
#    z 0.000000 0.000000 3.696180 
# 
# 
# High freq. dielectric constant tensor:
#      x y z
#    x 1.761120 0.000000 0.000000 
#    y 0.000000 1.779790 0.000000 
#    z 0.000000 0.000000 1.769220 
# 
# From -- ./inp_files/24469.got.cif
#   From: 2010.06.25/outbox.cif.g09.slc.cpg/sg43_13_cif.got.tgz:24469.got - 2010.06.26 16:48:59.
