data_PCOD8187391
_publ_section_title
;
Structure prediction by ZEFSAII (Michael W. Deem and Ramdas Pophale) SiO2 
 PCOD8187391
Probable space group: F D D 2
;
_chemical_formula_sum "Si O2"
_cell_formula_units_Z 104
_cell_length_a 17.729690
_cell_length_b 25.916037
_cell_length_c 10.044546
_cell_angle_alpha 90.000000
_cell_angle_beta 90.000000
_cell_angle_gamma 90.000000
_cell_volume 4615.301164
_symmetry_space_group_name_H-M "F D D 2"
_symmetry_group_IT_number 43
_symmetry_cell_setting 'orthorhombic'
loop_
_space_group_symop_operation_xyz
x,y,z
-x,-y,z
1/4-x,1/4+y,1/4+z
1/4+x,1/4-y,1/4+z
x,1/2+y,1/2+z
-x,1/2-y,1/2+z
1/4-x,3/4+y,3/4+z
1/4+x,3/4-y,3/4+z
1/2+x,y,1/2+z
1/2-x,-y,1/2+z
3/4-x,1/4+y,3/4+z
3/4+x,1/4-y,3/4+z
1/2+x,1/2+y,z
1/2-x,1/2-y,z
3/4-x,3/4+y,1/4+z
3/4+x,3/4-y,1/4+z
loop_
_atom_site_type_symbol
_atom_site_label
_atom_site_fract_x
_atom_site_fract_y
_atom_site_fract_z
Si Si1 0.494492 0.417729 0.896580
Si Si2 0.383849 0.716046 0.805846
Si Si3 0.250000 0.250000 0.952652
Si Si4 0.862500 0.898519 0.304467
Si Si5 0.040861 0.176218 0.723778
Si Si6 0.544583 0.683942 0.420819
Si Si7 0.104762 0.280458 0.807640
O O1 0.539963 0.454579 0.792214
O O2 0.447648 0.374869 0.812652
O O3 0.437551 0.459638 0.960481
O O4 0.545109 0.389997 0.008756
O O5 0.454416 0.693426 0.726929
O O6 0.399643 0.773791 0.855506
O O7 0.363424 0.683684 0.934524
O O8 0.189155 0.282161 0.865561
O O9 0.938295 0.867606 0.338825
O O10 0.839025 0.935218 0.426913
O O11 0.066402 0.169375 0.571501
O O12 0.093665 0.220172 0.782790
O O13 0.457230 0.700347 0.414468
#
# Coordination Sequence:
#
# PCOD8187391 Si02
#       7
#    16  16   8  16  16  16  16
#     4  11  24  43  70 104 137 178 234 288 348 412
#     4  10  22  42  66 100 133 174 227 280 340 409
#     4  12  26  46  68 104 138 180 236 290 346 416
#     4  11  23  43  68 104 133 181 225 283 350 412
#     4  10  23  41  68  94 137 182 227 280 348 410
#     4  11  22  43  70  95 134 180 228 279 348 409
#     4  11  25  46  67  99 142 180 229 289 347 415
#
# _framework density 22.533740000000002
#
# number of rings (size 3 to 8) (size 9 to 14) (size 15 to 20)
#    0.000    1.231    1.538    3.692    4.308    1.231 
#    8.308    0.000    0.000    0.000    0.000    0.000 
#    0.000    0.000    0.000    0.000    0.000    0.000 
#
# Total GULP energy -322262.673608 kJ/mol
# GULP energy per Si atom -12394.718216 kJ/mol
# Density = 2.248245 g / cm^3
# Si number density = 22.533740 Si / 1000 Ang^3
#
#
#
# Elastic Constant Matrix: (Units=GPa)
#
#
# Indices 1 2 3 4 5 6 
#
# 1 75.0426 28.9791 29.3480 0.0000 0.0000 0.0000
# 2 28.9791 98.5033 46.2008 0.0000 0.0000 0.0000
# 3 29.3480 46.2008 106.1259 0.0000 0.0000 0.0000
# 4 0.0000 0.0000 0.0000 37.5653 0.0000 0.0000
# 5 0.0000 0.0000 0.0000 0.0000 32.2948 0.0000
# 6 0.0000 0.0000 0.0000 0.0000 0.0000 86.7254
#
#
#
# Elastic Compliance Matrix: (Units=1/GPa)
#
#
# Indices 1 2 3 4 5 6 
#
# 1 0.015729 -0.003251 -0.002934 0.000000 0.000000 0.000000
# 2 -0.003251 0.013429 -0.004947 0.000000 0.000000 0.000000
# 3 -0.002934 -0.004947 0.012388 0.000000 0.000000 0.000000
# 4 0.000000 0.000000 0.000000 0.026620 0.000000 0.000000
# 5 0.000000 0.000000 0.000000 0.000000 0.030965 0.000000
# 6 0.000000 0.000000 0.000000 0.000000 0.000000 0.011531
#
#
# Mechanical properties :
#
#
# Convention : Reuss Voigt Hill
#
# Bulk Modulus (GPa) = 51.86563 54.30307 53.08435
# Shear Modulus (GPa) = 35.88021 42.99334 39.43678
#
# Velocity S-wave (km/s) = 3.99468 4.37275 4.18798
# Velocity P-wave (km/s) = 6.65909 7.04596 6.85525
#
# Compressibility (1/GPa) = 0.01928059
#
# Stress axis : x y z
#
# Youngs Moduli (GPa) = 63.57773 74.46760 80.72425
#
# Poissons Ratio (x) = 0.24210 0.23687
# Poissons Ratio (y) = 0.20669 0.39934
# Poissons Ratio (z) = 0.18656 0.36839
#
# Static dielectric constant tensor:
#      x y z
#    x 3.643530 0.000000 0.000000 
#    y 0.000000 4.270830 0.000000 
#    z 0.000000 0.000000 4.386040 
# 
# 
# High freq. dielectric constant tensor:
#      x y z
#    x 1.861720 0.000000 0.000000 
#    y 0.000000 1.908970 0.000000 
#    z 0.000000 0.000000 1.901620 
# 
# From -- ./inp_files/3397.got.cif
#   From: 2010.06.25/outbox.cif.g09.slc.cpg/sg43_2_cif.got.tgz:3397.got - 2010.06.26 16:48:59.
