data_PCOD8187032
_publ_section_title
;
Structure prediction by ZEFSAII (Michael W. Deem and Ramdas Pophale) SiO2 
 PCOD8187032
Probable space group: F D D 2
;
_chemical_formula_sum "Si O2"
_cell_formula_units_Z 120
_cell_length_a 11.697451
_cell_length_b 15.201916
_cell_length_c 30.975962
_cell_angle_alpha 90.000000
_cell_angle_beta 90.000000
_cell_angle_gamma 90.000000
_cell_volume 5508.259168
_symmetry_space_group_name_H-M "F D D 2"
_symmetry_group_IT_number 43
_symmetry_cell_setting 'orthorhombic'
loop_
_space_group_symop_operation_xyz
x,y,z
-x,-y,z
1/4-x,1/4+y,1/4+z
1/4+x,1/4-y,1/4+z
x,1/2+y,1/2+z
-x,1/2-y,1/2+z
1/4-x,3/4+y,3/4+z
1/4+x,3/4-y,3/4+z
1/2+x,y,1/2+z
1/2-x,-y,1/2+z
3/4-x,1/4+y,3/4+z
3/4+x,1/4-y,3/4+z
1/2+x,1/2+y,z
1/2-x,1/2-y,z
3/4-x,3/4+y,1/4+z
3/4+x,3/4-y,1/4+z
loop_
_atom_site_type_symbol
_atom_site_label
_atom_site_fract_x
_atom_site_fract_y
_atom_site_fract_z
Si Si1 0.939754 0.747150 0.943150
Si Si2 0.826850 0.170642 0.974344
Si Si3 0.734391 0.853826 0.383107
Si Si4 0.250000 0.250000 0.007946
Si Si5 0.220201 0.110251 0.076680
Si Si6 0.055005 0.908329 0.623833
Si Si7 0.825703 0.092445 0.065470
Si Si8 0.319195 0.836593 0.131878
O O1 0.869005 0.822840 0.918565
O O2 0.974221 0.666235 0.912220
O O3 0.053855 0.790741 0.959175
O O4 0.856652 0.712152 0.980672
O O5 0.750000 0.250000 0.991400
O O6 0.764418 0.118199 0.934241
O O7 0.851612 0.110131 0.015568
O O8 0.750000 0.750000 0.384170
O O9 0.612817 0.889284 0.365603
O O10 0.832938 0.886207 0.349783
O O11 0.198115 0.170266 0.035471
O O12 0.352945 0.124019 0.089002
O O13 0.183132 0.011686 0.066601
O O14 0.958476 0.832489 0.632618
O O15 0.000000 0.000000 0.607046
O O16 0.709173 0.137934 0.082053
O O17 0.250000 0.750000 0.147356
#
# Coordination Sequence:
#
# PCOD8187032 Si02
#       8
#    16  16  16   8  16  16  16  16
#     4  11  21  47  67  95 144 191 234 298 366 436
#     4  11  22  39  69 102 136 180 235 298 364 427
#     4   9  19  39  66  93 130 179 226 287 358 419
#     4  12  26  40  68 102 136 186 240 292 354 450
#     4  11  22  43  66  95 136 187 232 291 362 431
#     4  10  19  42  75  90 134 193 229 285 366 427
#     4  11  22  41  67 101 142 180 239 304 366 429
#     4  11  22  40  73 102 136 191 244 296 364 442
#
# _framework density 21.785467000000001
#
# number of rings (size 3 to 8) (size 9 to 14) (size 15 to 20)
#    0.000    1.333    6.000    2.800    0.000    3.200 
#    4.800    1.333    1.467    0.000    0.000    0.000 
#    0.000    0.000    0.000    0.000    0.000    0.000 
#
# Total GULP energy -371743.823567 kJ/mol
# GULP energy per Si atom -12391.460786 kJ/mol
# Density = 2.173588 g / cm^3
# Si number density = 21.785467 Si / 1000 Ang^3
#
#
#
# Elastic Constant Matrix: (Units=GPa)
#
#
# Indices 1 2 3 4 5 6 
#
# 1 129.9555 43.4044 49.5913 0.0000 0.0000 0.0000
# 2 43.4044 64.1313 38.1528 0.0000 0.0000 0.0000
# 3 49.5913 38.1528 153.8469 0.0000 0.0000 0.0000
# 4 0.0000 0.0000 0.0000 11.8147 0.0000 0.0000
# 5 0.0000 0.0000 0.0000 0.0000 26.6540 0.0000
# 6 0.0000 0.0000 0.0000 0.0000 0.0000 33.9351
#
#
#
# Elastic Compliance Matrix: (Units=1/GPa)
#
#
# Indices 1 2 3 4 5 6 
#
# 1 0.010387 -0.005910 -0.001883 0.000000 0.000000 0.000000
# 2 -0.005910 0.021654 -0.003465 0.000000 0.000000 0.000000
# 3 -0.001883 -0.003465 0.007966 0.000000 0.000000 0.000000
# 4 0.000000 0.000000 0.000000 0.084640 0.000000 0.000000
# 5 0.000000 0.000000 0.000000 0.000000 0.037518 0.000000
# 6 0.000000 0.000000 0.000000 0.000000 0.000000 0.029468
#
#
# Mechanical properties :
#
#
# Convention : Reuss Voigt Hill
#
# Bulk Modulus (GPa) = 57.16816 67.80341 62.48579
# Shear Modulus (GPa) = 22.72929 28.93312 25.83121
#
# Velocity S-wave (km/s) = 3.23356 3.64825 3.44715
# Velocity P-wave (km/s) = 6.34347 6.99551 6.67745
#
# Compressibility (1/GPa) = 0.01749225
#
# Stress axis : x y z
#
# Youngs Moduli (GPa) = 96.27130 46.17984 125.53197
#
# Poissons Ratio (x) = 0.27293 0.23632
# Poissons Ratio (y) = 0.56898 0.43497
# Poissons Ratio (z) = 0.18124 0.16001
#
# Static dielectric constant tensor:
#      x y z
#    x 4.488940 0.000000 0.000000 
#    y 0.000000 3.613430 0.000000 
#    z 0.000000 0.000000 4.170200 
# 
# 
# High freq. dielectric constant tensor:
#      x y z
#    x 1.875340 0.000000 0.000000 
#    y 0.000000 1.826620 0.000000 
#    z 0.000000 0.000000 1.853880 
# 
# From -- ./inp_files/25191.got.cif
#   From: 2010.06.25/outbox.cif.g09.slc.cpg/sg43_13_cif.got.tgz:25191.got - 2010.06.26 16:48:59.
