data_PCOD8187171
_publ_section_title
;
Structure prediction by ZEFSAII (Michael W. Deem and Ramdas Pophale) SiO2 
 PCOD8187171
Probable space group: F D D 2
;
_chemical_formula_sum "Si O2"
_cell_formula_units_Z 120
_cell_length_a 27.949175
_cell_length_b 24.447434
_cell_length_c 7.974792
_cell_angle_alpha 90.000000
_cell_angle_beta 90.000000
_cell_angle_gamma 90.000000
_cell_volume 5449.060626
_symmetry_space_group_name_H-M "F D D 2"
_symmetry_group_IT_number 43
_symmetry_cell_setting 'orthorhombic'
loop_
_space_group_symop_operation_xyz
x,y,z
-x,-y,z
1/4-x,1/4+y,1/4+z
1/4+x,1/4-y,1/4+z
x,1/2+y,1/2+z
-x,1/2-y,1/2+z
1/4-x,3/4+y,3/4+z
1/4+x,3/4-y,3/4+z
1/2+x,y,1/2+z
1/2-x,-y,1/2+z
3/4-x,1/4+y,3/4+z
3/4+x,1/4-y,3/4+z
1/2+x,1/2+y,z
1/2-x,1/2-y,z
3/4-x,3/4+y,1/4+z
3/4+x,3/4-y,1/4+z
loop_
_atom_site_type_symbol
_atom_site_label
_atom_site_fract_x
_atom_site_fract_y
_atom_site_fract_z
Si Si1 0.670656 0.304704 0.868070
Si Si2 0.363182 0.868096 0.174922
Si Si3 0.000000 0.000000 0.331593
Si Si4 0.465791 0.068053 0.121070
Si Si5 0.261885 0.618953 0.655591
Si Si6 0.073352 0.225170 0.780530
Si Si7 0.601548 0.019980 0.270728
Si Si8 0.419783 0.166613 0.591810
O O1 0.700608 0.355337 0.787759
O O2 0.647971 0.267086 0.721892
O O3 0.704350 0.263897 0.969688
O O4 0.628862 0.327519 0.986127
O O5 0.324182 0.863954 0.326402
O O6 0.391545 0.811342 0.167619
O O7 0.400811 0.916115 0.217460
O O8 0.339519 0.876107 0.995419
O O9 0.010012 0.946831 0.444509
O O10 0.505504 0.090539 0.248087
O O11 0.443725 0.012132 0.196469
O O12 0.277785 0.559346 0.590403
O O13 0.209625 0.612851 0.733069
O O14 0.059497 0.276061 0.662781
O O15 0.099191 0.245547 0.949882
#
# Coordination Sequence:
#
# PCOD8187171 Si02
#       8
#    16  16   8  16  16  16  16  16
#     4  12  24  44  70 105 143 184 243 298 359 428
#     4  10  20  45  69  98 136 188 235 285 357 426
#     4  12  24  40  64 110 138 186 240 304 354 420
#     4  11  24  41  70 100 140 187 236 296 357 421
#     4  12  26  45  71 108 139 191 244 296 365 439
#     4  10  24  45  71  98 140 189 236 282 367 429
#     4  10  21  42  71  98 136 184 229 296 351 424
#     4  11  27  45  68 106 146 183 240 301 362 432
#
# _framework density 22.022144000000001
#
# number of rings (size 3 to 8) (size 9 to 14) (size 15 to 20)
#    0.000    1.067    1.333    5.600    3.733    4.267 
#    2.400    0.000    0.000    0.000    0.000    0.000 
#    0.000    0.000    0.000    0.000    0.000    0.000 
#
# Total GULP energy -372086.250679 kJ/mol
# GULP energy per Si atom -12402.875023 kJ/mol
# Density = 2.197202 g / cm^3
# Si number density = 22.022144 Si / 1000 Ang^3
#
#
#
# Elastic Constant Matrix: (Units=GPa)
#
#
# Indices 1 2 3 4 5 6 
#
# 1 92.0548 31.7426 44.0738 -0.0090 0.0098 0.0046
# 2 31.7426 99.8652 52.5551 -0.0565 0.0524 0.0283
# 3 44.0738 52.5551 124.5993 -0.0764 0.0704 0.0250
# 4 -0.0090 -0.0565 -0.0764 41.8339 0.0512 0.0235
# 5 0.0098 0.0524 0.0704 0.0512 29.0356 -0.0095
# 6 0.0046 0.0283 0.0250 0.0235 -0.0095 32.8790
#
#
#
# Elastic Compliance Matrix: (Units=1/GPa)
#
#
# Indices 1 2 3 4 5 6 
#
# 1 0.013470 -0.002280 -0.003803 -0.000007 0.000009 0.000003
# 2 -0.002280 0.013256 -0.004785 0.000009 -0.000012 -0.000007
# 3 -0.003803 -0.004785 0.011389 0.000014 -0.000018 -0.000004
# 4 -0.000007 0.000009 0.000014 0.023904 -0.000042 -0.000017
# 5 0.000009 -0.000012 -0.000018 -0.000042 0.034441 0.000010
# 6 0.000003 -0.000007 -0.000004 -0.000017 0.000010 0.030415
#
#
# Mechanical properties :
#
#
# Convention : Reuss Voigt Hill
#
# Bulk Modulus (GPa) = 61.05145 63.69580 62.37363
# Shear Modulus (GPa) = 32.45260 33.29290 32.87275
#
# Velocity S-wave (km/s) = 3.84296 3.89239 3.86776
# Velocity P-wave (km/s) = 6.89014 7.01337 6.95203
#
# Compressibility (1/GPa) = 0.01637963
#
# Stress axis : x y z
#
# Youngs Moduli (GPa) = 74.23836 75.43547 87.80281
#
# Poissons Ratio (x) = 0.17201 0.33391
# Poissons Ratio (y) = 0.16928 0.42012
# Poissons Ratio (z) = 0.28232 0.36095
#
# Static dielectric constant tensor:
#      x y z
#    x 3.904130 -0.000010 0.000000 
#    y -0.000010 4.159540 -0.000070 
#    z 0.000000 -0.000070 4.147860 
# 
# 
# High freq. dielectric constant tensor:
#      x y z
#    x 1.868160 0.000000 0.000000 
#    y 0.000000 1.869680 0.000000 
#    z 0.000000 0.000000 1.874420 
# 
# From -- ./inp_files/4354.got.cif
#   From: 2010.06.25/outbox.cif.g09.slc.cpg/sg43_3_cif.got.tgz:4354.got - 2010.06.26 16:48:59.
