data_PCOD8187713
_publ_section_title
;
Structure prediction by ZEFSAII (Michael W. Deem and Ramdas Pophale) SiO2 
 PCOD8187713
Probable space group: F D D 2
;
_chemical_formula_sum "Si O2"
_cell_formula_units_Z 112
_cell_length_a 10.405168
_cell_length_b 28.333523
_cell_length_c 17.010135
_cell_angle_alpha 90.000000
_cell_angle_beta 90.000000
_cell_angle_gamma 90.000000
_cell_volume 5014.844087
_symmetry_space_group_name_H-M "F D D 2"
_symmetry_group_IT_number 43
_symmetry_cell_setting 'orthorhombic'
loop_
_space_group_symop_operation_xyz
x,y,z
-x,-y,z
1/4-x,1/4+y,1/4+z
1/4+x,1/4-y,1/4+z
x,1/2+y,1/2+z
-x,1/2-y,1/2+z
1/4-x,3/4+y,3/4+z
1/4+x,3/4-y,3/4+z
1/2+x,y,1/2+z
1/2-x,-y,1/2+z
3/4-x,1/4+y,3/4+z
3/4+x,1/4-y,3/4+z
1/2+x,1/2+y,z
1/2-x,1/2-y,z
3/4-x,3/4+y,1/4+z
3/4+x,3/4-y,1/4+z
loop_
_atom_site_type_symbol
_atom_site_label
_atom_site_fract_x
_atom_site_fract_y
_atom_site_fract_z
Si Si1 0.960670 0.948184 0.424020
Si Si2 0.452602 0.665581 0.031384
Si Si3 0.825822 0.629087 0.949066
Si Si4 0.174434 0.827316 0.729407
Si Si5 0.630311 0.285182 0.341222
Si Si6 0.766493 0.801221 0.069068
Si Si7 0.386939 0.727208 0.882582
O O1 0.898191 0.921753 0.350978
O O2 0.865179 0.956959 0.497461
O O3 0.077883 0.915279 0.453711
O O4 0.000000 0.000000 0.392847
O O5 0.462299 0.609721 0.015408
O O6 0.586712 0.685091 0.061219
O O7 0.409584 0.689553 0.950641
O O8 0.849199 0.662831 0.875404
O O9 0.682472 0.610002 0.939451
O O10 0.829559 0.661151 0.028217
O O11 0.233027 0.795463 0.660829
O O12 0.110972 0.796493 0.797352
O O13 0.750000 0.250000 0.358171
O O14 0.500726 0.265322 0.380506
O O15 0.750000 0.750000 0.028673
O O16 0.250000 0.750000 0.900296
#
# Coordination Sequence:
#
# PCOD8187713 Si02
#       7
#    16  16  16  16  16  16  16
#     4  11  26  44  70 102 141 188 242 299 357 441
#     4  11  25  45  67  99 145 186 238 295 364 438
#     4  11  23  44  72 106 140 188 241 303 367 434
#     4  11  24  44  71 104 139 188 243 299 363 438
#     4  11  24  47  73 104 145 191 245 301 367 442
#     4  11  24  42  73 105 139 186 244 298 354 441
#     4  12  27  46  71 105 150 190 236 308 379 431
#
# _framework density 22.333696
#
# number of rings (size 3 to 8) (size 9 to 14) (size 15 to 20)
#    0.000    0.857    0.000    8.143    8.000    1.143 
#    5.143    0.000    0.000    0.000    0.000    0.000 
#    0.000    0.000    0.000    0.000    0.000    0.000 
#
# Total GULP energy -347232.030018 kJ/mol
# GULP energy per Si atom -12401.143929 kJ/mol
# Density = 2.228286 g / cm^3
# Si number density = 22.333696 Si / 1000 Ang^3
#
#
#
# Elastic Constant Matrix: (Units=GPa)
#
#
# Indices 1 2 3 4 5 6 
#
# 1 87.2335 32.3985 32.7730 0.0000 0.0000 0.0000
# 2 32.3985 113.4311 12.2107 0.0000 0.0000 0.0000
# 3 32.7730 12.2107 103.7346 0.0000 0.0000 0.0000
# 4 0.0000 0.0000 0.0000 37.0719 0.0000 0.0000
# 5 0.0000 0.0000 0.0000 0.0000 52.8083 0.0000
# 6 0.0000 0.0000 0.0000 0.0000 0.0000 35.7791
#
#
#
# Elastic Compliance Matrix: (Units=1/GPa)
#
#
# Indices 1 2 3 4 5 6 
#
# 1 0.014367 -0.003661 -0.004108 0.000000 0.000000 0.000000
# 2 -0.003661 0.009862 -0.000004 0.000000 0.000000 0.000000
# 3 -0.004108 -0.000004 0.010938 0.000000 0.000000 0.000000
# 4 0.000000 0.000000 0.000000 0.026975 0.000000 0.000000
# 5 0.000000 0.000000 0.000000 0.000000 0.018936 0.000000
# 6 0.000000 0.000000 0.000000 0.000000 0.000000 0.027949
#
#
# Mechanical properties :
#
#
# Convention : Reuss Voigt Hill
#
# Bulk Modulus (GPa) = 50.96737 51.01817 50.99277
# Shear Modulus (GPa) = 38.13478 40.26632 39.20055
#
# Velocity S-wave (km/s) = 4.13667 4.25071 4.19408
# Velocity P-wave (km/s) = 6.75918 6.85453 6.80702
#
# Compressibility (1/GPa) = 0.01962040
#
# Stress axis : x y z
#
# Youngs Moduli (GPa) = 69.60619 101.39832 91.42203
#
# Poissons Ratio (x) = 0.37124 0.37555
# Poissons Ratio (y) = 0.25484 0.00038
# Poissons Ratio (z) = 0.28593 0.00043
#
# Static dielectric constant tensor:
#      x y z
#    x 3.737180 0.000000 0.000000 
#    y 0.000000 4.461810 0.000000 
#    z 0.000000 0.000000 4.066750 
# 
# 
# High freq. dielectric constant tensor:
#      x y z
#    x 1.872450 0.000000 0.000000 
#    y 0.000000 1.894040 0.000000 
#    z 0.000000 0.000000 1.892850 
# 
# From -- ./inp_files/9766.got.cif
#   From: 2010.06.25/outbox.cif.g09.slc.cpg/sg43_5_cif.got.tgz:9766.got - 2010.06.26 16:48:59.
