data_PCOD8187463
_publ_section_title
;
Structure prediction by ZEFSAII (Michael W. Deem and Ramdas Pophale) SiO2 
 PCOD8187463
Probable space group: F D D 2
;
_chemical_formula_sum "Si O2"
_cell_formula_units_Z 88
_cell_length_a 23.698555
_cell_length_b 20.018718
_cell_length_c 8.040067
_cell_angle_alpha 90.000000
_cell_angle_beta 90.000000
_cell_angle_gamma 90.000000
_cell_volume 3814.325890
_symmetry_space_group_name_H-M "F D D 2"
_symmetry_group_IT_number 43
_symmetry_cell_setting 'orthorhombic'
loop_
_space_group_symop_operation_xyz
x,y,z
-x,-y,z
1/4-x,1/4+y,1/4+z
1/4+x,1/4-y,1/4+z
x,1/2+y,1/2+z
-x,1/2-y,1/2+z
1/4-x,3/4+y,3/4+z
1/4+x,3/4-y,3/4+z
1/2+x,y,1/2+z
1/2-x,-y,1/2+z
3/4-x,1/4+y,3/4+z
3/4+x,1/4-y,3/4+z
1/2+x,1/2+y,z
1/2-x,1/2-y,z
3/4-x,3/4+y,1/4+z
3/4+x,3/4-y,1/4+z
loop_
_atom_site_type_symbol
_atom_site_label
_atom_site_fract_x
_atom_site_fract_y
_atom_site_fract_z
Si Si1 0.500000 0.000000 0.799840
Si Si2 0.513424 0.800030 0.990689
Si Si3 0.601982 0.686173 0.303610
Si Si4 0.341992 0.840410 0.141263
Si Si5 0.546932 0.672626 0.824538
Si Si6 0.165519 0.821483 0.811457
O O1 0.538517 0.957090 0.922481
O O2 0.462333 0.952763 0.687419
O O3 0.498801 0.820295 0.178701
O O4 0.463027 0.816622 0.862579
O O5 0.571876 0.836329 0.943952
O O6 0.529402 0.721637 0.976466
O O7 0.641980 0.657368 0.447659
O O8 0.620427 0.763315 0.265947
O O9 0.613543 0.637308 0.146140
O O10 0.392150 0.809155 0.249058
O O11 0.552001 0.597198 0.895531
#
# Coordination Sequence:
#
# PCOD8187463 Si02
#       6
#     8  16  16  16  16  16
#     4  10  22  46  74  98 138 186 236 300 358 428
#     4  11  24  45  70 101 143 193 235 303 370 440
#     4  10  24  44  76  99 145 189 244 303 373 444
#     4  10  24  43  69 103 136 184 242 296 357 439
#     4  11  27  42  71 105 141 192 240 297 366 443
#     4  11  24  46  68 109 140 193 242 302 367 447
#
# _framework density 23.070917000000001
#
# number of rings (size 3 to 8) (size 9 to 14) (size 15 to 20)
#    0.000    1.455    1.818    1.091   12.727    1.455 
#    0.000    0.000    0.000    0.000    0.000    0.000 
#    0.000    0.000    0.000    0.000    0.000    0.000 
#
# Total GULP energy -272762.370833 kJ/mol
# GULP energy per Si atom -12398.289583 kJ/mol
# Density = 2.301841 g / cm^3
# Si number density = 23.070917 Si / 1000 Ang^3
#
#
#
# Elastic Constant Matrix: (Units=GPa)
#
#
# Indices 1 2 3 4 5 6 
#
# 1 65.6209 25.9993 -0.1125 0.0055 -0.0016 -0.0009
# 2 25.9993 130.8493 50.5870 0.0125 -0.0037 -0.0026
# 3 -0.1125 50.5870 71.6066 0.0227 -0.0069 -0.0051
# 4 0.0055 0.0125 0.0227 26.4456 -0.0068 -0.0050
# 5 -0.0016 -0.0037 -0.0069 -0.0068 9.9988 0.0015
# 6 -0.0009 -0.0026 -0.0051 -0.0050 0.0015 43.9272
#
#
#
# Elastic Compliance Matrix: (Units=1/GPa)
#
#
# Indices 1 2 3 4 5 6 
#
# 1 0.017103 -0.004689 0.003340 -0.000004 0.000003 0.000000
# 2 -0.004689 0.011800 -0.008343 0.000003 -0.000002 0.000000
# 3 0.003340 -0.008343 0.019865 -0.000014 0.000011 0.000002
# 4 -0.000004 0.000003 -0.000014 0.037814 0.000026 0.000004
# 5 0.000003 -0.000002 0.000011 0.000026 0.100012 -0.000003
# 6 0.000000 0.000000 0.000002 0.000004 -0.000003 0.022765
#
#
# Mechanical properties :
#
#
# Convention : Reuss Voigt Hill
#
# Bulk Modulus (GPa) = 34.03554 46.78050 40.40802
# Shear Modulus (GPa) = 20.96109 28.84786 24.90448
#
# Velocity S-wave (km/s) = 3.01749 3.53993 3.28910
# Velocity P-wave (km/s) = 5.18892 6.08515 5.65482
#
# Compressibility (1/GPa) = 0.02938105
#
# Stress axis : x y z
#
# Youngs Moduli (GPa) = 58.47021 84.74761 50.34057
#
# Poissons Ratio (x) = 0.39742 -0.16812
# Poissons Ratio (y) = 0.27419 0.42001
# Poissons Ratio (z) = -0.19528 0.70708
#
# Static dielectric constant tensor:
#      x y z
#    x 4.223030 0.000000 0.000000 
#    y 0.000000 4.247900 0.000000 
#    z 0.000000 0.000000 4.045150 
# 
# 
# High freq. dielectric constant tensor:
#      x y z
#    x 1.917500 0.000000 0.000000 
#    y 0.000000 1.912880 0.000000 
#    z 0.000000 0.000000 1.904960 
# 
# From -- ./inp_files/3225.got.cif
#   From: 2010.06.25/outbox.cif.g09.slc.cpg/sg43_2_cif.got.tgz:3225.got - 2010.06.26 16:48:59.
