data_PCOD8187533
_publ_section_title
;
Structure prediction by ZEFSAII (Michael W. Deem and Ramdas Pophale) SiO2 
 PCOD8187533
Probable space group: F D D 2
;
_chemical_formula_sum "Si O2"
_cell_formula_units_Z 104
_cell_length_a 25.924325
_cell_length_b 11.939364
_cell_length_c 16.262368
_cell_angle_alpha 90.000000
_cell_angle_beta 90.000000
_cell_angle_gamma 90.000000
_cell_volume 5033.527373
_symmetry_space_group_name_H-M "F D D 2"
_symmetry_group_IT_number 43
_symmetry_cell_setting 'orthorhombic'
loop_
_space_group_symop_operation_xyz
x,y,z
-x,-y,z
1/4-x,1/4+y,1/4+z
1/4+x,1/4-y,1/4+z
x,1/2+y,1/2+z
-x,1/2-y,1/2+z
1/4-x,3/4+y,3/4+z
1/4+x,3/4-y,3/4+z
1/2+x,y,1/2+z
1/2-x,-y,1/2+z
3/4-x,1/4+y,3/4+z
3/4+x,1/4-y,3/4+z
1/2+x,1/2+y,z
1/2-x,1/2-y,z
3/4-x,3/4+y,1/4+z
3/4+x,3/4-y,1/4+z
loop_
_atom_site_type_symbol
_atom_site_label
_atom_site_fract_x
_atom_site_fract_y
_atom_site_fract_z
Si Si1 0.686896 0.620342 0.174000
Si Si2 0.500000 0.500000 0.051606
Si Si3 0.819238 0.138933 0.931672
Si Si4 0.571513 0.088673 0.314978
Si Si5 0.228630 0.035505 0.658845
Si Si6 0.750000 0.750000 0.565935
Si Si7 0.561817 0.327697 0.582665
Si Si8 0.250000 0.750000 0.431982
O O1 0.724167 0.651363 0.249618
O O2 0.629274 0.586605 0.198521
O O3 0.689288 0.721965 0.110504
O O4 0.713660 0.509095 0.136517
O O5 0.451698 0.457549 0.104270
O O6 0.812086 0.008961 0.909107
O O7 0.789380 0.176885 0.012551
O O8 0.561530 0.196449 0.371564
O O9 0.631685 0.095443 0.292904
O O10 0.534348 0.087585 0.235375
O O11 0.219742 0.159587 0.621733
O O12 0.223390 0.039302 0.757238
O O13 0.540471 0.439749 0.622813
#
# Coordination Sequence:
#
# PCOD8187533 Si02
#       8
#    16   8  16  16  16   8  16   8
#     4  11  21  39  71  94 123 173 218 274 325 369
#     4  11  19  42  63  99 124 162 230 267 315 382
#     4  10  24  41  65  95 129 171 223 267 318 389
#     4  11  22  42  70  98 123 173 225 272 317 380
#     4  12  22  46  62  93 138 168 212 267 328 396
#     4  11  27  44  61  97 136 174 206 265 335 390
#     4  11  24  41  68  95 132 170 220 271 324 389
#     4  12  22  40  66 102 128 170 216 270 332 372
#
# _framework density 20.661455
#
# number of rings (size 3 to 8) (size 9 to 14) (size 15 to 20)
#    0.000    0.923    4.615    2.308    2.154    2.462 
#    8.308    0.000    0.000    0.000    0.000    0.000 
#    0.000    0.000    0.000    0.000    0.000    0.000 
#
# Total GULP energy -322347.811062 kJ/mol
# GULP energy per Si atom -12397.992733 kJ/mol
# Density = 2.061443 g / cm^3
# Si number density = 20.661455 Si / 1000 Ang^3
#
#
#
# Elastic Constant Matrix: (Units=GPa)
#
#
# Indices 1 2 3 4 5 6 
#
# 1 132.2318 41.4330 42.2620 0.0000 0.0000 0.0000
# 2 41.4330 86.6137 35.9804 0.0000 0.0000 0.0000
# 3 42.2620 35.9804 82.9662 0.0000 0.0000 0.0000
# 4 0.0000 0.0000 0.0000 33.5856 0.0000 0.0000
# 5 0.0000 0.0000 0.0000 0.0000 15.4316 0.0000
# 6 0.0000 0.0000 0.0000 0.0000 0.0000 21.6302
#
#
#
# Elastic Compliance Matrix: (Units=1/GPa)
#
#
# Indices 1 2 3 4 5 6 
#
# 1 0.009691 -0.003153 -0.003569 0.000000 0.000000 0.000000
# 2 -0.003153 0.015109 -0.004946 0.000000 0.000000 0.000000
# 3 -0.003569 -0.004946 0.016016 0.000000 0.000000 0.000000
# 4 0.000000 0.000000 0.000000 0.029775 0.000000 0.000000
# 5 0.000000 0.000000 0.000000 0.000000 0.064802 0.000000
# 6 0.000000 0.000000 0.000000 0.000000 0.000000 0.046232
#
#
# Mechanical properties :
#
#
# Convention : Reuss Voigt Hill
#
# Bulk Modulus (GPa) = 57.21092 60.12919 58.67005
# Shear Modulus (GPa) = 23.72057 26.27189 24.99623
#
# Velocity S-wave (km/s) = 3.39198 3.56974 3.48199
# Velocity P-wave (km/s) = 6.56433 6.79382 6.68006
#
# Compressibility (1/GPa) = 0.01747918
#
# Stress axis : x y z
#
# Youngs Moduli (GPa) = 103.18618 66.18759 62.43722
#
# Poissons Ratio (x) = 0.20871 0.22284
# Poissons Ratio (y) = 0.32538 0.30881
# Poissons Ratio (z) = 0.36828 0.32736
#
# Static dielectric constant tensor:
#      x y z
#    x 3.885340 0.000000 0.000000 
#    y 0.000000 3.706910 0.000000 
#    z 0.000000 0.000000 3.662890 
# 
# 
# High freq. dielectric constant tensor:
#      x y z
#    x 1.814890 0.000000 0.000000 
#    y 0.000000 1.804740 0.000000 
#    z 0.000000 0.000000 1.805160 
# 
# From -- ./inp_files/13448.got.cif
#   From: 2010.06.25/outbox.cif.g09.slc.cpg/sg43_7_cif.got.tgz:13448.got - 2010.06.26 16:48:59.
