data_PCOD8187026
_publ_section_title
;
Structure prediction by ZEFSAII (Michael W. Deem and Ramdas Pophale) SiO2 
 PCOD8187026
Probable space group: F D D 2
;
_chemical_formula_sum "Si O2"
_cell_formula_units_Z 64
_cell_length_a 17.495722
_cell_length_b 7.210750
_cell_length_c 18.768171
_cell_angle_alpha 90.000000
_cell_angle_beta 90.000000
_cell_angle_gamma 90.000000
_cell_volume 2367.741355
_symmetry_space_group_name_H-M "F D D 2"
_symmetry_group_IT_number 43
_symmetry_cell_setting 'orthorhombic'
loop_
_space_group_symop_operation_xyz
x,y,z
-x,-y,z
1/4-x,1/4+y,1/4+z
1/4+x,1/4-y,1/4+z
x,1/2+y,1/2+z
-x,1/2-y,1/2+z
1/4-x,3/4+y,3/4+z
1/4+x,3/4-y,3/4+z
1/2+x,y,1/2+z
1/2-x,-y,1/2+z
3/4-x,1/4+y,3/4+z
3/4+x,1/4-y,3/4+z
1/2+x,1/2+y,z
1/2-x,1/2-y,z
3/4-x,3/4+y,1/4+z
3/4+x,3/4-y,1/4+z
loop_
_atom_site_type_symbol
_atom_site_label
_atom_site_fract_x
_atom_site_fract_y
_atom_site_fract_z
Si Si1 0.830867 0.362055 0.768240
Si Si2 0.813245 0.409709 0.270499
Si Si3 0.913551 0.168782 0.362095
Si Si4 0.687362 0.597474 0.109120
O O1 0.874238 0.508504 0.817340
O O2 0.870885 0.168027 0.797998
O O3 0.853544 0.387733 0.686108
O O4 0.761998 0.105001 0.775512
O O5 0.750000 0.250000 0.274033
O O6 0.875143 0.366952 0.334058
O O7 0.857926 0.400652 0.195275
O O8 0.006667 0.165364 0.356475
O O9 0.750000 0.750000 0.094130
#
# Coordination Sequence:
#
# PCOD8187026 Si02
#       4
#    16  16  16  16
#     4  10  21  44  71 100 143 191 241 302 367 436
#     4   9  19  36  67 104 142 187 240 295 360 439
#     4  10  19  40  68 102 140 185 237 295 362 442
#     4  11  25  44  69 104 144 187 246 304 359 435
#
# _framework density 27.029976999999999
#
# number of rings (size 3 to 8) (size 9 to 14) (size 15 to 20)
#    0.000    2.000    0.000    5.250    0.000    4.000 
#    0.000   23.750    0.000    0.000    0.000    0.000 
#    0.000    0.000    0.000    0.000    0.000    0.000 
#
# Total GULP energy -198402.206605 kJ/mol
# GULP energy per Si atom -12400.137913 kJ/mol
# Density = 2.696846 g / cm^3
# Si number density = 27.029977 Si / 1000 Ang^3
#
#
#
# Elastic Constant Matrix: (Units=GPa)
#
#
# Indices 1 2 3 4 5 6 
#
# 1 173.2819 55.3807 148.7337 0.0000 0.0000 0.0000
# 2 55.3807 125.3088 61.1980 0.0000 0.0000 0.0000
# 3 148.7337 61.1980 239.3702 0.0000 0.0000 0.0000
# 4 0.0000 0.0000 0.0000 44.0194 0.0000 0.0000
# 5 0.0000 0.0000 0.0000 0.0000 65.6006 0.0000
# 6 0.0000 0.0000 0.0000 0.0000 0.0000 40.0522
#
#
#
# Elastic Compliance Matrix: (Units=1/GPa)
#
#
# Indices 1 2 3 4 5 6 
#
# 1 0.012801 -0.002026 -0.007436 0.000000 0.000000 0.000000
# 2 -0.002026 0.009439 -0.001155 0.000000 0.000000 0.000000
# 3 -0.007436 -0.001155 0.009093 0.000000 0.000000 0.000000
# 4 0.000000 0.000000 0.000000 0.022717 0.000000 0.000000
# 5 0.000000 0.000000 0.000000 0.000000 0.015244 0.000000
# 6 0.000000 0.000000 0.000000 0.000000 0.000000 0.024967
#
#
# Mechanical properties :
#
#
# Convention : Reuss Voigt Hill
#
# Bulk Modulus (GPa) = 99.00177 118.73175 108.86676
# Shear Modulus (GPa) = 42.06564 48.11101 45.08833
#
# Velocity S-wave (km/s) = 3.94922 4.22348 4.08865
# Velocity P-wave (km/s) = 7.58296 8.23438 7.91538
#
# Compressibility (1/GPa) = 0.01010083
#
# Stress axis : x y z
#
# Youngs Moduli (GPa) = 78.11899 105.93813 109.97227
#
# Poissons Ratio (x) = 0.21462 0.81776
# Poissons Ratio (y) = 0.15826 0.12697
# Poissons Ratio (z) = 0.58089 0.12231
#
# Static dielectric constant tensor:
#      x y z
#    x 6.411450 0.000000 0.000000 
#    y 0.000000 7.515210 0.000000 
#    z 0.000000 0.000000 4.711350 
# 
# 
# High freq. dielectric constant tensor:
#      x y z
#    x 2.130280 0.000000 0.000000 
#    y 0.000000 2.190760 0.000000 
#    z 0.000000 0.000000 2.064200 
# 
# From -- ./inp_files/14451.got.cif
#   From: 2010.06.25/outbox.cif.g09.slc.cpg/sg43_8_cif.got.tgz:14451.got - 2010.06.26 16:48:59.
