data_PCOD8187911
_publ_section_title
;
Structure prediction by ZEFSAII (Michael W. Deem and Ramdas Pophale) SiO2 
 PCOD8187911
Probable space group: I M M 2
;
_chemical_formula_sum "Si O2"
_cell_formula_units_Z 64
_cell_length_a 9.040771
_cell_length_b 14.596632
_cell_length_c 27.859786
_cell_angle_alpha 90.000000
_cell_angle_beta 90.000000
_cell_angle_gamma 90.000000
_cell_volume 3676.511290
_symmetry_space_group_name_H-M "I M M 2"
_symmetry_group_IT_number 44
_symmetry_cell_setting 'orthorhombic'
loop_
_space_group_symop_operation_xyz
x,y,z
-x,-y,z
-x,y,z
x,-y,z
1/2+x,1/2+y,1/2+z
1/2-x,1/2-y,1/2+z
1/2-x,1/2+y,1/2+z
1/2+x,1/2-y,1/2+z
loop_
_atom_site_type_symbol
_atom_site_label
_atom_site_fract_x
_atom_site_fract_y
_atom_site_fract_z
Si Si1 0.826056 0.105525 0.215410
Si Si2 0.828567 0.603080 0.440208
Si Si3 0.324398 0.099410 0.563100
Si Si4 0.175336 0.782307 0.019379
Si Si5 0.324594 0.399088 0.607637
Si Si6 0.325155 0.277360 0.251188
Si Si7 0.670835 0.105037 0.829209
Si Si8 0.830241 0.393587 0.171071
O O1 0.778680 0.132672 0.160983
O O2 0.738997 0.173935 0.250551
O O3 0.000000 0.119038 0.223092
O O4 0.782097 0.000000 0.226353
O O5 0.772422 0.500000 0.451733
O O6 0.740505 0.676879 0.471014
O O7 0.800428 0.626288 0.384866
O O8 0.000000 0.610925 0.452937
O O9 0.500000 0.094913 0.565585
O O10 0.273303 0.176488 0.525164
O O11 0.271237 0.122849 0.617023
O O12 0.261562 0.000000 0.546726
O O13 0.239162 0.833167 0.066546
O O14 0.000000 0.791311 0.016648
O O15 0.500000 0.401804 0.605126
O O16 0.259986 0.500000 0.597445
O O17 0.500000 0.272111 0.251096
O O18 0.272814 0.326596 0.299598
O O19 0.271097 0.334237 0.205533
O O20 0.500000 0.121933 0.815690
O O21 0.713221 0.000000 0.817549
O O22 0.816869 0.500000 0.185251
O O23 0.000000 0.360577 0.176572
#
# Coordination Sequence:
#
# PCOD8187911 Si02
#       8
#     8   8   8   8   8   8   8   8
#     4   9  18  34  54  71  92 130 176 210 231 265
#     4   9  19  35  52  71  96 123 152 192 241 288
#     4   8  15  28  46  69  96 128 168 207 234 263
#     4  10  17  26  47  74  97 124 158 196 238 284
#     4   8  14  25  43  69  96 121 156 199 234 269
#     4  12  23  31  46  74 105 130 153 194 251 300
#     4   9  19  37  57  72  90 122 162 199 236 287
#     4   9  17  31  51  71  94 130 173 207 233 274
#
# _framework density 17.407806000000001
#
# number of rings (size 3 to 8) (size 9 to 14) (size 15 to 20)
#    0.000    2.750    0.000    4.875    0.000    5.500 
#    0.000    3.750    0.000    2.625    0.000    3.500 
#    0.000    0.000    0.000    0.000    0.000    0.000 
#
# Total GULP energy -396675.022613 kJ/mol
# GULP energy per Si atom -12396.094457 kJ/mol
# Density = 1.736819 g / cm^3
# Si number density = 17.407806 Si / 1000 Ang^3
#
#
#
# Elastic Constant Matrix: (Units=GPa)
#
#
# Indices 1 2 3 4 5 6 
#
# 1 63.7340 52.1659 38.5509 0.0000 0.0000 0.0000
# 2 52.1659 126.6223 71.3305 0.0000 0.0000 0.0000
# 3 38.5509 71.3305 82.0565 0.0000 0.0000 0.0000
# 4 0.0000 0.0000 0.0000 30.8704 0.0000 0.0000
# 5 0.0000 0.0000 0.0000 0.0000 23.1999 0.0000
# 6 0.0000 0.0000 0.0000 0.0000 0.0000 18.9343
#
#
#
# Elastic Compliance Matrix: (Units=1/GPa)
#
#
# Indices 1 2 3 4 5 6 
#
# 1 0.024853 -0.007175 -0.005439 0.000000 0.000000 0.000000
# 2 -0.007175 0.017547 -0.011883 0.000000 0.000000 0.000000
# 3 -0.005439 -0.011883 0.025072 0.000000 0.000000 0.000000
# 4 0.000000 0.000000 0.000000 0.032393 0.000000 0.000000
# 5 0.000000 0.000000 0.000000 0.000000 0.043104 0.000000
# 6 0.000000 0.000000 0.000000 0.000000 0.000000 0.052814
#
#
# Mechanical properties :
#
#
# Convention : Reuss Voigt Hill
#
# Bulk Modulus (GPa) = 54.11782 66.27861 60.19821
# Shear Modulus (GPa) = 19.92539 21.95862 20.94201
#
# Velocity S-wave (km/s) = 3.38690 3.55551 3.47223
# Velocity P-wave (km/s) = 6.81546 7.41702 7.12260
#
# Compressibility (1/GPa) = 0.01847820
#
# Stress axis : x y z
#
# Youngs Moduli (GPa) = 40.23713 56.98847 39.88566
#
# Poissons Ratio (x) = 0.40888 0.21694
# Poissons Ratio (y) = 0.28869 0.47396
# Poissons Ratio (z) = 0.21885 0.67719
#
# Static dielectric constant tensor:
#      x y z
#    x 2.863120 0.000000 0.000000 
#    y 0.000000 3.534210 0.000000 
#    z 0.000000 0.000000 3.122050 
# 
# 
# High freq. dielectric constant tensor:
#      x y z
#    x 1.636120 0.000000 0.000000 
#    y 0.000000 1.680560 0.000000 
#    z 0.000000 0.000000 1.655930 
# 
# From -- ./inp_files/27373.got.cif
#   From: 2010.03.12/outbox.cif.g09.slc.cpg/sg44_14_cif.got.tgz:27373.got - 2010.04.14 02:36:11.
