data_PCOD8187584
_publ_section_title
;
Structure prediction by ZEFSAII (Michael W. Deem and Ramdas Pophale) SiO2 
 PCOD8187584
Probable space group: F D D 2
;
_chemical_formula_sum "Si O2"
_cell_formula_units_Z 112
_cell_length_a 12.467978
_cell_length_b 27.821092
_cell_length_c 14.866368
_cell_angle_alpha 90.000000
_cell_angle_beta 90.000000
_cell_angle_gamma 90.000000
_cell_volume 5156.738144
_symmetry_space_group_name_H-M "F D D 2"
_symmetry_group_IT_number 43
_symmetry_cell_setting 'orthorhombic'
loop_
_space_group_symop_operation_xyz
x,y,z
-x,-y,z
1/4-x,1/4+y,1/4+z
1/4+x,1/4-y,1/4+z
x,1/2+y,1/2+z
-x,1/2-y,1/2+z
1/4-x,3/4+y,3/4+z
1/4+x,3/4-y,3/4+z
1/2+x,y,1/2+z
1/2-x,-y,1/2+z
3/4-x,1/4+y,3/4+z
3/4+x,1/4-y,3/4+z
1/2+x,1/2+y,z
1/2-x,1/2-y,z
3/4-x,3/4+y,1/4+z
3/4+x,3/4-y,1/4+z
loop_
_atom_site_type_symbol
_atom_site_label
_atom_site_fract_x
_atom_site_fract_y
_atom_site_fract_z
Si Si1 0.511144 0.681999 0.213060
Si Si2 0.618804 0.498666 0.836787
Si Si3 0.450699 0.145451 0.073637
Si Si4 0.432162 0.820617 0.432518
Si Si5 0.886430 0.144697 0.055164
Si Si6 0.074577 0.418617 0.899411
Si Si7 0.633456 0.245290 0.285646
O O1 0.555274 0.729915 0.166048
O O2 0.468003 0.643294 0.139897
O O3 0.601946 0.658779 0.275870
O O4 0.413505 0.701106 0.274648
O O5 0.500000 0.500000 0.876463
O O6 0.655367 0.551358 0.806571
O O7 0.617292 0.460449 0.755343
O O8 0.383992 0.118613 0.153747
O O9 0.575582 0.147938 0.095685
O O10 0.447436 0.117107 0.981240
O O11 0.551014 0.832221 0.470112
O O12 0.446506 0.787450 0.344469
O O13 0.777930 0.173006 0.082596
O O14 0.099338 0.471497 0.937478
O O15 0.750000 0.250000 0.333772
#
# Coordination Sequence:
#
# PCOD8187584 Si02
#       7
#    16  16  16  16  16  16  16
#     4  11  24  44  67  97 141 177 228 279 350 409
#     4  11  22  41  67  96 131 179 224 288 337 421
#     4  11  23  41  67  99 130 183 230 280 348 411
#     4  10  25  42  66  99 138 174 233 285 344 408
#     4  11  24  44  66  98 138 184 216 292 347 410
#     4  11  23  40  68  97 133 175 228 284 342 411
#     4  11  22  43  68  99 132 178 231 288 327 416
#
# _framework density 21.719156000000002
#
# number of rings (size 3 to 8) (size 9 to 14) (size 15 to 20)
#    0.000    1.143    2.857    3.000    4.000    3.429 
#    2.571    0.000    0.000    0.000    0.000    0.000 
#    0.000    0.000    0.000    0.000    0.000    0.000 
#
# Total GULP energy -347157.499305 kJ/mol
# GULP energy per Si atom -12398.482118 kJ/mol
# Density = 2.166972 g / cm^3
# Si number density = 21.719156 Si / 1000 Ang^3
#
#
#
# Elastic Constant Matrix: (Units=GPa)
#
#
# Indices 1 2 3 4 5 6 
#
# 1 149.0456 45.9599 51.8412 0.0000 0.0000 0.0000
# 2 45.9599 108.6647 30.3041 0.0000 0.0000 0.0000
# 3 51.8412 30.3041 57.4596 0.0000 0.0000 0.0000
# 4 0.0000 0.0000 0.0000 24.0707 0.0000 0.0000
# 5 0.0000 0.0000 0.0000 0.0000 42.8735 0.0000
# 6 0.0000 0.0000 0.0000 0.0000 0.0000 42.2010
#
#
#
# Elastic Compliance Matrix: (Units=1/GPa)
#
#
# Indices 1 2 3 4 5 6 
#
# 1 0.010149 -0.002039 -0.008081 0.000000 0.000000 0.000000
# 2 -0.002039 0.011199 -0.004067 0.000000 0.000000 0.000000
# 3 -0.008081 -0.004067 0.026839 0.000000 0.000000 0.000000
# 4 0.000000 0.000000 0.000000 0.041544 0.000000 0.000000
# 5 0.000000 0.000000 0.000000 0.000000 0.023324 0.000000
# 6 0.000000 0.000000 0.000000 0.000000 0.000000 0.023696
#
#
# Mechanical properties :
#
#
# Convention : Reuss Voigt Hill
#
# Bulk Modulus (GPa) = 50.47066 63.48669 56.97867
# Shear Modulus (GPa) = 29.11534 34.30003 31.70769
#
# Velocity S-wave (km/s) = 3.66531 3.97829 3.82500
# Velocity P-wave (km/s) = 6.41880 7.09906 6.76748
#
# Compressibility (1/GPa) = 0.01981349
#
# Stress axis : x y z
#
# Youngs Moduli (GPa) = 98.53308 89.29277 37.25852
#
# Poissons Ratio (x) = 0.18205 0.30110
# Poissons Ratio (y) = 0.20089 0.15153
# Poissons Ratio (z) = 0.79627 0.36315
#
# Static dielectric constant tensor:
#      x y z
#    x 4.059220 0.000000 0.000000 
#    y 0.000000 3.996560 0.000000 
#    z 0.000000 0.000000 3.908860 
# 
# 
# High freq. dielectric constant tensor:
#      x y z
#    x 1.862500 0.000000 0.000000 
#    y 0.000000 1.853550 0.000000 
#    z 0.000000 0.000000 1.846510 
# 
# From -- ./inp_files/9778.got.cif
#   From: 2010.06.25/outbox.cif.g09.slc.cpg/sg43_5_cif.got.tgz:9778.got - 2010.06.26 16:48:59.
