data_PCOD8187064
_publ_section_title
;
Structure prediction by ZEFSAII (Michael W. Deem and Ramdas Pophale) SiO2 
 PCOD8187064
Probable space group: F D D 2
;
_chemical_formula_sum "Si O2"
_cell_formula_units_Z 120
_cell_length_a 8.263242
_cell_length_b 27.154321
_cell_length_c 24.933797
_cell_angle_alpha 90.000000
_cell_angle_beta 90.000000
_cell_angle_gamma 90.000000
_cell_volume 5594.713335
_symmetry_space_group_name_H-M "F D D 2"
_symmetry_group_IT_number 43
_symmetry_cell_setting 'orthorhombic'
loop_
_space_group_symop_operation_xyz
x,y,z
-x,-y,z
1/4-x,1/4+y,1/4+z
1/4+x,1/4-y,1/4+z
x,1/2+y,1/2+z
-x,1/2-y,1/2+z
1/4-x,3/4+y,3/4+z
1/4+x,3/4-y,3/4+z
1/2+x,y,1/2+z
1/2-x,-y,1/2+z
3/4-x,1/4+y,3/4+z
3/4+x,1/4-y,3/4+z
1/2+x,1/2+y,z
1/2-x,1/2-y,z
3/4-x,3/4+y,1/4+z
3/4+x,3/4-y,1/4+z
loop_
_atom_site_type_symbol
_atom_site_label
_atom_site_fract_x
_atom_site_fract_y
_atom_site_fract_z
Si Si1 0.176906 0.003953 0.927580
Si Si2 0.250000 0.250000 0.507756
Si Si3 0.287972 0.041332 0.313045
Si Si4 0.685719 0.080084 0.988928
Si Si5 0.603716 0.135474 0.841384
Si Si6 0.180278 0.331164 0.429960
Si Si7 0.376353 0.602075 0.432347
Si Si8 0.070757 0.949112 0.703159
O O1 0.242130 0.059684 0.924221
O O2 0.151124 0.976597 0.870388
O O3 0.299541 0.975206 0.966308
O O4 0.000000 0.000000 0.954650
O O5 0.093777 0.251522 0.544960
O O6 0.279573 0.297726 0.471327
O O7 0.211482 0.095705 0.310597
O O8 0.426966 0.044582 0.267879
O O9 0.804688 0.113200 0.951748
O O10 0.495416 0.093836 0.983423
O O11 0.743282 0.083221 0.050480
O O12 0.727194 0.172006 0.872786
O O13 0.488670 0.103670 0.880038
O O14 0.996544 0.311752 0.427003
O O15 0.294288 0.654619 0.438190
O O16 0.000000 0.000000 0.678302
#
# Coordination Sequence:
#
# PCOD8187064 Si02
#       8
#    16   8  16  16  16  16  16  16
#     4  12  25  43  70 105 141 183 230 292 352 421
#     4  10  20  36  70 100 128 176 222 292 330 416
#     4  11  22  39  74 103 133 169 246 284 349 398
#     4  11  23  45  68 101 137 183 233 284 358 416
#     4  11  23  44  73  98 139 190 231 289 356 412
#     4  10  22  41  69  95 141 173 234 280 349 416
#     4  11  26  44  72 101 144 181 233 298 344 424
#     4  11  25  44  68 105 141 178 231 296 350 416
#
# _framework density 21.448820000000001
#
# number of rings (size 3 to 8) (size 9 to 14) (size 15 to 20)
#    0.000    1.067    5.333    2.400    7.467    1.067 
#    1.200    1.333    0.000    0.000    0.000    0.000 
#    0.000    0.000    0.000    0.000    0.000    0.000 
#
# Total GULP energy -371951.583992 kJ/mol
# GULP energy per Si atom -12398.386133 kJ/mol
# Density = 2.140000 g / cm^3
# Si number density = 21.448820 Si / 1000 Ang^3
#
#
#
# Elastic Constant Matrix: (Units=GPa)
#
#
# Indices 1 2 3 4 5 6 
#
# 1 103.0402 37.3447 23.8874 0.0000 0.0000 0.0000
# 2 37.3447 112.7518 14.3529 0.0000 0.0000 0.0000
# 3 23.8874 14.3529 78.3056 0.0000 0.0000 0.0000
# 4 0.0000 0.0000 0.0000 43.8221 0.0000 0.0000
# 5 0.0000 0.0000 0.0000 0.0000 33.7897 0.0000
# 6 0.0000 0.0000 0.0000 0.0000 0.0000 41.9546
#
#
#
# Elastic Compliance Matrix: (Units=1/GPa)
#
#
# Indices 1 2 3 4 5 6 
#
# 1 0.011644 -0.003486 -0.002913 0.000000 0.000000 0.000000
# 2 -0.003486 0.010124 -0.000792 0.000000 0.000000 0.000000
# 3 -0.002913 -0.000792 0.013804 0.000000 0.000000 0.000000
# 4 0.000000 0.000000 0.000000 0.022820 0.000000 0.000000
# 5 0.000000 0.000000 0.000000 0.000000 0.029595 0.000000
# 6 0.000000 0.000000 0.000000 0.000000 0.000000 0.023835
#
#
# Mechanical properties :
#
#
# Convention : Reuss Voigt Hill
#
# Bulk Modulus (GPa) = 47.19183 49.47419 48.33301
# Shear Modulus (GPa) = 37.51850 38.48078 37.99964
#
# Velocity S-wave (km/s) = 4.18689 4.24025 4.21365
# Velocity P-wave (km/s) = 6.73968 6.86215 6.80119
#
# Compressibility (1/GPa) = 0.02119011
#
# Stress axis : x y z
#
# Youngs Moduli (GPa) = 85.88432 98.77123 72.44097
#
# Poissons Ratio (x) = 0.34428 0.21102
# Poissons Ratio (y) = 0.29936 0.05740
# Poissons Ratio (z) = 0.25018 0.07827
#
# Static dielectric constant tensor:
#      x y z
#    x 3.885590 0.000000 0.000000 
#    y 0.000000 3.890160 0.000000 
#    z 0.000000 0.000000 3.871510 
# 
# 
# High freq. dielectric constant tensor:
#      x y z
#    x 1.845570 0.000000 0.000000 
#    y 0.000000 1.845050 0.000000 
#    z 0.000000 0.000000 1.825690 
# 
# From -- ./inp_files/24556.got.cif
#   From: 2010.06.25/outbox.cif.g09.slc.cpg/sg43_13_cif.got.tgz:24556.got - 2010.06.26 16:48:59.
