data_PCOD8187227
_publ_section_title
;
Structure prediction by ZEFSAII (Michael W. Deem and Ramdas Pophale) SiO2 
 PCOD8187227
Probable space group: F D D 2
;
_chemical_formula_sum "Si O2"
_cell_formula_units_Z 120
_cell_length_a 31.945917
_cell_length_b 21.857454
_cell_length_c 8.427775
_cell_angle_alpha 90.000000
_cell_angle_beta 90.000000
_cell_angle_gamma 90.000000
_cell_volume 5884.747927
_symmetry_space_group_name_H-M "F D D 2"
_symmetry_group_IT_number 43
_symmetry_cell_setting 'orthorhombic'
loop_
_space_group_symop_operation_xyz
x,y,z
-x,-y,z
1/4-x,1/4+y,1/4+z
1/4+x,1/4-y,1/4+z
x,1/2+y,1/2+z
-x,1/2-y,1/2+z
1/4-x,3/4+y,3/4+z
1/4+x,3/4-y,3/4+z
1/2+x,y,1/2+z
1/2-x,-y,1/2+z
3/4-x,1/4+y,3/4+z
3/4+x,1/4-y,3/4+z
1/2+x,1/2+y,z
1/2-x,1/2-y,z
3/4-x,3/4+y,1/4+z
3/4+x,3/4-y,1/4+z
loop_
_atom_site_type_symbol
_atom_site_label
_atom_site_fract_x
_atom_site_fract_y
_atom_site_fract_z
Si Si1 0.290715 0.385990 0.518080
Si Si2 0.907680 0.270249 0.820340
Si Si3 0.548762 0.112544 0.902173
Si Si4 0.003983 0.618780 0.222557
Si Si5 0.067966 0.996928 0.200202
Si Si6 0.445531 0.204173 0.058705
Si Si7 0.500000 0.500000 0.930712
Si Si8 0.514829 0.294292 0.977501
O O1 0.243214 0.387887 0.575646
O O2 0.310021 0.318907 0.527334
O O3 0.316806 0.433846 0.629299
O O4 0.290045 0.408611 0.338538
O O5 0.912924 0.343676 0.843239
O O6 0.866187 0.246947 0.904181
O O7 0.907457 0.242470 0.639735
O O8 0.949322 0.242333 0.891257
O O9 0.557950 0.044806 0.838962
O O10 0.541637 0.111558 0.093694
O O11 0.994624 0.556443 0.313531
O O12 0.015658 0.669395 0.355778
O O13 0.959691 0.640742 0.145094
O O14 0.040172 0.008617 0.044116
O O15 0.486441 0.247234 0.072724
#
# Coordination Sequence:
#
# PCOD8187227 Si02
#       8
#    16  16  16  16  16  16   8  16
#     4  11  20  40  71  92 125 180 226 264 345 410
#     4  11  25  41  64 100 132 172 223 286 334 393
#     4  11  22  43  68  95 125 175 230 278 334 412
#     4  10  22  36  69  94 122 167 229 267 320 409
#     4  12  26  43  65  93 140 183 218 277 349 405
#     4  10  21  39  68  97 126 169 226 282 324 401
#     4  12  24  42  64  90 130 184 216 264 342 408
#     4  11  18  41  66  98 126 165 220 280 333 397
#
# _framework density 20.391698000000002
#
# number of rings (size 3 to 8) (size 9 to 14) (size 15 to 20)
#    0.000    1.067    6.667    0.800    5.600    0.000 
#    2.400    0.000    0.000    0.000    0.000    0.000 
#    0.000    0.000    0.000    0.000    0.000    0.000 
#
# Total GULP energy -371826.529211 kJ/mol
# GULP energy per Si atom -12394.217640 kJ/mol
# Density = 2.034529 g / cm^3
# Si number density = 20.391698 Si / 1000 Ang^3
#
#
#
# Elastic Constant Matrix: (Units=GPa)
#
#
# Indices 1 2 3 4 5 6 
#
# 1 60.6542 23.9359 25.2809 -0.0003 0.0001 0.0001
# 2 23.9359 129.8254 64.1574 0.0013 -0.0002 0.0000
# 3 25.2809 64.1574 127.5483 0.0027 -0.0006 -0.0001
# 4 -0.0003 0.0013 0.0027 48.8060 -0.0004 -0.0001
# 5 0.0001 -0.0002 -0.0006 -0.0004 18.9057 0.0000
# 6 0.0001 0.0000 -0.0001 -0.0001 0.0000 22.4865
#
#
#
# Elastic Compliance Matrix: (Units=1/GPa)
#
#
# Indices 1 2 3 4 5 6 
#
# 1 0.018398 -0.002116 -0.002582 0.000000 0.000000 0.000000
# 2 -0.002116 0.010494 -0.004859 0.000000 0.000000 0.000000
# 3 -0.002582 -0.004859 0.010796 0.000000 0.000000 0.000000
# 4 0.000000 0.000000 0.000000 0.020489 0.000000 0.000000
# 5 0.000000 0.000000 0.000000 0.000000 0.052894 0.000000
# 6 0.000000 0.000000 0.000000 0.000000 0.000000 0.044471
#
#
# Mechanical properties :
#
#
# Convention : Reuss Voigt Hill
#
# Bulk Modulus (GPa) = 48.60594 60.53070 54.56832
# Shear Modulus (GPa) = 27.24559 31.68320 29.46440
#
# Velocity S-wave (km/s) = 3.65925 3.94602 3.80534
# Velocity P-wave (km/s) = 6.46076 7.10703 6.79158
#
# Compressibility (1/GPa) = 0.02057362
#
# Stress axis : x y z
#
# Youngs Moduli (GPa) = 54.35304 95.29174 92.62526
#
# Poissons Ratio (x) = 0.20163 0.23919
# Poissons Ratio (y) = 0.11501 0.45008
# Poissons Ratio (z) = 0.14036 0.46304
#
# Static dielectric constant tensor:
#      x y z
#    x 3.324760 0.000000 0.000000 
#    y 0.000000 4.076190 0.000000 
#    z 0.000000 0.000000 4.328660 
# 
# 
# High freq. dielectric constant tensor:
#      x y z
#    x 1.748200 0.000000 0.000000 
#    y 0.000000 1.816090 0.000000 
#    z 0.000000 0.000000 1.810980 
# 
# From -- ./inp_files/4824.got.cif
#   From: 2010.06.25/outbox.cif.g09.slc.cpg/sg43_3_cif.got.tgz:4824.got - 2010.06.26 16:48:59.
