data_PCOD8187128
_publ_section_title
;
Structure prediction by ZEFSAII (Michael W. Deem and Ramdas Pophale) SiO2 
 PCOD8187128
Probable space group: F D D 2
;
_chemical_formula_sum "Si O2"
_cell_formula_units_Z 88
_cell_length_a 10.817119
_cell_length_b 21.610564
_cell_length_c 15.680588
_cell_angle_alpha 90.000000
_cell_angle_beta 90.000000
_cell_angle_gamma 90.000000
_cell_volume 3665.557639
_symmetry_space_group_name_H-M "F D D 2"
_symmetry_group_IT_number 43
_symmetry_cell_setting 'orthorhombic'
loop_
_space_group_symop_operation_xyz
x,y,z
-x,-y,z
1/4-x,1/4+y,1/4+z
1/4+x,1/4-y,1/4+z
x,1/2+y,1/2+z
-x,1/2-y,1/2+z
1/4-x,3/4+y,3/4+z
1/4+x,3/4-y,3/4+z
1/2+x,y,1/2+z
1/2-x,-y,1/2+z
3/4-x,1/4+y,3/4+z
3/4+x,1/4-y,3/4+z
1/2+x,1/2+y,z
1/2-x,1/2-y,z
3/4-x,3/4+y,1/4+z
3/4+x,3/4-y,1/4+z
loop_
_atom_site_type_symbol
_atom_site_label
_atom_site_fract_x
_atom_site_fract_y
_atom_site_fract_z
Si Si1 0.250000 0.250000 0.254190
Si Si2 0.244719 0.959126 0.494952
Si Si3 0.950062 0.283810 0.434530
Si Si4 0.389875 0.126660 0.545455
Si Si5 0.932504 0.412687 0.162026
Si Si6 0.141097 0.586906 0.977757
O O1 0.370707 0.225076 0.200876
O O2 0.290442 0.310857 0.307171
O O3 0.270934 0.951738 0.596333
O O4 0.169404 0.900755 0.462252
O O5 0.148439 0.013031 0.476996
O O6 0.930157 0.208880 0.440382
O O7 0.813986 0.310683 0.436986
O O8 0.025356 0.316138 0.511839
O O9 0.277085 0.118041 0.480677
O O10 0.331584 0.141944 0.638378
O O11 0.936535 0.395949 0.061498
#
# Coordination Sequence:
#
# PCOD8187128 Si02
#       6
#     8  16  16  16  16  16
#     4  10  20  40  66  94 134 174 230 286 338 410
#     4  10  21  42  67  98 137 180 229 294 344 418
#     4  10  22  40  71  96 141 181 239 284 350 417
#     4  11  22  44  64 100 136 184 227 288 350 415
#     4  10  22  43  66 103 134 185 236 291 344 428
#     4  10  25  42  66  98 141 176 233 283 356 423
#
# _framework density 24.007262000000001
#
# number of rings (size 3 to 8) (size 9 to 14) (size 15 to 20)
#    0.000    1.818    1.818    1.091    2.545    1.455 
#    9.818    0.000    0.000    0.000    0.000    0.000 
#    0.000    0.000    0.000    0.000    0.000    0.000 
#
# Total GULP energy -272590.720790 kJ/mol
# GULP energy per Si atom -12390.487309 kJ/mol
# Density = 2.395262 g / cm^3
# Si number density = 24.007262 Si / 1000 Ang^3
#
#
#
# Elastic Constant Matrix: (Units=GPa)
#
#
# Indices 1 2 3 4 5 6 
#
# 1 32.1594 24.7415 5.2781 0.0000 0.0000 0.0000
# 2 24.7415 151.9453 68.7810 0.0000 0.0000 0.0000
# 3 5.2781 68.7810 99.0398 0.0000 0.0000 0.0000
# 4 0.0000 0.0000 0.0000 31.8852 0.0000 0.0000
# 5 0.0000 0.0000 0.0000 0.0000 22.8925 0.0000
# 6 0.0000 0.0000 0.0000 0.0000 0.0000 16.8961
#
#
#
# Elastic Compliance Matrix: (Units=1/GPa)
#
#
# Indices 1 2 3 4 5 6 
#
# 1 0.036213 -0.007326 0.003158 0.000000 0.000000 0.000000
# 2 -0.007326 0.011081 -0.007305 0.000000 0.000000 0.000000
# 3 0.003158 -0.007305 0.015002 0.000000 0.000000 0.000000
# 4 0.000000 0.000000 0.000000 0.031363 0.000000 0.000000
# 5 0.000000 0.000000 0.000000 0.000000 0.043683 0.000000
# 6 0.000000 0.000000 0.000000 0.000000 0.000000 0.059185
#
#
# Mechanical properties :
#
#
# Convention : Reuss Voigt Hill
#
# Bulk Modulus (GPa) = 25.41332 53.41620 39.41476
# Shear Modulus (GPa) = 21.49709 26.62433 24.06071
#
# Velocity S-wave (km/s) = 2.99564 3.33380 3.16923
# Velocity P-wave (km/s) = 4.75119 6.09239 5.46311
#
# Compressibility (1/GPa) = 0.03934944
#
# Stress axis : x y z
#
# Youngs Moduli (GPa) = 27.61428 90.24416 66.65824
#
# Poissons Ratio (x) = 0.66114 -0.21050
# Poissons Ratio (y) = 0.20231 0.48695
# Poissons Ratio (z) = -0.08720 0.65924
#
# Static dielectric constant tensor:
#      x y z
#    x 4.310290 0.000000 0.000000 
#    y 0.000000 4.916000 0.000000 
#    z 0.000000 0.000000 3.944800 
# 
# 
# High freq. dielectric constant tensor:
#      x y z
#    x 1.961940 0.000000 0.000000 
#    y 0.000000 1.967420 0.000000 
#    z 0.000000 0.000000 1.916600 
# 
# From -- ./inp_files/9580.got.cif
#   From: 2010.06.25/outbox.cif.g09.slc.cpg/sg43_5_cif.got.tgz:9580.got - 2010.06.26 16:48:59.
