data_PCOD8187946
_publ_section_title
;
Structure prediction by ZEFSAII (Michael W. Deem and Ramdas Pophale) SiO2 
 PCOD8187946
Probable space group: I M M 2
;
_chemical_formula_sum "Si O2"
_cell_formula_units_Z 48
_cell_length_a 8.988873
_cell_length_b 14.589391
_cell_length_c 20.578482
_cell_angle_alpha 90.000000
_cell_angle_beta 90.000000
_cell_angle_gamma 90.000000
_cell_volume 2698.707049
_symmetry_space_group_name_H-M "I M M 2"
_symmetry_group_IT_number 44
_symmetry_cell_setting 'orthorhombic'
loop_
_space_group_symop_operation_xyz
x,y,z
-x,-y,z
-x,y,z
x,-y,z
1/2+x,1/2+y,1/2+z
1/2-x,1/2-y,1/2+z
1/2-x,1/2+y,1/2+z
1/2+x,1/2-y,1/2+z
loop_
_atom_site_type_symbol
_atom_site_label
_atom_site_fract_x
_atom_site_fract_y
_atom_site_fract_z
Si Si1 0.828025 0.698487 0.275280
Si Si2 0.325537 0.318241 0.896389
Si Si3 0.324263 0.689419 0.041186
Si Si4 0.323330 0.000000 0.201854
Si Si5 0.676930 0.805314 0.159806
Si Si6 0.323523 0.000000 0.348980
Si Si7 0.670389 0.000000 0.733344
Si Si8 0.823392 0.000000 0.596660
O O1 0.780637 0.739878 0.344964
O O2 0.732113 0.744509 0.219315
O O3 0.796158 0.589622 0.277037
O O4 0.000000 0.719531 0.260816
O O5 0.500000 0.341143 0.893515
O O6 0.236675 0.410704 0.884330
O O7 0.278748 0.282711 0.968084
O O8 0.500000 0.686017 0.048541
O O9 0.261314 0.764566 0.091948
O O10 0.259429 0.589367 0.059796
O O11 0.262612 0.090660 0.165680
O O12 0.500000 0.000000 0.202297
O O13 0.263349 0.000000 0.275335
O O14 0.500000 0.803721 0.162744
O O15 0.500000 0.000000 0.351950
O O16 0.774104 0.000000 0.670945
O O17 0.500000 0.000000 0.709403
O O18 0.000000 0.000000 0.595843
#
# Coordination Sequence:
#
# PCOD8187946 Si02
#       8
#     8   8   8   4   8   4   4   4
#     4  10  20  33  51  73 101 135 168 205 253 302
#     4  10  20  35  52  74 104 139 173 206 249 308
#     4   9  18  31  51  75 100 131 169 209 247 295
#     4   9  18  30  49  78 105 124 159 214 258 290
#     4  10  18  33  54  74 100 132 168 211 252 296
#     4  11  20  32  52  80 107 133 164 210 265 304
#     4  10  20  33  48  74 106 128 159 209 253 295
#     4  10  17  29  51  76  96 125 166 207 248 293
#
# _framework density 17.786294999999999
#
# number of rings (size 3 to 8) (size 9 to 14) (size 15 to 20)
#    0.000    2.167    3.333    0.750    0.000    1.333 
#    0.000    3.750    0.000    5.000    0.000    0.000 
#    0.000    2.667    0.000    0.000    0.000    0.000 
#
# Total GULP energy -297554.938931 kJ/mol
# GULP energy per Si atom -12398.122455 kJ/mol
# Density = 1.774581 g / cm^3
# Si number density = 17.786295 Si / 1000 Ang^3
#
#
#
# Elastic Constant Matrix: (Units=GPa)
#
#
# Indices 1 2 3 4 5 6 
#
# 1 23.0470 21.6283 22.9561 0.0000 0.0000 0.0000
# 2 21.6283 148.7216 81.3402 0.0000 0.0000 0.0000
# 3 22.9561 81.3402 161.8891 0.0000 0.0000 0.0000
# 4 0.0000 0.0000 0.0000 26.8273 0.0000 0.0000
# 5 0.0000 0.0000 0.0000 0.0000 21.2006 0.0000
# 6 0.0000 0.0000 0.0000 0.0000 0.0000 14.9941
#
#
#
# Elastic Compliance Matrix: (Units=1/GPa)
#
#
# Indices 1 2 3 4 5 6 
#
# 1 0.053059 -0.004966 -0.005029 0.000000 0.000000 0.000000
# 2 -0.004966 0.009737 -0.004188 0.000000 0.000000 0.000000
# 3 -0.005029 -0.004188 0.008994 0.000000 0.000000 0.000000
# 4 0.000000 0.000000 0.000000 0.037275 0.000000 0.000000
# 5 0.000000 0.000000 0.000000 0.000000 0.047169 0.000000
# 6 0.000000 0.000000 0.000000 0.000000 0.000000 0.066693
#
#
# Mechanical properties :
#
#
# Convention : Reuss Voigt Hill
#
# Bulk Modulus (GPa) = 23.02842 65.05631 44.04236
# Shear Modulus (GPa) = 18.81352 26.45329 22.63340
#
# Velocity S-wave (km/s) = 3.25584 3.86072 3.57111
# Velocity P-wave (km/s) = 5.20667 7.51861 6.46680
#
# Compressibility (1/GPa) = 0.04342461
#
# Stress axis : x y z
#
# Youngs Moduli (GPa) = 18.84706 102.70461 111.18077
#
# Poissons Ratio (x) = 0.51002 0.55910
# Poissons Ratio (y) = 0.09359 0.46562
# Poissons Ratio (z) = 0.09478 0.43012
#
# Static dielectric constant tensor:
#      x y z
#    x 3.020970 0.000000 0.000000 
#    y 0.000000 3.784260 0.000000 
#    z 0.000000 0.000000 3.470330 
# 
# 
# High freq. dielectric constant tensor:
#      x y z
#    x 1.657400 0.000000 0.000000 
#    y 0.000000 1.694280 0.000000 
#    z 0.000000 0.000000 1.688040 
# 
# From -- ./inp_files/20367.got.cif
#   From: 2010.03.12/outbox.cif.g09.slc.cpg/sg44_11_cif.got.tgz:20367.got - 2010.04.14 02:36:11.
