data_PCOD8187703
_publ_section_title
;
Structure prediction by ZEFSAII (Michael W. Deem and Ramdas Pophale) SiO2 
 PCOD8187703
Probable space group: F D D 2
;
_chemical_formula_sum "Si O2"
_cell_formula_units_Z 112
_cell_length_a 13.945490
_cell_length_b 16.548925
_cell_length_c 22.740287
_cell_angle_alpha 90.000000
_cell_angle_beta 90.000000
_cell_angle_gamma 90.000000
_cell_volume 5248.068655
_symmetry_space_group_name_H-M "F D D 2"
_symmetry_group_IT_number 43
_symmetry_cell_setting 'orthorhombic'
loop_
_space_group_symop_operation_xyz
x,y,z
-x,-y,z
1/4-x,1/4+y,1/4+z
1/4+x,1/4-y,1/4+z
x,1/2+y,1/2+z
-x,1/2-y,1/2+z
1/4-x,3/4+y,3/4+z
1/4+x,3/4-y,3/4+z
1/2+x,y,1/2+z
1/2-x,-y,1/2+z
3/4-x,1/4+y,3/4+z
3/4+x,1/4-y,3/4+z
1/2+x,1/2+y,z
1/2-x,1/2-y,z
3/4-x,3/4+y,1/4+z
3/4+x,3/4-y,1/4+z
loop_
_atom_site_type_symbol
_atom_site_label
_atom_site_fract_x
_atom_site_fract_y
_atom_site_fract_z
Si Si1 0.898925 0.039142 0.305310
Si Si2 0.862389 0.154381 0.202363
Si Si3 0.347536 0.333417 0.683037
Si Si4 0.765700 0.565225 0.266946
Si Si5 0.759641 0.845818 0.152364
Si Si6 0.922279 0.936815 0.781345
Si Si7 0.221440 0.342296 0.377519
O O1 0.904746 0.113047 0.260362
O O2 0.859743 0.074973 0.367123
O O3 0.842212 0.966200 0.274390
O O4 0.000000 0.000000 0.321657
O O5 0.756807 0.120769 0.183244
O O6 0.843365 0.247482 0.215043
O O7 0.941030 0.146360 0.151283
O O8 0.419936 0.380536 0.724708
O O9 0.790306 0.597911 0.201759
O O10 0.825207 0.487646 0.290057
O O11 0.783324 0.643326 0.307827
O O12 0.750000 0.750000 0.167047
O O13 0.704243 0.861144 0.090633
O O14 0.869909 0.876689 0.152955
O O15 0.000000 0.000000 0.762519
O O16 0.250000 0.250000 0.393099
#
# Coordination Sequence:
#
# PCOD8187703 Si02
#       7
#    16  16  16  16  16  16  16
#     4  12  23  45  72 102 140 186 237 309 367 428
#     4  11  23  43  70 101 139 180 235 298 364 429
#     4  11  24  45  67 101 143 183 238 294 365 437
#     4  12  23  44  72  99 142 190 242 301 368 440
#     4  11  25  47  70 106 148 190 243 305 372 441
#     4  11  25  47  68  98 148 194 239 296 360 456
#     4  12  24  44  71 107 140 185 248 307 365 432
#
# _framework density 21.341183000000001
#
# number of rings (size 3 to 8) (size 9 to 14) (size 15 to 20)
#    0.000    0.571    7.143    2.571    0.000    3.429 
#    7.714    0.000    0.000    0.000    0.000    0.000 
#    0.000    0.000    0.000    0.000    0.000    0.000 
#
# Total GULP energy -346985.756667 kJ/mol
# GULP energy per Si atom -12392.348452 kJ/mol
# Density = 2.129261 g / cm^3
# Si number density = 21.341183 Si / 1000 Ang^3
#
#
#
# Elastic Constant Matrix: (Units=GPa)
#
#
# Indices 1 2 3 4 5 6 
#
# 1 88.2794 33.7491 37.6413 0.0000 0.0000 0.0000
# 2 33.7491 78.7185 52.6974 0.0000 0.0000 0.0000
# 3 37.6413 52.6974 163.8309 0.0000 0.0000 0.0000
# 4 0.0000 0.0000 0.0000 56.2458 0.0000 0.0000
# 5 0.0000 0.0000 0.0000 0.0000 30.6281 0.0000
# 6 0.0000 0.0000 0.0000 0.0000 0.0000 38.6123
#
#
#
# Elastic Compliance Matrix: (Units=1/GPa)
#
#
# Indices 1 2 3 4 5 6 
#
# 1 0.013880 -0.004863 -0.001625 0.000000 0.000000 0.000000
# 2 -0.004863 0.017893 -0.004638 0.000000 0.000000 0.000000
# 3 -0.001625 -0.004638 0.007969 0.000000 0.000000 0.000000
# 4 0.000000 0.000000 0.000000 0.017779 0.000000 0.000000
# 5 0.000000 0.000000 0.000000 0.000000 0.032650 0.000000
# 6 0.000000 0.000000 0.000000 0.000000 0.000000 0.025898
#
#
# Mechanical properties :
#
#
# Convention : Reuss Voigt Hill
#
# Bulk Modulus (GPa) = 57.17487 64.33383 60.75435
# Shear Modulus (GPa) = 34.68577 38.87996 36.78286
#
# Velocity S-wave (km/s) = 4.03587 4.27292 4.15608
# Velocity P-wave (km/s) = 6.96898 7.38611 7.18057
#
# Compressibility (1/GPa) = 0.01749020
#
# Stress axis : x y z
#
# Youngs Moduli (GPa) = 72.04854 55.88639 125.48504
#
# Poissons Ratio (x) = 0.27177 0.20388
# Poissons Ratio (y) = 0.35037 0.58203
# Poissons Ratio (z) = 0.11706 0.25922
#
# Static dielectric constant tensor:
#      x y z
#    x 3.746340 0.000000 0.000000 
#    y 0.000000 3.758950 0.000000 
#    z 0.000000 0.000000 3.849380 
# 
# 
# High freq. dielectric constant tensor:
#      x y z
#    x 1.840350 0.000000 0.000000 
#    y 0.000000 1.831790 0.000000 
#    z 0.000000 0.000000 1.843770 
# 
# From -- ./inp_files/21728.got.cif
#   From: 2010.06.25/outbox.cif.g09.slc.cpg/sg43_11_cif.got.tgz:21728.got - 2010.06.26 16:48:59.
