data_PCOD8187864
_publ_section_title
;
Structure prediction by ZEFSAII (Michael W. Deem and Ramdas Pophale) SiO2 
 PCOD8187864
Probable space group: F D D 2
;
_chemical_formula_sum "Si O2"
_cell_formula_units_Z 48
_cell_length_a 14.075114
_cell_length_b 26.747001
_cell_length_c 4.917772
_cell_angle_alpha 90.000000
_cell_angle_beta 90.000000
_cell_angle_gamma 90.000000
_cell_volume 1851.379305
_symmetry_space_group_name_H-M "F D D 2"
_symmetry_group_IT_number 43
_symmetry_cell_setting 'orthorhombic'
loop_
_space_group_symop_operation_xyz
x,y,z
-x,-y,z
1/4-x,1/4+y,1/4+z
1/4+x,1/4-y,1/4+z
x,1/2+y,1/2+z
-x,1/2-y,1/2+z
1/4-x,3/4+y,3/4+z
1/4+x,3/4-y,3/4+z
1/2+x,y,1/2+z
1/2-x,-y,1/2+z
3/4-x,1/4+y,3/4+z
3/4+x,1/4-y,3/4+z
1/2+x,1/2+y,z
1/2-x,1/2-y,z
3/4-x,3/4+y,1/4+z
3/4+x,3/4-y,1/4+z
loop_
_atom_site_type_symbol
_atom_site_label
_atom_site_fract_x
_atom_site_fract_y
_atom_site_fract_z
Si Si1 0.652010 0.025558 0.301630
Si Si2 0.943340 0.428072 0.799744
Si Si3 0.598388 0.686263 0.415591
O O1 0.587732 0.060286 0.493538
O O2 0.762570 0.040612 0.342998
O O3 0.640428 0.967582 0.384948
O O4 0.617238 0.035713 0.995272
O O5 0.923115 0.370469 0.846467
O O6 0.054659 0.439758 0.838100
#
# Coordination Sequence:
#
# PCOD8187864 Si02
#       3
#    16  16  16
#     4  12  30  52  83 120 161 216 271 334 402 489
#     4  12  30  52  83 121 165 210 274 330 411 481
#     4  12  29  54  84 119 166 214 269 339 404 483
#
# _framework density 25.926617
#
# number of rings (size 3 to 8) (size 9 to 14) (size 15 to 20)
#    0.000    0.000    3.333    3.000    4.667   16.000 
#    0.000    0.000    0.000    0.000    0.000    0.000 
#    0.000    0.000    0.000    0.000    0.000    0.000 
#
# Total GULP energy -148895.045517 kJ/mol
# GULP energy per Si atom -12407.920460 kJ/mol
# Density = 2.586761 g / cm^3
# Si number density = 25.926617 Si / 1000 Ang^3
#
#
#
# Elastic Constant Matrix: (Units=GPa)
#
#
# Indices 1 2 3 4 5 6 
#
# 1 226.7585 53.2661 30.1970 0.0070 -0.0565 0.0048
# 2 53.2661 157.9596 18.3990 0.0021 0.0006 -0.0013
# 3 30.1970 18.3990 61.4361 0.0109 -0.0639 0.0074
# 4 0.0070 0.0021 0.0109 22.2781 -0.0101 0.0005
# 5 -0.0565 0.0006 -0.0639 -0.0101 37.2465 -0.0050
# 6 0.0048 -0.0013 0.0074 0.0005 -0.0050 41.4837
#
#
#
# Elastic Compliance Matrix: (Units=1/GPa)
#
#
# Indices 1 2 3 4 5 6 
#
# 1 0.005023 -0.001457 -0.002032 0.000000 0.000004 0.000000
# 2 -0.001457 0.006982 -0.001375 0.000000 -0.000005 0.000001
# 3 -0.002032 -0.001375 0.017688 -0.000008 0.000027 -0.000003
# 4 0.000000 0.000000 -0.000008 0.044887 0.000012 -0.000001
# 5 0.000004 -0.000005 0.000027 0.000012 0.026848 0.000003
# 6 0.000000 0.000001 -0.000003 -0.000001 0.000003 0.024106
#
#
# Mechanical properties :
#
#
# Convention : Reuss Voigt Hill
#
# Bulk Modulus (GPa) = 50.08981 72.20869 61.14925
# Shear Modulus (GPa) = 35.23166 43.15447 39.19307
#
# Velocity S-wave (km/s) = 3.69032 4.08424 3.89227
# Velocity P-wave (km/s) = 6.12534 7.08188 6.62090
#
# Compressibility (1/GPa) = 0.01996414
#
# Stress axis : x y z
#
# Youngs Moduli (GPa) = 199.08801 143.22106 56.53599
#
# Poissons Ratio (x) = 0.20868 0.11491
# Poissons Ratio (y) = 0.29008 0.07773
# Poissons Ratio (z) = 0.40464 0.19691
#
# Static dielectric constant tensor:
#      x y z
#    x 5.238200 -0.000010 0.000050 
#    y -0.000010 4.860880 0.000010 
#    z 0.000050 0.000010 4.308570 
# 
# 
# High freq. dielectric constant tensor:
#      x y z
#    x 2.066290 0.000000 0.000010 
#    y 0.000000 2.061610 0.000000 
#    z 0.000010 0.000000 2.025880 
# 
# From -- ./inp_files/278.got.cif
#   From: 2010.06.25/outbox.cif.g09.slc.cpg/sg43_1_cif.got.tgz:278.got - 2010.06.26 16:48:59.
