data_PCOD8187857
_publ_section_title
;
Structure prediction by ZEFSAII (Michael W. Deem and Ramdas Pophale) SiO2 
 PCOD8187857
Probable space group: F D D 2
;
_chemical_formula_sum "Si O2"
_cell_formula_units_Z 88
_cell_length_a 20.337728
_cell_length_b 16.984266
_cell_length_c 10.645679
_cell_angle_alpha 90.000000
_cell_angle_beta 90.000000
_cell_angle_gamma 90.000000
_cell_volume 3677.245155
_symmetry_space_group_name_H-M "F D D 2"
_symmetry_group_IT_number 43
_symmetry_cell_setting 'orthorhombic'
loop_
_space_group_symop_operation_xyz
x,y,z
-x,-y,z
1/4-x,1/4+y,1/4+z
1/4+x,1/4-y,1/4+z
x,1/2+y,1/2+z
-x,1/2-y,1/2+z
1/4-x,3/4+y,3/4+z
1/4+x,3/4-y,3/4+z
1/2+x,y,1/2+z
1/2-x,-y,1/2+z
3/4-x,1/4+y,3/4+z
3/4+x,1/4-y,3/4+z
1/2+x,1/2+y,z
1/2-x,1/2-y,z
3/4-x,3/4+y,1/4+z
3/4+x,3/4-y,1/4+z
loop_
_atom_site_type_symbol
_atom_site_label
_atom_site_fract_x
_atom_site_fract_y
_atom_site_fract_z
Si Si1 0.396126 0.764344 0.946490
Si Si2 0.076339 0.407166 0.914113
Si Si3 0.048553 0.616949 0.762626
Si Si4 0.615751 0.987900 0.170047
Si Si5 0.761897 0.094057 0.754034
Si Si6 0.500000 0.000000 0.359975
O O1 0.398199 0.825094 0.828954
O O2 0.467368 0.725090 0.948688
O O3 0.383781 0.810474 0.075016
O O4 0.337733 0.700716 0.935790
O O5 0.087707 0.313986 0.913095
O O6 0.001579 0.420123 0.864253
O O7 0.081483 0.455488 0.043721
O O8 0.005269 0.659443 0.655565
O O9 0.662200 0.917582 0.216871
O O10 0.562407 0.011199 0.272066
O O11 0.737314 0.175866 0.698348
#
# Coordination Sequence:
#
# PCOD8187857 Si02
#       6
#    16  16  16  16  16   8
#     4  12  28  47  79 115 157 208 272 331 405 482
#     4  12  27  50  77 120 156 214 262 337 405 491
#     4  12  28  49  80 113 165 210 271 334 404 485
#     4  12  27  50  82 112 163 209 269 336 421 482
#     4  12  28  51  78 115 161 207 272 341 413 489
#     4  12  30  50  78 118 154 214 274 338 418 492
#
# _framework density 23.930959000000001
#
# number of rings (size 3 to 8) (size 9 to 14) (size 15 to 20)
#    0.000    0.000    3.636    4.909   12.727    1.455 
#    0.000    0.000    0.000    0.000    0.000    0.000 
#    0.000    0.000    0.000    0.000    0.000    0.000 
#
# Total GULP energy -272856.557051 kJ/mol
# GULP energy per Si atom -12402.570775 kJ/mol
# Density = 2.387649 g / cm^3
# Si number density = 23.930959 Si / 1000 Ang^3
#
#
#
# Elastic Constant Matrix: (Units=GPa)
#
#
# Indices 1 2 3 4 5 6 
#
# 1 112.7813 24.6002 27.7825 0.0000 0.0000 0.0000
# 2 24.6002 114.0057 40.1442 0.0000 0.0000 0.0000
# 3 27.7825 40.1442 125.2484 0.0000 0.0000 0.0000
# 4 0.0000 0.0000 0.0000 36.5726 0.0000 0.0000
# 5 0.0000 0.0000 0.0000 0.0000 41.5451 0.0000
# 6 0.0000 0.0000 0.0000 0.0000 0.0000 34.7188
#
#
#
# Elastic Compliance Matrix: (Units=1/GPa)
#
#
# Indices 1 2 3 4 5 6 
#
# 1 0.009599 -0.001490 -0.001652 0.000000 0.000000 0.000000
# 2 -0.001490 0.010119 -0.002913 0.000000 0.000000 0.000000
# 3 -0.001652 -0.002913 0.009284 0.000000 0.000000 0.000000
# 4 0.000000 0.000000 0.000000 0.027343 0.000000 0.000000
# 5 0.000000 0.000000 0.000000 0.000000 0.024070 0.000000
# 6 0.000000 0.000000 0.000000 0.000000 0.000000 0.028803
#
#
# Mechanical properties :
#
#
# Convention : Reuss Voigt Hill
#
# Bulk Modulus (GPa) = 59.19567 59.67657 59.43612
# Shear Modulus (GPa) = 39.38365 39.86785 39.62575
#
# Velocity S-wave (km/s) = 4.06115 4.08604 4.07361
# Velocity P-wave (km/s) = 6.83961 6.87401 6.85683
#
# Compressibility (1/GPa) = 0.01689313
#
# Stress axis : x y z
#
# Youngs Moduli (GPa) = 104.18285 98.82825 107.71103
#
# Poissons Ratio (x) = 0.14721 0.17791
# Poissons Ratio (y) = 0.15519 0.31374
# Poissons Ratio (z) = 0.17208 0.28786
#
# Static dielectric constant tensor:
#      x y z
#    x 4.183660 0.000000 0.000000 
#    y 0.000000 4.493470 0.000000 
#    z 0.000000 0.000000 4.246610 
# 
# 
# High freq. dielectric constant tensor:
#      x y z
#    x 1.961290 0.000000 0.000000 
#    y 0.000000 1.962590 0.000000 
#    z 0.000000 0.000000 1.951390 
# 
# From -- ./inp_files/7037.got.cif
#   From: 2010.06.25/outbox.cif.g09.slc.cpg/sg43_4_cif.got.tgz:7037.got - 2010.06.26 16:48:59.
