data_PCOD8187965
_publ_section_title
;
Structure prediction by ZEFSAII (Michael W. Deem and Ramdas Pophale) SiO2 
 PCOD8187965
Probable space group: I M M 2
;
_chemical_formula_sum "Si O2"
_cell_formula_units_Z 48
_cell_length_a 18.494985
_cell_length_b 8.640758
_cell_length_c 15.001088
_cell_angle_alpha 90.000000
_cell_angle_beta 90.000000
_cell_angle_gamma 90.000000
_cell_volume 2397.334218
_symmetry_space_group_name_H-M "I M M 2"
_symmetry_group_IT_number 44
_symmetry_cell_setting 'orthorhombic'
loop_
_space_group_symop_operation_xyz
x,y,z
-x,-y,z
-x,y,z
x,-y,z
1/2+x,1/2+y,1/2+z
1/2-x,1/2-y,1/2+z
1/2-x,1/2+y,1/2+z
1/2+x,1/2-y,1/2+z
loop_
_atom_site_type_symbol
_atom_site_label
_atom_site_fract_x
_atom_site_fract_y
_atom_site_fract_z
Si Si1 0.120684 0.823478 0.344090
Si Si2 0.735435 0.679439 0.381627
Si Si3 0.000000 0.816127 0.473236
Si Si4 0.650686 0.817757 0.227012
Si Si5 0.422599 0.676665 0.647930
Si Si6 0.500000 0.683547 0.172445
Si Si7 0.729560 0.315813 0.585339
O O1 0.188685 0.711378 0.334273
O O2 0.075063 0.814861 0.254355
O O3 0.071884 0.756687 0.424093
O O4 0.146873 0.000000 0.361640
O O5 0.714851 0.500000 0.377380
O O6 0.675826 0.774385 0.326671
O O7 0.742788 0.736982 0.483863
O O8 0.000000 0.749829 0.572252
O O9 0.000000 0.000000 0.468063
O O10 0.572044 0.743113 0.219158
O O11 0.706944 0.752828 0.151303
O O12 0.643418 0.000000 0.217553
O O13 0.500000 0.750989 0.614926
O O14 0.421497 0.500000 0.615168
O O15 0.349222 0.756454 0.611273
O O16 0.500000 0.500000 0.173474
O O17 0.727685 0.500000 0.596458
#
# Coordination Sequence:
#
# PCOD8187965 Si02
#       7
#     8   8   4   8   8   4   8
#     4  10  17  31  56  83 111 147 190 231 283 353
#     4  11  22  36  55  84 117 149 191 245 298 340
#     4   9  18  31  55  90 119 146 188 244 296 346
#     4  11  22  41  64  83 113 158 203 239 284 353
#     4   9  15  28  54  83 109 141 184 229 273 333
#     4  11  23  39  57  86 123 150 188 246 302 342
#     4   9  19  35  56  84 114 149 194 239 285 349
#
# _framework density 20.022241000000001
#
# number of rings (size 3 to 8) (size 9 to 14) (size 15 to 20)
#    0.000    2.000    2.500    2.250    0.000    0.000 
#    1.500    3.750    0.000    0.000    0.000    0.000 
#    0.000    0.000    0.000    0.000    0.000    0.000 
#
# Total GULP energy -297462.377429 kJ/mol
# GULP energy per Si atom -12394.265726 kJ/mol
# Density = 1.997667 g / cm^3
# Si number density = 20.022241 Si / 1000 Ang^3
#
#
#
# Elastic Constant Matrix: (Units=GPa)
#
#
# Indices 1 2 3 4 5 6 
#
# 1 168.1035 22.1989 40.2526 0.0000 0.0000 0.0000
# 2 22.1989 35.8443 18.7553 0.0000 0.0000 0.0000
# 3 40.2526 18.7553 83.8854 0.0000 0.0000 0.0000
# 4 0.0000 0.0000 0.0000 20.7699 0.0000 0.0000
# 5 0.0000 0.0000 0.0000 0.0000 29.0269 0.0000
# 6 0.0000 0.0000 0.0000 0.0000 0.0000 19.2991
#
#
#
# Elastic Compliance Matrix: (Units=1/GPa)
#
#
# Indices 1 2 3 4 5 6 
#
# 1 0.006979 -0.002910 -0.002698 0.000000 0.000000 0.000000
# 2 -0.002910 0.032808 -0.005939 0.000000 0.000000 0.000000
# 3 -0.002698 -0.005939 0.014544 0.000000 0.000000 0.000000
# 4 0.000000 0.000000 0.000000 0.048147 0.000000 0.000000
# 5 0.000000 0.000000 0.000000 0.000000 0.034451 0.000000
# 6 0.000000 0.000000 0.000000 0.000000 0.000000 0.051816
#
#
# Mechanical properties :
#
#
# Convention : Reuss Voigt Hill
#
# Bulk Modulus (GPa) = 32.01419 50.02742 41.02080
# Shear Modulus (GPa) = 22.49705 27.59428 25.04566
#
# Velocity S-wave (km/s) = 3.35566 3.71641 3.54063
# Velocity P-wave (km/s) = 5.57117 6.59210 6.10302
#
# Compressibility (1/GPa) = 0.03123615
#
# Stress axis : x y z
#
# Youngs Moduli (GPa) = 143.28391 30.48005 68.75888
#
# Poissons Ratio (x) = 0.08871 0.18553
# Poissons Ratio (y) = 0.41702 0.40834
# Poissons Ratio (z) = 0.38661 0.18101
#
# Static dielectric constant tensor:
#      x y z
#    x 3.846830 0.000000 0.000000 
#    y 0.000000 3.174120 0.000000 
#    z 0.000000 0.000000 3.689710 
# 
# 
# High freq. dielectric constant tensor:
#      x y z
#    x 1.798000 0.000000 0.000000 
#    y 0.000000 1.732500 0.000000 
#    z 0.000000 0.000000 1.776820 
# 
# From -- ./inp_files/16154.got.cif
#   From: 2010.03.12/outbox.cif.g09.slc.cpg/sg44_9_cif.got.tgz:16154.got - 2010.04.14 02:36:11.
