data_PCOD8187130
_publ_section_title
;
Structure prediction by ZEFSAII (Michael W. Deem and Ramdas Pophale) SiO2 
 PCOD8187130
Probable space group: F D D 2
;
_chemical_formula_sum "Si O2"
_cell_formula_units_Z 104
_cell_length_a 17.354991
_cell_length_b 26.395139
_cell_length_c 10.829747
_cell_angle_alpha 90.000000
_cell_angle_beta 90.000000
_cell_angle_gamma 90.000000
_cell_volume 4960.970644
_symmetry_space_group_name_H-M "F D D 2"
_symmetry_group_IT_number 43
_symmetry_cell_setting 'orthorhombic'
loop_
_space_group_symop_operation_xyz
x,y,z
-x,-y,z
1/4-x,1/4+y,1/4+z
1/4+x,1/4-y,1/4+z
x,1/2+y,1/2+z
-x,1/2-y,1/2+z
1/4-x,3/4+y,3/4+z
1/4+x,3/4-y,3/4+z
1/2+x,y,1/2+z
1/2-x,-y,1/2+z
3/4-x,1/4+y,3/4+z
3/4+x,1/4-y,3/4+z
1/2+x,1/2+y,z
1/2-x,1/2-y,z
3/4-x,3/4+y,1/4+z
3/4+x,3/4-y,1/4+z
loop_
_atom_site_type_symbol
_atom_site_label
_atom_site_fract_x
_atom_site_fract_y
_atom_site_fract_z
Si Si1 0.786909 0.805313 0.760220
Si Si2 0.057801 0.453633 0.289909
Si Si3 0.809043 0.604782 0.635101
Si Si4 0.279775 0.555291 0.879101
Si Si5 0.899728 0.274080 0.073915
Si Si6 0.250000 0.250000 0.421515
Si Si7 0.223178 0.650081 0.776685
O O1 0.750000 0.750000 0.753346
O O2 0.735073 0.844949 0.681762
O O3 0.870451 0.802687 0.696504
O O4 0.802248 0.819928 0.902568
O O5 0.141509 0.473536 0.339253
O O6 0.036750 0.407724 0.381003
O O7 0.000000 0.500000 0.304133
O O8 0.771640 0.576366 0.518252
O O9 0.804168 0.564797 0.744900
O O10 0.896211 0.618264 0.598183
O O11 0.207117 0.520181 0.859010
O O12 0.281989 0.604045 0.789576
O O13 0.826501 0.250663 0.003309
O O14 0.256773 0.200841 0.336537
#
# Coordination Sequence:
#
# PCOD8187130 Si02
#       7
#    16  16  16  16  16   8  16
#     4  11  23  43  69  96 134 178 221 276 340 395
#     4  10  24  46  64  97 137 174 215 281 342 396
#     4  10  23  44  66 101 133 176 228 276 331 400
#     4  11  25  42  69 101 132 177 228 276 329 406
#     4  11  24  41  69  97 135 175 223 277 331 401
#     4  10  20  40  68 100 128 176 220 270 340 390
#     4  10  21  41  70  95 133 172 224 272 334 403
#
# _framework density 20.963639000000001
#
# number of rings (size 3 to 8) (size 9 to 14) (size 15 to 20)
#    0.000    1.538    1.538    2.769    6.462    1.231 
#    5.538    0.000    0.000    0.000    0.000    0.000 
#    0.000    0.000    0.000    0.000    0.000    0.000 
#
# Total GULP energy -322300.783029 kJ/mol
# GULP energy per Si atom -12396.183963 kJ/mol
# Density = 2.091592 g / cm^3
# Si number density = 20.963639 Si / 1000 Ang^3
#
#
#
# Elastic Constant Matrix: (Units=GPa)
#
#
# Indices 1 2 3 4 5 6 
#
# 1 103.6880 66.7598 52.7657 0.0000 0.0000 0.0000
# 2 66.7598 120.8774 61.9672 0.0000 0.0000 0.0000
# 3 52.7657 61.9672 161.0302 0.0000 0.0000 0.0000
# 4 0.0000 0.0000 0.0000 30.1964 0.0000 0.0000
# 5 0.0000 0.0000 0.0000 0.0000 27.0197 0.0000
# 6 0.0000 0.0000 0.0000 0.0000 0.0000 41.7760
#
#
#
# Elastic Compliance Matrix: (Units=1/GPa)
#
#
# Indices 1 2 3 4 5 6 
#
# 1 0.015587 -0.007462 -0.002236 0.000000 0.000000 0.000000
# 2 -0.007462 0.013879 -0.002896 0.000000 0.000000 0.000000
# 3 -0.002236 -0.002896 0.008057 0.000000 0.000000 0.000000
# 4 0.000000 0.000000 0.000000 0.033116 0.000000 0.000000
# 5 0.000000 0.000000 0.000000 0.000000 0.037010 0.000000
# 6 0.000000 0.000000 0.000000 0.000000 0.000000 0.023937
#
#
# Mechanical properties :
#
#
# Convention : Reuss Voigt Hill
#
# Bulk Modulus (GPa) = 81.06995 83.17567 82.12281
# Shear Modulus (GPa) = 31.07820 33.40531 32.24175
#
# Velocity S-wave (km/s) = 3.85448 3.99618 3.92597
# Velocity P-wave (km/s) = 7.65278 7.81377 7.73369
#
# Compressibility (1/GPa) = 0.01233503
#
# Stress axis : x y z
#
# Youngs Moduli (GPa) = 64.15745 72.05358 124.11777
#
# Poissons Ratio (x) = 0.53768 0.27750
# Poissons Ratio (y) = 0.47876 0.35938
# Poissons Ratio (z) = 0.14344 0.20863
#
# Static dielectric constant tensor:
#      x y z
#    x 3.808750 0.000000 0.000000 
#    y 0.000000 3.744350 0.000000 
#    z 0.000000 0.000000 4.181800 
# 
# 
# High freq. dielectric constant tensor:
#      x y z
#    x 1.818480 0.000000 0.000000 
#    y 0.000000 1.816760 0.000000 
#    z 0.000000 0.000000 1.838600 
# 
# From -- ./inp_files/6779.got.cif
#   From: 2010.06.25/outbox.cif.g09.slc.cpg/sg43_4_cif.got.tgz:6779.got - 2010.06.26 16:48:59.
