data_PCOD8187478
_publ_section_title
;
Structure prediction by ZEFSAII (Michael W. Deem and Ramdas Pophale) SiO2 
 PCOD8187478
Probable space group: F D D 2
;
_chemical_formula_sum "Si O2"
_cell_formula_units_Z 112
_cell_length_a 31.664221
_cell_length_b 11.227121
_cell_length_c 15.285982
_cell_angle_alpha 90.000000
_cell_angle_beta 90.000000
_cell_angle_gamma 90.000000
_cell_volume 5434.136649
_symmetry_space_group_name_H-M "F D D 2"
_symmetry_group_IT_number 43
_symmetry_cell_setting 'orthorhombic'
loop_
_space_group_symop_operation_xyz
x,y,z
-x,-y,z
1/4-x,1/4+y,1/4+z
1/4+x,1/4-y,1/4+z
x,1/2+y,1/2+z
-x,1/2-y,1/2+z
1/4-x,3/4+y,3/4+z
1/4+x,3/4-y,3/4+z
1/2+x,y,1/2+z
1/2-x,-y,1/2+z
3/4-x,1/4+y,3/4+z
3/4+x,1/4-y,3/4+z
1/2+x,1/2+y,z
1/2-x,1/2-y,z
3/4-x,3/4+y,1/4+z
3/4+x,3/4-y,1/4+z
loop_
_atom_site_type_symbol
_atom_site_label
_atom_site_fract_x
_atom_site_fract_y
_atom_site_fract_z
Si Si1 0.421688 0.766478 0.570840
Si Si2 0.673022 0.373169 0.375818
Si Si3 0.158259 0.151750 0.977158
Si Si4 0.545914 0.044423 0.692191
Si Si5 0.559464 0.212478 0.849291
Si Si6 0.253064 0.609962 0.252457
Si Si7 0.116435 0.353053 0.708979
O O1 0.401826 0.699319 0.654117
O O2 0.386947 0.792528 0.498475
O O3 0.438572 0.893407 0.603442
O O4 0.456836 0.687507 0.522896
O O5 0.684923 0.261330 0.437496
O O6 0.717616 0.415323 0.336510
O O7 0.641441 0.332680 0.298775
O O8 0.651465 0.476404 0.430908
O O9 0.180768 0.095935 0.063363
O O10 0.541204 0.136646 0.770435
O O11 0.500000 0.000000 0.668192
O O12 0.577222 0.940501 0.722383
O O13 0.602732 0.156007 0.885288
O O14 0.523060 0.214868 0.922452
O O15 0.250000 0.750000 0.228471
#
# Coordination Sequence:
#
# PCOD8187478 Si02
#       7
#    16  16  16  16  16  16  16
#     4  11  24  44  67  96 138 171 221 272 339 391
#     4  11  23  38  67  94 133 173 226 265 335 390
#     4  11  23  43  66  97 131 181 212 276 326 405
#     4  11  22  40  66  99 128 169 220 278 327 395
#     4  10  23  41  68  94 133 172 223 269 332 390
#     4  11  23  43  65  98 134 175 220 284 332 394
#     4  11  21  40  63  99 128 177 218 270 324 406
#
# _framework density 20.610448999999999
#
# number of rings (size 3 to 8) (size 9 to 14) (size 15 to 20)
#    0.000    1.143    4.286    2.143    2.000    1.143 
#    2.571    4.286    0.000    0.000    0.000    0.000 
#    0.000    0.000    0.000    0.000    0.000    0.000 
#
# Total GULP energy -347309.448070 kJ/mol
# GULP energy per Si atom -12403.908860 kJ/mol
# Density = 2.056354 g / cm^3
# Si number density = 20.610449 Si / 1000 Ang^3
#
#
#
# Elastic Constant Matrix: (Units=GPa)
#
#
# Indices 1 2 3 4 5 6 
#
# 1 94.4962 29.8551 38.7435 0.0000 0.0000 0.0000
# 2 29.8551 108.2815 50.9743 0.0000 0.0000 0.0000
# 3 38.7435 50.9743 74.7384 0.0000 0.0000 0.0000
# 4 0.0000 0.0000 0.0000 33.3425 0.0000 0.0000
# 5 0.0000 0.0000 0.0000 0.0000 21.4612 0.0000
# 6 0.0000 0.0000 0.0000 0.0000 0.0000 37.7966
#
#
#
# Elastic Compliance Matrix: (Units=1/GPa)
#
#
# Indices 1 2 3 4 5 6 
#
# 1 0.013468 -0.000628 -0.006553 0.000000 0.000000 0.000000
# 2 -0.000628 0.013632 -0.008972 0.000000 0.000000 0.000000
# 3 -0.006553 -0.008972 0.022896 0.000000 0.000000 0.000000
# 4 0.000000 0.000000 0.000000 0.029992 0.000000 0.000000
# 5 0.000000 0.000000 0.000000 0.000000 0.046596 0.000000
# 6 0.000000 0.000000 0.000000 0.000000 0.000000 0.026457
#
#
# Mechanical properties :
#
#
# Convention : Reuss Voigt Hill
#
# Bulk Modulus (GPa) = 56.53057 57.40689 56.96873
# Shear Modulus (GPa) = 26.14476 29.04961 27.59719
#
# Velocity S-wave (km/s) = 3.56549 3.75835 3.66319
# Velocity P-wave (km/s) = 6.66618 6.83720 6.75223
#
# Compressibility (1/GPa) = 0.01768954
#
# Stress axis : x y z
#
# Youngs Moduli (GPa) = 74.25186 73.35701 43.67590
#
# Poissons Ratio (x) = 0.04610 0.28620
# Poissons Ratio (y) = 0.04667 0.39185
# Poissons Ratio (z) = 0.48656 0.65814
#
# Static dielectric constant tensor:
#      x y z
#    x 3.719260 0.000000 0.000000 
#    y 0.000000 3.853380 0.000000 
#    z 0.000000 0.000000 3.773880 
# 
# 
# High freq. dielectric constant tensor:
#      x y z
#    x 1.806440 0.000000 0.000000 
#    y 0.000000 1.810610 0.000000 
#    z 0.000000 0.000000 1.808730 
# 
# From -- ./inp_files/9769.got.cif
#   From: 2010.06.25/outbox.cif.g09.slc.cpg/sg43_5_cif.got.tgz:9769.got - 2010.06.26 16:48:59.
