data_PCOD8187357
_publ_section_title
;
Structure prediction by ZEFSAII (Michael W. Deem and Ramdas Pophale) SiO2 
 PCOD8187357
Probable space group: F D D 2
;
_chemical_formula_sum "Si O2"
_cell_formula_units_Z 128
_cell_length_a 13.041945
_cell_length_b 23.066762
_cell_length_c 21.185299
_cell_angle_alpha 90.000000
_cell_angle_beta 90.000000
_cell_angle_gamma 90.000000
_cell_volume 6373.288774
_symmetry_space_group_name_H-M "F D D 2"
_symmetry_group_IT_number 43
_symmetry_cell_setting 'orthorhombic'
loop_
_space_group_symop_operation_xyz
x,y,z
-x,-y,z
1/4-x,1/4+y,1/4+z
1/4+x,1/4-y,1/4+z
x,1/2+y,1/2+z
-x,1/2-y,1/2+z
1/4-x,3/4+y,3/4+z
1/4+x,3/4-y,3/4+z
1/2+x,y,1/2+z
1/2-x,-y,1/2+z
3/4-x,1/4+y,3/4+z
3/4+x,1/4-y,3/4+z
1/2+x,1/2+y,z
1/2-x,1/2-y,z
3/4-x,3/4+y,1/4+z
3/4+x,3/4-y,1/4+z
loop_
_atom_site_type_symbol
_atom_site_label
_atom_site_fract_x
_atom_site_fract_y
_atom_site_fract_z
Si Si1 0.860957 0.130732 0.720440
Si Si2 0.709257 0.314349 0.090124
Si Si3 0.316852 0.603257 0.524198
Si Si4 0.771025 0.912654 0.686001
Si Si5 0.024521 0.438190 0.375168
Si Si6 0.206685 0.686688 0.958150
Si Si7 0.884610 0.521329 0.129495
Si Si8 0.014180 0.650981 0.602810
O O1 0.788694 0.178703 0.688967
O O2 0.867727 0.070983 0.681414
O O3 0.806988 0.118855 0.786172
O O4 0.974879 0.159633 0.724700
O O5 0.750000 0.250000 0.103008
O O6 0.754963 0.357317 0.141709
O O7 0.586237 0.309775 0.093828
O O8 0.742940 0.338984 0.021804
O O9 0.406480 0.641005 0.492588
O O10 0.259506 0.640958 0.575733
O O11 0.358565 0.545372 0.558947
O O12 0.665856 0.935076 0.717104
O O13 0.815250 0.965950 0.645691
O O14 0.000000 0.500000 0.345259
O O15 0.146348 0.436034 0.388675
O O16 0.250000 0.750000 0.947839
O O17 0.237481 0.653887 0.895172
O O18 0.000000 0.500000 0.129718
#
# Coordination Sequence:
#
# PCOD8187357 Si02
#       8
#    16  16  16  16  16  16  16  16
#     4  10  22  40  64  94 132 164 218 267 338 397
#     4  10  24  44  64  92 129 172 220 276 327 399
#     4  10  24  41  65  95 130 171 222 271 332 407
#     4  11  25  42  67  97 127 178 225 270 344 401
#     4  10  23  38  61  94 124 164 205 271 331 393
#     4  10  24  41  66  90 125 172 217 267 325 396
#     4  11  24  43  67  98 134 175 220 283 334 407
#     4  10  22  41  62  92 125 165 213 264 324 395
#
# _framework density 20.083822000000001
#
# number of rings (size 3 to 8) (size 9 to 14) (size 15 to 20)
#    0.000    1.750    1.250    0.750   14.000    2.000 
#    6.750    0.000    0.000    0.000    0.000    0.000 
#    0.000    0.000    0.000    0.000    0.000    0.000 
#
# Total GULP energy -396719.381139 kJ/mol
# GULP energy per Si atom -12397.480661 kJ/mol
# Density = 2.003811 g / cm^3
# Si number density = 20.083822 Si / 1000 Ang^3
#
#
#
# Elastic Constant Matrix: (Units=GPa)
#
#
# Indices 1 2 3 4 5 6 
#
# 1 185.6801 49.4631 53.0777 0.0000 0.0000 0.0000
# 2 49.4631 74.7804 31.0160 0.0000 0.0000 0.0000
# 3 53.0777 31.0160 76.1472 0.0000 0.0000 0.0000
# 4 0.0000 0.0000 0.0000 26.9534 0.0000 0.0000
# 5 0.0000 0.0000 0.0000 0.0000 23.1995 0.0000
# 6 0.0000 0.0000 0.0000 0.0000 0.0000 27.3464
#
#
#
# Elastic Compliance Matrix: (Units=1/GPa)
#
#
# Indices 1 2 3 4 5 6 
#
# 1 0.007342 -0.003289 -0.003778 0.000000 0.000000 0.000000
# 2 -0.003289 0.017565 -0.004862 0.000000 0.000000 0.000000
# 3 -0.003778 -0.004862 0.017746 0.000000 0.000000 0.000000
# 4 0.000000 0.000000 0.000000 0.037101 0.000000 0.000000
# 5 0.000000 0.000000 0.000000 0.000000 0.043104 0.000000
# 6 0.000000 0.000000 0.000000 0.000000 0.000000 0.036568
#
#
# Mechanical properties :
#
#
# Convention : Reuss Voigt Hill
#
# Bulk Modulus (GPa) = 53.20554 67.08015 60.14285
# Shear Modulus (GPa) = 26.37859 29.03657 27.70758
#
# Velocity S-wave (km/s) = 3.62805 3.80645 3.71832
# Velocity P-wave (km/s) = 6.64075 7.26577 6.96028
#
# Compressibility (1/GPa) = 0.01879503
#
# Stress axis : x y z
#
# Youngs Moduli (GPa) = 136.20794 56.93281 56.35113
#
# Poissons Ratio (x) = 0.18727 0.21288
# Poissons Ratio (y) = 0.44803 0.27395
# Poissons Ratio (z) = 0.51455 0.27678
#
# Static dielectric constant tensor:
#      x y z
#    x 4.496450 0.000000 0.000000 
#    y 0.000000 3.666070 0.000000 
#    z 0.000000 0.000000 3.910880 
# 
# 
# High freq. dielectric constant tensor:
#      x y z
#    x 1.810170 0.000000 0.000000 
#    y 0.000000 1.775530 0.000000 
#    z 0.000000 0.000000 1.787430 
# 
# From -- ./inp_files/21331.got.cif
#   From: 2010.06.25/outbox.cif.g09.slc.cpg/sg43_11_cif.got.tgz:21331.got - 2010.06.26 16:48:59.
