data_PCOD8187789
_publ_section_title
;
Structure prediction by ZEFSAII (Michael W. Deem and Ramdas Pophale) SiO2 
 PCOD8187789
Probable space group: F D D 2
;
_chemical_formula_sum "Si O2"
_cell_formula_units_Z 80
_cell_length_a 15.033209
_cell_length_b 27.491087
_cell_length_c 7.488673
_cell_angle_alpha 90.000000
_cell_angle_beta 90.000000
_cell_angle_gamma 90.000000
_cell_volume 3094.913210
_symmetry_space_group_name_H-M "F D D 2"
_symmetry_group_IT_number 43
_symmetry_cell_setting 'orthorhombic'
loop_
_space_group_symop_operation_xyz
x,y,z
-x,-y,z
1/4-x,1/4+y,1/4+z
1/4+x,1/4-y,1/4+z
x,1/2+y,1/2+z
-x,1/2-y,1/2+z
1/4-x,3/4+y,3/4+z
1/4+x,3/4-y,3/4+z
1/2+x,y,1/2+z
1/2-x,-y,1/2+z
3/4-x,1/4+y,3/4+z
3/4+x,1/4-y,3/4+z
1/2+x,1/2+y,z
1/2-x,1/2-y,z
3/4-x,3/4+y,1/4+z
3/4+x,3/4-y,1/4+z
loop_
_atom_site_type_symbol
_atom_site_label
_atom_site_fract_x
_atom_site_fract_y
_atom_site_fract_z
Si Si1 0.965063 0.921817 0.244790
Si Si2 0.443928 0.915519 0.145931
Si Si3 0.677880 0.001832 0.263386
Si Si4 0.110450 0.649729 0.445922
Si Si5 0.867044 0.519048 0.667690
O O1 0.953790 0.898794 0.441256
O O2 0.817781 0.814522 0.454317
O O3 0.906348 0.970007 0.248424
O O4 0.931526 0.882444 0.103028
O O5 0.539213 0.915627 0.245683
O O6 0.383927 0.878181 0.257966
O O7 0.398277 0.968463 0.159398
O O8 0.694436 0.949673 0.167083
O O9 0.644590 0.989634 0.459279
O O10 0.771830 0.030380 0.259918
#
# Coordination Sequence:
#
# PCOD8187789 Si02
#       5
#    16  16  16  16  16
#     4  11  27  54  79 121 164 224 279 345 413 513
#     4  12  29  50  85 121 167 218 283 346 421 499
#     4  12  27  50  83 126 168 220 274 353 421 504
#     4  12  28  51  82 120 168 221 280 343 418 505
#     4  11  26  49  84 116 171 217 281 341 427 493
#
# _framework density 25.848866000000001
#
# number of rings (size 3 to 8) (size 9 to 14) (size 15 to 20)
#    0.000    0.400    2.000    4.200   11.200    6.400 
#    0.000    0.000    0.000    0.000    0.000    0.000 
#    0.000    0.000    0.000    0.000    0.000    0.000 
#
# Total GULP energy -248076.771533 kJ/mol
# GULP energy per Si atom -12403.838577 kJ/mol
# Density = 2.579003 g / cm^3
# Si number density = 25.848866 Si / 1000 Ang^3
#
#
#
# Elastic Constant Matrix: (Units=GPa)
#
#
# Indices 1 2 3 4 5 6 
#
# 1 185.0128 75.8192 58.8243 0.0000 -0.0006 0.0000
# 2 75.8192 122.0550 67.0664 0.0000 0.0001 0.0000
# 3 58.8243 67.0664 184.9110 -0.0001 -0.0015 0.0000
# 4 0.0000 0.0000 -0.0001 30.6861 0.0000 0.0000
# 5 -0.0006 0.0001 -0.0015 0.0000 35.9453 0.0000
# 6 0.0000 0.0000 0.0000 0.0000 0.0000 42.4515
#
#
#
# Elastic Compliance Matrix: (Units=1/GPa)
#
#
# Indices 1 2 3 4 5 6 
#
# 1 0.007357 -0.004101 -0.000853 0.000000 0.000000 0.000000
# 2 -0.004101 0.012519 -0.003236 0.000000 0.000000 0.000000
# 3 -0.000853 -0.003236 0.006853 0.000000 0.000000 0.000000
# 4 0.000000 0.000000 0.000000 0.032588 0.000000 0.000000
# 5 0.000000 0.000000 0.000000 0.000000 0.027820 0.000000
# 6 0.000000 0.000000 0.000000 0.000000 0.000000 0.023556
#
#
# Mechanical properties :
#
#
# Convention : Reuss Voigt Hill
#
# Bulk Modulus (GPa) = 96.63157 99.48872 98.06014
# Shear Modulus (GPa) = 38.30754 41.16785 39.73770
#
# Velocity S-wave (km/s) = 3.85383 3.99511 3.92511
# Velocity P-wave (km/s) = 7.56750 7.73650 7.65247
#
# Compressibility (1/GPa) = 0.01034859
#
# Stress axis : x y z
#
# Youngs Moduli (GPa) = 135.92521 79.88004 145.92351
#
# Poissons Ratio (x) = 0.32762 0.12445
# Poissons Ratio (y) = 0.55749 0.47217
# Poissons Ratio (z) = 0.11592 0.25847
#
# Static dielectric constant tensor:
#      x y z
#    x 4.888920 0.000000 0.000000 
#    y 0.000000 4.757390 0.000000 
#    z 0.000000 0.000000 4.596260 
# 
# 
# High freq. dielectric constant tensor:
#      x y z
#    x 2.048090 0.000000 0.000000 
#    y 0.000000 2.035510 0.000000 
#    z 0.000000 0.000000 2.042430 
# 
# From -- ./inp_files/2792.got.cif
#   From: 2010.06.25/outbox.cif.g09.slc.cpg/sg43_2_cif.got.tgz:2792.got - 2010.06.26 16:48:59.
