data_PCOD8187111
_publ_section_title
;
Structure prediction by ZEFSAII (Michael W. Deem and Ramdas Pophale) SiO2 
 PCOD8187111
Probable space group: F D D 2
;
_chemical_formula_sum "Si O2"
_cell_formula_units_Z 104
_cell_length_a 8.201577
_cell_length_b 25.190101
_cell_length_c 22.081229
_cell_angle_alpha 90.000000
_cell_angle_beta 90.000000
_cell_angle_gamma 90.000000
_cell_volume 4561.949960
_symmetry_space_group_name_H-M "F D D 2"
_symmetry_group_IT_number 43
_symmetry_cell_setting 'orthorhombic'
loop_
_space_group_symop_operation_xyz
x,y,z
-x,-y,z
1/4-x,1/4+y,1/4+z
1/4+x,1/4-y,1/4+z
x,1/2+y,1/2+z
-x,1/2-y,1/2+z
1/4-x,3/4+y,3/4+z
1/4+x,3/4-y,3/4+z
1/2+x,y,1/2+z
1/2-x,-y,1/2+z
3/4-x,1/4+y,3/4+z
3/4+x,1/4-y,3/4+z
1/2+x,1/2+y,z
1/2-x,1/2-y,z
3/4-x,3/4+y,1/4+z
3/4+x,3/4-y,1/4+z
loop_
_atom_site_type_symbol
_atom_site_label
_atom_site_fract_x
_atom_site_fract_y
_atom_site_fract_z
Si Si1 0.279507 0.191851 0.104970
Si Si2 0.379083 0.935280 0.221352
Si Si3 0.231716 0.423671 0.954901
Si Si4 0.060031 0.058788 0.072036
Si Si5 0.499518 0.290126 0.942388
Si Si6 0.674824 0.585798 0.317730
Si Si7 0.250000 0.250000 0.647071
O O1 0.250000 0.250000 0.132623
O O2 0.381692 0.159127 0.154607
O O3 0.108653 0.164744 0.092756
O O4 0.382757 0.197534 0.043102
O O5 0.344543 0.873391 0.206613
O O6 0.560358 0.945060 0.195898
O O7 0.246128 0.974960 0.191512
O O8 0.147139 0.479735 0.939111
O O9 0.312902 0.424766 0.020222
O O10 0.159463 0.062081 0.134304
O O11 0.903135 0.099704 0.070649
O O12 0.000000 0.000000 0.058343
O O13 0.594068 0.313719 0.000125
O O14 0.552261 0.551309 0.358070
#
# Coordination Sequence:
#
# PCOD8187111 Si02
#       7
#    16  16  16  16  16  16   8
#     4  11  18  43  72  89 124 186 233 256 327 435
#     4  10  20  39  72  97 121 178 231 277 329 403
#     4  12  25  42  67 101 140 177 223 279 350 408
#     4  12  28  42  67 101 140 184 222 285 361 413
#     4  10  21  44  69  97 129 173 234 276 335 412
#     4  11  24  46  70  98 131 182 233 283 337 415
#     4  12  28  42  68 106 138 172 232 296 340 398
#
# _framework density 22.797270999999999
#
# number of rings (size 3 to 8) (size 9 to 14) (size 15 to 20)
#    0.000    0.923    7.692    1.385    3.231    1.231 
#    0.000    1.538    0.000    0.000    0.000    0.000 
#    0.000    0.000    0.000    0.000    0.000    0.000 
#
# Total GULP energy -322297.599939 kJ/mol
# GULP energy per Si atom -12396.061536 kJ/mol
# Density = 2.274538 g / cm^3
# Si number density = 22.797271 Si / 1000 Ang^3
#
#
#
# Elastic Constant Matrix: (Units=GPa)
#
#
# Indices 1 2 3 4 5 6 
#
# 1 36.9544 16.4459 35.8428 0.0000 0.0000 0.0000
# 2 16.4459 165.7895 49.6792 0.0000 0.0000 0.0000
# 3 35.8428 49.6792 125.6844 0.0000 0.0000 0.0000
# 4 0.0000 0.0000 0.0000 25.3654 0.0000 0.0000
# 5 0.0000 0.0000 0.0000 0.0000 17.4126 0.0000
# 6 0.0000 0.0000 0.0000 0.0000 0.0000 28.9727
#
#
#
# Elastic Compliance Matrix: (Units=1/GPa)
#
#
# Indices 1 2 3 4 5 6 
#
# 1 0.037457 -0.000584 -0.010451 0.000000 0.000000 0.000000
# 2 -0.000584 0.006851 -0.002542 0.000000 0.000000 0.000000
# 3 -0.010451 -0.002542 0.011942 0.000000 0.000000 0.000000
# 4 0.000000 0.000000 0.000000 0.039424 0.000000 0.000000
# 5 0.000000 0.000000 0.000000 0.000000 0.057430 0.000000
# 6 0.000000 0.000000 0.000000 0.000000 0.000000 0.034515
#
#
# Mechanical properties :
#
#
# Convention : Reuss Voigt Hill
#
# Bulk Modulus (GPa) = 34.36845 59.15157 46.76001
# Shear Modulus (GPa) = 22.27461 29.44750 25.86105
#
# Velocity S-wave (km/s) = 3.12921 3.59794 3.37173
# Velocity P-wave (km/s) = 5.30701 6.57749 5.97610
#
# Compressibility (1/GPa) = 0.02909645
#
# Stress axis : x y z
#
# Youngs Moduli (GPa) = 26.69720 145.95867 83.74130
#
# Poissons Ratio (x) = 0.08523 0.87520
# Poissons Ratio (y) = 0.01559 0.21283
# Poissons Ratio (z) = 0.27902 0.37096
#
# Static dielectric constant tensor:
#      x y z
#    x 3.658780 0.000000 0.000000 
#    y 0.000000 4.845510 0.000000 
#    z 0.000000 0.000000 4.007110 
# 
# 
# High freq. dielectric constant tensor:
#      x y z
#    x 1.860220 0.000000 0.000000 
#    y 0.000000 1.929500 0.000000 
#    z 0.000000 0.000000 1.897950 
# 
# From -- ./inp_files/16551.got.cif
#   From: 2010.06.25/outbox.cif.g09.slc.cpg/sg43_9_cif.got.tgz:16551.got - 2010.06.26 16:48:59.
