data_PCOD8187184
_publ_section_title
;
Structure prediction by ZEFSAII (Michael W. Deem and Ramdas Pophale) SiO2 
 PCOD8187184
Probable space group: F D D 2
;
_chemical_formula_sum "Si O2"
_cell_formula_units_Z 48
_cell_length_a 9.611209
_cell_length_b 11.789998
_cell_length_c 16.658550
_cell_angle_alpha 90.000000
_cell_angle_beta 90.000000
_cell_angle_gamma 90.000000
_cell_volume 1887.682499
_symmetry_space_group_name_H-M "F D D 2"
_symmetry_group_IT_number 43
_symmetry_cell_setting 'orthorhombic'
loop_
_space_group_symop_operation_xyz
x,y,z
-x,-y,z
1/4-x,1/4+y,1/4+z
1/4+x,1/4-y,1/4+z
x,1/2+y,1/2+z
-x,1/2-y,1/2+z
1/4-x,3/4+y,3/4+z
1/4+x,3/4-y,3/4+z
1/2+x,y,1/2+z
1/2-x,-y,1/2+z
3/4-x,1/4+y,3/4+z
3/4+x,1/4-y,3/4+z
1/2+x,1/2+y,z
1/2-x,1/2-y,z
3/4-x,3/4+y,1/4+z
3/4+x,3/4-y,1/4+z
loop_
_atom_site_type_symbol
_atom_site_label
_atom_site_fract_x
_atom_site_fract_y
_atom_site_fract_z
Si Si1 0.349363 0.853490 0.513320
Si Si2 0.933839 0.255776 0.899608
Si Si3 0.843789 0.955892 0.499385
O O1 0.250000 0.750000 0.537068
O O2 0.484804 0.816820 0.466056
O O3 0.402423 0.915103 0.595459
O O4 0.255623 0.944918 0.463088
O O5 0.043796 0.321116 0.841042
O O6 0.832026 0.343124 0.945270
O O7 0.000000 0.000000 0.502869
#
# Coordination Sequence:
#
# PCOD8187184 Si02
#       3
#    16  16  16
#     4  10  21  38  73  97 137 184 229 278 353 409
#     4  10  21  42  70 100 135 181 229 285 343 414
#     4  10  21  36  75  95 138 180 229 275 359 401
#
# _framework density 25.428004000000001
#
# number of rings (size 3 to 8) (size 9 to 14) (size 15 to 20)
#    2.000    0.000    3.333    1.000    0.000    0.000 
#    0.000    3.333   14.667    0.000    0.000    0.000 
#    0.000    0.000    0.000    0.000    0.000    0.000 
#
# Total GULP energy -148698.956024 kJ/mol
# GULP energy per Si atom -12391.579669 kJ/mol
# Density = 2.537013 g / cm^3
# Si number density = 25.428004 Si / 1000 Ang^3
#
#
#
# Elastic Constant Matrix: (Units=GPa)
#
#
# Indices 1 2 3 4 5 6 
#
# 1 74.5746 50.0633 38.8253 0.0000 0.0000 0.0000
# 2 50.0633 194.6271 91.9391 0.0000 0.0000 0.0000
# 3 38.8253 91.9391 152.2697 0.0000 0.0000 0.0000
# 4 0.0000 0.0000 0.0000 69.4908 0.0000 0.0000
# 5 0.0000 0.0000 0.0000 0.0000 31.1088 0.0000
# 6 0.0000 0.0000 0.0000 0.0000 0.0000 51.9091
#
#
#
# Elastic Compliance Matrix: (Units=1/GPa)
#
#
# Indices 1 2 3 4 5 6 
#
# 1 0.016784 -0.003212 -0.002340 0.000000 0.000000 0.000000
# 2 -0.003212 0.007803 -0.003892 0.000000 0.000000 0.000000
# 3 -0.002340 -0.003892 0.009514 0.000000 0.000000 0.000000
# 4 0.000000 0.000000 0.000000 0.014390 0.000000 0.000000
# 5 0.000000 0.000000 0.000000 0.000000 0.032145 0.000000
# 6 0.000000 0.000000 0.000000 0.000000 0.000000 0.019264
#
#
# Mechanical properties :
#
#
# Convention : Reuss Voigt Hill
#
# Bulk Modulus (GPa) = 65.73694 87.01408 76.37551
# Shear Modulus (GPa) = 40.36793 46.54464 43.45628
#
# Velocity S-wave (km/s) = 3.98871 4.28301 4.13848
# Velocity P-wave (km/s) = 6.86451 7.66505 7.27580
#
# Compressibility (1/GPa) = 0.01521215
#
# Stress axis : x y z
#
# Youngs Moduli (GPa) = 59.58088 128.15765 105.10608
#
# Poissons Ratio (x) = 0.41161 0.24598
# Poissons Ratio (y) = 0.19136 0.40911
# Poissons Ratio (z) = 0.13944 0.49884
#
# Static dielectric constant tensor:
#      x y z
#    x 5.115430 0.000000 0.000000 
#    y 0.000000 4.854270 0.000000 
#    z 0.000000 0.000000 4.370810 
# 
# 
# High freq. dielectric constant tensor:
#      x y z
#    x 2.021580 0.000000 0.000000 
#    y 0.000000 2.019870 0.000000 
#    z 0.000000 0.000000 2.005230 
# 
# From -- ./inp_files/9310.got.cif
#   From: 2010.06.25/outbox.cif.g09.slc.cpg/sg43_5_cif.got.tgz:9310.got - 2010.06.26 16:48:59.
