data_PCOD8187948
_publ_section_title
;
Structure prediction by ZEFSAII (Michael W. Deem and Ramdas Pophale) SiO2 
 PCOD8187948
Probable space group: I M M 2
;
_chemical_formula_sum "Si O2"
_cell_formula_units_Z 64
_cell_length_a 9.138621
_cell_length_b 15.569669
_cell_length_c 24.098543
_cell_angle_alpha 90.000000
_cell_angle_beta 90.000000
_cell_angle_gamma 90.000000
_cell_volume 3428.868519
_symmetry_space_group_name_H-M "I M M 2"
_symmetry_group_IT_number 44
_symmetry_cell_setting 'orthorhombic'
loop_
_space_group_symop_operation_xyz
x,y,z
-x,-y,z
-x,y,z
x,-y,z
1/2+x,1/2+y,1/2+z
1/2-x,1/2-y,1/2+z
1/2-x,1/2+y,1/2+z
1/2+x,1/2-y,1/2+z
loop_
_atom_site_type_symbol
_atom_site_label
_atom_site_fract_x
_atom_site_fract_y
_atom_site_fract_z
Si Si1 0.325560 0.747964 0.628390
Si Si2 0.329437 0.402829 0.316983
Si Si3 0.826207 0.405056 0.056279
Si Si4 0.831492 0.904750 0.329006
Si Si5 0.325693 0.594958 0.552397
Si Si6 0.673009 0.343263 0.435308
Si Si7 0.326459 0.850941 0.435564
Si Si8 0.826238 0.747851 0.253830
O O1 0.500000 0.748083 0.626976
O O2 0.263552 0.834073 0.598825
O O3 0.264151 0.664772 0.595794
O O4 0.267486 0.744027 0.691105
O O5 0.500000 0.378729 0.312327
O O6 0.299671 0.500000 0.296915
O O7 0.276644 0.395057 0.380862
O O8 0.238713 0.338800 0.278957
O O9 0.773918 0.500000 0.075244
O O10 0.000000 0.399017 0.055877
O O11 0.769318 0.387485 0.994109
O O12 0.743209 0.905051 0.386168
O O13 0.771115 0.832346 0.286781
O O14 0.000000 0.885536 0.342465
O O15 0.812962 0.000000 0.302237
O O16 0.500000 0.600319 0.550867
O O17 0.274046 0.500000 0.570983
O O18 0.261603 0.613850 0.490903
O O19 0.500000 0.343679 0.440718
O O20 0.729837 0.246322 0.430009
O O21 0.500000 0.858457 0.430722
O O22 0.000000 0.740373 0.255170
#
# Coordination Sequence:
#
# PCOD8187948 Si02
#       8
#     8   8   8   8   8   8   8   8
#     4   9  17  29  43  65  95 126 161 198 238 284
#     4  10  20  34  53  76 102 131 162 201 250 299
#     4   9  16  26  43  69  97 120 147 193 248 290
#     4  10  21  35  49  69 101 137 168 202 247 294
#     4   9  15  24  42  69 100 128 153 191 246 299
#     4   9  15  26  46  73 102 126 152 195 249 298
#     4  10  17  29  52  77  99 124 159 203 248 297
#     4  10  21  35  51  71  99 134 172 209 242 284
#
# _framework density 18.665049
#
# number of rings (size 3 to 8) (size 9 to 14) (size 15 to 20)
#    0.000    2.500    2.500    0.750    0.000    3.500 
#    0.000    3.750    0.000    0.750    0.000    1.750 
#    0.000    2.000    0.000    0.000    0.000    0.000 
#
# Total GULP energy -396701.999140 kJ/mol
# GULP energy per Si atom -12396.937473 kJ/mol
# Density = 1.862257 g / cm^3
# Si number density = 18.665049 Si / 1000 Ang^3
#
#
#
# Elastic Constant Matrix: (Units=GPa)
#
#
# Indices 1 2 3 4 5 6 
#
# 1 13.3985 16.5837 18.9926 0.0000 0.0000 0.0000
# 2 16.5837 156.2455 74.7077 0.0000 0.0000 0.0000
# 3 18.9926 74.7077 151.4244 0.0000 0.0000 0.0000
# 4 0.0000 0.0000 0.0000 17.4264 0.0000 0.0000
# 5 0.0000 0.0000 0.0000 0.0000 18.1997 0.0000
# 6 0.0000 0.0000 0.0000 0.0000 0.0000 17.8247
#
#
#
# Elastic Compliance Matrix: (Units=1/GPa)
#
#
# Indices 1 2 3 4 5 6 
#
# 1 0.094514 -0.005711 -0.009037 0.000000 0.000000 0.000000
# 2 -0.005711 0.008721 -0.003586 0.000000 0.000000 0.000000
# 3 -0.009037 -0.003586 0.009507 0.000000 0.000000 0.000000
# 4 0.000000 0.000000 0.000000 0.057384 0.000000 0.000000
# 5 0.000000 0.000000 0.000000 0.000000 0.054946 0.000000
# 6 0.000000 0.000000 0.000000 0.000000 0.000000 0.056102
#
#
# Mechanical properties :
#
#
# Convention : Reuss Voigt Hill
#
# Bulk Modulus (GPa) = 13.14518 60.18180 36.66349
# Shear Modulus (GPa) = 14.56876 24.74244 19.65560
#
# Velocity S-wave (km/s) = 2.79684 3.64483 3.24862
# Velocity P-wave (km/s) = 4.18183 7.07291 5.81007
#
# Compressibility (1/GPa) = 0.07607352
#
# Stress axis : x y z
#
# Youngs Moduli (GPa) = 10.58048 114.66391 105.18702
#
# Poissons Ratio (x) = 0.65479 0.95058
# Poissons Ratio (y) = 0.06042 0.37725
# Poissons Ratio (z) = 0.09562 0.41124
#
# Static dielectric constant tensor:
#      x y z
#    x 2.790650 0.000000 0.000000 
#    y 0.000000 3.685820 0.000000 
#    z 0.000000 0.000000 3.569340 
# 
# 
# High freq. dielectric constant tensor:
#      x y z
#    x 1.654090 0.000000 0.000000 
#    y 0.000000 1.744290 0.000000 
#    z 0.000000 0.000000 1.725450 
# 
# From -- ./inp_files/25154.got.cif
#   From: 2010.03.12/outbox.cif.g09.slc.cpg/sg44_13_cif.got.tgz:25154.got - 2010.04.14 02:36:11.
