data_PCOD8187333
_publ_section_title
;
Structure prediction by ZEFSAII (Michael W. Deem and Ramdas Pophale) SiO2 
 PCOD8187333
Probable space group: F D D 2
;
_chemical_formula_sum "Si O2"
_cell_formula_units_Z 112
_cell_length_a 13.962166
_cell_length_b 17.712227
_cell_length_c 22.751556
_cell_angle_alpha 90.000000
_cell_angle_beta 90.000000
_cell_angle_gamma 90.000000
_cell_volume 5626.483770
_symmetry_space_group_name_H-M "F D D 2"
_symmetry_group_IT_number 43
_symmetry_cell_setting 'orthorhombic'
loop_
_space_group_symop_operation_xyz
x,y,z
-x,-y,z
1/4-x,1/4+y,1/4+z
1/4+x,1/4-y,1/4+z
x,1/2+y,1/2+z
-x,1/2-y,1/2+z
1/4-x,3/4+y,3/4+z
1/4+x,3/4-y,3/4+z
1/2+x,y,1/2+z
1/2-x,-y,1/2+z
3/4-x,1/4+y,3/4+z
3/4+x,1/4-y,3/4+z
1/2+x,1/2+y,z
1/2-x,1/2-y,z
3/4-x,3/4+y,1/4+z
3/4+x,3/4-y,1/4+z
loop_
_atom_site_type_symbol
_atom_site_label
_atom_site_fract_x
_atom_site_fract_y
_atom_site_fract_z
Si Si1 0.848166 0.793090 0.384790
Si Si2 0.395755 0.962412 0.040344
Si Si3 0.006822 0.785009 0.974330
Si Si4 0.736197 0.930184 0.830028
Si Si5 0.528793 0.796697 0.678768
Si Si6 0.661535 0.194033 0.750559
Si Si7 0.408995 0.550611 0.643520
O O1 0.750000 0.750000 0.393072
O O2 0.929205 0.755617 0.425056
O O3 0.825317 0.876315 0.407257
O O4 0.880223 0.789876 0.316009
O O5 0.401866 0.872722 0.053610
O O6 0.500000 0.000000 0.033465
O O7 0.347100 0.001518 0.096906
O O8 0.335259 0.983315 0.984538
O O9 0.907786 0.817196 0.948543
O O10 0.973699 0.727193 0.024984
O O11 0.058611 0.856629 0.002435
O O12 0.815503 0.879642 0.862497
O O13 0.697068 0.987659 0.878051
O O14 0.417339 0.798737 0.698530
O O15 0.750000 0.250000 0.735918
O O16 0.500000 0.500000 0.663498
#
# Coordination Sequence:
#
# PCOD8187333 Si02
#       7
#    16  16  16  16  16  16  16
#     4  11  23  40  62  94 127 162 204 264 316 376
#     4   9  21  40  60  93 126 157 208 262 315 376
#     4  12  21  41  66  89 127 166 208 263 321 372
#     4  10  22  39  62  91 127 160 213 258 308 380
#     4  12  21  41  64  92 126 166 208 261 319 380
#     4  11  25  41  62  92 129 168 213 259 318 381
#     4   9  22  41  61  90 125 163 206 262 311 380
#
# _framework density 19.905861000000002
#
# number of rings (size 3 to 8) (size 9 to 14) (size 15 to 20)
#    0.000    1.714    4.286    1.714    0.000    4.571 
#    2.571    5.714    0.000    0.000    0.000    0.000 
#    0.000    0.000    0.000    0.000    0.000    0.000 
#
# Total GULP energy -346994.663680 kJ/mol
# GULP energy per Si atom -12392.666560 kJ/mol
# Density = 1.986055 g / cm^3
# Si number density = 19.905861 Si / 1000 Ang^3
#
#
#
# Elastic Constant Matrix: (Units=GPa)
#
#
# Indices 1 2 3 4 5 6 
#
# 1 55.2048 22.0041 34.4724 0.0000 0.0000 0.0000
# 2 22.0041 114.2856 33.3095 0.0000 0.0000 0.0000
# 3 34.4724 33.3095 98.3811 0.0000 0.0000 0.0000
# 4 0.0000 0.0000 0.0000 32.1561 0.0000 0.0000
# 5 0.0000 0.0000 0.0000 0.0000 30.8996 0.0000
# 6 0.0000 0.0000 0.0000 0.0000 0.0000 16.8977
#
#
#
# Elastic Compliance Matrix: (Units=1/GPa)
#
#
# Indices 1 2 3 4 5 6 
#
# 1 0.023759 -0.002383 -0.007518 0.000000 0.000000 0.000000
# 2 -0.002383 0.009947 -0.002533 0.000000 0.000000 0.000000
# 3 -0.007518 -0.002533 0.013656 0.000000 0.000000 0.000000
# 4 0.000000 0.000000 0.000000 0.031098 0.000000 0.000000
# 5 0.000000 0.000000 0.000000 0.000000 0.032363 0.000000
# 6 0.000000 0.000000 0.000000 0.000000 0.000000 0.059180
#
#
# Mechanical properties :
#
#
# Convention : Reuss Voigt Hill
#
# Bulk Modulus (GPa) = 44.45596 49.71594 47.08595
# Shear Modulus (GPa) = 24.70724 27.86304 26.28514
#
# Velocity S-wave (km/s) = 3.52690 3.74537 3.63777
# Velocity P-wave (km/s) = 6.24235 6.61313 6.43041
#
# Compressibility (1/GPa) = 0.02249417
#
# Stress axis : x y z
#
# Youngs Moduli (GPa) = 42.08930 100.53218 73.22553
#
# Poissons Ratio (x) = 0.23959 0.55052
# Poissons Ratio (y) = 0.10031 0.18546
# Poissons Ratio (z) = 0.31643 0.25463
#
# Static dielectric constant tensor:
#      x y z
#    x 3.456480 0.000000 0.000000 
#    y 0.000000 3.803090 0.000000 
#    z 0.000000 0.000000 3.800830 
# 
# 
# High freq. dielectric constant tensor:
#      x y z
#    x 1.755630 0.000000 0.000000 
#    y 0.000000 1.791590 0.000000 
#    z 0.000000 0.000000 1.790380 
# 
# From -- ./inp_files/21740.got.cif
#   From: 2010.06.25/outbox.cif.g09.slc.cpg/sg43_11_cif.got.tgz:21740.got - 2010.06.26 16:48:59.
