data_PCOD8187844
_publ_section_title
;
Structure prediction by ZEFSAII (Michael W. Deem and Ramdas Pophale) SiO2 
 PCOD8187844
Probable space group: F D D 2
;
_chemical_formula_sum "Si O2"
_cell_formula_units_Z 96
_cell_length_a 10.957635
_cell_length_b 20.443115
_cell_length_c 16.601834
_cell_angle_alpha 90.000000
_cell_angle_beta 90.000000
_cell_angle_gamma 90.000000
_cell_volume 3718.946825
_symmetry_space_group_name_H-M "F D D 2"
_symmetry_group_IT_number 43
_symmetry_cell_setting 'orthorhombic'
loop_
_space_group_symop_operation_xyz
x,y,z
-x,-y,z
1/4-x,1/4+y,1/4+z
1/4+x,1/4-y,1/4+z
x,1/2+y,1/2+z
-x,1/2-y,1/2+z
1/4-x,3/4+y,3/4+z
1/4+x,3/4-y,3/4+z
1/2+x,y,1/2+z
1/2-x,-y,1/2+z
3/4-x,1/4+y,3/4+z
3/4+x,1/4-y,3/4+z
1/2+x,1/2+y,z
1/2-x,1/2-y,z
3/4-x,3/4+y,1/4+z
3/4+x,3/4-y,1/4+z
loop_
_atom_site_type_symbol
_atom_site_label
_atom_site_fract_x
_atom_site_fract_y
_atom_site_fract_z
Si Si1 0.305222 0.361210 0.062380
Si Si2 0.862662 0.498929 0.635545
Si Si3 0.940675 0.151343 0.632615
Si Si4 0.009557 0.128727 0.318878
Si Si5 0.766040 0.173075 0.236661
Si Si6 0.215712 0.522938 0.801476
O O1 0.333097 0.432440 0.092617
O O2 0.200023 0.326423 0.116981
O O3 0.422590 0.317348 0.076578
O O4 0.276838 0.369299 0.967641
O O5 0.842486 0.556507 0.571030
O O6 0.772060 0.507058 0.712117
O O7 0.000000 0.500000 0.666902
O O8 0.034900 0.211031 0.612908
O O9 0.943753 0.092632 0.567514
O O10 0.959196 0.115111 0.409535
O O11 0.090794 0.064841 0.299646
O O12 0.904953 0.144685 0.252481
O O13 0.750000 0.250000 0.221509
#
# Coordination Sequence:
#
# PCOD8187844 Si02
#       6
#    16  16  16  16  16  16
#     4  12  27  50  78 113 161 210 267 330 408 483
#     4  12  25  50  76 113 156 206 264 330 404 482
#     4  12  28  47  78 115 158 210 265 331 404 487
#     4  12  28  49  80 114 153 205 259 330 400 476
#     4  12  29  49  78 112 154 205 265 323 400 481
#     4  12  28  48  79 114 157 202 265 332 407 481
#
# _framework density 25.813759999999998
#
# number of rings (size 3 to 8) (size 9 to 14) (size 15 to 20)
#    0.000    0.000    5.000    3.500    7.000    1.333 
#    0.000    0.000    0.000    0.000    0.000    0.000 
#    0.000    0.000    0.000    0.000    0.000    0.000 
#
# Total GULP energy -297466.881351 kJ/mol
# GULP energy per Si atom -12394.453390 kJ/mol
# Density = 2.575501 g / cm^3
# Si number density = 25.813760 Si / 1000 Ang^3
#
#
#
# Elastic Constant Matrix: (Units=GPa)
#
#
# Indices 1 2 3 4 5 6 
#
# 1 90.5276 14.7698 -3.1025 0.0000 0.0000 0.0000
# 2 14.7698 119.1580 14.4068 0.0000 0.0000 0.0000
# 3 -3.1025 14.4068 57.9199 0.0000 0.0000 0.0000
# 4 0.0000 0.0000 0.0000 30.4404 0.0000 0.0000
# 5 0.0000 0.0000 0.0000 0.0000 35.0992 0.0000
# 6 0.0000 0.0000 0.0000 0.0000 0.0000 37.9237
#
#
#
# Elastic Compliance Matrix: (Units=1/GPa)
#
#
# Indices 1 2 3 4 5 6 
#
# 1 0.011329 -0.001523 0.000986 0.000000 0.000000 0.000000
# 2 -0.001523 0.008857 -0.002285 0.000000 0.000000 0.000000
# 3 0.000986 -0.002285 0.017886 0.000000 0.000000 0.000000
# 4 0.000000 0.000000 0.000000 0.032851 0.000000 0.000000
# 5 0.000000 0.000000 0.000000 0.000000 0.028491 0.000000
# 6 0.000000 0.000000 0.000000 0.000000 0.000000 0.026369
#
#
# Mechanical properties :
#
#
# Convention : Reuss Voigt Hill
#
# Bulk Modulus (GPa) = 30.83800 35.52821 33.18310
# Shear Modulus (GPa) = 35.15268 36.79476 35.97372
#
# Velocity S-wave (km/s) = 3.69423 3.77953 3.73713
# Velocity P-wave (km/s) = 5.49261 5.73059 5.61286
#
# Compressibility (1/GPa) = 0.03242752
#
# Stress axis : x y z
#
# Youngs Moduli (GPa) = 88.27154 112.90150 55.90865
#
# Poissons Ratio (x) = 0.17199 -0.05511
# Poissons Ratio (y) = 0.13447 0.12774
# Poissons Ratio (z) = -0.08701 0.25795
#
# Static dielectric constant tensor:
#      x y z
#    x 5.495510 0.000000 0.000000 
#    y 0.000000 4.982880 0.000000 
#    z 0.000000 0.000000 4.917780 
# 
# 
# High freq. dielectric constant tensor:
#      x y z
#    x 2.042130 0.000000 0.000000 
#    y 0.000000 2.047790 0.000000 
#    z 0.000000 0.000000 2.033540 
# 
# From -- ./inp_files/13308.got.cif
#   From: 2010.06.25/outbox.cif.g09.slc.cpg/sg43_7_cif.got.tgz:13308.got - 2010.06.26 16:48:59.
