data_PCOD8187838
_publ_section_title
;
Structure prediction by ZEFSAII (Michael W. Deem and Ramdas Pophale) SiO2 
 PCOD8187838
Probable space group: F D D 2
;
_chemical_formula_sum "Si O2"
_cell_formula_units_Z 80
_cell_length_a 29.207287
_cell_length_b 12.563197
_cell_length_c 8.487377
_cell_angle_alpha 90.000000
_cell_angle_beta 90.000000
_cell_angle_gamma 90.000000
_cell_volume 3114.331809
_symmetry_space_group_name_H-M "F D D 2"
_symmetry_group_IT_number 43
_symmetry_cell_setting 'orthorhombic'
loop_
_space_group_symop_operation_xyz
x,y,z
-x,-y,z
1/4-x,1/4+y,1/4+z
1/4+x,1/4-y,1/4+z
x,1/2+y,1/2+z
-x,1/2-y,1/2+z
1/4-x,3/4+y,3/4+z
1/4+x,3/4-y,3/4+z
1/2+x,y,1/2+z
1/2-x,-y,1/2+z
3/4-x,1/4+y,3/4+z
3/4+x,1/4-y,3/4+z
1/2+x,1/2+y,z
1/2-x,1/2-y,z
3/4-x,3/4+y,1/4+z
3/4+x,3/4-y,1/4+z
loop_
_atom_site_type_symbol
_atom_site_label
_atom_site_fract_x
_atom_site_fract_y
_atom_site_fract_z
Si Si1 0.426599 0.605889 0.822170
Si Si2 0.251063 0.104675 0.290501
Si Si3 0.309911 0.474766 0.553491
Si Si4 0.093031 0.472804 0.992728
Si Si5 0.830636 0.099384 0.002319
O O1 0.431711 0.537062 0.662453
O O2 0.435475 0.729851 0.786132
O O3 0.468304 0.565981 0.936788
O O4 0.377253 0.592414 0.902644
O O5 0.215591 0.034842 0.389465
O O6 0.289598 0.159049 0.403909
O O7 0.277579 0.023225 0.182591
O O8 0.325427 0.359586 0.614541
O O9 0.353493 0.550664 0.524813
O O10 0.087092 0.589991 0.917530
#
# Coordination Sequence:
#
# PCOD8187838 Si02
#       5
#    16  16  16  16  16
#     4  12  25  49  78 113 157 208 259 337 398 469
#     4  12  25  48  77 113 156 202 263 336 400 463
#     4  12  25  47  77 108 154 202 259 330 400 472
#     4  12  25  48  76 112 153 211 260 320 407 478
#     4  12  26  46  81 111 160 201 263 334 401 472
#
# _framework density 25.687695000000001
#
# number of rings (size 3 to 8) (size 9 to 14) (size 15 to 20)
#    0.000    0.000    8.000    1.200    0.000    0.800 
#    0.000    2.000    4.400    0.000    0.000    0.000 
#    0.000    0.000    0.000    0.000    0.000    0.000 
#
# Total GULP energy -247995.177742 kJ/mol
# GULP energy per Si atom -12399.758887 kJ/mol
# Density = 2.562923 g / cm^3
# Si number density = 25.687695 Si / 1000 Ang^3
#
#
#
# Elastic Constant Matrix: (Units=GPa)
#
#
# Indices 1 2 3 4 5 6 
#
# 1 158.4420 -3.9342 64.6561 0.0000 0.0000 0.0000
# 2 -3.9342 29.8630 24.9924 0.0000 0.0000 0.0000
# 3 64.6561 24.9924 171.6744 0.0000 0.0000 0.0000
# 4 0.0000 0.0000 0.0000 34.2851 0.0000 0.0000
# 5 0.0000 0.0000 0.0000 0.0000 70.2909 0.0000
# 6 0.0000 0.0000 0.0000 0.0000 0.0000 10.9951
#
#
#
# Elastic Compliance Matrix: (Units=1/GPa)
#
#
# Indices 1 2 3 4 5 6 
#
# 1 0.007856 0.003998 -0.003541 0.000000 0.000000 0.000000
# 2 0.003998 0.040167 -0.007353 0.000000 0.000000 0.000000
# 3 -0.003541 -0.007353 0.008229 0.000000 0.000000 0.000000
# 4 0.000000 0.000000 0.000000 0.029167 0.000000 0.000000
# 5 0.000000 0.000000 0.000000 0.000000 0.014227 0.000000
# 6 0.000000 0.000000 0.000000 0.000000 0.000000 0.090950
#
#
# Mechanical properties :
#
#
# Convention : Reuss Voigt Hill
#
# Bulk Modulus (GPa) = 23.55173 59.04534 41.29854
# Shear Modulus (GPa) = 22.87911 41.39854 32.13882
#
# Velocity S-wave (km/s) = 2.98764 4.01884 3.54098
# Velocity P-wave (km/s) = 4.59235 6.67612 5.72976
#
# Compressibility (1/GPa) = 0.04245972
#
# Stress axis : x y z
#
# Youngs Moduli (GPa) = 127.29841 24.89614 121.52253
#
# Poissons Ratio (x) = -0.09954 0.43026
# Poissons Ratio (y) = -0.50894 0.89358
# Poissons Ratio (z) = 0.45071 0.18307
#
# Static dielectric constant tensor:
#      x y z
#    x 5.415060 0.000000 0.000000 
#    y 0.000000 4.274360 0.000000 
#    z 0.000000 0.000000 5.206840 
# 
# 
# High freq. dielectric constant tensor:
#      x y z
#    x 2.049670 0.000000 0.000000 
#    y 0.000000 2.002980 0.000000 
#    z 0.000000 0.000000 2.054610 
# 
# From -- ./inp_files/4661.got.cif
#   From: 2010.06.25/outbox.cif.g09.slc.cpg/sg43_3_cif.got.tgz:4661.got - 2010.06.26 16:48:59.
