data_PCOD8187840
_publ_section_title
;
Structure prediction by ZEFSAII (Michael W. Deem and Ramdas Pophale) SiO2 
 PCOD8187840
Probable space group: F D D 2
;
_chemical_formula_sum "Si O2"
_cell_formula_units_Z 88
_cell_length_a 13.075658
_cell_length_b 20.665106
_cell_length_c 13.247950
_cell_angle_alpha 90.000000
_cell_angle_beta 90.000000
_cell_angle_gamma 90.000000
_cell_volume 3579.726696
_symmetry_space_group_name_H-M "F D D 2"
_symmetry_group_IT_number 43
_symmetry_cell_setting 'orthorhombic'
loop_
_space_group_symop_operation_xyz
x,y,z
-x,-y,z
1/4-x,1/4+y,1/4+z
1/4+x,1/4-y,1/4+z
x,1/2+y,1/2+z
-x,1/2-y,1/2+z
1/4-x,3/4+y,3/4+z
1/4+x,3/4-y,3/4+z
1/2+x,y,1/2+z
1/2-x,-y,1/2+z
3/4-x,1/4+y,3/4+z
3/4+x,1/4-y,3/4+z
1/2+x,1/2+y,z
1/2-x,1/2-y,z
3/4-x,3/4+y,1/4+z
3/4+x,3/4-y,1/4+z
loop_
_atom_site_type_symbol
_atom_site_label
_atom_site_fract_x
_atom_site_fract_y
_atom_site_fract_z
Si Si1 0.837499 0.204965 0.558350
Si Si2 0.736833 0.175959 0.837192
Si Si3 0.807829 0.909553 0.003789
Si Si4 0.276978 0.137763 0.556524
Si Si5 0.072482 0.758903 0.356301
Si Si6 0.000000 0.000000 0.460529
O O1 0.750000 0.250000 0.609938
O O2 0.780446 0.144028 0.506576
O O3 0.924318 0.183924 0.638509
O O4 0.892645 0.248198 0.472283
O O5 0.750000 0.250000 0.802881
O O6 0.832179 0.134405 0.793263
O O7 0.636806 0.144817 0.786840
O O8 0.732715 0.171821 0.957626
O O9 0.779208 0.968215 0.080753
O O10 0.194830 0.084481 0.588375
O O11 0.286175 0.189953 0.644344
O O12 0.156960 0.728906 0.281770
#
# Coordination Sequence:
#
# PCOD8187840 Si02
#       6
#    16  16  16  16  16   8
#     4  12  28  49  79 111 153 207 256 319 387 467
#     4  12  25  48  74 113 148 201 251 317 385 465
#     4  12  28  49  79 112 157 201 260 319 393 462
#     4  12  26  45  77 108 154 195 257 318 385 455
#     4  12  27  48  75 108 154 199 263 317 384 462
#     4  12  26  48  74 110 148 210 254 320 384 460
#
# _framework density 24.582882000000001
#
# number of rings (size 3 to 8) (size 9 to 14) (size 15 to 20)
#    0.000    0.000    5.455    3.818    5.091    2.909 
#    0.000    0.000    0.000    0.000    0.000    0.000 
#    0.000    0.000    0.000    0.000    0.000    0.000 
#
# Total GULP energy -272907.154627 kJ/mol
# GULP energy per Si atom -12404.870665 kJ/mol
# Density = 2.452693 g / cm^3
# Si number density = 24.582882 Si / 1000 Ang^3
#
#
#
# Elastic Constant Matrix: (Units=GPa)
#
#
# Indices 1 2 3 4 5 6 
#
# 1 92.1960 25.3100 18.3347 0.0000 0.0000 0.0000
# 2 25.3100 99.4098 18.0797 0.0000 0.0000 0.0000
# 3 18.3347 18.0797 113.2754 0.0000 0.0000 0.0000
# 4 0.0000 0.0000 0.0000 19.9847 0.0000 0.0000
# 5 0.0000 0.0000 0.0000 0.0000 46.5774 0.0000
# 6 0.0000 0.0000 0.0000 0.0000 0.0000 46.1754
#
#
#
# Elastic Compliance Matrix: (Units=1/GPa)
#
#
# Indices 1 2 3 4 5 6 
#
# 1 0.011899 -0.002759 -0.001486 0.000000 0.000000 0.000000
# 2 -0.002759 0.011000 -0.001309 0.000000 0.000000 0.000000
# 3 -0.001486 -0.001309 0.009277 0.000000 0.000000 0.000000
# 4 0.000000 0.000000 0.000000 0.050038 0.000000 0.000000
# 5 0.000000 0.000000 0.000000 0.000000 0.021470 0.000000
# 6 0.000000 0.000000 0.000000 0.000000 0.000000 0.021657
#
#
# Mechanical properties :
#
#
# Convention : Reuss Voigt Hill
#
# Bulk Modulus (GPa) = 47.46382 47.59223 47.52802
# Shear Modulus (GPa) = 34.84989 38.75794 36.80391
#
# Velocity S-wave (km/s) = 3.76925 3.97498 3.87348
# Velocity P-wave (km/s) = 6.18810 6.36154 6.27542
#
# Compressibility (1/GPa) = 0.02106868
#
# Stress axis : x y z
#
# Youngs Moduli (GPa) = 84.03763 90.90902 107.78842
#
# Poissons Ratio (x) = 0.25086 0.16013
# Poissons Ratio (y) = 0.23190 0.14110
# Poissons Ratio (z) = 0.12485 0.11900
#
# Static dielectric constant tensor:
#      x y z
#    x 4.473330 0.000000 0.000000 
#    y 0.000000 4.347970 0.000000 
#    z 0.000000 0.000000 4.295360 
# 
# 
# High freq. dielectric constant tensor:
#      x y z
#    x 1.985360 0.000000 0.000000 
#    y 0.000000 1.980370 0.000000 
#    z 0.000000 0.000000 1.983630 
# 
# From -- ./inp_files/9598.got.cif
#   From: 2010.06.25/outbox.cif.g09.slc.cpg/sg43_5_cif.got.tgz:9598.got - 2010.06.26 16:48:59.
