data_PCOD8187999
_publ_section_title
;
Structure prediction by ZEFSAII (Michael W. Deem and Ramdas Pophale) SiO2 
 PCOD8187999
Probable space group: I M M 2
;
_chemical_formula_sum "Si O2"
_cell_formula_units_Z 64
_cell_length_a 26.478312
_cell_length_b 21.018947
_cell_length_c 7.829546
_cell_angle_alpha 90.000000
_cell_angle_beta 90.000000
_cell_angle_gamma 90.000000
_cell_volume 4357.504360
_symmetry_space_group_name_H-M "I M M 2"
_symmetry_group_IT_number 44
_symmetry_cell_setting 'orthorhombic'
loop_
_space_group_symop_operation_xyz
x,y,z
-x,-y,z
-x,y,z
x,-y,z
1/2+x,1/2+y,1/2+z
1/2-x,1/2-y,1/2+z
1/2-x,1/2+y,1/2+z
1/2+x,1/2-y,1/2+z
loop_
_atom_site_type_symbol
_atom_site_label
_atom_site_fract_x
_atom_site_fract_y
_atom_site_fract_z
Si Si1 0.771936 0.926323 0.879940
Si Si2 0.442031 0.427634 0.553006
Si Si3 0.864742 0.929127 0.351550
Si Si4 0.172716 0.760138 0.194791
Si Si5 0.343514 0.309281 0.045710
Si Si6 0.262152 0.377257 0.721237
Si Si7 0.766889 0.354546 0.077548
Si Si8 0.130504 0.163638 0.896383
O O1 0.738815 0.912148 0.711708
O O2 0.821949 0.883555 0.882274
O O3 0.786599 0.000000 0.883244
O O4 0.738330 0.906263 0.047580
O O5 0.500000 0.410095 0.586044
O O6 0.436171 0.500000 0.486162
O O7 0.412629 0.418724 0.730429
O O8 0.419717 0.379103 0.412343
O O9 0.865919 0.879468 0.505992
O O10 0.813847 0.917133 0.244551
O O11 0.864355 0.000000 0.429143
O O12 0.146668 0.761640 0.384980
O O13 0.223634 0.802828 0.198590
O O14 0.186391 0.688885 0.137819
O O15 0.133800 0.789516 0.058335
O O16 0.283443 0.311869 0.073528
O O17 0.370808 0.291767 0.224760
O O18 0.224914 0.383453 0.885711
#
# Coordination Sequence:
#
# PCOD8187999 Si02
#       8
#     8   8   8   8   8   8   8   8
#     4  10  18  27  40  57  79 109 139 169 209 247
#     4  10  18  29  45  60  78 106 142 187 233 268
#     4   9  15  29  41  54  77 101 134 171 214 256
#     4   9  17  29  40  58  83  99 131 171 215 253
#     4   9  19  26  42  61  76 103 129 169 210 257
#     4   9  18  25  39  56  76 104 128 171 208 247
#     4   9  19  26  39  61  79 104 132 170 207 245
#     4  10  18  29  44  59  76 108 136 177 224 260
#
# _framework density 14.687306
#
# number of rings (size 3 to 8) (size 9 to 14) (size 15 to 20)
#    0.000    2.875    3.750    0.750   10.500    5.500 
#    0.000    0.625    0.000    1.500    0.000    0.000 
#    0.000    0.000    0.000    0.000    0.000    0.625 
#
# Total GULP energy -396425.613121 kJ/mol
# GULP energy per Si atom -12388.300410 kJ/mol
# Density = 1.465388 g / cm^3
# Si number density = 14.687306 Si / 1000 Ang^3
#
#
#
# Elastic Constant Matrix: (Units=GPa)
#
#
# Indices 1 2 3 4 5 6 
#
# 1 38.3380 25.7082 21.7677 0.0000 0.0000 0.0000
# 2 25.7082 41.5407 23.8674 0.0000 0.0000 0.0000
# 3 21.7677 23.8674 116.6451 0.0000 0.0000 0.0000
# 4 0.0000 0.0000 0.0000 15.8245 0.0000 0.0000
# 5 0.0000 0.0000 0.0000 0.0000 12.6018 0.0000
# 6 0.0000 0.0000 0.0000 0.0000 0.0000 16.1120
#
#
#
# Elastic Compliance Matrix: (Units=1/GPa)
#
#
# Indices 1 2 3 4 5 6 
#
# 1 0.045553 -0.026412 -0.003097 0.000000 0.000000 0.000000
# 2 -0.026412 0.042594 -0.003786 0.000000 0.000000 0.000000
# 3 -0.003097 -0.003786 0.009926 0.000000 0.000000 0.000000
# 4 0.000000 0.000000 0.000000 0.063193 0.000000 0.000000
# 5 0.000000 0.000000 0.000000 0.000000 0.079354 0.000000
# 6 0.000000 0.000000 0.000000 0.000000 0.000000 0.062065
#
#
# Mechanical properties :
#
#
# Convention : Reuss Voigt Hill
#
# Bulk Modulus (GPa) = 31.76391 37.69005 34.72698
# Shear Modulus (GPa) = 13.16586 17.25303 15.20945
#
# Velocity S-wave (km/s) = 2.99726 3.43109 3.22149
# Velocity P-wave (km/s) = 5.80102 6.43536 6.12641
#
# Compressibility (1/GPa) = 0.03148227
#
# Stress axis : x y z
#
# Youngs Moduli (GPa) = 21.95232 23.47744 100.74907
#
# Poissons Ratio (x) = 0.62009 0.31198
# Poissons Ratio (y) = 0.57981 0.38148
# Poissons Ratio (z) = 0.06798 0.08890
#
# Static dielectric constant tensor:
#      x y z
#    x 2.367450 0.000000 0.000000 
#    y 0.000000 2.654060 0.000000 
#    z 0.000000 0.000000 3.371450 
# 
# 
# High freq. dielectric constant tensor:
#      x y z
#    x 1.483230 0.000000 0.000000 
#    y 0.000000 1.533900 0.000000 
#    z 0.000000 0.000000 1.586680 
# 
# From -- ./inp_files/9810.got.cif
#   From: 2010.03.12/outbox.cif.g09.slc.cpg/sg44_5_cif.got.tgz:9810.got - 2010.04.14 02:36:11.
