data_PCOD8187867
_publ_section_title
;
Structure prediction by ZEFSAII (Michael W. Deem and Ramdas Pophale) SiO2 
 PCOD8187867
Probable space group: I M M 2
;
_chemical_formula_sum "Si O2"
_cell_formula_units_Z 64
_cell_length_a 21.382468
_cell_length_b 21.200622
_cell_length_c 9.522866
_cell_angle_alpha 90.000000
_cell_angle_beta 90.000000
_cell_angle_gamma 90.000000
_cell_volume 4316.921056
_symmetry_space_group_name_H-M "I M M 2"
_symmetry_group_IT_number 44
_symmetry_cell_setting 'orthorhombic'
loop_
_space_group_symop_operation_xyz
x,y,z
-x,-y,z
-x,y,z
x,-y,z
1/2+x,1/2+y,1/2+z
1/2-x,1/2-y,1/2+z
1/2-x,1/2+y,1/2+z
1/2+x,1/2-y,1/2+z
loop_
_atom_site_type_symbol
_atom_site_label
_atom_site_fract_x
_atom_site_fract_y
_atom_site_fract_z
Si Si1 0.692045 0.248989 0.464820
Si Si2 0.735928 0.368972 0.890479
Si Si3 0.728622 0.427793 0.183584
Si Si4 0.262764 0.928254 0.101889
Si Si5 0.362028 0.570852 0.428225
Si Si6 0.798330 0.339981 0.374638
Si Si7 0.148703 0.226103 0.254915
Si Si8 0.429084 0.691446 0.512137
O O1 0.706681 0.177005 0.428324
O O2 0.737306 0.295701 0.382840
O O3 0.700602 0.261337 0.632151
O O4 0.619503 0.264820 0.423634
O O5 0.760256 0.413313 0.766063
O O6 0.673587 0.329794 0.853143
O O7 0.716516 0.411640 0.021883
O O8 0.749144 0.500000 0.198540
O O9 0.664885 0.416057 0.272096
O O10 0.786423 0.387678 0.245870
O O11 0.286035 0.000000 0.080822
O O12 0.193939 0.918483 0.038321
O O13 0.309131 0.880367 0.017815
O O14 0.389024 0.500000 0.439548
O O15 0.417299 0.618557 0.470040
O O16 0.856790 0.292550 0.342209
O O17 0.083956 0.204370 0.179665
O O18 0.500000 0.709682 0.476220
#
# Coordination Sequence:
#
# PCOD8187867 Si02
#       8
#     8   8   8   8   8   8   8   8
#     4   9  17  27  42  65  85 114 147 178 229 264
#     4  11  17  27  43  66  96 114 145 183 228 286
#     4  10  17  25  41  63  90 119 144 181 226 267
#     4  10  17  27  43  66  96 120 145 178 220 268
#     4   9  17  30  42  61  90 120 160 188 212 255
#     4  10  15  29  43  60  93 115 149 178 221 278
#     4   9  17  28  41  66  86 118 149 180 232 262
#     4  10  17  31  47  65  89 115 162 196 216 256
#
# _framework density 14.825381
#
# number of rings (size 3 to 8) (size 9 to 14) (size 15 to 20)
#    0.750    1.500    6.250    1.500    0.000    0.250 
#    0.000    0.000    0.000    0.750    0.000    0.000 
#    0.000   19.000    0.000    0.000    0.000    0.000 
#
# Total GULP energy -396453.362413 kJ/mol
# GULP energy per Si atom -12389.167575 kJ/mol
# Density = 1.479164 g / cm^3
# Si number density = 14.825381 Si / 1000 Ang^3
#
#
#
# Elastic Constant Matrix: (Units=GPa)
#
#
# Indices 1 2 3 4 5 6 
#
# 1 46.5185 21.6719 9.2750 0.0000 0.0000 0.0000
# 2 21.6719 83.1419 31.6008 0.0000 0.0000 0.0000
# 3 9.2750 31.6008 91.5819 0.0000 0.0000 0.0000
# 4 0.0000 0.0000 0.0000 31.3750 0.0000 0.0000
# 5 0.0000 0.0000 0.0000 0.0000 10.3839 0.0000
# 6 0.0000 0.0000 0.0000 0.0000 0.0000 11.9481
#
#
#
# Elastic Compliance Matrix: (Units=1/GPa)
#
#
# Indices 1 2 3 4 5 6 
#
# 1 0.024476 -0.006259 -0.000319 0.000000 0.000000 0.000000
# 2 -0.006259 0.015444 -0.004695 0.000000 0.000000 0.000000
# 3 -0.000319 -0.004695 0.012572 0.000000 0.000000 0.000000
# 4 0.000000 0.000000 0.000000 0.031872 0.000000 0.000000
# 5 0.000000 0.000000 0.000000 0.000000 0.096303 0.000000
# 6 0.000000 0.000000 0.000000 0.000000 0.000000 0.083696
#
#
# Mechanical properties :
#
#
# Convention : Reuss Voigt Hill
#
# Bulk Modulus (GPa) = 33.39405 38.48195 35.93800
# Shear Modulus (GPa) = 16.84125 21.32104 19.08114
#
# Velocity S-wave (km/s) = 3.37408 3.79640 3.59145
# Velocity P-wave (km/s) = 6.14435 6.72533 6.44139
#
# Compressibility (1/GPa) = 0.02994546
#
# Stress axis : x y z
#
# Youngs Moduli (GPa) = 40.85594 64.75210 79.54467
#
# Poissons Ratio (x) = 0.40526 0.02539
# Poissons Ratio (y) = 0.25570 0.37346
# Poissons Ratio (z) = 0.01304 0.30401
#
# Static dielectric constant tensor:
#      x y z
#    x 2.288320 0.000000 0.000000 
#    y 0.000000 3.117560 0.000000 
#    z 0.000000 0.000000 2.958310 
# 
# 
# High freq. dielectric constant tensor:
#      x y z
#    x 1.491160 0.000000 0.000000 
#    y 0.000000 1.585040 0.000000 
#    z 0.000000 0.000000 1.569000 
# 
# From -- ./inp_files/9815.got.cif
#   From: 2010.03.12/outbox.cif.g09.slc.cpg/sg44_5_cif.got.tgz:9815.got - 2010.04.14 02:36:11.
