data_PCOD8187471
_publ_section_title
;
Structure prediction by ZEFSAII (Michael W. Deem and Ramdas Pophale) SiO2 
 PCOD8187471
Probable space group: F D D 2
;
_chemical_formula_sum "Si O2"
_cell_formula_units_Z 96
_cell_length_a 12.178866
_cell_length_b 25.135631
_cell_length_c 14.875705
_cell_angle_alpha 90.000000
_cell_angle_beta 90.000000
_cell_angle_gamma 90.000000
_cell_volume 4553.802608
_symmetry_space_group_name_H-M "F D D 2"
_symmetry_group_IT_number 43
_symmetry_cell_setting 'orthorhombic'
loop_
_space_group_symop_operation_xyz
x,y,z
-x,-y,z
1/4-x,1/4+y,1/4+z
1/4+x,1/4-y,1/4+z
x,1/2+y,1/2+z
-x,1/2-y,1/2+z
1/4-x,3/4+y,3/4+z
1/4+x,3/4-y,3/4+z
1/2+x,y,1/2+z
1/2-x,-y,1/2+z
3/4-x,1/4+y,3/4+z
3/4+x,1/4-y,3/4+z
1/2+x,1/2+y,z
1/2-x,1/2-y,z
3/4-x,3/4+y,1/4+z
3/4+x,3/4-y,1/4+z
loop_
_atom_site_type_symbol
_atom_site_label
_atom_site_fract_x
_atom_site_fract_y
_atom_site_fract_z
Si Si1 0.753770 0.865760 0.620460
Si Si2 0.092463 0.414972 0.174147
Si Si3 0.632708 0.335230 0.526455
Si Si4 0.933229 0.182134 0.205495
Si Si5 0.007014 0.770927 0.024042
Si Si6 0.250000 0.250000 0.543245
Si Si7 0.750000 0.750000 0.790699
O O1 0.846466 0.878323 0.692770
O O2 0.634573 0.868802 0.667434
O O3 0.748889 0.908124 0.538775
O O4 0.774836 0.803964 0.597505
O O5 0.106946 0.357920 0.125600
O O6 0.211951 0.435348 0.204322
O O7 0.037203 0.451072 0.099616
O O8 0.014330 0.416427 0.262425
O O9 0.571715 0.279558 0.515438
O O10 0.852543 0.230411 0.231803
O O11 0.006203 0.206492 0.125508
O O12 0.133575 0.760116 0.991859
#
# Coordination Sequence:
#
# PCOD8187471 Si02
#       7
#    16  16  16  16  16   8   8
#     4  11  20  38  64  96 124 166 224 269 325 389
#     4  12  25  40  68  97 136 173 223 276 342 401
#     4  12  23  42  69 100 132 178 222 285 340 402
#     4  11  23  37  67  91 131 171 219 272 328 396
#     4  11  24  43  62 101 138 170 226 283 333 405
#     4  10  23  38  66  94 129 174 218 277 332 398
#     4  12  21  40  64 102 121 174 228 269 330 402
#
# _framework density 21.081282000000002
#
# number of rings (size 3 to 8) (size 9 to 14) (size 15 to 20)
#    0.000    0.667    5.000    4.000    2.333    2.667 
#    0.000    0.000    3.667    2.000    0.000    0.000 
#    0.000    0.000    0.000    0.000    0.000    0.000 
#
# Total GULP energy -297382.131763 kJ/mol
# GULP energy per Si atom -12390.922157 kJ/mol
# Density = 2.103330 g / cm^3
# Si number density = 21.081282 Si / 1000 Ang^3
#
#
#
# Elastic Constant Matrix: (Units=GPa)
#
#
# Indices 1 2 3 4 5 6 
#
# 1 104.2987 20.4016 31.3066 0.0000 0.0000 0.0000
# 2 20.4016 82.9424 29.5141 0.0000 0.0000 0.0000
# 3 31.3066 29.5141 70.0814 0.0000 0.0000 0.0000
# 4 0.0000 0.0000 0.0000 35.9206 0.0000 0.0000
# 5 0.0000 0.0000 0.0000 0.0000 29.9450 0.0000
# 6 0.0000 0.0000 0.0000 0.0000 0.0000 21.7231
#
#
#
# Elastic Compliance Matrix: (Units=1/GPa)
#
#
# Indices 1 2 3 4 5 6 
#
# 1 0.011164 -0.001143 -0.004506 0.000000 0.000000 0.000000
# 2 -0.001143 0.014299 -0.005511 0.000000 0.000000 0.000000
# 3 -0.004506 -0.005511 0.018603 0.000000 0.000000 0.000000
# 4 0.000000 0.000000 0.000000 0.027839 0.000000 0.000000
# 5 0.000000 0.000000 0.000000 0.000000 0.033395 0.000000
# 6 0.000000 0.000000 0.000000 0.000000 0.000000 0.046034
#
#
# Mechanical properties :
#
#
# Convention : Reuss Voigt Hill
#
# Bulk Modulus (GPa) = 45.98568 46.64081 46.31325
# Shear Modulus (GPa) = 27.63931 29.25774 28.44853
#
# Velocity S-wave (km/s) = 3.62482 3.72943 3.67750
# Velocity P-wave (km/s) = 6.27534 6.38100 6.32839
#
# Compressibility (1/GPa) = 0.02174590
#
# Stress axis : x y z
#
# Youngs Moduli (GPa) = 89.57475 69.93610 53.75470
#
# Poissons Ratio (x) = 0.07991 0.24221
# Poissons Ratio (y) = 0.10235 0.29626
# Poissons Ratio (z) = 0.40361 0.38544
#
# Static dielectric constant tensor:
#      x y z
#    x 4.064810 0.000000 0.000000 
#    y 0.000000 4.007580 0.000000 
#    z 0.000000 0.000000 3.911300 
# 
# 
# High freq. dielectric constant tensor:
#      x y z
#    x 1.816140 0.000000 0.000000 
#    y 0.000000 1.833230 0.000000 
#    z 0.000000 0.000000 1.817000 
# 
# From -- ./inp_files/9739.got.cif
#   From: 2010.06.25/outbox.cif.g09.slc.cpg/sg43_5_cif.got.tgz:9739.got - 2010.06.26 16:48:59.
