data_PCOD8187992
_publ_section_title
;
Structure prediction by ZEFSAII (Michael W. Deem and Ramdas Pophale) SiO2 
 PCOD8187992
Probable space group: I M M 2
;
_chemical_formula_sum "Si O2"
_cell_formula_units_Z 52
_cell_length_a 13.290812
_cell_length_b 7.643663
_cell_length_c 33.475527
_cell_angle_alpha 90.000000
_cell_angle_beta 90.000000
_cell_angle_gamma 90.000000
_cell_volume 3400.795121
_symmetry_space_group_name_H-M "I M M 2"
_symmetry_group_IT_number 44
_symmetry_cell_setting 'orthorhombic'
loop_
_space_group_symop_operation_xyz
x,y,z
-x,-y,z
-x,y,z
x,-y,z
1/2+x,1/2+y,1/2+z
1/2-x,1/2-y,1/2+z
1/2-x,1/2+y,1/2+z
1/2+x,1/2-y,1/2+z
loop_
_atom_site_type_symbol
_atom_site_label
_atom_site_fract_x
_atom_site_fract_y
_atom_site_fract_z
Si Si1 0.880544 0.500000 0.797350
Si Si2 0.887015 0.000000 0.433049
Si Si3 0.110392 0.795305 0.653351
Si Si4 0.613245 0.301584 0.438494
Si Si5 0.612021 0.796784 0.069478
Si Si6 0.880023 0.195896 0.738955
Si Si7 0.191730 0.500000 0.885266
Si Si8 0.195841 0.703596 0.487009
O O1 0.845234 0.328375 0.773184
O O2 0.818801 0.500000 0.837972
O O3 0.000000 0.500000 0.805376
O O4 0.872608 0.824088 0.458892
O O5 0.809779 0.000000 0.396022
O O6 0.000000 0.000000 0.415865
O O7 0.167563 0.746346 0.611949
O O8 0.162249 0.736769 0.695357
O O9 0.000000 0.706184 0.649623
O O10 0.098612 0.000000 0.657012
O O11 0.500000 0.268016 0.453789
O O12 0.626050 0.500000 0.422482
O O13 0.637961 0.173089 0.402099
O O14 0.687078 0.266164 0.475892
O O15 0.500000 0.709086 0.067442
O O16 0.599587 0.000000 0.064557
O O17 0.680212 0.730691 0.032584
O O18 0.000000 0.194843 0.735193
O O19 0.840896 0.000000 0.749478
O O20 0.164805 0.500000 0.480902
#
# Coordination Sequence:
#
# PCOD8187992 Si02
#       8
#     4   4   8   8   8   8   4   8
#     4  10  18  26  42  60  80 108 132 164 208 247
#     4  10  20  32  48  62  82 116 142 170 216 255
#     4   8  14  23  34  49  73 105 137 166 196 235
#     4   9  17  30  47  62  82 113 142 172 214 254
#     4   9  16  23  34  53  78 108 139 171 202 234
#     4   8  15  26  37  53  77 106 137 163 194 242
#     4  10  20  32  44  66  88 104 140 182 210 252
#     4   9  18  30  42  62  87 110 144 180 206 243
#
# _framework density 15.290542
#
# number of rings (size 3 to 8) (size 9 to 14) (size 15 to 20)
#    0.000    3.077    0.000    2.077    2.154    1.538 
#    0.000    1.538    0.000    0.000    0.000    0.000 
#    0.000    1.231    0.000    3.385    0.000    1.538 
#
# Total GULP energy -322096.769344 kJ/mol
# GULP energy per Si atom -12388.337282 kJ/mol
# Density = 1.525574 g / cm^3
# Si number density = 15.290542 Si / 1000 Ang^3
#
#
#
# Elastic Constant Matrix: (Units=GPa)
#
#
# Indices 1 2 3 4 5 6 
#
# 1 66.0264 26.6561 43.6985 0.0000 0.0000 0.0000
# 2 26.6561 69.9405 49.7173 0.0000 0.0000 0.0000
# 3 43.6985 49.7173 153.4116 0.0000 0.0000 0.0000
# 4 0.0000 0.0000 0.0000 22.9353 0.0000 0.0000
# 5 0.0000 0.0000 0.0000 0.0000 12.3754 0.0000
# 6 0.0000 0.0000 0.0000 0.0000 0.0000 11.2089
#
#
#
# Elastic Compliance Matrix: (Units=1/GPa)
#
#
# Indices 1 2 3 4 5 6 
#
# 1 0.019732 -0.004580 -0.004136 0.000000 0.000000 0.000000
# 2 -0.004580 0.019641 -0.005061 0.000000 0.000000 0.000000
# 3 -0.004136 -0.005061 0.009337 0.000000 0.000000 0.000000
# 4 0.000000 0.000000 0.000000 0.043601 0.000000 0.000000
# 5 0.000000 0.000000 0.000000 0.000000 0.080805 0.000000
# 6 0.000000 0.000000 0.000000 0.000000 0.000000 0.089215
#
#
# Mechanical properties :
#
#
# Convention : Reuss Voigt Hill
#
# Bulk Modulus (GPa) = 47.26877 58.83584 53.05231
# Shear Modulus (GPa) = 16.83863 20.59102 18.71483
#
# Velocity S-wave (km/s) = 3.32210 3.67366 3.50229
# Velocity P-wave (km/s) = 6.75988 7.52040 7.15026
#
# Compressibility (1/GPa) = 0.02115561
#
# Stress axis : x y z
#
# Youngs Moduli (GPa) = 50.67895 50.91456 107.10536
#
# Poissons Ratio (x) = 0.23320 0.44302
# Poissons Ratio (y) = 0.23212 0.54201
# Poissons Ratio (z) = 0.20962 0.25765
#
# Static dielectric constant tensor:
#      x y z
#    x 2.651450 0.000000 0.000000 
#    y 0.000000 3.096640 0.000000 
#    z 0.000000 0.000000 3.116200 
# 
# 
# High freq. dielectric constant tensor:
#      x y z
#    x 1.519640 0.000000 0.000000 
#    y 0.000000 1.601050 0.000000 
#    z 0.000000 0.000000 1.585870 
# 
# From -- ./inp_files/27138.got.cif
#   From: 2010.03.12/outbox.cif.g09.slc.cpg/sg44_14_cif.got.tgz:27138.got - 2010.04.14 02:36:11.
