data_PCOD8187519
_publ_section_title
;
Structure prediction by ZEFSAII (Michael W. Deem and Ramdas Pophale) SiO2 
 PCOD8187519
Probable space group: F D D 2
;
_chemical_formula_sum "Si O2"
_cell_formula_units_Z 80
_cell_length_a 29.844565
_cell_length_b 17.199271
_cell_length_c 7.326509
_cell_angle_alpha 90.000000
_cell_angle_beta 90.000000
_cell_angle_gamma 90.000000
_cell_volume 3760.731953
_symmetry_space_group_name_H-M "F D D 2"
_symmetry_group_IT_number 43
_symmetry_cell_setting 'orthorhombic'
loop_
_space_group_symop_operation_xyz
x,y,z
-x,-y,z
1/4-x,1/4+y,1/4+z
1/4+x,1/4-y,1/4+z
x,1/2+y,1/2+z
-x,1/2-y,1/2+z
1/4-x,3/4+y,3/4+z
1/4+x,3/4-y,3/4+z
1/2+x,y,1/2+z
1/2-x,-y,1/2+z
3/4-x,1/4+y,3/4+z
3/4+x,1/4-y,3/4+z
1/2+x,1/2+y,z
1/2-x,1/2-y,z
3/4-x,3/4+y,1/4+z
3/4+x,3/4-y,1/4+z
loop_
_atom_site_type_symbol
_atom_site_label
_atom_site_fract_x
_atom_site_fract_y
_atom_site_fract_z
Si Si1 0.241003 0.424924 0.033040
Si Si2 0.398570 0.563044 0.208999
Si Si3 0.962298 0.056132 0.547892
Si Si4 0.183494 0.030221 0.312200
Si Si5 0.048310 0.026053 0.919064
O O1 0.283511 0.444160 0.154462
O O2 0.205135 0.368543 0.134788
O O3 0.262101 0.385714 0.851408
O O4 0.213826 0.502387 0.981930
O O5 0.424112 0.568644 0.400444
O O6 0.347023 0.542014 0.246737
O O7 0.401855 0.647584 0.116702
O O8 0.416225 0.495213 0.074601
O O9 0.940391 0.018301 0.729982
O O10 0.000000 0.000000 0.462811
O O11 0.000000 0.000000 0.992845
#
# Coordination Sequence:
#
# PCOD8187519 Si02
#       5
#    16  16  16  16  16
#     4  10  23  47  66 101 137 187 226 279 343 416
#     4  12  25  43  67 106 132 178 228 289 333 404
#     4   9  20  40  72  96 132 175 224 275 342 401
#     4  12  27  43  68 102 140 175 232 279 347 401
#     4   9  19  44  69  96 132 178 225 271 341 403
#
# _framework density 21.272454
#
# number of rings (size 3 to 8) (size 9 to 14) (size 15 to 20)
#    0.000    2.000    4.000    1.800    5.600    3.200 
#    3.600    0.000    0.000    0.000    0.000    0.000 
#    0.000    0.000    0.000    0.000    0.000    0.000 
#
# Total GULP energy -247957.402989 kJ/mol
# GULP energy per Si atom -12397.870149 kJ/mol
# Density = 2.122404 g / cm^3
# Si number density = 21.272454 Si / 1000 Ang^3
#
#
#
# Elastic Constant Matrix: (Units=GPa)
#
#
# Indices 1 2 3 4 5 6 
#
# 1 63.9503 50.2176 42.2157 -0.0002 0.0001 0.0000
# 2 50.2176 114.2358 32.7965 0.0003 0.0000 0.0000
# 3 42.2157 32.7965 76.4132 0.0007 0.0000 0.0001
# 4 -0.0002 0.0003 0.0007 21.2555 -0.0001 0.0001
# 5 0.0001 0.0000 0.0000 -0.0001 14.2180 0.0000
# 6 0.0000 0.0000 0.0001 0.0001 0.0000 34.4658
#
#
#
# Elastic Compliance Matrix: (Units=1/GPa)
#
#
# Indices 1 2 3 4 5 6 
#
# 1 0.032959 -0.010563 -0.013675 0.000001 0.000000 0.000000
# 2 -0.010563 0.013369 0.000097 0.000000 0.000000 0.000000
# 3 -0.013675 0.000097 0.020600 -0.000001 0.000000 0.000000
# 4 0.000001 0.000000 -0.000001 0.047047 0.000000 0.000000
# 5 0.000000 0.000000 0.000000 0.000000 0.070333 0.000000
# 6 0.000000 0.000000 0.000000 0.000000 0.000000 0.029014
#
#
# Mechanical properties :
#
#
# Convention : Reuss Voigt Hill
#
# Bulk Modulus (GPa) = 53.62688 56.11765 54.87227
# Shear Modulus (GPa) = 18.66931 22.61248 20.64089
#
# Velocity S-wave (km/s) = 2.96569 3.26389 3.11836
# Velocity P-wave (km/s) = 6.08205 6.37509 6.23029
#
# Compressibility (1/GPa) = 0.01864737
#
# Stress axis : x y z
#
# Youngs Moduli (GPa) = 30.34068 74.79936 48.54351
#
# Poissons Ratio (x) = 0.79007 0.66385
# Poissons Ratio (y) = 0.32048 -0.00473
# Poissons Ratio (z) = 0.41492 -0.00729
#
# Static dielectric constant tensor:
#      x y z
#    x 3.587430 0.000000 0.000000 
#    y 0.000000 4.086240 0.000000 
#    z 0.000000 0.000000 3.700830 
# 
# 
# High freq. dielectric constant tensor:
#      x y z
#    x 1.817010 0.000000 0.000000 
#    y 0.000000 1.839830 0.000000 
#    z 0.000000 0.000000 1.831390 
# 
# From -- ./inp_files/4167.got.cif
#   From: 2010.06.25/outbox.cif.g09.slc.cpg/sg43_3_cif.got.tgz:4167.got - 2010.06.26 16:48:59.
