data_PCOD8187813
_publ_section_title
;
Structure prediction by ZEFSAII (Michael W. Deem and Ramdas Pophale) SiO2 
 PCOD8187813
Probable space group: F D D 2
;
_chemical_formula_sum "Si O2"
_cell_formula_units_Z 88
_cell_length_a 16.257855
_cell_length_b 26.577047
_cell_length_c 8.788142
_cell_angle_alpha 90.000000
_cell_angle_beta 90.000000
_cell_angle_gamma 90.000000
_cell_volume 3797.231160
_symmetry_space_group_name_H-M "F D D 2"
_symmetry_group_IT_number 43
_symmetry_cell_setting 'orthorhombic'
loop_
_space_group_symop_operation_xyz
x,y,z
-x,-y,z
1/4-x,1/4+y,1/4+z
1/4+x,1/4-y,1/4+z
x,1/2+y,1/2+z
-x,1/2-y,1/2+z
1/4-x,3/4+y,3/4+z
1/4+x,3/4-y,3/4+z
1/2+x,y,1/2+z
1/2-x,-y,1/2+z
3/4-x,1/4+y,3/4+z
3/4+x,1/4-y,3/4+z
1/2+x,1/2+y,z
1/2-x,1/2-y,z
3/4-x,3/4+y,1/4+z
3/4+x,3/4-y,1/4+z
loop_
_atom_site_type_symbol
_atom_site_label
_atom_site_fract_x
_atom_site_fract_y
_atom_site_fract_z
Si Si1 0.000000 0.500000 0.335770
Si Si2 0.599598 0.410338 0.902063
Si Si3 0.479727 0.318382 0.933355
Si Si4 0.687005 0.492166 0.394779
Si Si5 0.217287 0.405935 0.678177
Si Si6 0.151990 0.812010 0.342789
O O1 0.944056 0.536210 0.440922
O O2 0.943383 0.462977 0.237709
O O3 0.534520 0.366185 0.900877
O O4 0.638362 0.413221 0.731262
O O5 0.669735 0.396413 0.022216
O O6 0.483868 0.283782 0.785199
O O7 0.506681 0.286505 0.080103
O O8 0.669677 0.450975 0.265729
O O9 0.605420 0.519200 0.461110
O O10 0.312271 0.417801 0.644317
O O11 0.210110 0.356464 0.782813
#
# Coordination Sequence:
#
# PCOD8187813 Si02
#       6
#     8  16  16  16  16  16
#     4  12  28  48  74 108 148 196 248 302 372 452
#     4  12  25  48  71 109 142 192 244 303 368 441
#     4  12  25  46  74 107 145 193 247 300 370 434
#     4  12  23  46  75 103 149 194 236 308 366 434
#     4  12  26  48  76 108 147 190 247 310 369 441
#     4  12  27  48  73 108 146 191 249 297 373 438
#
# _framework density 23.174779999999998
#
# number of rings (size 3 to 8) (size 9 to 14) (size 15 to 20)
#    0.000    0.000    7.273    1.091    2.545    7.273 
#    3.273    0.000    0.000    0.000    0.000    0.000 
#    0.000    0.000    0.000    0.000    0.000    0.000 
#
# Total GULP energy -272807.844455 kJ/mol
# GULP energy per Si atom -12400.356566 kJ/mol
# Density = 2.312203 g / cm^3
# Si number density = 23.174780 Si / 1000 Ang^3
#
#
#
# Elastic Constant Matrix: (Units=GPa)
#
#
# Indices 1 2 3 4 5 6 
#
# 1 80.8629 34.2195 14.0018 0.0000 0.0001 0.0000
# 2 34.2195 141.5175 33.9749 0.0000 0.0000 0.0000
# 3 14.0018 33.9749 67.5003 -0.0001 0.0002 0.0000
# 4 0.0000 0.0000 -0.0001 42.5368 0.0000 0.0000
# 5 0.0001 0.0000 0.0002 0.0000 17.0591 0.0000
# 6 0.0000 0.0000 0.0000 0.0000 0.0000 40.3512
#
#
#
# Elastic Compliance Matrix: (Units=1/GPa)
#
#
# Indices 1 2 3 4 5 6 
#
# 1 0.013884 -0.003032 -0.001354 0.000000 0.000000 0.000000
# 2 -0.003032 0.008700 -0.003750 0.000000 0.000000 0.000000
# 3 -0.001354 -0.003750 0.016983 0.000000 0.000000 0.000000
# 4 0.000000 0.000000 0.000000 0.023509 0.000000 0.000000
# 5 0.000000 0.000000 0.000000 0.000000 0.058620 0.000000
# 6 0.000000 0.000000 0.000000 0.000000 0.000000 0.024782
#
#
# Mechanical properties :
#
#
# Convention : Reuss Voigt Hill
#
# Bulk Modulus (GPa) = 42.92748 50.47479 46.70114
# Shear Modulus (GPa) = 29.32295 33.83506 31.57900
#
# Velocity S-wave (km/s) = 3.56096 3.82513 3.69541
# Velocity P-wave (km/s) = 5.95574 6.42932 6.19706
#
# Compressibility (1/GPa) = 0.02329510
#
# Stress axis : x y z
#
# Youngs Moduli (GPa) = 72.02423 114.94628 58.88247
#
# Poissons Ratio (x) = 0.34854 0.07972
# Poissons Ratio (y) = 0.21839 0.22080
# Poissons Ratio (z) = 0.09751 0.43103
#
# Static dielectric constant tensor:
#      x y z
#    x 4.162690 0.000000 0.000000 
#    y 0.000000 4.588980 0.000000 
#    z 0.000000 0.000000 4.274150 
# 
# 
# High freq. dielectric constant tensor:
#      x y z
#    x 1.906500 0.000000 0.000000 
#    y 0.000000 1.942180 0.000000 
#    z 0.000000 0.000000 1.917750 
# 
# From -- ./inp_files/2895.got.cif
#   From: 2010.06.25/outbox.cif.g09.slc.cpg/sg43_2_cif.got.tgz:2895.got - 2010.06.26 16:48:59.
