data_PCOD8187562
_publ_section_title
;
Structure prediction by ZEFSAII (Michael W. Deem and Ramdas Pophale) SiO2 
 PCOD8187562
Probable space group: F D D 2
;
_chemical_formula_sum "Si O2"
_cell_formula_units_Z 112
_cell_length_a 24.508815
_cell_length_b 14.098666
_cell_length_c 14.256725
_cell_angle_alpha 90.000000
_cell_angle_beta 90.000000
_cell_angle_gamma 90.000000
_cell_volume 4926.291521
_symmetry_space_group_name_H-M "F D D 2"
_symmetry_group_IT_number 43
_symmetry_cell_setting 'orthorhombic'
loop_
_space_group_symop_operation_xyz
x,y,z
-x,-y,z
1/4-x,1/4+y,1/4+z
1/4+x,1/4-y,1/4+z
x,1/2+y,1/2+z
-x,1/2-y,1/2+z
1/4-x,3/4+y,3/4+z
1/4+x,3/4-y,3/4+z
1/2+x,y,1/2+z
1/2-x,-y,1/2+z
3/4-x,1/4+y,3/4+z
3/4+x,1/4-y,3/4+z
1/2+x,1/2+y,z
1/2-x,1/2-y,z
3/4-x,3/4+y,1/4+z
3/4+x,3/4-y,1/4+z
loop_
_atom_site_type_symbol
_atom_site_label
_atom_site_fract_x
_atom_site_fract_y
_atom_site_fract_z
Si Si1 0.438982 0.032172 0.519360
Si Si2 0.832066 0.408304 0.294925
Si Si3 0.127462 0.951548 0.395861
Si Si4 0.384751 0.835212 0.932151
Si Si5 0.780893 0.436783 0.628308
Si Si6 0.590584 0.661847 0.947085
Si Si7 0.494847 0.386110 0.682627
O O1 0.418143 0.066649 0.619251
O O2 0.434213 0.113073 0.440567
O O3 0.500000 0.000000 0.534657
O O4 0.403030 0.943262 0.487514
O O5 0.830373 0.365409 0.189306
O O6 0.856703 0.514593 0.280345
O O7 0.869709 0.337867 0.357522
O O8 0.771842 0.408738 0.339234
O O9 0.124705 0.958145 0.284547
O O10 0.183991 0.905009 0.433635
O O11 0.112005 0.052325 0.440386
O O12 0.438959 0.788606 0.885794
O O13 0.719935 0.442638 0.667266
O O14 0.779403 0.400968 0.521414
O O15 0.500000 0.500000 0.681710
#
# Coordination Sequence:
#
# PCOD8187562 Si02
#       7
#    16  16  16  16  16  16  16
#     4  10  24  44  71 101 141 185 249 317 366 447
#     4  12  26  43  73 106 148 197 244 312 388 448
#     4  12  27  48  70 107 157 196 256 308 371 472
#     4  12  25  48  70 102 150 202 240 305 384 448
#     4  11  24  47  75 106 147 189 250 322 381 457
#     4  11  24  44  73 109 142 185 254 314 381 443
#     4  12  25  46  79 113 148 196 257 322 390 455
#
# _framework density 22.735157000000001
#
# number of rings (size 3 to 8) (size 9 to 14) (size 15 to 20)
#    0.000    0.571    2.857    5.571    6.000    1.143 
#    0.000    0.714    0.000    0.000    0.000    0.000 
#    0.000    0.000    0.000    0.000    0.000    0.000 
#
# Total GULP energy -347174.947412 kJ/mol
# GULP energy per Si atom -12399.105265 kJ/mol
# Density = 2.268341 g / cm^3
# Si number density = 22.735157 Si / 1000 Ang^3
#
#
#
# Elastic Constant Matrix: (Units=GPa)
#
#
# Indices 1 2 3 4 5 6 
#
# 1 48.3567 32.9259 26.2557 0.0000 0.0000 0.0000
# 2 32.9259 132.9202 20.5813 0.0000 0.0000 0.0000
# 3 26.2557 20.5813 112.5669 0.0000 0.0000 0.0000
# 4 0.0000 0.0000 0.0000 45.2776 0.0000 0.0000
# 5 0.0000 0.0000 0.0000 0.0000 41.7156 0.0000
# 6 0.0000 0.0000 0.0000 0.0000 0.0000 41.9534
#
#
#
# Elastic Compliance Matrix: (Units=1/GPa)
#
#
# Indices 1 2 3 4 5 6 
#
# 1 0.027695 -0.006031 -0.005357 0.000000 0.000000 0.000000
# 2 -0.006031 0.009056 -0.000249 0.000000 0.000000 0.000000
# 3 -0.005357 -0.000249 0.010179 0.000000 0.000000 0.000000
# 4 0.000000 0.000000 0.000000 0.022086 0.000000 0.000000
# 5 0.000000 0.000000 0.000000 0.000000 0.023972 0.000000
# 6 0.000000 0.000000 0.000000 0.000000 0.000000 0.023836
#
#
# Mechanical properties :
#
#
# Convention : Reuss Voigt Hill
#
# Bulk Modulus (GPa) = 42.27379 50.37439 46.32409
# Shear Modulus (GPa) = 33.78796 40.06138 36.92467
#
# Velocity S-wave (km/s) = 3.85925 4.20228 4.03441
# Velocity P-wave (km/s) = 6.20426 6.76392 6.49013
#
# Compressibility (1/GPa) = 0.02365532
#
# Stress axis : x y z
#
# Youngs Moduli (GPa) = 36.10807 110.42666 98.24499
#
# Poissons Ratio (x) = 0.66596 0.52630
# Poissons Ratio (y) = 0.21776 0.02447
# Poissons Ratio (z) = 0.19343 0.02750
#
# Static dielectric constant tensor:
#      x y z
#    x 3.954560 0.000000 0.000000 
#    y 0.000000 4.309530 0.000000 
#    z 0.000000 0.000000 4.196120 
# 
# 
# High freq. dielectric constant tensor:
#      x y z
#    x 1.889910 0.000000 0.000000 
#    y 0.000000 1.909620 0.000000 
#    z 0.000000 0.000000 1.906940 
# 
# From -- ./inp_files/10207.got.cif
#   From: 2010.06.25/outbox.cif.g09.slc.cpg/sg43_6_cif.got.tgz:10207.got - 2010.06.26 16:48:59.
