data_PCOD8187146
_publ_section_title
;
Structure prediction by ZEFSAII (Michael W. Deem and Ramdas Pophale) SiO2 
 PCOD8187146
Probable space group: F D D 2
;
_chemical_formula_sum "Si O2"
_cell_formula_units_Z 104
_cell_length_a 23.944961
_cell_length_b 15.519725
_cell_length_c 11.219813
_cell_angle_alpha 90.000000
_cell_angle_beta 90.000000
_cell_angle_gamma 90.000000
_cell_volume 4169.498042
_symmetry_space_group_name_H-M "F D D 2"
_symmetry_group_IT_number 43
_symmetry_cell_setting 'orthorhombic'
loop_
_space_group_symop_operation_xyz
x,y,z
-x,-y,z
1/4-x,1/4+y,1/4+z
1/4+x,1/4-y,1/4+z
x,1/2+y,1/2+z
-x,1/2-y,1/2+z
1/4-x,3/4+y,3/4+z
1/4+x,3/4-y,3/4+z
1/2+x,y,1/2+z
1/2-x,-y,1/2+z
3/4-x,1/4+y,3/4+z
3/4+x,1/4-y,3/4+z
1/2+x,1/2+y,z
1/2-x,1/2-y,z
3/4-x,3/4+y,1/4+z
3/4+x,3/4-y,1/4+z
loop_
_atom_site_type_symbol
_atom_site_label
_atom_site_fract_x
_atom_site_fract_y
_atom_site_fract_z
Si Si1 0.912150 0.597653 0.837110
Si Si2 0.465275 0.833361 0.128582
Si Si3 0.500000 0.500000 0.484511
Si Si4 0.065864 0.253292 0.006519
Si Si5 0.197756 0.693159 0.836674
Si Si6 0.371901 0.666798 0.719241
Si Si7 0.978803 0.597618 0.338345
O O1 0.849031 0.564831 0.853033
O O2 0.948210 0.523801 0.900382
O O3 0.927268 0.611908 0.698644
O O4 0.927525 0.690714 0.888131
O O5 0.505322 0.760805 0.070071
O O6 0.475790 0.840882 0.272474
O O7 0.482399 0.923781 0.070792
O O8 0.115090 0.289275 0.092575
O O9 0.071253 0.152810 0.967420
O O10 0.250000 0.750000 0.877639
O O11 0.145722 0.755628 0.804918
O O12 0.213659 0.629964 0.725809
O O13 0.423465 0.609589 0.760860
O O14 0.000000 0.500000 0.340680
#
# Coordination Sequence:
#
# PCOD8187146 Si02
#       7
#    16  16   8  16  16  16  16
#     4  11  24  45  70 106 146 208 235 320 385 463
#     4  10  22  42  73 102 144 190 262 308 378 452
#     4  10  22  44  66 100 144 190 252 306 378 452
#     4  10  24  44  72 108 143 195 265 307 380 461
#     4  11  25  46  72 104 156 200 248 315 399 441
#     4  11  22  47  72 106 146 201 254 319 370 461
#     4  10  20  41  73 102 139 196 249 308 367 448
#
# _framework density 24.943049999999999
#
# number of rings (size 3 to 8) (size 9 to 14) (size 15 to 20)
#    0.000    1.538    3.077    0.923    6.462    1.231 
#    8.308    0.000    0.000    0.000    0.000    0.000 
#    0.000    0.000    0.000    0.000    0.000    0.000 
#
# Total GULP energy -322338.001662 kJ/mol
# GULP energy per Si atom -12397.615449 kJ/mol
# Density = 2.488628 g / cm^3
# Si number density = 24.943050 Si / 1000 Ang^3
#
#
#
# Elastic Constant Matrix: (Units=GPa)
#
#
# Indices 1 2 3 4 5 6 
#
# 1 132.6953 9.2699 48.3194 0.0000 0.0000 0.0000
# 2 9.2699 63.9952 42.1420 0.0000 0.0000 0.0000
# 3 48.3194 42.1420 179.9389 0.0000 0.0000 0.0000
# 4 0.0000 0.0000 0.0000 20.8168 0.0000 0.0000
# 5 0.0000 0.0000 0.0000 0.0000 41.3818 0.0000
# 6 0.0000 0.0000 0.0000 0.0000 0.0000 30.4897
#
#
#
# Elastic Compliance Matrix: (Units=1/GPa)
#
#
# Indices 1 2 3 4 5 6 
#
# 1 0.008358 0.000316 -0.002318 0.000000 0.000000 0.000000
# 2 0.000316 0.018488 -0.004415 0.000000 0.000000 0.000000
# 3 -0.002318 -0.004415 0.007214 0.000000 0.000000 0.000000
# 4 0.000000 0.000000 0.000000 0.048038 0.000000 0.000000
# 5 0.000000 0.000000 0.000000 0.000000 0.024165 0.000000
# 6 0.000000 0.000000 0.000000 0.000000 0.000000 0.032798
#
#
# Mechanical properties :
#
#
# Convention : Reuss Voigt Hill
#
# Bulk Modulus (GPa) = 47.11314 64.01022 55.56168
# Shear Modulus (GPa) = 31.45240 36.99754 34.22497
#
# Velocity S-wave (km/s) = 3.55486 3.85552 3.70824
# Velocity P-wave (km/s) = 5.98153 6.74820 6.37640
#
# Compressibility (1/GPa) = 0.02122550
#
# Stress axis : x y z
#
# Youngs Moduli (GPa) = 119.64260 54.09047 138.62024
#
# Poissons Ratio (x) = -0.01709 0.32139
# Poissons Ratio (y) = -0.03781 0.61197
# Poissons Ratio (z) = 0.27739 0.23879
#
# Static dielectric constant tensor:
#      x y z
#    x 4.722020 0.000000 0.000000 
#    y 0.000000 4.164940 0.000000 
#    z 0.000000 0.000000 4.763100 
# 
# 
# High freq. dielectric constant tensor:
#      x y z
#    x 2.012680 0.000000 0.000000 
#    y 0.000000 1.979060 0.000000 
#    z 0.000000 0.000000 2.006100 
# 
# From -- ./inp_files/7961.got.cif
#   From: 2010.06.25/outbox.cif.g09.slc.cpg/sg43_4_cif.got.tgz:7961.got - 2010.06.26 16:48:59.
