data_PCOD8187223
_publ_section_title
;
Structure prediction by ZEFSAII (Michael W. Deem and Ramdas Pophale) SiO2 
 PCOD8187223
Probable space group: F D D 2
;
_chemical_formula_sum "Si O2"
_cell_formula_units_Z 80
_cell_length_a 13.743178
_cell_length_b 18.243376
_cell_length_c 14.964004
_cell_angle_alpha 90.000000
_cell_angle_beta 90.000000
_cell_angle_gamma 90.000000
_cell_volume 3751.804468
_symmetry_space_group_name_H-M "F D D 2"
_symmetry_group_IT_number 43
_symmetry_cell_setting 'orthorhombic'
loop_
_space_group_symop_operation_xyz
x,y,z
-x,-y,z
1/4-x,1/4+y,1/4+z
1/4+x,1/4-y,1/4+z
x,1/2+y,1/2+z
-x,1/2-y,1/2+z
1/4-x,3/4+y,3/4+z
1/4+x,3/4-y,3/4+z
1/2+x,y,1/2+z
1/2-x,-y,1/2+z
3/4-x,1/4+y,3/4+z
3/4+x,1/4-y,3/4+z
1/2+x,1/2+y,z
1/2-x,1/2-y,z
3/4-x,3/4+y,1/4+z
3/4+x,3/4-y,1/4+z
loop_
_atom_site_type_symbol
_atom_site_label
_atom_site_fract_x
_atom_site_fract_y
_atom_site_fract_z
Si Si1 0.049899 0.920988 0.289450
Si Si2 0.505495 0.826987 0.956220
Si Si3 0.208583 0.410865 0.383409
Si Si4 0.480632 0.165882 0.435882
Si Si5 0.656205 0.796764 0.094455
O O1 0.009775 0.893031 0.384882
O O2 0.166796 0.923051 0.278519
O O3 0.025397 0.860417 0.215501
O O4 0.000000 0.000000 0.270067
O O5 0.502329 0.748779 0.905922
O O6 0.607199 0.831943 0.007743
O O7 0.274001 0.406077 0.293638
O O8 0.168958 0.493330 0.395636
O O9 0.117517 0.355322 0.384648
O O10 0.569231 0.113653 0.408806
O O11 0.750000 0.750000 0.064071
#
# Coordination Sequence:
#
# PCOD8187223 Si02
#       5
#    16  16  16  16  16
#     4  12  26  43  66 101 143 185 229 281 354 425
#     4  11  26  43  66 101 141 181 225 289 352 421
#     4  10  21  39  66  96 130 164 233 281 333 401
#     4  10  21  41  67  97 125 176 225 289 332 402
#     4   9  22  43  70  98 129 176 237 283 340 409
#
# _framework density 21.323073000000001
#
# number of rings (size 3 to 8) (size 9 to 14) (size 15 to 20)
#    0.000    1.600    2.000    1.200    5.600    8.800 
#    0.000    0.000    0.000    0.000    0.000    0.000 
#    0.000    0.000    0.000    0.000    0.000    0.000 
#
# Total GULP energy -247886.091228 kJ/mol
# GULP energy per Si atom -12394.304561 kJ/mol
# Density = 2.127454 g / cm^3
# Si number density = 21.323073 Si / 1000 Ang^3
#
#
#
# Elastic Constant Matrix: (Units=GPa)
#
#
# Indices 1 2 3 4 5 6 
#
# 1 80.9429 27.6092 25.6033 0.0000 0.0000 0.0000
# 2 27.6092 89.1843 32.8934 0.0000 0.0000 0.0000
# 3 25.6033 32.8934 67.7330 0.0000 0.0000 0.0000
# 4 0.0000 0.0000 0.0000 36.1396 0.0000 0.0000
# 5 0.0000 0.0000 0.0000 0.0000 28.7870 0.0000
# 6 0.0000 0.0000 0.0000 0.0000 0.0000 25.0276
#
#
#
# Elastic Compliance Matrix: (Units=1/GPa)
#
#
# Indices 1 2 3 4 5 6 
#
# 1 0.014680 -0.003043 -0.004071 0.000000 0.000000 0.000000
# 2 -0.003043 0.014290 -0.005789 0.000000 0.000000 0.000000
# 3 -0.004071 -0.005789 0.019114 0.000000 0.000000 0.000000
# 4 0.000000 0.000000 0.000000 0.027670 0.000000 0.000000
# 5 0.000000 0.000000 0.000000 0.000000 0.034738 0.000000
# 6 0.000000 0.000000 0.000000 0.000000 0.000000 0.039956
#
#
# Mechanical properties :
#
#
# Convention : Reuss Voigt Hill
#
# Bulk Modulus (GPa) = 44.88941 45.56357 45.22649
# Shear Modulus (GPa) = 27.22094 28.10781 27.66438
#
# Velocity S-wave (km/s) = 3.57682 3.63462 3.60584
# Velocity P-wave (km/s) = 6.17705 6.24729 6.21227
#
# Compressibility (1/GPa) = 0.02227697
#
# Stress axis : x y z
#
# Youngs Moduli (GPa) = 68.11917 69.97870 52.31655
#
# Poissons Ratio (x) = 0.21294 0.21300
# Poissons Ratio (y) = 0.20729 0.30289
# Poissons Ratio (z) = 0.27734 0.40514
#
# Static dielectric constant tensor:
#      x y z
#    x 4.011640 0.000000 0.000000 
#    y 0.000000 4.037290 0.000000 
#    z 0.000000 0.000000 3.703490 
# 
# 
# High freq. dielectric constant tensor:
#      x y z
#    x 1.846260 0.000000 0.000000 
#    y 0.000000 1.843870 0.000000 
#    z 0.000000 0.000000 1.815460 
# 
# From -- ./inp_files/10001.got.cif
#   From: 2010.06.25/outbox.cif.g09.slc.cpg/sg43_6_cif.got.tgz:10001.got - 2010.06.26 16:48:59.
