data_PCOD8187674
_publ_section_title
;
Structure prediction by ZEFSAII (Michael W. Deem and Ramdas Pophale) SiO2 
 PCOD8187674
Probable space group: F D D 2
;
_chemical_formula_sum "Si O2"
_cell_formula_units_Z 120
_cell_length_a 23.111641
_cell_length_b 8.440455
_cell_length_c 25.380496
_cell_angle_alpha 90.000000
_cell_angle_beta 90.000000
_cell_angle_gamma 90.000000
_cell_volume 4951.043553
_symmetry_space_group_name_H-M "F D D 2"
_symmetry_group_IT_number 43
_symmetry_cell_setting 'orthorhombic'
loop_
_space_group_symop_operation_xyz
x,y,z
-x,-y,z
1/4-x,1/4+y,1/4+z
1/4+x,1/4-y,1/4+z
x,1/2+y,1/2+z
-x,1/2-y,1/2+z
1/4-x,3/4+y,3/4+z
1/4+x,3/4-y,3/4+z
1/2+x,y,1/2+z
1/2-x,-y,1/2+z
3/4-x,1/4+y,3/4+z
3/4+x,1/4-y,3/4+z
1/2+x,1/2+y,z
1/2-x,1/2-y,z
3/4-x,3/4+y,1/4+z
3/4+x,3/4-y,1/4+z
loop_
_atom_site_type_symbol
_atom_site_label
_atom_site_fract_x
_atom_site_fract_y
_atom_site_fract_z
Si Si1 0.500000 0.000000 0.762130
Si Si2 0.035314 0.659351 0.300692
Si Si3 0.350838 0.957695 0.256415
Si Si4 0.421062 0.236307 0.602110
Si Si5 0.100951 0.762183 0.391608
Si Si6 0.565623 0.450330 0.996017
Si Si7 0.046030 0.319728 0.114403
Si Si8 0.405652 0.956558 0.676335
O O1 0.504395 0.831363 0.793635
O O2 0.557236 0.023352 0.728581
O O3 0.089443 0.637401 0.261483
O O4 0.055469 0.649138 0.362082
O O5 0.000000 0.500000 0.289906
O O6 0.326231 0.924233 0.197326
O O7 0.355501 0.148938 0.260822
O O8 0.308719 0.897104 0.302569
O O9 0.365579 0.351150 0.598564
O O10 0.436055 0.164183 0.546076
O O11 0.476967 0.340986 0.621876
O O12 0.398790 0.123239 0.648212
O O13 0.162542 0.673445 0.402494
O O14 0.500000 0.500000 0.981781
O O15 0.593655 0.364828 0.944781
O O16 0.060472 0.140820 0.131327
#
# Coordination Sequence:
#
# PCOD8187674 Si02
#       8
#     8  16  16  16  16  16  16  16
#     4  12  24  48  80 114 144 192 260 324 386 442
#     4  11  27  49  75 108 152 198 250 312 382 464
#     4  11  23  45  69 108 145 191 251 299 377 453
#     4  12  23  45  73 108 143 190 254 321 368 450
#     4  11  26  44  71 104 152 189 242 311 383 448
#     4  12  24  44  74 107 148 201 250 306 392 469
#     4  11  22  44  71 105 138 187 251 304 365 457
#     4  12  23  41  75 113 139 188 255 317 373 447
#
# _framework density 24.237314999999999
#
# number of rings (size 3 to 8) (size 9 to 14) (size 15 to 20)
#    0.000    0.533    5.333    2.800    0.000    1.600 
#    0.000    0.000    5.867    0.000    0.000    0.000 
#    0.000    0.000    0.000    0.000    0.000    0.000 
#
# Total GULP energy -371674.151628 kJ/mol
# GULP energy per Si atom -12389.138388 kJ/mol
# Density = 2.418215 g / cm^3
# Si number density = 24.237315 Si / 1000 Ang^3
#
#
#
# Elastic Constant Matrix: (Units=GPa)
#
#
# Indices 1 2 3 4 5 6 
#
# 1 52.9114 29.4828 28.7949 0.0000 0.0000 -0.0001
# 2 29.4828 80.9493 7.2109 0.0000 0.0000 0.0000
# 3 28.7949 7.2109 117.7938 0.0000 0.0000 0.0000
# 4 0.0000 0.0000 0.0000 37.3794 0.0000 0.0000
# 5 0.0000 0.0000 0.0000 0.0000 25.5855 0.0000
# 6 -0.0001 0.0000 0.0000 0.0000 0.0000 39.0426
#
#
#
# Elastic Compliance Matrix: (Units=1/GPa)
#
#
# Indices 1 2 3 4 5 6 
#
# 1 0.027527 -0.009478 -0.006149 0.000000 0.000000 0.000000
# 2 -0.009478 0.015685 0.001357 0.000000 0.000000 0.000000
# 3 -0.006149 0.001357 0.009909 0.000000 0.000000 0.000000
# 4 0.000000 0.000000 0.000000 0.026753 0.000000 0.000000
# 5 0.000000 0.000000 0.000000 0.000000 0.039085 0.000000
# 6 0.000000 0.000000 0.000000 0.000000 0.000000 0.025613
#
#
# Mechanical properties :
#
#
# Convention : Reuss Voigt Hill
#
# Bulk Modulus (GPa) = 40.68192 42.51463 41.59828
# Shear Modulus (GPa) = 27.57782 32.81254 30.19518
#
# Velocity S-wave (km/s) = 3.37683 3.68340 3.53344
# Velocity P-wave (km/s) = 5.65908 5.97235 5.81782
#
# Compressibility (1/GPa) = 0.02458094
#
# Stress axis : x y z
#
# Youngs Moduli (GPa) = 36.32797 63.75697 100.91380
#
# Poissons Ratio (x) = 0.60429 0.62050
# Poissons Ratio (y) = 0.34432 -0.13692
# Poissons Ratio (z) = 0.22337 -0.08650
#
# Static dielectric constant tensor:
#      x y z
#    x 4.299980 0.000000 0.000000 
#    y 0.000000 4.616110 0.000000 
#    z 0.000000 0.000000 4.227140 
# 
# 
# High freq. dielectric constant tensor:
#      x y z
#    x 1.947200 0.000000 0.000000 
#    y 0.000000 1.976070 0.000000 
#    z 0.000000 0.000000 1.961310 
# 
# From -- ./inp_files/22830.got.cif
#   From: 2010.06.25/outbox.cif.g09.slc.cpg/sg43_12_cif.got.tgz:22830.got - 2010.06.26 16:48:59.
