data_PCOD8187923
_publ_section_title
;
Structure prediction by ZEFSAII (Michael W. Deem and Ramdas Pophale) SiO2 
 PCOD8187923
Probable space group: I M M 2
;
_chemical_formula_sum "Si O2"
_cell_formula_units_Z 64
_cell_length_a 9.071199
_cell_length_b 14.654275
_cell_length_c 28.353698
_cell_angle_alpha 90.000000
_cell_angle_beta 90.000000
_cell_angle_gamma 90.000000
_cell_volume 3769.109380
_symmetry_space_group_name_H-M "I M M 2"
_symmetry_group_IT_number 44
_symmetry_cell_setting 'orthorhombic'
loop_
_space_group_symop_operation_xyz
x,y,z
-x,-y,z
-x,y,z
x,-y,z
1/2+x,1/2+y,1/2+z
1/2-x,1/2-y,1/2+z
1/2-x,1/2+y,1/2+z
1/2+x,1/2-y,1/2+z
loop_
_atom_site_type_symbol
_atom_site_label
_atom_site_fract_x
_atom_site_fract_y
_atom_site_fract_z
Si Si1 0.329930 0.606262 0.790870
Si Si2 0.174109 0.396011 0.067176
Si Si3 0.327829 0.718612 0.145458
Si Si4 0.175108 0.286705 0.873899
Si Si5 0.173505 0.897749 0.731313
Si Si6 0.824979 0.900123 0.835828
Si Si7 0.675029 0.898815 0.461519
Si Si8 0.329690 0.102623 0.194756
O O1 0.500000 0.634891 0.792107
O O2 0.307645 0.500000 0.801397
O O3 0.242212 0.660408 0.830206
O O4 0.266307 0.631122 0.739699
O O5 0.221461 0.500000 0.080426
O O6 0.247343 0.320199 0.099868
O O7 0.000000 0.386383 0.071476
O O8 0.228383 0.373024 0.014053
O O9 0.500000 0.697364 0.139428
O O10 0.261003 0.670027 0.192141
O O11 0.297376 0.827043 0.151848
O O12 0.223860 0.180087 0.871481
O O13 0.236953 0.327103 0.923132
O O14 0.000000 0.297339 0.870650
O O15 0.238345 0.877322 0.783480
O O16 0.000000 0.883945 0.733367
O O17 0.215553 0.000000 0.715848
O O18 0.000000 0.904751 0.832451
O O19 0.765960 0.000000 0.852779
O O20 0.500000 0.898897 0.460872
O O21 0.732800 0.000000 0.448108
O O22 0.500000 0.109965 0.210196
O O23 0.290947 0.000000 0.177409
#
# Coordination Sequence:
#
# PCOD8187923 Si02
#       8
#     8   8   8   8   8   8   8   8
#     4  10  20  31  43  65  98 127 148 179 226 272
#     4   9  18  32  47  64  90 121 149 181 227 281
#     4  10  18  28  46  69  88 111 149 192 227 260
#     4  10  17  27  48  70  87 117 159 193 222 263
#     4   8  13  21  34  56  87 114 133 162 208 256
#     4   8  14  24  39  63  92 116 141 179 222 256
#     4   8  15  28  45  65  88 115 149 187 226 271
#     4   9  18  32  48  66  90 121 156 189 218 257
#
# _framework density 16.980139999999999
#
# number of rings (size 3 to 8) (size 9 to 14) (size 15 to 20)
#    0.000    3.000    0.000    3.375    0.000    4.500 
#    0.000    0.625    0.000    1.875    0.000    1.750 
#    0.000    0.000    0.000    0.000    0.000    0.000 
#
# Total GULP energy -396566.589331 kJ/mol
# GULP energy per Si atom -12392.705917 kJ/mol
# Density = 1.694149 g / cm^3
# Si number density = 16.980140 Si / 1000 Ang^3
#
#
#
# Elastic Constant Matrix: (Units=GPa)
#
#
# Indices 1 2 3 4 5 6 
#
# 1 26.6716 26.6869 23.2586 0.0000 0.0000 0.0000
# 2 26.6869 125.4784 90.2633 0.0000 0.0000 0.0000
# 3 23.2586 90.2633 110.9261 0.0000 0.0000 0.0000
# 4 0.0000 0.0000 0.0000 32.0077 0.0000 0.0000
# 5 0.0000 0.0000 0.0000 0.0000 18.3233 0.0000
# 6 0.0000 0.0000 0.0000 0.0000 0.0000 14.8424
#
#
#
# Elastic Compliance Matrix: (Units=1/GPa)
#
#
# Indices 1 2 3 4 5 6 
#
# 1 0.048456 -0.007228 -0.004279 0.000000 0.000000 0.000000
# 2 -0.007228 0.020298 -0.015002 0.000000 0.000000 0.000000
# 3 -0.004279 -0.015002 0.022119 0.000000 0.000000 0.000000
# 4 0.000000 0.000000 0.000000 0.031242 0.000000 0.000000
# 5 0.000000 0.000000 0.000000 0.000000 0.054575 0.000000
# 6 0.000000 0.000000 0.000000 0.000000 0.000000 0.067374
#
#
# Mechanical properties :
#
#
# Convention : Reuss Voigt Hill
#
# Bulk Modulus (GPa) = 26.41488 60.38818 43.40153
# Shear Modulus (GPa) = 16.14459 21.22584 18.68521
#
# Velocity S-wave (km/s) = 3.08684 3.53943 3.32085
# Velocity P-wave (km/s) = 5.31929 7.23496 6.34978
#
# Compressibility (1/GPa) = 0.03785745
#
# Stress axis : x y z
#
# Youngs Moduli (GPa) = 20.63722 49.26544 45.20936
#
# Poissons Ratio (x) = 0.35608 0.19343
# Poissons Ratio (y) = 0.14916 0.67821
# Poissons Ratio (z) = 0.08830 0.73906
#
# Static dielectric constant tensor:
#      x y z
#    x 2.803860 0.000000 0.000000 
#    y 0.000000 3.538190 0.000000 
#    z 0.000000 0.000000 3.259450 
# 
# 
# High freq. dielectric constant tensor:
#      x y z
#    x 1.613590 0.000000 0.000000 
#    y 0.000000 1.661430 0.000000 
#    z 0.000000 0.000000 1.637190 
# 
# From -- ./inp_files/27338.got.cif
#   From: 2010.03.12/outbox.cif.g09.slc.cpg/sg44_14_cif.got.tgz:27338.got - 2010.04.14 02:36:11.
