data_PCOD8187072
_publ_section_title
;
Structure prediction by ZEFSAII (Michael W. Deem and Ramdas Pophale) SiO2 
 PCOD8187072
Probable space group: F D D 2
;
_chemical_formula_sum "Si O2"
_cell_formula_units_Z 64
_cell_length_a 12.067726
_cell_length_b 14.795499
_cell_length_c 12.251790
_cell_angle_alpha 90.000000
_cell_angle_beta 90.000000
_cell_angle_gamma 90.000000
_cell_volume 2187.532944
_symmetry_space_group_name_H-M "F D D 2"
_symmetry_group_IT_number 43
_symmetry_cell_setting 'orthorhombic'
loop_
_space_group_symop_operation_xyz
x,y,z
-x,-y,z
1/4-x,1/4+y,1/4+z
1/4+x,1/4-y,1/4+z
x,1/2+y,1/2+z
-x,1/2-y,1/2+z
1/4-x,3/4+y,3/4+z
1/4+x,3/4-y,3/4+z
1/2+x,y,1/2+z
1/2-x,-y,1/2+z
3/4-x,1/4+y,3/4+z
3/4+x,1/4-y,3/4+z
1/2+x,1/2+y,z
1/2-x,1/2-y,z
3/4-x,3/4+y,1/4+z
3/4+x,3/4-y,1/4+z
loop_
_atom_site_type_symbol
_atom_site_label
_atom_site_fract_x
_atom_site_fract_y
_atom_site_fract_z
Si Si1 0.250000 0.250000 0.647550
Si Si2 0.750000 0.750000 0.916451
Si Si3 0.636891 0.660366 0.460593
Si Si4 0.578339 0.612417 0.858580
Si Si5 0.859496 0.560025 0.470473
O O1 0.354707 0.277784 0.569479
O O2 0.206509 0.331067 0.727049
O O3 0.704860 0.833895 0.986783
O O4 0.643261 0.708453 0.850818
O O5 0.758848 0.623349 0.439930
O O6 0.606495 0.713529 0.350030
O O7 0.470096 0.614894 0.936147
O O8 0.656363 0.533583 0.907121
#
# Coordination Sequence:
#
# PCOD8187072 Si02
#       5
#     8   8  16  16  16
#     4  10  22  41  68  99 132 174 224 280 334 401
#     4  10  22  41  68  97 136 176 224 276 336 399
#     4  10  20  38  66  95 132 175 225 273 332 401
#     4  10  20  37  64  96 130 173 222 275 328 397
#     4   9  18  36  62  96 128 175 223 270 325 408
#
# _framework density 29.256703000000002
#
# number of rings (size 3 to 8) (size 9 to 14) (size 15 to 20)
#    0.000    2.500    0.000    4.500    0.000    4.000 
#    0.000   15.000    0.000   21.000    0.000    3.500 
#    0.000    0.000    0.000    0.000    0.000    0.000 
#
# Total GULP energy -198334.440437 kJ/mol
# GULP energy per Si atom -12395.902527 kJ/mol
# Density = 2.919011 g / cm^3
# Si number density = 29.256703 Si / 1000 Ang^3
#
#
#
# Elastic Constant Matrix: (Units=GPa)
#
#
# Indices 1 2 3 4 5 6 
#
# 1 77.4428 12.2512 7.3813 0.0000 0.0000 0.0000
# 2 12.2512 47.8316 17.5753 0.0000 0.0000 0.0000
# 3 7.3813 17.5753 118.0306 0.0000 0.0000 0.0000
# 4 0.0000 0.0000 0.0000 38.4882 0.0000 0.0000
# 5 0.0000 0.0000 0.0000 0.0000 17.5452 0.0000
# 6 0.0000 0.0000 0.0000 0.0000 0.0000 77.1957
#
#
#
# Elastic Compliance Matrix: (Units=1/GPa)
#
#
# Indices 1 2 3 4 5 6 
#
# 1 0.013472 -0.003323 -0.000348 0.000000 0.000000 0.000000
# 2 -0.003323 0.022936 -0.003208 0.000000 0.000000 0.000000
# 3 -0.000348 -0.003208 0.008972 0.000000 0.000000 0.000000
# 4 0.000000 0.000000 0.000000 0.025982 0.000000 0.000000
# 5 0.000000 0.000000 0.000000 0.000000 0.056996 0.000000
# 6 0.000000 0.000000 0.000000 0.000000 0.000000 0.012954
#
#
# Mechanical properties :
#
#
# Convention : Reuss Voigt Hill
#
# Bulk Modulus (GPa) = 31.62187 35.30228 33.46208
# Shear Modulus (GPa) = 30.19171 40.38563 35.28867
#
# Velocity S-wave (km/s) = 3.21590 3.71939 3.47677
# Velocity P-wave (km/s) = 4.96198 5.52610 5.25162
#
# Compressibility (1/GPa) = 0.03162368
#
# Stress axis : x y z
#
# Youngs Moduli (GPa) = 74.23053 43.59898 111.46113
#
# Poissons Ratio (x) = 0.14487 0.03876
# Poissons Ratio (y) = 0.24665 0.35751
# Poissons Ratio (z) = 0.02581 0.13984
#
# Static dielectric constant tensor:
#      x y z
#    x 5.966690 0.000000 0.000000 
#    y 0.000000 5.541620 0.000000 
#    z 0.000000 0.000000 5.665900 
# 
# 
# High freq. dielectric constant tensor:
#      x y z
#    x 2.193870 0.000000 0.000000 
#    y 0.000000 2.184760 0.000000 
#    z 0.000000 0.000000 2.201810 
# 
# From -- ./inp_files/9410.got.cif
#   From: 2010.06.25/outbox.cif.g09.slc.cpg/sg43_5_cif.got.tgz:9410.got - 2010.06.26 16:48:59.
