data_PCOD8187889
_publ_section_title
;
Structure prediction by ZEFSAII (Michael W. Deem and Ramdas Pophale) SiO2 
 PCOD8187889
Probable space group: I M M 2
;
_chemical_formula_sum "Si O2"
_cell_formula_units_Z 64
_cell_length_a 8.910525
_cell_length_b 26.186337
_cell_length_c 18.425183
_cell_angle_alpha 90.000000
_cell_angle_beta 90.000000
_cell_angle_gamma 90.000000
_cell_volume 4299.221844
_symmetry_space_group_name_H-M "I M M 2"
_symmetry_group_IT_number 44
_symmetry_cell_setting 'orthorhombic'
loop_
_space_group_symop_operation_xyz
x,y,z
-x,-y,z
-x,y,z
x,-y,z
1/2+x,1/2+y,1/2+z
1/2-x,1/2-y,1/2+z
1/2-x,1/2+y,1/2+z
1/2+x,1/2-y,1/2+z
loop_
_atom_site_type_symbol
_atom_site_label
_atom_site_fract_x
_atom_site_fract_y
_atom_site_fract_z
Si Si1 0.176859 0.345695 0.933240
Si Si2 0.677630 0.747034 0.850086
Si Si3 0.175959 0.150230 0.114855
Si Si4 0.673782 0.058913 0.187572
Si Si5 0.165144 0.694151 0.485433
Si Si6 0.321786 0.756737 0.197088
Si Si7 0.664982 0.697270 0.061502
Si Si8 0.822101 0.555702 0.851195
O O1 0.256551 0.305075 0.881868
O O2 0.233175 0.401373 0.907304
O O3 0.000000 0.338848 0.924887
O O4 0.221963 0.339636 0.017944
O O5 0.500000 0.740306 0.842126
O O6 0.716904 0.795490 0.902314
O O7 0.751753 0.758809 0.773321
O O8 0.225696 0.093140 0.134578
O O9 0.257432 0.189698 0.168553
O O10 0.000000 0.157084 0.124132
O O11 0.218830 0.159536 0.030309
O O12 0.500000 0.074452 0.179052
O O13 0.730920 0.068775 0.269652
O O14 0.697870 0.000000 0.165871
O O15 0.153882 0.749430 0.520704
O O16 0.000000 0.668225 0.487649
O O17 0.500000 0.763141 0.203086
O O18 0.278452 0.710007 0.142872
O O19 0.500000 0.671534 0.063224
O O20 0.758202 0.500000 0.874956
O O21 0.000000 0.552970 0.850040
#
# Coordination Sequence:
#
# PCOD8187889 Si02
#       8
#     8   8   8   8   8   8   8   8
#     4  10  17  25  42  62  80 108 140 168 200 242
#     4  10  19  29  42  61  84 107 133 171 210 242
#     4  11  20  28  42  62  84 110 140 175 208 239
#     4   9  17  30  46  60  79 111 145 174 207 247
#     4   8  16  30  43  56  79 109 136 163 201 248
#     4  10  19  30  43  58  80 111 142 169 201 246
#     4   8  16  29  41  55  79 108 135 168 204 237
#     4   8  15  27  41  58  79 104 137 172 201 232
#
# _framework density 14.886415
#
# number of rings (size 3 to 8) (size 9 to 14) (size 15 to 20)
#    0.000    2.750    0.000    5.250    0.000    6.750 
#    0.000    0.625    0.000    3.000    0.000    0.000 
#    0.000    1.000    0.000    5.500    0.000    3.750 
#
# Total GULP energy -396611.032208 kJ/mol
# GULP energy per Si atom -12394.094757 kJ/mol
# Density = 1.485253 g / cm^3
# Si number density = 14.886415 Si / 1000 Ang^3
#
#
#
# Elastic Constant Matrix: (Units=GPa)
#
#
# Indices 1 2 3 4 5 6 
#
# 1 77.4805 37.2291 48.9242 0.0000 0.0000 0.0000
# 2 37.2291 72.8355 51.6075 -0.0001 0.0000 0.0000
# 3 48.9242 51.6075 116.9633 0.0000 -0.0001 0.0000
# 4 0.0000 -0.0001 0.0000 20.3404 0.0000 0.0000
# 5 0.0000 0.0000 -0.0001 0.0000 24.3813 0.0000
# 6 0.0000 0.0000 0.0000 0.0000 0.0000 17.4703
#
#
#
# Elastic Compliance Matrix: (Units=1/GPa)
#
#
# Indices 1 2 3 4 5 6 
#
# 1 0.019183 -0.005994 -0.005380 0.000000 0.000000 0.000000
# 2 -0.005994 0.021847 -0.007132 0.000000 0.000000 0.000000
# 3 -0.005380 -0.007132 0.013947 0.000000 0.000000 0.000000
# 4 0.000000 0.000000 0.000000 0.049163 0.000000 0.000000
# 5 0.000000 0.000000 0.000000 0.000000 0.041015 0.000000
# 6 0.000000 0.000000 0.000000 0.000000 0.000000 0.057240
#
#
# Mechanical properties :
#
#
# Convention : Reuss Voigt Hill
#
# Bulk Modulus (GPa) = 55.66121 60.31121 57.98621
# Shear Modulus (GPa) = 20.37534 21.07298 20.72416
#
# Velocity S-wave (km/s) = 3.70364 3.76651 3.73520
# Velocity P-wave (km/s) = 7.46733 7.71477 7.59206
#
# Compressibility (1/GPa) = 0.01796583
#
# Stress axis : x y z
#
# Youngs Moduli (GPa) = 52.12885 45.77344 71.70077
#
# Poissons Ratio (x) = 0.27435 0.38572
# Poissons Ratio (y) = 0.31244 0.51139
# Poissons Ratio (z) = 0.28043 0.32647
#
# Static dielectric constant tensor:
#      x y z
#    x 2.846830 0.000000 0.000000 
#    y 0.000000 2.793710 0.000000 
#    z 0.000000 0.000000 3.218770 
# 
# 
# High freq. dielectric constant tensor:
#      x y z
#    x 1.569400 0.000000 0.000000 
#    y 0.000000 1.533560 0.000000 
#    z 0.000000 0.000000 1.563320 
# 
# From -- ./inp_files/20926.got.cif
#   From: 2010.03.12/outbox.cif.g09.slc.cpg/sg44_11_cif.got.tgz:20926.got - 2010.04.14 02:36:11.
