data_PCOD8187155
_publ_section_title
;
Structure prediction by ZEFSAII (Michael W. Deem and Ramdas Pophale) SiO2 
 PCOD8187155
Probable space group: F D D 2
;
_chemical_formula_sum "Si O2"
_cell_formula_units_Z 104
_cell_length_a 23.395629
_cell_length_b 25.852745
_cell_length_c 7.687740
_cell_angle_alpha 90.000000
_cell_angle_beta 90.000000
_cell_angle_gamma 90.000000
_cell_volume 4649.862123
_symmetry_space_group_name_H-M "F D D 2"
_symmetry_group_IT_number 43
_symmetry_cell_setting 'orthorhombic'
loop_
_space_group_symop_operation_xyz
x,y,z
-x,-y,z
1/4-x,1/4+y,1/4+z
1/4+x,1/4-y,1/4+z
x,1/2+y,1/2+z
-x,1/2-y,1/2+z
1/4-x,3/4+y,3/4+z
1/4+x,3/4-y,3/4+z
1/2+x,y,1/2+z
1/2-x,-y,1/2+z
3/4-x,1/4+y,3/4+z
3/4+x,1/4-y,3/4+z
1/2+x,1/2+y,z
1/2-x,1/2-y,z
3/4-x,3/4+y,1/4+z
3/4+x,3/4-y,1/4+z
loop_
_atom_site_type_symbol
_atom_site_label
_atom_site_fract_x
_atom_site_fract_y
_atom_site_fract_z
Si Si1 0.923916 0.744832 0.008260
Si Si2 0.500000 0.500000 0.319275
Si Si3 0.722729 0.670067 0.309883
Si Si4 0.026982 0.593768 0.022361
Si Si5 0.911959 0.416913 0.375530
Si Si6 0.003706 0.679309 0.755321
Si Si7 0.409525 0.576194 0.711745
O O1 0.893604 0.703243 0.132924
O O2 0.957299 0.784652 0.133786
O O3 0.962948 0.717791 0.863172
O O4 0.870469 0.772192 0.908611
O O5 0.541300 0.461729 0.209458
O O6 0.539763 0.538370 0.432849
O O7 0.784745 0.687779 0.235366
O O8 0.719741 0.611056 0.380925
O O9 0.677289 0.677679 0.161181
O O10 0.070375 0.598477 0.179977
O O11 0.960624 0.592527 0.084628
O O12 0.037563 0.642677 0.894213
O O13 0.893056 0.364924 0.466444
#
# Coordination Sequence:
#
# PCOD8187155 Si02
#       7
#    16   8  16  16  16  16  16
#     4  12  26  43  67 106 134 185 221 286 348 402
#     4  10  20  42  66  96 136 170 218 286 340 376
#     4  10  23  46  70 100 135 179 231 290 328 415
#     4  10  23  46  70 100 135 179 231 290 328 415
#     4  11  23  44  71  96 132 182 233 276 341 401
#     4  11  26  43  68 100 146 175 228 285 344 404
#     4  11  23  44  71  96 132 182 233 276 341 401
#
# _framework density 22.366254000000001
#
# number of rings (size 3 to 8) (size 9 to 14) (size 15 to 20)
#    0.000    1.231    3.077    1.846    4.308    3.692 
#    5.538    1.538    0.000    0.000    0.000    0.000 
#    0.000    0.000    0.000    0.000    0.000    0.000 
#
# Total GULP energy -322217.416015 kJ/mol
# GULP energy per Si atom -12392.977539 kJ/mol
# Density = 2.231535 g / cm^3
# Si number density = 22.366254 Si / 1000 Ang^3
#
#
#
# Elastic Constant Matrix: (Units=GPa)
#
#
# Indices 1 2 3 4 5 6 
#
# 1 82.9545 49.9937 37.6522 -0.0038 0.0069 0.0103
# 2 49.9937 132.3080 86.7049 -0.0001 0.0033 0.0026
# 3 37.6522 86.7049 292.2683 0.0891 -0.0459 0.0253
# 4 -0.0038 -0.0001 0.0891 32.9933 0.0200 0.0099
# 5 0.0069 0.0033 -0.0459 0.0200 16.1054 -0.0085
# 6 0.0103 0.0026 0.0253 0.0099 -0.0085 36.1843
#
#
#
# Elastic Compliance Matrix: (Units=1/GPa)
#
#
# Indices 1 2 3 4 5 6 
#
# 1 0.015634 -0.005695 -0.000325 0.000003 -0.000006 -0.000004
# 2 -0.005695 0.011456 -0.002665 0.000007 -0.000007 0.000003
# 3 -0.000325 -0.002665 0.004254 -0.000012 0.000013 -0.000003
# 4 0.000003 0.000007 -0.000012 0.030309 -0.000038 -0.000008
# 5 -0.000006 -0.000007 0.000013 -0.000038 0.062091 0.000015
# 6 -0.000004 0.000003 -0.000003 -0.000008 0.000015 0.027636
#
#
# Mechanical properties :
#
#
# Convention : Reuss Voigt Hill
#
# Bulk Modulus (GPa) = 71.55326 95.13695 83.34511
# Shear Modulus (GPa) = 28.83361 39.26860 34.05110
#
# Velocity S-wave (km/s) = 3.59438 4.19466 3.90607
# Velocity P-wave (km/s) = 7.02048 8.12948 7.59525
#
# Compressibility (1/GPa) = 0.01397560
#
# Stress axis : x y z
#
# Youngs Moduli (GPa) = 63.96236 87.28750 235.07466
#
# Poissons Ratio (x) = 0.49708 0.07633
# Poissons Ratio (y) = 0.36425 0.62648
# Poissons Ratio (z) = 0.02077 0.23262
#
# Static dielectric constant tensor:
#      x y z
#    x 3.745600 0.000070 0.000010 
#    y 0.000070 4.553670 -0.000450 
#    z 0.000010 -0.000450 4.102950 
# 
# 
# High freq. dielectric constant tensor:
#      x y z
#    x 1.859260 0.000000 0.000000 
#    y 0.000000 1.903470 0.000000 
#    z 0.000000 0.000000 1.888880 
# 
# From -- ./inp_files/3831.got.cif
#   From: 2010.06.25/outbox.cif.g09.slc.cpg/sg43_2_cif.got.tgz:3831.got - 2010.06.26 16:48:59.
