data_PCOD8187894
_publ_section_title
;
Structure prediction by ZEFSAII (Michael W. Deem and Ramdas Pophale) SiO2 
 PCOD8187894
Probable space group: I M M 2
;
_chemical_formula_sum "Si O2"
_cell_formula_units_Z 56
_cell_length_a 8.814563
_cell_length_b 22.657817
_cell_length_c 17.788969
_cell_angle_alpha 90.000000
_cell_angle_beta 90.000000
_cell_angle_gamma 90.000000
_cell_volume 3552.790748
_symmetry_space_group_name_H-M "I M M 2"
_symmetry_group_IT_number 44
_symmetry_cell_setting 'orthorhombic'
loop_
_space_group_symop_operation_xyz
x,y,z
-x,-y,z
-x,y,z
x,-y,z
1/2+x,1/2+y,1/2+z
1/2-x,1/2-y,1/2+z
1/2-x,1/2+y,1/2+z
1/2+x,1/2-y,1/2+z
loop_
_atom_site_type_symbol
_atom_site_label
_atom_site_fract_x
_atom_site_fract_y
_atom_site_fract_z
Si Si1 0.326645 0.722470 0.748430
Si Si2 0.821716 0.285041 0.899327
Si Si3 0.825487 0.198367 0.087849
Si Si4 0.319265 0.433375 0.313811
Si Si5 0.678316 0.147209 0.691168
Si Si6 0.324382 0.654246 0.436224
Si Si7 0.677227 0.683071 0.044919
O O1 0.500000 0.720807 0.775325
O O2 0.224235 0.696242 0.815007
O O3 0.301248 0.680140 0.674911
O O4 0.278903 0.789071 0.726263
O O5 0.760764 0.218096 0.911229
O O6 0.000000 0.290490 0.909941
O O7 0.743285 0.327779 0.960916
O O8 0.709443 0.249684 0.067484
O O9 0.000000 0.222117 0.078499
O O10 0.797179 0.145797 0.026809
O O11 0.500000 0.432384 0.311117
O O12 0.258107 0.500000 0.319482
O O13 0.256594 0.403960 0.238675
O O14 0.251705 0.398248 0.386828
O O15 0.500000 0.137178 0.690038
O O16 0.741490 0.141325 0.606238
O O17 0.500000 0.653574 0.416643
O O18 0.500000 0.669571 0.045273
#
# Coordination Sequence:
#
# PCOD8187894 Si02
#       7
#     8   8   8   8   8   8   8
#     4   9  16  25  39  60  83 108 140 177 211 253
#     4  10  17  26  41  59  84 114 142 169 209 261
#     4   8  15  27  40  57  81 110 143 174 211 258
#     4  10  19  30  45  65  86 113 154 193 222 254
#     4  10  19  31  44  58  83 114 147 181 220 262
#     4   8  14  26  41  56  79 112 143 175 216 253
#     4  10  18  27  41  60  82 107 141 176 213 257
#
# _framework density 15.762257
#
# number of rings (size 3 to 8) (size 9 to 14) (size 15 to 20)
#    0.000    2.714    1.429    3.857    0.000    2.571 
#    0.000    0.000    0.000    0.000    0.000    0.000 
#    0.000    1.143    0.000    8.571    0.000    2.000 
#
# Total GULP energy -346928.702575 kJ/mol
# GULP energy per Si atom -12390.310806 kJ/mol
# Density = 1.572638 g / cm^3
# Si number density = 15.762257 Si / 1000 Ang^3
#
#
#
# Elastic Constant Matrix: (Units=GPa)
#
#
# Indices 1 2 3 4 5 6 
#
# 1 39.3898 10.6682 28.1915 0.0000 0.0000 0.0000
# 2 10.6682 50.8149 42.4406 0.0000 0.0000 0.0000
# 3 28.1915 42.4406 150.3210 -0.0001 0.0000 0.0000
# 4 0.0000 0.0000 -0.0001 15.8274 0.0000 0.0000
# 5 0.0000 0.0000 0.0000 0.0000 26.6624 0.0000
# 6 0.0000 0.0000 0.0000 0.0000 0.0000 11.3839
#
#
#
# Elastic Compliance Matrix: (Units=1/GPa)
#
#
# Indices 1 2 3 4 5 6 
#
# 1 0.029487 -0.002057 -0.004949 0.000000 0.000000 0.000000
# 2 -0.002057 0.025895 -0.006925 0.000000 0.000000 0.000000
# 3 -0.004949 -0.006925 0.009536 0.000000 0.000000 0.000000
# 4 0.000000 0.000000 0.000000 0.063182 0.000000 0.000000
# 5 0.000000 0.000000 0.000000 0.000000 0.037506 0.000000
# 6 0.000000 0.000000 0.000000 0.000000 0.000000 0.087843
#
#
# Mechanical properties :
#
#
# Convention : Reuss Voigt Hill
#
# Bulk Modulus (GPa) = 26.98715 44.79181 35.88948
# Shear Modulus (GPa) = 17.02633 21.38978 19.20805
#
# Velocity S-wave (km/s) = 3.29020 3.68778 3.49465
# Velocity P-wave (km/s) = 5.62071 6.82728 6.25317
#
# Compressibility (1/GPa) = 0.03705468
#
# Stress axis : x y z
#
# Youngs Moduli (GPa) = 33.91378 38.61740 104.86734
#
# Poissons Ratio (x) = 0.07943 0.51901
# Poissons Ratio (y) = 0.06976 0.72624
# Poissons Ratio (z) = 0.16785 0.26744
#
# Static dielectric constant tensor:
#      x y z
#    x 2.851080 0.000000 0.000000 
#    y 0.000000 2.603270 0.000000 
#    z 0.000000 0.000000 3.438460 
# 
# 
# High freq. dielectric constant tensor:
#      x y z
#    x 1.599210 0.000000 0.000000 
#    y 0.000000 1.525810 0.000000 
#    z 0.000000 0.000000 1.627720 
# 
# From -- ./inp_files/20657.got.cif
#   From: 2010.03.12/outbox.cif.g09.slc.cpg/sg44_11_cif.got.tgz:20657.got - 2010.04.14 02:36:11.
