data_PCOD8187266
_publ_section_title
;
Structure prediction by ZEFSAII (Michael W. Deem and Ramdas Pophale) SiO2 
 PCOD8187266
Probable space group: F D D 2
;
_chemical_formula_sum "Si O2"
_cell_formula_units_Z 112
_cell_length_a 10.675374
_cell_length_b 33.153422
_cell_length_c 13.662580
_cell_angle_alpha 90.000000
_cell_angle_beta 90.000000
_cell_angle_gamma 90.000000
_cell_volume 4835.531075
_symmetry_space_group_name_H-M "F D D 2"
_symmetry_group_IT_number 43
_symmetry_cell_setting 'orthorhombic'
loop_
_space_group_symop_operation_xyz
x,y,z
-x,-y,z
1/4-x,1/4+y,1/4+z
1/4+x,1/4-y,1/4+z
x,1/2+y,1/2+z
-x,1/2-y,1/2+z
1/4-x,3/4+y,3/4+z
1/4+x,3/4-y,3/4+z
1/2+x,y,1/2+z
1/2-x,-y,1/2+z
3/4-x,1/4+y,3/4+z
3/4+x,1/4-y,3/4+z
1/2+x,1/2+y,z
1/2-x,1/2-y,z
3/4-x,3/4+y,1/4+z
3/4+x,3/4-y,1/4+z
loop_
_atom_site_type_symbol
_atom_site_label
_atom_site_fract_x
_atom_site_fract_y
_atom_site_fract_z
Si Si1 0.377797 0.655578 0.853410
Si Si2 0.149343 0.173431 0.498544
Si Si3 0.198848 0.012922 0.752624
Si Si4 0.373175 0.980009 0.034852
Si Si5 0.875367 0.975782 0.957664
Si Si6 0.189220 0.345516 0.668368
Si Si7 0.722526 0.420168 0.775791
O O1 0.370527 0.682579 0.757708
O O2 0.385475 0.608628 0.819725
O O3 0.508488 0.663664 0.909420
O O4 0.266043 0.669445 0.925615
O O5 0.047256 0.139390 0.468329
O O6 0.182705 0.168112 0.614411
O O7 0.086636 0.217634 0.487112
O O8 0.122931 0.017003 0.652515
O O9 0.126772 0.034636 0.841676
O O10 0.204543 0.967285 0.793767
O O11 0.500000 0.000000 0.993199
O O12 0.382753 0.933791 0.001318
O O13 0.248405 0.999896 0.991322
O O14 0.000000 0.000000 0.986941
O O15 0.093661 0.347736 0.578789
#
# Coordination Sequence:
#
# PCOD8187266 Si02
#       7
#    16  16  16  16  16  16  16
#     4  10  23  42  66 102 135 191 238 293 353 431
#     4  10  22  41  71 103 141 190 246 301 358 438
#     4  12  24  44  66 107 143 185 236 301 369 429
#     4  12  25  45  71 101 145 190 241 300 368 434
#     4  12  26  44  72 101 140 187 245 298 361 433
#     4  10  21  41  71 102 139 192 246 302 357 437
#     4  10  22  40  69  99 140 180 241 293 353 427
#
# _framework density 23.161883
#
# number of rings (size 3 to 8) (size 9 to 14) (size 15 to 20)
#    0.000    1.143    2.857    3.000    2.000    3.429 
#    2.571    0.000    0.000    0.000    0.000    0.000 
#    0.000    0.000    0.000    0.000    0.000    0.000 
#
# Total GULP energy -347033.260588 kJ/mol
# GULP energy per Si atom -12394.045021 kJ/mol
# Density = 2.310917 g / cm^3
# Si number density = 23.161883 Si / 1000 Ang^3
#
#
#
# Elastic Constant Matrix: (Units=GPa)
#
#
# Indices 1 2 3 4 5 6 
#
# 1 82.7730 21.6324 22.9553 0.0000 0.0000 0.0000
# 2 21.6324 128.6924 44.6050 0.0000 0.0000 0.0000
# 3 22.9553 44.6050 121.7302 0.0000 0.0000 0.0000
# 4 0.0000 0.0000 0.0000 32.4188 0.0000 0.0000
# 5 0.0000 0.0000 0.0000 0.0000 32.5127 0.0000
# 6 0.0000 0.0000 0.0000 0.0000 0.0000 24.8833
#
#
#
# Elastic Compliance Matrix: (Units=1/GPa)
#
#
# Indices 1 2 3 4 5 6 
#
# 1 0.013006 -0.001531 -0.001892 0.000000 0.000000 0.000000
# 2 -0.001531 0.009081 -0.003039 0.000000 0.000000 0.000000
# 3 -0.001892 -0.003039 0.009685 0.000000 0.000000 0.000000
# 4 0.000000 0.000000 0.000000 0.030846 0.000000 0.000000
# 5 0.000000 0.000000 0.000000 0.000000 0.030757 0.000000
# 6 0.000000 0.000000 0.000000 0.000000 0.000000 0.040188
#
#
# Mechanical properties :
#
#
# Convention : Reuss Voigt Hill
#
# Bulk Modulus (GPa) = 53.05125 56.84232 54.94679
# Shear Modulus (GPa) = 32.72920 34.22981 33.47950
#
# Velocity S-wave (km/s) = 3.76315 3.84845 3.80604
# Velocity P-wave (km/s) = 6.46808 6.65898 6.56422
#
# Compressibility (1/GPa) = 0.01884970
#
# Stress axis : x y z
#
# Youngs Moduli (GPa) = 76.88838 110.11974 103.25072
#
# Poissons Ratio (x) = 0.16854 0.19533
# Poissons Ratio (y) = 0.11768 0.31377
# Poissons Ratio (z) = 0.14545 0.33464
#
# Static dielectric constant tensor:
#      x y z
#    x 3.994370 0.000000 0.000000 
#    y 0.000000 4.097260 0.000000 
#    z 0.000000 0.000000 4.478470 
# 
# 
# High freq. dielectric constant tensor:
#      x y z
#    x 1.889470 0.000000 0.000000 
#    y 0.000000 1.916600 0.000000 
#    z 0.000000 0.000000 1.931770 
# 
# From -- ./inp_files/9780.got.cif
#   From: 2010.06.25/outbox.cif.g09.slc.cpg/sg43_5_cif.got.tgz:9780.got - 2010.06.26 16:48:59.
