data_PCOD8187052
_publ_section_title
;
Structure prediction by ZEFSAII (Michael W. Deem and Ramdas Pophale) SiO2 
 PCOD8187052
Probable space group: F D D 2
;
_chemical_formula_sum "Si O2"
_cell_formula_units_Z 112
_cell_length_a 14.090046
_cell_length_b 13.109131
_cell_length_c 27.055212
_cell_angle_alpha 90.000000
_cell_angle_beta 90.000000
_cell_angle_gamma 90.000000
_cell_volume 4997.321100
_symmetry_space_group_name_H-M "F D D 2"
_symmetry_group_IT_number 43
_symmetry_cell_setting 'orthorhombic'
loop_
_space_group_symop_operation_xyz
x,y,z
-x,-y,z
1/4-x,1/4+y,1/4+z
1/4+x,1/4-y,1/4+z
x,1/2+y,1/2+z
-x,1/2-y,1/2+z
1/4-x,3/4+y,3/4+z
1/4+x,3/4-y,3/4+z
1/2+x,y,1/2+z
1/2-x,-y,1/2+z
3/4-x,1/4+y,3/4+z
3/4+x,1/4-y,3/4+z
1/2+x,1/2+y,z
1/2-x,1/2-y,z
3/4-x,3/4+y,1/4+z
3/4+x,3/4-y,1/4+z
loop_
_atom_site_type_symbol
_atom_site_label
_atom_site_fract_x
_atom_site_fract_y
_atom_site_fract_z
Si Si1 0.106628 0.010990 0.937690
Si Si2 0.613122 0.840488 0.291755
Si Si3 0.337139 0.312897 0.490165
Si Si4 0.661580 0.470666 0.652525
Si Si5 0.447000 0.706016 0.504347
Si Si6 0.845236 0.021676 0.543906
Si Si7 0.382450 0.946465 0.648704
O O1 0.147935 0.115937 0.913513
O O2 0.168465 0.911844 0.922360
O O3 0.104423 0.019289 0.996992
O O4 0.000000 0.000000 0.918118
O O5 0.498967 0.840437 0.295383
O O6 0.661484 0.794169 0.341353
O O7 0.646022 0.957247 0.286351
O O8 0.250000 0.250000 0.515955
O O9 0.440270 0.269479 0.505624
O O10 0.330241 0.430582 0.505102
O O11 0.327680 0.293199 0.430343
O O12 0.650229 0.547131 0.699078
O O13 0.630682 0.518932 0.599702
O O14 0.770571 0.441989 0.652059
O O15 0.431460 0.594010 0.527016
#
# Coordination Sequence:
#
# PCOD8187052 Si02
#       7
#    16  16  16  16  16  16  16
#     4   9  16  31  55  83 114 145 189 248 298 347
#     4  10  20  35  63  93 116 150 203 261 310 360
#     4  11  24  42  59  84 128 169 204 246 302 373
#     4   8  18  35  59  87 118 153 196 250 305 355
#     4  10  21  41  64  91 120 157 205 258 310 362
#     4  11  21  39  63  89 123 161 200 251 309 368
#     4   9  18  35  56  83 116 157 202 246 298 359
#
# _framework density 22.412008
#
# number of rings (size 3 to 8) (size 9 to 14) (size 15 to 20)
#    0.000    2.286    0.000    3.429    0.000    2.857 
#    0.000   17.143    0.000    0.000    0.000    0.000 
#    0.000    0.000    0.000    0.000    0.000    0.000 
#
# Total GULP energy -346926.836683 kJ/mol
# GULP energy per Si atom -12390.244167 kJ/mol
# Density = 2.236100 g / cm^3
# Si number density = 22.412008 Si / 1000 Ang^3
#
#
#
# Elastic Constant Matrix: (Units=GPa)
#
#
# Indices 1 2 3 4 5 6 
#
# 1 67.3372 30.8048 23.9936 0.0000 0.0000 0.0000
# 2 30.8048 106.2613 66.6353 0.0000 0.0000 0.0000
# 3 23.9936 66.6353 151.4849 0.0000 0.0000 0.0000
# 4 0.0000 0.0000 0.0000 31.2806 0.0000 0.0000
# 5 0.0000 0.0000 0.0000 0.0000 19.4097 0.0000
# 6 0.0000 0.0000 0.0000 0.0000 0.0000 27.3425
#
#
#
# Elastic Compliance Matrix: (Units=1/GPa)
#
#
# Indices 1 2 3 4 5 6 
#
# 1 0.017180 -0.004521 -0.000732 0.000000 0.000000 0.000000
# 2 -0.004521 0.014185 -0.005524 0.000000 0.000000 0.000000
# 3 -0.000732 -0.005524 0.009147 0.000000 0.000000 0.000000
# 4 0.000000 0.000000 0.000000 0.031969 0.000000 0.000000
# 5 0.000000 0.000000 0.000000 0.000000 0.051521 0.000000
# 6 0.000000 0.000000 0.000000 0.000000 0.000000 0.036573
#
#
# Mechanical properties :
#
#
# Convention : Reuss Voigt Hill
#
# Bulk Modulus (GPa) = 52.74870 63.10567 57.92718
# Shear Modulus (GPa) = 26.53246 29.18321 27.85783
#
# Velocity S-wave (km/s) = 3.44444 3.61241 3.52943
# Velocity P-wave (km/s) = 6.27741 6.75408 6.52010
#
# Compressibility (1/GPa) = 0.01895781
#
# Stress axis : x y z
#
# Youngs Moduli (GPa) = 58.20762 70.49542 109.32422
#
# Poissons Ratio (x) = 0.31872 0.08006
# Poissons Ratio (y) = 0.26317 0.60388
# Poissons Ratio (z) = 0.04263 0.38940
#
# Static dielectric constant tensor:
#      x y z
#    x 3.986320 0.000000 0.000000 
#    y 0.000000 3.857300 0.000000 
#    z 0.000000 0.000000 4.511490 
# 
# 
# High freq. dielectric constant tensor:
#      x y z
#    x 1.874800 0.000000 0.000000 
#    y 0.000000 1.862650 0.000000 
#    z 0.000000 0.000000 1.884630 
# 
# From -- ./inp_files/25625.got.cif
#   From: 2010.06.25/outbox.cif.g09.slc.cpg/sg43_13_cif.got.tgz:25625.got - 2010.06.26 16:48:59.
