data_PCOD8187635
_publ_section_title
;
Structure prediction by ZEFSAII (Michael W. Deem and Ramdas Pophale) SiO2 
 PCOD8187635
Probable space group: F D D 2
;
_chemical_formula_sum "Si O2"
_cell_formula_units_Z 120
_cell_length_a 9.301006
_cell_length_b 24.384580
_cell_length_c 26.378100
_cell_angle_alpha 90.000000
_cell_angle_beta 90.000000
_cell_angle_gamma 90.000000
_cell_volume 5982.582752
_symmetry_space_group_name_H-M "F D D 2"
_symmetry_group_IT_number 43
_symmetry_cell_setting 'orthorhombic'
loop_
_space_group_symop_operation_xyz
x,y,z
-x,-y,z
1/4-x,1/4+y,1/4+z
1/4+x,1/4-y,1/4+z
x,1/2+y,1/2+z
-x,1/2-y,1/2+z
1/4-x,3/4+y,3/4+z
1/4+x,3/4-y,3/4+z
1/2+x,y,1/2+z
1/2-x,-y,1/2+z
3/4-x,1/4+y,3/4+z
3/4+x,1/4-y,3/4+z
1/2+x,1/2+y,z
1/2-x,1/2-y,z
3/4-x,3/4+y,1/4+z
3/4+x,3/4-y,1/4+z
loop_
_atom_site_type_symbol
_atom_site_label
_atom_site_fract_x
_atom_site_fract_y
_atom_site_fract_z
Si Si1 0.931664 0.311325 0.074280
Si Si2 0.689223 0.133729 0.413606
Si Si3 0.779281 0.427535 0.213540
Si Si4 0.012655 0.374002 0.672598
Si Si5 0.345628 0.433223 0.322505
Si Si6 0.027664 0.401058 0.493257
Si Si7 0.750000 0.250000 0.818343
Si Si8 0.199273 0.031238 0.152117
O O1 0.942073 0.246289 0.080764
O O2 0.765701 0.328992 0.071458
O O3 0.004719 0.342901 0.120645
O O4 0.019798 0.327114 0.024075
O O5 0.813236 0.164859 0.443641
O O6 0.603844 0.097229 0.454209
O O7 0.585044 0.179898 0.389328
O O8 0.674840 0.381229 0.190998
O O9 0.736718 0.488420 0.196061
O O10 0.013957 0.347556 0.617545
O O11 0.924683 0.336399 0.712357
O O12 0.935403 0.433086 0.671260
O O13 0.283622 0.409010 0.269895
O O14 0.005421 0.446119 0.535288
O O15 0.603199 0.249981 0.851462
#
# Coordination Sequence:
#
# PCOD8187635 Si02
#       8
#    16  16  16  16  16  16   8  16
#     4  11  25  40  69  97 133 181 222 271 335 409
#     4  11  27  43  62 103 142 164 220 282 343 385
#     4  12  22  42  69  97 133 175 219 277 339 390
#     4  11  21  41  66  92 131 166 225 274 325 405
#     4  11  22  43  67  96 126 178 234 264 328 409
#     4  11  25  43  66  99 127 178 220 279 331 400
#     4  12  24  42  76  92 136 174 234 268 342 400
#     4  11  23  42  69  96 128 172 222 279 321 399
#
# _framework density 20.058226999999999
#
# number of rings (size 3 to 8) (size 9 to 14) (size 15 to 20)
#    0.000    0.800    5.333    2.000    5.600    0.000 
#    0.000    2.667    0.000    0.000    0.000    0.000 
#    0.000    0.000    0.000    0.000    0.000    0.000 
#
# Total GULP energy -372062.577147 kJ/mol
# GULP energy per Si atom -12402.085905 kJ/mol
# Density = 2.001257 g / cm^3
# Si number density = 20.058227 Si / 1000 Ang^3
#
#
#
# Elastic Constant Matrix: (Units=GPa)
#
#
# Indices 1 2 3 4 5 6 
#
# 1 112.8132 38.2602 49.8167 0.0000 0.0000 0.0000
# 2 38.2602 74.4916 51.3558 0.0000 0.0000 0.0000
# 3 49.8167 51.3558 141.4882 0.0000 0.0000 0.0000
# 4 0.0000 0.0000 0.0000 36.5359 0.0000 0.0000
# 5 0.0000 0.0000 0.0000 0.0000 35.0991 0.0000
# 6 0.0000 0.0000 0.0000 0.0000 0.0000 24.8685
#
#
#
# Elastic Compliance Matrix: (Units=1/GPa)
#
#
# Indices 1 2 3 4 5 6 
#
# 1 0.011366 -0.004106 -0.002511 0.000000 0.000000 0.000000
# 2 -0.004106 0.019388 -0.005592 0.000000 0.000000 0.000000
# 3 -0.002511 -0.005592 0.009982 0.000000 0.000000 0.000000
# 4 0.000000 0.000000 0.000000 0.027370 0.000000 0.000000
# 5 0.000000 0.000000 0.000000 0.000000 0.028491 0.000000
# 6 0.000000 0.000000 0.000000 0.000000 0.000000 0.040212
#
#
# Mechanical properties :
#
#
# Convention : Reuss Voigt Hill
#
# Bulk Modulus (GPa) = 61.28494 67.51760 64.40127
# Shear Modulus (GPa) = 30.00013 31.92470 30.96241
#
# Velocity S-wave (km/s) = 3.87156 3.99382 3.93316
# Velocity P-wave (km/s) = 7.11373 7.41629 7.26658
#
# Compressibility (1/GPa) = 0.01631722
#
# Stress axis : x y z
#
# Youngs Moduli (GPa) = 87.98303 51.57737 100.18519
#
# Poissons Ratio (x) = 0.21179 0.25160
# Poissons Ratio (y) = 0.36129 0.56019
# Poissons Ratio (z) = 0.22095 0.28840
#
# Static dielectric constant tensor:
#      x y z
#    x 3.844800 0.000000 0.000000 
#    y 0.000000 3.642840 0.000000 
#    z 0.000000 0.000000 3.793540 
# 
# 
# High freq. dielectric constant tensor:
#      x y z
#    x 1.785570 0.000000 0.000000 
#    y 0.000000 1.779300 0.000000 
#    z 0.000000 0.000000 1.796700 
# 
# From -- ./inp_files/20444.got.cif
#   From: 2010.06.25/outbox.cif.g09.slc.cpg/sg43_11_cif.got.tgz:20444.got - 2010.06.26 16:48:59.
