data_PCOD8187213
_publ_section_title
;
Structure prediction by ZEFSAII (Michael W. Deem and Ramdas Pophale) SiO2 
 PCOD8187213
Probable space group: F D D 2
;
_chemical_formula_sum "Si O2"
_cell_formula_units_Z 120
_cell_length_a 24.516180
_cell_length_b 9.006380
_cell_length_c 25.241959
_cell_angle_alpha 90.000000
_cell_angle_beta 90.000000
_cell_angle_gamma 90.000000
_cell_volume 5573.475870
_symmetry_space_group_name_H-M "F D D 2"
_symmetry_group_IT_number 43
_symmetry_cell_setting 'orthorhombic'
loop_
_space_group_symop_operation_xyz
x,y,z
-x,-y,z
1/4-x,1/4+y,1/4+z
1/4+x,1/4-y,1/4+z
x,1/2+y,1/2+z
-x,1/2-y,1/2+z
1/4-x,3/4+y,3/4+z
1/4+x,3/4-y,3/4+z
1/2+x,y,1/2+z
1/2-x,-y,1/2+z
3/4-x,1/4+y,3/4+z
3/4+x,1/4-y,3/4+z
1/2+x,1/2+y,z
1/2-x,1/2-y,z
3/4-x,3/4+y,1/4+z
3/4+x,3/4-y,1/4+z
loop_
_atom_site_type_symbol
_atom_site_label
_atom_site_fract_x
_atom_site_fract_y
_atom_site_fract_z
Si Si1 0.918401 0.350485 0.585480
Si Si2 0.000000 0.000000 0.166081
Si Si3 0.685522 0.259314 0.432746
Si Si4 0.405657 0.684241 0.219140
Si Si5 0.025958 0.153778 0.882258
Si Si6 0.619376 0.978898 0.076512
Si Si7 0.651538 0.293089 0.722418
Si Si8 0.335099 0.988769 0.658716
O O1 0.913725 0.176711 0.570834
O O2 0.923381 0.442747 0.531753
O O3 0.861279 0.402020 0.609701
O O4 0.967433 0.385664 0.627175
O O5 0.040551 0.914192 0.206431
O O6 0.750000 0.250000 0.428437
O O7 0.670370 0.393203 0.471470
O O8 0.661357 0.306820 0.375388
O O9 0.658968 0.109090 0.457988
O O10 0.372376 0.663984 0.274872
O O11 0.362807 0.645501 0.172399
O O12 0.066293 0.209030 0.837312
O O13 0.056995 0.136759 0.937345
O O14 0.977484 0.270730 0.893715
O O15 0.000000 0.000000 0.862947
O O16 0.654908 0.118562 0.709588
#
# Coordination Sequence:
#
# PCOD8187213 Si02
#       8
#    16   8  16  16  16  16  16  16
#     4  11  20  40  67  93 130 172 224 260 324 394
#     4  10  26  42  64  96 134 178 216 274 326 408
#     4  11  23  42  66  94 125 173 222 269 320 394
#     4  11  25  43  62  95 139 166 216 274 341 374
#     4   9  18  39  65  91 123 165 219 261 309 388
#     4  11  22  42  65  97 130 167 221 273 320 390
#     4  10  21  38  68  93 123 167 222 266 313 390
#     4  10  22  42  61  95 133 165 214 278 316 391
#
# _framework density 21.530548
#
# number of rings (size 3 to 8) (size 9 to 14) (size 15 to 20)
#    0.000    1.600    5.333    0.800    4.667    3.733 
#    4.800    2.000    0.000    0.000    0.000    0.000 
#    0.000    0.000    0.000    0.000    0.000    0.000 
#
# Total GULP energy -371733.839911 kJ/mol
# GULP energy per Si atom -12391.127997 kJ/mol
# Density = 2.148154 g / cm^3
# Si number density = 21.530548 Si / 1000 Ang^3
#
#
#
# Elastic Constant Matrix: (Units=GPa)
#
#
# Indices 1 2 3 4 5 6 
#
# 1 106.8633 15.4463 -16.1064 0.0000 0.0000 0.0000
# 2 15.4463 50.9064 5.2658 0.0000 0.0000 -0.0001
# 3 -16.1064 5.2658 64.1499 0.0000 0.0000 0.0000
# 4 0.0000 0.0000 0.0000 22.5227 0.0000 0.0000
# 5 0.0000 0.0000 0.0000 0.0000 23.4278 0.0000
# 6 0.0000 -0.0001 0.0000 0.0000 0.0000 19.3010
#
#
#
# Elastic Compliance Matrix: (Units=1/GPa)
#
#
# Indices 1 2 3 4 5 6 
#
# 1 0.010283 -0.003416 0.002862 0.000000 0.000000 0.000000
# 2 -0.003416 0.020947 -0.002577 0.000000 0.000000 0.000000
# 3 0.002862 -0.002577 0.016519 0.000000 0.000000 0.000000
# 4 0.000000 0.000000 0.000000 0.044400 0.000000 0.000000
# 5 0.000000 0.000000 0.000000 0.000000 0.042684 0.000000
# 6 0.000000 0.000000 0.000000 0.000000 0.000000 0.051811
#
#
# Mechanical properties :
#
#
# Convention : Reuss Voigt Hill
#
# Bulk Modulus (GPa) = 24.10431 25.68122 24.89276
# Shear Modulus (GPa) = 24.18562 27.53790 25.86176
#
# Velocity S-wave (km/s) = 3.35523 3.58021 3.46954
# Velocity P-wave (km/s) = 5.12150 5.38927 5.25709
#
# Compressibility (1/GPa) = 0.04148635
#
# Stress axis : x y z
#
# Youngs Moduli (GPa) = 97.24864 47.73942 60.53760
#
# Poissons Ratio (x) = 0.16309 -0.17327
# Poissons Ratio (y) = 0.33222 0.15602
# Poissons Ratio (z) = -0.27835 0.12303
#
# Static dielectric constant tensor:
#      x y z
#    x 4.277410 0.000000 0.000000 
#    y 0.000000 3.691710 0.000000 
#    z 0.000000 0.000000 3.848750 
# 
# 
# High freq. dielectric constant tensor:
#      x y z
#    x 1.853800 0.000000 0.000000 
#    y 0.000000 1.821410 0.000000 
#    z 0.000000 0.000000 1.842730 
# 
# From -- ./inp_files/26605.got.cif
#   From: 2010.06.25/outbox.cif.g09.slc.cpg/sg43_14_cif.got.tgz:26605.got - 2010.06.26 16:48:59.
