data_PCOD8187980
_publ_section_title
;
Structure prediction by ZEFSAII (Michael W. Deem and Ramdas Pophale) SiO2 
 PCOD8187980
Probable space group: I M M 2
;
_chemical_formula_sum "Si O2"
_cell_formula_units_Z 64
_cell_length_a 18.583544
_cell_length_b 9.012107
_cell_length_c 26.597563
_cell_angle_alpha 90.000000
_cell_angle_beta 90.000000
_cell_angle_gamma 90.000000
_cell_volume 4454.477052
_symmetry_space_group_name_H-M "I M M 2"
_symmetry_group_IT_number 44
_symmetry_cell_setting 'orthorhombic'
loop_
_space_group_symop_operation_xyz
x,y,z
-x,-y,z
-x,y,z
x,-y,z
1/2+x,1/2+y,1/2+z
1/2-x,1/2-y,1/2+z
1/2-x,1/2+y,1/2+z
1/2+x,1/2-y,1/2+z
loop_
_atom_site_type_symbol
_atom_site_label
_atom_site_fract_x
_atom_site_fract_y
_atom_site_fract_z
Si Si1 0.156541 0.668947 0.408060
Si Si2 0.419225 0.324825 0.819996
Si Si3 0.216830 0.829586 0.972491
Si Si4 0.328207 0.323632 0.615419
Si Si5 0.706716 0.325242 0.061641
Si Si6 0.917680 0.674556 0.511953
Si Si7 0.580245 0.676287 0.708040
Si Si8 0.421547 0.672526 0.520784
O O1 0.137763 0.500000 0.395232
O O2 0.137637 0.764323 0.359711
O O3 0.242598 0.690044 0.419127
O O4 0.111486 0.720797 0.456846
O O5 0.500000 0.268615 0.832789
O O6 0.416878 0.500000 0.822499
O O7 0.397273 0.270483 0.764003
O O8 0.230119 0.000000 0.991748
O O9 0.251356 0.714729 0.010942
O O10 0.130611 0.797763 0.972095
O O11 0.317871 0.500000 0.615151
O O12 0.250124 0.247199 0.608425
O O13 0.362299 0.264185 0.667551
O O14 0.381730 0.269957 0.570930
O O15 0.701793 0.500000 0.069540
O O16 0.626352 0.258087 0.056054
O O17 0.908155 0.500000 0.519935
O O18 0.000000 0.725328 0.516141
O O19 0.500000 0.735955 0.695195
O O20 0.578303 0.500000 0.705875
O O21 0.500000 0.750507 0.513521
O O22 0.435290 0.500000 0.527400
#
# Coordination Sequence:
#
# PCOD8187980 Si02
#       8
#     8   8   8   8   8   8   8   8
#     4   9  16  26  39  54  74 102 131 156 187 227
#     4   9  17  27  38  55  78 100 126 163 199 226
#     4   8  15  27  39  52  73 100 130 160 188 224
#     4   9  15  25  41  56  73 100 130 156 185 224
#     4  10  18  26  37  55  79 102 125 155 190 227
#     4   9  17  29  43  57  75 101 133 164 190 222
#     4   8  14  25  41  59  76  97 130 168 197 222
#     4   8  12  19  36  59  74  88 119 159 190 217
#
# _framework density 14.367568
#
# number of rings (size 3 to 8) (size 9 to 14) (size 15 to 20)
#    0.000    3.250    0.000    4.125    0.000    4.500 
#    0.000    0.625    0.000   10.125    0.000    0.000 
#    0.000    1.000    0.000    6.750    0.000    2.500 
#
# Total GULP energy -396424.200759 kJ/mol
# GULP energy per Si atom -12388.256274 kJ/mol
# Density = 1.433487 g / cm^3
# Si number density = 14.367568 Si / 1000 Ang^3
#
#
#
# Elastic Constant Matrix: (Units=GPa)
#
#
# Indices 1 2 3 4 5 6 
#
# 1 117.8545 26.5518 59.0304 0.0000 0.0000 0.0000
# 2 26.5518 34.5612 23.8984 0.0000 0.0000 0.0000
# 3 59.0304 23.8984 86.5758 0.0000 0.0000 0.0000
# 4 0.0000 0.0000 0.0000 16.1806 0.0000 0.0000
# 5 0.0000 0.0000 0.0000 0.0000 26.3316 0.0000
# 6 0.0000 0.0000 0.0000 0.0000 0.0000 11.7385
#
#
#
# Elastic Compliance Matrix: (Units=1/GPa)
#
#
# Indices 1 2 3 4 5 6 
#
# 1 0.013542 -0.004967 -0.007862 0.000000 0.000000 0.000000
# 2 -0.004967 0.037582 -0.006987 0.000000 0.000000 0.000000
# 3 -0.007862 -0.006987 0.018840 0.000000 0.000000 0.000000
# 4 0.000000 0.000000 0.000000 0.061802 0.000000 0.000000
# 5 0.000000 0.000000 0.000000 0.000000 0.037977 0.000000
# 6 0.000000 0.000000 0.000000 0.000000 0.000000 0.085190
#
#
# Mechanical properties :
#
#
# Convention : Reuss Voigt Hill
#
# Bulk Modulus (GPa) = 32.97012 50.88363 41.92688
# Shear Modulus (GPa) = 16.41080 19.48420 17.94750
#
# Velocity S-wave (km/s) = 3.38333 3.68655 3.53819
# Velocity P-wave (km/s) = 6.18546 7.32212 6.77766
#
# Compressibility (1/GPa) = 0.03033049
#
# Stress axis : x y z
#
# Youngs Moduli (GPa) = 73.84330 26.60861 53.07802
#
# Poissons Ratio (x) = 0.13217 0.41732
# Poissons Ratio (y) = 0.36679 0.37087
# Poissons Ratio (z) = 0.58059 0.18592
#
# Static dielectric constant tensor:
#      x y z
#    x 3.134400 0.000000 0.000000 
#    y 0.000000 2.521770 0.000000 
#    z 0.000000 0.000000 2.729160 
# 
# 
# High freq. dielectric constant tensor:
#      x y z
#    x 1.545710 0.000000 0.000000 
#    y 0.000000 1.524940 0.000000 
#    z 0.000000 0.000000 1.514460 
# 
# From -- ./inp_files/26289.got.cif
#   From: 2010.03.12/outbox.cif.g09.slc.cpg/sg44_14_cif.got.tgz:26289.got - 2010.04.14 02:36:11.
