data_PCOD8187630
_publ_section_title
;
Structure prediction by ZEFSAII (Michael W. Deem and Ramdas Pophale) SiO2 
 PCOD8187630
Probable space group: F D D 2
;
_chemical_formula_sum "Si O2"
_cell_formula_units_Z 120
_cell_length_a 22.722979
_cell_length_b 13.496336
_cell_length_c 17.564864
_cell_angle_alpha 90.000000
_cell_angle_beta 90.000000
_cell_angle_gamma 90.000000
_cell_volume 5386.739086
_symmetry_space_group_name_H-M "F D D 2"
_symmetry_group_IT_number 43
_symmetry_cell_setting 'orthorhombic'
loop_
_space_group_symop_operation_xyz
x,y,z
-x,-y,z
1/4-x,1/4+y,1/4+z
1/4+x,1/4-y,1/4+z
x,1/2+y,1/2+z
-x,1/2-y,1/2+z
1/4-x,3/4+y,3/4+z
1/4+x,3/4-y,3/4+z
1/2+x,y,1/2+z
1/2-x,-y,1/2+z
3/4-x,1/4+y,3/4+z
3/4+x,1/4-y,3/4+z
1/2+x,1/2+y,z
1/2-x,1/2-y,z
3/4-x,3/4+y,1/4+z
3/4+x,3/4-y,1/4+z
loop_
_atom_site_type_symbol
_atom_site_label
_atom_site_fract_x
_atom_site_fract_y
_atom_site_fract_z
Si Si1 0.500000 0.500000 0.183331
Si Si2 0.930342 0.367304 0.577463
Si Si3 0.367622 0.938963 0.426680
Si Si4 0.841451 0.337794 0.038133
Si Si5 0.786059 0.342603 0.199545
Si Si6 0.491556 0.384394 0.679175
Si Si7 0.714912 0.480739 0.281131
Si Si8 0.894078 0.316289 0.291650
O O1 0.447544 0.449488 0.137838
O O2 0.464651 0.579439 0.233598
O O3 0.885506 0.289686 0.622153
O O4 0.902598 0.431480 0.507153
O O5 0.994892 0.324391 0.552506
O O6 0.301480 0.919135 0.450301
O O7 0.397931 0.849629 0.379315
O O8 0.816527 0.316853 0.121119
O O9 0.893890 0.257002 0.020216
O O10 0.864884 0.449313 0.032041
O O11 0.750000 0.250000 0.229359
O O12 0.741744 0.436378 0.202130
O O13 0.835895 0.370720 0.260728
O O14 0.500000 0.500000 0.674784
O O15 0.466476 0.349627 0.598806
O O16 0.449923 0.356462 0.748253
#
# Coordination Sequence:
#
# PCOD8187630 Si02
#       8
#     8  16  16  16  16  16  16  16
#     4  12  30  52  68  92 154 200 246 292 352 446
#     4  11  26  51  74 105 143 197 244 303 361 453
#     4  11  24  47  75 104 146 188 245 306 374 435
#     4  12  25  43  68 103 139 192 238 297 366 443
#     4  12  22  39  67 108 140 174 235 302 370 434
#     4  11  21  36  63 103 143 185 231 294 370 430
#     4  11  22  40  73 103 142 181 236 300 367 431
#     4  12  23  40  71 103 143 180 235 307 368 433
#
# _framework density 22.276928999999999
#
# number of rings (size 3 to 8) (size 9 to 14) (size 15 to 20)
#    0.000    0.533    6.000    4.400    0.000    1.067 
#   10.800    0.000    0.000    0.000    0.000    0.000 
#    0.000    0.000    0.000    0.000    0.000    0.000 
#
# Total GULP energy -371667.908159 kJ/mol
# GULP energy per Si atom -12388.930272 kJ/mol
# Density = 2.222623 g / cm^3
# Si number density = 22.276929 Si / 1000 Ang^3
#
#
#
# Elastic Constant Matrix: (Units=GPa)
#
#
# Indices 1 2 3 4 5 6 
#
# 1 109.7065 8.6792 47.2644 0.0000 0.0000 0.0000
# 2 8.6792 51.9426 26.5227 0.0000 0.0000 0.0000
# 3 47.2644 26.5227 82.7287 0.0000 0.0000 0.0000
# 4 0.0000 0.0000 0.0000 19.7856 0.0000 0.0000
# 5 0.0000 0.0000 0.0000 0.0000 51.1334 0.0000
# 6 0.0000 0.0000 0.0000 0.0000 0.0000 -32.1647
#
#
#
# Elastic Compliance Matrix: (Units=1/GPa)
#
#
# Indices 1 2 3 4 5 6 
#
# 1 0.012234 0.001823 -0.007574 0.000000 0.000000 0.000000
# 2 0.001823 0.023292 -0.008509 0.000000 0.000000 0.000000
# 3 -0.007574 -0.008509 0.019143 0.000000 0.000000 0.000000
# 4 0.000000 0.000000 0.000000 0.050542 0.000000 0.000000
# 5 0.000000 0.000000 0.000000 0.000000 0.019557 0.000000
# 6 0.000000 0.000000 0.000000 0.000000 0.000000 -0.031090
#
#
# Mechanical properties :
#
#
# Convention : Reuss Voigt Hill
#
# Bulk Modulus (GPa) = 38.24186 45.47894 41.86040
# Shear Modulus (GPa) = 38.19290 18.54494 28.36892
#
# Velocity S-wave (km/s) = 4.14510 2.88839 3.57244
# Velocity P-wave (km/s) = 6.33348 5.61990 5.98733
#
# Compressibility (1/GPa) = 0.02614936
#
# Stress axis : x y z
#
# Youngs Moduli (GPa) = 81.73868 42.93264 52.23855
#
# Poissons Ratio (x) = -0.07828 0.39566
# Poissons Ratio (y) = -0.14903 0.44451
# Poissons Ratio (z) = 0.61910 0.36532
#
# Static dielectric constant tensor:
#      x y z
#    x 4.213270 0.000000 0.000000 
#    y 0.000000 3.752560 0.000000 
#    z 0.000000 0.000000 4.178280 
# 
# 
# High freq. dielectric constant tensor:
#      x y z
#    x 1.889440 0.000000 0.000000 
#    y 0.000000 1.859100 0.000000 
#    z 0.000000 0.000000 1.879540 
# 
# From -- ./inp_files/14887.got.cif
#   From: 2010.06.25/outbox.cif.g09.slc.cpg/sg43_8_cif.got.tgz:14887.got - 2010.06.26 16:48:59.
