data_PCOD8187780
_publ_section_title
;
Structure prediction by ZEFSAII (Michael W. Deem and Ramdas Pophale) SiO2 
 PCOD8187780
Probable space group: F D D 2
;
_chemical_formula_sum "Si O2"
_cell_formula_units_Z 112
_cell_length_a 11.558163
_cell_length_b 28.387542
_cell_length_c 14.452112
_cell_angle_alpha 90.000000
_cell_angle_beta 90.000000
_cell_angle_gamma 90.000000
_cell_volume 4741.851217
_symmetry_space_group_name_H-M "F D D 2"
_symmetry_group_IT_number 43
_symmetry_cell_setting 'orthorhombic'
loop_
_space_group_symop_operation_xyz
x,y,z
-x,-y,z
1/4-x,1/4+y,1/4+z
1/4+x,1/4-y,1/4+z
x,1/2+y,1/2+z
-x,1/2-y,1/2+z
1/4-x,3/4+y,3/4+z
1/4+x,3/4-y,3/4+z
1/2+x,y,1/2+z
1/2-x,-y,1/2+z
3/4-x,1/4+y,3/4+z
3/4+x,1/4-y,3/4+z
1/2+x,1/2+y,z
1/2-x,1/2-y,z
3/4-x,3/4+y,1/4+z
3/4+x,3/4-y,1/4+z
loop_
_atom_site_type_symbol
_atom_site_label
_atom_site_fract_x
_atom_site_fract_y
_atom_site_fract_z
Si Si1 0.890910 0.854922 0.111280
Si Si2 0.296995 0.299461 0.646156
Si Si3 0.513469 0.242009 0.406959
Si Si4 0.150625 0.400792 0.067641
Si Si5 0.877330 0.260079 0.724872
Si Si6 0.863241 0.920886 0.264049
Si Si7 0.279611 0.444710 0.819708
O O1 0.775429 0.875362 0.063804
O O2 0.874510 0.804312 0.156992
O O3 0.933968 0.889343 0.192145
O O4 0.989742 0.854190 0.033643
O O5 0.250000 0.250000 0.686485
O O6 0.367173 0.329097 0.719333
O O7 0.184356 0.326286 0.608642
O O8 0.391934 0.294325 0.564968
O O9 0.597394 0.196329 0.387006
O O10 0.466627 0.264742 0.311042
O O11 0.407125 0.221891 0.468209
O O12 0.576118 0.281912 0.471825
O O13 0.054788 0.360682 0.084447
O O14 0.750000 0.250000 0.765444
O O15 0.914793 0.217235 0.660676
#
# Coordination Sequence:
#
# PCOD8187780 Si02
#       7
#    16  16  16  16  16  16  16
#     4  11  26  48  75 111 149 200 258 324 389 482
#     4  12  26  50  74 111 161 201 261 335 394 475
#     4  11  26  47  77 111 154 208 260 326 399 470
#     4  11  28  48  78 113 158 204 269 326 401 476
#     4  12  25  46  77 108 150 202 257 316 393 471
#     4  11  27  46  75 108 154 198 263 318 394 475
#     4  12  26  52  77 113 157 207 266 330 401 475
#
# _framework density 23.619465999999999
#
# number of rings (size 3 to 8) (size 9 to 14) (size 15 to 20)
#    0.000    0.571    5.714    0.000   14.000    0.000 
#    2.571    0.000    0.000    0.000    0.000    0.000 
#    0.000    0.000    0.000    0.000    0.000    0.000 
#
# Total GULP energy -346967.061874 kJ/mol
# GULP energy per Si atom -12391.680781 kJ/mol
# Density = 2.356571 g / cm^3
# Si number density = 23.619466 Si / 1000 Ang^3
#
#
#
# Elastic Constant Matrix: (Units=GPa)
#
#
# Indices 1 2 3 4 5 6 
#
# 1 82.1401 36.2487 34.1033 0.0000 0.0000 0.0000
# 2 36.2487 111.1339 35.0783 0.0000 0.0000 0.0000
# 3 34.1033 35.0783 118.8261 0.0000 0.0000 0.0000
# 4 0.0000 0.0000 0.0000 45.1580 0.0000 0.0000
# 5 0.0000 0.0000 0.0000 0.0000 43.0981 0.0000
# 6 0.0000 0.0000 0.0000 0.0000 0.0000 31.1224
#
#
#
# Elastic Compliance Matrix: (Units=1/GPa)
#
#
# Indices 1 2 3 4 5 6 
#
# 1 0.015255 -0.003963 -0.003208 0.000000 0.000000 0.000000
# 2 -0.003963 0.010952 -0.002096 0.000000 0.000000 0.000000
# 3 -0.003208 -0.002096 0.009955 0.000000 0.000000 0.000000
# 4 0.000000 0.000000 0.000000 0.022144 0.000000 0.000000
# 5 0.000000 0.000000 0.000000 0.000000 0.023203 0.000000
# 6 0.000000 0.000000 0.000000 0.000000 0.000000 0.032131
#
#
# Mechanical properties :
#
#
# Convention : Reuss Voigt Hill
#
# Bulk Modulus (GPa) = 56.72717 58.10674 57.41696
# Shear Modulus (GPa) = 36.21825 37.65371 36.93598
#
# Velocity S-wave (km/s) = 3.92012 3.99705 3.95877
# Velocity P-wave (km/s) = 6.67526 6.77912 6.72739
#
# Compressibility (1/GPa) = 0.01762824
#
# Stress axis : x y z
#
# Youngs Moduli (GPa) = 65.55087 91.30480 100.45056
#
# Poissons Ratio (x) = 0.36186 0.32228
# Poissons Ratio (y) = 0.25979 0.21052
# Poissons Ratio (z) = 0.21031 0.19135
#
# Static dielectric constant tensor:
#      x y z
#    x 4.320250 0.000000 0.000000 
#    y 0.000000 4.625090 0.000000 
#    z 0.000000 0.000000 4.373590 
# 
# 
# High freq. dielectric constant tensor:
#      x y z
#    x 1.917240 0.000000 0.000000 
#    y 0.000000 1.945110 0.000000 
#    z 0.000000 0.000000 1.943460 
# 
# From -- ./inp_files/9784.got.cif
#   From: 2010.06.25/outbox.cif.g09.slc.cpg/sg43_5_cif.got.tgz:9784.got - 2010.06.26 16:48:59.
