data_PCOD8187080
_publ_section_title
;
Structure prediction by ZEFSAII (Michael W. Deem and Ramdas Pophale) SiO2 
 PCOD8187080
Probable space group: F D D 2
;
_chemical_formula_sum "Si O2"
_cell_formula_units_Z 88
_cell_length_a 28.272217
_cell_length_b 5.679374
_cell_length_c 25.179883
_cell_angle_alpha 90.000000
_cell_angle_beta 90.000000
_cell_angle_gamma 90.000000
_cell_volume 4043.095896
_symmetry_space_group_name_H-M "F D D 2"
_symmetry_group_IT_number 43
_symmetry_cell_setting 'orthorhombic'
loop_
_space_group_symop_operation_xyz
x,y,z
-x,-y,z
1/4-x,1/4+y,1/4+z
1/4+x,1/4-y,1/4+z
x,1/2+y,1/2+z
-x,1/2-y,1/2+z
1/4-x,3/4+y,3/4+z
1/4+x,3/4-y,3/4+z
1/2+x,y,1/2+z
1/2-x,-y,1/2+z
3/4-x,1/4+y,3/4+z
3/4+x,1/4-y,3/4+z
1/2+x,1/2+y,z
1/2-x,1/2-y,z
3/4-x,3/4+y,1/4+z
3/4+x,3/4-y,1/4+z
loop_
_atom_site_type_symbol
_atom_site_label
_atom_site_fract_x
_atom_site_fract_y
_atom_site_fract_z
Si Si1 0.648119 0.594744 0.445020
Si Si2 0.416636 0.713522 0.026040
Si Si3 0.277678 0.999665 0.033895
Si Si4 0.394699 0.215410 0.861845
Si Si5 0.321315 0.595305 0.853969
Si Si6 0.750000 0.750000 0.814863
O O1 0.611044 0.782817 0.470292
O O2 0.681208 0.478924 0.489715
O O3 0.614066 0.393328 0.420193
O O4 0.682399 0.715562 0.401514
O O5 0.380515 0.790865 0.071393
O O6 0.431976 0.453274 0.044302
O O7 0.462825 0.877967 0.025485
O O8 0.250000 0.750000 0.024911
O O9 0.300706 0.987893 0.093178
O O10 0.250000 0.250000 0.029668
O O11 0.371860 0.472581 0.859967
O O12 0.276584 0.421511 0.856614
#
# Coordination Sequence:
#
# PCOD8187080 Si02
#       6
#    16  16  16  16  16   8
#     4  10  23  42  66  97 127 181 234 272 342 418
#     4   9  20  39  61  86 129 168 218 272 338 393
#     4  11  27  45  70 103 144 180 229 293 352 409
#     4   9  22  42  65  89 132 179 218 276 345 408
#     4  10  21  38  66  90 132 171 222 279 342 404
#     4  10  20  38  58  92 126 168 214 282 338 388
#
# _framework density 21.765501
#
# number of rings (size 3 to 8) (size 9 to 14) (size 15 to 20)
#    0.000    2.182    0.000    0.545   10.182    7.273 
#    8.182    0.000    0.000    0.000    0.000    0.000 
#    0.000    0.000    0.000    0.000    0.000    0.000 
#
# Total GULP energy -272584.717549 kJ/mol
# GULP energy per Si atom -12390.214434 kJ/mol
# Density = 2.171596 g / cm^3
# Si number density = 21.765501 Si / 1000 Ang^3
#
#
#
# Elastic Constant Matrix: (Units=GPa)
#
#
# Indices 1 2 3 4 5 6 
#
# 1 99.7938 48.1845 66.4889 0.0009 0.0059 0.0132
# 2 48.1845 127.6954 47.6895 0.0096 -0.0038 0.0218
# 3 66.4889 47.6895 92.0150 0.0033 -0.0020 -0.0048
# 4 0.0009 0.0096 0.0033 20.5025 -0.0003 0.0042
# 5 0.0059 -0.0038 -0.0020 -0.0003 32.1857 -0.0053
# 6 0.0132 0.0218 -0.0048 0.0042 -0.0053 28.0940
#
#
#
# Elastic Compliance Matrix: (Units=1/GPa)
#
#
# Indices 1 2 3 4 5 6 
#
# 1 0.020032 -0.002670 -0.013091 0.000002 -0.000005 -0.000010
# 2 -0.002670 0.010067 -0.003288 -0.000004 0.000001 -0.000007
# 3 -0.013091 -0.003288 0.022031 -0.000001 0.000003 0.000012
# 4 0.000002 -0.000004 -0.000001 0.048774 0.000000 -0.000007
# 5 -0.000005 0.000001 0.000003 0.000000 0.031070 0.000006
# 6 -0.000010 -0.000007 0.000012 -0.000007 0.000006 0.035595
#
#
# Mechanical properties :
#
#
# Convention : Reuss Voigt Hill
#
# Bulk Modulus (GPa) = 71.26654 71.58112 71.42383
# Shear Modulus (GPa) = 23.77060 26.63253 25.20157
#
# Velocity S-wave (km/s) = 3.30831 3.50181 3.40644
# Velocity P-wave (km/s) = 6.88529 7.02204 6.95400
#
# Compressibility (1/GPa) = 0.01403183
#
# Stress axis : x y z
#
# Youngs Moduli (GPa) = 49.92066 99.33890 45.38982
#
# Poissons Ratio (x) = 0.26521 0.59420
# Poissons Ratio (y) = 0.13328 0.14925
# Poissons Ratio (z) = 0.65351 0.32664
#
# Static dielectric constant tensor:
#      x y z
#    x 4.021530 0.000000 -0.000010 
#    y 0.000000 4.100890 -0.000010 
#    z -0.000010 -0.000010 3.937150 
# 
# 
# High freq. dielectric constant tensor:
#      x y z
#    x 1.849720 0.000000 0.000000 
#    y 0.000000 1.861890 0.000000 
#    z 0.000000 0.000000 1.836900 
# 
# From -- ./inp_files/19546.got.cif
#   From: 2010.06.25/outbox.cif.g09.slc.cpg/sg43_10_cif.got.tgz:19546.got - 2010.06.26 16:48:59.
