data_PCOD8187170
_publ_section_title
;
Structure prediction by ZEFSAII (Michael W. Deem and Ramdas Pophale) SiO2 
 PCOD8187170
Probable space group: F D D 2
;
_chemical_formula_sum "Si O2"
_cell_formula_units_Z 96
_cell_length_a 9.531942
_cell_length_b 29.721493
_cell_length_c 16.182897
_cell_angle_alpha 90.000000
_cell_angle_beta 90.000000
_cell_angle_gamma 90.000000
_cell_volume 4584.672128
_symmetry_space_group_name_H-M "F D D 2"
_symmetry_group_IT_number 43
_symmetry_cell_setting 'orthorhombic'
loop_
_space_group_symop_operation_xyz
x,y,z
-x,-y,z
1/4-x,1/4+y,1/4+z
1/4+x,1/4-y,1/4+z
x,1/2+y,1/2+z
-x,1/2-y,1/2+z
1/4-x,3/4+y,3/4+z
1/4+x,3/4-y,3/4+z
1/2+x,y,1/2+z
1/2-x,-y,1/2+z
3/4-x,1/4+y,3/4+z
3/4+x,1/4-y,3/4+z
1/2+x,1/2+y,z
1/2-x,1/2-y,z
3/4-x,3/4+y,1/4+z
3/4+x,3/4-y,1/4+z
loop_
_atom_site_type_symbol
_atom_site_label
_atom_site_fract_x
_atom_site_fract_y
_atom_site_fract_z
Si Si1 0.989229 0.761883 0.810300
Si Si2 0.920255 0.163531 0.334309
Si Si3 0.671419 0.165032 0.594694
Si Si4 0.500000 0.500000 0.949833
Si Si5 0.124732 0.660178 0.407912
Si Si6 0.000000 0.500000 0.934914
Si Si7 0.875143 0.909222 0.398375
O O1 0.133376 0.769980 0.761345
O O2 0.976606 0.713447 0.854678
O O3 0.973229 0.797433 0.884617
O O4 0.868842 0.770604 0.743283
O O5 0.755418 0.157305 0.346541
O O6 0.944644 0.155715 0.237990
O O7 0.007112 0.128139 0.387217
O O8 0.683246 0.213138 0.638954
O O9 0.701188 0.165720 0.496805
O O10 0.777737 0.133358 0.645011
O O11 0.508507 0.149613 0.591068
O O12 0.940869 0.458802 0.879885
#
# Coordination Sequence:
#
# PCOD8187170 Si02
#       7
#    16  16  16   8  16   8  16
#     4  11  23  46  70  94 134 181 224 276 344 406
#     4  11  23  43  69  93 129 178 218 275 334 409
#     4  12  27  42  69 104 137 174 225 290 336 413
#     4  12  26  45  71  96 138 184 226 280 350 401
#     4  12  25  44  70 101 136 176 229 283 344 406
#     4  10  20  45  69  88 128 178 218 272 332 403
#     4  11  23  45  65  96 131 171 221 272 339 400
#
# _framework density 20.939337999999999
#
# number of rings (size 3 to 8) (size 9 to 14) (size 15 to 20)
#    0.000    0.667    6.667    3.000    7.000    0.000 
#    3.000    0.000    0.000    0.000    0.000    0.000 
#    0.000    0.000    0.000    0.000    0.000    0.000 
#
# Total GULP energy -297575.995810 kJ/mol
# GULP energy per Si atom -12398.999825 kJ/mol
# Density = 2.089168 g / cm^3
# Si number density = 20.939338 Si / 1000 Ang^3
#
#
#
# Elastic Constant Matrix: (Units=GPa)
#
#
# Indices 1 2 3 4 5 6 
#
# 1 103.0657 23.0676 20.3034 0.0000 0.0000 0.0000
# 2 23.0676 114.0455 35.4813 0.0000 0.0000 0.0000
# 3 20.3034 35.4813 54.9613 0.0000 0.0000 0.0000
# 4 0.0000 0.0000 0.0000 34.0412 0.0000 0.0000
# 5 0.0000 0.0000 0.0000 0.0000 36.2283 0.0000
# 6 0.0000 0.0000 0.0000 0.0000 0.0000 35.3900
#
#
#
# Elastic Compliance Matrix: (Units=1/GPa)
#
#
# Indices 1 2 3 4 5 6 
#
# 1 0.010585 -0.001157 -0.003163 0.000000 0.000000 0.000000
# 2 -0.001157 0.011099 -0.006738 0.000000 0.000000 0.000000
# 3 -0.003163 -0.006738 0.023713 0.000000 0.000000 0.000000
# 4 0.000000 0.000000 0.000000 0.029376 0.000000 0.000000
# 5 0.000000 0.000000 0.000000 0.000000 0.027603 0.000000
# 6 0.000000 0.000000 0.000000 0.000000 0.000000 0.028257
#
#
# Mechanical properties :
#
#
# Convention : Reuss Voigt Hill
#
# Bulk Modulus (GPa) = 42.95417 47.75302 45.35360
# Shear Modulus (GPa) = 31.15132 34.01325 32.58228
#
# Velocity S-wave (km/s) = 3.86125 4.03472 3.94894
# Velocity P-wave (km/s) = 6.35902 6.67534 6.51910
#
# Compressibility (1/GPa) = 0.02328063
#
# Stress axis : x y z
#
# Youngs Moduli (GPa) = 94.47686 90.10167 42.17143
#
# Poissons Ratio (x) = 0.10423 0.13340
# Poissons Ratio (y) = 0.10929 0.28413
# Poissons Ratio (z) = 0.29886 0.60707
#
# Static dielectric constant tensor:
#      x y z
#    x 3.608020 0.000000 0.000000 
#    y 0.000000 3.764720 0.000000 
#    z 0.000000 0.000000 3.542860 
# 
# 
# High freq. dielectric constant tensor:
#      x y z
#    x 1.835510 0.000000 0.000000 
#    y 0.000000 1.824560 0.000000 
#    z 0.000000 0.000000 1.807290 
# 
# From -- ./inp_files/16509.got.cif
#   From: 2010.06.25/outbox.cif.g09.slc.cpg/sg43_9_cif.got.tgz:16509.got - 2010.06.26 16:48:59.
