data_PCOD8187611
_publ_section_title
;
Structure prediction by ZEFSAII (Michael W. Deem and Ramdas Pophale) SiO2 
 PCOD8187611
Probable space group: F D D 2
;
_chemical_formula_sum "Si O2"
_cell_formula_units_Z 56
_cell_length_a 17.809814
_cell_length_b 17.438337
_cell_length_c 7.222904
_cell_angle_alpha 90.000000
_cell_angle_beta 90.000000
_cell_angle_gamma 90.000000
_cell_volume 2243.242853
_symmetry_space_group_name_H-M "F D D 2"
_symmetry_group_IT_number 43
_symmetry_cell_setting 'orthorhombic'
loop_
_space_group_symop_operation_xyz
x,y,z
-x,-y,z
1/4-x,1/4+y,1/4+z
1/4+x,1/4-y,1/4+z
x,1/2+y,1/2+z
-x,1/2-y,1/2+z
1/4-x,3/4+y,3/4+z
1/4+x,3/4-y,3/4+z
1/2+x,y,1/2+z
1/2-x,-y,1/2+z
3/4-x,1/4+y,3/4+z
3/4+x,1/4-y,3/4+z
1/2+x,1/2+y,z
1/2-x,1/2-y,z
3/4-x,3/4+y,1/4+z
3/4+x,3/4-y,1/4+z
loop_
_atom_site_type_symbol
_atom_site_label
_atom_site_fract_x
_atom_site_fract_y
_atom_site_fract_z
Si Si1 0.696194 0.404643 0.227620
Si Si2 0.975177 0.795794 0.858770
Si Si3 0.607963 0.904342 0.372353
Si Si4 0.500000 0.000000 0.142900
O O1 0.674093 0.442930 0.425292
O O2 0.766104 0.455528 0.149240
O O3 0.724471 0.318270 0.257841
O O4 0.624119 0.408774 0.092409
O O5 0.059217 0.829160 0.825695
O O6 0.939395 0.846697 0.023267
O O7 0.567368 0.978367 0.283081
#
# Coordination Sequence:
#
# PCOD8187611 Si02
#       4
#    16  16  16   8
#     4  11  25  50  76 111 157 205 259 339 398 480
#     4  11  26  48  79 113 157 201 274 323 409 476
#     4  11  27  49  75 116 153 210 263 339 397 485
#     4  10  28  48  80 114 160 206 280 318 424 482
#
# _framework density 24.96386
#
# number of rings (size 3 to 8) (size 9 to 14) (size 15 to 20)
#    0.000    1.143    2.857    0.000   12.000    4.571 
#    0.000    1.429    0.000    0.000    0.000    0.000 
#    0.000    0.000    0.000    0.000    0.000    0.000 
#
# Total GULP energy -173561.775887 kJ/mol
# GULP energy per Si atom -12397.269706 kJ/mol
# Density = 2.490704 g / cm^3
# Si number density = 24.963860 Si / 1000 Ang^3
#
#
#
# Elastic Constant Matrix: (Units=GPa)
#
#
# Indices 1 2 3 4 5 6 
#
# 1 90.8157 48.5275 50.4953 -0.0002 0.0003 0.0000
# 2 48.5275 176.7485 69.7203 -0.0006 0.0007 0.0001
# 3 50.4953 69.7203 178.8556 -0.0013 0.0020 0.0007
# 4 -0.0002 -0.0006 -0.0013 48.0718 0.0009 0.0002
# 5 0.0003 0.0007 0.0020 0.0009 55.1470 -0.0004
# 6 0.0000 0.0001 0.0007 0.0002 -0.0004 24.1432
#
#
#
# Elastic Compliance Matrix: (Units=1/GPa)
#
#
# Indices 1 2 3 4 5 6 
#
# 1 0.014085 -0.002716 -0.002918 0.000000 0.000000 0.000000
# 2 -0.002716 0.007210 -0.002044 0.000000 0.000000 0.000000
# 3 -0.002918 -0.002044 0.007211 0.000000 0.000000 0.000000
# 4 0.000000 0.000000 0.000000 0.020802 0.000000 0.000000
# 5 0.000000 0.000000 0.000000 0.000000 0.018133 0.000000
# 6 0.000000 0.000000 0.000000 0.000000 0.000000 0.041419
#
#
# Mechanical properties :
#
#
# Convention : Reuss Voigt Hill
#
# Bulk Modulus (GPa) = 76.03921 87.10067 81.56994
# Shear Modulus (GPa) = 38.88031 43.98420 41.43226
#
# Velocity S-wave (km/s) = 3.95075 4.20207 4.07835
# Velocity P-wave (km/s) = 7.16499 7.64916 7.41103
#
# Compressibility (1/GPa) = 0.01315111
#
# Stress axis : x y z
#
# Youngs Moduli (GPa) = 70.99737 138.70373 138.66831
#
# Poissons Ratio (x) = 0.37675 0.40460
# Poissons Ratio (y) = 0.19284 0.28338
# Poissons Ratio (z) = 0.20715 0.28345
#
# Static dielectric constant tensor:
#      x y z
#    x 4.289930 0.000000 0.000000 
#    y 0.000000 4.369280 0.000000 
#    z 0.000000 0.000000 4.732890 
# 
# 
# High freq. dielectric constant tensor:
#      x y z
#    x 1.975720 0.000000 0.000000 
#    y 0.000000 1.994350 0.000000 
#    z 0.000000 0.000000 2.008940 
# 
# From -- ./inp_files/2161.got.cif
#   From: 2010.06.25/outbox.cif.g09.slc.cpg/sg43_2_cif.got.tgz:2161.got - 2010.06.26 16:48:59.
