data_PCOD8187715
_publ_section_title
;
Structure prediction by ZEFSAII (Michael W. Deem and Ramdas Pophale) SiO2 
 PCOD8187715
Probable space group: F D D 2
;
_chemical_formula_sum "Si O2"
_cell_formula_units_Z 96
_cell_length_a 9.534884
_cell_length_b 19.918581
_cell_length_c 22.653464
_cell_angle_alpha 90.000000
_cell_angle_beta 90.000000
_cell_angle_gamma 90.000000
_cell_volume 4302.376675
_symmetry_space_group_name_H-M "F D D 2"
_symmetry_group_IT_number 43
_symmetry_cell_setting 'orthorhombic'
loop_
_space_group_symop_operation_xyz
x,y,z
-x,-y,z
1/4-x,1/4+y,1/4+z
1/4+x,1/4-y,1/4+z
x,1/2+y,1/2+z
-x,1/2-y,1/2+z
1/4-x,3/4+y,3/4+z
1/4+x,3/4-y,3/4+z
1/2+x,y,1/2+z
1/2-x,-y,1/2+z
3/4-x,1/4+y,3/4+z
3/4+x,1/4-y,3/4+z
1/2+x,1/2+y,z
1/2-x,1/2-y,z
3/4-x,3/4+y,1/4+z
3/4+x,3/4-y,1/4+z
loop_
_atom_site_type_symbol
_atom_site_label
_atom_site_fract_x
_atom_site_fract_y
_atom_site_fract_z
Si Si1 0.407331 0.225049 0.581700
Si Si2 0.951648 0.121085 0.182100
Si Si3 0.402220 0.732108 0.270953
Si Si4 0.741516 0.917256 0.209319
Si Si5 0.994552 0.832319 0.670834
Si Si6 0.707188 0.543039 0.646862
O O1 0.250000 0.250000 0.564901
O O2 0.394354 0.165946 0.628620
O O3 0.486753 0.191235 0.526604
O O4 0.498790 0.285547 0.611726
O O5 0.920079 0.159213 0.242636
O O6 0.854064 0.055731 0.180887
O O7 0.112780 0.100334 0.177244
O O8 0.250000 0.750000 0.296240
O O9 0.431610 0.790550 0.224684
O O10 0.496273 0.726092 0.329363
O O11 0.646668 0.851564 0.197230
O O12 0.652421 0.975481 0.177361
O O13 0.900674 0.896352 0.655165
#
# Coordination Sequence:
#
# PCOD8187715 Si02
#       6
#    16  16  16  16  16  16
#     4  11  23  48  77  97 144 203 231 291 367 427
#     4  11  23  46  71 103 138 185 243 285 354 431
#     4  11  23  44  76  97 136 190 231 292 346 415
#     4  12  28  42  69 113 141 183 235 307 353 414
#     4  11  25  48  70 105 143 184 243 284 355 427
#     4  12  24  44  71 101 138 187 233 285 353 428
#
# _framework density 22.313248999999999
#
# number of rings (size 3 to 8) (size 9 to 14) (size 15 to 20)
#    0.000    0.667    3.333    5.000    4.667    4.000 
#    6.000    0.000    0.000    0.000    0.000    0.000 
#    0.000    0.000    0.000    0.000    0.000    0.000 
#
# Total GULP energy -297440.345497 kJ/mol
# GULP energy per Si atom -12393.347729 kJ/mol
# Density = 2.226246 g / cm^3
# Si number density = 22.313249 Si / 1000 Ang^3
#
#
#
# Elastic Constant Matrix: (Units=GPa)
#
#
# Indices 1 2 3 4 5 6 
#
# 1 99.7827 22.9203 17.8739 0.0000 0.0000 0.0000
# 2 22.9203 77.4825 20.8968 0.0000 0.0000 0.0000
# 3 17.8739 20.8968 113.9132 0.0000 0.0000 0.0000
# 4 0.0000 0.0000 0.0000 27.3696 0.0000 0.0000
# 5 0.0000 0.0000 0.0000 0.0000 23.1405 0.0000
# 6 0.0000 0.0000 0.0000 0.0000 0.0000 37.9852
#
#
#
# Elastic Compliance Matrix: (Units=1/GPa)
#
#
# Indices 1 2 3 4 5 6 
#
# 1 0.010900 -0.002907 -0.001177 0.000000 0.000000 0.000000
# 2 -0.002907 0.014353 -0.002177 0.000000 0.000000 0.000000
# 3 -0.001177 -0.002177 0.009363 0.000000 0.000000 0.000000
# 4 0.000000 0.000000 0.000000 0.036537 0.000000 0.000000
# 5 0.000000 0.000000 0.000000 0.000000 0.043214 0.000000
# 6 0.000000 0.000000 0.000000 0.000000 0.000000 0.026326
#
#
# Mechanical properties :
#
#
# Convention : Reuss Voigt Hill
#
# Bulk Modulus (GPa) = 45.26066 46.06226 45.66146
# Shear Modulus (GPa) = 31.13711 32.99823 32.06767
#
# Velocity S-wave (km/s) = 3.73963 3.84977 3.79510
# Velocity P-wave (km/s) = 6.24297 6.35997 6.30174
#
# Compressibility (1/GPa) = 0.02209424
#
# Stress axis : x y z
#
# Youngs Moduli (GPa) = 91.74004 69.67099 106.80739
#
# Poissons Ratio (x) = 0.20253 0.12572
# Poissons Ratio (y) = 0.26669 0.23251
# Poissons Ratio (z) = 0.10799 0.15167
#
# Static dielectric constant tensor:
#      x y z
#    x 3.890340 0.000000 0.000000 
#    y 0.000000 4.342580 0.000000 
#    z 0.000000 0.000000 4.059230 
# 
# 
# High freq. dielectric constant tensor:
#      x y z
#    x 1.867290 0.000000 0.000000 
#    y 0.000000 1.898800 0.000000 
#    z 0.000000 0.000000 1.888130 
# 
# From -- ./inp_files/24226.got.cif
#   From: 2010.06.25/outbox.cif.g09.slc.cpg/sg43_13_cif.got.tgz:24226.got - 2010.06.26 16:48:59.
