data_PCOD8187340
_publ_section_title
;
Structure prediction by ZEFSAII (Michael W. Deem and Ramdas Pophale) SiO2 
 PCOD8187340
Probable space group: F D D 2
;
_chemical_formula_sum "Si O2"
_cell_formula_units_Z 104
_cell_length_a 19.188933
_cell_length_b 9.231962
_cell_length_c 26.990103
_cell_angle_alpha 90.000000
_cell_angle_beta 90.000000
_cell_angle_gamma 90.000000
_cell_volume 4781.337239
_symmetry_space_group_name_H-M "F D D 2"
_symmetry_group_IT_number 43
_symmetry_cell_setting 'orthorhombic'
loop_
_space_group_symop_operation_xyz
x,y,z
-x,-y,z
1/4-x,1/4+y,1/4+z
1/4+x,1/4-y,1/4+z
x,1/2+y,1/2+z
-x,1/2-y,1/2+z
1/4-x,3/4+y,3/4+z
1/4+x,3/4-y,3/4+z
1/2+x,y,1/2+z
1/2-x,-y,1/2+z
3/4-x,1/4+y,3/4+z
3/4+x,1/4-y,3/4+z
1/2+x,1/2+y,z
1/2-x,1/2-y,z
3/4-x,3/4+y,1/4+z
3/4+x,3/4-y,1/4+z
loop_
_atom_site_type_symbol
_atom_site_label
_atom_site_fract_x
_atom_site_fract_y
_atom_site_fract_z
Si Si1 0.425028 0.986041 0.989750
Si Si2 0.186913 0.512409 0.308469
Si Si3 0.372994 0.881129 0.145333
Si Si4 0.388066 0.696869 0.741040
Si Si5 0.000000 0.500000 0.193101
Si Si6 0.654087 0.032716 0.800918
Si Si7 0.424173 0.943677 0.389687
O O1 0.500000 0.000000 0.963366
O O2 0.375639 0.047105 0.947737
O O3 0.400652 0.825376 0.004145
O O4 0.431628 0.069811 0.042454
O O5 0.158535 0.433804 0.259913
O O6 0.264874 0.449855 0.317943
O O7 0.135097 0.489174 0.354143
O O8 0.361761 0.775227 0.098649
O O9 0.449810 0.943723 0.149893
O O10 0.320962 0.018243 0.140235
O O11 0.464231 0.626671 0.727392
O O12 0.386464 0.822354 0.783065
O O13 0.348306 0.757027 0.692844
O O14 0.500000 0.000000 0.373460
#
# Coordination Sequence:
#
# PCOD8187340 Si02
#       7
#    16  16  16  16   8  16  16
#     4  10  22  39  65  91 129 174 224 269 337 401
#     4  11  21  41  68  94 129 180 222 272 334 418
#     4  11  22  43  66  96 134 178 219 277 339 412
#     4  11  24  42  67  99 134 175 227 284 335 406
#     4  10  22  42  72  96 130 182 230 278 338 414
#     4  11  23  41  66  98 131 176 227 276 343 403
#     4  11  23  38  67 101 131 175 230 277 331 408
#
# _framework density 21.751237
#
# number of rings (size 3 to 8) (size 9 to 14) (size 15 to 20)
#    0.000    1.231    4.615    3.231    4.308    1.231 
#    0.000    2.308    0.000    0.000    0.000    0.000 
#    0.000    0.000    0.000    0.000    0.000    0.000 
#
# Total GULP energy -322118.906116 kJ/mol
# GULP energy per Si atom -12389.188697 kJ/mol
# Density = 2.170173 g / cm^3
# Si number density = 21.751237 Si / 1000 Ang^3
#
#
#
# Elastic Constant Matrix: (Units=GPa)
#
#
# Indices 1 2 3 4 5 6 
#
# 1 84.1486 44.4589 37.0418 0.0000 0.0000 0.0000
# 2 44.4589 101.5451 39.5178 0.0000 0.0000 0.0000
# 3 37.0418 39.5178 116.9434 0.0000 0.0000 0.0000
# 4 0.0000 0.0000 0.0000 39.2648 0.0000 0.0000
# 5 0.0000 0.0000 0.0000 0.0000 31.7487 0.0000
# 6 0.0000 0.0000 0.0000 0.0000 0.0000 26.1011
#
#
#
# Elastic Compliance Matrix: (Units=1/GPa)
#
#
# Indices 1 2 3 4 5 6 
#
# 1 0.016435 -0.005952 -0.003194 0.000000 0.000000 0.000000
# 2 -0.005952 0.013495 -0.002675 0.000000 0.000000 0.000000
# 3 -0.003194 -0.002675 0.010467 0.000000 0.000000 0.000000
# 4 0.000000 0.000000 0.000000 0.025468 0.000000 0.000000
# 5 0.000000 0.000000 0.000000 0.000000 0.031497 0.000000
# 6 0.000000 0.000000 0.000000 0.000000 0.000000 0.038312
#
#
# Mechanical properties :
#
#
# Convention : Reuss Voigt Hill
#
# Bulk Modulus (GPa) = 59.68908 60.51934 60.10421
# Shear Modulus (GPa) = 30.32107 31.53083 30.92595
#
# Velocity S-wave (km/s) = 3.73767 3.81151 3.77477
# Velocity P-wave (km/s) = 6.79177 6.87415 6.83308
#
# Compressibility (1/GPa) = 0.01675348
#
# Stress axis : x y z
#
# Youngs Moduli (GPa) = 60.84674 74.10215 95.54023
#
# Poissons Ratio (x) = 0.44109 0.30518
# Poissons Ratio (y) = 0.36219 0.25555
# Poissons Ratio (z) = 0.19436 0.19821
#
# Static dielectric constant tensor:
#      x y z
#    x 3.866070 0.000000 0.000000 
#    y 0.000000 3.917930 0.000000 
#    z 0.000000 0.000000 3.822410 
# 
# 
# High freq. dielectric constant tensor:
#      x y z
#    x 1.842490 0.000000 0.000000 
#    y 0.000000 1.845940 0.000000 
#    z 0.000000 0.000000 1.863690 
# 
# From -- ./inp_files/24323.got.cif
#   From: 2010.06.25/outbox.cif.g09.slc.cpg/sg43_13_cif.got.tgz:24323.got - 2010.06.26 16:48:59.
