data_PCOD8187366
_publ_section_title
;
Structure prediction by ZEFSAII (Michael W. Deem and Ramdas Pophale) SiO2 
 PCOD8187366
Probable space group: F D D 2
;
_chemical_formula_sum "Si O2"
_cell_formula_units_Z 112
_cell_length_a 30.056691
_cell_length_b 15.634657
_cell_length_c 10.802927
_cell_angle_alpha 90.000000
_cell_angle_beta 90.000000
_cell_angle_gamma 90.000000
_cell_volume 5076.576860
_symmetry_space_group_name_H-M "F D D 2"
_symmetry_group_IT_number 43
_symmetry_cell_setting 'orthorhombic'
loop_
_space_group_symop_operation_xyz
x,y,z
-x,-y,z
1/4-x,1/4+y,1/4+z
1/4+x,1/4-y,1/4+z
x,1/2+y,1/2+z
-x,1/2-y,1/2+z
1/4-x,3/4+y,3/4+z
1/4+x,3/4-y,3/4+z
1/2+x,y,1/2+z
1/2-x,-y,1/2+z
3/4-x,1/4+y,3/4+z
3/4+x,1/4-y,3/4+z
1/2+x,1/2+y,z
1/2-x,1/2-y,z
3/4-x,3/4+y,1/4+z
3/4+x,3/4-y,1/4+z
loop_
_atom_site_type_symbol
_atom_site_label
_atom_site_fract_x
_atom_site_fract_y
_atom_site_fract_z
Si Si1 0.820220 0.330477 0.114760
Si Si2 0.424996 0.671833 0.788034
Si Si3 0.766607 0.846999 0.841809
Si Si4 0.790042 0.493481 0.790146
Si Si5 0.850854 0.589677 0.440877
Si Si6 0.256135 0.659771 0.908074
Si Si7 0.370644 0.428266 0.420559
O O1 0.804921 0.371920 0.243273
O O2 0.835237 0.235430 0.158259
O O3 0.777326 0.330670 0.024750
O O4 0.861440 0.383392 0.053617
O O5 0.463411 0.612493 0.729171
O O6 0.410496 0.739464 0.682056
O O7 0.382851 0.614647 0.826978
O O8 0.444189 0.729390 0.899795
O O9 0.750000 0.750000 0.830026
O O10 0.726573 0.910633 0.809587
O O11 0.753911 0.420476 0.820440
O O12 0.829204 0.488531 0.889486
O O13 0.807457 0.650073 0.446407
O O14 0.877947 0.602747 0.568840
O O15 0.250000 0.750000 0.834408
#
# Coordination Sequence:
#
# PCOD8187366 Si02
#       7
#    16  16  16  16  16  16  16
#     4  11  24  39  67 101 137 178 229 284 355 415
#     4  11  26  46  69 101 138 185 229 293 356 419
#     4  12  28  47  67 100 142 190 237 293 357 425
#     4  10  24  45  69  96 138 183 235 281 353 426
#     4  11  22  44  72  99 142 174 239 287 352 423
#     4  11  21  40  74 105 131 180 234 290 346 414
#     4  10  22  40  68 104 133 178 230 289 348 422
#
# _framework density 22.062109
#
# number of rings (size 3 to 8) (size 9 to 14) (size 15 to 20)
#    0.000    1.143    2.857    3.000   10.000    1.714 
#    0.000    0.000    0.000    0.000    0.000    0.000 
#    0.000    0.000    0.000    0.000    0.000    0.000 
#
# Total GULP energy -347071.676662 kJ/mol
# GULP energy per Si atom -12395.417024 kJ/mol
# Density = 2.201190 g / cm^3
# Si number density = 22.062109 Si / 1000 Ang^3
#
#
#
# Elastic Constant Matrix: (Units=GPa)
#
#
# Indices 1 2 3 4 5 6 
#
# 1 90.4251 40.6095 29.3893 0.0000 0.0000 0.0000
# 2 40.6095 145.3723 41.5064 0.0000 0.0000 0.0000
# 3 29.3893 41.5064 58.8259 0.0000 0.0000 0.0000
# 4 0.0000 0.0000 0.0000 21.5221 0.0000 0.0000
# 5 0.0000 0.0000 0.0000 0.0000 26.9724 0.0000
# 6 0.0000 0.0000 0.0000 0.0000 0.0000 39.4697
#
#
#
# Elastic Compliance Matrix: (Units=1/GPa)
#
#
# Indices 1 2 3 4 5 6 
#
# 1 0.013824 -0.002366 -0.005237 0.000000 0.000000 0.000000
# 2 -0.002366 0.009019 -0.005182 0.000000 0.000000 0.000000
# 3 -0.005237 -0.005182 0.023272 0.000000 0.000000 0.000000
# 4 0.000000 0.000000 0.000000 0.046464 0.000000 0.000000
# 5 0.000000 0.000000 0.000000 0.000000 0.037075 0.000000
# 6 0.000000 0.000000 0.000000 0.000000 0.000000 0.025336
#
#
# Mechanical properties :
#
#
# Convention : Reuss Voigt Hill
#
# Bulk Modulus (GPa) = 48.67296 57.51486 53.09391
# Shear Modulus (GPa) = 26.67991 29.80071 28.24031
#
# Velocity S-wave (km/s) = 3.48128 3.67926 3.58164
# Velocity P-wave (km/s) = 6.18618 6.64646 6.42044
#
# Compressibility (1/GPa) = 0.02054529
#
# Stress axis : x y z
#
# Youngs Moduli (GPa) = 72.34018 110.87204 42.97100
#
# Poissons Ratio (x) = 0.26238 0.22502
# Poissons Ratio (y) = 0.17119 0.22266
# Poissons Ratio (z) = 0.37881 0.57450
#
# Static dielectric constant tensor:
#      x y z
#    x 4.109730 0.000000 0.000000 
#    y 0.000000 4.084140 0.000000 
#    z 0.000000 0.000000 3.763300 
# 
# 
# High freq. dielectric constant tensor:
#      x y z
#    x 1.878250 0.000000 0.000000 
#    y 0.000000 1.875090 0.000000 
#    z 0.000000 0.000000 1.842510 
# 
# From -- ./inp_files/8266.got.cif
#   From: 2010.06.25/outbox.cif.g09.slc.cpg/sg43_5_cif.got.tgz:8266.got - 2010.06.26 16:48:59.
