data_PCOD8187436
_publ_section_title
;
Structure prediction by ZEFSAII (Michael W. Deem and Ramdas Pophale) SiO2 
 PCOD8187436
Probable space group: F D D 2
;
_chemical_formula_sum "Si O2"
_cell_formula_units_Z 64
_cell_length_a 16.243599
_cell_length_b 9.051026
_cell_length_c 19.628366
_cell_angle_alpha 90.000000
_cell_angle_beta 90.000000
_cell_angle_gamma 90.000000
_cell_volume 2885.786647
_symmetry_space_group_name_H-M "F D D 2"
_symmetry_group_IT_number 43
_symmetry_cell_setting 'orthorhombic'
loop_
_space_group_symop_operation_xyz
x,y,z
-x,-y,z
1/4-x,1/4+y,1/4+z
1/4+x,1/4-y,1/4+z
x,1/2+y,1/2+z
-x,1/2-y,1/2+z
1/4-x,3/4+y,3/4+z
1/4+x,3/4-y,3/4+z
1/2+x,y,1/2+z
1/2-x,-y,1/2+z
3/4-x,1/4+y,3/4+z
3/4+x,1/4-y,3/4+z
1/2+x,1/2+y,z
1/2-x,1/2-y,z
3/4-x,3/4+y,1/4+z
3/4+x,3/4-y,1/4+z
loop_
_atom_site_type_symbol
_atom_site_label
_atom_site_fract_x
_atom_site_fract_y
_atom_site_fract_z
Si Si1 0.005114 0.759561 0.080760
Si Si2 0.818735 0.841167 0.950149
Si Si3 0.366191 0.498422 0.076926
Si Si4 0.985805 0.170431 0.430398
O O1 0.987533 0.635043 0.135608
O O2 0.926409 0.862978 0.088683
O O3 0.089631 0.847217 0.094016
O O4 0.017346 0.688517 0.006937
O O5 0.750000 0.750000 0.993949
O O6 0.893565 0.735569 0.925985
O O7 0.843225 0.983044 0.996362
O O8 0.288595 0.482469 0.126995
O O9 0.000000 0.000000 0.409115
#
# Coordination Sequence:
#
# PCOD8187436 Si02
#       4
#    16  16  16  16
#     4  10  22  44  67  96 132 172 220 277 330 399
#     4  11  24  42  68  96 134 175 221 277 336 395
#     4  10  23  42  66  98 129 173 220 270 339 398
#     4  11  24  41  68  97 132 174 222 273 332 398
#
# _framework density 22.177659999999999
#
# number of rings (size 3 to 8) (size 9 to 14) (size 15 to 20)
#    0.000    1.500    0.000    3.750    7.000    2.000 
#   13.500    0.000    0.000    0.000    0.000    0.000 
#    0.000    0.000    0.000    0.000    0.000    0.000 
#
# Total GULP energy -198268.872393 kJ/mol
# GULP energy per Si atom -12391.804525 kJ/mol
# Density = 2.212718 g / cm^3
# Si number density = 22.177660 Si / 1000 Ang^3
#
#
#
# Elastic Constant Matrix: (Units=GPa)
#
#
# Indices 1 2 3 4 5 6 
#
# 1 146.0064 42.3096 58.5632 0.0000 0.0000 0.0000
# 2 42.3096 92.7681 41.3947 0.0000 0.0000 0.0000
# 3 58.5632 41.3947 123.4582 0.0000 0.0000 0.0000
# 4 0.0000 0.0000 0.0000 33.9764 0.0000 0.0000
# 5 0.0000 0.0000 0.0000 0.0000 38.8749 0.0000
# 6 0.0000 0.0000 0.0000 0.0000 0.0000 22.4800
#
#
#
# Elastic Compliance Matrix: (Units=1/GPa)
#
#
# Indices 1 2 3 4 5 6 
#
# 1 0.008952 -0.002573 -0.003384 0.000000 0.000000 0.000000
# 2 -0.002573 0.013416 -0.003278 0.000000 0.000000 0.000000
# 3 -0.003384 -0.003278 0.010804 0.000000 0.000000 0.000000
# 4 0.000000 0.000000 0.000000 0.029432 0.000000 0.000000
# 5 0.000000 0.000000 0.000000 0.000000 0.025724 0.000000
# 6 0.000000 0.000000 0.000000 0.000000 0.000000 0.044484
#
#
# Mechanical properties :
#
#
# Convention : Reuss Voigt Hill
#
# Bulk Modulus (GPa) = 68.01406 71.86308 69.93857
# Shear Modulus (GPa) = 32.01427 33.73061 32.87244
#
# Velocity S-wave (km/s) = 3.80351 3.90414 3.85415
# Velocity P-wave (km/s) = 7.07272 7.26614 7.17008
#
# Compressibility (1/GPa) = 0.01470284
#
# Stress axis : x y z
#
# Youngs Moduli (GPa) = 111.70980 74.54027 92.55869
#
# Poissons Ratio (x) = 0.19178 0.31319
# Poissons Ratio (y) = 0.28741 0.30338
# Poissons Ratio (z) = 0.37799 0.24432
#
# Static dielectric constant tensor:
#      x y z
#    x 4.122570 0.000000 0.000000 
#    y 0.000000 3.934050 0.000000 
#    z 0.000000 0.000000 3.938940 
# 
# 
# High freq. dielectric constant tensor:
#      x y z
#    x 1.887230 0.000000 0.000000 
#    y 0.000000 1.875470 0.000000 
#    z 0.000000 0.000000 1.869640 
# 
# From -- ./inp_files/9384.got.cif
#   From: 2010.06.25/outbox.cif.g09.slc.cpg/sg43_5_cif.got.tgz:9384.got - 2010.06.26 16:48:59.
