data_PCOD8187262
_publ_section_title
;
Structure prediction by ZEFSAII (Michael W. Deem and Ramdas Pophale) SiO2 
 PCOD8187262
Probable space group: F D D 2
;
_chemical_formula_sum "Si O2"
_cell_formula_units_Z 104
_cell_length_a 9.603494
_cell_length_b 15.453830
_cell_length_c 26.643324
_cell_angle_alpha 90.000000
_cell_angle_beta 90.000000
_cell_angle_gamma 90.000000
_cell_volume 3954.156062
_symmetry_space_group_name_H-M "F D D 2"
_symmetry_group_IT_number 43
_symmetry_cell_setting 'orthorhombic'
loop_
_space_group_symop_operation_xyz
x,y,z
-x,-y,z
1/4-x,1/4+y,1/4+z
1/4+x,1/4-y,1/4+z
x,1/2+y,1/2+z
-x,1/2-y,1/2+z
1/4-x,3/4+y,3/4+z
1/4+x,3/4-y,3/4+z
1/2+x,y,1/2+z
1/2-x,-y,1/2+z
3/4-x,1/4+y,3/4+z
3/4+x,1/4-y,3/4+z
1/2+x,1/2+y,z
1/2-x,1/2-y,z
3/4-x,3/4+y,1/4+z
3/4+x,3/4-y,1/4+z
loop_
_atom_site_type_symbol
_atom_site_label
_atom_site_fract_x
_atom_site_fract_y
_atom_site_fract_z
Si Si1 0.000000 0.500000 0.194710
Si Si2 0.635581 0.128410 0.274037
Si Si3 0.199087 0.848156 0.634807
Si Si4 0.002090 0.816031 0.388455
Si Si5 0.178925 0.458020 0.934077
Si Si6 0.525307 0.607806 0.178687
Si Si7 0.043380 0.406085 0.789512
O O1 0.045423 0.574354 0.233417
O O2 0.135368 0.492108 0.156153
O O3 0.569153 0.130014 0.328111
O O4 0.609968 0.220016 0.244266
O O5 0.792321 0.094428 0.277299
O O6 0.250000 0.750000 0.636417
O O7 0.324218 0.909221 0.654433
O O8 0.059487 0.856802 0.668929
O O9 0.044666 0.911386 0.409869
O O10 0.002990 0.829060 0.328204
O O11 0.846811 0.791832 0.409938
O O12 0.218405 0.548977 0.910044
O O13 0.544264 0.606255 0.238545
O O14 0.000000 0.500000 0.811679
#
# Coordination Sequence:
#
# PCOD8187262 Si02
#       7
#     8  16  16  16  16  16  16
#     4  10  22  40  66 102 136 176 240 284 350 416
#     4  11  22  41  69 102 136 188 233 294 351 426
#     4  10  22  40  67 100 138 187 232 283 356 419
#     4  11  23  41  70  98 140 178 240 291 347 425
#     4  10  21  41  68  97 138 183 236 281 348 429
#     4  11  24  44  65 105 142 181 233 301 346 415
#     4  12  26  42  68 105 137 186 239 290 360 421
#
# _framework density 26.301439999999999
#
# number of rings (size 3 to 8) (size 9 to 14) (size 15 to 20)
#    0.000    1.231    5.385    1.385    2.154    4.923 
#    0.000    0.000    0.000    0.000    0.000    0.000 
#    0.000    0.000    0.000    0.000    0.000    0.000 
#
# Total GULP energy -322244.076147 kJ/mol
# GULP energy per Si atom -12394.002929 kJ/mol
# Density = 2.624158 g / cm^3
# Si number density = 26.301440 Si / 1000 Ang^3
#
#
#
# Elastic Constant Matrix: (Units=GPa)
#
#
# Indices 1 2 3 4 5 6 
#
# 1 185.9068 39.1584 85.8388 0.0000 0.0000 0.0000
# 2 39.1584 42.9025 7.4385 0.0000 0.0000 0.0000
# 3 85.8388 7.4385 210.0935 0.0000 0.0000 0.0000
# 4 0.0000 0.0000 0.0000 25.3188 0.0000 0.0000
# 5 0.0000 0.0000 0.0000 0.0000 45.9646 0.0000
# 6 0.0000 0.0000 0.0000 0.0000 0.0000 38.2789
#
#
#
# Elastic Compliance Matrix: (Units=1/GPa)
#
#
# Indices 1 2 3 4 5 6 
#
# 1 0.008317 -0.007045 -0.003149 0.000000 0.000000 0.000000
# 2 -0.007045 0.029420 0.001837 0.000000 0.000000 0.000000
# 3 -0.003149 0.001837 0.005981 0.000000 0.000000 0.000000
# 4 0.000000 0.000000 0.000000 0.039496 0.000000 0.000000
# 5 0.000000 0.000000 0.000000 0.000000 0.021756 0.000000
# 6 0.000000 0.000000 0.000000 0.000000 0.000000 0.026124
#
#
# Mechanical properties :
#
#
# Convention : Reuss Voigt Hill
#
# Bulk Modulus (GPa) = 37.03065 78.19714 57.61390
# Shear Modulus (GPa) = 31.88573 42.34358 37.11465
#
# Velocity S-wave (km/s) = 3.48561 4.01675 3.76057
# Velocity P-wave (km/s) = 5.50538 7.16296 6.38816
#
# Compressibility (1/GPa) = 0.02700466
#
# Stress axis : x y z
#
# Youngs Moduli (GPa) = 120.23894 33.98997 167.19097
#
# Poissons Ratio (x) = 0.23946 0.52641
# Poissons Ratio (y) = 0.84709 -0.30709
# Poissons Ratio (z) = 0.37858 -0.06243
#
# Static dielectric constant tensor:
#      x y z
#    x 4.963400 0.000000 0.000000 
#    y 0.000000 5.435230 0.000000 
#    z 0.000000 0.000000 4.905330 
# 
# 
# High freq. dielectric constant tensor:
#      x y z
#    x 2.072150 0.000000 0.000000 
#    y 0.000000 2.108670 0.000000 
#    z 0.000000 0.000000 2.051890 
# 
# From -- ./inp_files/24325.got.cif
#   From: 2010.06.25/outbox.cif.g09.slc.cpg/sg43_13_cif.got.tgz:24325.got - 2010.06.26 16:48:59.
