data_PCOD8187543
_publ_section_title
;
Structure prediction by ZEFSAII (Michael W. Deem and Ramdas Pophale) SiO2 
 PCOD8187543
Probable space group: F D D 2
;
_chemical_formula_sum "Si O2"
_cell_formula_units_Z 80
_cell_length_a 13.467927
_cell_length_b 23.695418
_cell_length_c 11.816913
_cell_angle_alpha 90.000000
_cell_angle_beta 90.000000
_cell_angle_gamma 90.000000
_cell_volume 3771.109701
_symmetry_space_group_name_H-M "F D D 2"
_symmetry_group_IT_number 43
_symmetry_cell_setting 'orthorhombic'
loop_
_space_group_symop_operation_xyz
x,y,z
-x,-y,z
1/4-x,1/4+y,1/4+z
1/4+x,1/4-y,1/4+z
x,1/2+y,1/2+z
-x,1/2-y,1/2+z
1/4-x,3/4+y,3/4+z
1/4+x,3/4-y,3/4+z
1/2+x,y,1/2+z
1/2-x,-y,1/2+z
3/4-x,1/4+y,3/4+z
3/4+x,1/4-y,3/4+z
1/2+x,1/2+y,z
1/2-x,1/2-y,z
3/4-x,3/4+y,1/4+z
3/4+x,3/4-y,1/4+z
loop_
_atom_site_type_symbol
_atom_site_label
_atom_site_fract_x
_atom_site_fract_y
_atom_site_fract_z
Si Si1 0.531548 0.228752 0.626240
Si Si2 0.181222 0.801486 0.141523
Si Si3 0.899496 0.157177 0.561227
Si Si4 0.796826 0.309021 0.466595
Si Si5 0.286543 0.404599 0.561213
O O1 0.417763 0.223505 0.581210
O O2 0.561768 0.293986 0.645779
O O3 0.602420 0.199327 0.535560
O O4 0.539926 0.197410 0.748499
O O5 0.250000 0.750000 0.182758
O O6 0.242906 0.840998 0.054798
O O7 0.144299 0.840152 0.248835
O O8 0.780453 0.159278 0.549065
O O9 0.928732 0.095672 0.605717
O O10 0.949194 0.171412 0.440920
O O11 0.750000 0.250000 0.424720
#
# Coordination Sequence:
#
# PCOD8187543 Si02
#       5
#    16  16  16  16  16
#     4   9  25  44  65 100 134 180 226 281 348 412
#     4  10  24  43  70  95 135 176 230 280 339 417
#     4  11  23  42  70  98 135 179 228 289 345 406
#     4  10  24  43  68  99 139 176 231 282 348 410
#     4  10  24  42  69  94 135 175 232 274 346 415
#
# _framework density 21.213915
#
# number of rings (size 3 to 8) (size 9 to 14) (size 15 to 20)
#    1.200    0.800    0.000    1.200    8.400    9.600 
#    0.000    0.000    0.000    0.000    0.000    0.000 
#    0.000    0.000    0.000    0.000    0.000    0.000 
#
# Total GULP energy -247857.939088 kJ/mol
# GULP energy per Si atom -12392.896954 kJ/mol
# Density = 2.116563 g / cm^3
# Si number density = 21.213915 Si / 1000 Ang^3
#
#
#
# Elastic Constant Matrix: (Units=GPa)
#
#
# Indices 1 2 3 4 5 6 
#
# 1 147.5322 74.2128 52.0226 0.0000 0.0000 0.0000
# 2 74.2128 140.7705 66.9861 0.0000 0.0000 0.0000
# 3 52.0226 66.9861 101.6299 0.0000 0.0000 0.0000
# 4 0.0000 0.0000 0.0000 34.9078 0.0000 0.0000
# 5 0.0000 0.0000 0.0000 0.0000 21.0330 0.0000
# 6 0.0000 0.0000 0.0000 0.0000 0.0000 39.1084
#
#
#
# Elastic Compliance Matrix: (Units=1/GPa)
#
#
# Indices 1 2 3 4 5 6 
#
# 1 0.009578 -0.003958 -0.002294 0.000000 0.000000 0.000000
# 2 -0.003958 0.011985 -0.005874 0.000000 0.000000 0.000000
# 3 -0.002294 -0.005874 0.014886 0.000000 0.000000 0.000000
# 4 0.000000 0.000000 0.000000 0.028647 0.000000 0.000000
# 5 0.000000 0.000000 0.000000 0.000000 0.047544 0.000000
# 6 0.000000 0.000000 0.000000 0.000000 0.000000 0.025570
#
#
# Mechanical properties :
#
#
# Convention : Reuss Voigt Hill
#
# Bulk Modulus (GPa) = 81.98530 86.26397 84.12464
# Shear Modulus (GPa) = 30.02508 32.12390 31.07449
#
# Velocity S-wave (km/s) = 3.76619 3.89560 3.83144
# Velocity P-wave (km/s) = 7.59231 7.80938 7.70161
#
# Compressibility (1/GPa) = 0.01219731
#
# Stress axis : x y z
#
# Youngs Moduli (GPa) = 104.40579 83.43531 67.17920
#
# Poissons Ratio (x) = 0.33021 0.15412
# Poissons Ratio (y) = 0.41321 0.39460
# Poissons Ratio (z) = 0.23953 0.49009
#
# Static dielectric constant tensor:
#      x y z
#    x 4.057240 0.000000 0.000000 
#    y 0.000000 3.894640 0.000000 
#    z 0.000000 0.000000 3.388640 
# 
# 
# High freq. dielectric constant tensor:
#      x y z
#    x 1.845410 0.000000 0.000000 
#    y 0.000000 1.837740 0.000000 
#    z 0.000000 0.000000 1.799310 
# 
# From -- ./inp_files/6070.got.cif
#   From: 2010.06.25/outbox.cif.g09.slc.cpg/sg43_4_cif.got.tgz:6070.got - 2010.06.26 16:48:59.
