data_PCOD8187623
_publ_section_title
;
Structure prediction by ZEFSAII (Michael W. Deem and Ramdas Pophale) SiO2 
 PCOD8187623
Probable space group: F D D 2
;
_chemical_formula_sum "Si O2"
_cell_formula_units_Z 112
_cell_length_a 23.200899
_cell_length_b 15.710256
_cell_length_c 13.995775
_cell_angle_alpha 90.000000
_cell_angle_beta 90.000000
_cell_angle_gamma 90.000000
_cell_volume 5101.348899
_symmetry_space_group_name_H-M "F D D 2"
_symmetry_group_IT_number 43
_symmetry_cell_setting 'orthorhombic'
loop_
_space_group_symop_operation_xyz
x,y,z
-x,-y,z
1/4-x,1/4+y,1/4+z
1/4+x,1/4-y,1/4+z
x,1/2+y,1/2+z
-x,1/2-y,1/2+z
1/4-x,3/4+y,3/4+z
1/4+x,3/4-y,3/4+z
1/2+x,y,1/2+z
1/2-x,-y,1/2+z
3/4-x,1/4+y,3/4+z
3/4+x,1/4-y,3/4+z
1/2+x,1/2+y,z
1/2-x,1/2-y,z
3/4-x,3/4+y,1/4+z
3/4+x,3/4-y,1/4+z
loop_
_atom_site_type_symbol
_atom_site_label
_atom_site_fract_x
_atom_site_fract_y
_atom_site_fract_z
Si Si1 0.750000 0.250000 0.692621
Si Si2 0.884723 0.308159 0.124234
Si Si3 0.699179 0.913474 0.288560
Si Si4 0.823352 0.156395 0.214297
Si Si5 0.504578 0.746257 0.714961
Si Si6 0.313814 0.847359 0.531999
Si Si7 0.500000 0.500000 0.619059
Si Si8 0.212099 0.568480 0.149889
O O1 0.725637 0.322902 0.761055
O O2 0.702397 0.207937 0.624275
O O3 0.861025 0.212979 0.140997
O O4 0.887529 0.330545 0.010673
O O5 0.843283 0.374964 0.180484
O O6 0.950710 0.316285 0.160979
O O7 0.720592 0.941302 0.393382
O O8 0.631692 0.901716 0.281681
O O9 0.718175 0.985915 0.214985
O O10 0.799257 0.208142 0.304552
O O11 0.770268 0.122357 0.153858
O O12 0.459848 0.694133 0.782197
O O13 0.545349 0.797636 0.788131
O O14 0.287616 0.812772 0.433628
#
# Coordination Sequence:
#
# PCOD8187623 Si02
#       8
#     8  16  16  16  16  16   8  16
#     4  11  26  48  69 106 142 192 241 288 357 442
#     4  12  24  44  73 108 144 184 233 306 368 431
#     4  12  26  48  72 101 151 191 242 303 361 427
#     4  12  24  44  71 105 145 184 236 297 370 430
#     4  12  26  46  70 108 139 189 245 299 364 438
#     4  11  24  43  73 102 138 188 244 297 358 422
#     4  11  20  38  71 106 132 166 235 300 359 412
#     4  12  25  46  74 105 141 189 247 302 360 436
#
# _framework density 21.954977
#
# number of rings (size 3 to 8) (size 9 to 14) (size 15 to 20)
#    0.000    0.286    7.143    1.714    2.000    0.000 
#   10.286    0.000    0.000    0.000    0.000    0.000 
#    0.000    0.000    0.000    0.000    0.000    0.000 
#
# Total GULP energy -347152.297851 kJ/mol
# GULP energy per Si atom -12398.296352 kJ/mol
# Density = 2.190501 g / cm^3
# Si number density = 21.954977 Si / 1000 Ang^3
#
#
#
# Elastic Constant Matrix: (Units=GPa)
#
#
# Indices 1 2 3 4 5 6 
#
# 1 100.7935 43.7194 11.3674 0.0000 0.0000 0.0000
# 2 43.7194 102.8038 36.7646 0.0000 0.0000 0.0000
# 3 11.3674 36.7646 63.1603 0.0000 0.0000 0.0000
# 4 0.0000 0.0000 0.0000 37.6659 0.0000 0.0000
# 5 0.0000 0.0000 0.0000 0.0000 29.2246 0.0000
# 6 0.0000 0.0000 0.0000 0.0000 0.0000 33.2811
#
#
#
# Elastic Compliance Matrix: (Units=1/GPa)
#
#
# Indices 1 2 3 4 5 6 
#
# 1 0.012219 -0.005569 0.001043 0.000000 0.000000 0.000000
# 2 -0.005569 0.014823 -0.007626 0.000000 0.000000 0.000000
# 3 0.001043 -0.007626 0.020084 0.000000 0.000000 0.000000
# 4 0.000000 0.000000 0.000000 0.026549 0.000000 0.000000
# 5 0.000000 0.000000 0.000000 0.000000 0.034218 0.000000
# 6 0.000000 0.000000 0.000000 0.000000 0.000000 0.030047
#
#
# Mechanical properties :
#
#
# Convention : Reuss Voigt Hill
#
# Bulk Modulus (GPa) = 43.81908 50.05117 46.93512
# Shear Modulus (GPa) = 29.43730 31.69474 30.56602
#
# Velocity S-wave (km/s) = 3.66567 3.80363 3.73529
# Velocity P-wave (km/s) = 6.15777 6.49129 6.32673
#
# Compressibility (1/GPa) = 0.02282111
#
# Stress axis : x y z
#
# Youngs Moduli (GPa) = 81.83687 67.46311 49.79105
#
# Poissons Ratio (x) = 0.37573 -0.05192
# Poissons Ratio (y) = 0.45578 0.37970
# Poissons Ratio (z) = -0.08533 0.51446
#
# Static dielectric constant tensor:
#      x y z
#    x 3.976510 0.000000 0.000000 
#    y 0.000000 4.219000 0.000000 
#    z 0.000000 0.000000 3.885270 
# 
# 
# High freq. dielectric constant tensor:
#      x y z
#    x 1.875380 0.000000 0.000000 
#    y 0.000000 1.866850 0.000000 
#    z 0.000000 0.000000 1.853470 
# 
# From -- ./inp_files/11297.got.cif
#   From: 2010.06.25/outbox.cif.g09.slc.cpg/sg43_6_cif.got.tgz:11297.got - 2010.06.26 16:48:59.
