data_PCOD8187427
_publ_section_title
;
Structure prediction by ZEFSAII (Michael W. Deem and Ramdas Pophale) SiO2 
 PCOD8187427
Probable space group: F D D 2
;
_chemical_formula_sum "Si O2"
_cell_formula_units_Z 112
_cell_length_a 24.423609
_cell_length_b 16.749188
_cell_length_c 11.110472
_cell_angle_alpha 90.000000
_cell_angle_beta 90.000000
_cell_angle_gamma 90.000000
_cell_volume 4545.023208
_symmetry_space_group_name_H-M "F D D 2"
_symmetry_group_IT_number 43
_symmetry_cell_setting 'orthorhombic'
loop_
_space_group_symop_operation_xyz
x,y,z
-x,-y,z
1/4-x,1/4+y,1/4+z
1/4+x,1/4-y,1/4+z
x,1/2+y,1/2+z
-x,1/2-y,1/2+z
1/4-x,3/4+y,3/4+z
1/4+x,3/4-y,3/4+z
1/2+x,y,1/2+z
1/2-x,-y,1/2+z
3/4-x,1/4+y,3/4+z
3/4+x,1/4-y,3/4+z
1/2+x,1/2+y,z
1/2-x,1/2-y,z
3/4-x,3/4+y,1/4+z
3/4+x,3/4-y,1/4+z
loop_
_atom_site_type_symbol
_atom_site_label
_atom_site_fract_x
_atom_site_fract_y
_atom_site_fract_z
Si Si1 0.849545 0.744218 0.452830
Si Si2 0.523597 0.399623 0.860159
Si Si3 0.925077 0.197637 0.409949
Si Si4 0.750000 0.750000 0.310806
Si Si5 0.043288 0.717139 0.854340
Si Si6 0.148812 0.229715 0.721396
Si Si7 0.750000 0.250000 0.392353
Si Si8 0.895883 0.820497 0.115801
O O1 0.796496 0.787537 0.398426
O O2 0.904030 0.799095 0.440207
O O3 0.841123 0.725655 0.593767
O O4 0.852389 0.666936 0.365058
O O5 0.525000 0.306890 0.870442
O O6 0.500948 0.422264 0.728321
O O7 0.581380 0.446715 0.884175
O O8 0.483706 0.427857 0.969071
O O9 0.905445 0.231602 0.280437
O O10 0.894238 0.116595 0.452927
O O11 0.915779 0.271740 0.499710
O O12 0.988935 0.169219 0.395124
O O13 0.062294 0.704771 0.719107
O O14 0.196919 0.253887 0.810550
#
# Coordination Sequence:
#
# PCOD8187427 Si02
#       8
#    16  16  16   8  16  16   8  16
#     4  11  27  45  74 105 151 194 252 309 387 451
#     4  10  22  43  77 109 140 198 252 319 363 470
#     4  12  30  49  78 111 153 202 257 316 388 466
#     4  11  21  42  74 104 141 191 256 300 384 449
#     4  11  26  45  73 106 150 192 256 312 379 447
#     4  12  30  48  77 112 159 199 250 324 393 460
#     4  11  23  46  74 106 151 195 258 308 398 449
#     4  11  24  48  72 105 145 195 255 304 378 460
#
# _framework density 24.642337999999999
#
# number of rings (size 3 to 8) (size 9 to 14) (size 15 to 20)
#    0.000    0.857    2.857    2.143   12.000    0.000 
#    0.000    0.000    0.000    0.000    0.000    0.000 
#    0.000    0.000    0.000    0.000    0.000    0.000 
#
# Total GULP energy -346924.232934 kJ/mol
# GULP energy per Si atom -12390.151176 kJ/mol
# Density = 2.458625 g / cm^3
# Si number density = 24.642338 Si / 1000 Ang^3
#
#
#
# Elastic Constant Matrix: (Units=GPa)
#
#
# Indices 1 2 3 4 5 6 
#
# 1 112.8433 19.7195 60.6454 0.0000 0.0000 0.0000
# 2 19.7195 55.2157 -9.0810 0.0000 0.0000 0.0000
# 3 60.6454 -9.0810 133.1781 0.0000 0.0000 0.0000
# 4 0.0000 0.0000 0.0000 5.9517 0.0000 0.0000
# 5 0.0000 0.0000 0.0000 0.0000 28.5207 0.0000
# 6 0.0000 0.0000 0.0000 0.0000 0.0000 19.8512
#
#
#
# Elastic Compliance Matrix: (Units=1/GPa)
#
#
# Indices 1 2 3 4 5 6 
#
# 1 0.013368 -0.005841 -0.006486 0.000000 0.000000 0.000000
# 2 -0.005841 0.020868 0.004083 0.000000 0.000000 0.000000
# 3 -0.006486 0.004083 0.010741 0.000000 0.000000 0.000000
# 4 0.000000 0.000000 0.000000 0.168018 0.000000 0.000000
# 5 0.000000 0.000000 0.000000 0.000000 0.035062 0.000000
# 6 0.000000 0.000000 0.000000 0.000000 0.000000 0.050375
#
#
# Mechanical properties :
#
#
# Convention : Reuss Voigt Hill
#
# Bulk Modulus (GPa) = 35.10119 49.31167 42.20643
# Shear Modulus (GPa) = 15.41227 26.19493 20.80360
#
# Velocity S-wave (km/s) = 2.50359 3.26391 2.90870
# Velocity P-wave (km/s) = 4.75736 5.85308 5.33343
#
# Compressibility (1/GPa) = 0.02848906
#
# Stress axis : x y z
#
# Youngs Moduli (GPa) = 74.80444 47.91972 93.10510
#
# Poissons Ratio (x) = 0.27990 0.60386
# Poissons Ratio (y) = 0.43693 -0.38012
# Poissons Ratio (z) = 0.48516 -0.19564
#
# Static dielectric constant tensor:
#      x y z
#    x 5.256070 0.000000 0.000000 
#    y 0.000000 4.778010 0.000000 
#    z 0.000000 0.000000 4.403910 
# 
# 
# High freq. dielectric constant tensor:
#      x y z
#    x 1.990960 0.000000 0.000000 
#    y 0.000000 1.970710 0.000000 
#    z 0.000000 0.000000 1.987070 
# 
# From -- ./inp_files/7609.got.cif
#   From: 2010.06.25/outbox.cif.g09.slc.cpg/sg43_4_cif.got.tgz:7609.got - 2010.06.26 16:48:59.
