data_PCOD8187955
_publ_section_title
;
Structure prediction by ZEFSAII (Michael W. Deem and Ramdas Pophale) SiO2 
 PCOD8187955
Probable space group: I M M 2
;
_chemical_formula_sum "Si O2"
_cell_formula_units_Z 48
_cell_length_a 15.689707
_cell_length_b 20.282851
_cell_length_c 8.145710
_cell_angle_alpha 90.000000
_cell_angle_beta 90.000000
_cell_angle_gamma 90.000000
_cell_volume 2592.225498
_symmetry_space_group_name_H-M "I M M 2"
_symmetry_group_IT_number 44
_symmetry_cell_setting 'orthorhombic'
loop_
_space_group_symop_operation_xyz
x,y,z
-x,-y,z
-x,y,z
x,-y,z
1/2+x,1/2+y,1/2+z
1/2-x,1/2-y,1/2+z
1/2-x,1/2+y,1/2+z
1/2+x,1/2-y,1/2+z
loop_
_atom_site_type_symbol
_atom_site_label
_atom_site_fract_x
_atom_site_fract_y
_atom_site_fract_z
Si Si1 0.094965 0.155716 0.711230
Si Si2 0.752853 0.922636 0.579306
Si Si3 0.741797 0.823985 0.299871
Si Si4 0.594898 0.151726 0.712519
Si Si5 0.848843 0.770685 0.017846
Si Si6 0.402626 0.206263 0.067467
O O1 0.165777 0.099662 0.686889
O O2 0.114111 0.214977 0.583101
O O3 0.000000 0.126712 0.681799
O O4 0.097993 0.182620 0.897606
O O5 0.759072 0.890680 0.399178
O O6 0.664913 0.903181 0.669306
O O7 0.755914 0.000000 0.557074
O O8 0.818605 0.812737 0.173688
O O9 0.732940 0.760707 0.422201
O O10 0.653993 0.833079 0.199005
O O11 0.500000 0.120063 0.716671
O O12 0.593593 0.209742 0.577602
O O13 0.620453 0.183027 0.885953
O O14 0.500000 0.190290 0.112347
#
# Coordination Sequence:
#
# PCOD8187955 Si02
#       6
#     8   8   8   8   8   8
#     4  10  20  35  57  82 106 132 168 217 269 318
#     4  11  24  38  52  71 102 149 189 214 248 298
#     4  10  18  31  52  78 110 140 169 211 260 313
#     4  10  19  33  56  84 112 137 166 210 261 315
#     4  10  17  30  54  85 109 131 162 213 273 319
#     4   9  17  31  55  86 111 131 161 211 274 321
#
# _framework density 18.516908999999998
#
# number of rings (size 3 to 8) (size 9 to 14) (size 15 to 20)
#    0.000    2.000    0.000    7.500    0.000    4.667 
#    0.000    4.167    0.000    1.000    0.000    0.000 
#    0.000    0.000    0.000    0.000    0.000    0.000 
#
# Total GULP energy -297591.270139 kJ/mol
# GULP energy per Si atom -12399.636256 kJ/mol
# Density = 1.847476 g / cm^3
# Si number density = 18.516909 Si / 1000 Ang^3
#
#
#
# Elastic Constant Matrix: (Units=GPa)
#
#
# Indices 1 2 3 4 5 6 
#
# 1 105.4678 47.6563 23.4794 0.0000 0.0000 0.0000
# 2 47.6563 101.0332 43.1659 0.0000 0.0000 0.0000
# 3 23.4794 43.1659 93.1461 0.0000 0.0000 0.0000
# 4 0.0000 0.0000 0.0000 17.5773 0.0000 0.0000
# 5 0.0000 0.0000 0.0000 0.0000 29.0354 0.0000
# 6 0.0000 0.0000 0.0000 0.0000 0.0000 14.5105
#
#
#
# Elastic Compliance Matrix: (Units=1/GPa)
#
#
# Indices 1 2 3 4 5 6 
#
# 1 0.012069 -0.005477 -0.000504 0.000000 0.000000 0.000000
# 2 -0.005477 0.014827 -0.005491 0.000000 0.000000 0.000000
# 3 -0.000504 -0.005491 0.013407 0.000000 0.000000 0.000000
# 4 0.000000 0.000000 0.000000 0.056892 0.000000 0.000000
# 5 0.000000 0.000000 0.000000 0.000000 0.034441 0.000000
# 6 0.000000 0.000000 0.000000 0.000000 0.000000 0.068916
#
#
# Mechanical properties :
#
#
# Convention : Reuss Voigt Hill
#
# Bulk Modulus (GPa) = 57.60501 58.69447 58.14974
# Shear Modulus (GPa) = 21.80727 24.58100 23.19414
#
# Velocity S-wave (km/s) = 3.43548 3.64743 3.54304
# Velocity P-wave (km/s) = 6.84935 7.03597 6.94329
#
# Compressibility (1/GPa) = 0.01735960
#
# Stress axis : x y z
#
# Youngs Moduli (GPa) = 82.85865 67.44364 74.58645
#
# Poissons Ratio (x) = 0.36942 0.03758
# Poissons Ratio (y) = 0.45385 0.40952
# Poissons Ratio (z) = 0.04175 0.37030
#
# Static dielectric constant tensor:
#      x y z
#    x 3.474060 0.000000 0.000000 
#    y 0.000000 2.867420 0.000000 
#    z 0.000000 0.000000 3.597410 
# 
# 
# High freq. dielectric constant tensor:
#      x y z
#    x 1.734140 0.000000 0.000000 
#    y 0.000000 1.657590 0.000000 
#    z 0.000000 0.000000 1.732570 
# 
# From -- ./inp_files/7273.got.cif
#   From: 2010.03.12/outbox.cif.g09.slc.cpg/sg44_4_cif.got.tgz:7273.got - 2010.04.14 02:36:11.
