data_PCOD8187389
_publ_section_title
;
Structure prediction by ZEFSAII (Michael W. Deem and Ramdas Pophale) SiO2 
 PCOD8187389
Probable space group: F D D 2
;
_chemical_formula_sum "Si O2"
_cell_formula_units_Z 120
_cell_length_a 22.354144
_cell_length_b 15.594958
_cell_length_c 16.799825
_cell_angle_alpha 90.000000
_cell_angle_beta 90.000000
_cell_angle_gamma 90.000000
_cell_volume 5856.619531
_symmetry_space_group_name_H-M "F D D 2"
_symmetry_group_IT_number 43
_symmetry_cell_setting 'orthorhombic'
loop_
_space_group_symop_operation_xyz
x,y,z
-x,-y,z
1/4-x,1/4+y,1/4+z
1/4+x,1/4-y,1/4+z
x,1/2+y,1/2+z
-x,1/2-y,1/2+z
1/4-x,3/4+y,3/4+z
1/4+x,3/4-y,3/4+z
1/2+x,y,1/2+z
1/2-x,-y,1/2+z
3/4-x,1/4+y,3/4+z
3/4+x,1/4-y,3/4+z
1/2+x,1/2+y,z
1/2-x,1/2-y,z
3/4-x,3/4+y,1/4+z
3/4+x,3/4-y,1/4+z
loop_
_atom_site_type_symbol
_atom_site_label
_atom_site_fract_x
_atom_site_fract_y
_atom_site_fract_z
Si Si1 0.642252 0.883484 0.176990
Si Si2 0.210293 0.985046 0.550760
Si Si3 0.314662 0.604139 0.080691
Si Si4 0.613479 0.692774 0.165235
Si Si5 0.707532 0.169515 0.546586
Si Si6 0.075036 0.359211 0.668306
Si Si7 0.483556 0.900227 0.558849
Si Si8 0.500000 0.500000 0.258684
O O1 0.657643 0.948347 0.105790
O O2 0.613873 0.794828 0.143417
O O3 0.596072 0.932821 0.233842
O O4 0.705467 0.866074 0.222073
O O5 0.253867 0.911137 0.519810
O O6 0.253020 0.052858 0.597003
O O7 0.178131 0.025577 0.473725
O O8 0.356766 0.608480 0.158532
O O9 0.298608 0.702335 0.062778
O O10 0.354107 0.561424 0.009944
O O11 0.677914 0.657014 0.134620
O O12 0.563407 0.633603 0.125242
O O13 0.750000 0.250000 0.546647
O O14 0.043924 0.345134 0.580479
O O15 0.035244 0.433474 0.705283
O O16 0.500000 0.000000 0.567026
#
# Coordination Sequence:
#
# PCOD8187389 Si02
#       8
#    16  16  16  16  16  16  16   8
#     4  11  24  39  64  96 130 174 214 264 327 392
#     4  11  24  43  62  95 134 163 219 266 325 388
#     4  11  23  39  67  92 126 170 210 267 324 381
#     4  11  21  36  63  98 130 162 207 268 334 377
#     4  11  23  40  65  91 130 170 211 270 319 381
#     4  11  22  39  65  90 129 170 204 270 323 380
#     4  11  21  36  62 101 131 158 212 274 324 387
#     4  10  22  42  58  94 132 152 212 270 314 380
#
# _framework density 20.489636000000001
#
# number of rings (size 3 to 8) (size 9 to 14) (size 15 to 20)
#    0.000    1.067    6.000    0.800    7.467    0.000 
#    4.800    0.000    7.333    0.000    0.000    0.000 
#    0.000    0.000    0.000    0.000    0.000    0.000 
#
# Total GULP energy -371762.285774 kJ/mol
# GULP energy per Si atom -12392.076192 kJ/mol
# Density = 2.044300 g / cm^3
# Si number density = 20.489636 Si / 1000 Ang^3
#
#
#
# Elastic Constant Matrix: (Units=GPa)
#
#
# Indices 1 2 3 4 5 6 
#
# 1 92.6524 35.2521 21.2087 0.0000 0.0000 0.0000
# 2 35.2521 95.9678 32.7159 0.0000 0.0000 0.0000
# 3 21.2087 32.7159 48.5033 0.0000 0.0000 0.0000
# 4 0.0000 0.0000 0.0000 19.5133 0.0000 0.0000
# 5 0.0000 0.0000 0.0000 0.0000 4.9646 0.0000
# 6 0.0000 0.0000 0.0000 0.0000 0.0000 38.6172
#
#
#
# Elastic Compliance Matrix: (Units=1/GPa)
#
#
# Indices 1 2 3 4 5 6 
#
# 1 0.012913 -0.003660 -0.003178 0.000000 0.000000 0.000000
# 2 -0.003660 0.014569 -0.008227 0.000000 0.000000 0.000000
# 3 -0.003178 -0.008227 0.027556 0.000000 0.000000 0.000000
# 4 0.000000 0.000000 0.000000 0.051247 0.000000 0.000000
# 5 0.000000 0.000000 0.000000 0.000000 0.201426 0.000000
# 6 0.000000 0.000000 0.000000 0.000000 0.000000 0.025895
#
#
# Mechanical properties :
#
#
# Convention : Reuss Voigt Hill
#
# Bulk Modulus (GPa) = 40.14602 46.16407 43.15505
# Shear Modulus (GPa) = 13.43952 22.48215 17.96084
#
# Velocity S-wave (km/s) = 2.56387 3.31606 2.96392
# Velocity P-wave (km/s) = 5.32921 6.10255 5.72894
#
# Compressibility (1/GPa) = 0.02490907
#
# Stress axis : x y z
#
# Youngs Moduli (GPa) = 77.44146 68.63829 36.29037
#
# Poissons Ratio (x) = 0.25122 0.11532
# Poissons Ratio (y) = 0.28344 0.29855
# Poissons Ratio (z) = 0.24608 0.56466
#
# Static dielectric constant tensor:
#      x y z
#    x 3.948320 0.000000 0.000000 
#    y 0.000000 6.191210 0.000000 
#    z 0.000000 0.000000 3.683030 
# 
# 
# High freq. dielectric constant tensor:
#      x y z
#    x 1.809220 0.000000 0.000000 
#    y 0.000000 1.798090 0.000000 
#    z 0.000000 0.000000 1.776970 
# 
# From -- ./inp_files/14874.got.cif
#   From: 2010.06.25/outbox.cif.g09.slc.cpg/sg43_8_cif.got.tgz:14874.got - 2010.06.26 16:48:59.
