data_PCOD8187117
_publ_section_title
;
Structure prediction by ZEFSAII (Michael W. Deem and Ramdas Pophale) SiO2 
 PCOD8187117
Probable space group: F D D 2
;
_chemical_formula_sum "Si O2"
_cell_formula_units_Z 120
_cell_length_a 16.967927
_cell_length_b 12.511294
_cell_length_c 25.393751
_cell_angle_alpha 90.000000
_cell_angle_beta 90.000000
_cell_angle_gamma 90.000000
_cell_volume 5390.857766
_symmetry_space_group_name_H-M "F D D 2"
_symmetry_group_IT_number 43
_symmetry_cell_setting 'orthorhombic'
loop_
_space_group_symop_operation_xyz
x,y,z
-x,-y,z
1/4-x,1/4+y,1/4+z
1/4+x,1/4-y,1/4+z
x,1/2+y,1/2+z
-x,1/2-y,1/2+z
1/4-x,3/4+y,3/4+z
1/4+x,3/4-y,3/4+z
1/2+x,y,1/2+z
1/2-x,-y,1/2+z
3/4-x,1/4+y,3/4+z
3/4+x,1/4-y,3/4+z
1/2+x,1/2+y,z
1/2-x,1/2-y,z
3/4-x,3/4+y,1/4+z
3/4+x,3/4-y,1/4+z
loop_
_atom_site_type_symbol
_atom_site_label
_atom_site_fract_x
_atom_site_fract_y
_atom_site_fract_z
Si Si1 0.115626 0.332602 0.520500
Si Si2 0.078071 0.808899 0.768651
Si Si3 0.250000 0.250000 0.446501
Si Si4 0.828419 0.798028 0.617776
Si Si5 0.548614 0.211458 0.353754
Si Si6 0.831409 0.802306 0.771833
Si Si7 0.697923 0.025750 0.944903
Si Si8 0.051789 0.724237 0.476625
O O1 0.112555 0.460512 0.526923
O O2 0.177083 0.299589 0.476547
O O3 0.150323 0.283580 0.572611
O O4 0.028620 0.294297 0.507397
O O5 0.127964 0.913762 0.756103
O O6 0.029171 0.829086 0.822757
O O7 0.023470 0.784971 0.717952
O O8 0.284011 0.357289 0.417669
O O9 0.750000 0.750000 0.647059
O O10 0.906282 0.802464 0.653523
O O11 0.807903 0.912484 0.594482
O O12 0.624997 0.157649 0.325517
O O13 0.544131 0.185074 0.415878
O O14 0.750000 0.750000 0.789230
O O15 0.885777 0.711832 0.743552
O O16 0.820294 0.899779 0.730428
#
# Coordination Sequence:
#
# PCOD8187117 Si02
#       8
#    16  16   8  16  16  16  16  16
#     4  11  22  42  67  95 138 184 229 295 351 427
#     4  10  24  48  63  99 146 182 230 290 359 438
#     4  10  20  40  62  98 136 174 226 300 350 392
#     4  12  21  41  72 102 133 181 234 300 360 416
#     4  11  25  45  70 101 140 189 233 303 360 425
#     4  11  23  44  70 105 137 179 247 294 349 433
#     4  10  22  38  68 100 139 177 229 293 353 422
#     4  12  26  45  72 100 143 195 236 291 361 442
#
# _framework density 22.259909
#
# number of rings (size 3 to 8) (size 9 to 14) (size 15 to 20)
#    0.000    1.067    3.333    4.000    1.867    4.267 
#   12.000    0.000    0.000    0.000    0.000    0.000 
#    0.000    0.000    0.000    0.000    0.000    0.000 
#
# Total GULP energy -371788.092671 kJ/mol
# GULP energy per Si atom -12392.936422 kJ/mol
# Density = 2.220924 g / cm^3
# Si number density = 22.259909 Si / 1000 Ang^3
#
#
#
# Elastic Constant Matrix: (Units=GPa)
#
#
# Indices 1 2 3 4 5 6 
#
# 1 116.7633 47.9763 9.7632 0.0000 0.0000 0.0000
# 2 47.9763 83.6023 20.0581 0.0000 0.0000 0.0000
# 3 9.7632 20.0581 49.1636 0.0000 0.0000 0.0000
# 4 0.0000 0.0000 0.0000 29.4987 0.0000 0.0000
# 5 0.0000 0.0000 0.0000 0.0000 30.6315 0.0000
# 6 0.0000 0.0000 0.0000 0.0000 0.0000 36.2911
#
#
#
# Elastic Compliance Matrix: (Units=1/GPa)
#
#
# Indices 1 2 3 4 5 6 
#
# 1 0.011215 -0.006542 0.000442 0.000000 0.000000 0.000000
# 2 -0.006542 0.017075 -0.005667 0.000000 0.000000 0.000000
# 3 0.000442 -0.005667 0.022565 0.000000 0.000000 0.000000
# 4 0.000000 0.000000 0.000000 0.033900 0.000000 0.000000
# 5 0.000000 0.000000 0.000000 0.000000 0.032646 0.000000
# 6 0.000000 0.000000 0.000000 0.000000 0.000000 0.027555
#
#
# Mechanical properties :
#
#
# Convention : Reuss Voigt Hill
#
# Bulk Modulus (GPa) = 36.60279 45.01381 40.80830
# Shear Modulus (GPa) = 28.15339 30.73304 29.44322
#
# Velocity S-wave (km/s) = 3.56020 3.71973 3.64084
# Velocity P-wave (km/s) = 5.77747 6.22209 6.00389
#
# Compressibility (1/GPa) = 0.02732032
#
# Stress axis : x y z
#
# Youngs Moduli (GPa) = 89.16267 58.56373 44.31695
#
# Poissons Ratio (x) = 0.38313 -0.01958
# Poissons Ratio (y) = 0.58332 0.25116
# Poissons Ratio (z) = -0.03940 0.33190
#
# Static dielectric constant tensor:
#      x y z
#    x 4.283110 0.000000 0.000000 
#    y 0.000000 3.992370 0.000000 
#    z 0.000000 0.000000 3.931480 
# 
# 
# High freq. dielectric constant tensor:
#      x y z
#    x 1.890240 0.000000 0.000000 
#    y 0.000000 1.868750 0.000000 
#    z 0.000000 0.000000 1.861550 
# 
# From -- ./inp_files/26058.got.cif
#   From: 2010.06.25/outbox.cif.g09.slc.cpg/sg43_14_cif.got.tgz:26058.got - 2010.06.26 16:48:59.
