data_PCOD8187059
_publ_section_title
;
Structure prediction by ZEFSAII (Michael W. Deem and Ramdas Pophale) SiO2 
 PCOD8187059
Probable space group: F D D 2
;
_chemical_formula_sum "Si O2"
_cell_formula_units_Z 104
_cell_length_a 26.515020
_cell_length_b 21.526636
_cell_length_c 9.880410
_cell_angle_alpha 90.000000
_cell_angle_beta 90.000000
_cell_angle_gamma 90.000000
_cell_volume 5639.532358
_symmetry_space_group_name_H-M "F D D 2"
_symmetry_group_IT_number 43
_symmetry_cell_setting 'orthorhombic'
loop_
_space_group_symop_operation_xyz
x,y,z
-x,-y,z
1/4-x,1/4+y,1/4+z
1/4+x,1/4-y,1/4+z
x,1/2+y,1/2+z
-x,1/2-y,1/2+z
1/4-x,3/4+y,3/4+z
1/4+x,3/4-y,3/4+z
1/2+x,y,1/2+z
1/2-x,-y,1/2+z
3/4-x,1/4+y,3/4+z
3/4+x,1/4-y,3/4+z
1/2+x,1/2+y,z
1/2-x,1/2-y,z
3/4-x,3/4+y,1/4+z
3/4+x,3/4-y,1/4+z
loop_
_atom_site_type_symbol
_atom_site_label
_atom_site_fract_x
_atom_site_fract_y
_atom_site_fract_z
Si Si1 0.570531 0.196176 0.503220
Si Si2 0.732257 0.430854 0.028923
Si Si3 0.438756 0.884138 0.018520
Si Si4 0.000000 0.500000 0.083053
Si Si5 0.242480 0.428051 0.012646
Si Si6 0.333627 0.912270 0.161481
Si Si7 0.074594 0.408830 0.186056
O O1 0.535465 0.173654 0.625470
O O2 0.548165 0.159524 0.374975
O O3 0.575622 0.270256 0.480176
O O4 0.626073 0.169653 0.524655
O O5 0.688249 0.402666 0.125984
O O6 0.740423 0.503321 0.048690
O O7 0.785866 0.397721 0.063356
O O8 0.466149 0.835085 0.118669
O O9 0.383597 0.905310 0.068821
O O10 0.474097 0.944887 0.996675
O O11 0.043653 0.472903 0.178823
O O12 0.293459 0.389561 0.024594
O O13 0.336180 0.862901 0.282458
#
# Coordination Sequence:
#
# PCOD8187059 Si02
#       7
#    16  16  16   8  16  16  16
#     4  11  22  36  63  89 121 156 206 262 312 368
#     4  11  22  38  58  92 126 151 204 270 303 361
#     4  11  21  38  66  88 121 167 207 251 312 380
#     4  10  20  36  60  92 108 158 216 244 286 382
#     4  10  20  37  60  89 117 162 200 247 313 379
#     4  11  21  38  61  88 121 166 207 245 318 387
#     4  11  20  38  62  86 119 155 207 252 303 383
#
# _framework density 18.441246
#
# number of rings (size 3 to 8) (size 9 to 14) (size 15 to 20)
#    0.000    1.231    7.692    0.923    0.000    1.231 
#    0.000    1.538    0.000    3.692    0.000    0.000 
#    0.000    0.000    0.000    0.000    0.000    0.000 
#
# Total GULP energy -322179.452941 kJ/mol
# GULP energy per Si atom -12391.517421 kJ/mol
# Density = 1.839927 g / cm^3
# Si number density = 18.441246 Si / 1000 Ang^3
#
#
#
# Elastic Constant Matrix: (Units=GPa)
#
#
# Indices 1 2 3 4 5 6 
#
# 1 114.5507 34.0127 34.8750 0.0000 0.0000 0.0000
# 2 34.0127 67.8984 38.5844 0.0002 -0.0002 -0.0001
# 3 34.8750 38.5844 72.4124 0.0008 -0.0004 -0.0003
# 4 0.0000 0.0002 0.0008 24.4454 -0.0003 -0.0002
# 5 0.0000 -0.0002 -0.0004 -0.0003 35.5018 0.0001
# 6 0.0000 -0.0001 -0.0003 -0.0002 0.0001 28.2813
#
#
#
# Elastic Compliance Matrix: (Units=1/GPa)
#
#
# Indices 1 2 3 4 5 6 
#
# 1 0.010785 -0.003515 -0.003321 0.000000 0.000000 0.000000
# 2 -0.003515 0.022270 -0.010173 0.000000 0.000000 0.000000
# 3 -0.003321 -0.010173 0.020830 -0.000001 0.000000 0.000000
# 4 0.000000 0.000000 -0.000001 0.040908 0.000000 0.000000
# 5 0.000000 0.000000 0.000000 0.000000 0.028168 0.000000
# 6 0.000000 0.000000 0.000000 0.000000 0.000000 0.035359
#
#
# Mechanical properties :
#
#
# Convention : Reuss Voigt Hill
#
# Bulk Modulus (GPa) = 50.33870 52.20066 51.26968
# Shear Modulus (GPa) = 25.13070 27.47166 26.30118
#
# Velocity S-wave (km/s) = 3.69554 3.86383 3.78062
# Velocity P-wave (km/s) = 6.75022 6.94791 6.84978
#
# Compressibility (1/GPa) = 0.01986543
#
# Stress axis : x y z
#
# Youngs Moduli (GPa) = 92.72508 44.90341 48.00748
#
# Poissons Ratio (x) = 0.15784 0.15943
# Poissons Ratio (y) = 0.32594 0.48840
# Poissons Ratio (z) = 0.30794 0.45682
#
# Static dielectric constant tensor:
#      x y z
#    x 3.782630 0.000000 0.000000 
#    y 0.000000 3.431360 0.000000 
#    z 0.000000 0.000000 3.309610 
# 
# 
# High freq. dielectric constant tensor:
#      x y z
#    x 1.733090 0.000000 0.000000 
#    y 0.000000 1.711580 0.000000 
#    z 0.000000 0.000000 1.689880 
# 
# From -- ./inp_files/3361.got.cif
#   From: 2010.06.25/outbox.cif.g09.slc.cpg/sg43_2_cif.got.tgz:3361.got - 2010.06.26 16:48:59.
