data_PCOD8187154
_publ_section_title
;
Structure prediction by ZEFSAII (Michael W. Deem and Ramdas Pophale) SiO2 
 PCOD8187154
Probable space group: F D D 2
;
_chemical_formula_sum "Si O2"
_cell_formula_units_Z 120
_cell_length_a 16.318290
_cell_length_b 16.981709
_cell_length_c 21.077154
_cell_angle_alpha 90.000000
_cell_angle_beta 90.000000
_cell_angle_gamma 90.000000
_cell_volume 5840.741829
_symmetry_space_group_name_H-M "F D D 2"
_symmetry_group_IT_number 43
_symmetry_cell_setting 'orthorhombic'
loop_
_space_group_symop_operation_xyz
x,y,z
-x,-y,z
1/4-x,1/4+y,1/4+z
1/4+x,1/4-y,1/4+z
x,1/2+y,1/2+z
-x,1/2-y,1/2+z
1/4-x,3/4+y,3/4+z
1/4+x,3/4-y,3/4+z
1/2+x,y,1/2+z
1/2-x,-y,1/2+z
3/4-x,1/4+y,3/4+z
3/4+x,1/4-y,3/4+z
1/2+x,1/2+y,z
1/2-x,1/2-y,z
3/4-x,3/4+y,1/4+z
3/4+x,3/4-y,1/4+z
loop_
_atom_site_type_symbol
_atom_site_label
_atom_site_fract_x
_atom_site_fract_y
_atom_site_fract_z
Si Si1 0.500000 0.500000 0.539430
Si Si2 0.073242 0.820067 0.070822
Si Si3 0.403487 0.812888 0.615635
Si Si4 0.659901 0.102987 0.306543
Si Si5 0.269257 0.031447 0.707499
Si Si6 0.261852 0.924714 0.584124
Si Si7 0.803577 0.069313 0.005968
Si Si8 0.869203 0.925064 0.455157
O O1 0.523400 0.420655 0.578581
O O2 0.420805 0.486097 0.495972
O O3 0.070304 0.757347 0.014810
O O4 0.144100 0.882264 0.056636
O O5 0.093626 0.781091 0.139599
O O6 0.981264 0.856229 0.081544
O O7 0.410069 0.719116 0.605239
O O8 0.320485 0.849536 0.589191
O O9 0.398471 0.825463 0.690380
O O10 0.685815 0.069660 0.236579
O O11 0.571837 0.142636 0.305413
O O12 0.329474 0.099060 0.683025
O O13 0.248188 0.970619 0.651106
O O14 0.301099 0.980808 0.531634
O O15 0.710638 0.100899 0.996192
#
# Coordination Sequence:
#
# PCOD8187154 Si02
#       8
#     8  16  16  16  16  16  16  16
#     4  10  20  42  66  92 134 172 212 284 324 398
#     4  10  21  41  61  95 128 163 214 270 329 393
#     4  10  24  42  65  94 134 169 222 273 329 397
#     4  10  23  44  64  95 131 174 226 268 330 404
#     4  10  22  41  66  94 132 167 214 274 331 393
#     4  12  22  43  69  95 129 176 219 271 336 400
#     4  11  22  40  64  97 128 170 216 271 330 398
#     4  10  21  38  63  96 128 166 216 265 331 395
#
# _framework density 20.545335999999999
#
# number of rings (size 3 to 8) (size 9 to 14) (size 15 to 20)
#    0.000    1.600    4.000    0.400    0.000    4.267 
#    4.800    0.000    0.000    0.000    0.000    0.000 
#    0.000    0.000    0.000    0.000    0.000    0.000 
#
# Total GULP energy -371768.133711 kJ/mol
# GULP energy per Si atom -12392.271124 kJ/mol
# Density = 2.049857 g / cm^3
# Si number density = 20.545336 Si / 1000 Ang^3
#
#
#
# Elastic Constant Matrix: (Units=GPa)
#
#
# Indices 1 2 3 4 5 6 
#
# 1 122.8818 58.6920 37.7242 0.0000 0.0000 0.0000
# 2 58.6920 99.2970 28.3058 0.0000 0.0000 0.0000
# 3 37.7242 28.3058 71.1841 0.0000 0.0000 0.0000
# 4 0.0000 0.0000 0.0000 30.0637 0.0000 0.0000
# 5 0.0000 0.0000 0.0000 0.0000 30.7540 0.0000
# 6 0.0000 0.0000 0.0000 0.0000 0.0000 42.3257
#
#
#
# Elastic Compliance Matrix: (Units=1/GPa)
#
#
# Indices 1 2 3 4 5 6 
#
# 1 0.012314 -0.006111 -0.004096 0.000000 0.000000 0.000000
# 2 -0.006111 0.014391 -0.002484 0.000000 0.000000 0.000000
# 3 -0.004096 -0.002484 0.017206 0.000000 0.000000 0.000000
# 4 0.000000 0.000000 0.000000 0.033263 0.000000 0.000000
# 5 0.000000 0.000000 0.000000 0.000000 0.032516 0.000000
# 6 0.000000 0.000000 0.000000 0.000000 0.000000 0.023626
#
#
# Mechanical properties :
#
#
# Convention : Reuss Voigt Hill
#
# Bulk Modulus (GPa) = 53.96693 60.31185 57.13939
# Shear Modulus (GPa) = 30.32603 31.87139 31.09871
#
# Velocity S-wave (km/s) = 3.84611 3.94289 3.89480
# Velocity P-wave (km/s) = 6.78585 7.08151 6.93525
#
# Compressibility (1/GPa) = 0.01852987
#
# Stress axis : x y z
#
# Youngs Moduli (GPa) = 81.20759 69.48827 58.11783
#
# Poissons Ratio (x) = 0.42464 0.23805
# Poissons Ratio (y) = 0.49626 0.14436
# Poissons Ratio (z) = 0.33262 0.17260
#
# Static dielectric constant tensor:
#      x y z
#    x 3.872860 0.000000 0.000000 
#    y 0.000000 3.758540 0.000000 
#    z 0.000000 0.000000 3.649650 
# 
# 
# High freq. dielectric constant tensor:
#      x y z
#    x 1.813570 0.000000 0.000000 
#    y 0.000000 1.794710 0.000000 
#    z 0.000000 0.000000 1.799830 
# 
# From -- ./inp_files/21832.got.cif
#   From: 2010.06.25/outbox.cif.g09.slc.cpg/sg43_11_cif.got.tgz:21832.got - 2010.06.26 16:48:59.
