data_PCOD8187906
_publ_section_title
;
Structure prediction by ZEFSAII (Michael W. Deem and Ramdas Pophale) SiO2 
 PCOD8187906
Probable space group: I M M 2
;
_chemical_formula_sum "Si O2"
_cell_formula_units_Z 64
_cell_length_a 8.949606
_cell_length_b 30.679639
_cell_length_c 14.413650
_cell_angle_alpha 90.000000
_cell_angle_beta 90.000000
_cell_angle_gamma 90.000000
_cell_volume 3957.565700
_symmetry_space_group_name_H-M "I M M 2"
_symmetry_group_IT_number 44
_symmetry_cell_setting 'orthorhombic'
loop_
_space_group_symop_operation_xyz
x,y,z
-x,-y,z
-x,y,z
x,-y,z
1/2+x,1/2+y,1/2+z
1/2-x,1/2-y,1/2+z
1/2-x,1/2+y,1/2+z
1/2+x,1/2-y,1/2+z
loop_
_atom_site_type_symbol
_atom_site_label
_atom_site_fract_x
_atom_site_fract_y
_atom_site_fract_z
Si Si1 0.825925 0.633913 0.659940
Si Si2 0.678546 0.952272 0.462675
Si Si3 0.174866 0.727666 0.350289
Si Si4 0.833339 0.314352 0.844670
Si Si5 0.176856 0.548000 0.753888
Si Si6 0.176865 0.198378 0.029433
Si Si7 0.668768 0.135715 0.529037
Si Si8 0.821845 0.716412 0.140375
O O1 0.794769 0.664810 0.746897
O O2 0.762911 0.585588 0.684701
O O3 0.733696 0.653511 0.574668
O O4 0.000000 0.632617 0.633405
O O5 0.500000 0.948778 0.459299
O O6 0.741734 0.946712 0.358023
O O7 0.741068 0.913242 0.529772
O O8 0.727026 0.000000 0.501569
O O9 0.212282 0.777959 0.369159
O O10 0.260735 0.698285 0.424881
O O11 0.231130 0.715917 0.246780
O O12 0.000000 0.719722 0.361412
O O13 0.000000 0.293461 0.844627
O O14 0.825051 0.351546 0.921415
O O15 0.220620 0.500000 0.714821
O O16 0.000000 0.553339 0.760106
O O17 0.237965 0.240530 0.086817
O O18 0.000000 0.198184 0.026550
O O19 0.500000 0.132588 0.565661
O O20 0.747896 0.172642 0.592667
O O21 0.000000 0.716775 0.131938
#
# Coordination Sequence:
#
# PCOD8187906 Si02
#       8
#     8   8   8   8   8   8   8   8
#     4  10  18  28  45  71  96 124 158 189 223 272
#     4   8  12  18  33  61  93 119 145 180 219 262
#     4  11  21  33  45  63  88 118 156 197 228 265
#     4  10  17  26  44  67  92 123 153 181 219 268
#     4   8  13  22  38  64  97 125 149 183 225 268
#     4  11  21  34  48  65  89 121 155 191 232 276
#     4   9  14  24  40  60  88 123 151 174 215 270
#     4   9  18  29  43  61  85 116 150 183 225 270
#
# _framework density 16.171558000000001
#
# number of rings (size 3 to 8) (size 9 to 14) (size 15 to 20)
#    0.000    2.500    3.750    1.500    0.000    0.000 
#    0.000    0.000    0.000    0.375    0.000    0.875 
#    0.000    5.500    0.000    0.000    0.000    0.000 
#
# Total GULP energy -396510.353764 kJ/mol
# GULP energy per Si atom -12390.948555 kJ/mol
# Density = 1.613475 g / cm^3
# Si number density = 16.171558 Si / 1000 Ang^3
#
#
#
# Elastic Constant Matrix: (Units=GPa)
#
#
# Indices 1 2 3 4 5 6 
#
# 1 27.3891 14.6092 16.8937 0.0002 0.0000 0.0000
# 2 14.6092 121.0037 33.9678 0.0005 0.0000 -0.0001
# 3 16.8937 33.9678 71.6923 0.0011 0.0001 -0.0001
# 4 0.0002 0.0005 0.0011 22.5837 0.0001 0.0000
# 5 0.0000 0.0000 0.0001 0.0001 16.6079 0.0001
# 6 0.0000 -0.0001 -0.0001 0.0000 0.0001 13.5429
#
#
#
# Elastic Compliance Matrix: (Units=1/GPa)
#
#
# Indices 1 2 3 4 5 6 
#
# 1 0.043493 -0.002738 -0.008951 0.000000 0.000000 0.000000
# 2 -0.002738 0.009704 -0.003953 0.000000 0.000000 0.000000
# 3 -0.008951 -0.003953 0.017931 -0.000001 0.000000 0.000000
# 4 0.000000 0.000000 -0.000001 0.044280 0.000000 0.000000
# 5 0.000000 0.000000 0.000000 0.000000 0.060212 0.000000
# 6 0.000000 0.000000 0.000000 0.000000 0.000000 0.073839
#
#
# Mechanical properties :
#
#
# Convention : Reuss Voigt Hill
#
# Bulk Modulus (GPa) = 25.09840 39.00294 32.05067
# Shear Modulus (GPa) = 17.00538 20.85452 18.92995
#
# Velocity S-wave (km/s) = 3.24630 3.59497 3.42507
# Velocity P-wave (km/s) = 5.44105 6.43446 5.95850
#
# Compressibility (1/GPa) = 0.03984317
#
# Stress axis : x y z
#
# Youngs Moduli (GPa) = 22.99239 103.04607 55.77065
#
# Poissons Ratio (x) = 0.28216 0.49922
# Poissons Ratio (y) = 0.06296 0.22044
# Poissons Ratio (z) = 0.20581 0.40731
#
# Static dielectric constant tensor:
#      x y z
#    x 2.643470 0.000000 0.000000 
#    y 0.000000 3.349110 0.000000 
#    z 0.000000 0.000000 2.985110 
# 
# 
# High freq. dielectric constant tensor:
#      x y z
#    x 1.575650 0.000000 0.000000 
#    y 0.000000 1.622310 0.000000 
#    z 0.000000 0.000000 1.597640 
# 
# From -- ./inp_files/17159.got.cif
#   From: 2010.03.12/outbox.cif.g09.slc.cpg/sg44_9_cif.got.tgz:17159.got - 2010.04.14 02:36:11.
