data_PCOD8187029
_publ_section_title
;
Structure prediction by ZEFSAII (Michael W. Deem and Ramdas Pophale) SiO2 
 PCOD8187029
Probable space group: F D D 2
;
_chemical_formula_sum "Si O2"
_cell_formula_units_Z 128
_cell_length_a 21.570155
_cell_length_b 13.056193
_cell_length_c 23.079496
_cell_angle_alpha 90.000000
_cell_angle_beta 90.000000
_cell_angle_gamma 90.000000
_cell_volume 6499.742445
_symmetry_space_group_name_H-M "F D D 2"
_symmetry_group_IT_number 43
_symmetry_cell_setting 'orthorhombic'
loop_
_space_group_symop_operation_xyz
x,y,z
-x,-y,z
1/4-x,1/4+y,1/4+z
1/4+x,1/4-y,1/4+z
x,1/2+y,1/2+z
-x,1/2-y,1/2+z
1/4-x,3/4+y,3/4+z
1/4+x,3/4-y,3/4+z
1/2+x,y,1/2+z
1/2-x,-y,1/2+z
3/4-x,1/4+y,3/4+z
3/4+x,1/4-y,3/4+z
1/2+x,1/2+y,z
1/2-x,1/2-y,z
3/4-x,3/4+y,1/4+z
3/4+x,3/4-y,1/4+z
loop_
_atom_site_type_symbol
_atom_site_label
_atom_site_fract_x
_atom_site_fract_y
_atom_site_fract_z
Si Si1 0.881778 0.632170 0.028560
Si Si2 0.036768 0.593327 0.773792
Si Si3 0.026840 0.888026 0.629463
Si Si4 0.930296 0.017188 0.163919
Si Si5 0.025399 0.107605 0.869489
Si Si6 0.806250 0.481757 0.950525
Si Si7 0.137338 0.909869 0.714910
Si Si8 0.341406 0.968519 0.570298
O O1 0.948134 0.622909 0.062604
O O2 0.831434 0.659429 0.076119
O O3 0.859825 0.534674 0.990049
O O4 0.883355 0.723969 0.983826
O O5 0.077100 0.531935 0.727089
O O6 0.082866 0.658400 0.813577
O O7 0.000000 0.500000 0.807236
O O8 0.993976 0.679820 0.743206
O O9 0.083892 0.876261 0.671897
O O10 0.975255 0.806634 0.652179
O O11 0.000000 0.000000 0.636188
O O12 0.912746 0.137925 0.165216
O O13 0.884190 0.951784 0.125383
O O14 0.000000 0.000000 0.140553
O O15 0.047501 0.156427 0.930247
O O16 0.975174 0.170991 0.833439
O O17 0.000000 0.000000 0.889127
O O18 0.129802 0.831900 0.768092
#
# Coordination Sequence:
#
# PCOD8187029 Si02
#       8
#    16  16  16  16  16  16  16  16
#     4  11  22  40  65  92 124 165 201 257 315 368
#     4   9  20  39  61  82 115 162 211 243 294 373
#     4  11  22  39  65  93 119 162 208 250 313 377
#     4   9  24  41  61  89 120 162 217 248 301 381
#     4  11  24  39  63  98 124 159 213 253 311 383
#     4  10  19  42  61  82 120 163 201 253 301 366
#     4  11  24  37  66  94 123 159 207 259 311 373
#     4  12  22  41  65  90 125 170 195 265 319 354
#
# _framework density 19.693087999999999
#
# number of rings (size 3 to 8) (size 9 to 14) (size 15 to 20)
#    0.000    1.750    5.000    0.000    5.250    0.500 
#    9.000    0.000    0.000    0.000    0.000    0.000 
#    0.000    0.000    0.000    0.000    0.000    0.000 
#
# Total GULP energy -396423.932312 kJ/mol
# GULP energy per Si atom -12388.247885 kJ/mol
# Density = 1.964827 g / cm^3
# Si number density = 19.693088 Si / 1000 Ang^3
#
#
#
# Elastic Constant Matrix: (Units=GPa)
#
#
# Indices 1 2 3 4 5 6 
#
# 1 37.1743 14.8422 27.7552 0.0000 0.0000 0.0000
# 2 14.8422 125.0701 35.0294 0.0000 0.0000 0.0000
# 3 27.7552 35.0294 76.2136 0.0000 0.0000 0.0000
# 4 0.0000 0.0000 0.0000 72.6415 0.0000 0.0000
# 5 0.0000 0.0000 0.0000 0.0000 27.9980 0.0000
# 6 0.0000 0.0000 0.0000 0.0000 0.0000 19.5497
#
#
#
# Elastic Compliance Matrix: (Units=1/GPa)
#
#
# Indices 1 2 3 4 5 6 
#
# 1 0.037001 -0.000708 -0.013149 0.000000 0.000000 0.000000
# 2 -0.000708 0.009190 -0.003966 0.000000 0.000000 0.000000
# 3 -0.013149 -0.003966 0.019733 0.000000 0.000000 0.000000
# 4 0.000000 0.000000 0.000000 0.013766 0.000000 0.000000
# 5 0.000000 0.000000 0.000000 0.000000 0.035717 0.000000
# 6 0.000000 0.000000 0.000000 0.000000 0.000000 0.051152
#
#
# Mechanical properties :
#
#
# Convention : Reuss Voigt Hill
#
# Bulk Modulus (GPa) = 33.02899 43.74573 38.38736
# Shear Modulus (GPa) = 23.55184 34.75993 29.15589
#
# Velocity S-wave (km/s) = 3.46199 4.20585 3.85192
# Velocity P-wave (km/s) = 5.72615 6.77108 6.27042
#
# Compressibility (1/GPa) = 0.03027643
#
# Stress axis : x y z
#
# Youngs Moduli (GPa) = 27.02659 108.80919 50.67750
#
# Poissons Ratio (x) = 0.07705 0.66637
# Poissons Ratio (y) = 0.01914 0.20100
# Poissons Ratio (z) = 0.35538 0.43156
#
# Static dielectric constant tensor:
#      x y z
#    x 3.617930 0.000000 0.000000 
#    y 0.000000 3.443330 0.000000 
#    z 0.000000 0.000000 3.665070 
# 
# 
# High freq. dielectric constant tensor:
#      x y z
#    x 1.747980 0.000000 0.000000 
#    y 0.000000 1.783440 0.000000 
#    z 0.000000 0.000000 1.759230 
# 
# From -- ./inp_files/21326.got.cif
#   From: 2010.06.25/outbox.cif.g09.slc.cpg/sg43_11_cif.got.tgz:21326.got - 2010.06.26 16:48:59.
