data_PCOD8187222
_publ_section_title
;
Structure prediction by ZEFSAII (Michael W. Deem and Ramdas Pophale) SiO2 
 PCOD8187222
Probable space group: F D D 2
;
_chemical_formula_sum "Si O2"
_cell_formula_units_Z 120
_cell_length_a 23.865471
_cell_length_b 15.050340
_cell_length_c 15.276742
_cell_angle_alpha 90.000000
_cell_angle_beta 90.000000
_cell_angle_gamma 90.000000
_cell_volume 5487.152939
_symmetry_space_group_name_H-M "F D D 2"
_symmetry_group_IT_number 43
_symmetry_cell_setting 'orthorhombic'
loop_
_space_group_symop_operation_xyz
x,y,z
-x,-y,z
1/4-x,1/4+y,1/4+z
1/4+x,1/4-y,1/4+z
x,1/2+y,1/2+z
-x,1/2-y,1/2+z
1/4-x,3/4+y,3/4+z
1/4+x,3/4-y,3/4+z
1/2+x,y,1/2+z
1/2-x,-y,1/2+z
3/4-x,1/4+y,3/4+z
3/4+x,1/4-y,3/4+z
1/2+x,1/2+y,z
1/2-x,1/2-y,z
3/4-x,3/4+y,1/4+z
3/4+x,3/4-y,1/4+z
loop_
_atom_site_type_symbol
_atom_site_label
_atom_site_fract_x
_atom_site_fract_y
_atom_site_fract_z
Si Si1 0.924884 0.350328 0.032520
Si Si2 0.931757 0.862157 0.239451
Si Si3 0.550719 0.153603 0.545823
Si Si4 0.436769 0.166295 0.455696
Si Si5 0.832418 0.409881 0.510882
Si Si6 0.000000 0.500000 0.846960
Si Si7 0.047984 0.862039 0.576592
Si Si8 0.642433 0.223648 0.197329
O O1 0.903961 0.307877 0.125914
O O2 0.985838 0.394255 0.048201
O O3 0.933249 0.273584 0.959915
O O4 0.884933 0.425153 0.986270
O O5 0.948208 0.889114 0.141368
O O6 0.867126 0.884828 0.260860
O O7 0.938996 0.760100 0.260218
O O8 0.974781 0.918323 0.294837
O O9 0.492824 0.128033 0.499046
O O10 0.601636 0.107720 0.493050
O O11 0.557727 0.259028 0.554849
O O12 0.434537 0.125474 0.357450
O O13 0.800697 0.363913 0.430018
O O14 0.951689 0.543395 0.903005
O O15 0.101459 0.910023 0.531426
#
# Coordination Sequence:
#
# PCOD8187222 Si02
#       8
#    16  16  16  16  16   8  16  16
#     4  11  24  43  67 104 133 179 228 296 355 428
#     4  10  22  39  61  98 131 170 219 286 344 418
#     4   9  22  40  62  95 127 177 224 282 336 422
#     4  10  21  39  65  92 134 171 228 283 346 417
#     4  10  22  40  64  89 134 180 224 280 345 412
#     4  12  22  42  68 100 132 178 216 292 360 412
#     4  10  23  43  61  93 138 169 235 283 344 421
#     4  12  25  42  70  98 139 178 231 292 362 427
#
# _framework density 21.869264999999999
#
# number of rings (size 3 to 8) (size 9 to 14) (size 15 to 20)
#    0.000    1.600    2.667    0.800    3.733    6.933 
#    0.000    0.000    2.933    0.000    0.000    0.000 
#    0.000    0.000    0.000    0.000    0.000    0.000 
#
# Total GULP energy -371722.593355 kJ/mol
# GULP energy per Si atom -12390.753112 kJ/mol
# Density = 2.181949 g / cm^3
# Si number density = 21.869265 Si / 1000 Ang^3
#
#
#
# Elastic Constant Matrix: (Units=GPa)
#
#
# Indices 1 2 3 4 5 6 
#
# 1 84.0172 10.4592 28.8798 0.0000 0.0000 0.0000
# 2 10.4592 44.9951 23.9254 0.0000 0.0000 0.0000
# 3 28.8798 23.9254 90.6562 0.0000 0.0000 0.0000
# 4 0.0000 0.0000 0.0000 6.9256 0.0000 0.0000
# 5 0.0000 0.0000 0.0000 0.0000 44.1148 0.0000
# 6 0.0000 0.0000 0.0000 0.0000 0.0000 36.4955
#
#
#
# Elastic Compliance Matrix: (Units=1/GPa)
#
#
# Indices 1 2 3 4 5 6 
#
# 1 0.013403 -0.000983 -0.004010 0.000000 0.000000 0.000000
# 2 -0.000983 0.025925 -0.006529 0.000000 0.000000 0.000000
# 3 -0.004010 -0.006529 0.014031 0.000000 0.000000 0.000000
# 4 0.000000 0.000000 0.000000 0.144391 0.000000 0.000000
# 5 0.000000 0.000000 0.000000 0.000000 0.022668 0.000000
# 6 0.000000 0.000000 0.000000 0.000000 0.000000 0.027401
#
#
# Mechanical properties :
#
#
# Convention : Reuss Voigt Hill
#
# Bulk Modulus (GPa) = 32.98718 38.46638 35.72678
# Shear Modulus (GPa) = 17.79560 27.93412 22.86486
#
# Velocity S-wave (km/s) = 2.85568 3.57784 3.23697
# Velocity P-wave (km/s) = 5.09802 5.89028 5.50841
#
# Compressibility (1/GPa) = 0.03031480
#
# Stress axis : x y z
#
# Youngs Moduli (GPa) = 74.60896 38.57322 71.26961
#
# Poissons Ratio (x) = 0.03793 0.28581
# Poissons Ratio (y) = 0.07336 0.46530
# Poissons Ratio (z) = 0.29920 0.25183
#
# Static dielectric constant tensor:
#      x y z
#    x 3.819720 0.000000 0.000000 
#    y 0.000000 3.847730 0.000000 
#    z 0.000000 0.000000 4.310070 
# 
# 
# High freq. dielectric constant tensor:
#      x y z
#    x 1.849840 0.000000 0.000000 
#    y 0.000000 1.849630 0.000000 
#    z 0.000000 0.000000 1.872430 
# 
# From -- ./inp_files/10727.got.cif
#   From: 2010.06.25/outbox.cif.g09.slc.cpg/sg43_6_cif.got.tgz:10727.got - 2010.06.26 16:48:59.
