data_PCOD8187568
_publ_section_title
;
Structure prediction by ZEFSAII (Michael W. Deem and Ramdas Pophale) SiO2 
 PCOD8187568
Probable space group: F D D 2
;
_chemical_formula_sum "Si O2"
_cell_formula_units_Z 80
_cell_length_a 11.983154
_cell_length_b 25.004783
_cell_length_c 12.350541
_cell_angle_alpha 90.000000
_cell_angle_beta 90.000000
_cell_angle_gamma 90.000000
_cell_volume 3700.668746
_symmetry_space_group_name_H-M "F D D 2"
_symmetry_group_IT_number 43
_symmetry_cell_setting 'orthorhombic'
loop_
_space_group_symop_operation_xyz
x,y,z
-x,-y,z
1/4-x,1/4+y,1/4+z
1/4+x,1/4-y,1/4+z
x,1/2+y,1/2+z
-x,1/2-y,1/2+z
1/4-x,3/4+y,3/4+z
1/4+x,3/4-y,3/4+z
1/2+x,y,1/2+z
1/2-x,-y,1/2+z
3/4-x,1/4+y,3/4+z
3/4+x,1/4-y,3/4+z
1/2+x,1/2+y,z
1/2-x,1/2-y,z
3/4-x,3/4+y,1/4+z
3/4+x,3/4-y,1/4+z
loop_
_atom_site_type_symbol
_atom_site_label
_atom_site_fract_x
_atom_site_fract_y
_atom_site_fract_z
Si Si1 0.124647 0.008769 0.604640
Si Si2 0.765533 0.104794 0.099249
Si Si3 0.001171 0.436775 0.665784
Si Si4 0.032320 0.834173 0.785143
Si Si5 0.389886 0.671174 0.545618
O O1 0.184822 0.059189 0.544735
O O2 0.123283 0.021969 0.734385
O O3 0.195075 0.955688 0.589056
O O4 0.000000 0.000000 0.559572
O O5 0.889719 0.080944 0.100485
O O6 0.723165 0.115827 0.222334
O O7 0.756972 0.159410 0.033045
O O8 0.000000 0.500000 0.684437
O O9 0.899168 0.417046 0.594519
O O10 0.981089 0.893084 0.801606
O O11 0.051538 0.819583 0.660006
#
# Coordination Sequence:
#
# PCOD8187568 Si02
#       5
#    16  16  16  16  16
#     4  10  24  46  69 105 139 187 243 289 360 432
#     4  10  25  49  67 105 142 183 240 289 356 442
#     4  12  24  49  71 106 142 184 239 299 370 426
#     4  12  23  46  74 101 146 187 238 309 363 430
#     4  10  24  45  68 104 143 186 246 286 366 438
#
# _framework density 21.617715
#
# number of rings (size 3 to 8) (size 9 to 14) (size 15 to 20)
#    1.200    0.000    2.000    3.600    2.800    0.800 
#   18.000    0.000    0.000    0.000    0.000    0.000 
#    0.000    0.000    0.000    0.000    0.000    0.000 
#
# Total GULP energy -247934.581059 kJ/mol
# GULP energy per Si atom -12396.729053 kJ/mol
# Density = 2.156851 g / cm^3
# Si number density = 21.617715 Si / 1000 Ang^3
#
#
#
# Elastic Constant Matrix: (Units=GPa)
#
#
# Indices 1 2 3 4 5 6 
#
# 1 190.7301 62.3179 54.2713 0.0000 0.0000 0.0000
# 2 62.3179 83.1927 52.2597 0.0000 0.0000 0.0000
# 3 54.2713 52.2597 116.5555 0.0000 0.0000 0.0000
# 4 0.0000 0.0000 0.0000 38.0615 0.0000 0.0000
# 5 0.0000 0.0000 0.0000 0.0000 10.2880 0.0000
# 6 0.0000 0.0000 0.0000 0.0000 0.0000 43.3667
#
#
#
# Elastic Compliance Matrix: (Units=1/GPa)
#
#
# Indices 1 2 3 4 5 6 
#
# 1 0.007076 -0.004498 -0.001278 0.000000 0.000000 0.000000
# 2 -0.004498 0.019592 -0.006690 0.000000 0.000000 0.000000
# 3 -0.001278 -0.006690 0.012174 0.000000 0.000000 0.000000
# 4 0.000000 0.000000 0.000000 0.026273 0.000000 0.000000
# 5 0.000000 0.000000 0.000000 0.000000 0.097201 0.000000
# 6 0.000000 0.000000 0.000000 0.000000 0.000000 0.023059
#
#
# Mechanical properties :
#
#
# Convention : Reuss Voigt Hill
#
# Bulk Modulus (GPa) = 71.88841 80.90846 76.39843
# Shear Modulus (GPa) = 23.26176 33.11852 28.19014
#
# Velocity S-wave (km/s) = 3.28388 3.91833 3.61505
# Velocity P-wave (km/s) = 6.90689 7.61441 7.26926
#
# Compressibility (1/GPa) = 0.01391045
#
# Stress axis : x y z
#
# Youngs Moduli (GPa) = 141.31685 51.04113 82.13913
#
# Poissons Ratio (x) = 0.22957 0.10500
# Poissons Ratio (y) = 0.63560 0.54953
# Poissons Ratio (z) = 0.18064 0.34147
#
# Static dielectric constant tensor:
#      x y z
#    x 4.160250 0.000000 0.000000 
#    y 0.000000 3.759540 0.000000 
#    z 0.000000 0.000000 3.662440 
# 
# 
# High freq. dielectric constant tensor:
#      x y z
#    x 1.873130 0.000000 0.000000 
#    y 0.000000 1.843130 0.000000 
#    z 0.000000 0.000000 1.830330 
# 
# From -- ./inp_files/5702.got.cif
#   From: 2010.06.25/outbox.cif.g09.slc.cpg/sg43_3_cif.got.tgz:5702.got - 2010.06.26 16:48:59.
