data_PCOD8187678
_publ_section_title
;
Structure prediction by ZEFSAII (Michael W. Deem and Ramdas Pophale) SiO2 
 PCOD8187678
Probable space group: F D D 2
;
_chemical_formula_sum "Si O2"
_cell_formula_units_Z 80
_cell_length_a 22.182588
_cell_length_b 13.879680
_cell_length_c 10.696013
_cell_angle_alpha 90.000000
_cell_angle_beta 90.000000
_cell_angle_gamma 90.000000
_cell_volume 3293.165740
_symmetry_space_group_name_H-M "F D D 2"
_symmetry_group_IT_number 43
_symmetry_cell_setting 'orthorhombic'
loop_
_space_group_symop_operation_xyz
x,y,z
-x,-y,z
1/4-x,1/4+y,1/4+z
1/4+x,1/4-y,1/4+z
x,1/2+y,1/2+z
-x,1/2-y,1/2+z
1/4-x,3/4+y,3/4+z
1/4+x,3/4-y,3/4+z
1/2+x,y,1/2+z
1/2-x,-y,1/2+z
3/4-x,1/4+y,3/4+z
3/4+x,1/4-y,3/4+z
1/2+x,1/2+y,z
1/2-x,1/2-y,z
3/4-x,3/4+y,1/4+z
3/4+x,3/4-y,1/4+z
loop_
_atom_site_type_symbol
_atom_site_label
_atom_site_fract_x
_atom_site_fract_y
_atom_site_fract_z
Si Si1 0.563135 0.255156 0.032190
Si Si2 0.500000 0.500000 0.893151
Si Si3 0.000000 0.000000 0.319906
Si Si4 0.304260 0.935676 0.196270
Si Si5 0.578725 0.148589 0.268077
Si Si6 0.088357 0.961597 0.110766
O O1 0.579768 0.163481 0.118071
O O2 0.582780 0.347164 0.112949
O O3 0.490885 0.258415 0.017793
O O4 0.592984 0.244002 0.892512
O O5 0.517684 0.590406 0.806272
O O6 0.560511 0.491756 0.977368
O O7 0.985367 0.093145 0.404068
O O8 0.943812 0.983951 0.226973
O O9 0.358331 0.908143 0.291812
O O10 0.331445 0.997509 0.082909
#
# Coordination Sequence:
#
# PCOD8187678 Si02
#       6
#    16   8   8  16  16  16
#     4  12  24  47  75 108 150 199 253 311 382 460
#     4  11  28  49  74 108 166 195 256 315 394 452
#     4  11  22  45  72 106 140 189 246 311 372 454
#     4  12  28  45  76 107 152 193 253 311 382 453
#     4  12  27  50  71 118 146 201 252 316 381 457
#     4  11  24  47  76 110 146 198 253 317 384 457
#
# _framework density 24.292733999999999
#
# number of rings (size 3 to 8) (size 9 to 14) (size 15 to 20)
#    0.000    0.400    6.000    1.200    5.600    3.200 
#    0.000    0.000    0.000    0.000    0.000    0.000 
#    0.000    0.000    0.000    0.000    0.000    0.000 
#
# Total GULP energy -247806.590506 kJ/mol
# GULP energy per Si atom -12390.329525 kJ/mol
# Density = 2.423744 g / cm^3
# Si number density = 24.292734 Si / 1000 Ang^3
#
#
#
# Elastic Constant Matrix: (Units=GPa)
#
#
# Indices 1 2 3 4 5 6 
#
# 1 125.9265 46.5639 40.5069 0.0000 0.0000 0.0000
# 2 46.5639 119.3303 42.0772 0.0000 0.0000 0.0000
# 3 40.5069 42.0772 75.6749 0.0000 0.0000 0.0000
# 4 0.0000 0.0000 0.0000 18.0584 0.0000 0.0000
# 5 0.0000 0.0000 0.0000 0.0000 26.8499 0.0000
# 6 0.0000 0.0000 0.0000 0.0000 0.0000 39.7021
#
#
#
# Elastic Compliance Matrix: (Units=1/GPa)
#
#
# Indices 1 2 3 4 5 6 
#
# 1 0.010181 -0.002551 -0.004031 0.000000 0.000000 0.000000
# 2 -0.002551 0.011063 -0.004786 0.000000 0.000000 0.000000
# 3 -0.004031 -0.004786 0.018033 0.000000 0.000000 0.000000
# 4 0.000000 0.000000 0.000000 0.055376 0.000000 0.000000
# 5 0.000000 0.000000 0.000000 0.000000 0.037244 0.000000
# 6 0.000000 0.000000 0.000000 0.000000 0.000000 0.025188
#
#
# Mechanical properties :
#
#
# Convention : Reuss Voigt Hill
#
# Bulk Modulus (GPa) = 60.45544 64.35865 62.40705
# Shear Modulus (GPa) = 26.97814 29.70767 28.34291
#
# Velocity S-wave (km/s) = 3.33610 3.50080 3.41944
# Velocity P-wave (km/s) = 6.30711 6.54914 6.42927
#
# Compressibility (1/GPa) = 0.01654111
#
# Stress axis : x y z
#
# Youngs Moduli (GPa) = 98.21944 90.38986 55.45340
#
# Poissons Ratio (x) = 0.23062 0.22354
# Poissons Ratio (y) = 0.25060 0.26538
# Poissons Ratio (z) = 0.39594 0.43258
#
# Static dielectric constant tensor:
#      x y z
#    x 4.569940 0.000000 0.000000 
#    y 0.000000 4.213620 0.000000 
#    z 0.000000 0.000000 4.099090 
# 
# 
# High freq. dielectric constant tensor:
#      x y z
#    x 1.969770 0.000000 0.000000 
#    y 0.000000 1.964290 0.000000 
#    z 0.000000 0.000000 1.951460 
# 
# From -- ./inp_files/6094.got.cif
#   From: 2010.06.25/outbox.cif.g09.slc.cpg/sg43_4_cif.got.tgz:6094.got - 2010.06.26 16:48:59.
