data_PCOD8187580
_publ_section_title
;
Structure prediction by ZEFSAII (Michael W. Deem and Ramdas Pophale) SiO2 
 PCOD8187580
Probable space group: F D D 2
;
_chemical_formula_sum "Si O2"
_cell_formula_units_Z 48
_cell_length_a 6.757611
_cell_length_b 17.346921
_cell_length_c 12.350299
_cell_angle_alpha 90.000000
_cell_angle_beta 90.000000
_cell_angle_gamma 90.000000
_cell_volume 1447.748290
_symmetry_space_group_name_H-M "F D D 2"
_symmetry_group_IT_number 43
_symmetry_cell_setting 'orthorhombic'
loop_
_space_group_symop_operation_xyz
x,y,z
-x,-y,z
1/4-x,1/4+y,1/4+z
1/4+x,1/4-y,1/4+z
x,1/2+y,1/2+z
-x,1/2-y,1/2+z
1/4-x,3/4+y,3/4+z
1/4+x,3/4-y,3/4+z
1/2+x,y,1/2+z
1/2-x,-y,1/2+z
3/4-x,1/4+y,3/4+z
3/4+x,1/4-y,3/4+z
1/2+x,1/2+y,z
1/2-x,1/2-y,z
3/4-x,3/4+y,1/4+z
3/4+x,3/4-y,1/4+z
loop_
_atom_site_type_symbol
_atom_site_label
_atom_site_fract_x
_atom_site_fract_y
_atom_site_fract_z
Si Si1 0.475268 0.266621 0.739350
Si Si2 0.250000 0.869306 0.875136
Si Si3 0.475268 0.233379 0.010922
O O1 0.250000 0.250000 0.768408
O O2 0.567915 0.315532 0.837043
O O3 0.182083 0.434468 0.663229
O O4 0.917436 0.318034 0.717925
O O5 0.750000 0.936821 0.875136
O O6 0.332563 0.931966 0.782347
O O7 0.250000 0.250000 0.981865
#
# Coordination Sequence:
#
# PCOD8187580 Si02
#       3
#    16  16  16
#     4  10  24  50 101 136 189 254 324 392 490 583
#     4  10  24  52 101 134 191 254 322 398 485 584
#     4  10  24  50 101 136 189 254 324 392 490 583
#
# _framework density 33.154933
#
# number of rings (size 3 to 8) (size 9 to 14) (size 15 to 20)
#    2.000    0.000    0.000    2.000    0.000    2.667 
#    0.000    5.000   36.667    0.000    0.000    0.000 
#    0.000    0.000    0.000    0.000    0.000    0.000 
#
# Total GULP energy -148758.797305 kJ/mol
# GULP energy per Si atom -12396.566442 kJ/mol
# Density = 3.307947 g / cm^3
# Si number density = 33.154933 Si / 1000 Ang^3
#
#
#
# Elastic Constant Matrix: (Units=GPa)
#
#
# Indices 1 2 3 4 5 6 
#
# 1 213.0111 68.3535 104.5121 0.0000 0.0000 0.0000
# 2 68.3535 278.8373 107.6888 0.0000 0.0000 0.0000
# 3 104.5121 107.6888 289.8503 0.0000 0.0000 0.0000
# 4 0.0000 0.0000 0.0000 -47.0770 0.0000 0.0000
# 5 0.0000 0.0000 0.0000 0.0000 45.4971 0.0000
# 6 0.0000 0.0000 0.0000 0.0000 0.0000 32.0410
#
#
#
# Elastic Compliance Matrix: (Units=1/GPa)
#
#
# Indices 1 2 3 4 5 6 
#
# 1 0.005825 -0.000720 -0.001833 0.000000 0.000000 0.000000
# 2 -0.000720 0.004276 -0.001329 0.000000 0.000000 0.000000
# 3 -0.001833 -0.001329 0.004605 0.000000 0.000000 0.000000
# 4 0.000000 0.000000 0.000000 -0.021242 0.000000 0.000000
# 5 0.000000 0.000000 0.000000 0.000000 0.021979 0.000000
# 6 0.000000 0.000000 0.000000 0.000000 0.000000 0.031210
#
#
# Mechanical properties :
#
#
# Convention : Reuss Voigt Hill
#
# Bulk Modulus (GPa) = 144.05321 149.20084 146.62702
# Shear Modulus (GPa) = 88.13497 39.50184 63.81840
#
# Velocity S-wave (km/s) = 5.16144 3.45546 4.39208
# Velocity P-wave (km/s) = 8.89176 7.81147 8.36906
#
# Compressibility (1/GPa) = 0.00694188
#
# Stress axis : x y z
#
# Youngs Moduli (GPa) = 171.67716 233.85584 217.16936
#
# Poissons Ratio (x) = 0.16839 0.39802
# Poissons Ratio (y) = 0.12362 0.28864
# Poissons Ratio (z) = 0.31464 0.31081
#
# Static dielectric constant tensor:
#      x y z
#    x 5.598230 0.000000 0.000000 
#    y 0.000000 7.031050 0.000000 
#    z 0.000000 0.000000 7.349530 
# 
# 
# High freq. dielectric constant tensor:
#      x y z
#    x 2.366240 0.000000 0.000000 
#    y 0.000000 2.406040 0.000000 
#    z 0.000000 0.000000 2.459600 
# 
# From -- ./inp_files/15455.got.cif
#   From: 2010.06.25/outbox.cif.g09.slc.cpg/sg43_8_cif.got.tgz:15455.got - 2010.06.26 16:48:59.
