data_PCOD8187541
_publ_section_title
;
Structure prediction by ZEFSAII (Michael W. Deem and Ramdas Pophale) SiO2 
 PCOD8187541
Probable space group: F D D 2
;
_chemical_formula_sum "Si O2"
_cell_formula_units_Z 112
_cell_length_a 26.098490
_cell_length_b 14.655558
_cell_length_c 12.430790
_cell_angle_alpha 90.000000
_cell_angle_beta 90.000000
_cell_angle_gamma 90.000000
_cell_volume 4754.627184
_symmetry_space_group_name_H-M "F D D 2"
_symmetry_group_IT_number 43
_symmetry_cell_setting 'orthorhombic'
loop_
_space_group_symop_operation_xyz
x,y,z
-x,-y,z
1/4-x,1/4+y,1/4+z
1/4+x,1/4-y,1/4+z
x,1/2+y,1/2+z
-x,1/2-y,1/2+z
1/4-x,3/4+y,3/4+z
1/4+x,3/4-y,3/4+z
1/2+x,y,1/2+z
1/2-x,-y,1/2+z
3/4-x,1/4+y,3/4+z
3/4+x,1/4-y,3/4+z
1/2+x,1/2+y,z
1/2-x,1/2-y,z
3/4-x,3/4+y,1/4+z
3/4+x,3/4-y,1/4+z
loop_
_atom_site_type_symbol
_atom_site_label
_atom_site_fract_x
_atom_site_fract_y
_atom_site_fract_z
Si Si1 0.325949 0.414844 0.334310
Si Si2 0.373168 0.903980 0.385159
Si Si3 0.026573 0.093561 0.142796
Si Si4 0.605068 0.154905 0.011581
Si Si5 0.858390 0.355924 0.608409
Si Si6 0.414496 0.209841 0.909377
Si Si7 0.237856 0.849572 0.132761
O O1 0.265845 0.420935 0.364219
O O2 0.354302 0.339517 0.410507
O O3 0.356182 0.510816 0.346523
O O4 0.330687 0.405517 0.205230
O O5 0.336587 0.891029 0.492111
O O6 0.413726 0.819642 0.396016
O O7 0.338925 0.913397 0.277604
O O8 0.403410 0.999916 0.383614
O O9 0.080697 0.121561 0.092125
O O10 0.039700 0.084589 0.268682
O O11 0.000000 0.000000 0.098518
O O12 0.616534 0.067919 0.084987
O O13 0.548235 0.150813 0.965716
O O14 0.464367 0.165066 0.857379
O O15 0.250000 0.750000 0.181065
#
# Coordination Sequence:
#
# PCOD8187541 Si02
#       7
#    16  16  16  16  16  16  16
#     4  12  24  41  68 103 133 179 226 293 360 413
#     4  10  24  42  66  86 136 194 222 274 352 418
#     4  11  23  40  68 101 136 169 229 295 353 423
#     4  12  24  41  68 103 133 179 226 293 360 413
#     4  11  23  44  66  95 138 180 233 284 350 425
#     4  11  23  44  66  95 138 180 233 284 350 425
#     4  11  23  40  68 101 136 169 229 295 353 423
#
# _framework density 23.556000999999998
#
# number of rings (size 3 to 8) (size 9 to 14) (size 15 to 20)
#    0.000    0.857    2.857    5.143    4.000    0.000 
#    0.000    1.429    0.000    5.143    0.000    0.000 
#    0.000    0.000    0.000    0.000    0.000    0.000 
#
# Total GULP energy -346868.541789 kJ/mol
# GULP energy per Si atom -12388.162207 kJ/mol
# Density = 2.350239 g / cm^3
# Si number density = 23.556001 Si / 1000 Ang^3
#
#
#
# Elastic Constant Matrix: (Units=GPa)
#
#
# Indices 1 2 3 4 5 6 
#
# 1 82.3036 26.1732 12.2710 0.0000 0.0000 0.0000
# 2 26.1732 113.7560 24.4698 0.0000 0.0000 0.0000
# 3 12.2710 24.4698 116.4813 0.0000 0.0000 0.0000
# 4 0.0000 0.0000 0.0000 45.8814 0.0000 0.0000
# 5 0.0000 0.0000 0.0000 0.0000 21.0810 0.0000
# 6 0.0000 0.0000 0.0000 0.0000 0.0000 26.3287
#
#
#
# Elastic Compliance Matrix: (Units=1/GPa)
#
#
# Indices 1 2 3 4 5 6 
#
# 1 0.013178 -0.002863 -0.000787 0.000000 0.000000 0.000000
# 2 -0.002863 0.009829 -0.001763 0.000000 0.000000 0.000000
# 3 -0.000787 -0.001763 0.009038 0.000000 0.000000 0.000000
# 4 0.000000 0.000000 0.000000 0.021795 0.000000 0.000000
# 5 0.000000 0.000000 0.000000 0.000000 0.047436 0.000000
# 6 0.000000 0.000000 0.000000 0.000000 0.000000 0.037981
#
#
# Mechanical properties :
#
#
# Convention : Reuss Voigt Hill
#
# Bulk Modulus (GPa) = 47.12679 48.70763 47.91721
# Shear Modulus (GPa) = 31.81549 35.30002 33.55775
#
# Velocity S-wave (km/s) = 3.67908 3.87532 3.77847
# Velocity P-wave (km/s) = 6.17230 6.38329 6.27868
#
# Compressibility (1/GPa) = 0.02121935
#
# Stress axis : x y z
#
# Youngs Moduli (GPa) = 75.88505 101.74305 110.63952
#
# Poissons Ratio (x) = 0.29126 0.08706
# Poissons Ratio (y) = 0.21724 0.19508
# Poissons Ratio (z) = 0.05971 0.17939
#
# Static dielectric constant tensor:
#      x y z
#    x 3.828950 0.000000 0.000000 
#    y 0.000000 4.402360 0.000000 
#    z 0.000000 0.000000 4.428440 
# 
# 
# High freq. dielectric constant tensor:
#      x y z
#    x 1.894890 0.000000 0.000000 
#    y 0.000000 1.942630 0.000000 
#    z 0.000000 0.000000 1.949160 
# 
# From -- ./inp_files/11523.got.cif
#   From: 2010.06.25/outbox.cif.g09.slc.cpg/sg43_6_cif.got.tgz:11523.got - 2010.06.26 16:48:59.
