data_PCOD8187809
_publ_section_title
;
Structure prediction by ZEFSAII (Michael W. Deem and Ramdas Pophale) SiO2 
 PCOD8187809
Probable space group: F D D 2
;
_chemical_formula_sum "Si O2"
_cell_formula_units_Z 80
_cell_length_a 13.807260
_cell_length_b 11.213840
_cell_length_c 23.174724
_cell_angle_alpha 90.000000
_cell_angle_beta 90.000000
_cell_angle_gamma 90.000000
_cell_volume 3588.198240
_symmetry_space_group_name_H-M "F D D 2"
_symmetry_group_IT_number 43
_symmetry_cell_setting 'orthorhombic'
loop_
_space_group_symop_operation_xyz
x,y,z
-x,-y,z
1/4-x,1/4+y,1/4+z
1/4+x,1/4-y,1/4+z
x,1/2+y,1/2+z
-x,1/2-y,1/2+z
1/4-x,3/4+y,3/4+z
1/4+x,3/4-y,3/4+z
1/2+x,y,1/2+z
1/2-x,-y,1/2+z
3/4-x,1/4+y,3/4+z
3/4+x,1/4-y,3/4+z
1/2+x,1/2+y,z
1/2-x,1/2-y,z
3/4-x,3/4+y,1/4+z
3/4+x,3/4-y,1/4+z
loop_
_atom_site_type_symbol
_atom_site_label
_atom_site_fract_x
_atom_site_fract_y
_atom_site_fract_z
Si Si1 0.500000 0.500000 0.430370
Si Si2 0.949656 0.298373 0.321015
Si Si3 0.699808 0.542568 0.760980
Si Si4 0.072862 0.668851 0.118659
Si Si5 0.920856 0.680504 0.219312
Si Si6 0.750000 0.750000 0.156076
O O1 0.493865 0.376706 0.465740
O O2 0.404521 0.491042 0.390974
O O3 0.892610 0.384815 0.279584
O O4 0.877817 0.199592 0.346337
O O5 0.033936 0.256480 0.276380
O O6 0.994558 0.377028 0.371199
O O7 0.768172 0.516695 0.816004
O O8 0.655699 0.424758 0.733360
O O9 0.999108 0.637963 0.170982
O O10 0.848137 0.776787 0.191800
#
# Coordination Sequence:
#
# PCOD8187809 Si02
#       6
#     8  16  16  16  16   8
#     4  12  26  38  69 102 129 180 212 274 334 388
#     4  12  23  41  68 102 126 175 225 273 321 398
#     4  12  23  41  68 102 126 175 225 273 321 398
#     4  12  25  44  70  98 136 174 224 276 328 397
#     4  12  25  44  70  98 136 174 224 276 328 397
#     4  12  26  38  69 102 129 180 212 274 334 388
#
# _framework density 22.295311999999999
#
# number of rings (size 3 to 8) (size 9 to 14) (size 15 to 20)
#    0.000    0.000    8.000    1.200    5.600    1.600 
#    0.000    0.000    0.000    2.400    0.000    0.000 
#    0.000    0.000    0.000    0.000    0.000    0.000 
#
# Total GULP energy -247825.386308 kJ/mol
# GULP energy per Si atom -12391.269315 kJ/mol
# Density = 2.224457 g / cm^3
# Si number density = 22.295312 Si / 1000 Ang^3
#
#
#
# Elastic Constant Matrix: (Units=GPa)
#
#
# Indices 1 2 3 4 5 6 
#
# 1 153.6905 38.6051 92.8587 0.0000 0.0000 0.0000
# 2 38.6051 54.8880 29.2528 0.0000 0.0000 0.0000
# 3 92.8587 29.2528 140.6198 0.0000 0.0000 0.0000
# 4 0.0000 0.0000 0.0000 22.5313 0.0000 0.0000
# 5 0.0000 0.0000 0.0000 0.0000 80.1898 0.0000
# 6 0.0000 0.0000 0.0000 0.0000 0.0000 40.4580
#
#
#
# Elastic Compliance Matrix: (Units=1/GPa)
#
#
# Indices 1 2 3 4 5 6 
#
# 1 0.011800 -0.004664 -0.006822 0.000000 0.000000 0.000000
# 2 -0.004664 0.022334 -0.001566 0.000000 0.000000 0.000000
# 3 -0.006822 -0.001566 0.011942 0.000000 0.000000 0.000000
# 4 0.000000 0.000000 0.000000 0.044383 0.000000 0.000000
# 5 0.000000 0.000000 0.000000 0.000000 0.012470 0.000000
# 6 0.000000 0.000000 0.000000 0.000000 0.000000 0.024717
#
#
# Mechanical properties :
#
#
# Convention : Reuss Voigt Hill
#
# Bulk Modulus (GPa) = 50.07027 74.51462 62.29245
# Shear Modulus (GPa) = 31.17078 41.20127 36.18603
#
# Velocity S-wave (km/s) = 3.74316 4.30348 4.03306
# Velocity P-wave (km/s) = 6.41780 7.62807 7.04896
#
# Compressibility (1/GPa) = 0.01997193
#
# Stress axis : x y z
#
# Youngs Moduli (GPa) = 84.74794 44.77513 83.73773
#
# Poissons Ratio (x) = 0.20881 0.57124
# Poissons Ratio (y) = 0.39522 0.13117
# Poissons Ratio (z) = 0.57814 0.07014
#
# Static dielectric constant tensor:
#      x y z
#    x 4.556660 0.000000 0.000000 
#    y 0.000000 3.542700 0.000000 
#    z 0.000000 0.000000 4.651890 
# 
# 
# High freq. dielectric constant tensor:
#      x y z
#    x 1.896400 0.000000 0.000000 
#    y 0.000000 1.835330 0.000000 
#    z 0.000000 0.000000 1.909710 
# 
# From -- ./inp_files/11171.got.cif
#   From: 2010.06.25/outbox.cif.g09.slc.cpg/sg43_6_cif.got.tgz:11171.got - 2010.06.26 16:48:59.
