data_PCOD8187060
_publ_section_title
;
Structure prediction by ZEFSAII (Michael W. Deem and Ramdas Pophale) SiO2 
 PCOD8187060
Probable space group: F D D 2
;
_chemical_formula_sum "Si O2"
_cell_formula_units_Z 88
_cell_length_a 23.138867
_cell_length_b 13.543138
_cell_length_c 13.365269
_cell_angle_alpha 90.000000
_cell_angle_beta 90.000000
_cell_angle_gamma 90.000000
_cell_volume 4188.312691
_symmetry_space_group_name_H-M "F D D 2"
_symmetry_group_IT_number 43
_symmetry_cell_setting 'orthorhombic'
loop_
_space_group_symop_operation_xyz
x,y,z
-x,-y,z
1/4-x,1/4+y,1/4+z
1/4+x,1/4-y,1/4+z
x,1/2+y,1/2+z
-x,1/2-y,1/2+z
1/4-x,3/4+y,3/4+z
1/4+x,3/4-y,3/4+z
1/2+x,y,1/2+z
1/2-x,-y,1/2+z
3/4-x,1/4+y,3/4+z
3/4+x,1/4-y,3/4+z
1/2+x,1/2+y,z
1/2-x,1/2-y,z
3/4-x,3/4+y,1/4+z
3/4+x,3/4-y,1/4+z
loop_
_atom_site_type_symbol
_atom_site_label
_atom_site_fract_x
_atom_site_fract_y
_atom_site_fract_z
Si Si1 0.250000 0.250000 0.483980
Si Si2 0.402495 0.947372 0.145437
Si Si3 0.733575 0.960881 0.963621
Si Si4 0.810987 0.905469 0.802345
Si Si5 0.025479 0.170474 0.380532
Si Si6 0.850865 0.365881 0.952125
O O1 0.249310 0.347787 0.548473
O O2 0.190333 0.229227 0.425016
O O3 0.460315 0.900206 0.193794
O O4 0.358647 0.963943 0.238155
O O5 0.415619 0.048741 0.087182
O O6 0.371080 0.872737 0.068097
O O7 0.792058 0.972014 0.897064
O O8 0.682788 0.033418 0.923807
O O9 0.753398 0.975831 0.080276
O O10 0.752128 0.894693 0.737168
O O11 0.093851 0.154640 0.383295
#
# Coordination Sequence:
#
# PCOD8187060 Si02
#       6
#     8  16  16  16  16  16
#     4  10  20  36  62  90 116 166 220 264 326 392
#     4  12  21  40  68  97 130 171 220 283 336 395
#     4  11  24  39  62 102 130 171 227 275 336 405
#     4  12  23  40  66  98 134 168 222 282 335 402
#     4  11  22  39  63  99 127 167 223 279 326 390
#     4  11  21  38  64  89 127 171 228 267 327 394
#
# _framework density 21.010846999999998
#
# number of rings (size 3 to 8) (size 9 to 14) (size 15 to 20)
#    0.000    0.727    7.273    2.727    0.000    0.000 
#    6.545    0.000    0.000    0.000    0.000    0.000 
#    0.000    0.000    0.000    0.000    0.000    0.000 
#
# Total GULP energy -272575.953819 kJ/mol
# GULP energy per Si atom -12389.816083 kJ/mol
# Density = 2.096303 g / cm^3
# Si number density = 21.010847 Si / 1000 Ang^3
#
#
#
# Elastic Constant Matrix: (Units=GPa)
#
#
# Indices 1 2 3 4 5 6 
#
# 1 133.1553 35.8109 54.2060 0.0000 0.0000 0.0000
# 2 35.8109 61.5725 36.5924 0.0000 0.0000 0.0000
# 3 54.2060 36.5924 79.4228 0.0000 0.0000 0.0000
# 4 0.0000 0.0000 0.0000 -3.0722 0.0000 0.0000
# 5 0.0000 0.0000 0.0000 0.0000 78.0849 0.0000
# 6 0.0000 0.0000 0.0000 0.0000 0.0000 43.3446
#
#
#
# Elastic Compliance Matrix: (Units=1/GPa)
#
#
# Indices 1 2 3 4 5 6 
#
# 1 0.010691 -0.002591 -0.006103 0.000000 0.000000 0.000000
# 2 -0.002591 0.022993 -0.008825 0.000000 0.000000 0.000000
# 3 -0.006103 -0.008825 0.020822 0.000000 0.000000 0.000000
# 4 0.000000 0.000000 0.000000 -0.325504 0.000000 0.000000
# 5 0.000000 0.000000 0.000000 0.000000 0.012807 0.000000
# 6 0.000000 0.000000 0.000000 0.000000 0.000000 0.023071
#
#
# Mechanical properties :
#
#
# Convention : Reuss Voigt Hill
#
# Bulk Modulus (GPa) = 51.36666 58.59658 54.98162
# Shear Modulus (GPa) = -25.82736 33.50755 3.84010
#
# Velocity S-wave (km/s) = -3.50985 3.99779 1.35338
# Velocity P-wave (km/s) = 2.84171 7.01848 5.35418
#
# Compressibility (1/GPa) = 0.01946788
#
# Stress axis : x y z
#
# Youngs Moduli (GPa) = 93.53338 43.49214 48.02599
#
# Poissons Ratio (x) = 0.11269 0.29310
# Poissons Ratio (y) = 0.24236 0.42383
# Poissons Ratio (z) = 0.57084 0.38381
#
# Static dielectric constant tensor:
#      x y z
#    x 4.145580 0.000000 0.000000 
#    y 0.000000 6.293080 0.000000 
#    z 0.000000 0.000000 3.716990 
# 
# 
# High freq. dielectric constant tensor:
#      x y z
#    x 1.852100 0.000000 0.000000 
#    y 0.000000 1.791190 0.000000 
#    z 0.000000 0.000000 1.800390 
# 
# From -- ./inp_files/6139.got.cif
#   From: 2010.06.25/outbox.cif.g09.slc.cpg/sg43_4_cif.got.tgz:6139.got - 2010.06.26 16:48:59.
