data_PCOD8187426
_publ_section_title
;
Structure prediction by ZEFSAII (Michael W. Deem and Ramdas Pophale) SiO2 
 PCOD8187426
Probable space group: F D D 2
;
_chemical_formula_sum "Si O2"
_cell_formula_units_Z 120
_cell_length_a 19.444146
_cell_length_b 11.001460
_cell_length_c 25.187128
_cell_angle_alpha 90.000000
_cell_angle_beta 90.000000
_cell_angle_gamma 90.000000
_cell_volume 5387.879159
_symmetry_space_group_name_H-M "F D D 2"
_symmetry_group_IT_number 43
_symmetry_cell_setting 'orthorhombic'
loop_
_space_group_symop_operation_xyz
x,y,z
-x,-y,z
1/4-x,1/4+y,1/4+z
1/4+x,1/4-y,1/4+z
x,1/2+y,1/2+z
-x,1/2-y,1/2+z
1/4-x,3/4+y,3/4+z
1/4+x,3/4-y,3/4+z
1/2+x,y,1/2+z
1/2-x,-y,1/2+z
3/4-x,1/4+y,3/4+z
3/4+x,1/4-y,3/4+z
1/2+x,1/2+y,z
1/2-x,1/2-y,z
3/4-x,3/4+y,1/4+z
3/4+x,3/4-y,1/4+z
loop_
_atom_site_type_symbol
_atom_site_label
_atom_site_fract_x
_atom_site_fract_y
_atom_site_fract_z
Si Si1 0.881435 0.227025 0.322320
Si Si2 0.710622 0.559986 0.669635
Si Si3 0.174641 0.710100 0.999847
Si Si4 0.933947 0.366775 0.505115
Si Si5 0.250000 0.250000 0.758256
Si Si6 0.080602 0.497148 0.329785
Si Si7 0.325660 0.864844 0.799122
Si Si8 0.395313 0.237730 0.391355
O O1 0.899745 0.156071 0.377742
O O2 0.805873 0.196116 0.299378
O O3 0.891916 0.366868 0.337367
O O4 0.929826 0.176398 0.274121
O O5 0.697471 0.427199 0.695140
O O6 0.714356 0.652049 0.719399
O O7 0.779995 0.551081 0.634295
O O8 0.250000 0.750000 0.983448
O O9 0.123943 0.729984 0.951077
O O10 0.138043 0.790277 0.045403
O O11 0.865282 0.303341 0.526506
O O12 0.921528 0.511716 0.502867
O O13 0.998936 0.329225 0.543758
O O14 0.100111 0.406747 0.378676
O O15 0.000000 0.500000 0.319993
O O16 0.336590 0.797461 0.855023
#
# Coordination Sequence:
#
# PCOD8187426 Si02
#       8
#    16  16  16  16   8  16  16  16
#     4  12  27  46  74 106 146 197 249 310 382 455
#     4  12  24  46  74 104 142 203 239 300 391 444
#     4  12  27  43  67 107 145 186 248 304 367 455
#     4  10  22  43  72  98 135 183 230 305 363 427
#     4  12  26  52  70 110 156 192 254 312 382 476
#     4  11  24  44  70  99 142 181 246 302 361 442
#     4  10  23  43  69 102 139 182 244 296 365 439
#     4  11  24  43  71 103 139 191 239 300 367 440
#
# _framework density 22.272214000000002
#
# number of rings (size 3 to 8) (size 9 to 14) (size 15 to 20)
#    0.000    0.800    5.333    0.800   10.267    0.000 
#    1.200    1.333    0.000    0.000    0.000    0.000 
#    0.000    0.000    0.000    0.000    0.000    0.000 
#
# Total GULP energy -371762.188026 kJ/mol
# GULP energy per Si atom -12392.072934 kJ/mol
# Density = 2.222152 g / cm^3
# Si number density = 22.272214 Si / 1000 Ang^3
#
#
#
# Elastic Constant Matrix: (Units=GPa)
#
#
# Indices 1 2 3 4 5 6 
#
# 1 100.4612 19.3241 57.2032 0.0000 0.0000 0.0000
# 2 19.3241 75.8509 42.9193 0.0000 0.0000 0.0000
# 3 57.2032 42.9193 124.6447 0.0000 0.0000 0.0000
# 4 0.0000 0.0000 0.0000 33.9153 0.0000 0.0000
# 5 0.0000 0.0000 0.0000 0.0000 44.3918 0.0000
# 6 0.0000 0.0000 0.0000 0.0000 0.0000 31.4681
#
#
#
# Elastic Compliance Matrix: (Units=1/GPa)
#
#
# Indices 1 2 3 4 5 6 
#
# 1 0.013476 0.000082 -0.006213 0.000000 0.000000 0.000000
# 2 0.000082 0.016375 -0.005676 0.000000 0.000000 0.000000
# 3 -0.006213 -0.005676 0.012828 0.000000 0.000000 0.000000
# 4 0.000000 0.000000 0.000000 0.029485 0.000000 0.000000
# 5 0.000000 0.000000 0.000000 0.000000 0.022527 0.000000
# 6 0.000000 0.000000 0.000000 0.000000 0.000000 0.031778
#
#
# Mechanical properties :
#
#
# Convention : Reuss Voigt Hill
#
# Bulk Modulus (GPa) = 52.45017 59.98334 56.21676
# Shear Modulus (GPa) = 31.96167 34.05572 33.00869
#
# Velocity S-wave (km/s) = 3.79231 3.91457 3.85393
# Velocity P-wave (km/s) = 6.54035 6.88638 6.71559
#
# Compressibility (1/GPa) = 0.01906571
#
# Stress axis : x y z
#
# Youngs Moduli (GPa) = 74.20668 61.07053 77.95149
#
# Poissons Ratio (x) = -0.00502 0.48430
# Poissons Ratio (y) = -0.00610 0.44246
# Poissons Ratio (z) = 0.46103 0.34664
#
# Static dielectric constant tensor:
#      x y z
#    x 4.115750 0.000000 0.000000 
#    y 0.000000 4.180430 0.000000 
#    z 0.000000 0.000000 3.869570 
# 
# 
# High freq. dielectric constant tensor:
#      x y z
#    x 1.876510 0.000000 0.000000 
#    y 0.000000 1.881010 0.000000 
#    z 0.000000 0.000000 1.866990 
# 
# From -- ./inp_files/22466.got.cif
#   From: 2010.06.25/outbox.cif.g09.slc.cpg/sg43_12_cif.got.tgz:22466.got - 2010.06.26 16:48:59.
