data_PCOD8187916
_publ_section_title
;
Structure prediction by ZEFSAII (Michael W. Deem and Ramdas Pophale) SiO2 
 PCOD8187916
Probable space group: I M M 2
;
_chemical_formula_sum "Si O2"
_cell_formula_units_Z 64
_cell_length_a 30.245332
_cell_length_b 9.219559
_cell_length_c 14.529036
_cell_angle_alpha 90.000000
_cell_angle_beta 90.000000
_cell_angle_gamma 90.000000
_cell_volume 4051.401680
_symmetry_space_group_name_H-M "I M M 2"
_symmetry_group_IT_number 44
_symmetry_cell_setting 'orthorhombic'
loop_
_space_group_symop_operation_xyz
x,y,z
-x,-y,z
-x,y,z
x,-y,z
1/2+x,1/2+y,1/2+z
1/2-x,1/2-y,1/2+z
1/2-x,1/2+y,1/2+z
1/2+x,1/2-y,1/2+z
loop_
_atom_site_type_symbol
_atom_site_label
_atom_site_fract_x
_atom_site_fract_y
_atom_site_fract_z
Si Si1 0.232653 0.332963 0.571700
Si Si2 0.449663 0.330994 0.452997
Si Si3 0.866457 0.671333 0.241094
Si Si4 0.204696 0.330421 0.377438
Si Si5 0.785352 0.672869 0.776551
Si Si6 0.950740 0.330704 0.144208
Si Si7 0.681933 0.163724 0.562844
Si Si8 0.371939 0.164164 0.381920
O O1 0.243696 0.500000 0.584488
O O2 0.198649 0.305704 0.487292
O O3 0.215590 0.273713 0.669954
O O4 0.276512 0.257888 0.534595
O O5 0.500000 0.305019 0.419028
O O6 0.438992 0.500000 0.462885
O O7 0.442285 0.257943 0.551736
O O8 0.416272 0.261988 0.377275
O O9 0.866905 0.500000 0.240105
O O10 0.841917 0.726036 0.333640
O O11 0.917130 0.723672 0.225038
O O12 0.837629 0.729974 0.156177
O O13 0.212706 0.500000 0.355485
O O14 0.245754 0.244733 0.333578
O O15 0.780745 0.500000 0.787908
O O16 0.833066 0.723528 0.815305
O O17 0.942853 0.500000 0.120117
O O18 0.000000 0.303760 0.182421
O O19 0.644596 0.171993 0.486202
O O20 0.698581 0.000000 0.576736
O O21 0.384505 0.000000 0.354054
#
# Coordination Sequence:
#
# PCOD8187916 Si02
#       8
#     8   8   8   8   8   8   8   8
#     4  10  20  31  43  64  91 119 152 190 228 261
#     4  10  20  31  44  66  94 117 140 179 227 269
#     4   9  16  27  42  63  87 115 150 181 215 260
#     4  10  19  30  45  64  89 121 154 184 224 271
#     4  10  20  32  45  64  90 117 152 191 224 259
#     4   9  16  28  46  65  87 117 152 185 218 264
#     4  10  17  27  44  64  88 118 152 187 218 255
#     4  10  19  31  46  63  86 121 155 182 216 261
#
# _framework density 15.797001
#
# number of rings (size 3 to 8) (size 9 to 14) (size 15 to 20)
#    0.000    2.250    3.750    0.375    0.000    1.750 
#    0.000    0.625    0.000    0.000    0.000    0.875 
#    0.000    5.000    0.000    3.375    0.000    3.000 
#
# Total GULP energy -396531.670255 kJ/mol
# GULP energy per Si atom -12391.614695 kJ/mol
# Density = 1.576105 g / cm^3
# Si number density = 15.797001 Si / 1000 Ang^3
#
#
#
# Elastic Constant Matrix: (Units=GPa)
#
#
# Indices 1 2 3 4 5 6 
#
# 1 117.0027 36.0829 40.6599 0.0000 0.0000 0.0000
# 2 36.0829 39.9768 20.7916 0.0000 0.0000 0.0000
# 3 40.6599 20.7916 80.8210 0.0000 0.0000 0.0000
# 4 0.0000 0.0000 0.0000 11.7024 0.0000 0.0000
# 5 0.0000 0.0000 0.0000 0.0000 24.2287 0.0000
# 6 0.0000 0.0000 0.0000 0.0000 0.0000 22.0220
#
#
#
# Elastic Compliance Matrix: (Units=1/GPa)
#
#
# Indices 1 2 3 4 5 6 
#
# 1 0.012889 -0.009537 -0.004031 0.000000 0.000000 0.000000
# 2 -0.009537 0.035935 -0.004447 0.000000 0.000000 0.000000
# 3 -0.004031 -0.004447 0.015545 0.000000 0.000000 0.000000
# 4 0.000000 0.000000 0.000000 0.085453 0.000000 0.000000
# 5 0.000000 0.000000 0.000000 0.000000 0.041273 0.000000
# 6 0.000000 0.000000 0.000000 0.000000 0.000000 0.045409
#
#
# Mechanical properties :
#
#
# Convention : Reuss Voigt Hill
#
# Bulk Modulus (GPa) = 35.28573 48.09660 41.69116
# Shear Modulus (GPa) = 17.73182 20.94169 19.33676
#
# Velocity S-wave (km/s) = 3.35398 3.64493 3.50248
# Velocity P-wave (km/s) = 6.11428 6.94455 6.54260
#
# Compressibility (1/GPa) = 0.02834007
#
# Stress axis : x y z
#
# Youngs Moduli (GPa) = 77.58769 27.82793 64.33059
#
# Poissons Ratio (x) = 0.26539 0.25930
# Poissons Ratio (y) = 0.73995 0.28605
# Poissons Ratio (z) = 0.31273 0.12374
#
# Static dielectric constant tensor:
#      x y z
#    x 3.183010 0.000000 0.000000 
#    y 0.000000 2.928910 0.000000 
#    z 0.000000 0.000000 3.108750 
# 
# 
# High freq. dielectric constant tensor:
#      x y z
#    x 1.601390 0.000000 0.000000 
#    y 0.000000 1.594120 0.000000 
#    z 0.000000 0.000000 1.583430 
# 
# From -- ./inp_files/17089.got.cif
#   From: 2010.03.12/outbox.cif.g09.slc.cpg/sg44_9_cif.got.tgz:17089.got - 2010.04.14 02:36:11.
