data_PCOD8187975
_publ_section_title
;
Structure prediction by ZEFSAII (Michael W. Deem and Ramdas Pophale) SiO2 
 PCOD8187975
Probable space group: I M M 2
;
_chemical_formula_sum "Si O2"
_cell_formula_units_Z 48
_cell_length_a 14.532641
_cell_length_b 8.591887
_cell_length_c 20.506739
_cell_angle_alpha 90.000000
_cell_angle_beta 90.000000
_cell_angle_gamma 90.000000
_cell_volume 2560.529041
_symmetry_space_group_name_H-M "I M M 2"
_symmetry_group_IT_number 44
_symmetry_cell_setting 'orthorhombic'
loop_
_space_group_symop_operation_xyz
x,y,z
-x,-y,z
-x,y,z
x,-y,z
1/2+x,1/2+y,1/2+z
1/2-x,1/2-y,1/2+z
1/2-x,1/2+y,1/2+z
1/2+x,1/2-y,1/2+z
loop_
_atom_site_type_symbol
_atom_site_label
_atom_site_fract_x
_atom_site_fract_y
_atom_site_fract_z
Si Si1 0.689111 0.315886 0.708000
Si Si2 0.686589 0.816967 0.329337
Si Si3 0.000000 0.684476 0.643412
Si Si4 0.500000 0.682114 0.286164
Si Si5 0.689469 0.184353 0.089501
Si Si6 0.695303 0.184374 0.942999
Si Si7 0.500000 0.815875 0.891605
Si Si8 0.000000 0.316509 0.245813
O O1 0.678732 0.500000 0.709002
O O2 0.748917 0.259315 0.769877
O O3 0.736594 0.254588 0.641762
O O4 0.589230 0.240486 0.707746
O O5 0.589775 0.728352 0.327366
O O6 0.734445 0.775144 0.397237
O O7 0.668513 0.000000 0.324618
O O8 0.089731 0.754968 0.607907
O O9 0.000000 0.500000 0.637663
O O10 0.000000 0.725448 0.718975
O O11 0.500000 0.500000 0.272199
O O12 0.682365 0.000000 0.094098
O O13 0.718915 0.234392 0.016932
O O14 0.591187 0.241314 0.928800
O O15 0.705507 0.000000 0.931632
O O16 0.500000 0.745245 0.818759
O O17 0.500000 0.000000 0.888438
O O18 0.000000 0.500000 0.248663
#
# Coordination Sequence:
#
# PCOD8187975 Si02
#       8
#     8   8   4   4   8   8   4   4
#     4  10  20  36  57  82 110 148 190 228 270 329
#     4  11  22  38  59  82 113 151 189 232 283 340
#     4  10  17  34  59  87 119 151 188 227 280 345
#     4  12  24  37  58  88 115 145 189 240 287 335
#     4   9  18  33  58  85 113 151 190 228 274 335
#     4  10  19  35  57  85 117 150 190 233 280 333
#     4   9  17  29  51  84 116 140 173 227 281 327
#     4  11  21  34  54  83 112 144 182 228 280 327
#
# _framework density 18.746126
#
# number of rings (size 3 to 8) (size 9 to 14) (size 15 to 20)
#    0.000    1.833    3.333    2.000    0.000    2.667 
#    0.000    2.917    0.000    2.000    0.000    0.000 
#    0.000    0.000    0.000    0.000    0.000    0.000 
#
# Total GULP energy -297642.865424 kJ/mol
# GULP energy per Si atom -12401.786059 kJ/mol
# Density = 1.870346 g / cm^3
# Si number density = 18.746126 Si / 1000 Ang^3
#
#
#
# Elastic Constant Matrix: (Units=GPa)
#
#
# Indices 1 2 3 4 5 6 
#
# 1 148.7193 22.8587 68.8605 0.0000 0.0000 0.0000
# 2 22.8587 25.6773 11.2312 0.0000 0.0000 0.0000
# 3 68.8605 11.2312 147.0037 0.0000 0.0000 0.0000
# 4 0.0000 0.0000 0.0000 24.9217 0.0000 0.0000
# 5 0.0000 0.0000 0.0000 0.0000 28.9369 0.0000
# 6 0.0000 0.0000 0.0000 0.0000 0.0000 19.6282
#
#
#
# Elastic Compliance Matrix: (Units=1/GPa)
#
#
# Indices 1 2 3 4 5 6 
#
# 1 0.009617 -0.006819 -0.003984 0.000000 0.000000 0.000000
# 2 -0.006819 0.045126 -0.000254 0.000000 0.000000 0.000000
# 3 -0.003984 -0.000254 0.008688 0.000000 0.000000 0.000000
# 4 0.000000 0.000000 0.000000 0.040126 0.000000 0.000000
# 5 0.000000 0.000000 0.000000 0.000000 0.034558 0.000000
# 6 0.000000 0.000000 0.000000 0.000000 0.000000 0.050947
#
#
# Mechanical properties :
#
#
# Convention : Reuss Voigt Hill
#
# Bulk Modulus (GPa) = 24.20209 58.58901 41.39555
# Shear Modulus (GPa) = 22.22751 29.26068 25.74410
#
# Velocity S-wave (km/s) = 3.44715 3.95510 3.70983
# Velocity P-wave (km/s) = 5.36491 7.22349 6.36243
#
# Compressibility (1/GPa) = 0.04131874
#
# Stress axis : x y z
#
# Youngs Moduli (GPa) = 103.98579 22.16016 115.10077
#
# Poissons Ratio (x) = 0.15110 0.45854
# Poissons Ratio (y) = 0.70904 0.02920
# Poissons Ratio (z) = 0.41426 0.00562
#
# Static dielectric constant tensor:
#      x y z
#    x 3.610680 0.000000 0.000000 
#    y 0.000000 3.103950 0.000000 
#    z 0.000000 0.000000 3.556690 
# 
# 
# High freq. dielectric constant tensor:
#      x y z
#    x 1.734150 0.000000 0.000000 
#    y 0.000000 1.699230 0.000000 
#    z 0.000000 0.000000 1.728310 
# 
# From -- ./inp_files/21755.got.cif
#   From: 2010.03.12/outbox.cif.g09.slc.cpg/sg44_11_cif.got.tgz:21755.got - 2010.04.14 02:36:11.
