data_PCOD8187620
_publ_section_title
;
Structure prediction by ZEFSAII (Michael W. Deem and Ramdas Pophale) SiO2 
 PCOD8187620
Probable space group: F D D 2
;
_chemical_formula_sum "Si O2"
_cell_formula_units_Z 120
_cell_length_a 10.274347
_cell_length_b 21.583737
_cell_length_c 25.385240
_cell_angle_alpha 90.000000
_cell_angle_beta 90.000000
_cell_angle_gamma 90.000000
_cell_volume 5629.400449
_symmetry_space_group_name_H-M "F D D 2"
_symmetry_group_IT_number 43
_symmetry_cell_setting 'orthorhombic'
loop_
_space_group_symop_operation_xyz
x,y,z
-x,-y,z
1/4-x,1/4+y,1/4+z
1/4+x,1/4-y,1/4+z
x,1/2+y,1/2+z
-x,1/2-y,1/2+z
1/4-x,3/4+y,3/4+z
1/4+x,3/4-y,3/4+z
1/2+x,y,1/2+z
1/2-x,-y,1/2+z
3/4-x,1/4+y,3/4+z
3/4+x,1/4-y,3/4+z
1/2+x,1/2+y,z
1/2-x,1/2-y,z
3/4-x,3/4+y,1/4+z
3/4+x,3/4-y,1/4+z
loop_
_atom_site_type_symbol
_atom_site_label
_atom_site_fract_x
_atom_site_fract_y
_atom_site_fract_z
Si Si1 0.250000 0.750000 0.103560
Si Si2 0.205885 0.074740 0.472776
Si Si3 0.795500 0.054779 0.427712
Si Si4 0.411096 0.390677 0.123313
Si Si5 0.077984 0.062105 0.842933
Si Si6 0.606198 0.764823 0.452625
Si Si7 0.895570 0.147303 0.039241
Si Si8 0.951307 0.648446 0.984882
O O1 0.334477 0.795845 0.138663
O O2 0.154827 0.793563 0.071105
O O3 0.262842 0.102236 0.418313
O O4 0.285200 0.098531 0.523216
O O5 0.057611 0.094094 0.483558
O O6 0.212988 0.000539 0.470356
O O7 0.662303 0.054891 0.395457
O O8 0.821318 0.120449 0.457469
O O9 0.273250 0.364847 0.106272
O O10 0.381766 0.460391 0.143393
O O11 0.498881 0.391713 0.071187
O O12 0.169920 0.080147 0.794025
O O13 0.000000 0.000000 0.828763
O O14 0.750000 0.750000 0.477394
O O15 0.542856 0.821019 0.486726
O O16 0.510710 0.706167 0.452003
#
# Coordination Sequence:
#
# PCOD8187620 Si02
#       8
#     8  16  16  16  16  16  16  16
#     4  12  18  38  68  98 130 182 236 282 366 428
#     4  11  21  42  69 104 137 176 242 296 346 428
#     4  12  24  42  72  96 143 190 234 298 361 423
#     4  11  23  43  65 101 141 179 237 290 356 426
#     4  12  26  46  70 101 139 191 243 288 363 442
#     4  11  22  41  68 100 136 177 233 290 350 430
#     4  11  20  37  72 102 130 184 238 290 354 432
#     4  12  24  44  68 107 139 183 244 298 350 437
#
# _framework density 21.316656999999999
#
# number of rings (size 3 to 8) (size 9 to 14) (size 15 to 20)
#    0.000    0.533    7.333    2.400    0.000    3.200 
#    2.400    1.333    0.000    0.000    0.000    0.000 
#    0.000    0.000    0.000    0.000    0.000    0.000 
#
# Total GULP energy -371967.299119 kJ/mol
# GULP energy per Si atom -12398.909971 kJ/mol
# Density = 2.126814 g / cm^3
# Si number density = 21.316657 Si / 1000 Ang^3
#
#
#
# Elastic Constant Matrix: (Units=GPa)
#
#
# Indices 1 2 3 4 5 6 
#
# 1 95.1188 41.5932 44.7833 0.0000 0.0000 0.0000
# 2 41.5932 120.4627 59.4581 0.0000 0.0000 0.0000
# 3 44.7833 59.4581 89.9997 0.0000 0.0000 0.0000
# 4 0.0000 0.0000 0.0000 18.6048 0.0000 0.0000
# 5 0.0000 0.0000 0.0000 0.0000 12.3448 0.0000
# 6 0.0000 0.0000 0.0000 0.0000 0.0000 36.5509
#
#
#
# Elastic Compliance Matrix: (Units=1/GPa)
#
#
# Indices 1 2 3 4 5 6 
#
# 1 0.014073 -0.002081 -0.005627 0.000000 0.000000 0.000000
# 2 -0.002081 0.012626 -0.007306 0.000000 0.000000 0.000000
# 3 -0.005627 -0.007306 0.018738 0.000000 0.000000 0.000000
# 4 0.000000 0.000000 0.000000 0.053750 0.000000 0.000000
# 5 0.000000 0.000000 0.000000 0.000000 0.081006 0.000000
# 6 0.000000 0.000000 0.000000 0.000000 0.000000 0.027359
#
#
# Mechanical properties :
#
#
# Convention : Reuss Voigt Hill
#
# Bulk Modulus (GPa) = 64.90324 66.36115 65.63220
# Shear Modulus (GPa) = 20.60025 24.14987 22.37506
#
# Velocity S-wave (km/s) = 3.11206 3.36953 3.24335
# Velocity P-wave (km/s) = 6.58988 6.80713 6.69938
#
# Compressibility (1/GPa) = 0.01540755
#
# Stress axis : x y z
#
# Youngs Moduli (GPa) = 71.05897 79.20238 53.36824
#
# Poissons Ratio (x) = 0.16485 0.30033
# Poissons Ratio (y) = 0.14790 0.38988
# Poissons Ratio (z) = 0.39988 0.57862
#
# Static dielectric constant tensor:
#      x y z
#    x 3.632150 0.000000 0.000000 
#    y 0.000000 3.970250 0.000000 
#    z 0.000000 0.000000 4.012790 
# 
# 
# High freq. dielectric constant tensor:
#      x y z
#    x 1.833870 0.000000 0.000000 
#    y 0.000000 1.833040 0.000000 
#    z 0.000000 0.000000 1.832630 
# 
# From -- ./inp_files/24474.got.cif
#   From: 2010.06.25/outbox.cif.g09.slc.cpg/sg43_13_cif.got.tgz:24474.got - 2010.06.26 16:48:59.
