data_PCOD8187755
_publ_section_title
;
Structure prediction by ZEFSAII (Michael W. Deem and Ramdas Pophale) SiO2 
 PCOD8187755
Probable space group: F D D 2
;
_chemical_formula_sum "Si O2"
_cell_formula_units_Z 88
_cell_length_a 20.272756
_cell_length_b 16.037283
_cell_length_c 11.689727
_cell_angle_alpha 90.000000
_cell_angle_beta 90.000000
_cell_angle_gamma 90.000000
_cell_volume 3800.563167
_symmetry_space_group_name_H-M "F D D 2"
_symmetry_group_IT_number 43
_symmetry_cell_setting 'orthorhombic'
loop_
_space_group_symop_operation_xyz
x,y,z
-x,-y,z
1/4-x,1/4+y,1/4+z
1/4+x,1/4-y,1/4+z
x,1/2+y,1/2+z
-x,1/2-y,1/2+z
1/4-x,3/4+y,3/4+z
1/4+x,3/4-y,3/4+z
1/2+x,y,1/2+z
1/2-x,-y,1/2+z
3/4-x,1/4+y,3/4+z
3/4+x,1/4-y,3/4+z
1/2+x,1/2+y,z
1/2-x,1/2-y,z
3/4-x,3/4+y,1/4+z
3/4+x,3/4-y,1/4+z
loop_
_atom_site_type_symbol
_atom_site_label
_atom_site_fract_x
_atom_site_fract_y
_atom_site_fract_z
Si Si1 0.878975 0.312374 0.489750
Si Si2 0.500000 0.000000 0.744754
Si Si3 0.606563 0.732293 0.573488
Si Si4 0.671996 0.367969 0.519325
Si Si5 0.009274 0.674236 0.645259
Si Si6 0.554281 0.791809 0.335974
O O1 0.869707 0.338075 0.356493
O O2 0.834344 0.232228 0.519572
O O3 0.956044 0.297263 0.525372
O O4 0.863086 0.392957 0.567426
O O5 0.564820 0.993936 0.824301
O O6 0.508361 0.076108 0.659479
O O7 0.591236 0.644926 0.637848
O O8 0.568171 0.800635 0.651108
O O9 0.570536 0.740998 0.451393
O O10 0.741370 0.397341 0.571373
O O11 0.051197 0.717812 0.744743
#
# Coordination Sequence:
#
# PCOD8187755 Si02
#       6
#    16   8  16  16  16  16
#     4  12  23  49  74 109 153 192 249 302 380 446
#     4  12  28  44  74 106 144 198 248 304 374 438
#     4  11  27  47  73 105 150 193 252 307 373 444
#     4  11  27  45  73 111 150 202 239 311 376 443
#     4  11  26  45  72 108 145 192 249 311 360 447
#     4  11  24  48  76 103 149 195 253 303 366 448
#
# _framework density 23.154463
#
# number of rings (size 3 to 8) (size 9 to 14) (size 15 to 20)
#    0.000    0.727    5.455    0.545    7.636    1.455 
#    3.273    0.000    0.000    0.000    0.000    0.000 
#    0.000    0.000    0.000    0.000    0.000    0.000 
#
# Total GULP energy -272548.529076 kJ/mol
# GULP energy per Si atom -12388.569503 kJ/mol
# Density = 2.310176 g / cm^3
# Si number density = 23.154463 Si / 1000 Ang^3
#
#
#
# Elastic Constant Matrix: (Units=GPa)
#
#
# Indices 1 2 3 4 5 6 
#
# 1 125.0287 30.7364 35.9271 0.0000 0.0000 0.0000
# 2 30.7364 150.8407 55.2023 0.0000 0.0000 0.0000
# 3 35.9271 55.2023 130.9670 0.0000 0.0000 0.0000
# 4 0.0000 0.0000 0.0000 29.1302 0.0000 0.0000
# 5 0.0000 0.0000 0.0000 0.0000 28.8820 0.0000
# 6 0.0000 0.0000 0.0000 0.0000 0.0000 21.5227
#
#
#
# Elastic Compliance Matrix: (Units=1/GPa)
#
#
# Indices 1 2 3 4 5 6 
#
# 1 0.008829 -0.001079 -0.001967 0.000000 0.000000 0.000000
# 2 -0.001079 0.007971 -0.003064 0.000000 0.000000 0.000000
# 3 -0.001967 -0.003064 0.009466 0.000000 0.000000 0.000000
# 4 0.000000 0.000000 0.000000 0.034329 0.000000 0.000000
# 5 0.000000 0.000000 0.000000 0.000000 0.034624 0.000000
# 6 0.000000 0.000000 0.000000 0.000000 0.000000 0.046463
#
#
# Mechanical properties :
#
#
# Convention : Reuss Voigt Hill
#
# Bulk Modulus (GPa) = 71.19370 72.28534 71.73952
# Shear Modulus (GPa) = 31.52943 34.90502 33.21722
#
# Velocity S-wave (km/s) = 3.69412 3.88685 3.79171
# Velocity P-wave (km/s) = 7.00068 7.17147 7.08659
#
# Compressibility (1/GPa) = 0.01404619
#
# Stress axis : x y z
#
# Youngs Moduli (GPa) = 113.26720 125.46190 105.63684
#
# Poissons Ratio (x) = 0.13539 0.20779
# Poissons Ratio (y) = 0.12223 0.32362
# Poissons Ratio (z) = 0.22280 0.38436
#
# Static dielectric constant tensor:
#      x y z
#    x 4.374000 0.000000 0.000000 
#    y 0.000000 4.042580 0.000000 
#    z 0.000000 0.000000 4.091000 
# 
# 
# High freq. dielectric constant tensor:
#      x y z
#    x 1.921570 0.000000 0.000000 
#    y 0.000000 1.914970 0.000000 
#    z 0.000000 0.000000 1.913490 
# 
# From -- ./inp_files/6130.got.cif
#   From: 2010.06.25/outbox.cif.g09.slc.cpg/sg43_4_cif.got.tgz:6130.got - 2010.06.26 16:48:59.
