data_PCOD8187272
_publ_section_title
;
Structure prediction by ZEFSAII (Michael W. Deem and Ramdas Pophale) SiO2 
 PCOD8187272
Probable space group: F D D 2
;
_chemical_formula_sum "Si O2"
_cell_formula_units_Z 112
_cell_length_a 29.455847
_cell_length_b 14.563352
_cell_length_c 11.432830
_cell_angle_alpha 90.000000
_cell_angle_beta 90.000000
_cell_angle_gamma 90.000000
_cell_volume 4904.408177
_symmetry_space_group_name_H-M "F D D 2"
_symmetry_group_IT_number 43
_symmetry_cell_setting 'orthorhombic'
loop_
_space_group_symop_operation_xyz
x,y,z
-x,-y,z
1/4-x,1/4+y,1/4+z
1/4+x,1/4-y,1/4+z
x,1/2+y,1/2+z
-x,1/2-y,1/2+z
1/4-x,3/4+y,3/4+z
1/4+x,3/4-y,3/4+z
1/2+x,y,1/2+z
1/2-x,-y,1/2+z
3/4-x,1/4+y,3/4+z
3/4+x,1/4-y,3/4+z
1/2+x,1/2+y,z
1/2-x,1/2-y,z
3/4-x,3/4+y,1/4+z
3/4+x,3/4-y,1/4+z
loop_
_atom_site_type_symbol
_atom_site_label
_atom_site_fract_x
_atom_site_fract_y
_atom_site_fract_z
Si Si1 0.619237 0.409245 0.087150
Si Si2 0.223602 0.630301 0.164942
Si Si3 0.732514 0.656407 0.402333
Si Si4 0.814191 0.191754 0.258615
Si Si5 0.268992 0.569568 0.683051
Si Si6 0.551551 0.026308 0.265168
Si Si7 0.832353 0.412315 0.608404
O O1 0.571083 0.414920 0.148740
O O2 0.650110 0.366509 0.187125
O O3 0.640723 0.506438 0.041235
O O4 0.612006 0.343449 0.976829
O O5 0.186020 0.704863 0.203722
O O6 0.265520 0.642765 0.252241
O O7 0.203909 0.526863 0.173145
O O8 0.245724 0.644659 0.036889
O O9 0.750000 0.750000 0.346873
O O10 0.758171 0.582974 0.320653
O O11 0.825884 0.188313 0.396909
O O12 0.299849 0.647682 0.619936
O O13 0.220076 0.559315 0.621809
O O14 0.500000 0.000000 0.234927
O O15 0.582059 0.938573 0.301028
#
# Coordination Sequence:
#
# PCOD8187272 Si02
#       7
#    16  16  16  16  16  16  16
#     4  11  23  42  67  97 137 172 221 281 343 392
#     4  11  22  39  65  99 127 177 220 269 337 404
#     4  11  23  43  68  98 132 170 232 278 329 406
#     4  11  22  42  65  96 135 175 219 277 339 404
#     4  10  22  38  66  99 127 176 224 274 324 399
#     4  10  21  42  67  93 135 173 226 272 330 408
#     4  10  22  40  65  94 129 178 215 276 339 391
#
# _framework density 22.836597999999999
#
# number of rings (size 3 to 8) (size 9 to 14) (size 15 to 20)
#    0.000    1.429    4.286    3.000    2.000    0.000 
#    0.000    5.714    0.000    0.000    0.000    0.000 
#    0.000    0.000    0.000    0.000    0.000    0.000 
#
# Total GULP energy -346969.087704 kJ/mol
# GULP energy per Si atom -12391.753132 kJ/mol
# Density = 2.278462 g / cm^3
# Si number density = 22.836598 Si / 1000 Ang^3
#
#
#
# Elastic Constant Matrix: (Units=GPa)
#
#
# Indices 1 2 3 4 5 6 
#
# 1 40.1490 35.3183 21.5526 0.0000 0.0000 0.0000
# 2 35.3183 157.7771 32.3638 0.0000 0.0000 0.0000
# 3 21.5526 32.3638 105.2727 0.0000 0.0000 0.0000
# 4 0.0000 0.0000 0.0000 33.3046 0.0000 0.0000
# 5 0.0000 0.0000 0.0000 0.0000 25.0276 0.0000
# 6 0.0000 0.0000 0.0000 0.0000 0.0000 25.7988
#
#
#
# Elastic Compliance Matrix: (Units=1/GPa)
#
#
# Indices 1 2 3 4 5 6 
#
# 1 0.033148 -0.006434 -0.004809 0.000000 0.000000 0.000000
# 2 -0.006434 0.008013 -0.001146 0.000000 0.000000 0.000000
# 3 -0.004809 -0.001146 0.010836 0.000000 0.000000 0.000000
# 4 0.000000 0.000000 0.000000 0.030026 0.000000 0.000000
# 5 0.000000 0.000000 0.000000 0.000000 0.039956 0.000000
# 6 0.000000 0.000000 0.000000 0.000000 0.000000 0.038761
#
#
# Mechanical properties :
#
#
# Convention : Reuss Voigt Hill
#
# Bulk Modulus (GPa) = 36.73742 53.51870 45.12806
# Shear Modulus (GPa) = 25.69482 31.09048 28.39265
#
# Velocity S-wave (km/s) = 3.35798 3.69376 3.52987
# Velocity P-wave (km/s) = 5.58182 6.45587 6.03469
#
# Compressibility (1/GPa) = 0.02722021
#
# Stress axis : x y z
#
# Youngs Moduli (GPa) = 30.16750 124.79082 92.28486
#
# Poissons Ratio (x) = 0.80289 0.44375
# Poissons Ratio (y) = 0.19409 0.10579
# Poissons Ratio (z) = 0.14506 0.14305
#
# Static dielectric constant tensor:
#      x y z
#    x 3.732120 0.000000 0.000000 
#    y 0.000000 4.306810 0.000000 
#    z 0.000000 0.000000 4.062970 
# 
# 
# High freq. dielectric constant tensor:
#      x y z
#    x 1.873260 0.000000 0.000000 
#    y 0.000000 1.911180 0.000000 
#    z 0.000000 0.000000 1.901020 
# 
# From -- ./inp_files/8271.got.cif
#   From: 2010.06.25/outbox.cif.g09.slc.cpg/sg43_5_cif.got.tgz:8271.got - 2010.06.26 16:48:59.
