data_PCOD8187027
_publ_section_title
;
Structure prediction by ZEFSAII (Michael W. Deem and Ramdas Pophale) SiO2 
 PCOD8187027
Probable space group: F D D 2
;
_chemical_formula_sum "Si O2"
_cell_formula_units_Z 112
_cell_length_a 31.688709
_cell_length_b 12.912094
_cell_length_c 12.320039
_cell_angle_alpha 90.000000
_cell_angle_beta 90.000000
_cell_angle_gamma 90.000000
_cell_volume 5040.960658
_symmetry_space_group_name_H-M "F D D 2"
_symmetry_group_IT_number 43
_symmetry_cell_setting 'orthorhombic'
loop_
_space_group_symop_operation_xyz
x,y,z
-x,-y,z
1/4-x,1/4+y,1/4+z
1/4+x,1/4-y,1/4+z
x,1/2+y,1/2+z
-x,1/2-y,1/2+z
1/4-x,3/4+y,3/4+z
1/4+x,3/4-y,3/4+z
1/2+x,y,1/2+z
1/2-x,-y,1/2+z
3/4-x,1/4+y,3/4+z
3/4+x,1/4-y,3/4+z
1/2+x,1/2+y,z
1/2-x,1/2-y,z
3/4-x,3/4+y,1/4+z
3/4+x,3/4-y,1/4+z
loop_
_atom_site_type_symbol
_atom_site_label
_atom_site_fract_x
_atom_site_fract_y
_atom_site_fract_z
Si Si1 0.621789 0.631992 0.193000
Si Si2 0.492115 0.272348 0.529684
Si Si3 0.915076 0.760752 0.980757
Si Si4 0.721103 0.654764 0.958503
Si Si5 0.038761 0.421652 0.446890
Si Si6 0.606290 0.953611 0.052229
Si Si7 0.087805 0.655936 0.920202
O O1 0.596849 0.672678 0.087570
O O2 0.662738 0.709284 0.215181
O O3 0.588729 0.638208 0.291246
O O4 0.637654 0.513278 0.191338
O O5 0.535128 0.251411 0.464788
O O6 0.502122 0.316637 0.648217
O O7 0.469265 0.161937 0.541494
O O8 0.460873 0.345986 0.460810
O O9 0.894339 0.646471 0.975976
O O10 0.898450 0.814220 0.872386
O O11 0.750000 0.750000 0.986504
O O12 0.683036 0.695375 0.884928
O O13 0.707423 0.614570 0.077798
O O14 0.000000 0.500000 0.455192
O O15 0.609016 0.058994 0.983203
#
# Coordination Sequence:
#
# PCOD8187027 Si02
#       7
#    16  16  16  16  16  16  16
#     4  11  24  43  68  96 136 184 220 287 352 412
#     4  10  24  39  65  98 130 168 227 279 344 397
#     4  11  24  40  68  99 128 174 236 280 335 418
#     4  10  19  40  68  92 129 170 221 282 329 405
#     4  10  23  41  66  98 128 174 223 282 333 404
#     4  11  22  40  66  97 132 178 224 280 338 414
#     4  11  24  45  65  95 141 180 226 283 360 412
#
# _framework density 22.217987000000001
#
# number of rings (size 3 to 8) (size 9 to 14) (size 15 to 20)
#    0.000    1.429    2.857    1.714   10.000    0.000 
#    5.143    0.000    0.000    0.857    0.000    0.000 
#    0.000    0.000    0.000    0.000    0.000    0.000 
#
# Total GULP energy -346884.689336 kJ/mol
# GULP energy per Si atom -12388.738905 kJ/mol
# Density = 2.216742 g / cm^3
# Si number density = 22.217987 Si / 1000 Ang^3
#
#
#
# Elastic Constant Matrix: (Units=GPa)
#
#
# Indices 1 2 3 4 5 6 
#
# 1 81.8004 9.6929 37.0080 0.0000 0.0000 0.0000
# 2 9.6929 83.3971 16.3600 0.0000 0.0000 0.0000
# 3 37.0080 16.3600 69.4879 0.0000 0.0000 0.0000
# 4 0.0000 0.0000 0.0000 31.0560 0.0000 0.0000
# 5 0.0000 0.0000 0.0000 0.0000 23.9580 0.0000
# 6 0.0000 0.0000 0.0000 0.0000 0.0000 32.2565
#
#
#
# Elastic Compliance Matrix: (Units=1/GPa)
#
#
# Indices 1 2 3 4 5 6 
#
# 1 0.016109 -0.000198 -0.008532 0.000000 0.000000 0.000000
# 2 -0.000198 0.012574 -0.002855 0.000000 0.000000 0.000000
# 3 -0.008532 -0.002855 0.019607 0.000000 0.000000 0.000000
# 4 0.000000 0.000000 0.000000 0.032200 0.000000 0.000000
# 5 0.000000 0.000000 0.000000 0.000000 0.041740 0.000000
# 6 0.000000 0.000000 0.000000 0.000000 0.000000 0.031002
#
#
# Mechanical properties :
#
#
# Convention : Reuss Voigt Hill
#
# Bulk Modulus (GPa) = 39.81091 40.08967 39.95029
# Shear Modulus (GPa) = 27.05993 28.89572 27.97782
#
# Velocity S-wave (km/s) = 3.49367 3.61023 3.55243
# Velocity P-wave (km/s) = 5.85077 5.95494 5.90309
#
# Compressibility (1/GPa) = 0.02511874
#
# Stress axis : x y z
#
# Youngs Moduli (GPa) = 62.07849 79.52986 51.00130
#
# Poissons Ratio (x) = 0.01578 0.43517
# Poissons Ratio (y) = 0.01232 0.14559
# Poissons Ratio (z) = 0.52968 0.22703
#
# Static dielectric constant tensor:
#      x y z
#    x 4.344650 0.000000 0.000000 
#    y 0.000000 4.081310 0.000000 
#    z 0.000000 0.000000 3.915090 
# 
# 
# High freq. dielectric constant tensor:
#      x y z
#    x 1.884220 0.000000 0.000000 
#    y 0.000000 1.877790 0.000000 
#    z 0.000000 0.000000 1.863500 
# 
# From -- ./inp_files/8268.got.cif
#   From: 2010.06.25/outbox.cif.g09.slc.cpg/sg43_5_cif.got.tgz:8268.got - 2010.06.26 16:48:59.
