data_PCOD8187896
_publ_section_title
;
Structure prediction by ZEFSAII (Michael W. Deem and Ramdas Pophale) SiO2 
 PCOD8187896
Probable space group: I M M 2
;
_chemical_formula_sum "Si O2"
_cell_formula_units_Z 56
_cell_length_a 8.874919
_cell_length_b 29.600394
_cell_length_c 13.820358
_cell_angle_alpha 90.000000
_cell_angle_beta 90.000000
_cell_angle_gamma 90.000000
_cell_volume 3630.623237
_symmetry_space_group_name_H-M "I M M 2"
_symmetry_group_IT_number 44
_symmetry_cell_setting 'orthorhombic'
loop_
_space_group_symop_operation_xyz
x,y,z
-x,-y,z
-x,y,z
x,-y,z
1/2+x,1/2+y,1/2+z
1/2-x,1/2-y,1/2+z
1/2-x,1/2+y,1/2+z
1/2+x,1/2-y,1/2+z
loop_
_atom_site_type_symbol
_atom_site_label
_atom_site_fract_x
_atom_site_fract_y
_atom_site_fract_z
Si Si1 0.179074 0.408355 0.545590
Si Si2 0.821658 0.183959 0.732353
Si Si3 0.667977 0.500000 0.554455
Si Si4 0.821879 0.681235 0.649268
Si Si5 0.681435 0.596120 0.338221
Si Si6 0.678319 0.269067 0.041784
Si Si7 0.165126 0.000000 0.824286
Si Si8 0.321793 0.228016 0.339793
O O1 0.243479 0.455168 0.588551
O O2 0.231329 0.368520 0.618185
O O3 0.247474 0.395220 0.442396
O O4 0.000000 0.412123 0.536726
O O5 0.760713 0.135170 0.766286
O O6 0.768689 0.194755 0.623249
O O7 0.764239 0.222506 0.806184
O O8 0.000000 0.184139 0.735784
O O9 0.500000 0.500000 0.599785
O O10 0.656541 0.500000 0.439764
O O11 0.761597 0.719524 0.574565
O O12 0.767226 0.691867 0.758667
O O13 0.000000 0.685124 0.647125
O O14 0.500000 0.594573 0.349264
O O15 0.742961 0.547713 0.294986
O O16 0.500000 0.269080 0.030512
O O17 0.749198 0.284825 0.941453
O O18 0.000000 0.000000 0.777291
O O19 0.500000 0.227091 0.351708
#
# Coordination Sequence:
#
# PCOD8187896 Si02
#       8
#     8   8   4   8   8   8   4   8
#     4  10  17  26  41  61  82 107 135 165 199 241
#     4   8  15  26  41  57  78 109 140 163 198 249
#     4   9  17  29  41  57  82 109 132 162 199 238
#     4   8  16  28  41  57  82 110 134 162 206 250
#     4   9  15  25  39  57  81 109 135 163 199 243
#     4   9  16  28  42  58  80 107 137 173 207 237
#     4   7  12  21  35  53  74  97 124 154 187 224
#     4   9  16  28  42  57  78 107 137 167 201 242
#
# _framework density 15.424348999999999
#
# number of rings (size 3 to 8) (size 9 to 14) (size 15 to 20)
#    0.000    3.286    0.000    4.071    0.000    0.000 
#    0.000    5.714    0.000    0.000    0.000    1.000 
#    0.000    1.143    0.000    0.000    0.000    0.000 
#
# Total GULP energy -346897.866554 kJ/mol
# GULP energy per Si atom -12389.209520 kJ/mol
# Density = 1.538924 g / cm^3
# Si number density = 15.424349 Si / 1000 Ang^3
#
#
#
# Elastic Constant Matrix: (Units=GPa)
#
#
# Indices 1 2 3 4 5 6 
#
# 1 34.4493 29.5322 23.4699 0.0000 0.0000 0.0000
# 2 29.5322 156.9962 69.3289 0.0001 0.0000 0.0000
# 3 23.4699 69.3289 105.3753 0.0002 -0.0001 0.0000
# 4 0.0000 0.0001 0.0002 23.5997 0.0000 0.0000
# 5 0.0000 0.0000 -0.0001 0.0000 21.3385 0.0000
# 6 0.0000 0.0000 0.0000 0.0000 0.0000 15.5884
#
#
#
# Elastic Compliance Matrix: (Units=1/GPa)
#
#
# Indices 1 2 3 4 5 6 
#
# 1 0.036444 -0.004610 -0.005084 0.000000 0.000000 0.000000
# 2 -0.004610 0.009561 -0.005264 0.000000 0.000000 0.000000
# 3 -0.005084 -0.005264 0.014085 0.000000 0.000000 0.000000
# 4 0.000000 0.000000 0.000000 0.042373 0.000000 0.000000
# 5 0.000000 0.000000 0.000000 0.000000 0.046864 0.000000
# 6 0.000000 0.000000 0.000000 0.000000 0.000000 0.064150
#
#
# Mechanical properties :
#
#
# Convention : Reuss Voigt Hill
#
# Bulk Modulus (GPa) = 33.14021 60.16475 46.65248
# Shear Modulus (GPa) = 19.72758 23.73796 21.73277
#
# Velocity S-wave (km/s) = 3.58018 3.92726 3.75773
# Velocity P-wave (km/s) = 6.21470 7.72370 7.00992
#
# Compressibility (1/GPa) = 0.03017483
#
# Stress axis : x y z
#
# Youngs Moduli (GPa) = 27.43930 104.58842 70.99593
#
# Poissons Ratio (x) = 0.48220 0.36093
# Poissons Ratio (y) = 0.12651 0.37370
# Poissons Ratio (z) = 0.13949 0.55053
#
# Static dielectric constant tensor:
#      x y z
#    x 2.683350 0.000000 0.000000 
#    y 0.000000 3.432420 0.000000 
#    z 0.000000 0.000000 2.874050 
# 
# 
# High freq. dielectric constant tensor:
#      x y z
#    x 1.565960 0.000000 0.000000 
#    y 0.000000 1.596510 0.000000 
#    z 0.000000 0.000000 1.561460 
# 
# From -- ./inp_files/17053.got.cif
#   From: 2010.03.12/outbox.cif.g09.slc.cpg/sg44_9_cif.got.tgz:17053.got - 2010.04.14 02:36:11.
