data_PCOD8187254
_publ_section_title
;
Structure prediction by ZEFSAII (Michael W. Deem and Ramdas Pophale) SiO2 
 PCOD8187254
Probable space group: F D D 2
;
_chemical_formula_sum "Si O2"
_cell_formula_units_Z 96
_cell_length_a 9.778467
_cell_length_b 14.742968
_cell_length_c 34.269899
_cell_angle_alpha 90.000000
_cell_angle_beta 90.000000
_cell_angle_gamma 90.000000
_cell_volume 4940.472905
_symmetry_space_group_name_H-M "F D D 2"
_symmetry_group_IT_number 43
_symmetry_cell_setting 'orthorhombic'
loop_
_space_group_symop_operation_xyz
x,y,z
-x,-y,z
1/4-x,1/4+y,1/4+z
1/4+x,1/4-y,1/4+z
x,1/2+y,1/2+z
-x,1/2-y,1/2+z
1/4-x,3/4+y,3/4+z
1/4+x,3/4-y,3/4+z
1/2+x,y,1/2+z
1/2-x,-y,1/2+z
3/4-x,1/4+y,3/4+z
3/4+x,1/4-y,3/4+z
1/2+x,1/2+y,z
1/2-x,1/2-y,z
3/4-x,3/4+y,1/4+z
3/4+x,3/4-y,1/4+z
loop_
_atom_site_type_symbol
_atom_site_label
_atom_site_fract_x
_atom_site_fract_y
_atom_site_fract_z
Si Si1 0.250000 0.750000 0.598861
Si Si2 0.153115 0.663555 0.946064
Si Si3 0.903971 0.860464 0.787087
Si Si4 0.586391 0.085283 0.199999
Si Si5 0.973811 0.248441 0.143241
Si Si6 0.413035 0.153673 0.780692
Si Si7 0.000000 0.000000 0.330698
O O1 0.266574 0.662874 0.571103
O O2 0.373048 0.760862 0.628763
O O3 0.250000 0.750000 0.942168
O O4 0.178180 0.597741 0.910020
O O5 0.994730 0.692213 0.945595
O O6 0.188361 0.607505 0.984823
O O7 0.952505 0.894826 0.744809
O O8 0.741819 0.873779 0.791418
O O9 0.945461 0.756056 0.792495
O O10 0.546859 0.172505 0.174686
O O11 0.500000 0.000000 0.184601
O O12 0.882907 0.268943 0.105858
O O13 0.518160 0.088382 0.803357
#
# Coordination Sequence:
#
# PCOD8187254 Si02
#       7
#     8  16  16  16  16  16   8
#     4  12  26  42  66 102 138 164 218 286 328 372
#     4  11  23  42  68  99 130 172 221 267 325 391
#     4  10  21  42  68  96 127 174 222 263 318 397
#     4  11  23  42  71  95 128 177 222 263 323 400
#     4  12  26  44  64  98 139 168 212 278 335 379
#     4  10  21  40  71  94 127 176 221 258 326 399
#     4  12  22  42  66  98 128 166 216 270 326 384
#
# _framework density 19.431339000000001
#
# number of rings (size 3 to 8) (size 9 to 14) (size 15 to 20)
#    0.000    1.000    6.667    0.000    2.333    2.667 
#    0.000    0.000    0.000    0.000    0.000    0.000 
#    0.000    0.000    0.000    0.000    0.000    0.000 
#
# Total GULP energy -297683.410606 kJ/mol
# GULP energy per Si atom -12403.475442 kJ/mol
# Density = 1.938711 g / cm^3
# Si number density = 19.431339 Si / 1000 Ang^3
#
#
#
# Elastic Constant Matrix: (Units=GPa)
#
#
# Indices 1 2 3 4 5 6 
#
# 1 88.2849 34.7047 34.2179 0.0000 0.0000 0.0000
# 2 34.7047 130.5729 33.3465 0.0000 0.0000 0.0000
# 3 34.2179 33.3465 82.3895 0.0000 0.0000 0.0000
# 4 0.0000 0.0000 0.0000 27.6314 0.0000 0.0000
# 5 0.0000 0.0000 0.0000 0.0000 64.4426 0.0000
# 6 0.0000 0.0000 0.0000 0.0000 0.0000 34.0045
#
#
#
# Elastic Compliance Matrix: (Units=1/GPa)
#
#
# Indices 1 2 3 4 5 6 
#
# 1 0.014213 -0.002532 -0.004878 0.000000 0.000000 0.000000
# 2 -0.002532 0.008992 -0.002588 0.000000 0.000000 0.000000
# 3 -0.004878 -0.002588 0.015211 0.000000 0.000000 0.000000
# 4 0.000000 0.000000 0.000000 0.036191 0.000000 0.000000
# 5 0.000000 0.000000 0.000000 0.000000 0.015518 0.000000
# 6 0.000000 0.000000 0.000000 0.000000 0.000000 0.029408
#
#
# Mechanical properties :
#
#
# Convention : Reuss Voigt Hill
#
# Bulk Modulus (GPa) = 54.28829 56.19839 55.24334
# Shear Modulus (GPa) = 34.32444 38.48091 36.40267
#
# Velocity S-wave (km/s) = 4.20747 4.45494 4.33297
# Velocity P-wave (km/s) = 7.18352 7.44623 7.31605
#
# Compressibility (1/GPa) = 0.01842018
#
# Stress axis : x y z
#
# Youngs Moduli (GPa) = 70.35852 111.20445 65.74200
#
# Poissons Ratio (x) = 0.28155 0.32070
# Poissons Ratio (y) = 0.17813 0.17015
# Poissons Ratio (z) = 0.34322 0.28781
#
# Static dielectric constant tensor:
#      x y z
#    x 3.437560 0.000000 0.000000 
#    y 0.000000 3.420440 0.000000 
#    z 0.000000 0.000000 3.641400 
# 
# 
# High freq. dielectric constant tensor:
#      x y z
#    x 1.745760 0.000000 0.000000 
#    y 0.000000 1.765110 0.000000 
#    z 0.000000 0.000000 1.770290 
# 
# From -- ./inp_files/28569.got.cif
#   From: 2010.06.25/outbox.cif.g09.slc.cpg/sg43_15_cif.got.tgz:28569.got - 2010.06.26 16:48:59.
