data_PCOD8187515
_publ_section_title
;
Structure prediction by ZEFSAII (Michael W. Deem and Ramdas Pophale) SiO2 
 PCOD8187515
Probable space group: F D D 2
;
_chemical_formula_sum "Si O2"
_cell_formula_units_Z 104
_cell_length_a 12.570264
_cell_length_b 22.680262
_cell_length_c 17.315336
_cell_angle_alpha 90.000000
_cell_angle_beta 90.000000
_cell_angle_gamma 90.000000
_cell_volume 4936.548286
_symmetry_space_group_name_H-M "F D D 2"
_symmetry_group_IT_number 43
_symmetry_cell_setting 'orthorhombic'
loop_
_space_group_symop_operation_xyz
x,y,z
-x,-y,z
1/4-x,1/4+y,1/4+z
1/4+x,1/4-y,1/4+z
x,1/2+y,1/2+z
-x,1/2-y,1/2+z
1/4-x,3/4+y,3/4+z
1/4+x,3/4-y,3/4+z
1/2+x,y,1/2+z
1/2-x,-y,1/2+z
3/4-x,1/4+y,3/4+z
3/4+x,1/4-y,3/4+z
1/2+x,1/2+y,z
1/2-x,1/2-y,z
3/4-x,3/4+y,1/4+z
3/4+x,3/4-y,1/4+z
loop_
_atom_site_type_symbol
_atom_site_label
_atom_site_fract_x
_atom_site_fract_y
_atom_site_fract_z
Si Si1 0.862259 0.683131 0.898750
Si Si2 0.500000 0.000000 0.283298
Si Si3 0.203782 0.826359 0.892061
Si Si4 0.750000 0.250000 0.276152
Si Si5 0.250000 0.750000 0.023962
Si Si6 0.415220 0.790578 0.650282
Si Si7 0.148862 0.953888 0.399394
Si Si8 0.086470 0.727458 0.828766
O O1 0.775961 0.694948 0.831601
O O2 0.850941 0.614807 0.917949
O O3 0.975216 0.706290 0.865694
O O4 0.832897 0.715077 0.979017
O O5 0.435016 0.041030 0.342771
O O6 0.216182 0.895922 0.885127
O O7 0.109492 0.798408 0.838117
O O8 0.322329 0.804234 0.876405
O O9 0.182126 0.799542 0.977468
O O10 0.646996 0.236580 0.224785
O O11 0.171670 0.711375 0.074754
O O12 0.488414 0.734101 0.631283
O O13 0.389978 0.788942 0.740636
#
# Coordination Sequence:
#
# PCOD8187515 Si02
#       8
#    16   8  16   8   8  16  16  16
#     4  11  25  46  69  99 145 176 228 289 347 417
#     4  11  30  44  66 107 136 188 228 275 360 410
#     4  10  25  42  74  99 136 175 230 287 339 416
#     4  10  24  44  64 104 126 182 230 274 354 398
#     4   9  22  42  64 111 118 170 232 279 340 386
#     4  12  26  45  69 100 138 185 228 280 345 420
#     4  11  25  40  72  97 137 175 230 284 340 407
#     4  10  23  46  71 101 136 182 224 288 349 404
#
# _framework density 21.067352
#
# number of rings (size 3 to 8) (size 9 to 14) (size 15 to 20)
#    0.000    1.538    1.538    1.846   15.077    0.000 
#    2.769    0.000    0.000    0.000    0.000    0.000 
#    0.000    0.000    0.000    0.000    0.000    0.000 
#
# Total GULP energy -322155.961513 kJ/mol
# GULP energy per Si atom -12390.613904 kJ/mol
# Density = 2.101940 g / cm^3
# Si number density = 21.067352 Si / 1000 Ang^3
#
#
#
# Elastic Constant Matrix: (Units=GPa)
#
#
# Indices 1 2 3 4 5 6 
#
# 1 79.4946 37.6273 33.6943 0.0000 0.0000 0.0000
# 2 37.6273 122.2289 40.6990 0.0000 0.0000 0.0000
# 3 33.6943 40.6990 119.8788 0.0000 0.0000 0.0000
# 4 0.0000 0.0000 0.0000 0.3488 0.0000 0.0000
# 5 0.0000 0.0000 0.0000 0.0000 29.8741 0.0000
# 6 0.0000 0.0000 0.0000 0.0000 0.0000 29.2418
#
#
#
# Elastic Compliance Matrix: (Units=1/GPa)
#
#
# Indices 1 2 3 4 5 6 
#
# 1 0.015699 -0.003792 -0.003125 0.000000 0.000000 0.000000
# 2 -0.003792 0.010140 -0.002377 0.000000 0.000000 0.000000
# 3 -0.003125 -0.002377 0.010027 0.000000 0.000000 0.000000
# 4 0.000000 0.000000 0.000000 2.867316 0.000000 0.000000
# 5 0.000000 0.000000 0.000000 0.000000 0.033474 0.000000
# 6 0.000000 0.000000 0.000000 0.000000 0.000000 0.034198
#
#
# Mechanical properties :
#
#
# Convention : Reuss Voigt Hill
#
# Bulk Modulus (GPa) = 57.87647 60.62704 59.25175
# Shear Modulus (GPa) = 1.66934 25.86505 13.76720
#
# Velocity S-wave (km/s) = 0.89112 3.50770 2.55911
# Velocity P-wave (km/s) = 5.34701 6.72648 6.07602
#
# Compressibility (1/GPa) = 0.01727818
#
# Stress axis : x y z
#
# Youngs Moduli (GPa) = 63.69811 98.61765 99.73069
#
# Poissons Ratio (x) = 0.37399 0.31166
# Poissons Ratio (y) = 0.24156 0.23703
# Poissons Ratio (z) = 0.19906 0.23438
#
# Static dielectric constant tensor:
#      x y z
#    x 3.542560 0.000000 0.000000 
#    y 0.000000 4.027240 0.000000 
#    z 0.000000 0.000000 4.081110 
# 
# 
# High freq. dielectric constant tensor:
#      x y z
#    x 1.819450 0.000000 0.000000 
#    y 0.000000 1.823530 0.000000 
#    z 0.000000 0.000000 1.846900 
# 
# From -- ./inp_files/13953.got.cif
#   From: 2010.06.25/outbox.cif.g09.slc.cpg/sg43_7_cif.got.tgz:13953.got - 2010.06.26 16:48:59.
