data_PCOD8187877
_publ_section_title
;
Structure prediction by ZEFSAII (Michael W. Deem and Ramdas Pophale) SiO2 
 PCOD8187877
Probable space group: I M M 2
;
_chemical_formula_sum "Si O2"
_cell_formula_units_Z 46
_cell_length_a 7.914333
_cell_length_b 16.646525
_cell_length_c 20.833530
_cell_angle_alpha 90.000000
_cell_angle_beta 90.000000
_cell_angle_gamma 90.000000
_cell_volume 2744.737205
_symmetry_space_group_name_H-M "I M M 2"
_symmetry_group_IT_number 44
_symmetry_cell_setting 'orthorhombic'
loop_
_space_group_symop_operation_xyz
x,y,z
-x,-y,z
-x,y,z
x,-y,z
1/2+x,1/2+y,1/2+z
1/2-x,1/2-y,1/2+z
1/2-x,1/2+y,1/2+z
1/2+x,1/2-y,1/2+z
loop_
_atom_site_type_symbol
_atom_site_label
_atom_site_fract_x
_atom_site_fract_y
_atom_site_fract_z
Si Si1 0.193906 0.641572 0.512720
Si Si2 0.000000 0.094230 0.456598
Si Si3 0.199103 0.588944 0.373542
Si Si4 0.687092 0.248888 0.333558
Si Si5 0.314166 0.500000 0.592862
Si Si6 0.313042 0.804381 0.479603
Si Si7 0.500000 0.500000 0.715990
Si Si8 0.000000 0.851416 0.309639
O O1 0.256482 0.598595 0.447553
O O2 0.218070 0.580697 0.571737
O O3 0.291171 0.725771 0.524796
O O4 0.000000 0.665641 0.506241
O O5 0.832199 0.129463 0.491278
O O6 0.000000 0.113088 0.381118
O O7 0.000000 0.000000 0.468200
O O8 0.253057 0.500000 0.350278
O O9 0.287839 0.654871 0.328039
O O10 0.000000 0.601496 0.367899
O O11 0.500000 0.226177 0.307182
O O12 0.706102 0.226409 0.407508
O O13 0.832348 0.201361 0.295313
O O14 0.500000 0.500000 0.560403
O O15 0.332719 0.500000 0.670498
O O16 0.500000 0.841683 0.491910
O O17 0.500000 0.422254 0.759404
#
# Coordination Sequence:
#
# PCOD8187877 Si02
#       8
#     8   4   8   8   4   8   2   4
#     4  10  16  29  46  66 100 140 165 197 245 297
#     4  10  18  30  50  72  96 131 169 198 257 304
#     4   9  15  24  41  70 106 138 161 184 238 314
#     4   9  17  28  46  69  91 128 169 202 249 306
#     4  10  21  31  44  70  95 129 180 209 237 289
#     4   9  17  28  44  70  99 127 165 199 241 312
#     4  10  24  38  52  66  92 140 190 224 254 272
#     4  10  18  38  51  60  91 134 170 232 250 272
#
# _framework density 16.759346000000001
#
# number of rings (size 3 to 8) (size 9 to 14) (size 15 to 20)
#    0.261    2.261    3.043    0.783    0.000    1.391 
#    0.000    2.174    0.000    0.000    0.000    0.000 
#    0.000    2.783    0.348    0.000    0.000    0.000 
#
# Total GULP energy -285041.124843 kJ/mol
# GULP energy per Si atom -12393.092384 kJ/mol
# Density = 1.672120 g / cm^3
# Si number density = 16.759346 Si / 1000 Ang^3
#
#
#
# Elastic Constant Matrix: (Units=GPa)
#
#
# Indices 1 2 3 4 5 6 
#
# 1 117.4213 67.9230 18.4773 0.0000 0.0000 0.0000
# 2 67.9230 136.8378 29.6717 0.0000 0.0000 0.0000
# 3 18.4773 29.6717 38.3448 0.0000 0.0000 0.0000
# 4 0.0000 0.0000 0.0000 11.5248 0.0000 0.0000
# 5 0.0000 0.0000 0.0000 0.0000 13.6730 0.0000
# 6 0.0000 0.0000 0.0000 0.0000 0.0000 19.4729
#
#
#
# Elastic Compliance Matrix: (Units=1/GPa)
#
#
# Indices 1 2 3 4 5 6 
#
# 1 0.012010 -0.005655 -0.001411 0.000000 0.000000 0.000000
# 2 -0.005655 0.011445 -0.006131 0.000000 0.000000 0.000000
# 3 -0.001411 -0.006131 0.031503 0.000000 0.000000 0.000000
# 4 0.000000 0.000000 0.000000 0.086770 0.000000 0.000000
# 5 0.000000 0.000000 0.000000 0.000000 0.073137 0.000000
# 6 0.000000 0.000000 0.000000 0.000000 0.000000 0.051353
#
#
# Mechanical properties :
#
#
# Convention : Reuss Voigt Hill
#
# Bulk Modulus (GPa) = 35.01006 58.30531 46.65768
# Shear Modulus (GPa) = 16.54902 20.70293 18.62597
#
# Velocity S-wave (km/s) = 3.14578 3.51851 3.33735
# Velocity P-wave (km/s) = 5.84207 7.16741 6.53841
#
# Compressibility (1/GPa) = 0.02856322
#
# Stress axis : x y z
#
# Youngs Moduli (GPa) = 83.26553 87.37813 31.74292
#
# Poissons Ratio (x) = 0.49416 0.04479
# Poissons Ratio (y) = 0.47090 0.19461
# Poissons Ratio (z) = 0.11748 0.53569
#
# Static dielectric constant tensor:
#      x y z
#    x 3.295700 0.000000 0.000000 
#    y 0.000000 3.170470 0.000000 
#    z 0.000000 0.000000 2.488800 
# 
# 
# High freq. dielectric constant tensor:
#      x y z
#    x 1.658430 0.000000 0.000000 
#    y 0.000000 1.649920 0.000000 
#    z 0.000000 0.000000 1.560670 
# 
# From -- ./inp_files/22935.got.cif
#   From: 2010.03.12/outbox.cif.g09.slc.cpg/sg44_12_cif.got.tgz:22935.got - 2010.04.14 02:36:11.
