data_PCOD8187236
_publ_section_title
;
Structure prediction by ZEFSAII (Michael W. Deem and Ramdas Pophale) SiO2 
 PCOD8187236
Probable space group: F D D 2
;
_chemical_formula_sum "Si O2"
_cell_formula_units_Z 96
_cell_length_a 26.930141
_cell_length_b 17.535774
_cell_length_c 9.912298
_cell_angle_alpha 90.000000
_cell_angle_beta 90.000000
_cell_angle_gamma 90.000000
_cell_volume 4680.992195
_symmetry_space_group_name_H-M "F D D 2"
_symmetry_group_IT_number 43
_symmetry_cell_setting 'orthorhombic'
loop_
_space_group_symop_operation_xyz
x,y,z
-x,-y,z
1/4-x,1/4+y,1/4+z
1/4+x,1/4-y,1/4+z
x,1/2+y,1/2+z
-x,1/2-y,1/2+z
1/4-x,3/4+y,3/4+z
1/4+x,3/4-y,3/4+z
1/2+x,y,1/2+z
1/2-x,-y,1/2+z
3/4-x,1/4+y,3/4+z
3/4+x,1/4-y,3/4+z
1/2+x,1/2+y,z
1/2-x,1/2-y,z
3/4-x,3/4+y,1/4+z
3/4+x,3/4-y,1/4+z
loop_
_atom_site_type_symbol
_atom_site_label
_atom_site_fract_x
_atom_site_fract_y
_atom_site_fract_z
Si Si1 0.464625 0.817184 0.149090
Si Si2 0.564493 0.357128 0.754270
Si Si3 0.505650 0.655527 0.144452
Si Si4 0.076057 0.123581 0.925051
Si Si5 0.577422 0.189479 0.861727
Si Si6 0.564898 0.951497 0.509738
O O1 0.520881 0.851085 0.142281
O O2 0.468033 0.725941 0.169030
O O3 0.436915 0.859821 0.270945
O O4 0.432258 0.833831 0.016309
O O5 0.614937 0.385242 0.684408
O O6 0.568439 0.278392 0.835660
O O7 0.549218 0.417901 0.865821
O O8 0.538930 0.639232 0.275539
O O9 0.543633 0.679203 0.021447
O O10 0.475374 0.578011 0.117333
O O11 0.062531 0.041212 0.986848
O O12 0.632630 0.169466 0.813026
#
# Coordination Sequence:
#
# PCOD8187236 Si02
#       6
#    16  16  16  16  16  16
#     4  11  22  40  62  97 127 161 217 275 315 381
#     4  10  21  40  64  92 126 171 216 262 325 394
#     4  11  20  39  66  88 124 172 210 255 324 397
#     4  11  23  39  67  94 125 172 219 259 326 394
#     4  10  22  38  63  94 125 161 218 271 319 381
#     4  11  21  40  66  87 125 172 218 259 319 396
#
# _framework density 20.508472000000001
#
# number of rings (size 3 to 8) (size 9 to 14) (size 15 to 20)
#    0.000    1.333    5.000    1.500    0.000    1.333 
#    3.000    0.000    7.333    0.000    0.000    0.000 
#    0.000    0.000    0.000    0.000    0.000    0.000 
#
# Total GULP energy -297509.599422 kJ/mol
# GULP energy per Si atom -12396.233309 kJ/mol
# Density = 2.046179 g / cm^3
# Si number density = 20.508472 Si / 1000 Ang^3
#
#
#
# Elastic Constant Matrix: (Units=GPa)
#
#
# Indices 1 2 3 4 5 6 
#
# 1 94.2484 34.3756 47.3483 0.0000 0.0000 0.0000
# 2 34.3756 50.1165 28.4700 0.0000 0.0000 0.0000
# 3 47.3483 28.4700 133.7827 0.0000 0.0000 0.0000
# 4 0.0000 0.0000 0.0000 32.2956 0.0000 0.0000
# 5 0.0000 0.0000 0.0000 0.0000 38.3759 0.0000
# 6 0.0000 0.0000 0.0000 0.0000 0.0000 25.6541
#
#
#
# Elastic Compliance Matrix: (Units=1/GPa)
#
#
# Indices 1 2 3 4 5 6 
#
# 1 0.015603 -0.008606 -0.003691 0.000000 0.000000 0.000000
# 2 -0.008606 0.027444 -0.002795 0.000000 0.000000 0.000000
# 3 -0.003691 -0.002795 0.009376 0.000000 0.000000 0.000000
# 4 0.000000 0.000000 0.000000 0.030964 0.000000 0.000000
# 5 0.000000 0.000000 0.000000 0.000000 0.026058 0.000000
# 6 0.000000 0.000000 0.000000 0.000000 0.000000 0.038980
#
#
# Mechanical properties :
#
#
# Convention : Reuss Voigt Hill
#
# Bulk Modulus (GPa) = 44.96306 55.39281 50.17793
# Shear Modulus (GPa) = 26.87867 30.46203 28.67035
#
# Velocity S-wave (km/s) = 3.62417 3.85819 3.74301
# Velocity P-wave (km/s) = 6.28367 6.84952 6.57268
#
# Compressibility (1/GPa) = 0.02224048
#
# Stress axis : x y z
#
# Youngs Moduli (GPa) = 64.08888 36.43803 106.65758
#
# Poissons Ratio (x) = 0.31358 0.39367
# Poissons Ratio (y) = 0.55154 0.29806
# Poissons Ratio (z) = 0.23655 0.10183
#
# Static dielectric constant tensor:
#      x y z
#    x 4.097030 0.000000 0.000000 
#    y 0.000000 3.587380 0.000000 
#    z 0.000000 0.000000 3.603480 
# 
# 
# High freq. dielectric constant tensor:
#      x y z
#    x 1.822090 0.000000 0.000000 
#    y 0.000000 1.781430 0.000000 
#    z 0.000000 0.000000 1.787710 
# 
# From -- ./inp_files/3298.got.cif
#   From: 2010.06.25/outbox.cif.g09.slc.cpg/sg43_2_cif.got.tgz:3298.got - 2010.06.26 16:48:59.
