data_PCOD8187136
_publ_section_title
;
Structure prediction by ZEFSAII (Michael W. Deem and Ramdas Pophale) SiO2 
 PCOD8187136
Probable space group: F D D 2
;
_chemical_formula_sum "Si O2"
_cell_formula_units_Z 88
_cell_length_a 22.205383
_cell_length_b 19.520147
_cell_length_c 8.710221
_cell_angle_alpha 90.000000
_cell_angle_beta 90.000000
_cell_angle_gamma 90.000000
_cell_volume 3775.465677
_symmetry_space_group_name_H-M "F D D 2"
_symmetry_group_IT_number 43
_symmetry_cell_setting 'orthorhombic'
loop_
_space_group_symop_operation_xyz
x,y,z
-x,-y,z
1/4-x,1/4+y,1/4+z
1/4+x,1/4-y,1/4+z
x,1/2+y,1/2+z
-x,1/2-y,1/2+z
1/4-x,3/4+y,3/4+z
1/4+x,3/4-y,3/4+z
1/2+x,y,1/2+z
1/2-x,-y,1/2+z
3/4-x,1/4+y,3/4+z
3/4+x,1/4-y,3/4+z
1/2+x,1/2+y,z
1/2-x,1/2-y,z
3/4-x,3/4+y,1/4+z
3/4+x,3/4-y,1/4+z
loop_
_atom_site_type_symbol
_atom_site_label
_atom_site_fract_x
_atom_site_fract_y
_atom_site_fract_z
Si Si1 0.322704 0.315317 0.540970
Si Si2 0.014581 0.404652 0.488676
Si Si3 0.000000 0.000000 0.550757
Si Si4 0.308343 0.459860 0.641930
Si Si5 0.828099 0.228922 0.567309
Si Si6 0.197765 0.999899 0.308714
O O1 0.275215 0.309813 0.403130
O O2 0.290202 0.299001 0.698552
O O3 0.340554 0.394229 0.565563
O O4 0.380598 0.268494 0.502348
O O5 0.057320 0.444830 0.368189
O O6 0.030940 0.324715 0.497592
O O7 0.944553 0.420740 0.440419
O O8 0.046207 0.042241 0.657105
O O9 0.350933 0.484786 0.782687
O O10 0.243777 0.447865 0.723874
O O11 0.299856 0.510070 0.493980
#
# Coordination Sequence:
#
# PCOD8187136 Si02
#       6
#    16  16   8  16  16  16
#     4  11  24  44  70 102 144 188 239 303 357 436
#     4   9  23  45  69 104 139 184 242 289 369 426
#     4  10  20  40  70  94 136 188 234 288 358 416
#     4  11  27  45  70 104 145 188 241 298 363 427
#     4  10  22  46  70 105 137 189 234 298 363 435
#     4  11  26  47  70 108 141 194 239 304 356 441
#
# _framework density 23.308385000000001
#
# number of rings (size 3 to 8) (size 9 to 14) (size 15 to 20)
#    0.000    1.818    1.818    1.091    7.636    1.455 
#    9.818    0.000    0.000    0.000    0.000    0.000 
#    0.000    0.000    0.000    0.000    0.000    0.000 
#
# Total GULP energy -272539.196106 kJ/mol
# GULP energy per Si atom -12388.145278 kJ/mol
# Density = 2.325533 g / cm^3
# Si number density = 23.308385 Si / 1000 Ang^3
#
#
#
# Elastic Constant Matrix: (Units=GPa)
#
#
# Indices 1 2 3 4 5 6 
#
# 1 105.7974 26.4280 60.4321 -0.0001 -0.0002 -0.0001
# 2 26.4280 68.4232 22.9410 -0.0009 0.0016 0.0006
# 3 60.4321 22.9410 133.8067 -0.0015 0.0024 0.0010
# 4 -0.0001 -0.0009 -0.0015 31.4431 0.0016 0.0006
# 5 -0.0002 0.0016 0.0024 0.0016 42.0759 -0.0006
# 6 -0.0001 0.0006 0.0010 0.0006 -0.0006 29.3191
#
#
#
# Elastic Compliance Matrix: (Units=1/GPa)
#
#
# Indices 1 2 3 4 5 6 
#
# 1 0.013423 -0.003344 -0.005489 0.000000 0.000000 0.000000
# 2 -0.003344 0.016339 -0.001291 0.000000 -0.000001 0.000000
# 3 -0.005489 -0.001291 0.010174 0.000000 -0.000001 0.000000
# 4 0.000000 0.000000 0.000000 0.031803 -0.000001 -0.000001
# 5 0.000000 -0.000001 -0.000001 -0.000001 0.023767 0.000001
# 6 0.000000 0.000000 0.000000 -0.000001 0.000001 0.034107
#
#
# Mechanical properties :
#
#
# Convention : Reuss Voigt Hill
#
# Bulk Modulus (GPa) = 50.79268 58.62550 54.70909
# Shear Modulus (GPa) = 31.96444 33.78272 32.87358
#
# Velocity S-wave (km/s) = 3.70722 3.81120 3.75957
# Velocity P-wave (km/s) = 6.33747 6.67636 6.50912
#
# Compressibility (1/GPa) = 0.01968788
#
# Stress axis : x y z
#
# Youngs Moduli (GPa) = 74.50104 61.20170 98.29193
#
# Poissons Ratio (x) = 0.20466 0.53951
# Poissons Ratio (y) = 0.24914 0.12690
# Poissons Ratio (z) = 0.40892 0.07901
#
# Static dielectric constant tensor:
#      x y z
#    x 4.137260 0.000000 0.000000 
#    y 0.000000 3.970360 0.000000 
#    z 0.000000 0.000000 4.529010 
# 
# 
# High freq. dielectric constant tensor:
#      x y z
#    x 1.914560 0.000000 0.000000 
#    y 0.000000 1.902250 0.000000 
#    z 0.000000 0.000000 1.938140 
# 
# From -- ./inp_files/3684.got.cif
#   From: 2010.06.25/outbox.cif.g09.slc.cpg/sg43_2_cif.got.tgz:3684.got - 2010.06.26 16:48:59.
