data_PCOD8187848
_publ_section_title
;
Structure prediction by ZEFSAII (Michael W. Deem and Ramdas Pophale) SiO2 
 PCOD8187848
Probable space group: F D D 2
;
_chemical_formula_sum "Si O2"
_cell_formula_units_Z 88
_cell_length_a 22.937620
_cell_length_b 17.592572
_cell_length_c 9.275659
_cell_angle_alpha 90.000000
_cell_angle_beta 90.000000
_cell_angle_gamma 90.000000
_cell_volume 3743.022736
_symmetry_space_group_name_H-M "F D D 2"
_symmetry_group_IT_number 43
_symmetry_cell_setting 'orthorhombic'
loop_
_space_group_symop_operation_xyz
x,y,z
-x,-y,z
1/4-x,1/4+y,1/4+z
1/4+x,1/4-y,1/4+z
x,1/2+y,1/2+z
-x,1/2-y,1/2+z
1/4-x,3/4+y,3/4+z
1/4+x,3/4-y,3/4+z
1/2+x,y,1/2+z
1/2-x,-y,1/2+z
3/4-x,1/4+y,3/4+z
3/4+x,1/4-y,3/4+z
1/2+x,1/2+y,z
1/2-x,1/2-y,z
3/4-x,3/4+y,1/4+z
3/4+x,3/4-y,1/4+z
loop_
_atom_site_type_symbol
_atom_site_label
_atom_site_fract_x
_atom_site_fract_y
_atom_site_fract_z
Si Si1 0.583490 0.578295 0.218130
Si Si2 0.000000 0.500000 0.494356
Si Si3 0.739300 0.086705 0.109669
Si Si4 0.377997 0.623542 0.521446
Si Si5 0.597060 0.453498 0.817014
Si Si6 0.692982 0.992791 0.852337
O O1 0.551112 0.536042 0.088833
O O2 0.537333 0.596869 0.344158
O O3 0.605827 0.659198 0.161279
O O4 0.634951 0.527971 0.283003
O O5 0.033287 0.439800 0.389705
O O6 0.679150 0.124418 0.155360
O O7 0.761324 0.026155 0.226597
O O8 0.727875 0.050395 0.953570
O O9 0.402635 0.575266 0.654369
O O10 0.359913 0.706753 0.573472
O O11 0.323710 0.581184 0.446564
#
# Coordination Sequence:
#
# PCOD8187848 Si02
#       6
#    16   8  16  16  16  16
#     4  12  26  50  76 112 152 200 257 312 379 464
#     4  12  26  46  82 114 152 204 252 314 398 444
#     4  12  27  46  80 109 152 206 249 319 392 445
#     4  12  27  50  73 115 154 198 256 317 376 457
#     4  12  27  48  77 112 156 198 256 315 375 462
#     4  12  28  49  77 113 155 198 260 316 384 461
#
# _framework density 23.51041
#
# number of rings (size 3 to 8) (size 9 to 14) (size 15 to 20)
#    0.000    0.000    3.636    5.455    5.091    0.000 
#    0.000    0.000    0.000    0.000    0.000    0.000 
#    0.000    0.000    0.000    0.000    0.000    0.000 
#
# Total GULP energy -272906.181286 kJ/mol
# GULP energy per Si atom -12404.826422 kJ/mol
# Density = 2.345690 g / cm^3
# Si number density = 23.510410 Si / 1000 Ang^3
#
#
#
# Elastic Constant Matrix: (Units=GPa)
#
#
# Indices 1 2 3 4 5 6 
#
# 1 88.7552 25.7055 38.4913 0.0000 0.0000 0.0000
# 2 25.7055 89.8029 23.8633 0.0001 0.0000 0.0000
# 3 38.4913 23.8633 127.2044 0.0001 0.0000 0.0000
# 4 0.0000 0.0001 0.0001 37.3909 0.0000 0.0000
# 5 0.0000 0.0000 0.0000 0.0000 65.7555 0.0000
# 6 0.0000 0.0000 0.0000 0.0000 0.0000 37.2716
#
#
#
# Elastic Compliance Matrix: (Units=1/GPa)
#
#
# Indices 1 2 3 4 5 6 
#
# 1 0.013679 -0.002963 -0.003583 0.000000 0.000000 0.000000
# 2 -0.002963 0.012362 -0.001422 0.000000 0.000000 0.000000
# 3 -0.003583 -0.001422 0.009212 0.000000 0.000000 0.000000
# 4 0.000000 0.000000 0.000000 0.026745 0.000000 0.000000
# 5 0.000000 0.000000 0.000000 0.000000 0.015208 0.000000
# 6 0.000000 0.000000 0.000000 0.000000 0.000000 0.026830
#
#
# Mechanical properties :
#
#
# Convention : Reuss Voigt Hill
#
# Bulk Modulus (GPa) = 51.77235 53.54250 52.65742
# Shear Modulus (GPa) = 39.55308 42.59707 41.07507
#
# Velocity S-wave (km/s) = 4.10611 4.26119 4.18437
# Velocity P-wave (km/s) = 6.67451 6.85811 6.76693
#
# Compressibility (1/GPa) = 0.01931533
#
# Stress axis : x y z
#
# Youngs Moduli (GPa) = 73.10356 80.89499 108.54836
#
# Poissons Ratio (x) = 0.23972 0.38896
# Poissons Ratio (y) = 0.21663 0.15439
# Poissons Ratio (z) = 0.26195 0.11506
#
# Static dielectric constant tensor:
#      x y z
#    x 4.585970 0.000000 0.000000 
#    y 0.000000 4.375370 0.000000 
#    z 0.000000 0.000000 4.432560 
# 
# 
# High freq. dielectric constant tensor:
#      x y z
#    x 1.948800 0.000000 0.000000 
#    y 0.000000 1.927680 0.000000 
#    z 0.000000 0.000000 1.950070 
# 
# From -- ./inp_files/3217.got.cif
#   From: 2010.06.25/outbox.cif.g09.slc.cpg/sg43_2_cif.got.tgz:3217.got - 2010.06.26 16:48:59.
