data_PCOD8187931
_publ_section_title
;
Structure prediction by ZEFSAII (Michael W. Deem and Ramdas Pophale) SiO2 
 PCOD8187931
Probable space group: I M M 2
;
_chemical_formula_sum "Si O2"
_cell_formula_units_Z 64
_cell_length_a 23.657399
_cell_length_b 8.935300
_cell_length_c 19.148064
_cell_angle_alpha 90.000000
_cell_angle_beta 90.000000
_cell_angle_gamma 90.000000
_cell_volume 4047.631839
_symmetry_space_group_name_H-M "I M M 2"
_symmetry_group_IT_number 44
_symmetry_cell_setting 'orthorhombic'
loop_
_space_group_symop_operation_xyz
x,y,z
-x,-y,z
-x,y,z
x,-y,z
1/2+x,1/2+y,1/2+z
1/2-x,1/2-y,1/2+z
1/2-x,1/2+y,1/2+z
1/2+x,1/2-y,1/2+z
loop_
_atom_site_type_symbol
_atom_site_label
_atom_site_fract_x
_atom_site_fract_y
_atom_site_fract_z
Si Si1 0.937323 0.322958 0.727390
Si Si2 0.224148 0.824328 0.517600
Si Si3 0.753428 0.675567 0.864328
Si Si4 0.265595 0.176246 0.725058
Si Si5 0.333248 0.176541 0.138456
Si Si6 0.165661 0.324476 0.096078
Si Si7 0.381959 0.178037 0.368550
Si Si8 0.062771 0.321337 0.010879
O O1 0.940636 0.500000 0.735118
O O2 0.896363 0.279557 0.663262
O O3 0.912763 0.257146 0.799896
O O4 0.000000 0.256633 0.713390
O O5 0.219754 0.787548 0.435597
O O6 0.174785 0.739925 0.560172
O O7 0.284235 0.763935 0.546319
O O8 0.217968 0.000000 0.532319
O O9 0.752615 0.500000 0.848340
O O10 0.721595 0.761068 0.801913
O O11 0.817465 0.735488 0.870440
O O12 0.210093 0.252303 0.693383
O O13 0.320058 0.215429 0.676495
O O14 0.255099 0.000000 0.727348
O O15 0.323703 0.000000 0.139160
O O16 0.162816 0.500000 0.084199
O O17 0.105174 0.258605 0.071212
O O18 0.415147 0.238083 0.436220
O O19 0.381627 0.000000 0.368524
O O20 0.061105 0.500000 0.010578
O O21 0.000000 0.257039 0.025116
#
# Coordination Sequence:
#
# PCOD8187931 Si02
#       8
#     8   8   8   8   8   8   8   8
#     4   9  16  25  39  62  90 117 145 180 218 253
#     4   9  17  29  45  62  87 117 143 177 224 268
#     4  10  17  28  46  66  88 116 147 180 217 260
#     4  10  19  29  43  61  88 120 148 180 221 263
#     4  10  18  29  45  65  88 114 148 186 219 261
#     4   8  14  25  37  55  84 114 139 170 213 254
#     4   9  14  22  36  59  89 115 141 173 206 245
#     4   9  14  20  35  59  85 113 144 174 207 251
#
# _framework density 15.811715
#
# number of rings (size 3 to 8) (size 9 to 14) (size 15 to 20)
#    0.000    2.750    2.500    1.875    0.000    2.000 
#    0.000    0.000    0.000    1.500    0.000    0.875 
#    0.000   22.500    0.000    0.000    0.000    0.000 
#
# Total GULP energy -396606.221496 kJ/mol
# GULP energy per Si atom -12393.944422 kJ/mol
# Density = 1.577573 g / cm^3
# Si number density = 15.811715 Si / 1000 Ang^3
#
#
#
# Elastic Constant Matrix: (Units=GPa)
#
#
# Indices 1 2 3 4 5 6 
#
# 1 107.3923 22.7639 74.1243 0.0000 0.0000 0.0000
# 2 22.7639 34.0133 37.2930 0.0000 0.0000 0.0000
# 3 74.1243 37.2930 136.0771 0.0000 0.0000 0.0000
# 4 0.0000 0.0000 0.0000 24.0974 0.0000 0.0000
# 5 0.0000 0.0000 0.0000 0.0000 25.3983 0.0000
# 6 0.0000 0.0000 0.0000 0.0000 0.0000 12.3871
#
#
#
# Elastic Compliance Matrix: (Units=1/GPa)
#
#
# Indices 1 2 3 4 5 6 
#
# 1 0.014978 -0.001542 -0.007736 0.000000 0.000000 0.000000
# 2 -0.001542 0.042188 -0.010722 0.000000 0.000000 0.000000
# 3 -0.007736 -0.010722 0.014501 0.000000 0.000000 0.000000
# 4 0.000000 0.000000 0.000000 0.041498 0.000000 0.000000
# 5 0.000000 0.000000 0.000000 0.000000 0.039373 0.000000
# 6 0.000000 0.000000 0.000000 0.000000 0.000000 0.080729
#
#
# Mechanical properties :
#
#
# Convention : Reuss Voigt Hill
#
# Bulk Modulus (GPa) = 31.57865 60.64946 46.11406
# Shear Modulus (GPa) = 17.61650 21.92998 19.77324
#
# Velocity S-wave (km/s) = 3.34150 3.72821 3.54014
# Velocity P-wave (km/s) = 5.90783 7.54807 6.77775
#
# Compressibility (1/GPa) = 0.03166697
#
# Stress axis : x y z
#
# Youngs Moduli (GPa) = 66.76289 23.70331 68.95865
#
# Poissons Ratio (x) = 0.03655 0.53350
# Poissons Ratio (y) = 0.10295 0.73937
# Poissons Ratio (z) = 0.51651 0.25415
#
# Static dielectric constant tensor:
#      x y z
#    x 3.140370 0.000000 0.000000 
#    y 0.000000 2.628800 0.000000 
#    z 0.000000 0.000000 3.148410 
# 
# 
# High freq. dielectric constant tensor:
#      x y z
#    x 1.584820 0.000000 0.000000 
#    y 0.000000 1.566130 0.000000 
#    z 0.000000 0.000000 1.607100 
# 
# From -- ./inp_files/23447.got.cif
#   From: 2010.03.12/outbox.cif.g09.slc.cpg/sg44_12_cif.got.tgz:23447.got - 2010.04.14 02:36:11.
