data_PCOD8187990
_publ_section_title
;
Structure prediction by ZEFSAII (Michael W. Deem and Ramdas Pophale) SiO2 
 PCOD8187990
Probable space group: I M M 2
;
_chemical_formula_sum "Si O2"
_cell_formula_units_Z 52
_cell_length_a 12.701587
_cell_length_b 7.805872
_cell_length_c 32.590874
_cell_angle_alpha 90.000000
_cell_angle_beta 90.000000
_cell_angle_gamma 90.000000
_cell_volume 3231.286156
_symmetry_space_group_name_H-M "I M M 2"
_symmetry_group_IT_number 44
_symmetry_cell_setting 'orthorhombic'
loop_
_space_group_symop_operation_xyz
x,y,z
-x,-y,z
-x,y,z
x,-y,z
1/2+x,1/2+y,1/2+z
1/2-x,1/2-y,1/2+z
1/2-x,1/2+y,1/2+z
1/2+x,1/2-y,1/2+z
loop_
_atom_site_type_symbol
_atom_site_label
_atom_site_fract_x
_atom_site_fract_y
_atom_site_fract_z
Si Si1 0.624941 0.811306 0.942500
Si Si2 0.875906 0.000000 0.666594
Si Si3 0.119621 0.695589 0.268175
Si Si4 0.754075 0.190277 0.193577
Si Si5 0.875029 0.807104 0.355766
Si Si6 0.625518 0.500000 0.998023
Si Si7 0.122833 0.195509 0.112404
Si Si8 0.245325 0.000000 0.582718
O O1 0.500000 0.797324 0.940621
O O2 0.671064 0.782322 0.896643
O O3 0.666772 0.667495 0.973713
O O4 0.660490 0.000000 0.957778
O O5 0.837865 0.169798 0.690442
O O6 0.835463 0.000000 0.620249
O O7 0.000000 0.000000 0.666314
O O8 0.124636 0.500000 0.253899
O O9 0.191062 0.805398 0.237817
O O10 0.163813 0.712004 0.314579
O O11 0.000000 0.765729 0.266242
O O12 0.842468 0.227535 0.159267
O O13 0.705514 0.000000 0.187593
O O14 0.000000 0.800830 0.357964
O O15 0.832873 0.000000 0.354501
O O16 0.500000 0.500000 0.002790
O O17 0.676694 0.500000 0.042213
O O18 0.183635 0.328455 0.083131
O O19 0.000000 0.235352 0.109380
O O20 0.148075 0.000000 0.098677
#
# Coordination Sequence:
#
# PCOD8187990 Si02
#       8
#     8   4   8   8   8   4   8   4
#     4   9  16  27  42  59  84 122 160 191 227 273
#     4  10  21  37  51  66  91 123 162 207 249 279
#     4  10  18  26  40  67 101 132 159 189 226 275
#     4  10  19  32  49  70  95 126 161 196 233 278
#     4   9  15  24  38  59  90 126 158 186 221 270
#     4  10  19  31  45  64  91 125 164 199 233 273
#     4   9  18  32  50  71  97 126 153 186 234 288
#     4  10  20  32  50  72  92 122 158 202 236 280
#
# _framework density 16.092663999999999
#
# number of rings (size 3 to 8) (size 9 to 14) (size 15 to 20)
#    0.000    2.462    1.538    1.846    0.000    4.308 
#    0.000    0.000    0.000    2.769    0.000    0.000 
#    0.000    2.462    0.923    0.000    0.000    0.000 
#
# Total GULP energy -322328.605553 kJ/mol
# GULP energy per Si atom -12397.254060 kJ/mol
# Density = 1.605604 g / cm^3
# Si number density = 16.092664 Si / 1000 Ang^3
#
#
#
# Elastic Constant Matrix: (Units=GPa)
#
#
# Indices 1 2 3 4 5 6 
#
# 1 62.4628 39.3549 29.2424 0.0000 0.0000 0.0000
# 2 39.3549 125.4263 45.8965 0.0000 0.0000 0.0000
# 3 29.2424 45.8965 96.3663 0.0000 0.0000 0.0000
# 4 0.0000 0.0000 0.0000 23.5277 0.0000 0.0000
# 5 0.0000 0.0000 0.0000 0.0000 17.6564 0.0000
# 6 0.0000 0.0000 0.0000 0.0000 0.0000 12.8441
#
#
#
# Elastic Compliance Matrix: (Units=1/GPa)
#
#
# Indices 1 2 3 4 5 6 
#
# 1 0.021121 -0.005186 -0.003939 0.000000 0.000000 0.000000
# 2 -0.005186 0.010929 -0.003631 0.000000 0.000000 0.000000
# 3 -0.003939 -0.003631 0.013302 0.000000 0.000000 0.000000
# 4 0.000000 0.000000 0.000000 0.042503 0.000000 0.000000
# 5 0.000000 0.000000 0.000000 0.000000 0.056637 0.000000
# 6 0.000000 0.000000 0.000000 0.000000 0.000000 0.077857
#
#
# Mechanical properties :
#
#
# Convention : Reuss Voigt Hill
#
# Bulk Modulus (GPa) = 50.40623 57.02698 53.71661
# Shear Modulus (GPa) = 19.64835 22.12308 20.88571
#
# Velocity S-wave (km/s) = 3.49800 3.71176 3.60646
# Velocity P-wave (km/s) = 6.90689 7.34051 7.12700
#
# Compressibility (1/GPa) = 0.01983882
#
# Stress axis : x y z
#
# Youngs Moduli (GPa) = 47.34624 91.50195 75.17634
#
# Poissons Ratio (x) = 0.47449 0.29615
# Poissons Ratio (y) = 0.24552 0.27300
# Poissons Ratio (z) = 0.18652 0.33229
#
# Static dielectric constant tensor:
#      x y z
#    x 2.526570 0.000000 0.000000 
#    y 0.000000 3.339900 0.000000 
#    z 0.000000 0.000000 3.026950 
# 
# 
# High freq. dielectric constant tensor:
#      x y z
#    x 1.551620 0.000000 0.000000 
#    y 0.000000 1.641110 0.000000 
#    z 0.000000 0.000000 1.615460 
# 
# From -- ./inp_files/26116.got.cif
#   From: 2010.03.12/outbox.cif.g09.slc.cpg/sg44_14_cif.got.tgz:26116.got - 2010.04.14 02:36:11.
