data_PCOD8187569
_publ_section_title
;
Structure prediction by ZEFSAII (Michael W. Deem and Ramdas Pophale) SiO2 
 PCOD8187569
Probable space group: F D D 2
;
_chemical_formula_sum "Si O2"
_cell_formula_units_Z 112
_cell_length_a 22.652238
_cell_length_b 17.444554
_cell_length_c 12.640359
_cell_angle_alpha 90.000000
_cell_angle_beta 90.000000
_cell_angle_gamma 90.000000
_cell_volume 4994.941371
_symmetry_space_group_name_H-M "F D D 2"
_symmetry_group_IT_number 43
_symmetry_cell_setting 'orthorhombic'
loop_
_space_group_symop_operation_xyz
x,y,z
-x,-y,z
1/4-x,1/4+y,1/4+z
1/4+x,1/4-y,1/4+z
x,1/2+y,1/2+z
-x,1/2-y,1/2+z
1/4-x,3/4+y,3/4+z
1/4+x,3/4-y,3/4+z
1/2+x,y,1/2+z
1/2-x,-y,1/2+z
3/4-x,1/4+y,3/4+z
3/4+x,1/4-y,3/4+z
1/2+x,1/2+y,z
1/2-x,1/2-y,z
3/4-x,3/4+y,1/4+z
3/4+x,3/4-y,1/4+z
loop_
_atom_site_type_symbol
_atom_site_label
_atom_site_fract_x
_atom_site_fract_y
_atom_site_fract_z
Si Si1 0.147185 0.681725 0.033540
Si Si2 0.046468 0.149474 0.049543
Si Si3 0.000000 0.000000 0.949233
Si Si4 0.180383 0.659175 0.535049
Si Si5 0.772414 0.633098 0.532397
Si Si6 0.500000 0.500000 0.616105
Si Si7 0.846166 0.213000 0.201892
Si Si8 0.042720 0.259455 0.409590
O O1 0.217445 0.691352 0.015853
O O2 0.131411 0.703469 0.158321
O O3 0.144324 0.590989 0.005830
O O4 0.105717 0.730669 0.955324
O O5 0.111594 0.169871 0.005864
O O6 0.047334 0.154068 0.175581
O O7 0.029967 0.063136 0.021465
O O8 0.998575 0.208031 0.002551
O O9 0.946846 0.033647 0.879518
O O10 0.219684 0.682437 0.433683
O O11 0.194796 0.572491 0.569332
O O12 0.824995 0.680272 0.587761
O O13 0.757232 0.561530 0.609418
O O14 0.453853 0.460611 0.539361
#
# Coordination Sequence:
#
# PCOD8187569 Si02
#       8
#    16  16   8  16  16   8  16  16
#     4  11  23  44  68  97 142 180 227 301 338 416
#     4  11  24  43  73  97 139 181 229 292 351 418
#     4   9  24  45  64 106 126 177 240 271 350 426
#     4  10  24  45  68  94 141 179 226 290 348 422
#     4  11  24  41  71  98 137 179 235 282 353 414
#     4  11  24  47  66 102 138 181 226 283 358 426
#     4  11  24  44  68 103 136 181 236 281 352 420
#     4  10  25  44  64 110 131 180 244 279 354 427
#
# _framework density 22.422685999999999
#
# number of rings (size 3 to 8) (size 9 to 14) (size 15 to 20)
#    0.000    1.429    1.429    1.714    8.000    5.714 
#    5.143    0.000    0.000    0.000    0.000    0.000 
#    0.000    0.000    0.000    0.000    0.000    0.000 
#
# Total GULP energy -347019.763758 kJ/mol
# GULP energy per Si atom -12393.562991 kJ/mol
# Density = 2.237165 g / cm^3
# Si number density = 22.422686 Si / 1000 Ang^3
#
#
#
# Elastic Constant Matrix: (Units=GPa)
#
#
# Indices 1 2 3 4 5 6 
#
# 1 109.6477 34.8595 35.4852 0.0000 0.0000 0.0000
# 2 34.8595 81.5085 34.0821 0.0000 0.0000 0.0000
# 3 35.4852 34.0821 123.7986 0.0000 0.0000 0.0000
# 4 0.0000 0.0000 0.0000 -322.9431 0.0000 0.0000
# 5 0.0000 0.0000 0.0000 0.0000 34.3593 0.0000
# 6 0.0000 0.0000 0.0000 0.0000 0.0000 32.5403
#
#
#
# Elastic Compliance Matrix: (Units=1/GPa)
#
#
# Indices 1 2 3 4 5 6 
#
# 1 0.011020 -0.003833 -0.002103 0.000000 0.000000 0.000000
# 2 -0.003833 0.015198 -0.003085 0.000000 0.000000 0.000000
# 3 -0.002103 -0.003085 0.009530 0.000000 0.000000 0.000000
# 4 0.000000 0.000000 0.000000 -0.003097 0.000000 0.000000
# 5 0.000000 0.000000 0.000000 0.000000 0.029104 0.000000
# 6 0.000000 0.000000 0.000000 0.000000 0.000000 0.030731
#
#
# Mechanical properties :
#
#
# Convention : Reuss Voigt Hill
#
# Bulk Modulus (GPa) = 56.48527 58.20094 57.34310
# Shear Modulus (GPa) = 42.94368 -37.17351 2.88509
#
# Velocity S-wave (km/s) = 4.38103 -4.07609 1.13555
# Velocity P-wave (km/s) = 7.13001 1.96467 5.22958
#
# Compressibility (1/GPa) = 0.01770373
#
# Stress axis : x y z
#
# Youngs Moduli (GPa) = 90.74816 65.79728 104.93287
#
# Poissons Ratio (x) = 0.25222 0.22070
# Poissons Ratio (y) = 0.34787 0.32375
# Poissons Ratio (z) = 0.19087 0.20301
#
# Static dielectric constant tensor:
#      x y z
#    x 2.243430 0.000000 0.000000 
#    y 0.000000 4.377080 0.000000 
#    z 0.000000 0.000000 4.116160 
# 
# 
# High freq. dielectric constant tensor:
#      x y z
#    x 1.884140 0.000000 0.000000 
#    y 0.000000 1.893380 0.000000 
#    z 0.000000 0.000000 1.883480 
# 
# From -- ./inp_files/7605.got.cif
#   From: 2010.06.25/outbox.cif.g09.slc.cpg/sg43_4_cif.got.tgz:7605.got - 2010.06.26 16:48:59.
