data_PCOD8187438
_publ_section_title
;
Structure prediction by ZEFSAII (Michael W. Deem and Ramdas Pophale) SiO2 
 PCOD8187438
Probable space group: F D D 2
;
_chemical_formula_sum "Si O2"
_cell_formula_units_Z 72
_cell_length_a 9.592394
_cell_length_b 19.250310
_cell_length_c 16.225048
_cell_angle_alpha 90.000000
_cell_angle_beta 90.000000
_cell_angle_gamma 90.000000
_cell_volume 2996.061519
_symmetry_space_group_name_H-M "F D D 2"
_symmetry_group_IT_number 43
_symmetry_cell_setting 'orthorhombic'
loop_
_space_group_symop_operation_xyz
x,y,z
-x,-y,z
1/4-x,1/4+y,1/4+z
1/4+x,1/4-y,1/4+z
x,1/2+y,1/2+z
-x,1/2-y,1/2+z
1/4-x,3/4+y,3/4+z
1/4+x,3/4-y,3/4+z
1/2+x,y,1/2+z
1/2-x,-y,1/2+z
3/4-x,1/4+y,3/4+z
3/4+x,1/4-y,3/4+z
1/2+x,1/2+y,z
1/2-x,1/2-y,z
3/4-x,3/4+y,1/4+z
3/4+x,3/4-y,1/4+z
loop_
_atom_site_type_symbol
_atom_site_label
_atom_site_fract_x
_atom_site_fract_y
_atom_site_fract_z
Si Si1 0.005509 0.879642 0.358200
Si Si2 0.260157 0.554691 0.948319
Si Si3 0.750102 0.898938 0.969282
Si Si4 0.750000 0.750000 0.487962
Si Si5 0.729865 0.590514 0.155060
O O1 0.983300 0.813183 0.298586
O O2 0.121966 0.859982 0.425271
O O3 0.868735 0.904984 0.406118
O O4 0.057764 0.938766 0.294844
O O5 0.263121 0.473898 0.924793
O O6 0.397930 0.587357 0.910222
O O7 0.885616 0.849741 0.963781
O O8 0.712925 0.916406 0.063071
O O9 0.618655 0.776079 0.432673
#
# Coordination Sequence:
#
# PCOD8187438 Si02
#       5
#    16  16  16   8  16
#     4  11  23  44  72  99 140 185 236 283 361 418
#     4  11  24  44  71  98 142 190 229 287 351 434
#     4  12  25  45  67 108 140 178 236 302 339 414
#     4  10  22  44  68  96 136 196 228 274 360 440
#     4  11  26  41  71 101 137 179 239 284 354 410
#
# _framework density 24.031548999999998
#
# number of rings (size 3 to 8) (size 9 to 14) (size 15 to 20)
#    0.000    0.889    2.222    4.667    9.333    0.000 
#    0.000    0.000    0.000    0.000    0.000    0.000 
#    0.000    0.000    0.000    0.000    0.000    0.000 
#
# Total GULP energy -223151.545497 kJ/mol
# GULP energy per Si atom -12397.308083 kJ/mol
# Density = 2.397685 g / cm^3
# Si number density = 24.031549 Si / 1000 Ang^3
#
#
#
# Elastic Constant Matrix: (Units=GPa)
#
#
# Indices 1 2 3 4 5 6 
#
# 1 116.2244 4.4675 35.6341 0.0000 0.0000 0.0000
# 2 4.4675 23.0568 1.9168 0.0000 0.0000 0.0000
# 3 35.6341 1.9168 125.4858 0.0000 0.0000 0.0000
# 4 0.0000 0.0000 0.0000 23.5550 0.0000 0.0000
# 5 0.0000 0.0000 0.0000 0.0000 51.2217 0.0000
# 6 0.0000 0.0000 0.0000 0.0000 0.0000 30.8961
#
#
#
# Elastic Compliance Matrix: (Units=1/GPa)
#
#
# Indices 1 2 3 4 5 6 
#
# 1 0.009484 -0.001616 -0.002669 0.000000 0.000000 0.000000
# 2 -0.001616 0.043702 -0.000209 0.000000 0.000000 0.000000
# 3 -0.002669 -0.000209 0.008730 0.000000 0.000000 0.000000
# 4 0.000000 0.000000 0.000000 0.042454 0.000000 0.000000
# 5 0.000000 0.000000 0.000000 0.000000 0.019523 0.000000
# 6 0.000000 0.000000 0.000000 0.000000 0.000000 0.032367
#
#
# Mechanical properties :
#
#
# Convention : Reuss Voigt Hill
#
# Bulk Modulus (GPa) = 18.89296 38.75598 28.82447
# Shear Modulus (GPa) = 27.33901 35.98446 31.66173
#
# Velocity S-wave (km/s) = 3.37654 3.87380 3.63369
# Velocity P-wave (km/s) = 4.80418 6.01420 5.44292
#
# Compressibility (1/GPa) = 0.05292976
#
# Stress axis : x y z
#
# Youngs Moduli (GPa) = 105.43701 22.88242 114.54743
#
# Poissons Ratio (x) = 0.03697 0.30568
# Poissons Ratio (y) = 0.17037 0.02391
# Poissons Ratio (z) = 0.28137 0.00478
#
# Static dielectric constant tensor:
#      x y z
#    x 4.252660 0.000000 0.000000 
#    y 0.000000 4.451390 0.000000 
#    z 0.000000 0.000000 4.511260 
# 
# 
# High freq. dielectric constant tensor:
#      x y z
#    x 1.946980 0.000000 0.000000 
#    y 0.000000 1.946010 0.000000 
#    z 0.000000 0.000000 1.967900 
# 
# From -- ./inp_files/12548.got.cif
#   From: 2010.06.25/outbox.cif.g09.slc.cpg/sg43_7_cif.got.tgz:12548.got - 2010.06.26 16:48:59.
