data_PCOD8187175
_publ_section_title
;
Structure prediction by ZEFSAII (Michael W. Deem and Ramdas Pophale) SiO2 
 PCOD8187175
Probable space group: F D D 2
;
_chemical_formula_sum "Si O2"
_cell_formula_units_Z 120
_cell_length_a 17.926201
_cell_length_b 26.629644
_cell_length_c 12.987467
_cell_angle_alpha 90.000000
_cell_angle_beta 90.000000
_cell_angle_gamma 90.000000
_cell_volume 6199.805704
_symmetry_space_group_name_H-M "F D D 2"
_symmetry_group_IT_number 43
_symmetry_cell_setting 'orthorhombic'
loop_
_space_group_symop_operation_xyz
x,y,z
-x,-y,z
1/4-x,1/4+y,1/4+z
1/4+x,1/4-y,1/4+z
x,1/2+y,1/2+z
-x,1/2-y,1/2+z
1/4-x,3/4+y,3/4+z
1/4+x,3/4-y,3/4+z
1/2+x,y,1/2+z
1/2-x,-y,1/2+z
3/4-x,1/4+y,3/4+z
3/4+x,1/4-y,3/4+z
1/2+x,1/2+y,z
1/2-x,1/2-y,z
3/4-x,3/4+y,1/4+z
3/4+x,3/4-y,1/4+z
loop_
_atom_site_type_symbol
_atom_site_label
_atom_site_fract_x
_atom_site_fract_y
_atom_site_fract_z
Si Si1 0.457901 0.946486 0.125000
Si Si2 0.950869 0.232255 0.676820
Si Si3 0.113786 0.218732 0.582083
Si Si4 0.606029 0.225980 0.468670
Si Si5 0.469759 0.784548 0.882361
Si Si6 0.250000 0.750000 0.185638
Si Si7 0.667135 0.127463 0.409514
Si Si8 0.325090 0.382026 0.667109
O O1 0.505378 0.905701 0.189315
O O2 0.377129 0.922841 0.111576
O O3 0.436536 0.002174 0.174896
O O4 0.499729 0.951901 0.013641
O O5 0.902513 0.256574 0.585915
O O6 0.941809 0.272093 0.768263
O O7 0.916337 0.178053 0.709720
O O8 0.036806 0.222990 0.644684
O O9 0.098660 0.224495 0.461224
O O10 0.174908 0.259218 0.619003
O O11 0.161742 0.169185 0.607629
O O12 0.536272 0.245780 0.404504
O O13 0.604517 0.165138 0.456299
O O14 0.493454 0.843101 0.897266
O O15 0.656794 0.119796 0.287846
#
# Coordination Sequence:
#
# PCOD8187175 Si02
#       8
#    16  16  16  16  16   8  16  16
#     4  11  18  30  53  93 119 141 193 259 303 335
#     4  11  22  40  60  84 130 166 195 253 314 373
#     4  11  21  37  59  94 119 157 200 246 313 360
#     4  10  21  35  57  91 120 155 205 255 302 357
#     4  10  22  38  59  85 127 162 196 250 305 373
#     4  12  22  32  60  90 124 150 190 260 294 358
#     4  12  19  33  62  89 118 156 201 255 311 358
#     4  11  18  35  59  91 115 148 197 255 307 344
#
# _framework density 19.355445
#
# number of rings (size 3 to 8) (size 9 to 14) (size 15 to 20)
#    0.000    1.067    8.000    2.400    0.000    0.000 
#    0.000    1.333    5.867    0.000    0.000    0.000 
#    0.000    0.000    0.000    0.000    0.000    0.000 
#
# Total GULP energy -371699.921287 kJ/mol
# GULP energy per Si atom -12389.997376 kJ/mol
# Density = 1.931139 g / cm^3
# Si number density = 19.355445 Si / 1000 Ang^3
#
#
#
# Elastic Constant Matrix: (Units=GPa)
#
#
# Indices 1 2 3 4 5 6 
#
# 1 73.9989 18.8662 40.5347 0.0000 0.0000 0.0000
# 2 18.8662 84.6004 43.0819 0.0000 0.0000 0.0000
# 3 40.5347 43.0819 110.8236 0.0000 0.0000 0.0000
# 4 0.0000 0.0000 0.0000 25.4038 0.0000 0.0000
# 5 0.0000 0.0000 0.0000 0.0000 30.6817 0.0000
# 6 0.0000 0.0000 0.0000 0.0000 0.0000 26.6643
#
#
#
# Elastic Compliance Matrix: (Units=1/GPa)
#
#
# Indices 1 2 3 4 5 6 
#
# 1 0.016940 -0.000776 -0.005894 0.000000 0.000000 0.000000
# 2 -0.000776 0.014773 -0.005459 0.000000 0.000000 0.000000
# 3 -0.005894 -0.005459 0.013301 0.000000 0.000000 0.000000
# 4 0.000000 0.000000 0.000000 0.039364 0.000000 0.000000
# 5 0.000000 0.000000 0.000000 0.000000 0.032593 0.000000
# 6 0.000000 0.000000 0.000000 0.000000 0.000000 0.037503
#
#
# Mechanical properties :
#
#
# Convention : Reuss Voigt Hill
#
# Bulk Modulus (GPa) = 48.17907 52.70982 50.44445
# Shear Modulus (GPa) = 26.93190 27.67930 27.30560
#
# Velocity S-wave (km/s) = 3.73425 3.78571 3.76006
# Velocity P-wave (km/s) = 6.59838 6.81179 6.70593
#
# Compressibility (1/GPa) = 0.02075590
#
# Stress axis : x y z
#
# Youngs Moduli (GPa) = 59.03056 67.68935 75.17956
#
# Poissons Ratio (x) = 0.05253 0.44314
# Poissons Ratio (y) = 0.04581 0.41042
# Poissons Ratio (z) = 0.34795 0.36953
#
# Static dielectric constant tensor:
#      x y z
#    x 3.565120 0.000000 0.000000 
#    y 0.000000 3.775560 0.000000 
#    z 0.000000 0.000000 3.376300 
# 
# 
# High freq. dielectric constant tensor:
#      x y z
#    x 1.744760 0.000000 0.000000 
#    y 0.000000 1.761190 0.000000 
#    z 0.000000 0.000000 1.723830 
# 
# From -- ./inp_files/6890.got.cif
#   From: 2010.06.25/outbox.cif.g09.slc.cpg/sg43_4_cif.got.tgz:6890.got - 2010.06.26 16:48:59.
