data_PCOD8187627
_publ_section_title
;
Structure prediction by ZEFSAII (Michael W. Deem and Ramdas Pophale) SiO2 
 PCOD8187627
Probable space group: F D D 2
;
_chemical_formula_sum "Si O2"
_cell_formula_units_Z 120
_cell_length_a 9.106118
_cell_length_b 21.515786
_cell_length_c 30.955808
_cell_angle_alpha 90.000000
_cell_angle_beta 90.000000
_cell_angle_gamma 90.000000
_cell_volume 6065.025541
_symmetry_space_group_name_H-M "F D D 2"
_symmetry_group_IT_number 43
_symmetry_cell_setting 'orthorhombic'
loop_
_space_group_symop_operation_xyz
x,y,z
-x,-y,z
1/4-x,1/4+y,1/4+z
1/4+x,1/4-y,1/4+z
x,1/2+y,1/2+z
-x,1/2-y,1/2+z
1/4-x,3/4+y,3/4+z
1/4+x,3/4-y,3/4+z
1/2+x,y,1/2+z
1/2-x,-y,1/2+z
3/4-x,1/4+y,3/4+z
3/4+x,1/4-y,3/4+z
1/2+x,1/2+y,z
1/2-x,1/2-y,z
3/4-x,3/4+y,1/4+z
3/4+x,3/4-y,1/4+z
loop_
_atom_site_type_symbol
_atom_site_label
_atom_site_fract_x
_atom_site_fract_y
_atom_site_fract_z
Si Si1 0.250000 0.750000 0.526070
Si Si2 0.192625 0.954134 0.702282
Si Si3 0.828250 0.496811 0.965677
Si Si4 0.223410 0.386646 0.912138
Si Si5 0.078655 0.242528 0.815782
Si Si6 0.704208 0.354269 0.594347
Si Si7 0.453403 0.313584 0.392199
Si Si8 0.924453 0.366897 0.668838
O O1 0.106014 0.730550 0.498630
O O2 0.294078 0.691365 0.554235
O O3 0.047223 0.926818 0.679509
O O4 0.317002 0.900293 0.703779
O O5 0.260418 0.008561 0.674483
O O6 0.754461 0.559029 0.947052
O O7 0.759182 0.437265 0.943032
O O8 0.000000 0.500000 0.955880
O O9 0.795589 0.492285 0.016238
O O10 0.297207 0.405788 0.866971
O O11 0.052896 0.373436 0.903418
O O12 0.250000 0.250000 0.827224
O O13 0.983403 0.291375 0.843340
O O14 0.025675 0.173557 0.826752
O O15 0.830854 0.338875 0.629159
O O16 0.285399 0.333123 0.398189
#
# Coordination Sequence:
#
# PCOD8187627 Si02
#       8
#     8  16  16  16  16  16  16  16
#     4  12  24  42  66  96 138 174 228 276 332 402
#     4  11  23  39  68  94 122 174 225 261 327 395
#     4  11  24  41  64 100 131 168 218 275 336 390
#     4  11  20  42  69  90 124 177 219 260 330 413
#     4  11  22  39  65  96 124 166 223 269 317 396
#     4  11  24  41  66  97 130 173 222 268 331 397
#     4  12  20  42  68  91 127 172 221 269 332 398
#     4  11  25  42  66  98 135 170 220 277 337 401
#
# _framework density 19.785571999999998
#
# number of rings (size 3 to 8) (size 9 to 14) (size 15 to 20)
#    0.000    0.800    6.667    2.000    0.000    2.667 
#    0.000    2.667    2.933    0.000    0.000    0.000 
#    0.000    0.000    0.000    0.000    0.000    0.000 
#
# Total GULP energy -372091.318783 kJ/mol
# GULP energy per Si atom -12403.043959 kJ/mol
# Density = 1.974054 g / cm^3
# Si number density = 19.785572 Si / 1000 Ang^3
#
#
#
# Elastic Constant Matrix: (Units=GPa)
#
#
# Indices 1 2 3 4 5 6 
#
# 1 91.9198 30.0362 43.0326 0.0000 0.0000 0.0000
# 2 30.0362 91.3736 61.9413 0.0000 0.0000 0.0000
# 3 43.0326 61.9413 125.3190 0.0000 0.0000 0.0000
# 4 0.0000 0.0000 0.0000 38.8686 0.0000 0.0000
# 5 0.0000 0.0000 0.0000 0.0000 17.6706 0.0000
# 6 0.0000 0.0000 0.0000 0.0000 0.0000 33.0019
#
#
#
# Elastic Compliance Matrix: (Units=1/GPa)
#
#
# Indices 1 2 3 4 5 6 
#
# 1 0.013179 -0.001902 -0.003586 0.000000 0.000000 0.000000
# 2 -0.001902 0.016733 -0.007618 0.000000 0.000000 0.000000
# 3 -0.003586 -0.007618 0.012976 0.000000 0.000000 0.000000
# 4 0.000000 0.000000 0.000000 0.025728 0.000000 0.000000
# 5 0.000000 0.000000 0.000000 0.000000 0.056591 0.000000
# 6 0.000000 0.000000 0.000000 0.000000 0.000000 0.030301
#
#
# Mechanical properties :
#
#
# Convention : Reuss Voigt Hill
#
# Bulk Modulus (GPa) = 59.95734 64.29251 62.12493
# Shear Modulus (GPa) = 26.69834 29.48170 28.09002
#
# Velocity S-wave (km/s) = 3.67738 3.86432 3.77201
# Velocity P-wave (km/s) = 6.95703 7.24402 7.10197
#
# Compressibility (1/GPa) = 0.01667852
#
# Stress axis : x y z
#
# Youngs Moduli (GPa) = 75.87817 59.76175 77.06495
#
# Poissons Ratio (x) = 0.11364 0.27632
# Poissons Ratio (y) = 0.14429 0.58706
# Poissons Ratio (z) = 0.27207 0.45525
#
# Static dielectric constant tensor:
#      x y z
#    x 3.751720 0.000000 0.000000 
#    y 0.000000 3.626370 0.000000 
#    z 0.000000 0.000000 3.651110 
# 
# 
# High freq. dielectric constant tensor:
#      x y z
#    x 1.772660 0.000000 0.000000 
#    y 0.000000 1.781790 0.000000 
#    z 0.000000 0.000000 1.768440 
# 
# From -- ./inp_files/24466.got.cif
#   From: 2010.06.25/outbox.cif.g09.slc.cpg/sg43_13_cif.got.tgz:24466.got - 2010.06.26 16:48:59.
