data_PCOD8187665
_publ_section_title
;
Structure prediction by ZEFSAII (Michael W. Deem and Ramdas Pophale) SiO2 
 PCOD8187665
Probable space group: F D D 2
;
_chemical_formula_sum "Si O2"
_cell_formula_units_Z 88
_cell_length_a 7.766587
_cell_length_b 18.244909
_cell_length_c 26.240097
_cell_angle_alpha 90.000000
_cell_angle_beta 90.000000
_cell_angle_gamma 90.000000
_cell_volume 3718.239406
_symmetry_space_group_name_H-M "F D D 2"
_symmetry_group_IT_number 43
_symmetry_cell_setting 'orthorhombic'
loop_
_space_group_symop_operation_xyz
x,y,z
-x,-y,z
1/4-x,1/4+y,1/4+z
1/4+x,1/4-y,1/4+z
x,1/2+y,1/2+z
-x,1/2-y,1/2+z
1/4-x,3/4+y,3/4+z
1/4+x,3/4-y,3/4+z
1/2+x,y,1/2+z
1/2-x,-y,1/2+z
3/4-x,1/4+y,3/4+z
3/4+x,1/4-y,3/4+z
1/2+x,1/2+y,z
1/2-x,1/2-y,z
3/4-x,3/4+y,1/4+z
3/4+x,3/4-y,1/4+z
loop_
_atom_site_type_symbol
_atom_site_label
_atom_site_fract_x
_atom_site_fract_y
_atom_site_fract_z
Si Si1 0.750000 0.250000 0.271570
Si Si2 0.051430 0.078416 0.351933
Si Si3 0.244032 0.580306 0.944428
Si Si4 0.250000 0.250000 0.939736
Si Si5 0.691516 0.639662 0.850576
Si Si6 0.923276 0.204935 0.996554
Si Si7 0.750000 0.250000 0.631453
O O1 0.626210 0.301284 0.238978
O O2 0.630245 0.198935 0.308333
O O3 0.134870 0.122343 0.399728
O O4 0.191064 0.066508 0.306371
O O5 0.880498 0.116259 0.330345
O O6 0.000000 0.000000 0.375601
O O7 0.398731 0.631176 0.964065
O O8 0.333128 0.512135 0.916254
O O9 0.279384 0.322758 0.905870
O O10 0.415978 0.246439 0.977243
O O11 0.553266 0.573188 0.849636
O O12 0.750000 0.250000 0.989152
#
# Coordination Sequence:
#
# PCOD8187665 Si02
#       7
#     8  16  16   8  16  16   8
#     4  11  24  46  76 101 146 201 246 317 388 454
#     4  11  22  42  69  98 140 192 244 305 372 455
#     4  12  23  46  70 101 146 196 249 312 378 461
#     4  11  24  47  74 106 150 192 246 318 374 452
#     4  11  23  45  74 108 142 191 255 310 382 455
#     4  11  25  45  70 109 143 195 253 306 382 451
#     4  12  24  45  70 107 146 189 252 315 378 458
#
# _framework density 23.667114999999999
#
# number of rings (size 3 to 8) (size 9 to 14) (size 15 to 20)
#    0.000    0.727    6.364    1.091    0.000    0.727 
#    3.273    0.000    0.000    0.000    0.000    0.000 
#    0.000    0.000    0.000    0.000    0.000    0.000 
#
# Total GULP energy -272688.245035 kJ/mol
# GULP energy per Si atom -12394.920229 kJ/mol
# Density = 2.361325 g / cm^3
# Si number density = 23.667115 Si / 1000 Ang^3
#
#
#
# Elastic Constant Matrix: (Units=GPa)
#
#
# Indices 1 2 3 4 5 6 
#
# 1 120.1203 30.9550 59.5818 0.0000 0.0000 0.0000
# 2 30.9550 99.6485 47.4494 0.0000 0.0000 0.0000
# 3 59.5818 47.4494 154.7480 0.0000 0.0000 0.0000
# 4 0.0000 0.0000 0.0000 27.6765 0.0000 0.0000
# 5 0.0000 0.0000 0.0000 0.0000 24.1582 0.0000
# 6 0.0000 0.0000 0.0000 0.0000 0.0000 38.4581
#
#
#
# Elastic Compliance Matrix: (Units=1/GPa)
#
#
# Indices 1 2 3 4 5 6 
#
# 1 0.010494 -0.001564 -0.003561 0.000000 0.000000 0.000000
# 2 -0.001564 0.011984 -0.003072 0.000000 0.000000 0.000000
# 3 -0.003561 -0.003072 0.008775 0.000000 0.000000 0.000000
# 4 0.000000 0.000000 0.000000 0.036132 0.000000 0.000000
# 5 0.000000 0.000000 0.000000 0.000000 0.041394 0.000000
# 6 0.000000 0.000000 0.000000 0.000000 0.000000 0.026002
#
#
# Mechanical properties :
#
#
# Convention : Reuss Voigt Hill
#
# Bulk Modulus (GPa) = 67.30136 72.27656 69.78896
# Shear Modulus (GPa) = 32.02464 33.82726 32.92595
#
# Velocity S-wave (km/s) = 3.68248 3.78470 3.73394
# Velocity P-wave (km/s) = 6.82490 7.05009 6.93841
#
# Compressibility (1/GPa) = 0.01485854
#
# Stress axis : x y z
#
# Youngs Moduli (GPa) = 95.28879 83.44333 113.95745
#
# Poissons Ratio (x) = 0.13054 0.40579
# Poissons Ratio (y) = 0.14907 0.35011
# Poissons Ratio (z) = 0.33932 0.25636
#
# Static dielectric constant tensor:
#      x y z
#    x 4.303490 0.000000 0.000000 
#    y 0.000000 4.208810 0.000000 
#    z 0.000000 0.000000 4.321930 
# 
# 
# High freq. dielectric constant tensor:
#      x y z
#    x 1.929480 0.000000 0.000000 
#    y 0.000000 1.926790 0.000000 
#    z 0.000000 0.000000 1.952490 
# 
# From -- ./inp_files/20231.got.cif
#   From: 2010.06.25/outbox.cif.g09.slc.cpg/sg43_11_cif.got.tgz:20231.got - 2010.06.26 16:48:59.
