data_PCOD8187112
_publ_section_title
;
Structure prediction by ZEFSAII (Michael W. Deem and Ramdas Pophale) SiO2 
 PCOD8187112
Probable space group: F D D 2
;
_chemical_formula_sum "Si O2"
_cell_formula_units_Z 96
_cell_length_a 20.518368
_cell_length_b 10.505872
_cell_length_c 19.721226
_cell_angle_alpha 90.000000
_cell_angle_beta 90.000000
_cell_angle_gamma 90.000000
_cell_volume 4251.173500
_symmetry_space_group_name_H-M "F D D 2"
_symmetry_group_IT_number 43
_symmetry_cell_setting 'orthorhombic'
loop_
_space_group_symop_operation_xyz
x,y,z
-x,-y,z
1/4-x,1/4+y,1/4+z
1/4+x,1/4-y,1/4+z
x,1/2+y,1/2+z
-x,1/2-y,1/2+z
1/4-x,3/4+y,3/4+z
1/4+x,3/4-y,3/4+z
1/2+x,y,1/2+z
1/2-x,-y,1/2+z
3/4-x,1/4+y,3/4+z
3/4+x,1/4-y,3/4+z
1/2+x,1/2+y,z
1/2-x,1/2-y,z
3/4-x,3/4+y,1/4+z
3/4+x,3/4-y,1/4+z
loop_
_atom_site_type_symbol
_atom_site_label
_atom_site_fract_x
_atom_site_fract_y
_atom_site_fract_z
Si Si1 0.492051 0.361817 0.716900
Si Si2 0.774967 0.047691 0.221710
Si Si3 0.424545 0.684811 0.844967
Si Si4 0.867343 0.708806 0.552086
Si Si5 0.597653 0.445956 0.444769
Si Si6 0.700358 0.353507 0.915590
O O1 0.500000 0.500000 0.679129
O O2 0.533880 0.379555 0.785729
O O3 0.416136 0.335163 0.729577
O O4 0.517403 0.240958 0.675818
O O5 0.700929 0.092600 0.227763
O O6 0.825171 0.164377 0.214605
O O7 0.776706 0.952543 0.157923
O O8 0.804618 0.976121 0.287478
O O9 0.393190 0.818032 0.826293
O O10 0.360354 0.606875 0.867449
O O11 0.847196 0.809128 0.611689
O O12 0.824475 0.722034 0.483501
O O13 0.750000 0.250000 0.882749
#
# Coordination Sequence:
#
# PCOD8187112 Si02
#       6
#    16  16  16  16  16  16
#     4  11  24  44  60  94 136 168 207 266 336 379
#     4   9  19  36  63  99 121 169 218 262 317 376
#     4   9  20  39  65  91 126 164 214 265 317 379
#     4   9  18  34  63  95 127 160 217 267 312 375
#     4  10  21  37  59  93 130 168 216 263 317 386
#     4  10  20  39  72  97 122 170 218 265 312 387
#
# _framework density 22.582000000000001
#
# number of rings (size 3 to 8) (size 9 to 14) (size 15 to 20)
#    0.000    2.333    0.000    3.000    9.333    0.000 
#   12.000    0.000    0.000    0.000    0.000    0.000 
#    0.000    0.000    0.000    0.000    0.000    0.000 
#
# Total GULP energy -297320.532307 kJ/mol
# GULP energy per Si atom -12388.355513 kJ/mol
# Density = 2.253060 g / cm^3
# Si number density = 22.582000 Si / 1000 Ang^3
#
#
#
# Elastic Constant Matrix: (Units=GPa)
#
#
# Indices 1 2 3 4 5 6 
#
# 1 171.3034 47.6666 30.4085 0.0000 0.0000 0.0000
# 2 47.6666 85.7282 6.3627 0.0000 0.0000 0.0000
# 3 30.4085 6.3627 51.8834 0.0000 0.0000 0.0000
# 4 0.0000 0.0000 0.0000 7.3167 0.0000 0.0000
# 5 0.0000 0.0000 0.0000 0.0000 24.8333 0.0000
# 6 0.0000 0.0000 0.0000 0.0000 0.0000 28.1089
#
#
#
# Elastic Compliance Matrix: (Units=1/GPa)
#
#
# Indices 1 2 3 4 5 6 
#
# 1 0.007648 -0.003956 -0.003997 0.000000 0.000000 0.000000
# 2 -0.003956 0.013818 0.000624 0.000000 0.000000 0.000000
# 3 -0.003997 0.000624 0.021540 0.000000 0.000000 0.000000
# 4 0.000000 0.000000 0.000000 0.136674 0.000000 0.000000
# 5 0.000000 0.000000 0.000000 0.000000 0.040268 0.000000
# 6 0.000000 0.000000 0.000000 0.000000 0.000000 0.035576
#
#
# Mechanical properties :
#
#
# Convention : Reuss Voigt Hill
#
# Bulk Modulus (GPa) = 35.27608 53.08785 44.18197
# Shear Modulus (GPa) = 17.88064 27.01694 22.44879
#
# Velocity S-wave (km/s) = 2.81696 3.46264 3.15636
# Velocity P-wave (km/s) = 5.12207 6.28860 5.73507
#
# Compressibility (1/GPa) = 0.02834782
#
# Stress axis : x y z
#
# Youngs Moduli (GPa) = 130.75548 72.36983 46.42474
#
# Poissons Ratio (x) = 0.28627 0.18557
# Poissons Ratio (y) = 0.51723 -0.02896
# Poissons Ratio (z) = 0.52266 -0.04515
#
# Static dielectric constant tensor:
#      x y z
#    x 4.198630 0.000000 0.000000 
#    y 0.000000 3.887050 0.000000 
#    z 0.000000 0.000000 4.206250 
# 
# 
# High freq. dielectric constant tensor:
#      x y z
#    x 1.900380 0.000000 0.000000 
#    y 0.000000 1.874670 0.000000 
#    z 0.000000 0.000000 1.871680 
# 
# From -- ./inp_files/17146.got.cif
#   From: 2010.06.25/outbox.cif.g09.slc.cpg/sg43_9_cif.got.tgz:17146.got - 2010.06.26 16:48:59.
