data_PCOD8187530
_publ_section_title
;
Structure prediction by ZEFSAII (Michael W. Deem and Ramdas Pophale) SiO2 
 PCOD8187530
Probable space group: F D D 2
;
_chemical_formula_sum "Si O2"
_cell_formula_units_Z 72
_cell_length_a 16.294586
_cell_length_b 27.932149
_cell_length_c 7.214272
_cell_angle_alpha 90.000000
_cell_angle_beta 90.000000
_cell_angle_gamma 90.000000
_cell_volume 3283.523987
_symmetry_space_group_name_H-M "F D D 2"
_symmetry_group_IT_number 43
_symmetry_cell_setting 'orthorhombic'
loop_
_space_group_symop_operation_xyz
x,y,z
-x,-y,z
1/4-x,1/4+y,1/4+z
1/4+x,1/4-y,1/4+z
x,1/2+y,1/2+z
-x,1/2-y,1/2+z
1/4-x,3/4+y,3/4+z
1/4+x,3/4-y,3/4+z
1/2+x,y,1/2+z
1/2-x,-y,1/2+z
3/4-x,1/4+y,3/4+z
3/4+x,1/4-y,3/4+z
1/2+x,1/2+y,z
1/2-x,1/2-y,z
3/4-x,3/4+y,1/4+z
3/4+x,3/4-y,1/4+z
loop_
_atom_site_type_symbol
_atom_site_label
_atom_site_fract_x
_atom_site_fract_y
_atom_site_fract_z
Si Si1 0.206307 0.827869 0.948970
Si Si2 0.000000 0.500000 0.306035
Si Si3 0.012329 0.158827 0.476006
Si Si4 0.677421 0.844103 0.022455
Si Si5 0.610113 0.481670 0.144153
O O1 0.190088 0.847927 0.742301
O O2 0.144060 0.783769 0.993916
O O3 0.298022 0.807588 0.978005
O O4 0.193518 0.870972 0.089656
O O5 0.021488 0.547841 0.189889
O O6 0.081327 0.490784 0.432175
O O7 0.035095 0.142331 0.684404
O O8 0.048740 0.210941 0.422820
O O9 0.915588 0.162187 0.457199
#
# Coordination Sequence:
#
# PCOD8187530 Si02
#       5
#    16   8  16  16  16
#     4   9  21  42  60  86 133 167 196 275 310 370
#     4   8  20  46  58  84 134 172 188 270 324 372
#     4  12  21  40  65  98 116 170 219 258 310 389
#     4  10  24  38  64  93 124 161 220 250 321 380
#     4   8  18  40  62  83 129 167 200 251 328 362
#
# _framework density 21.927662000000002
#
# number of rings (size 3 to 8) (size 9 to 14) (size 15 to 20)
#    0.000    3.111    2.222    0.000    6.222    1.778 
#    8.000    0.000    0.000    0.000    0.000    0.000 
#    0.000    0.000    0.000    0.000    0.000    0.000 
#
# Total GULP energy -223041.578290 kJ/mol
# GULP energy per Si atom -12391.198794 kJ/mol
# Density = 2.187775 g / cm^3
# Si number density = 21.927662 Si / 1000 Ang^3
#
#
#
# Elastic Constant Matrix: (Units=GPa)
#
#
# Indices 1 2 3 4 5 6 
#
# 1 77.1440 24.1001 10.0301 0.0001 0.0004 -0.0001
# 2 24.1001 81.1654 32.5229 0.0001 -0.0002 0.0000
# 3 10.0301 32.5229 67.2422 0.0006 0.0010 -0.0003
# 4 0.0001 0.0001 0.0006 23.0996 -0.0004 0.0000
# 5 0.0004 -0.0002 0.0010 -0.0004 11.5016 0.0002
# 6 -0.0001 0.0000 -0.0003 0.0000 0.0002 41.2681
#
#
#
# Elastic Compliance Matrix: (Units=1/GPa)
#
#
# Indices 1 2 3 4 5 6 
#
# 1 0.014289 -0.004203 -0.000098 0.000000 -0.000001 0.000000
# 2 -0.004203 0.016519 -0.007363 0.000000 0.000001 0.000000
# 3 -0.000098 -0.007363 0.018447 0.000000 -0.000002 0.000000
# 4 0.000000 0.000000 0.000000 0.043291 0.000002 0.000000
# 5 -0.000001 0.000001 -0.000002 0.000002 0.086944 0.000000
# 6 0.000000 0.000000 0.000000 0.000000 0.000000 0.024232
#
#
# Mechanical properties :
#
#
# Convention : Reuss Voigt Hill
#
# Bulk Modulus (GPa) = 38.57090 39.87310 39.22200
# Shear Modulus (GPa) = 21.21412 25.76711 23.49061
#
# Velocity S-wave (km/s) = 3.11377 3.43169 3.27659
# Velocity P-wave (km/s) = 5.52772 5.82455 5.67808
#
# Compressibility (1/GPa) = 0.02592628
#
# Stress axis : x y z
#
# Youngs Moduli (GPa) = 69.98548 60.53719 54.20834
#
# Poissons Ratio (x) = 0.25445 0.00533
# Poissons Ratio (y) = 0.29417 0.39912
# Poissons Ratio (z) = 0.00688 0.44571
#
# Static dielectric constant tensor:
#      x y z
#    x 3.647340 0.000000 0.000000 
#    y 0.000000 4.136760 0.000000 
#    z 0.000000 0.000000 3.632720 
# 
# 
# High freq. dielectric constant tensor:
#      x y z
#    x 1.843930 0.000000 0.000000 
#    y 0.000000 1.868960 0.000000 
#    z 0.000000 0.000000 1.836500 
# 
# From -- ./inp_files/2393.got.cif
#   From: 2010.06.25/outbox.cif.g09.slc.cpg/sg43_2_cif.got.tgz:2393.got - 2010.06.26 16:48:59.
