data_PCOD8187306
_publ_section_title
;
Structure prediction by ZEFSAII (Michael W. Deem and Ramdas Pophale) SiO2 
 PCOD8187306
Probable space group: F D D 2
;
_chemical_formula_sum "Si O2"
_cell_formula_units_Z 88
_cell_length_a 18.036325
_cell_length_b 26.218960
_cell_length_c 7.471926
_cell_angle_alpha 90.000000
_cell_angle_beta 90.000000
_cell_angle_gamma 90.000000
_cell_volume 3533.426611
_symmetry_space_group_name_H-M "F D D 2"
_symmetry_group_IT_number 43
_symmetry_cell_setting 'orthorhombic'
loop_
_space_group_symop_operation_xyz
x,y,z
-x,-y,z
1/4-x,1/4+y,1/4+z
1/4+x,1/4-y,1/4+z
x,1/2+y,1/2+z
-x,1/2-y,1/2+z
1/4-x,3/4+y,3/4+z
1/4+x,3/4-y,3/4+z
1/2+x,y,1/2+z
1/2-x,-y,1/2+z
3/4-x,1/4+y,3/4+z
3/4+x,1/4-y,3/4+z
1/2+x,1/2+y,z
1/2-x,1/2-y,z
3/4-x,3/4+y,1/4+z
3/4+x,3/4-y,1/4+z
loop_
_atom_site_type_symbol
_atom_site_label
_atom_site_fract_x
_atom_site_fract_y
_atom_site_fract_z
Si Si1 0.899887 0.798124 0.053920
Si Si2 0.494197 0.356702 0.575512
Si Si3 0.341607 0.398302 0.492569
Si Si4 0.519739 0.248790 0.230575
Si Si5 0.500000 0.500000 0.879073
Si Si6 0.228889 0.856889 0.721733
O O1 0.816880 0.777485 0.017193
O O2 0.937655 0.776596 0.236991
O O3 0.962069 0.777748 0.917150
O O4 0.907384 0.860009 0.036474
O O5 0.427488 0.385523 0.476094
O O6 0.565847 0.364185 0.447561
O O7 0.477741 0.296202 0.582847
O O8 0.506111 0.381023 0.770301
O O9 0.331044 0.457669 0.442460
O O10 0.299349 0.363518 0.349445
O O11 0.460611 0.453909 0.987629
#
# Coordination Sequence:
#
# PCOD8187306 Si02
#       6
#    16  16  16  16   8  16
#     4  10  23  43  75 103 140 194 246 298 376 443
#     4  11  25  46  71 105 147 190 246 304 372 449
#     4  11  25  47  70 107 143 193 249 301 371 454
#     4  10  21  45  70  97 142 194 232 296 373 438
#     4  12  26  46  76 108 148 194 254 312 372 440
#     4  10  27  44  71 105 149 191 242 310 373 436
#
# _framework density 24.905004999999999
#
# number of rings (size 3 to 8) (size 9 to 14) (size 15 to 20)
#    0.000    1.455    1.818    1.091   10.182    1.455 
#    6.545    0.000    0.000    0.000    0.000    0.000 
#    0.000    0.000    0.000    0.000    0.000    0.000 
#
# Total GULP energy -272553.298343 kJ/mol
# GULP energy per Si atom -12388.786288 kJ/mol
# Density = 2.484832 g / cm^3
# Si number density = 24.905005 Si / 1000 Ang^3
#
#
#
# Elastic Constant Matrix: (Units=GPa)
#
#
# Indices 1 2 3 4 5 6 
#
# 1 108.1069 38.0430 13.2857 -0.0006 0.0024 0.0003
# 2 38.0430 186.1736 18.1926 -0.0003 0.0009 0.0004
# 3 13.2857 18.1926 72.8552 -0.0004 0.0016 0.0003
# 4 -0.0006 -0.0003 -0.0004 26.4190 0.0002 0.0004
# 5 0.0024 0.0009 0.0016 0.0002 15.7596 0.0002
# 6 0.0003 0.0004 0.0003 0.0004 0.0002 37.4604
#
#
#
# Elastic Compliance Matrix: (Units=1/GPa)
#
#
# Indices 1 2 3 4 5 6 
#
# 1 0.010096 -0.001930 -0.001359 0.000000 -0.000001 0.000000
# 2 -0.001930 0.005875 -0.001115 0.000000 0.000000 0.000000
# 3 -0.001359 -0.001115 0.014252 0.000000 -0.000001 0.000000
# 4 0.000000 0.000000 0.000000 0.037851 0.000000 0.000000
# 5 -0.000001 0.000000 -0.000001 0.000000 0.063453 0.000000
# 6 0.000000 0.000000 0.000000 0.000000 0.000000 0.026695
#
#
# Mechanical properties :
#
#
# Convention : Reuss Voigt Hill
#
# Bulk Modulus (GPa) = 46.69747 56.24202 51.46975
# Shear Modulus (GPa) = 28.70761 35.76877 32.23819
#
# Velocity S-wave (km/s) = 3.39880 3.79385 3.60174
# Velocity P-wave (km/s) = 5.84751 6.46704 6.16507
#
# Compressibility (1/GPa) = 0.02141444
#
# Stress axis : x y z
#
# Youngs Moduli (GPa) = 99.04510 170.22071 70.16500
#
# Poissons Ratio (x) = 0.32858 0.09536
# Poissons Ratio (y) = 0.19119 0.07823
# Poissons Ratio (z) = 0.13462 0.18979
#
# Static dielectric constant tensor:
#      x y z
#    x 4.144100 0.000000 0.000000 
#    y 0.000000 5.006920 0.000000 
#    z 0.000000 0.000000 4.576490 
# 
# 
# High freq. dielectric constant tensor:
#      x y z
#    x 1.976300 0.000000 0.000000 
#    y 0.000000 2.015970 0.000000 
#    z 0.000000 0.000000 1.980580 
# 
# From -- ./inp_files/2932.got.cif
#   From: 2010.06.25/outbox.cif.g09.slc.cpg/sg43_2_cif.got.tgz:2932.got - 2010.06.26 16:48:59.
