data_PCOD8187033
_publ_section_title
;
Structure prediction by ZEFSAII (Michael W. Deem and Ramdas Pophale) SiO2 
 PCOD8187033
Probable space group: F D D 2
;
_chemical_formula_sum "Si O2"
_cell_formula_units_Z 112
_cell_length_a 25.077769
_cell_length_b 14.012444
_cell_length_c 14.447351
_cell_angle_alpha 90.000000
_cell_angle_beta 90.000000
_cell_angle_gamma 90.000000
_cell_volume 5076.811187
_symmetry_space_group_name_H-M "F D D 2"
_symmetry_group_IT_number 43
_symmetry_cell_setting 'orthorhombic'
loop_
_space_group_symop_operation_xyz
x,y,z
-x,-y,z
1/4-x,1/4+y,1/4+z
1/4+x,1/4-y,1/4+z
x,1/2+y,1/2+z
-x,1/2-y,1/2+z
1/4-x,3/4+y,3/4+z
1/4+x,3/4-y,3/4+z
1/2+x,y,1/2+z
1/2-x,-y,1/2+z
3/4-x,1/4+y,3/4+z
3/4+x,1/4-y,3/4+z
1/2+x,1/2+y,z
1/2-x,1/2-y,z
3/4-x,3/4+y,1/4+z
3/4+x,3/4-y,1/4+z
loop_
_atom_site_type_symbol
_atom_site_label
_atom_site_fract_x
_atom_site_fract_y
_atom_site_fract_z
Si Si1 0.531610 0.713281 0.535600
Si Si2 0.868109 0.882737 0.267404
Si Si3 0.077410 0.727582 0.447510
Si Si4 0.057957 0.046083 0.406742
Si Si5 0.776277 0.349219 0.431537
Si Si6 0.384152 0.088074 0.029940
Si Si7 0.616069 0.329852 0.808027
O O1 0.567057 0.806916 0.551048
O O2 0.481377 0.737537 0.470081
O O3 0.563137 0.635136 0.476172
O O4 0.517223 0.671986 0.637423
O O5 0.923836 0.928373 0.302880
O O6 0.868413 0.872223 0.157955
O O7 0.866663 0.779372 0.314326
O O8 0.120834 0.803031 0.491541
O O9 0.083348 0.704661 0.336793
O O10 0.088477 0.627582 0.496303
O O11 0.103137 0.972166 0.439110
O O12 0.000000 0.000000 0.405908
O O13 0.750000 0.250000 0.466521
O O14 0.816314 0.324753 0.349050
O O15 0.807014 0.402866 0.514823
#
# Coordination Sequence:
#
# PCOD8187033 Si02
#       7
#    16  16  16  16  16  16  16
#     4  11  22  45  68 106 136 176 244 291 355 432
#     4  12  27  47  64  99 150 193 230 284 359 448
#     4  10  22  42  70  99 137 181 228 303 347 425
#     4  12  23  45  73  98 139 173 237 310 352 420
#     4  10  19  42  77  99 132 170 237 320 348 394
#     4  10  20  38  71 107 131 163 236 300 373 393
#     4  11  25  48  64  98 149 192 230 291 358 435
#
# _framework density 22.061093
#
# number of rings (size 3 to 8) (size 9 to 14) (size 15 to 20)
#    0.000    1.143    5.714    2.571    2.000    0.571 
#   15.429    0.000    0.000    0.000    0.000    0.000 
#    0.000    0.000    0.000    0.000    0.000    0.000 
#
# Total GULP energy -347112.215062 kJ/mol
# GULP energy per Si atom -12396.864824 kJ/mol
# Density = 2.201088 g / cm^3
# Si number density = 22.061093 Si / 1000 Ang^3
#
#
#
# Elastic Constant Matrix: (Units=GPa)
#
#
# Indices 1 2 3 4 5 6 
#
# 1 44.0711 28.6930 13.4062 0.0000 0.0000 0.0000
# 2 28.6930 108.5897 10.3665 0.0000 0.0000 0.0000
# 3 13.4062 10.3665 93.0888 0.0000 0.0000 0.0000
# 4 0.0000 0.0000 0.0000 16.3173 0.0000 0.0000
# 5 0.0000 0.0000 0.0000 0.0000 30.9830 0.0000
# 6 0.0000 0.0000 0.0000 0.0000 0.0000 41.0781
#
#
#
# Elastic Compliance Matrix: (Units=1/GPa)
#
#
# Indices 1 2 3 4 5 6 
#
# 1 0.028366 -0.007182 -0.003285 0.000000 0.000000 0.000000
# 2 -0.007182 0.011126 -0.000205 0.000000 0.000000 0.000000
# 3 -0.003285 -0.000205 0.011238 0.000000 0.000000 0.000000
# 4 0.000000 0.000000 0.000000 0.061285 0.000000 0.000000
# 5 0.000000 0.000000 0.000000 0.000000 0.032276 0.000000
# 6 0.000000 0.000000 0.000000 0.000000 0.000000 0.024344
#
#
# Mechanical properties :
#
#
# Convention : Reuss Voigt Hill
#
# Bulk Modulus (GPa) = 34.02885 38.96458 36.49671
# Shear Modulus (GPa) = 25.02840 30.56128 27.79484
#
# Velocity S-wave (km/s) = 3.37189 3.72600 3.55336
# Velocity P-wave (km/s) = 5.53334 6.01758 5.78053
#
# Compressibility (1/GPa) = 0.02938683
#
# Stress axis : x y z
#
# Youngs Moduli (GPa) = 35.25400 89.87863 88.98084
#
# Poissons Ratio (x) = 0.64546 0.29233
# Poissons Ratio (y) = 0.25318 0.01822
# Poissons Ratio (z) = 0.11582 0.01840
#
# Static dielectric constant tensor:
#      x y z
#    x 3.867350 0.000000 0.000000 
#    y 0.000000 4.139530 0.000000 
#    z 0.000000 0.000000 4.051660 
# 
# 
# High freq. dielectric constant tensor:
#      x y z
#    x 1.851590 0.000000 0.000000 
#    y 0.000000 1.880540 0.000000 
#    z 0.000000 0.000000 1.865310 
# 
# From -- ./inp_files/11519.got.cif
#   From: 2010.06.25/outbox.cif.g09.slc.cpg/sg43_6_cif.got.tgz:11519.got - 2010.06.26 16:48:59.
