data_PCOD8187788
_publ_section_title
;
Structure prediction by ZEFSAII (Michael W. Deem and Ramdas Pophale) SiO2 
 PCOD8187788
Probable space group: F D D 2
;
_chemical_formula_sum "Si O2"
_cell_formula_units_Z 48
_cell_length_a 14.643607
_cell_length_b 14.658853
_cell_length_c 8.066109
_cell_angle_alpha 90.000000
_cell_angle_beta 90.000000
_cell_angle_gamma 90.000000
_cell_volume 1731.458717
_symmetry_space_group_name_H-M "F D D 2"
_symmetry_group_IT_number 43
_symmetry_cell_setting 'orthorhombic'
loop_
_space_group_symop_operation_xyz
x,y,z
-x,-y,z
1/4-x,1/4+y,1/4+z
1/4+x,1/4-y,1/4+z
x,1/2+y,1/2+z
-x,1/2-y,1/2+z
1/4-x,3/4+y,3/4+z
1/4+x,3/4-y,3/4+z
1/2+x,y,1/2+z
1/2-x,-y,1/2+z
3/4-x,1/4+y,3/4+z
3/4+x,1/4-y,3/4+z
1/2+x,1/2+y,z
1/2-x,1/2-y,z
3/4-x,3/4+y,1/4+z
3/4+x,3/4-y,1/4+z
loop_
_atom_site_type_symbol
_atom_site_label
_atom_site_fract_x
_atom_site_fract_y
_atom_site_fract_z
Si Si1 0.492989 0.250658 0.800300
Si Si2 0.570659 0.575016 0.373963
Si Si3 0.425072 0.427386 0.979886
O O1 0.539016 0.177096 0.929703
O O2 0.421236 0.191933 0.693179
O O3 0.442070 0.330832 0.895397
O O4 0.573422 0.288995 0.679959
O O5 0.500000 0.500000 0.440947
O O6 0.575143 0.580720 0.176781
O O7 0.500000 0.500000 0.916169
#
# Coordination Sequence:
#
# PCOD8187788 Si02
#       3
#    16  16  16
#     4  12  26  48  78 112 153 204 253 312 382 454
#     4  11  26  49  77 113 155 200 253 318 383 453
#     4  11  26  49  77 113 156 198 254 320 381 453
#
# _framework density 27.722290999999998
#
# number of rings (size 3 to 8) (size 9 to 14) (size 15 to 20)
#    0.000    0.667    0.000    8.000    0.000   10.667 
#    0.000    0.000    0.000    0.000    0.000    0.000 
#    0.000    0.000    0.000    0.000    0.000    0.000 
#
# Total GULP energy -148832.333370 kJ/mol
# GULP energy per Si atom -12402.694447 kJ/mol
# Density = 2.765919 g / cm^3
# Si number density = 27.722291 Si / 1000 Ang^3
#
#
#
# Elastic Constant Matrix: (Units=GPa)
#
#
# Indices 1 2 3 4 5 6 
#
# 1 265.6753 127.3078 48.7293 0.0000 0.0000 0.0000
# 2 127.3078 265.5230 45.1454 0.0000 0.0000 0.0000
# 3 48.7293 45.1454 53.9158 0.0000 0.0000 0.0000
# 4 0.0000 0.0000 0.0000 27.3492 0.0000 0.0000
# 5 0.0000 0.0000 0.0000 0.0000 33.8058 0.0000
# 6 0.0000 0.0000 0.0000 0.0000 0.0000 72.7721
#
#
#
# Elastic Compliance Matrix: (Units=1/GPa)
#
#
# Indices 1 2 3 4 5 6 
#
# 1 0.005297 -0.002012 -0.003103 0.000000 0.000000 0.000000
# 2 -0.002012 0.005156 -0.002498 0.000000 0.000000 0.000000
# 3 -0.003103 -0.002498 0.023444 0.000000 0.000000 0.000000
# 4 0.000000 0.000000 0.000000 0.036564 0.000000 0.000000
# 5 0.000000 0.000000 0.000000 0.000000 0.029581 0.000000
# 6 0.000000 0.000000 0.000000 0.000000 0.000000 0.013742
#
#
# Mechanical properties :
#
#
# Convention : Reuss Voigt Hill
#
# Bulk Modulus (GPa) = 53.56209 114.16433 83.86321
# Shear Modulus (GPa) = 36.97308 51.04751 44.01029
#
# Velocity S-wave (km/s) = 3.65594 4.29580 3.98872
# Velocity P-wave (km/s) = 6.09788 8.11640 7.17844
#
# Compressibility (1/GPa) = 0.01866992
#
# Stress axis : x y z
#
# Youngs Moduli (GPa) = 188.77258 193.95770 42.65535
#
# Poissons Ratio (x) = 0.39031 0.13235
# Poissons Ratio (y) = 0.37987 0.10657
# Poissons Ratio (z) = 0.58572 0.48457
#
# Static dielectric constant tensor:
#      x y z
#    x 5.933530 0.000000 0.000000 
#    y 0.000000 6.152800 0.000000 
#    z 0.000000 0.000000 4.527890 
# 
# 
# High freq. dielectric constant tensor:
#      x y z
#    x 2.149380 0.000000 0.000000 
#    y 0.000000 2.154060 0.000000 
#    z 0.000000 0.000000 2.083390 
# 
# From -- ./inp_files/2085.got.cif
#   From: 2010.06.25/outbox.cif.g09.slc.cpg/sg43_2_cif.got.tgz:2085.got - 2010.06.26 16:48:59.
