data_PCOD8187762
_publ_section_title
;
Structure prediction by ZEFSAII (Michael W. Deem and Ramdas Pophale) SiO2 
 PCOD8187762
Probable space group: F D D 2
;
_chemical_formula_sum "Si O2"
_cell_formula_units_Z 48
_cell_length_a 13.157324
_cell_length_b 22.854799
_cell_length_c 7.228198
_cell_angle_alpha 90.000000
_cell_angle_beta 90.000000
_cell_angle_gamma 90.000000
_cell_volume 2173.576931
_symmetry_space_group_name_H-M "F D D 2"
_symmetry_group_IT_number 43
_symmetry_cell_setting 'orthorhombic'
loop_
_space_group_symop_operation_xyz
x,y,z
-x,-y,z
1/4-x,1/4+y,1/4+z
1/4+x,1/4-y,1/4+z
x,1/2+y,1/2+z
-x,1/2-y,1/2+z
1/4-x,3/4+y,3/4+z
1/4+x,3/4-y,3/4+z
1/2+x,y,1/2+z
1/2-x,-y,1/2+z
3/4-x,1/4+y,3/4+z
3/4+x,1/4-y,3/4+z
1/2+x,1/2+y,z
1/2-x,1/2-y,z
3/4-x,3/4+y,1/4+z
3/4+x,3/4-y,1/4+z
loop_
_atom_site_type_symbol
_atom_site_label
_atom_site_fract_x
_atom_site_fract_y
_atom_site_fract_z
Si Si1 0.484546 0.816773 0.369880
Si Si2 0.859333 0.767648 0.530516
Si Si3 0.687809 0.691298 0.155819
O O1 0.592862 0.787011 0.415707
O O2 0.498026 0.885709 0.336348
O O3 0.415600 0.803576 0.544552
O O4 0.435026 0.791129 0.184427
O O5 0.750000 0.750000 0.619349
O O6 0.838667 0.816874 0.373669
O O7 0.750000 0.750000 0.118888
#
# Coordination Sequence:
#
# PCOD8187762 Si02
#       3
#    16  16  16
#     4  12  25  46  73 103 145 184 233 295 351 419
#     4  11  25  47  72 108 140 184 236 289 353 415
#     4  11  25  45  71 105 140 188 239 286 352 418
#
# _framework density 22.083413
#
# number of rings (size 3 to 8) (size 9 to 14) (size 15 to 20)
#    0.000    0.667    3.333    5.000    0.000    8.000 
#    0.000    0.000    0.000    0.000    0.000    0.000 
#    0.000    0.000    0.000    0.000    0.000    0.000 
#
# Total GULP energy -148827.333903 kJ/mol
# GULP energy per Si atom -12402.277825 kJ/mol
# Density = 2.203315 g / cm^3
# Si number density = 22.083413 Si / 1000 Ang^3
#
#
#
# Elastic Constant Matrix: (Units=GPa)
#
#
# Indices 1 2 3 4 5 6 
#
# 1 137.1606 63.8016 41.4815 0.0000 0.0000 0.0000
# 2 63.8016 147.1865 43.4461 0.0000 0.0000 0.0000
# 3 41.4815 43.4461 85.0573 0.0000 -0.0001 0.0000
# 4 0.0000 0.0000 0.0000 38.3180 0.0000 0.0000
# 5 0.0000 0.0000 -0.0001 0.0000 41.2767 0.0000
# 6 0.0000 0.0000 0.0000 0.0000 0.0000 30.8936
#
#
#
# Elastic Compliance Matrix: (Units=1/GPa)
#
#
# Indices 1 2 3 4 5 6 
#
# 1 0.009765 -0.003329 -0.003062 0.000000 0.000000 0.000000
# 2 -0.003329 0.009135 -0.003043 0.000000 0.000000 0.000000
# 3 -0.003062 -0.003043 0.014804 0.000000 0.000000 0.000000
# 4 0.000000 0.000000 0.000000 0.026097 0.000000 0.000000
# 5 0.000000 0.000000 0.000000 0.000000 0.024227 0.000000
# 6 0.000000 0.000000 0.000000 0.000000 0.000000 0.032369
#
#
# Mechanical properties :
#
#
# Convention : Reuss Voigt Hill
#
# Bulk Modulus (GPa) = 67.39733 74.09588 70.74660
# Shear Modulus (GPa) = 35.66041 36.80932 36.23486
#
# Velocity S-wave (km/s) = 4.02282 4.08711 4.05510
# Velocity P-wave (km/s) = 7.22241 7.47651 7.35056
#
# Compressibility (1/GPa) = 0.01483738
#
# Stress axis : x y z
#
# Youngs Moduli (GPa) = 102.40270 109.46505 67.54852
#
# Poissons Ratio (x) = 0.36443 0.20683
# Poissons Ratio (y) = 0.34092 0.20552
# Poissons Ratio (z) = 0.31355 0.33306
#
# Static dielectric constant tensor:
#      x y z
#    x 4.197460 0.000000 0.000000 
#    y 0.000000 3.869600 0.000000 
#    z 0.000000 0.000000 4.044930 
# 
# 
# High freq. dielectric constant tensor:
#      x y z
#    x 1.890320 0.000000 0.000000 
#    y 0.000000 1.861830 0.000000 
#    z 0.000000 0.000000 1.874210 
# 
# From -- ./inp_files/1821.got.cif
#   From: 2010.06.25/outbox.cif.g09.slc.cpg/sg43_1_cif.got.tgz:1821.got - 2010.06.26 16:48:59.
