data_PCOD8187863
_publ_section_title
;
Structure prediction by ZEFSAII (Michael W. Deem and Ramdas Pophale) SiO2 
 PCOD8187863
Probable space group: F D D 2
;
_chemical_formula_sum "Si O2"
_cell_formula_units_Z 56
_cell_length_a 14.759327
_cell_length_b 21.679541
_cell_length_c 6.698639
_cell_angle_alpha 90.000000
_cell_angle_beta 90.000000
_cell_angle_gamma 90.000000
_cell_volume 2143.399927
_symmetry_space_group_name_H-M "F D D 2"
_symmetry_group_IT_number 43
_symmetry_cell_setting 'orthorhombic'
loop_
_space_group_symop_operation_xyz
x,y,z
-x,-y,z
1/4-x,1/4+y,1/4+z
1/4+x,1/4-y,1/4+z
x,1/2+y,1/2+z
-x,1/2-y,1/2+z
1/4-x,3/4+y,3/4+z
1/4+x,3/4-y,3/4+z
1/2+x,y,1/2+z
1/2-x,-y,1/2+z
3/4-x,1/4+y,3/4+z
3/4+x,1/4-y,3/4+z
1/2+x,1/2+y,z
1/2-x,1/2-y,z
3/4-x,3/4+y,1/4+z
3/4+x,3/4-y,1/4+z
loop_
_atom_site_type_symbol
_atom_site_label
_atom_site_fract_x
_atom_site_fract_y
_atom_site_fract_z
Si Si1 0.750000 0.750000 0.484581
Si Si2 0.504261 0.401935 0.521075
Si Si3 0.298769 0.077284 0.097644
Si Si4 0.931975 0.290952 0.790397
O O1 0.801548 0.699736 0.631593
O O2 0.826528 0.781589 0.346638
O O3 0.603994 0.430359 0.491827
O O4 0.483742 0.394852 0.759627
O O5 0.488064 0.332108 0.446467
O O6 0.310059 0.078889 0.334110
O O7 0.230644 0.024635 0.023350
#
# Coordination Sequence:
#
# PCOD8187863 Si02
#       4
#     8  16  16  16
#     4  12  30  54  88 114 170 220 278 340 416 498
#     4  12  29  51  81 119 161 213 277 342 412 489
#     4  12  29  50  84 115 167 208 275 337 414 486
#     4  12  29  56  79 123 161 224 274 337 412 501
#
# _framework density 26.126715999999998
#
# number of rings (size 3 to 8) (size 9 to 14) (size 15 to 20)
#    0.000    0.000    5.714    0.000   16.000    1.143 
#    0.000    0.000    0.000    0.000    0.000    0.000 
#    0.000    0.000    0.000    0.000    0.000    0.000 
#
# Total GULP energy -173435.404149 kJ/mol
# GULP energy per Si atom -12388.243154 kJ/mol
# Density = 2.606725 g / cm^3
# Si number density = 26.126716 Si / 1000 Ang^3
#
#
#
# Elastic Constant Matrix: (Units=GPa)
#
#
# Indices 1 2 3 4 5 6 
#
# 1 115.5163 36.6800 63.3070 0.0000 0.0002 0.0000
# 2 36.6800 84.6160 67.9780 0.0000 0.0005 0.0000
# 3 63.3070 67.9780 176.6918 -0.0002 0.0010 0.0001
# 4 0.0000 0.0000 -0.0002 50.8614 0.0001 0.0000
# 5 0.0002 0.0005 0.0010 0.0001 29.4281 0.0000
# 6 0.0000 0.0000 0.0001 0.0000 0.0000 42.0694
#
#
#
# Elastic Compliance Matrix: (Units=1/GPa)
#
#
# Indices 1 2 3 4 5 6 
#
# 1 0.011082 -0.002336 -0.003072 0.000000 0.000000 0.000000
# 2 -0.002336 0.017597 -0.005933 0.000000 0.000000 0.000000
# 3 -0.003072 -0.005933 0.009043 0.000000 0.000000 0.000000
# 4 0.000000 0.000000 0.000000 0.019661 0.000000 0.000000
# 5 0.000000 0.000000 0.000000 0.000000 0.033981 0.000000
# 6 0.000000 0.000000 0.000000 0.000000 0.000000 0.023770
#
#
# Mechanical properties :
#
#
# Convention : Reuss Voigt Hill
#
# Bulk Modulus (GPa) = 66.48942 79.19490 72.84216
# Shear Modulus (GPa) = 35.00659 38.39573 36.70116
#
# Velocity S-wave (km/s) = 3.66440 3.83769 3.75205
# Velocity P-wave (km/s) = 6.58847 7.07211 6.83457
#
# Compressibility (1/GPa) = 0.01503999
#
# Stress axis : x y z
#
# Youngs Moduli (GPa) = 90.23601 56.82702 110.58518
#
# Poissons Ratio (x) = 0.13275 0.33970
# Poissons Ratio (y) = 0.21080 0.65611
# Poissons Ratio (z) = 0.27719 0.33716
#
# Static dielectric constant tensor:
#      x y z
#    x 4.585970 0.000000 0.000000 
#    y 0.000000 4.561170 0.000000 
#    z 0.000000 0.000000 5.127930 
# 
# 
# High freq. dielectric constant tensor:
#      x y z
#    x 2.035350 0.000000 0.000000 
#    y 0.000000 2.036980 0.000000 
#    z 0.000000 0.000000 2.077620 
# 
# From -- ./inp_files/2168.got.cif
#   From: 2010.06.25/outbox.cif.g09.slc.cpg/sg43_2_cif.got.tgz:2168.got - 2010.06.26 16:48:59.
