data_PCOD8187603
_publ_section_title
;
Structure prediction by ZEFSAII (Michael W. Deem and Ramdas Pophale) SiO2 
 PCOD8187603
Probable space group: F D D 2
;
_chemical_formula_sum "Si O2"
_cell_formula_units_Z 96
_cell_length_a 11.874567
_cell_length_b 24.266853
_cell_length_c 14.802487
_cell_angle_alpha 90.000000
_cell_angle_beta 90.000000
_cell_angle_gamma 90.000000
_cell_volume 4265.460553
_symmetry_space_group_name_H-M "F D D 2"
_symmetry_group_IT_number 43
_symmetry_cell_setting 'orthorhombic'
loop_
_space_group_symop_operation_xyz
x,y,z
-x,-y,z
1/4-x,1/4+y,1/4+z
1/4+x,1/4-y,1/4+z
x,1/2+y,1/2+z
-x,1/2-y,1/2+z
1/4-x,3/4+y,3/4+z
1/4+x,3/4-y,3/4+z
1/2+x,y,1/2+z
1/2-x,-y,1/2+z
3/4-x,1/4+y,3/4+z
3/4+x,1/4-y,3/4+z
1/2+x,1/2+y,z
1/2-x,1/2-y,z
3/4-x,3/4+y,1/4+z
3/4+x,3/4-y,1/4+z
loop_
_atom_site_type_symbol
_atom_site_label
_atom_site_fract_x
_atom_site_fract_y
_atom_site_fract_z
Si Si1 0.527045 0.936266 0.113890
Si Si2 0.389004 0.406356 0.339944
Si Si3 0.489273 0.255696 0.159169
Si Si4 0.386511 0.599681 0.429762
Si Si5 0.990120 0.783068 0.964799
Si Si6 0.887501 0.531036 0.582868
O O1 0.423776 0.908642 0.167869
O O2 0.640012 0.930769 0.173203
O O3 0.500000 0.000000 0.093682
O O4 0.543868 0.901005 0.022846
O O5 0.332700 0.445386 0.417222
O O6 0.524598 0.410383 0.347979
O O7 0.346128 0.427514 0.241700
O O8 0.344459 0.344874 0.353479
O O9 0.543141 0.197484 0.184018
O O10 0.388650 0.269093 0.227771
O O11 0.443281 0.253309 0.055959
O O12 0.031773 0.738597 0.892469
O O13 0.000000 0.500000 0.611782
#
# Coordination Sequence:
#
# PCOD8187603 Si02
#       6
#    16  16  16  16  16  16
#     4  12  28  49  75 112 155 198 256 312 384 457
#     4  10  27  45  73 106 150 190 254 305 372 451
#     4  10  26  47  73 108 148 191 251 307 375 442
#     4  12  27  46  80 105 153 197 251 316 377 450
#     4  10  27  47  72 107 152 192 255 305 374 450
#     4  12  27  46  79 106 149 199 248 310 379 438
#
# _framework density 22.506363
#
# number of rings (size 3 to 8) (size 9 to 14) (size 15 to 20)
#    1.000    0.000    1.667    2.500   14.000    2.000 
#    0.000    0.000    0.000    0.000    0.000    0.000 
#    0.000    0.000    0.000    0.000    0.000    0.000 
#
# Total GULP energy -297618.652646 kJ/mol
# GULP energy per Si atom -12400.777194 kJ/mol
# Density = 2.245514 g / cm^3
# Si number density = 22.506363 Si / 1000 Ang^3
#
#
#
# Elastic Constant Matrix: (Units=GPa)
#
#
# Indices 1 2 3 4 5 6 
#
# 1 87.0501 26.0946 33.8497 0.0000 0.0000 0.0000
# 2 26.0946 124.1124 23.9964 0.0000 0.0000 0.0000
# 3 33.8497 23.9964 112.9119 0.0000 0.0000 0.0000
# 4 0.0000 0.0000 0.0000 21.7782 0.0000 0.0000
# 5 0.0000 0.0000 0.0000 0.0000 47.6714 0.0000
# 6 0.0000 0.0000 0.0000 0.0000 0.0000 36.3256
#
#
#
# Elastic Compliance Matrix: (Units=1/GPa)
#
#
# Indices 1 2 3 4 5 6 
#
# 1 0.013532 -0.002149 -0.003600 0.000000 0.000000 0.000000
# 2 -0.002149 0.008744 -0.001214 0.000000 0.000000 0.000000
# 3 -0.003600 -0.001214 0.010194 0.000000 0.000000 0.000000
# 4 0.000000 0.000000 0.000000 0.045917 0.000000 0.000000
# 5 0.000000 0.000000 0.000000 0.000000 0.020977 0.000000
# 6 0.000000 0.000000 0.000000 0.000000 0.000000 0.027529
#
#
# Mechanical properties :
#
#
# Convention : Reuss Voigt Hill
#
# Bulk Modulus (GPa) = 53.92800 54.66176 54.29488
# Shear Modulus (GPa) = 34.01377 37.16395 35.58886
#
# Velocity S-wave (km/s) = 3.89176 4.06798 3.98085
# Velocity P-wave (km/s) = 6.64888 6.81209 6.73098
#
# Compressibility (1/GPa) = 0.01854324
#
# Stress axis : x y z
#
# Youngs Moduli (GPa) = 73.90064 114.36729 98.09994
#
# Poissons Ratio (x) = 0.24578 0.35315
# Poissons Ratio (y) = 0.15881 0.11909
# Poissons Ratio (z) = 0.26604 0.13884
#
# Static dielectric constant tensor:
#      x y z
#    x 3.845170 0.000000 0.000000 
#    y 0.000000 3.896920 0.000000 
#    z 0.000000 0.000000 4.032660 
# 
# 
# High freq. dielectric constant tensor:
#      x y z
#    x 1.882690 0.000000 0.000000 
#    y 0.000000 1.888520 0.000000 
#    z 0.000000 0.000000 1.885000 
# 
# From -- ./inp_files/13330.got.cif
#   From: 2010.06.25/outbox.cif.g09.slc.cpg/sg43_7_cif.got.tgz:13330.got - 2010.06.26 16:48:59.
