data_PCOD8187770
_publ_section_title
;
Structure prediction by ZEFSAII (Michael W. Deem and Ramdas Pophale) SiO2 
 PCOD8187770
Probable space group: F D D 2
;
_chemical_formula_sum "Si O2"
_cell_formula_units_Z 64
_cell_length_a 13.910322
_cell_length_b 20.469596
_cell_length_c 10.118854
_cell_angle_alpha 90.000000
_cell_angle_beta 90.000000
_cell_angle_gamma 90.000000
_cell_volume 2881.229046
_symmetry_space_group_name_H-M "F D D 2"
_symmetry_group_IT_number 43
_symmetry_cell_setting 'orthorhombic'
loop_
_space_group_symop_operation_xyz
x,y,z
-x,-y,z
1/4-x,1/4+y,1/4+z
1/4+x,1/4-y,1/4+z
x,1/2+y,1/2+z
-x,1/2-y,1/2+z
1/4-x,3/4+y,3/4+z
1/4+x,3/4-y,3/4+z
1/2+x,y,1/2+z
1/2-x,-y,1/2+z
3/4-x,1/4+y,3/4+z
3/4+x,1/4-y,3/4+z
1/2+x,1/2+y,z
1/2-x,1/2-y,z
3/4-x,3/4+y,1/4+z
3/4+x,3/4-y,1/4+z
loop_
_atom_site_type_symbol
_atom_site_label
_atom_site_fract_x
_atom_site_fract_y
_atom_site_fract_z
Si Si1 0.753506 0.619360 0.621190
Si Si2 0.000000 0.500000 0.458937
Si Si3 0.500000 0.500000 0.534214
Si Si4 0.414277 0.752394 0.496058
Si Si5 0.711000 0.121742 0.837215
O O1 0.747491 0.688131 0.690966
O O2 0.728832 0.562855 0.727695
O O3 0.684715 0.612905 0.493423
O O4 0.852867 0.615091 0.536845
O O5 0.903009 0.501330 0.373530
O O6 0.017863 0.562566 0.551167
O O7 0.596402 0.491421 0.619151
O O8 0.489458 0.811540 0.511516
#
# Coordination Sequence:
#
# PCOD8187770 Si02
#       5
#    16   8   8  16  16
#     4  12  26  45  71 104 137 177 228 285 340 407
#     4  11  25  48  70  98 141 181 228 278 338 415
#     4  11  25  48  70  98 141 181 228 278 338 415
#     4  11  26  46  69 102 138 184 223 278 348 405
#     4  12  26  45  71 104 137 177 228 285 340 407
#
# _framework density 22.212744000000001
#
# number of rings (size 3 to 8) (size 9 to 14) (size 15 to 20)
#    0.000    0.500    5.000    2.250    7.000    0.000 
#    9.000    0.000    0.000    0.000    0.000    0.000 
#    0.000    0.000    0.000    0.000    0.000    0.000 
#
# Total GULP energy -198285.174844 kJ/mol
# GULP energy per Si atom -12392.823428 kJ/mol
# Density = 2.216219 g / cm^3
# Si number density = 22.212744 Si / 1000 Ang^3
#
#
#
# Elastic Constant Matrix: (Units=GPa)
#
#
# Indices 1 2 3 4 5 6 
#
# 1 100.4977 48.2704 9.8107 0.0000 0.0000 0.0000
# 2 48.2704 206.5757 63.4642 0.0000 0.0000 0.0000
# 3 9.8107 63.4642 96.3029 0.0000 0.0000 0.0000
# 4 0.0000 0.0000 0.0000 43.4697 0.0000 0.0000
# 5 0.0000 0.0000 0.0000 0.0000 4.9044 0.0000
# 6 0.0000 0.0000 0.0000 0.0000 0.0000 38.6703
#
#
#
# Elastic Compliance Matrix: (Units=1/GPa)
#
#
# Indices 1 2 3 4 5 6 
#
# 1 0.011250 -0.002855 0.000735 0.000000 0.000000 0.000000
# 2 -0.002855 0.006794 -0.004187 0.000000 0.000000 0.000000
# 3 0.000735 -0.004187 0.013068 0.000000 0.000000 0.000000
# 4 0.000000 0.000000 0.000000 0.023005 0.000000 0.000000
# 5 0.000000 0.000000 0.000000 0.000000 0.203896 0.000000
# 6 0.000000 0.000000 0.000000 0.000000 0.000000 0.025860
#
#
# Mechanical properties :
#
#
# Convention : Reuss Voigt Hill
#
# Bulk Modulus (GPa) = 54.05441 71.82965 62.94203
# Shear Modulus (GPa) = 16.52068 36.19764 26.35916
#
# Velocity S-wave (km/s) = 2.73013 4.04120 3.44854
# Velocity P-wave (km/s) = 5.85883 7.36087 6.65238
#
# Compressibility (1/GPa) = 0.01849988
#
# Stress axis : x y z
#
# Youngs Moduli (GPa) = 88.89047 147.18757 76.52310
#
# Poissons Ratio (x) = 0.42016 -0.05626
# Poissons Ratio (y) = 0.25375 0.32037
# Poissons Ratio (z) = -0.06535 0.61620
#
# Static dielectric constant tensor:
#      x y z
#    x 4.297030 0.000000 0.000000 
#    y 0.000000 3.983720 0.000000 
#    z 0.000000 0.000000 3.873090 
# 
# 
# High freq. dielectric constant tensor:
#      x y z
#    x 1.893190 0.000000 0.000000 
#    y 0.000000 1.883560 0.000000 
#    z 0.000000 0.000000 1.882040 
# 
# From -- ./inp_files/2276.got.cif
#   From: 2010.06.25/outbox.cif.g09.slc.cpg/sg43_2_cif.got.tgz:2276.got - 2010.06.26 16:48:59.
