data_PCOD8187878
_publ_section_title
;
Structure prediction by ZEFSAII (Michael W. Deem and Ramdas Pophale) SiO2 
 PCOD8187878
Probable space group: I M M 2
;
_chemical_formula_sum "Si O2"
_cell_formula_units_Z 48
_cell_length_a 21.355240
_cell_length_b 13.823071
_cell_length_c 10.378589
_cell_angle_alpha 90.000000
_cell_angle_beta 90.000000
_cell_angle_gamma 90.000000
_cell_volume 3063.707567
_symmetry_space_group_name_H-M "I M M 2"
_symmetry_group_IT_number 44
_symmetry_cell_setting 'orthorhombic'
loop_
_space_group_symop_operation_xyz
x,y,z
-x,-y,z
-x,y,z
x,-y,z
1/2+x,1/2+y,1/2+z
1/2-x,1/2-y,1/2+z
1/2-x,1/2+y,1/2+z
1/2+x,1/2-y,1/2+z
loop_
_atom_site_type_symbol
_atom_site_label
_atom_site_fract_x
_atom_site_fract_y
_atom_site_fract_z
Si Si1 0.301543 0.710766 0.818710
Si Si2 0.571941 0.216048 0.134157
Si Si3 0.835992 0.390950 0.461505
Si Si4 0.302461 0.389234 0.559362
Si Si5 0.359026 0.610708 0.054854
Si Si6 0.668871 0.291778 0.304810
O O1 0.334397 0.815152 0.843155
O O2 0.325641 0.671556 0.682142
O O3 0.226781 0.719415 0.818573
O O4 0.317320 0.633927 0.930289
O O5 0.500000 0.189169 0.154444
O O6 0.580198 0.317945 0.056069
O O7 0.606420 0.228507 0.273263
O O8 0.605621 0.130361 0.054954
O O9 0.841570 0.500000 0.407436
O O10 0.772008 0.376023 0.541286
O O11 0.320287 0.500000 0.582687
O O12 0.340772 0.352113 0.435333
O O13 0.381111 0.500000 0.052679
O O14 0.318842 0.634033 0.184745
#
# Coordination Sequence:
#
# PCOD8187878 Si02
#       6
#     8   8   8   8   8   8
#     4  10  16  30  46  71  99 129 155 205 249 292
#     4   9  18  32  50  70  97 128 166 207 236 274
#     4   9  18  31  48  71  98 130 170 204 243 289
#     4  10  17  27  48  73 103 131 154 196 251 304
#     4   9  18  30  47  71  98 128 162 199 244 291
#     4   9  17  30  44  69 101 128 161 198 236 292
#
# _framework density 15.667291000000001
#
# number of rings (size 3 to 8) (size 9 to 14) (size 15 to 20)
#    1.000    1.667    1.667    2.000    0.000    1.333 
#    0.000    0.000    0.000    5.000    0.000    0.000 
#    0.000    0.000    0.000    0.000    0.000    0.000 
#
# Total GULP energy -297367.994962 kJ/mol
# GULP energy per Si atom -12390.333123 kJ/mol
# Density = 1.563163 g / cm^3
# Si number density = 15.667291 Si / 1000 Ang^3
#
#
#
# Elastic Constant Matrix: (Units=GPa)
#
#
# Indices 1 2 3 4 5 6 
#
# 1 80.0212 11.5364 27.2398 0.0000 0.0000 0.0000
# 2 11.5364 76.3287 45.1763 0.0000 0.0000 0.0000
# 3 27.2398 45.1763 122.9530 0.0000 0.0000 0.0000
# 4 0.0000 0.0000 0.0000 25.2013 0.0000 0.0000
# 5 0.0000 0.0000 0.0000 0.0000 17.6716 0.0000
# 6 0.0000 0.0000 0.0000 0.0000 0.0000 11.9742
#
#
#
# Elastic Compliance Matrix: (Units=1/GPa)
#
#
# Indices 1 2 3 4 5 6 
#
# 1 0.013523 -0.000346 -0.002869 0.000000 0.000000 0.000000
# 2 -0.000346 0.016751 -0.006078 0.000000 0.000000 0.000000
# 3 -0.002869 -0.006078 0.011002 0.000000 0.000000 0.000000
# 4 0.000000 0.000000 0.000000 0.039680 0.000000 0.000000
# 5 0.000000 0.000000 0.000000 0.000000 0.056588 0.000000
# 6 0.000000 0.000000 0.000000 0.000000 0.000000 0.083513
#
#
# Mechanical properties :
#
#
# Convention : Reuss Voigt Hill
#
# Bulk Modulus (GPa) = 44.07172 49.68976 46.88074
# Shear Modulus (GPa) = 20.22603 23.99281 22.10942
#
# Velocity S-wave (km/s) = 3.59691 3.91755 3.76065
# Velocity P-wave (km/s) = 6.74101 7.22823 6.98887
#
# Compressibility (1/GPa) = 0.02269029
#
# Stress axis : x y z
#
# Youngs Moduli (GPa) = 73.94729 59.69819 90.89218
#
# Poissons Ratio (x) = 0.02065 0.26076
# Poissons Ratio (y) = 0.02558 0.55245
# Poissons Ratio (z) = 0.21215 0.36285
#
# Static dielectric constant tensor:
#      x y z
#    x 2.570630 0.000000 0.000000 
#    y 0.000000 2.980300 0.000000 
#    z 0.000000 0.000000 2.957650 
# 
# 
# High freq. dielectric constant tensor:
#      x y z
#    x 1.558500 0.000000 0.000000 
#    y 0.000000 1.603640 0.000000 
#    z 0.000000 0.000000 1.594430 
# 
# From -- ./inp_files/14371.got.cif
#   From: 2010.03.12/outbox.cif.g09.slc.cpg/sg44_8_cif.got.tgz:14371.got - 2010.04.14 02:36:11.
