data_PCOD8187545
_publ_section_title
;
Structure prediction by ZEFSAII (Michael W. Deem and Ramdas Pophale) SiO2 
 PCOD8187545
Probable space group: F D D 2
;
_chemical_formula_sum "Si O2"
_cell_formula_units_Z 104
_cell_length_a 10.941534
_cell_length_b 29.138833
_cell_length_c 15.654902
_cell_angle_alpha 90.000000
_cell_angle_beta 90.000000
_cell_angle_gamma 90.000000
_cell_volume 4991.151149
_symmetry_space_group_name_H-M "F D D 2"
_symmetry_group_IT_number 43
_symmetry_cell_setting 'orthorhombic'
loop_
_space_group_symop_operation_xyz
x,y,z
-x,-y,z
1/4-x,1/4+y,1/4+z
1/4+x,1/4-y,1/4+z
x,1/2+y,1/2+z
-x,1/2-y,1/2+z
1/4-x,3/4+y,3/4+z
1/4+x,3/4-y,3/4+z
1/2+x,y,1/2+z
1/2-x,-y,1/2+z
3/4-x,1/4+y,3/4+z
3/4+x,1/4-y,3/4+z
1/2+x,1/2+y,z
1/2-x,1/2-y,z
3/4-x,3/4+y,1/4+z
3/4+x,3/4-y,1/4+z
loop_
_atom_site_type_symbol
_atom_site_label
_atom_site_fract_x
_atom_site_fract_y
_atom_site_fract_z
Si Si1 0.242207 0.302693 0.193590
Si Si2 0.662642 0.629682 0.516554
Si Si3 0.055934 0.215125 0.064862
Si Si4 0.250000 0.750000 0.436327
Si Si5 0.480748 0.049814 0.020510
Si Si6 0.174039 0.126248 0.327434
Si Si7 0.277071 0.554417 0.390857
O O1 0.250000 0.250000 0.223617
O O2 0.340142 0.310368 0.119376
O O3 0.271036 0.333030 0.273791
O O4 0.111893 0.318803 0.157738
O O5 0.590789 0.582873 0.497618
O O6 0.715100 0.640810 0.422706
O O7 0.777130 0.622679 0.578381
O O8 0.575402 0.667720 0.558642
O O9 0.971405 0.250202 0.118251
O O10 0.969505 0.172737 0.038082
O O11 0.126013 0.245896 0.992620
O O12 0.263500 0.794836 0.374452
O O13 0.500000 0.000000 0.977459
O O14 0.353459 0.066362 0.977316
#
# Coordination Sequence:
#
# PCOD8187545 Si02
#       7
#    16  16  16   8  16  16  16
#     4  10  24  45  70  99 141 180 225 287 347 413
#     4  12  26  44  68 105 139 185 229 287 345 412
#     4  11  23  47  69 104 137 185 228 286 353 409
#     4  10  24  42  74 100 130 178 234 294 324 432
#     4  10  25  42  70 100 136 177 232 288 342 402
#     4  12  26  45  70 100 146 179 225 292 347 413
#     4  11  24  44  73  95 139 184 231 283 348 413
#
# _framework density 20.836876
#
# number of rings (size 3 to 8) (size 9 to 14) (size 15 to 20)
#    0.462    0.615    5.385    0.923    6.462    2.462 
#    2.769    0.000    0.000    0.000    0.000    0.000 
#    0.000    0.000    0.000    0.000    0.000    0.000 
#
# Total GULP energy -322164.165201 kJ/mol
# GULP energy per Si atom -12390.929431 kJ/mol
# Density = 2.078945 g / cm^3
# Si number density = 20.836876 Si / 1000 Ang^3
#
#
#
# Elastic Constant Matrix: (Units=GPa)
#
#
# Indices 1 2 3 4 5 6 
#
# 1 91.9786 54.9738 29.4867 0.0000 0.0000 0.0000
# 2 54.9738 78.3984 31.7207 0.0000 0.0000 0.0000
# 3 29.4867 31.7207 113.5952 0.0000 0.0000 0.0000
# 4 0.0000 0.0000 0.0000 35.3881 0.0000 0.0000
# 5 0.0000 0.0000 0.0000 0.0000 36.7860 0.0000
# 6 0.0000 0.0000 0.0000 0.0000 0.0000 31.7446
#
#
#
# Elastic Compliance Matrix: (Units=1/GPa)
#
#
# Indices 1 2 3 4 5 6 
#
# 1 0.018900 -0.012703 -0.001359 0.000000 0.000000 0.000000
# 2 -0.012703 0.022918 -0.003102 0.000000 0.000000 0.000000
# 3 -0.001359 -0.003102 0.010022 0.000000 0.000000 0.000000
# 4 0.000000 0.000000 0.000000 0.028258 0.000000 0.000000
# 5 0.000000 0.000000 0.000000 0.000000 0.027184 0.000000
# 6 0.000000 0.000000 0.000000 0.000000 0.000000 0.031501
#
#
# Mechanical properties :
#
#
# Convention : Reuss Voigt Hill
#
# Bulk Modulus (GPa) = 57.10364 57.37048 57.23706
# Shear Modulus (GPa) = 27.94075 31.96983 29.95529
#
# Velocity S-wave (km/s) = 3.66584 3.92125 3.79570
# Velocity P-wave (km/s) = 6.73665 6.93502 6.83656
#
# Compressibility (1/GPa) = 0.01751202
#
# Stress axis : x y z
#
# Youngs Moduli (GPa) = 52.90964 43.63343 99.77862
#
# Poissons Ratio (x) = 0.55428 0.13557
# Poissons Ratio (y) = 0.67212 0.30954
# Poissons Ratio (z) = 0.07189 0.13536
#
# Static dielectric constant tensor:
#      x y z
#    x 3.875900 0.000000 0.000000 
#    y 0.000000 3.648950 0.000000 
#    z 0.000000 0.000000 3.803230 
# 
# 
# High freq. dielectric constant tensor:
#      x y z
#    x 1.823460 0.000000 0.000000 
#    y 0.000000 1.809570 0.000000 
#    z 0.000000 0.000000 1.814730 
# 
# From -- ./inp_files/13430.got.cif
#   From: 2010.06.25/outbox.cif.g09.slc.cpg/sg43_7_cif.got.tgz:13430.got - 2010.06.26 16:48:59.
