data_PCOD8187172
_publ_section_title
;
Structure prediction by ZEFSAII (Michael W. Deem and Ramdas Pophale) SiO2 
 PCOD8187172
Probable space group: F D D 2
;
_chemical_formula_sum "Si O2"
_cell_formula_units_Z 72
_cell_length_a 22.083854
_cell_length_b 7.563093
_cell_length_c 18.050073
_cell_angle_alpha 90.000000
_cell_angle_beta 90.000000
_cell_angle_gamma 90.000000
_cell_volume 3014.763654
_symmetry_space_group_name_H-M "F D D 2"
_symmetry_group_IT_number 43
_symmetry_cell_setting 'orthorhombic'
loop_
_space_group_symop_operation_xyz
x,y,z
-x,-y,z
1/4-x,1/4+y,1/4+z
1/4+x,1/4-y,1/4+z
x,1/2+y,1/2+z
-x,1/2-y,1/2+z
1/4-x,3/4+y,3/4+z
1/4+x,3/4-y,3/4+z
1/2+x,y,1/2+z
1/2-x,-y,1/2+z
3/4-x,1/4+y,3/4+z
3/4+x,1/4-y,3/4+z
1/2+x,1/2+y,z
1/2-x,1/2-y,z
3/4-x,3/4+y,1/4+z
3/4+x,3/4-y,1/4+z
loop_
_atom_site_type_symbol
_atom_site_label
_atom_site_fract_x
_atom_site_fract_y
_atom_site_fract_z
Si Si1 0.500000 0.500000 0.938680
Si Si2 0.677921 0.252953 0.356706
Si Si3 0.647114 0.060971 0.966022
Si Si4 0.380668 0.794294 0.711447
Si Si5 0.240933 0.055682 0.047293
O O1 0.561335 0.500225 0.986940
O O2 0.499348 0.674983 0.885756
O O3 0.750000 0.250000 0.357114
O O4 0.656224 0.253094 0.271717
O O5 0.651669 0.425804 0.397876
O O6 0.650827 0.075666 0.392623
O O7 0.709789 0.073901 0.012335
O O8 0.865341 0.245443 0.933528
O O9 0.423128 0.761383 0.782121
O O10 0.250000 0.250000 0.008714
#
# Coordination Sequence:
#
# PCOD8187172 Si02
#       5
#     8  16  16  16  16
#     4  10  24  44  72 100 150 186 228 324 356 424
#     4  12  26  49  72 111 157 192 251 323 371 449
#     4  12  26  44  78 108 142 205 247 301 384 454
#     4  12  24  45  72 104 144 192 250 294 373 448
#     4  10  20  45  72  97 142 193 231 306 367 427
#
# _framework density 23.882470000000001
#
# number of rings (size 3 to 8) (size 9 to 14) (size 15 to 20)
#    0.667    0.000    6.667    0.667    3.111    1.778 
#    0.000    0.000    0.000    0.000    0.000    0.000 
#    0.000    0.000    0.000    0.000    0.000    0.000 
#
# Total GULP energy -223181.088351 kJ/mol
# GULP energy per Si atom -12398.949353 kJ/mol
# Density = 2.382811 g / cm^3
# Si number density = 23.882470 Si / 1000 Ang^3
#
#
#
# Elastic Constant Matrix: (Units=GPa)
#
#
# Indices 1 2 3 4 5 6 
#
# 1 196.4481 52.1218 30.5995 0.0000 0.0000 0.0000
# 2 52.1218 146.9242 24.9504 0.0000 0.0000 0.0000
# 3 30.5995 24.9504 43.9489 0.0000 0.0000 0.0000
# 4 0.0000 0.0000 0.0000 11.5733 0.0000 0.0000
# 5 0.0000 0.0000 0.0000 0.0000 42.4645 0.0000
# 6 0.0000 0.0000 0.0000 0.0000 0.0000 26.7911
#
#
#
# Elastic Compliance Matrix: (Units=1/GPa)
#
#
# Indices 1 2 3 4 5 6 
#
# 1 0.006022 -0.001576 -0.003298 0.000000 0.000000 0.000000
# 2 -0.001576 0.007945 -0.003413 0.000000 0.000000 0.000000
# 3 -0.003298 -0.003413 0.026988 0.000000 0.000000 0.000000
# 4 0.000000 0.000000 0.000000 0.086406 0.000000 0.000000
# 5 0.000000 0.000000 0.000000 0.000000 0.023549 0.000000
# 6 0.000000 0.000000 0.000000 0.000000 0.000000 0.037326
#
#
# Mechanical properties :
#
#
# Convention : Reuss Voigt Hill
#
# Bulk Modulus (GPa) = 41.01711 66.96273 53.98992
# Shear Modulus (GPa) = 23.48108 34.80909 29.14508
#
# Velocity S-wave (km/s) = 3.13899 3.82188 3.49715
# Velocity P-wave (km/s) = 5.50904 6.89747 6.24198
#
# Compressibility (1/GPa) = 0.02438007
#
# Stress axis : x y z
#
# Youngs Moduli (GPa) = 166.04721 125.86480 37.05402
#
# Poissons Ratio (x) = 0.19841 0.12221
# Poissons Ratio (y) = 0.26175 0.12646
# Poissons Ratio (z) = 0.54765 0.42957
#
# Static dielectric constant tensor:
#      x y z
#    x 4.473480 0.000000 0.000000 
#    y 0.000000 4.292490 0.000000 
#    z 0.000000 0.000000 3.854530 
# 
# 
# High freq. dielectric constant tensor:
#      x y z
#    x 1.963550 0.000000 0.000000 
#    y 0.000000 1.942680 0.000000 
#    z 0.000000 0.000000 1.919510 
# 
# From -- ./inp_files/21994.got.cif
#   From: 2010.06.25/outbox.cif.g09.slc.cpg/sg43_11_cif.got.tgz:21994.got - 2010.06.26 16:48:59.
