data_PCOD8187321
_publ_section_title
;
Structure prediction by ZEFSAII (Michael W. Deem and Ramdas Pophale) SiO2 
 PCOD8187321
Probable space group: F D D 2
;
_chemical_formula_sum "Si O2"
_cell_formula_units_Z 112
_cell_length_a 9.902908
_cell_length_b 18.957588
_cell_length_c 30.850759
_cell_angle_alpha 90.000000
_cell_angle_beta 90.000000
_cell_angle_gamma 90.000000
_cell_volume 5791.774949
_symmetry_space_group_name_H-M "F D D 2"
_symmetry_group_IT_number 43
_symmetry_cell_setting 'orthorhombic'
loop_
_space_group_symop_operation_xyz
x,y,z
-x,-y,z
1/4-x,1/4+y,1/4+z
1/4+x,1/4-y,1/4+z
x,1/2+y,1/2+z
-x,1/2-y,1/2+z
1/4-x,3/4+y,3/4+z
1/4+x,3/4-y,3/4+z
1/2+x,y,1/2+z
1/2-x,-y,1/2+z
3/4-x,1/4+y,3/4+z
3/4+x,1/4-y,3/4+z
1/2+x,1/2+y,z
1/2-x,1/2-y,z
3/4-x,3/4+y,1/4+z
3/4+x,3/4-y,1/4+z
loop_
_atom_site_type_symbol
_atom_site_label
_atom_site_fract_x
_atom_site_fract_y
_atom_site_fract_z
Si Si1 0.000000 0.500000 0.679700
Si Si2 0.910455 0.151316 0.387255
Si Si3 0.000000 0.000000 0.576862
Si Si4 0.652253 0.986149 0.930304
Si Si5 0.666882 0.415439 0.513790
Si Si6 0.467147 0.632451 0.127980
Si Si7 0.733447 0.041695 0.226120
Si Si8 0.887682 0.054467 0.799684
O O1 0.047075 0.564951 0.648207
O O2 0.886608 0.527301 0.712726
O O3 0.811045 0.186219 0.353672
O O4 0.849544 0.073081 0.392916
O O5 0.901926 0.199046 0.430920
O O6 0.063707 0.143441 0.369287
O O7 0.122959 0.971526 0.549010
O O8 0.728249 0.956801 0.972516
O O9 0.500000 0.000000 0.945871
O O10 0.722931 0.056884 0.914242
O O11 0.538231 0.365631 0.501370
O O12 0.790893 0.373604 0.532947
O O13 0.531718 0.667485 0.085233
O O14 0.682556 0.979368 0.257284
O O15 0.000000 0.000000 0.819296
#
# Coordination Sequence:
#
# PCOD8187321 Si02
#       8
#     8  16   8  16  16  16  16  16
#     4  10  22  40  66  83 120 168 203 248 306 380
#     4   9  22  37  64  90 119 162 203 253 303 368
#     4  12  24  34  66  97 118 158 213 254 306 366
#     4   9  18  40  62  85 116 155 200 253 301 353
#     4  10  22  38  61  90 122 150 204 262 299 352
#     4  10  22  42  60  88 126 156 205 254 307 364
#     4   9  21  42  60  85 122 165 199 248 307 366
#     4  10  23  41  60  89 125 162 198 260 307 365
#
# _framework density 19.337768000000001
#
# number of rings (size 3 to 8) (size 9 to 14) (size 15 to 20)
#    0.000    2.286    0.714    0.857   13.000    1.143 
#    3.857    0.000    0.000    0.000    0.000    0.000 
#    0.000    0.000    0.000    0.000    0.000    0.000 
#
# Total GULP energy -346996.979569 kJ/mol
# GULP energy per Si atom -12392.749270 kJ/mol
# Density = 1.929375 g / cm^3
# Si number density = 19.337768 Si / 1000 Ang^3
#
#
#
# Elastic Constant Matrix: (Units=GPa)
#
#
# Indices 1 2 3 4 5 6 
#
# 1 46.7149 29.3146 33.9451 0.0000 0.0000 0.0000
# 2 29.3146 115.0361 45.3901 0.0000 0.0000 0.0000
# 3 33.9451 45.3901 84.9487 0.0000 0.0000 0.0000
# 4 0.0000 0.0000 0.0000 30.4146 0.0000 0.0000
# 5 0.0000 0.0000 0.0000 0.0000 -19.9972 0.0000
# 6 0.0000 0.0000 0.0000 0.0000 0.0000 35.0305
#
#
#
# Elastic Compliance Matrix: (Units=1/GPa)
#
#
# Indices 1 2 3 4 5 6 
#
# 1 0.031472 -0.003875 -0.010506 0.000000 0.000000 0.000000
# 2 -0.003875 0.011492 -0.004592 0.000000 0.000000 0.000000
# 3 -0.010506 -0.004592 0.018424 0.000000 0.000000 0.000000
# 4 0.000000 0.000000 0.000000 0.032879 0.000000 0.000000
# 5 0.000000 0.000000 0.000000 0.000000 -0.050007 0.000000
# 6 0.000000 0.000000 0.000000 0.000000 0.000000 0.028547
#
#
# Mechanical properties :
#
#
# Convention : Reuss Voigt Hill
#
# Bulk Modulus (GPa) = 42.65777 51.55549 47.10663
# Shear Modulus (GPa) = 42.17075 18.29290 30.23182
#
# Velocity S-wave (km/s) = 4.67491 3.07900 3.95822
# Velocity P-wave (km/s) = 7.15870 6.27365 6.73074
#
# Compressibility (1/GPa) = 0.02344239
#
# Stress axis : x y z
#
# Youngs Moduli (GPa) = 31.77452 87.01483 54.27825
#
# Poissons Ratio (x) = 0.33716 0.57023
# Poissons Ratio (y) = 0.12312 0.24926
# Poissons Ratio (z) = 0.33381 0.39960
#
# Static dielectric constant tensor:
#      x y z
#    x 3.347970 0.000000 0.000000 
#    y 0.000000 3.731570 0.000000 
#    z 0.000000 0.000000 3.608640 
# 
# 
# High freq. dielectric constant tensor:
#      x y z
#    x 1.721290 0.000000 0.000000 
#    y 0.000000 1.772560 0.000000 
#    z 0.000000 0.000000 1.753540 
# 
# From -- ./inp_files/25250.got.cif
#   From: 2010.06.25/outbox.cif.g09.slc.cpg/sg43_13_cif.got.tgz:25250.got - 2010.06.26 16:48:59.
