data_PCOD8187008
_publ_section_title
;
Structure prediction by ZEFSAII (Michael W. Deem and Ramdas Pophale) SiO2 
 PCOD8187008
Probable space group: F D D 2
;
_chemical_formula_sum "Si O2"
_cell_formula_units_Z 120
_cell_length_a 13.764429
_cell_length_b 32.602836
_cell_length_c 12.956691
_cell_angle_alpha 90.000000
_cell_angle_beta 90.000000
_cell_angle_gamma 90.000000
_cell_volume 5814.437155
_symmetry_space_group_name_H-M "F D D 2"
_symmetry_group_IT_number 43
_symmetry_cell_setting 'orthorhombic'
loop_
_space_group_symop_operation_xyz
x,y,z
-x,-y,z
1/4-x,1/4+y,1/4+z
1/4+x,1/4-y,1/4+z
x,1/2+y,1/2+z
-x,1/2-y,1/2+z
1/4-x,3/4+y,3/4+z
1/4+x,3/4-y,3/4+z
1/2+x,y,1/2+z
1/2-x,-y,1/2+z
3/4-x,1/4+y,3/4+z
3/4+x,1/4-y,3/4+z
1/2+x,1/2+y,z
1/2-x,1/2-y,z
3/4-x,3/4+y,1/4+z
3/4+x,3/4-y,1/4+z
loop_
_atom_site_type_symbol
_atom_site_label
_atom_site_fract_x
_atom_site_fract_y
_atom_site_fract_z
Si Si1 0.390714 0.426674 0.037590
Si Si2 0.513284 0.196198 0.449306
Si Si3 0.688922 0.469381 0.238372
Si Si4 0.728500 0.610749 0.376523
Si Si5 0.404614 0.850207 0.139854
Si Si6 0.973559 0.350012 0.845348
Si Si7 0.750000 0.750000 0.366621
Si Si8 0.400621 0.613905 0.616523
O O1 0.291433 0.442923 0.089318
O O2 0.432042 0.390832 0.108179
O O3 0.466640 0.464281 0.038127
O O4 0.375312 0.407623 0.922806
O O5 0.513145 0.242191 0.495043
O O6 0.455340 0.169976 0.533947
O O7 0.621130 0.175769 0.436891
O O8 0.672948 0.446550 0.349211
O O9 0.749553 0.438933 0.164680
O O10 0.586430 0.484320 0.190942
O O11 0.630592 0.636742 0.389976
O O12 0.766303 0.585834 0.476692
O O13 0.297762 0.862343 0.104191
O O14 0.484405 0.882406 0.093066
O O15 0.411212 0.856451 0.262914
#
# Coordination Sequence:
#
# PCOD8187008 Si02
#       8
#    16  16  16  16  16  16   8  16
#     4  10  19  37  63  93 125 168 210 276 331 397
#     4  10  23  40  65  94 132 167 219 282 334 393
#     4  11  24  40  66  98 135 166 216 285 343 396
#     4  11  21  37  64  98 123 162 221 269 335 395
#     4  12  23  42  66  91 132 182 225 264 335 409
#     4  12  21  39  65  95 127 168 217 269 324 409
#     4  10  20  40  64 100 132 156 218 288 344 374
#     4  11  23  42  66  89 131 180 226 268 330 415
#
# _framework density 20.638282
#
# number of rings (size 3 to 8) (size 9 to 14) (size 15 to 20)
#    0.000    1.067    6.667    0.000    1.867    1.067 
#    0.000    0.667    0.000    0.000    0.000    0.000 
#    0.000    0.000    0.000    0.000    0.000    0.000 
#
# Total GULP energy -371686.387069 kJ/mol
# GULP energy per Si atom -12389.546236 kJ/mol
# Density = 2.059131 g / cm^3
# Si number density = 20.638282 Si / 1000 Ang^3
#
#
#
# Elastic Constant Matrix: (Units=GPa)
#
#
# Indices 1 2 3 4 5 6 
#
# 1 57.7344 14.2924 9.2320 0.0000 0.0000 0.0000
# 2 14.2924 106.5287 39.0120 0.0000 0.0000 0.0000
# 3 9.2320 39.0120 105.6373 0.0000 0.0000 0.0000
# 4 0.0000 0.0000 0.0000 40.1935 0.0000 0.0000
# 5 0.0000 0.0000 0.0000 0.0000 28.3150 0.0000
# 6 0.0000 0.0000 0.0000 0.0000 0.0000 29.8037
#
#
#
# Elastic Compliance Matrix: (Units=1/GPa)
#
#
# Indices 1 2 3 4 5 6 
#
# 1 0.017972 -0.002123 -0.000787 0.000000 0.000000 0.000000
# 2 -0.002123 0.011106 -0.003916 0.000000 0.000000 0.000000
# 3 -0.000787 -0.003916 0.010981 0.000000 0.000000 0.000000
# 4 0.000000 0.000000 0.000000 0.024880 0.000000 0.000000
# 5 0.000000 0.000000 0.000000 0.000000 0.035317 0.000000
# 6 0.000000 0.000000 0.000000 0.000000 0.000000 0.033553
#
#
# Mechanical properties :
#
#
# Convention : Reuss Voigt Hill
#
# Bulk Modulus (GPa) = 37.86721 43.88590 40.87656
# Shear Modulus (GPa) = 31.99738 33.48672 32.74205
#
# Velocity S-wave (km/s) = 3.94177 4.03246 3.98737
# Velocity P-wave (km/s) = 6.25337 6.55679 6.40688
#
# Compressibility (1/GPa) = 0.02640807
#
# Stress axis : x y z
#
# Youngs Moduli (GPa) = 55.64192 90.04093 91.06427
#
# Poissons Ratio (x) = 0.19117 0.07163
# Poissons Ratio (y) = 0.11814 0.35660
# Poissons Ratio (z) = 0.04376 0.35259
#
# Static dielectric constant tensor:
#      x y z
#    x 3.673440 0.000000 0.000000 
#    y 0.000000 3.802040 0.000000 
#    z 0.000000 0.000000 3.837350 
# 
# 
# High freq. dielectric constant tensor:
#      x y z
#    x 1.799890 0.000000 0.000000 
#    y 0.000000 1.792490 0.000000 
#    z 0.000000 0.000000 1.810570 
# 
# From -- ./inp_files/10373.got.cif
#   From: 2010.06.25/outbox.cif.g09.slc.cpg/sg43_6_cif.got.tgz:10373.got - 2010.06.26 16:48:59.
