data_PCOD8187819
_publ_section_title
;
Structure prediction by ZEFSAII (Michael W. Deem and Ramdas Pophale) SiO2 
 PCOD8187819
Probable space group: F D D 2
;
_chemical_formula_sum "Si O2"
_cell_formula_units_Z 80
_cell_length_a 25.433451
_cell_length_b 12.153393
_cell_length_c 12.005062
_cell_angle_alpha 90.000000
_cell_angle_beta 90.000000
_cell_angle_gamma 90.000000
_cell_volume 3710.797382
_symmetry_space_group_name_H-M "F D D 2"
_symmetry_group_IT_number 43
_symmetry_cell_setting 'orthorhombic'
loop_
_space_group_symop_operation_xyz
x,y,z
-x,-y,z
1/4-x,1/4+y,1/4+z
1/4+x,1/4-y,1/4+z
x,1/2+y,1/2+z
-x,1/2-y,1/2+z
1/4-x,3/4+y,3/4+z
1/4+x,3/4-y,3/4+z
1/2+x,y,1/2+z
1/2-x,-y,1/2+z
3/4-x,1/4+y,3/4+z
3/4+x,1/4-y,3/4+z
1/2+x,1/2+y,z
1/2-x,1/2-y,z
3/4-x,3/4+y,1/4+z
3/4+x,3/4-y,1/4+z
loop_
_atom_site_type_symbol
_atom_site_label
_atom_site_fract_x
_atom_site_fract_y
_atom_site_fract_z
Si Si1 0.061303 0.024313 0.796260
Si Si2 0.576066 0.721934 0.638269
Si Si3 0.768525 0.628618 0.444139
Si Si4 0.160160 0.896758 0.144295
Si Si5 0.644235 0.841514 0.279136
O O1 0.075779 0.103431 0.694663
O O2 0.090426 0.909685 0.772925
O O3 0.079028 0.081744 0.909741
O O4 0.000000 0.000000 0.801762
O O5 0.527754 0.792033 0.683604
O O6 0.630652 0.782086 0.669187
O O7 0.571231 0.706852 0.505927
O O8 0.750000 0.750000 0.410434
O O9 0.788188 0.626508 0.571400
O O10 0.815712 0.594742 0.361186
O O11 0.118324 0.971582 0.078175
#
# Coordination Sequence:
#
# PCOD8187819 Si02
#       5
#    16  16  16  16  16
#     4  12  28  46  74 109 146 191 242 303 375 433
#     4  12  26  46  71 106 147 187 242 306 369 436
#     4  12  25  43  73 103 138 191 242 297 361 433
#     4  12  24  48  70 103 145 189 244 300 367 441
#     4  12  24  46  71 102 144 189 243 298 355 445
#
# _framework density 21.558709
#
# number of rings (size 3 to 8) (size 9 to 14) (size 15 to 20)
#    0.000    0.000    6.000    3.000    5.600    0.800 
#    0.000    0.000    0.000    0.000    0.000    0.000 
#    0.000    0.000    0.000    0.000    0.000    0.000 
#
# Total GULP energy -248201.786636 kJ/mol
# GULP energy per Si atom -12410.089332 kJ/mol
# Density = 2.150964 g / cm^3
# Si number density = 21.558709 Si / 1000 Ang^3
#
#
#
# Elastic Constant Matrix: (Units=GPa)
#
#
# Indices 1 2 3 4 5 6 
#
# 1 131.6911 41.4455 56.7466 0.0000 0.0000 0.0000
# 2 41.4455 76.2756 27.7509 0.0000 0.0000 0.0000
# 3 56.7466 27.7509 103.2486 0.0000 0.0000 0.0000
# 4 0.0000 0.0000 0.0000 36.3188 0.0000 0.0000
# 5 0.0000 0.0000 0.0000 0.0000 35.3074 0.0000
# 6 0.0000 0.0000 0.0000 0.0000 0.0000 44.5621
#
#
#
# Elastic Compliance Matrix: (Units=1/GPa)
#
#
# Indices 1 2 3 4 5 6 
#
# 1 0.011046 -0.004204 -0.004941 0.000000 0.000000 0.000000
# 2 -0.004204 0.016132 -0.002025 0.000000 0.000000 0.000000
# 3 -0.004941 -0.002025 0.012945 0.000000 0.000000 0.000000
# 4 0.000000 0.000000 0.000000 0.027534 0.000000 0.000000
# 5 0.000000 0.000000 0.000000 0.000000 0.028323 0.000000
# 6 0.000000 0.000000 0.000000 0.000000 0.000000 0.022441
#
#
# Mechanical properties :
#
#
# Convention : Reuss Voigt Hill
#
# Bulk Modulus (GPa) = 56.23632 62.56681 59.40157
# Shear Modulus (GPa) = 34.08607 35.58915 34.83761
#
# Velocity S-wave (km/s) = 3.98059 4.06741 4.02424
# Velocity P-wave (km/s) = 6.87522 7.15144 7.01469
#
# Compressibility (1/GPa) = 0.01778210
#
# Stress axis : x y z
#
# Youngs Moduli (GPa) = 90.53278 61.99024 77.24866
#
# Poissons Ratio (x) = 0.26062 0.38167
# Poissons Ratio (y) = 0.38062 0.15644
# Poissons Ratio (z) = 0.44731 0.12554
#
# Static dielectric constant tensor:
#      x y z
#    x 3.962510 0.000000 0.000000 
#    y 0.000000 3.909620 0.000000 
#    z 0.000000 0.000000 3.956070 
# 
# 
# High freq. dielectric constant tensor:
#      x y z
#    x 1.856290 0.000000 0.000000 
#    y 0.000000 1.851310 0.000000 
#    z 0.000000 0.000000 1.856030 
# 
# From -- ./inp_files/5693.got.cif
#   From: 2010.06.25/outbox.cif.g09.slc.cpg/sg43_3_cif.got.tgz:5693.got - 2010.06.26 16:48:59.
