data_PCOD8187793
_publ_section_title
;
Structure prediction by ZEFSAII (Michael W. Deem and Ramdas Pophale) SiO2 
 PCOD8187793
Probable space group: F D D 2
;
_chemical_formula_sum "Si O2"
_cell_formula_units_Z 64
_cell_length_a 14.408382
_cell_length_b 11.647621
_cell_length_c 14.690953
_cell_angle_alpha 90.000000
_cell_angle_beta 90.000000
_cell_angle_gamma 90.000000
_cell_volume 2465.485282
_symmetry_space_group_name_H-M "F D D 2"
_symmetry_group_IT_number 43
_symmetry_cell_setting 'orthorhombic'
loop_
_space_group_symop_operation_xyz
x,y,z
-x,-y,z
1/4-x,1/4+y,1/4+z
1/4+x,1/4-y,1/4+z
x,1/2+y,1/2+z
-x,1/2-y,1/2+z
1/4-x,3/4+y,3/4+z
1/4+x,3/4-y,3/4+z
1/2+x,y,1/2+z
1/2-x,-y,1/2+z
3/4-x,1/4+y,3/4+z
3/4+x,1/4-y,3/4+z
1/2+x,1/2+y,z
1/2-x,1/2-y,z
3/4-x,3/4+y,1/4+z
3/4+x,3/4-y,1/4+z
loop_
_atom_site_type_symbol
_atom_site_label
_atom_site_fract_x
_atom_site_fract_y
_atom_site_fract_z
Si Si1 0.977613 0.872128 0.443630
Si Si2 0.119600 0.722399 0.649451
Si Si3 0.403227 0.524901 0.700052
Si Si4 0.432828 0.673051 0.059020
O O1 0.909739 0.881418 0.357763
O O2 0.930616 0.807470 0.529680
O O3 0.068438 0.800795 0.409735
O O4 0.000000 0.000000 0.477927
O O5 0.165983 0.761009 0.555363
O O6 0.108805 0.839280 0.704481
O O7 0.186808 0.643715 0.711850
O O8 0.022383 0.655424 0.624429
O O9 0.500000 0.500000 0.647898
#
# Coordination Sequence:
#
# PCOD8187793 Si02
#       4
#    16  16  16  16
#     4  11  27  47  78 112 161 205 260 321 398 465
#     4  11  27  47  82 115 156 205 266 327 397 465
#     4  11  27  49  79 112 159 207 260 318 394 477
#     4  11  27  50  79 117 158 204 267 328 395 467
#
# _framework density 25.958376999999999
#
# number of rings (size 3 to 8) (size 9 to 14) (size 15 to 20)
#    0.000    1.000    0.000    3.000   14.000   12.000 
#    0.000    0.000    0.000    0.000    0.000    0.000 
#    0.000    0.000    0.000    0.000    0.000    0.000 
#
# Total GULP energy -198263.338634 kJ/mol
# GULP energy per Si atom -12391.458665 kJ/mol
# Density = 2.589929 g / cm^3
# Si number density = 25.958377 Si / 1000 Ang^3
#
#
#
# Elastic Constant Matrix: (Units=GPa)
#
#
# Indices 1 2 3 4 5 6 
#
# 1 211.9550 54.5191 29.1761 0.0000 0.0000 0.0000
# 2 54.5191 127.4129 -1.2601 0.0000 0.0000 0.0000
# 3 29.1761 -1.2601 44.5151 0.0000 0.0000 0.0000
# 4 0.0000 0.0000 0.0000 28.3270 0.0000 0.0000
# 5 0.0000 0.0000 0.0000 0.0000 9.0735 0.0000
# 6 0.0000 0.0000 0.0000 0.0000 0.0000 53.2089
#
#
#
# Elastic Compliance Matrix: (Units=1/GPa)
#
#
# Indices 1 2 3 4 5 6 
#
# 1 0.005925 -0.002574 -0.003956 0.000000 0.000000 0.000000
# 2 -0.002574 0.008969 0.001941 0.000000 0.000000 0.000000
# 3 -0.003956 0.001941 0.025112 0.000000 0.000000 0.000000
# 4 0.000000 0.000000 0.000000 0.035302 0.000000 0.000000
# 5 0.000000 0.000000 0.000000 0.000000 0.110211 0.000000
# 6 0.000000 0.000000 0.000000 0.000000 0.000000 0.018794
#
#
# Mechanical properties :
#
#
# Convention : Reuss Voigt Hill
#
# Bulk Modulus (GPa) = 32.43847 60.97261 46.70554
# Shear Modulus (GPa) = 22.34470 38.21841 30.28156
#
# Velocity S-wave (km/s) = 2.93710 3.84121 3.41917
# Velocity P-wave (km/s) = 4.90159 6.57365 5.79821
#
# Compressibility (1/GPa) = 0.03082760
#
# Stress axis : x y z
#
# Youngs Moduli (GPa) = 168.78521 111.49265 39.82148
#
# Poissons Ratio (x) = 0.28701 0.15753
# Poissons Ratio (y) = 0.43450 -0.07730
# Poissons Ratio (z) = 0.66772 -0.21642
#
# Static dielectric constant tensor:
#      x y z
#    x 4.913580 0.000000 0.000000 
#    y 0.000000 4.772780 0.000000 
#    z 0.000000 0.000000 4.367240 
# 
# 
# High freq. dielectric constant tensor:
#      x y z
#    x 2.050470 0.000000 0.000000 
#    y 0.000000 2.048000 0.000000 
#    z 0.000000 0.000000 2.033520 
# 
# From -- ./inp_files/9402.got.cif
#   From: 2010.06.25/outbox.cif.g09.slc.cpg/sg43_5_cif.got.tgz:9402.got - 2010.06.26 16:48:59.
