data_PCOD8187500
_publ_section_title
;
Structure prediction by ZEFSAII (Michael W. Deem and Ramdas Pophale) SiO2 
 PCOD8187500
Probable space group: F D D 2
;
_chemical_formula_sum "Si O2"
_cell_formula_units_Z 88
_cell_length_a 6.761124
_cell_length_b 27.946518
_cell_length_c 21.202618
_cell_angle_alpha 90.000000
_cell_angle_beta 90.000000
_cell_angle_gamma 90.000000
_cell_volume 4006.231990
_symmetry_space_group_name_H-M "F D D 2"
_symmetry_group_IT_number 43
_symmetry_cell_setting 'orthorhombic'
loop_
_space_group_symop_operation_xyz
x,y,z
-x,-y,z
1/4-x,1/4+y,1/4+z
1/4+x,1/4-y,1/4+z
x,1/2+y,1/2+z
-x,1/2-y,1/2+z
1/4-x,3/4+y,3/4+z
1/4+x,3/4-y,3/4+z
1/2+x,y,1/2+z
1/2-x,-y,1/2+z
3/4-x,1/4+y,3/4+z
3/4+x,1/4-y,3/4+z
1/2+x,1/2+y,z
1/2-x,1/2-y,z
3/4-x,3/4+y,1/4+z
3/4+x,3/4-y,1/4+z
loop_
_atom_site_type_symbol
_atom_site_label
_atom_site_fract_x
_atom_site_fract_y
_atom_site_fract_z
Si Si1 0.352963 0.898377 0.462430
Si Si2 0.000000 0.500000 0.663432
Si Si3 0.629365 0.417152 0.076759
Si Si4 0.801964 0.074225 0.877519
Si Si5 0.950932 0.948042 0.488941
Si Si6 0.098208 0.209024 0.990766
O O1 0.460261 0.919564 0.523774
O O2 0.478570 0.909427 0.399310
O O3 0.320121 0.841583 0.466952
O O4 0.139004 0.921736 0.459913
O O5 0.877191 0.536168 0.620101
O O6 0.859584 0.468713 0.707699
O O7 0.593231 0.369580 0.117253
O O8 0.845727 0.416089 0.043404
O O9 0.703139 0.042575 0.932077
O O10 0.818374 0.041605 0.815922
O O11 0.000000 0.000000 0.517670
O O12 0.250000 0.250000 0.971169
#
# Coordination Sequence:
#
# PCOD8187500 Si02
#       6
#    16   8  16  16  16  16
#     4  10  23  46  69  98 139 183 227 292 355 417
#     4  12  24  44  70 102 144 180 236 288 346 424
#     4  10  23  44  67  97 138 178 229 284 344 415
#     4  10  24  45  66  96 139 183 223 286 350 419
#     4  11  25  42  72 102 129 178 237 285 347 416
#     4  11  27  41  69 104 138 184 231 288 356 419
#
# _framework density 21.965778
#
# number of rings (size 3 to 8) (size 9 to 14) (size 15 to 20)
#    0.000    1.455    1.818    1.091    6.364    6.545 
#    0.000    0.000    0.000    0.000    0.000    0.000 
#    0.000    0.000    0.000    0.000    0.000    0.000 
#
# Total GULP energy -272884.800541 kJ/mol
# GULP energy per Si atom -12403.854570 kJ/mol
# Density = 2.191578 g / cm^3
# Si number density = 21.965778 Si / 1000 Ang^3
#
#
#
# Elastic Constant Matrix: (Units=GPa)
#
#
# Indices 1 2 3 4 5 6 
#
# 1 131.0259 55.6110 37.4565 0.0000 0.0000 0.0000
# 2 55.6110 100.5118 28.8328 0.0000 0.0000 0.0000
# 3 37.4565 28.8328 93.2038 0.0000 0.0000 0.0000
# 4 0.0000 0.0000 0.0000 32.0935 0.0000 0.0000
# 5 0.0000 0.0000 0.0000 0.0000 33.3274 0.0000
# 6 0.0000 0.0000 0.0000 0.0000 0.0000 38.9803
#
#
#
# Elastic Compliance Matrix: (Units=1/GPa)
#
#
# Indices 1 2 3 4 5 6 
#
# 1 0.010547 -0.005069 -0.002670 0.000000 0.000000 0.000000
# 2 -0.005069 0.013355 -0.002094 0.000000 0.000000 0.000000
# 3 -0.002670 -0.002094 0.012450 0.000000 0.000000 0.000000
# 4 0.000000 0.000000 0.000000 0.031159 0.000000 0.000000
# 5 0.000000 0.000000 0.000000 0.000000 0.030005 0.000000
# 6 0.000000 0.000000 0.000000 0.000000 0.000000 0.025654
#
#
# Mechanical properties :
#
#
# Convention : Reuss Voigt Hill
#
# Bulk Modulus (GPa) = 59.93707 63.17132 61.55419
# Shear Modulus (GPa) = 33.69293 34.40297 34.04795
#
# Velocity S-wave (km/s) = 3.92073 3.96183 3.94133
# Velocity P-wave (km/s) = 6.91679 7.05333 6.98539
#
# Compressibility (1/GPa) = 0.01668417
#
# Stress axis : x y z
#
# Youngs Moduli (GPa) = 94.81299 74.88070 80.32052
#
# Poissons Ratio (x) = 0.37960 0.21449
# Poissons Ratio (y) = 0.48065 0.16819
# Poissons Ratio (z) = 0.25319 0.15680
#
# Static dielectric constant tensor:
#      x y z
#    x 3.860960 0.000000 0.000000 
#    y 0.000000 4.021730 0.000000 
#    z 0.000000 0.000000 4.015080 
# 
# 
# High freq. dielectric constant tensor:
#      x y z
#    x 1.863970 0.000000 0.000000 
#    y 0.000000 1.863960 0.000000 
#    z 0.000000 0.000000 1.871340 
# 
# From -- ./inp_files/19557.got.cif
#   From: 2010.06.25/outbox.cif.g09.slc.cpg/sg43_10_cif.got.tgz:19557.got - 2010.06.26 16:48:59.
