data_PCOD8187140
_publ_section_title
;
Structure prediction by ZEFSAII (Michael W. Deem and Ramdas Pophale) SiO2 
 PCOD8187140
Probable space group: F D D 2
;
_chemical_formula_sum "Si O2"
_cell_formula_units_Z 104
_cell_length_a 18.770468
_cell_length_b 8.786145
_cell_length_c 30.263400
_cell_angle_alpha 90.000000
_cell_angle_beta 90.000000
_cell_angle_gamma 90.000000
_cell_volume 4991.041549
_symmetry_space_group_name_H-M "F D D 2"
_symmetry_group_IT_number 43
_symmetry_cell_setting 'orthorhombic'
loop_
_space_group_symop_operation_xyz
x,y,z
-x,-y,z
1/4-x,1/4+y,1/4+z
1/4+x,1/4-y,1/4+z
x,1/2+y,1/2+z
-x,1/2-y,1/2+z
1/4-x,3/4+y,3/4+z
1/4+x,3/4-y,3/4+z
1/2+x,y,1/2+z
1/2-x,-y,1/2+z
3/4-x,1/4+y,3/4+z
3/4+x,1/4-y,3/4+z
1/2+x,1/2+y,z
1/2-x,1/2-y,z
3/4-x,3/4+y,1/4+z
3/4+x,3/4-y,1/4+z
loop_
_atom_site_type_symbol
_atom_site_label
_atom_site_fract_x
_atom_site_fract_y
_atom_site_fract_z
Si Si1 0.166640 0.931779 0.116500
Si Si2 0.393033 0.237392 0.092668
Si Si3 0.613945 0.986818 0.243165
Si Si4 0.709973 0.406109 0.661239
Si Si5 0.250000 0.750000 0.047986
Si Si6 0.255556 0.007536 0.983772
Si Si7 0.019908 0.337190 0.639373
O O1 0.187471 0.826189 0.075680
O O2 0.105833 0.827350 0.139864
O O3 0.138145 0.095067 0.101349
O O4 0.234631 0.959841 0.148265
O O5 0.345081 0.116248 0.120210
O O6 0.475536 0.219366 0.108580
O O7 0.393270 0.205483 0.040376
O O8 0.674535 0.954668 0.207327
O O9 0.566284 0.836698 0.251777
O O10 0.565963 0.120054 0.223178
O O11 0.750000 0.250000 0.671338
O O12 0.215600 0.617350 0.018024
O O13 0.236721 0.926579 0.937952
O O14 0.000000 0.500000 0.619390
#
# Coordination Sequence:
#
# PCOD8187140 Si02
#       7
#    16  16  16  16   8  16  16
#     4  10  23  37  62  92 125 165 214 270 332 396
#     4  10  20  41  65  91 123 171 224 267 324 403
#     4  11  23  41  65  98 127 166 230 274 319 404
#     4  10  22  40  68  94 130 177 219 274 342 404
#     4  12  22  40  66  92 130 174 218 268 344 398
#     4  11  23  40  65  93 128 173 217 266 331 407
#     4  10  21  41  62  89 127 166 210 266 330 396
#
# _framework density 20.837333999999998
#
# number of rings (size 3 to 8) (size 9 to 14) (size 15 to 20)
#    0.000    1.538    3.846    0.923    6.462    1.846 
#    2.769    0.000    0.000    0.000    0.000    0.000 
#    0.000    0.000    0.000    0.000    0.000    0.000 
#
# Total GULP energy -322263.499002 kJ/mol
# GULP energy per Si atom -12394.749962 kJ/mol
# Density = 2.078991 g / cm^3
# Si number density = 20.837334 Si / 1000 Ang^3
#
#
#
# Elastic Constant Matrix: (Units=GPa)
#
#
# Indices 1 2 3 4 5 6 
#
# 1 138.3059 36.5365 63.6329 0.0000 0.0000 0.0000
# 2 36.5365 49.6586 17.9309 0.0000 0.0000 0.0000
# 3 63.6329 17.9309 140.6709 0.0000 0.0000 0.0000
# 4 0.0000 0.0000 0.0000 26.1949 0.0000 0.0000
# 5 0.0000 0.0000 0.0000 0.0000 24.9696 0.0000
# 6 0.0000 0.0000 0.0000 0.0000 0.0000 12.3819
#
#
#
# Elastic Compliance Matrix: (Units=1/GPa)
#
#
# Indices 1 2 3 4 5 6 
#
# 1 0.010815 -0.006489 -0.004065 0.000000 0.000000 0.000000
# 2 -0.006489 0.025003 -0.000252 0.000000 0.000000 0.000000
# 3 -0.004065 -0.000252 0.008980 0.000000 0.000000 0.000000
# 4 0.000000 0.000000 0.000000 0.038175 0.000000 0.000000
# 5 0.000000 0.000000 0.000000 0.000000 0.040049 0.000000
# 6 0.000000 0.000000 0.000000 0.000000 0.000000 0.080763
#
#
# Mechanical properties :
#
#
# Convention : Reuss Voigt Hill
#
# Bulk Modulus (GPa) = 43.13005 62.75957 52.94481
# Shear Modulus (GPa) = 21.44771 26.74494 24.09632
#
# Velocity S-wave (km/s) = 3.21174 3.58650 3.40428
# Velocity P-wave (km/s) = 5.87342 6.88003 6.39656
#
# Compressibility (1/GPa) = 0.02318569
#
# Stress axis : x y z
#
# Youngs Moduli (GPa) = 92.46517 39.99543 111.36275
#
# Poissons Ratio (x) = 0.25954 0.45269
# Poissons Ratio (y) = 0.60003 0.02802
# Poissons Ratio (z) = 0.37587 0.01006
#
# Static dielectric constant tensor:
#      x y z
#    x 3.944160 0.000000 0.000000 
#    y 0.000000 3.745180 0.000000 
#    z 0.000000 0.000000 3.638300 
# 
# 
# High freq. dielectric constant tensor:
#      x y z
#    x 1.808420 0.000000 0.000000 
#    y 0.000000 1.807790 0.000000 
#    z 0.000000 0.000000 1.815240 
# 
# From -- ./inp_files/26338.got.cif
#   From: 2010.06.25/outbox.cif.g09.slc.cpg/sg43_14_cif.got.tgz:26338.got - 2010.06.26 16:48:59.
