data_PCOD8187364
_publ_section_title
;
Structure prediction by ZEFSAII (Michael W. Deem and Ramdas Pophale) SiO2 
 PCOD8187364
Probable space group: F D D 2
;
_chemical_formula_sum "Si O2"
_cell_formula_units_Z 120
_cell_length_a 15.443576
_cell_length_b 25.525628
_cell_length_c 13.812358
_cell_angle_alpha 90.000000
_cell_angle_beta 90.000000
_cell_angle_gamma 90.000000
_cell_volume 5444.927878
_symmetry_space_group_name_H-M "F D D 2"
_symmetry_group_IT_number 43
_symmetry_cell_setting 'orthorhombic'
loop_
_space_group_symop_operation_xyz
x,y,z
-x,-y,z
1/4-x,1/4+y,1/4+z
1/4+x,1/4-y,1/4+z
x,1/2+y,1/2+z
-x,1/2-y,1/2+z
1/4-x,3/4+y,3/4+z
1/4+x,3/4-y,3/4+z
1/2+x,y,1/2+z
1/2-x,-y,1/2+z
3/4-x,1/4+y,3/4+z
3/4+x,1/4-y,3/4+z
1/2+x,1/2+y,z
1/2-x,1/2-y,z
3/4-x,3/4+y,1/4+z
3/4+x,3/4-y,1/4+z
loop_
_atom_site_type_symbol
_atom_site_label
_atom_site_fract_x
_atom_site_fract_y
_atom_site_fract_z
Si Si1 0.023076 0.128733 0.493680
Si Si2 0.250000 0.250000 0.381639
Si Si3 0.095184 0.581289 0.179309
Si Si4 0.945112 0.753171 0.832523
Si Si5 0.665383 0.988824 0.733919
Si Si6 0.269013 0.616099 0.599963
Si Si7 0.568244 0.105915 0.564324
Si Si8 0.820826 0.428409 0.900278
O O1 0.028124 0.096768 0.593850
O O2 0.042972 0.187478 0.530615
O O3 0.092405 0.105298 0.418088
O O4 0.930600 0.130625 0.437911
O O5 0.181263 0.224320 0.454113
O O6 0.209743 0.295331 0.315108
O O7 0.123969 0.521309 0.156975
O O8 0.044914 0.585117 0.280985
O O9 0.930831 0.814376 0.807412
O O10 0.948752 0.717488 0.737952
O O11 0.037368 0.753780 0.884517
O O12 0.666552 0.038313 0.803951
O O13 0.165829 0.611587 0.601704
O O14 0.307374 0.624464 0.705648
O O15 0.510339 0.140002 0.637781
#
# Coordination Sequence:
#
# PCOD8187364 Si02
#       8
#    16   8  16  16  16  16  16  16
#     4  10  22  40  67  95 127 173 221 279 334 411
#     4  12  24  40  64 102 130 170 232 280 352 414
#     4  10  23  43  66  95 131 179 223 275 347 410
#     4  10  23  44  68  95 138 179 222 281 342 419
#     4  11  22  40  66  95 135 170 217 282 341 403
#     4  12  25  47  67 100 140 185 231 291 351 424
#     4  12  26  43  71 101 139 180 232 294 350 429
#     4  11  23  41  69 101 133 175 225 282 350 404
#
# _framework density 22.038858000000001
#
# number of rings (size 3 to 8) (size 9 to 14) (size 15 to 20)
#    0.000    1.067    4.000    1.600    3.733    3.200 
#    2.400    4.667    0.000    0.000    0.000    0.000 
#    0.000    0.000    0.000    0.000    0.000    0.000 
#
# Total GULP energy -371885.161202 kJ/mol
# GULP energy per Si atom -12396.172040 kJ/mol
# Density = 2.198870 g / cm^3
# Si number density = 22.038858 Si / 1000 Ang^3
#
#
#
# Elastic Constant Matrix: (Units=GPa)
#
#
# Indices 1 2 3 4 5 6 
#
# 1 61.5667 20.7570 17.1631 0.0000 0.0000 0.0000
# 2 20.7570 86.5046 15.7157 0.0000 0.0000 0.0000
# 3 17.1631 15.7157 65.3828 0.0000 0.0000 0.0000
# 4 0.0000 0.0000 0.0000 36.5420 0.0000 0.0000
# 5 0.0000 0.0000 0.0000 0.0000 36.3439 0.0000
# 6 0.0000 0.0000 0.0000 0.0000 0.0000 28.2016
#
#
#
# Elastic Compliance Matrix: (Units=1/GPa)
#
#
# Indices 1 2 3 4 5 6 
#
# 1 0.018616 -0.003743 -0.003987 0.000000 0.000000 0.000000
# 2 -0.003743 0.012840 -0.002104 0.000000 0.000000 0.000000
# 3 -0.003987 -0.002104 0.016847 0.000000 0.000000 0.000000
# 4 0.000000 0.000000 0.000000 0.027366 0.000000 0.000000
# 5 0.000000 0.000000 0.000000 0.000000 0.027515 0.000000
# 6 0.000000 0.000000 0.000000 0.000000 0.000000 0.035459
#
#
# Mechanical properties :
#
#
# Convention : Reuss Voigt Hill
#
# Bulk Modulus (GPa) = 34.92127 35.63620 35.27874
# Shear Modulus (GPa) = 29.78757 30.87206 30.32982
#
# Velocity S-wave (km/s) = 3.68039 3.74679 3.71374
# Velocity P-wave (km/s) = 5.82581 5.90954 5.86783
#
# Compressibility (1/GPa) = 0.02863584
#
# Stress axis : x y z
#
# Youngs Moduli (GPa) = 53.71767 77.87945 59.35814
#
# Poissons Ratio (x) = 0.29147 0.23667
# Poissons Ratio (y) = 0.20104 0.12489
# Poissons Ratio (z) = 0.21418 0.16385
#
# Static dielectric constant tensor:
#      x y z
#    x 4.059090 0.000000 0.000000 
#    y 0.000000 4.197370 0.000000 
#    z 0.000000 0.000000 3.860230 
# 
# 
# High freq. dielectric constant tensor:
#      x y z
#    x 1.870840 0.000000 0.000000 
#    y 0.000000 1.871980 0.000000 
#    z 0.000000 0.000000 1.863860 
# 
# From -- ./inp_files/10365.got.cif
#   From: 2010.06.25/outbox.cif.g09.slc.cpg/sg43_6_cif.got.tgz:10365.got - 2010.06.26 16:48:59.
