data_PCOD8187164
_publ_section_title
;
Structure prediction by ZEFSAII (Michael W. Deem and Ramdas Pophale) SiO2 
 PCOD8187164
Probable space group: F D D 2
;
_chemical_formula_sum "Si O2"
_cell_formula_units_Z 56
_cell_length_a 7.157896
_cell_length_b 12.912683
_cell_length_c 23.999502
_cell_angle_alpha 90.000000
_cell_angle_beta 90.000000
_cell_angle_gamma 90.000000
_cell_volume 2218.217379
_symmetry_space_group_name_H-M "F D D 2"
_symmetry_group_IT_number 43
_symmetry_cell_setting 'orthorhombic'
loop_
_space_group_symop_operation_xyz
x,y,z
-x,-y,z
1/4-x,1/4+y,1/4+z
1/4+x,1/4-y,1/4+z
x,1/2+y,1/2+z
-x,1/2-y,1/2+z
1/4-x,3/4+y,3/4+z
1/4+x,3/4-y,3/4+z
1/2+x,y,1/2+z
1/2-x,-y,1/2+z
3/4-x,1/4+y,3/4+z
3/4+x,1/4-y,3/4+z
1/2+x,1/2+y,z
1/2-x,1/2-y,z
3/4-x,3/4+y,1/4+z
3/4+x,3/4-y,1/4+z
loop_
_atom_site_type_symbol
_atom_site_label
_atom_site_fract_x
_atom_site_fract_y
_atom_site_fract_z
Si Si1 0.457475 0.280950 0.807390
Si Si2 0.203477 0.486076 0.440934
Si Si3 0.500000 0.500000 0.765568
Si Si4 0.008873 0.329672 0.923039
O O1 0.250000 0.250000 0.788427
O O2 0.580018 0.233671 0.757613
O O3 0.497789 0.403549 0.807361
O O4 0.499857 0.237070 0.867536
O O5 0.301495 0.377243 0.426083
O O6 0.332085 0.581618 0.420310
O O7 0.000000 0.500000 0.412643
O O8 0.315127 0.494582 0.725158
#
# Coordination Sequence:
#
# PCOD8187164 Si02
#       4
#    16  16   8  16
#     4  11  21  44  77 112 159 206 260 328 405 471
#     4  10  22  48  75 112 152 204 267 331 394 479
#     4  10  20  42  78 112 160 206 250 334 392 466
#     4  10  21  45  76 109 157 204 255 333 400 470
#
# _framework density 25.245498999999999
#
# number of rings (size 3 to 8) (size 9 to 14) (size 15 to 20)
#    0.000    1.714    7.143    0.000    0.000    0.000 
#    7.714   14.286    0.000    6.857    0.000    0.000 
#    0.000    0.000    0.000    0.000    0.000    0.000 
#
# Total GULP energy -173499.465554 kJ/mol
# GULP energy per Si atom -12392.818968 kJ/mol
# Density = 2.518804 g / cm^3
# Si number density = 25.245499 Si / 1000 Ang^3
#
#
#
# Elastic Constant Matrix: (Units=GPa)
#
#
# Indices 1 2 3 4 5 6 
#
# 1 183.5718 63.5971 33.1685 0.0000 0.0000 0.0000
# 2 63.5971 162.9444 98.7162 0.0000 0.0000 0.0000
# 3 33.1685 98.7162 166.5328 0.0000 0.0000 0.0000
# 4 0.0000 0.0000 0.0000 55.1192 0.0000 0.0000
# 5 0.0000 0.0000 0.0000 0.0000 10.2830 0.0000
# 6 0.0000 0.0000 0.0000 0.0000 0.0000 20.4148
#
#
#
# Elastic Compliance Matrix: (Units=1/GPa)
#
#
# Indices 1 2 3 4 5 6 
#
# 1 0.006310 -0.002655 0.000317 0.000000 0.000000 0.000000
# 2 -0.002655 0.010693 -0.005810 0.000000 0.000000 0.000000
# 3 0.000317 -0.005810 0.009386 0.000000 0.000000 0.000000
# 4 0.000000 0.000000 0.000000 0.018143 0.000000 0.000000
# 5 0.000000 0.000000 0.000000 0.000000 0.097248 0.000000
# 6 0.000000 0.000000 0.000000 0.000000 0.000000 0.048984
#
#
# Mechanical properties :
#
#
# Convention : Reuss Voigt Hill
#
# Bulk Modulus (GPa) = 99.07606 100.44584 99.76095
# Shear Modulus (GPa) = 23.76171 38.33453 31.04812
#
# Velocity S-wave (km/s) = 3.07127 3.90098 3.51072
# Velocity P-wave (km/s) = 7.20466 7.75656 7.48570
#
# Compressibility (1/GPa) = 0.01009326
#
# Stress axis : x y z
#
# Youngs Moduli (GPa) = 158.48066 93.52003 106.54678
#
# Poissons Ratio (x) = 0.24827 -0.03377
# Poissons Ratio (y) = 0.42073 0.61901
# Poissons Ratio (z) = -0.05022 0.54332
#
# Static dielectric constant tensor:
#      x y z
#    x 4.977890 0.000000 0.000000 
#    y 0.000000 4.690260 0.000000 
#    z 0.000000 0.000000 4.339700 
# 
# 
# High freq. dielectric constant tensor:
#      x y z
#    x 2.004510 0.000000 0.000000 
#    y 0.000000 2.012450 0.000000 
#    z 0.000000 0.000000 2.007680 
# 
# From -- ./inp_files/27620.got.cif
#   From: 2010.06.25/outbox.cif.g09.slc.cpg/sg43_14_cif.got.tgz:27620.got - 2010.06.26 16:48:59.
