data_PCOD8187091
_publ_section_title
;
Structure prediction by ZEFSAII (Michael W. Deem and Ramdas Pophale) SiO2 
 PCOD8187091
Probable space group: F D D 2
;
_chemical_formula_sum "Si O2"
_cell_formula_units_Z 120
_cell_length_a 28.683698
_cell_length_b 8.594463
_cell_length_c 24.580196
_cell_angle_alpha 90.000000
_cell_angle_beta 90.000000
_cell_angle_gamma 90.000000
_cell_volume 6059.534035
_symmetry_space_group_name_H-M "F D D 2"
_symmetry_group_IT_number 43
_symmetry_cell_setting 'orthorhombic'
loop_
_space_group_symop_operation_xyz
x,y,z
-x,-y,z
1/4-x,1/4+y,1/4+z
1/4+x,1/4-y,1/4+z
x,1/2+y,1/2+z
-x,1/2-y,1/2+z
1/4-x,3/4+y,3/4+z
1/4+x,3/4-y,3/4+z
1/2+x,y,1/2+z
1/2-x,-y,1/2+z
3/4-x,1/4+y,3/4+z
3/4+x,1/4-y,3/4+z
1/2+x,1/2+y,z
1/2-x,1/2-y,z
3/4-x,3/4+y,1/4+z
3/4+x,3/4-y,1/4+z
loop_
_atom_site_type_symbol
_atom_site_label
_atom_site_fract_x
_atom_site_fract_y
_atom_site_fract_z
Si Si1 0.329263 0.445912 0.065820
Si Si2 0.691756 0.578957 0.185503
Si Si3 0.646246 0.056465 0.291718
Si Si4 0.821578 0.540232 0.963025
Si Si5 0.376999 0.928817 0.116593
Si Si6 0.548502 0.696607 0.945449
Si Si7 0.000000 0.000000 0.763346
Si Si8 0.393662 0.996297 0.759729
O O1 0.324787 0.495598 0.128455
O O2 0.378448 0.358772 0.062862
O O3 0.287373 0.328374 0.052847
O O4 0.330577 0.582649 0.020723
O O5 0.690409 0.764863 0.189081
O O6 0.744102 0.515380 0.190918
O O7 0.657210 0.515152 0.231900
O O8 0.607859 0.137569 0.254746
O O9 0.654570 0.169192 0.343468
O O10 0.690977 0.017928 0.255061
O O11 0.835843 0.584777 0.902249
O O12 0.771291 0.614535 0.975396
O O13 0.822405 0.353319 0.972239
O O14 0.361849 0.816821 0.068943
O O15 0.329892 0.971595 0.149347
#
# Coordination Sequence:
#
# PCOD8187091 Si02
#       8
#    16  16  16  16  16  16   8  16
#     4  11  21  36  63  92 125 162 208 261 324 375
#     4  11  22  36  64  96 124 161 216 260 311 391
#     4   9  18  36  62  86 118 160 206 253 319 375
#     4   9  21  39  59  84 120 163 206 255 314 380
#     4  10  20  41  63  86 122 169 210 254 319 379
#     4  10  20  38  64  93 120 164 218 261 304 382
#     4  10  22  40  62  92 114 162 220 258 298 384
#     4  11  23  39  59  92 133 160 195 272 334 373
#
# _framework density 19.803502999999999
#
# number of rings (size 3 to 8) (size 9 to 14) (size 15 to 20)
#    0.000    1.867    2.667    1.600    3.733    0.533 
#    2.400    9.333    0.000    0.000    0.000    0.000 
#    0.000    0.000    0.000    0.000    0.000    0.000 
#
# Total GULP energy -371848.792364 kJ/mol
# GULP energy per Si atom -12394.959745 kJ/mol
# Density = 1.975843 g / cm^3
# Si number density = 19.803503 Si / 1000 Ang^3
#
#
#
# Elastic Constant Matrix: (Units=GPa)
#
#
# Indices 1 2 3 4 5 6 
#
# 1 72.4681 27.9241 55.1320 0.0000 0.0000 -0.0001
# 2 27.9241 97.0342 46.1256 0.0000 0.0000 -0.0002
# 3 55.1320 46.1256 118.7045 0.0000 0.0000 0.0000
# 4 0.0000 0.0000 0.0000 41.9693 0.0000 0.0000
# 5 0.0000 0.0000 0.0000 0.0000 28.4255 0.0000
# 6 -0.0001 -0.0002 0.0000 0.0000 0.0000 28.2471
#
#
#
# Elastic Compliance Matrix: (Units=1/GPa)
#
#
# Indices 1 2 3 4 5 6 
#
# 1 0.021585 -0.001774 -0.009336 0.000000 0.000000 0.000000
# 2 -0.001774 0.012786 -0.004145 0.000000 0.000000 0.000000
# 3 -0.009336 -0.004145 0.014371 0.000000 0.000000 0.000000
# 4 0.000000 0.000000 0.000000 0.023827 0.000000 0.000000
# 5 0.000000 0.000000 0.000000 0.000000 0.035180 0.000000
# 6 0.000000 0.000000 0.000000 0.000000 0.000000 0.035402
#
#
# Mechanical properties :
#
#
# Convention : Reuss Voigt Hill
#
# Bulk Modulus (GPa) = 54.84373 60.73001 57.78687
# Shear Modulus (GPa) = 27.81837 30.33005 29.07421
#
# Velocity S-wave (km/s) = 3.75203 3.91775 3.83578
# Velocity P-wave (km/s) = 6.82087 7.15527 6.99007
#
# Compressibility (1/GPa) = 0.01823362
#
# Stress axis : x y z
#
# Youngs Moduli (GPa) = 46.32792 78.20902 69.58552
#
# Poissons Ratio (x) = 0.13873 0.64965
# Poissons Ratio (y) = 0.08218 0.28840
# Poissons Ratio (z) = 0.43251 0.32414
#
# Static dielectric constant tensor:
#      x y z
#    x 3.503920 0.000000 0.000000 
#    y 0.000000 3.916090 0.000000 
#    z 0.000000 0.000000 3.749240 
# 
# 
# High freq. dielectric constant tensor:
#      x y z
#    x 1.749130 0.000000 0.000000 
#    y 0.000000 1.778540 0.000000 
#    z 0.000000 0.000000 1.775980 
# 
# From -- ./inp_files/20462.got.cif
#   From: 2010.06.25/outbox.cif.g09.slc.cpg/sg43_11_cif.got.tgz:20462.got - 2010.06.26 16:48:59.
