data_PCOD8187675
_publ_section_title
;
Structure prediction by ZEFSAII (Michael W. Deem and Ramdas Pophale) SiO2 
 PCOD8187675
Probable space group: F D D 2
;
_chemical_formula_sum "Si O2"
_cell_formula_units_Z 112
_cell_length_a 14.143326
_cell_length_b 25.587617
_cell_length_c 13.873308
_cell_angle_alpha 90.000000
_cell_angle_beta 90.000000
_cell_angle_gamma 90.000000
_cell_volume 5020.667047
_symmetry_space_group_name_H-M "F D D 2"
_symmetry_group_IT_number 43
_symmetry_cell_setting 'orthorhombic'
loop_
_space_group_symop_operation_xyz
x,y,z
-x,-y,z
1/4-x,1/4+y,1/4+z
1/4+x,1/4-y,1/4+z
x,1/2+y,1/2+z
-x,1/2-y,1/2+z
1/4-x,3/4+y,3/4+z
1/4+x,3/4-y,3/4+z
1/2+x,y,1/2+z
1/2-x,-y,1/2+z
3/4-x,1/4+y,3/4+z
3/4+x,1/4-y,3/4+z
1/2+x,1/2+y,z
1/2-x,1/2-y,z
3/4-x,3/4+y,1/4+z
3/4+x,3/4-y,1/4+z
loop_
_atom_site_type_symbol
_atom_site_label
_atom_site_fract_x
_atom_site_fract_y
_atom_site_fract_z
Si Si1 0.548496 0.120728 0.326540
Si Si2 0.750000 0.750000 0.242965
Si Si3 0.692018 0.537963 0.784839
Si Si4 0.582730 0.805923 0.820113
Si Si5 0.130494 0.916633 0.389279
Si Si6 0.912583 0.894578 0.037914
Si Si7 0.500000 0.500000 0.461696
Si Si8 0.819983 0.053565 0.914078
O O1 0.589241 0.061206 0.316757
O O2 0.612971 0.155764 0.255117
O O3 0.447510 0.131776 0.280702
O O4 0.547765 0.132773 0.440293
O O5 0.812690 0.706638 0.301499
O O6 0.820524 0.789014 0.185612
O O7 0.696267 0.530637 0.671034
O O8 0.772006 0.573979 0.833197
O O9 0.709326 0.480267 0.822881
O O10 0.585624 0.867970 0.833159
O O11 0.681414 0.783999 0.780043
O O12 0.496357 0.789453 0.752575
O O13 0.058953 0.964987 0.386058
O O14 0.948525 0.863650 0.132796
#
# Coordination Sequence:
#
# PCOD8187675 Si02
#       8
#    16   8  16  16  16  16   8  16
#     4  11  22  44  75 110 140 194 253 318 381 435
#     4  12  26  49  69 110 152 192 252 319 363 462
#     4  11  23  45  76 103 152 192 246 323 377 437
#     4  11  27  45  75 109 151 196 258 314 374 458
#     4  11  24  47  72 108 153 194 247 314 376 459
#     4  12  25  43  77 104 151 198 245 314 382 449
#     4  12  26  47  79 114 150 204 258 311 385 454
#     4  12  25  48  72 108 149 198 256 301 389 462
#
# _framework density 22.307791999999999
#
# number of rings (size 3 to 8) (size 9 to 14) (size 15 to 20)
#    0.000    0.571    5.714    1.714    4.000    2.857 
#    0.000    1.429    0.000    0.000    0.000    0.000 
#    0.000    0.000    0.000    0.000    0.000    0.000 
#
# Total GULP energy -346960.067696 kJ/mol
# GULP energy per Si atom -12391.430989 kJ/mol
# Density = 2.225702 g / cm^3
# Si number density = 22.307792 Si / 1000 Ang^3
#
#
#
# Elastic Constant Matrix: (Units=GPa)
#
#
# Indices 1 2 3 4 5 6 
#
# 1 116.1670 46.5822 65.3975 0.0000 0.0000 0.0000
# 2 46.5822 124.3500 46.1700 0.0000 0.0000 0.0000
# 3 65.3975 46.1700 109.8202 0.0000 0.0000 0.0000
# 4 0.0000 0.0000 0.0000 27.7979 0.0000 0.0000
# 5 0.0000 0.0000 0.0000 0.0000 26.6539 0.0000
# 6 0.0000 0.0000 0.0000 0.0000 0.0000 38.6466
#
#
#
# Elastic Compliance Matrix: (Units=1/GPa)
#
#
# Indices 1 2 3 4 5 6 
#
# 1 0.013559 -0.002466 -0.007038 0.000000 0.000000 0.000000
# 2 -0.002466 0.009978 -0.002726 0.000000 0.000000 0.000000
# 3 -0.007038 -0.002726 0.014443 0.000000 0.000000 0.000000
# 4 0.000000 0.000000 0.000000 0.035974 0.000000 0.000000
# 5 0.000000 0.000000 0.000000 0.000000 0.037518 0.000000
# 6 0.000000 0.000000 0.000000 0.000000 0.000000 0.025876
#
#
# Mechanical properties :
#
#
# Convention : Reuss Voigt Hill
#
# Bulk Modulus (GPa) = 73.96605 74.07072 74.01839
# Shear Modulus (GPa) = 30.06366 31.43219 30.74792
#
# Velocity S-wave (km/s) = 3.67505 3.75777 3.71664
# Velocity P-wave (km/s) = 7.15801 7.21830 7.18821
#
# Compressibility (1/GPa) = 0.01351972
#
# Stress axis : x y z
#
# Youngs Moduli (GPa) = 73.75096 100.22123 69.23901
#
# Poissons Ratio (x) = 0.24718 0.48727
# Poissons Ratio (y) = 0.18190 0.18876
# Poissons Ratio (z) = 0.51902 0.27322
#
# Static dielectric constant tensor:
#      x y z
#    x 4.043150 0.000000 0.000000 
#    y 0.000000 4.188630 0.000000 
#    z 0.000000 0.000000 3.943440 
# 
# 
# High freq. dielectric constant tensor:
#      x y z
#    x 1.883880 0.000000 0.000000 
#    y 0.000000 1.884250 0.000000 
#    z 0.000000 0.000000 1.869350 
# 
# From -- ./inp_files/10238.got.cif
#   From: 2010.06.25/outbox.cif.g09.slc.cpg/sg43_6_cif.got.tgz:10238.got - 2010.06.26 16:48:59.
