data_PCOD8187516
_publ_section_title
;
Structure prediction by ZEFSAII (Michael W. Deem and Ramdas Pophale) SiO2 
 PCOD8187516
Probable space group: F D D 2
;
_chemical_formula_sum "Si O2"
_cell_formula_units_Z 96
_cell_length_a 10.588864
_cell_length_b 26.875007
_cell_length_c 15.123444
_cell_angle_alpha 90.000000
_cell_angle_beta 90.000000
_cell_angle_gamma 90.000000
_cell_volume 4303.766086
_symmetry_space_group_name_H-M "F D D 2"
_symmetry_group_IT_number 43
_symmetry_cell_setting 'orthorhombic'
loop_
_space_group_symop_operation_xyz
x,y,z
-x,-y,z
1/4-x,1/4+y,1/4+z
1/4+x,1/4-y,1/4+z
x,1/2+y,1/2+z
-x,1/2-y,1/2+z
1/4-x,3/4+y,3/4+z
1/4+x,3/4-y,3/4+z
1/2+x,y,1/2+z
1/2-x,-y,1/2+z
3/4-x,1/4+y,3/4+z
3/4+x,1/4-y,3/4+z
1/2+x,1/2+y,z
1/2-x,1/2-y,z
3/4-x,3/4+y,1/4+z
3/4+x,3/4-y,1/4+z
loop_
_atom_site_type_symbol
_atom_site_label
_atom_site_fract_x
_atom_site_fract_y
_atom_site_fract_z
Si Si1 0.000000 0.000000 0.580230
Si Si2 0.270354 0.479051 0.323795
Si Si3 0.500000 0.000000 0.400598
Si Si4 0.390229 0.335401 0.606123
Si Si5 0.150692 0.832779 0.214926
Si Si6 0.785326 0.065101 0.656197
Si Si7 0.883177 0.659947 0.229546
O O1 0.918284 0.038920 0.635819
O O2 0.098195 0.032773 0.523836
O O3 0.360782 0.526209 0.340472
O O4 0.310223 0.431277 0.383141
O O5 0.295391 0.471150 0.219084
O O6 0.121073 0.488196 0.339832
O O7 0.463659 0.955050 0.465796
O O8 0.355710 0.368783 0.520126
O O9 0.289096 0.347262 0.681407
O O10 0.526926 0.348313 0.644547
O O11 0.804910 0.109429 0.727539
O O12 0.710764 0.082050 0.569464
#
# Coordination Sequence:
#
# PCOD8187516 Si02
#       7
#     8  16   8  16  16  16  16
#     4  12  21  42  71  94 132 182 230 287 336 423
#     4  11  25  45  65 106 139 179 231 291 349 422
#     4  10  23  46  71  92 144 180 230 293 348 407
#     4  11  23  44  72  99 137 179 237 290 346 413
#     4  12  24  45  69 100 137 180 230 292 346 416
#     4  12  25  40  71 101 140 183 237 280 361 416
#     4  11  22  45  67 104 135 187 235 295 341 431
#
# _framework density 22.306045000000001
#
# number of rings (size 3 to 8) (size 9 to 14) (size 15 to 20)
#    0.000    0.667    5.000    2.500    2.333    5.333 
#    6.000    0.000    0.000    0.000    0.000    0.000 
#    0.000    0.000    0.000    0.000    0.000    0.000 
#
# Total GULP energy -297497.196183 kJ/mol
# GULP energy per Si atom -12395.716508 kJ/mol
# Density = 2.225528 g / cm^3
# Si number density = 22.306045 Si / 1000 Ang^3
#
#
#
# Elastic Constant Matrix: (Units=GPa)
#
#
# Indices 1 2 3 4 5 6 
#
# 1 50.5796 37.2274 19.1151 0.0000 0.0000 0.0000
# 2 37.2274 113.3148 57.1574 0.0000 0.0000 0.0000
# 3 19.1151 57.1574 126.4262 0.0000 0.0000 0.0000
# 4 0.0000 0.0000 0.0000 17.4233 0.0000 0.0000
# 5 0.0000 0.0000 0.0000 0.0000 21.4603 0.0000
# 6 0.0000 0.0000 0.0000 0.0000 0.0000 35.3462
#
#
#
# Elastic Compliance Matrix: (Units=1/GPa)
#
#
# Indices 1 2 3 4 5 6 
#
# 1 0.026077 -0.008522 -0.000090 0.000000 0.000000 0.000000
# 2 -0.008522 0.014217 -0.005139 0.000000 0.000000 0.000000
# 3 -0.000090 -0.005139 0.010247 0.000000 0.000000 0.000000
# 4 0.000000 0.000000 0.000000 0.057394 0.000000 0.000000
# 5 0.000000 0.000000 0.000000 0.000000 0.046598 0.000000
# 6 0.000000 0.000000 0.000000 0.000000 0.000000 0.028292
#
#
# Mechanical properties :
#
#
# Convention : Reuss Voigt Hill
#
# Bulk Modulus (GPa) = 43.40467 57.48005 50.44236
# Shear Modulus (GPa) = 22.93524 26.63400 24.78462
#
# Velocity S-wave (km/s) = 3.21005 3.45922 3.33696
# Velocity P-wave (km/s) = 5.76543 6.46372 6.12453
#
# Compressibility (1/GPa) = 0.02303900
#
# Stress axis : x y z
#
# Youngs Moduli (GPa) = 38.34811 70.33951 97.59230
#
# Poissons Ratio (x) = 0.59941 0.00879
# Poissons Ratio (y) = 0.32679 0.50152
# Poissons Ratio (z) = 0.00345 0.36147
#
# Static dielectric constant tensor:
#      x y z
#    x 3.764940 0.000000 0.000000 
#    y 0.000000 4.144350 0.000000 
#    z 0.000000 0.000000 3.926030 
# 
# 
# High freq. dielectric constant tensor:
#      x y z
#    x 1.864950 0.000000 0.000000 
#    y 0.000000 1.892000 0.000000 
#    z 0.000000 0.000000 1.880890 
# 
# From -- ./inp_files/9738.got.cif
#   From: 2010.06.25/outbox.cif.g09.slc.cpg/sg43_5_cif.got.tgz:9738.got - 2010.06.26 16:48:59.
