data_PCOD8187898
_publ_section_title
;
Structure prediction by ZEFSAII (Michael W. Deem and Ramdas Pophale) SiO2 
 PCOD8187898
Probable space group: I M M 2
;
_chemical_formula_sum "Si O2"
_cell_formula_units_Z 64
_cell_length_a 18.320042
_cell_length_b 9.162066
_cell_length_c 26.280772
_cell_angle_alpha 90.000000
_cell_angle_beta 90.000000
_cell_angle_gamma 90.000000
_cell_volume 4411.212703
_symmetry_space_group_name_H-M "I M M 2"
_symmetry_group_IT_number 44
_symmetry_cell_setting 'orthorhombic'
loop_
_space_group_symop_operation_xyz
x,y,z
-x,-y,z
-x,y,z
x,-y,z
1/2+x,1/2+y,1/2+z
1/2-x,1/2-y,1/2+z
1/2-x,1/2+y,1/2+z
1/2+x,1/2-y,1/2+z
loop_
_atom_site_type_symbol
_atom_site_label
_atom_site_fract_x
_atom_site_fract_y
_atom_site_fract_z
Si Si1 0.168419 0.826257 0.009910
Si Si2 0.796306 0.164214 0.463647
Si Si3 0.787076 0.338590 0.857467
Si Si4 0.080444 0.827290 0.106566
Si Si5 0.416021 0.829373 0.910668
Si Si6 0.833666 0.670577 0.308345
Si Si7 0.915528 0.829898 0.220331
Si Si8 0.583728 0.170092 0.422291
O O1 0.138856 0.774879 0.064961
O O2 0.175381 0.000000 0.004842
O O3 0.248224 0.754460 0.004138
O O4 0.110906 0.770087 0.968343
O O5 0.753546 0.163504 0.411113
O O6 0.874048 0.242630 0.455121
O O7 0.809345 0.000000 0.483823
O O8 0.783218 0.500000 0.833101
O O9 0.748693 0.227239 0.818720
O O10 0.870694 0.294024 0.870523
O O11 0.104914 0.779007 0.163104
O O12 0.000000 0.761802 0.094067
O O13 0.073821 0.000000 0.105592
O O14 0.500000 0.783036 0.913147
O O15 0.386044 0.785635 0.855116
O O16 0.404410 0.000000 0.920452
O O17 0.829564 0.500000 0.300107
O O18 0.864171 0.740486 0.257482
O O19 0.000000 0.794403 0.231721
O O20 0.899812 0.000000 0.228441
O O21 0.500000 0.206684 0.410630
O O22 0.595484 0.000000 0.437105
#
# Coordination Sequence:
#
# PCOD8187898 Si02
#       8
#     8   8   8   8   8   8   8   8
#     4  10  17  26  42  60  79 106 138 167 197 234
#     4   9  17  28  40  56  79 105 134 166 198 235
#     4   8  15  27  40  54  75 105 135 159 188 231
#     4   8  15  27  41  58  79 103 134 169 198 227
#     4   9  17  28  41  58  81 107 134 165 200 237
#     4  10  18  27  40  58  80 104 131 165 201 233
#     4   9  17  29  43  57  76 104 136 167 197 231
#     4   9  17  28  41  59  83 107 132 164 199 234
#
# _framework density 14.508482000000001
#
# number of rings (size 3 to 8) (size 9 to 14) (size 15 to 20)
#    0.000    3.000    0.000    3.375    0.000    5.250 
#    0.000    1.250    0.000    1.500    0.000    0.000 
#    0.000    1.000    0.000    8.000    0.000    3.625 
#
# Total GULP energy -396660.219263 kJ/mol
# GULP energy per Si atom -12395.631852 kJ/mol
# Density = 1.447546 g / cm^3
# Si number density = 14.508482 Si / 1000 Ang^3
#
#
#
# Elastic Constant Matrix: (Units=GPa)
#
#
# Indices 1 2 3 4 5 6 
#
# 1 105.8337 44.6669 55.8485 0.0000 0.0000 0.0000
# 2 44.6669 64.3905 43.2186 0.0000 0.0000 0.0000
# 3 55.8485 43.2186 83.7385 0.0000 0.0000 0.0000
# 4 0.0000 0.0000 0.0000 18.1306 0.0000 0.0000
# 5 0.0000 0.0000 0.0000 0.0000 24.0744 0.0000
# 6 0.0000 0.0000 0.0000 0.0000 0.0000 20.5424
#
#
#
# Elastic Compliance Matrix: (Units=1/GPa)
#
#
# Indices 1 2 3 4 5 6 
#
# 1 0.015969 -0.006011 -0.007548 0.000000 0.000000 0.000000
# 2 -0.006011 0.026025 -0.009422 0.000000 0.000000 0.000000
# 3 -0.007548 -0.009422 0.021839 0.000000 0.000000 0.000000
# 4 0.000000 0.000000 0.000000 0.055155 0.000000 0.000000
# 5 0.000000 0.000000 0.000000 0.000000 0.041538 0.000000
# 6 0.000000 0.000000 0.000000 0.000000 0.000000 0.048680
#
#
# Mechanical properties :
#
#
# Convention : Reuss Voigt Hill
#
# Bulk Modulus (GPa) = 55.96208 60.15897 58.06052
# Shear Modulus (GPa) = 19.14794 19.89804 19.52299
#
# Velocity S-wave (km/s) = 3.63681 3.70736 3.67226
# Velocity P-wave (km/s) = 7.50273 7.73827 7.62141
#
# Compressibility (1/GPa) = 0.01786924
#
# Stress axis : x y z
#
# Youngs Moduli (GPa) = 62.62216 38.42519 45.79010
#
# Poissons Ratio (x) = 0.23099 0.34561
# Poissons Ratio (y) = 0.37645 0.43145
# Poissons Ratio (z) = 0.47265 0.36206
#
# Static dielectric constant tensor:
#      x y z
#    x 2.970970 0.000000 0.000000 
#    y 0.000000 2.822650 0.000000 
#    z 0.000000 0.000000 2.712620 
# 
# 
# High freq. dielectric constant tensor:
#      x y z
#    x 1.546410 0.000000 0.000000 
#    y 0.000000 1.554780 0.000000 
#    z 0.000000 0.000000 1.520190 
# 
# From -- ./inp_files/25868.got.cif
#   From: 2010.03.12/outbox.cif.g09.slc.cpg/sg44_13_cif.got.tgz:25868.got - 2010.04.14 02:36:11.
