data_PCOD8187786
_publ_section_title
;
Structure prediction by ZEFSAII (Michael W. Deem and Ramdas Pophale) SiO2 
 PCOD8187786
Probable space group: F D D 2
;
_chemical_formula_sum "Si O2"
_cell_formula_units_Z 64
_cell_length_a 13.454547
_cell_length_b 14.712072
_cell_length_c 12.211792
_cell_angle_alpha 90.000000
_cell_angle_beta 90.000000
_cell_angle_gamma 90.000000
_cell_volume 2417.254182
_symmetry_space_group_name_H-M "F D D 2"
_symmetry_group_IT_number 43
_symmetry_cell_setting 'orthorhombic'
loop_
_space_group_symop_operation_xyz
x,y,z
-x,-y,z
1/4-x,1/4+y,1/4+z
1/4+x,1/4-y,1/4+z
x,1/2+y,1/2+z
-x,1/2-y,1/2+z
1/4-x,3/4+y,3/4+z
1/4+x,3/4-y,3/4+z
1/2+x,y,1/2+z
1/2-x,-y,1/2+z
3/4-x,1/4+y,3/4+z
3/4+x,1/4-y,3/4+z
1/2+x,1/2+y,z
1/2-x,1/2-y,z
3/4-x,3/4+y,1/4+z
3/4+x,3/4-y,1/4+z
loop_
_atom_site_type_symbol
_atom_site_label
_atom_site_fract_x
_atom_site_fract_y
_atom_site_fract_z
Si Si1 0.858689 0.463086 0.905450
Si Si2 0.188346 0.838565 0.929396
Si Si3 0.753168 0.885726 0.810409
Si Si4 0.600214 0.957114 0.254552
O O1 0.866794 0.427228 0.781284
O O2 0.764250 0.418053 0.963339
O O3 0.834228 0.571886 0.891402
O O4 0.957728 0.433264 0.970365
O O5 0.250000 0.750000 0.896111
O O6 0.123377 0.867922 0.825438
O O7 0.830045 0.823952 0.879352
O O8 0.809925 0.970400 0.754485
O O9 0.500000 0.000000 0.304466
#
# Coordination Sequence:
#
# PCOD8187786 Si02
#       4
#    16  16  16  16
#     4  11  26  49  78 116 154 212 260 330 396 473
#     4  11  26  48  80 110 160 208 265 320 401 477
#     4  11  28  53  81 115 163 206 268 330 399 476
#     4  11  30  49  82 114 162 206 266 326 399 475
#
# _framework density 26.476322
#
# number of rings (size 3 to 8) (size 9 to 14) (size 15 to 20)
#    0.000    1.000    2.500    0.000   17.500    3.000 
#    0.000    0.000    0.000    0.000    0.000    0.000 
#    0.000    0.000    0.000    0.000    0.000    0.000 
#
# Total GULP energy -198357.329907 kJ/mol
# GULP energy per Si atom -12397.333119 kJ/mol
# Density = 2.641606 g / cm^3
# Si number density = 26.476322 Si / 1000 Ang^3
#
#
#
# Elastic Constant Matrix: (Units=GPa)
#
#
# Indices 1 2 3 4 5 6 
#
# 1 105.0474 50.1660 40.3644 0.0000 0.0000 0.0000
# 2 50.1660 129.9413 50.6748 0.0000 0.0000 0.0000
# 3 40.3644 50.6748 113.1234 0.0000 0.0000 0.0000
# 4 0.0000 0.0000 0.0000 37.8929 0.0000 0.0000
# 5 0.0000 0.0000 0.0000 0.0000 55.7973 0.0000
# 6 0.0000 0.0000 0.0000 0.0000 0.0000 69.1017
#
#
#
# Elastic Compliance Matrix: (Units=1/GPa)
#
#
# Indices 1 2 3 4 5 6 
#
# 1 0.012339 -0.003691 -0.002749 0.000000 0.000000 0.000000
# 2 -0.003691 0.010429 -0.003355 0.000000 0.000000 0.000000
# 3 -0.002749 -0.003355 0.011324 0.000000 0.000000 0.000000
# 4 0.000000 0.000000 0.000000 0.026390 0.000000 0.000000
# 5 0.000000 0.000000 0.000000 0.000000 0.017922 0.000000
# 6 0.000000 0.000000 0.000000 0.000000 0.000000 0.014471
#
#
# Mechanical properties :
#
#
# Convention : Reuss Voigt Hill
#
# Bulk Modulus (GPa) = 68.96034 70.05806 69.50920
# Shear Modulus (GPa) = 42.62602 46.35216 44.48909
#
# Velocity S-wave (km/s) = 4.01679 4.18868 4.10364
# Velocity P-wave (km/s) = 6.90039 7.06480 6.98308
#
# Compressibility (1/GPa) = 0.01450109
#
# Stress axis : x y z
#
# Youngs Moduli (GPa) = 81.04569 95.88454 88.31140
#
# Poissons Ratio (x) = 0.35396 0.24277
# Poissons Ratio (y) = 0.29918 0.29626
# Poissons Ratio (z) = 0.22280 0.32166
#
# Static dielectric constant tensor:
#      x y z
#    x 4.902250 0.000000 0.000000 
#    y 0.000000 5.220190 0.000000 
#    z 0.000000 0.000000 4.521070 
# 
# 
# High freq. dielectric constant tensor:
#      x y z
#    x 2.077580 0.000000 0.000000 
#    y 0.000000 2.083480 0.000000 
#    z 0.000000 0.000000 2.048440 
# 
# From -- ./inp_files/5946.got.cif
#   From: 2010.06.25/outbox.cif.g09.slc.cpg/sg43_3_cif.got.tgz:5946.got - 2010.06.26 16:48:59.
