data_PCOD8187118
_publ_section_title
;
Structure prediction by ZEFSAII (Michael W. Deem and Ramdas Pophale) SiO2 
 PCOD8187118
Probable space group: F D D 2
;
_chemical_formula_sum "Si O2"
_cell_formula_units_Z 80
_cell_length_a 19.624688
_cell_length_b 11.740296
_cell_length_c 18.609364
_cell_angle_alpha 90.000000
_cell_angle_beta 90.000000
_cell_angle_gamma 90.000000
_cell_volume 4287.590878
_symmetry_space_group_name_H-M "F D D 2"
_symmetry_group_IT_number 43
_symmetry_cell_setting 'orthorhombic'
loop_
_space_group_symop_operation_xyz
x,y,z
-x,-y,z
1/4-x,1/4+y,1/4+z
1/4+x,1/4-y,1/4+z
x,1/2+y,1/2+z
-x,1/2-y,1/2+z
1/4-x,3/4+y,3/4+z
1/4+x,3/4-y,3/4+z
1/2+x,y,1/2+z
1/2-x,-y,1/2+z
3/4-x,1/4+y,3/4+z
3/4+x,1/4-y,3/4+z
1/2+x,1/2+y,z
1/2-x,1/2-y,z
3/4-x,3/4+y,1/4+z
3/4+x,3/4-y,1/4+z
loop_
_atom_site_type_symbol
_atom_site_label
_atom_site_fract_x
_atom_site_fract_y
_atom_site_fract_z
Si Si1 0.254744 0.874039 0.034870
Si Si2 0.363522 0.759866 0.284444
Si Si3 0.417729 0.175467 0.231702
Si Si4 0.500000 0.000000 0.920584
Si Si5 0.419522 0.487697 0.844551
Si Si6 0.000000 0.000000 0.647074
O O1 0.250000 0.750000 0.996646
O O2 0.241978 0.861908 0.120643
O O3 0.330664 0.915299 0.019121
O O4 0.195795 0.955329 0.008239
O O5 0.317521 0.772262 0.215013
O O6 0.316051 0.718147 0.350122
O O7 0.401310 0.879043 0.296639
O O8 0.390478 0.098053 0.299449
O O9 0.361024 0.213742 0.173755
O O10 0.480664 0.107740 0.195777
O O11 0.500000 0.500000 0.854745
#
# Coordination Sequence:
#
# PCOD8187118 Si02
#       6
#    16  16  16   8  16   8
#     4  10  23  37  58  87 124 164 197 256 312 376
#     4  10  20  40  63  91 119 155 217 250 310 374
#     4  11  22  40  61  96 124 165 205 263 317 374
#     4   9  24  38  60  88 115 168 196 258 299 374
#     4  11  23  39  69  89 125 163 211 266 311 381
#     4   9  20  36  68  94 113 160 210 262 299 368
#
# _framework density 18.658496
#
# number of rings (size 3 to 8) (size 9 to 14) (size 15 to 20)
#    0.600    1.200    3.000    0.000    8.400    1.600 
#    0.000    3.000    0.000    0.000    0.000    0.000 
#    0.000    0.000    0.000    0.000    0.000    0.000 
#
# Total GULP energy -247824.362804 kJ/mol
# GULP energy per Si atom -12391.218140 kJ/mol
# Density = 1.861603 g / cm^3
# Si number density = 18.658496 Si / 1000 Ang^3
#
#
#
# Elastic Constant Matrix: (Units=GPa)
#
#
# Indices 1 2 3 4 5 6 
#
# 1 126.9265 65.1534 56.6309 0.0000 0.0000 0.0000
# 2 65.1534 139.0781 52.1467 0.0000 0.0000 0.0000
# 3 56.6309 52.1467 112.2539 0.0000 0.0000 0.0000
# 4 0.0000 0.0000 0.0000 45.1697 0.0000 0.0000
# 5 0.0000 0.0000 0.0000 0.0000 20.3803 0.0000
# 6 0.0000 0.0000 0.0000 0.0000 0.0000 28.5471
#
#
#
# Elastic Compliance Matrix: (Units=1/GPa)
#
#
# Indices 1 2 3 4 5 6 
#
# 1 0.011735 -0.003969 -0.004076 0.000000 0.000000 0.000000
# 2 -0.003969 0.010049 -0.002666 0.000000 0.000000 0.000000
# 3 -0.004076 -0.002666 0.012203 0.000000 0.000000 0.000000
# 4 0.000000 0.000000 0.000000 0.022139 0.000000 0.000000
# 5 0.000000 0.000000 0.000000 0.000000 0.049067 0.000000
# 6 0.000000 0.000000 0.000000 0.000000 0.000000 0.035030
#
#
# Mechanical properties :
#
#
# Convention : Reuss Voigt Hill
#
# Bulk Modulus (GPa) = 79.58797 80.68005 80.13401
# Shear Modulus (GPa) = 30.15084 32.44124 31.29604
#
# Velocity S-wave (km/s) = 4.02423 4.17428 4.09994
# Velocity P-wave (km/s) = 8.02123 8.15886 8.09034
#
# Compressibility (1/GPa) = 0.01256471
#
# Stress axis : x y z
#
# Youngs Moduli (GPa) = 85.21826 99.51153 81.94532
#
# Poissons Ratio (x) = 0.39495 0.33403
# Poissons Ratio (y) = 0.33822 0.21846
# Poissons Ratio (z) = 0.34737 0.26529
#
# Static dielectric constant tensor:
#      x y z
#    x 3.349850 0.000000 0.000000 
#    y 0.000000 3.158360 0.000000 
#    z 0.000000 0.000000 3.595200 
# 
# 
# High freq. dielectric constant tensor:
#      x y z
#    x 1.723480 0.000000 0.000000 
#    y 0.000000 1.721790 0.000000 
#    z 0.000000 0.000000 1.727480 
# 
# From -- ./inp_files/13253.got.cif
#   From: 2010.06.25/outbox.cif.g09.slc.cpg/sg43_7_cif.got.tgz:13253.got - 2010.06.26 16:48:59.
