data_PCOD8187744
_publ_section_title
;
Structure prediction by ZEFSAII (Michael W. Deem and Ramdas Pophale) SiO2 
 PCOD8187744
Probable space group: F D D 2
;
_chemical_formula_sum "Si O2"
_cell_formula_units_Z 88
_cell_length_a 15.286846
_cell_length_b 23.487672
_cell_length_c 10.629913
_cell_angle_alpha 90.000000
_cell_angle_beta 90.000000
_cell_angle_gamma 90.000000
_cell_volume 3816.696038
_symmetry_space_group_name_H-M "F D D 2"
_symmetry_group_IT_number 43
_symmetry_cell_setting 'orthorhombic'
loop_
_space_group_symop_operation_xyz
x,y,z
-x,-y,z
1/4-x,1/4+y,1/4+z
1/4+x,1/4-y,1/4+z
x,1/2+y,1/2+z
-x,1/2-y,1/2+z
1/4-x,3/4+y,3/4+z
1/4+x,3/4-y,3/4+z
1/2+x,y,1/2+z
1/2-x,-y,1/2+z
3/4-x,1/4+y,3/4+z
3/4+x,1/4-y,3/4+z
1/2+x,1/2+y,z
1/2-x,1/2-y,z
3/4-x,3/4+y,1/4+z
3/4+x,3/4-y,1/4+z
loop_
_atom_site_type_symbol
_atom_site_label
_atom_site_fract_x
_atom_site_fract_y
_atom_site_fract_z
Si Si1 0.494839 0.271839 0.056300
Si Si2 0.153877 0.191177 0.233638
Si Si3 0.752521 0.893113 0.844128
Si Si4 0.448566 0.366649 0.867458
Si Si5 0.334323 0.166707 0.617976
Si Si6 0.500000 0.000000 0.687776
O O1 0.405860 0.277808 0.133167
O O2 0.505017 0.204834 0.027015
O O3 0.578646 0.294772 0.135538
O O4 0.484273 0.308054 0.928510
O O5 0.244062 0.169970 0.167993
O O6 0.102578 0.139765 0.292935
O O7 0.169146 0.235807 0.346593
O O8 0.847964 0.878647 0.900059
O O9 0.713026 0.845488 0.750482
O O10 0.694044 0.891246 0.968224
O O11 0.265658 0.196544 0.526277
#
# Coordination Sequence:
#
# PCOD8187744 Si02
#       6
#    16  16  16  16  16   8
#     4  11  26  47  76 104 144 196 241 292 376 434
#     4  11  24  46  75 104 138 195 243 294 349 453
#     4  12  28  47  73 107 151 187 240 311 365 431
#     4  11  26  50  70 110 148 190 245 304 361 438
#     4  11  27  45  70 109 145 187 242 298 359 440
#     4  12  26  48  74 100 144 194 242 292 362 428
#
# _framework density 23.056591000000001
#
# number of rings (size 3 to 8) (size 9 to 14) (size 15 to 20)
#    0.000    0.727    1.818    4.364   17.818    0.000 
#    0.000    0.000    0.000    0.000    0.000    0.000 
#    0.000    0.000    0.000    0.000    0.000    0.000 
#
# Total GULP energy -272844.923739 kJ/mol
# GULP energy per Si atom -12402.041988 kJ/mol
# Density = 2.300411 g / cm^3
# Si number density = 23.056591 Si / 1000 Ang^3
#
#
#
# Elastic Constant Matrix: (Units=GPa)
#
#
# Indices 1 2 3 4 5 6 
#
# 1 96.1704 11.4708 29.7762 0.0000 0.0000 0.0000
# 2 11.4708 68.7122 36.5822 0.0000 0.0000 0.0000
# 3 29.7762 36.5822 141.3410 0.0000 0.0000 0.0000
# 4 0.0000 0.0000 0.0000 49.9937 0.0000 0.0000
# 5 0.0000 0.0000 0.0000 0.0000 39.1989 0.0000
# 6 0.0000 0.0000 0.0000 0.0000 0.0000 31.3017
#
#
#
# Elastic Compliance Matrix: (Units=1/GPa)
#
#
# Indices 1 2 3 4 5 6 
#
# 1 0.011153 -0.000709 -0.002166 0.000000 0.000000 0.000000
# 2 -0.000709 0.016924 -0.004231 0.000000 0.000000 0.000000
# 3 -0.002166 -0.004231 0.008627 0.000000 0.000000 0.000000
# 4 0.000000 0.000000 0.000000 0.020003 0.000000 0.000000
# 5 0.000000 0.000000 0.000000 0.000000 0.025511 0.000000
# 6 0.000000 0.000000 0.000000 0.000000 0.000000 0.031947
#
#
# Mechanical properties :
#
#
# Convention : Reuss Voigt Hill
#
# Bulk Modulus (GPa) = 44.45959 51.32023 47.88991
# Shear Modulus (GPa) = 36.79867 39.32517 38.06192
#
# Velocity S-wave (km/s) = 3.99935 4.13436 4.06742
# Velocity P-wave (km/s) = 6.37582 6.71545 6.54784
#
# Compressibility (1/GPa) = 0.02249234
#
# Stress axis : x y z
#
# Youngs Moduli (GPa) = 89.65834 59.08634 115.92104
#
# Poissons Ratio (x) = 0.04187 0.25112
# Poissons Ratio (y) = 0.06354 0.49048
# Poissons Ratio (z) = 0.19422 0.25000
#
# Static dielectric constant tensor:
#      x y z
#    x 4.191470 0.000000 0.000000 
#    y 0.000000 4.146790 0.000000 
#    z 0.000000 0.000000 4.061460 
# 
# 
# High freq. dielectric constant tensor:
#      x y z
#    x 1.923150 0.000000 0.000000 
#    y 0.000000 1.913070 0.000000 
#    z 0.000000 0.000000 1.912480 
# 
# From -- ./inp_files/6161.got.cif
#   From: 2010.06.25/outbox.cif.g09.slc.cpg/sg43_4_cif.got.tgz:6161.got - 2010.06.26 16:48:59.
