data_PCOD8187009
_publ_section_title
;
Structure prediction by ZEFSAII (Michael W. Deem and Ramdas Pophale) SiO2 
 PCOD8187009
Probable space group: F D D 2
;
_chemical_formula_sum "Si O2"
_cell_formula_units_Z 96
_cell_length_a 26.639868
_cell_length_b 15.802283
_cell_length_c 10.641036
_cell_angle_alpha 90.000000
_cell_angle_beta 90.000000
_cell_angle_gamma 90.000000
_cell_volume 4479.564727
_symmetry_space_group_name_H-M "F D D 2"
_symmetry_group_IT_number 43
_symmetry_cell_setting 'orthorhombic'
loop_
_space_group_symop_operation_xyz
x,y,z
-x,-y,z
1/4-x,1/4+y,1/4+z
1/4+x,1/4-y,1/4+z
x,1/2+y,1/2+z
-x,1/2-y,1/2+z
1/4-x,3/4+y,3/4+z
1/4+x,3/4-y,3/4+z
1/2+x,y,1/2+z
1/2-x,-y,1/2+z
3/4-x,1/4+y,3/4+z
3/4+x,1/4-y,3/4+z
1/2+x,1/2+y,z
1/2-x,1/2-y,z
3/4-x,3/4+y,1/4+z
3/4+x,3/4-y,1/4+z
loop_
_atom_site_type_symbol
_atom_site_label
_atom_site_fract_x
_atom_site_fract_y
_atom_site_fract_z
Si Si1 0.014965 0.343552 0.254520
Si Si2 0.470158 0.655497 0.236155
Si Si3 0.627174 0.411691 0.141866
Si Si4 0.026991 0.150954 0.002661
Si Si5 0.739416 0.906306 0.736784
Si Si6 0.874883 0.401037 0.616511
O O1 0.992033 0.249790 0.244439
O O2 0.987114 0.392865 0.369091
O O3 0.073512 0.341661 0.288512
O O4 0.003896 0.388581 0.119809
O O5 0.410765 0.653774 0.209096
O O6 0.498600 0.607322 0.121291
O O7 0.481170 0.611199 0.371054
O O8 0.680718 0.398000 0.206588
O O9 0.608398 0.506950 0.165785
O O10 0.624497 0.404851 0.991449
O O11 0.086329 0.142727 0.020794
O O12 0.007077 0.246721 0.995221
#
# Coordination Sequence:
#
# PCOD8187009 Si02
#       6
#    16  16  16  16  16  16
#     4  10  20  40  62  91 136 168 214 281 339 395
#     4  10  19  37  63  94 124 174 214 272 339 394
#     4  12  22  40  71 100 131 180 233 275 342 420
#     4  10  19  37  63  94 124 174 214 272 339 394
#     4  10  20  40  62  91 136 168 214 281 339 395
#     4  12  22  40  71 100 131 180 233 275 342 420
#
# _framework density 21.430653
#
# number of rings (size 3 to 8) (size 9 to 14) (size 15 to 20)
#    0.000    1.333    6.667    2.000    0.000    2.000 
#    0.000    0.000    0.000    2.000    0.000    0.000 
#    0.000    0.000    0.000    0.000    0.000    0.000 
#
# Total GULP energy -297345.380947 kJ/mol
# GULP energy per Si atom -12389.390873 kJ/mol
# Density = 2.138188 g / cm^3
# Si number density = 21.430653 Si / 1000 Ang^3
#
#
#
# Elastic Constant Matrix: (Units=GPa)
#
#
# Indices 1 2 3 4 5 6 
#
# 1 205.3672 33.1644 83.6591 0.0000 0.0000 0.0000
# 2 33.1644 14.6876 7.4926 0.0000 0.0000 0.0000
# 3 83.6591 7.4926 237.7018 0.0000 0.0000 0.0000
# 4 0.0000 0.0000 0.0000 10.7418 0.0000 0.0000
# 5 0.0000 0.0000 0.0000 0.0000 49.5603 0.0000
# 6 0.0000 0.0000 0.0000 0.0000 0.0000 36.9241
#
#
#
# Elastic Compliance Matrix: (Units=1/GPa)
#
#
# Indices 1 2 3 4 5 6 
#
# 1 0.008974 -0.018956 -0.002561 0.000000 0.000000 0.000000
# 2 -0.018956 0.109241 0.003228 0.000000 0.000000 0.000000
# 3 -0.002561 0.003228 0.005006 0.000000 0.000000 0.000000
# 4 0.000000 0.000000 0.000000 0.093095 0.000000 0.000000
# 5 0.000000 0.000000 0.000000 0.000000 0.020177 0.000000
# 6 0.000000 0.000000 0.000000 0.000000 0.000000 0.027083
#
#
# Mechanical properties :
#
#
# Convention : Reuss Voigt Hill
#
# Bulk Modulus (GPa) = 11.54154 78.48764 45.01459
# Shear Modulus (GPa) = 15.19599 41.67459 28.43529
#
# Velocity S-wave (km/s) = 2.66574 4.41457 3.64655
# Velocity P-wave (km/s) = 3.85644 7.91758 6.22737
#
# Compressibility (1/GPa) = 0.08664354
#
# Stress axis : x y z
#
# Youngs Moduli (GPa) = 111.43689 9.15409 199.74209
#
# Poissons Ratio (x) = 0.17353 0.51149
# Poissons Ratio (y) = 2.11242 -0.64481
# Poissons Ratio (z) = 0.28536 -0.02955
#
# Static dielectric constant tensor:
#      x y z
#    x 3.873590 0.000000 0.000000 
#    y 0.000000 3.303310 0.000000 
#    z 0.000000 0.000000 6.325020 
# 
# 
# High freq. dielectric constant tensor:
#      x y z
#    x 1.844930 0.000000 0.000000 
#    y 0.000000 1.783770 0.000000 
#    z 0.000000 0.000000 1.873330 
# 
# From -- ./inp_files/6672.got.cif
#   From: 2010.06.25/outbox.cif.g09.slc.cpg/sg43_4_cif.got.tgz:6672.got - 2010.06.26 16:48:59.
