data_PCOD8187720
_publ_section_title
;
Structure prediction by ZEFSAII (Michael W. Deem and Ramdas Pophale) SiO2 
 PCOD8187720
Probable space group: F D D 2
;
_chemical_formula_sum "Si O2"
_cell_formula_units_Z 112
_cell_length_a 27.188914
_cell_length_b 15.204866
_cell_length_c 11.569471
_cell_angle_alpha 90.000000
_cell_angle_beta 90.000000
_cell_angle_gamma 90.000000
_cell_volume 4782.863207
_symmetry_space_group_name_H-M "F D D 2"
_symmetry_group_IT_number 43
_symmetry_cell_setting 'orthorhombic'
loop_
_space_group_symop_operation_xyz
x,y,z
-x,-y,z
1/4-x,1/4+y,1/4+z
1/4+x,1/4-y,1/4+z
x,1/2+y,1/2+z
-x,1/2-y,1/2+z
1/4-x,3/4+y,3/4+z
1/4+x,3/4-y,3/4+z
1/2+x,y,1/2+z
1/2-x,-y,1/2+z
3/4-x,1/4+y,3/4+z
3/4+x,1/4-y,3/4+z
1/2+x,1/2+y,z
1/2-x,1/2-y,z
3/4-x,3/4+y,1/4+z
3/4+x,3/4-y,1/4+z
loop_
_atom_site_type_symbol
_atom_site_label
_atom_site_fract_x
_atom_site_fract_y
_atom_site_fract_z
Si Si1 0.000000 0.000000 0.876880
Si Si2 0.415310 0.408647 0.489333
Si Si3 0.250000 0.250000 0.610300
Si Si4 0.145616 0.311646 0.171940
Si Si5 0.609203 0.756327 0.931772
Si Si6 0.920509 0.215071 0.076501
Si Si7 0.695759 0.580256 0.088543
Si Si8 0.228141 0.566592 0.045846
O O1 0.020672 0.915640 0.799673
O O2 0.951626 0.969981 0.951911
O O3 0.466460 0.445931 0.448168
O O4 0.404522 0.453952 0.611699
O O5 0.378400 0.431250 0.386185
O O6 0.413124 0.305717 0.509765
O O7 0.230993 0.172302 0.526664
O O8 0.151396 0.410893 0.128744
O O9 0.106819 0.315906 0.276749
O O10 0.122283 0.254373 0.067550
O O11 0.559820 0.809964 0.903188
O O12 0.961839 0.224335 0.174122
O O13 0.935785 0.148191 0.974168
O O14 0.722706 0.486114 0.076614
#
# Coordination Sequence:
#
# PCOD8187720 Si02
#       8
#     8  16   8  16  16  16  16  16
#     4  12  28  50  74 114 150 210 256 324 400 476
#     4  11  24  44  75 106 149 198 256 324 393 474
#     4  12  24  46  74 116 148 208 254 320 402 478
#     4  12  26  47  76 109 157 200 260 327 396 479
#     4  11  23  46  72 109 150 199 258 322 390 470
#     4  11  26  48  71 107 152 198 261 324 390 482
#     4  12  28  48  76 111 151 204 260 329 407 474
#     4  11  25  47  74 110 154 201 264 324 395 479
#
# _framework density 23.416934999999999
#
# number of rings (size 3 to 8) (size 9 to 14) (size 15 to 20)
#    0.000    0.571    4.286    4.286    4.000    2.286 
#    2.571    0.000    0.000    0.000    0.000    0.000 
#    0.000    0.000    0.000    0.000    0.000    0.000 
#
# Total GULP energy -346921.005277 kJ/mol
# GULP energy per Si atom -12390.035903 kJ/mol
# Density = 2.336364 g / cm^3
# Si number density = 23.416935 Si / 1000 Ang^3
#
#
#
# Elastic Constant Matrix: (Units=GPa)
#
#
# Indices 1 2 3 4 5 6 
#
# 1 133.5080 44.0684 58.6168 0.0000 0.0000 0.0000
# 2 44.0684 139.5570 13.3658 0.0000 0.0000 0.0000
# 3 58.6168 13.3658 116.0869 0.0000 0.0000 0.0000
# 4 0.0000 0.0000 0.0000 34.6716 0.0000 0.0000
# 5 0.0000 0.0000 0.0000 0.0000 24.2508 0.0000
# 6 0.0000 0.0000 0.0000 0.0000 0.0000 40.0223
#
#
#
# Elastic Compliance Matrix: (Units=1/GPa)
#
#
# Indices 1 2 3 4 5 6 
#
# 1 0.010659 -0.002882 -0.005050 0.000000 0.000000 0.000000
# 2 -0.002882 0.008025 0.000531 0.000000 0.000000 0.000000
# 3 -0.005050 0.000531 0.011103 0.000000 0.000000 0.000000
# 4 0.000000 0.000000 0.000000 0.028842 0.000000 0.000000
# 5 0.000000 0.000000 0.000000 0.000000 0.041236 0.000000
# 6 0.000000 0.000000 0.000000 0.000000 0.000000 0.024986
#
#
# Mechanical properties :
#
#
# Convention : Reuss Voigt Hill
#
# Bulk Modulus (GPa) = 66.73463 69.02820 67.88142
# Shear Modulus (GPa) = 34.56683 37.99566 36.28125
#
# Velocity S-wave (km/s) = 3.84623 4.03249 3.94046
# Velocity P-wave (km/s) = 6.94874 7.15704 7.05366
#
# Compressibility (1/GPa) = 0.01498472
#
# Stress axis : x y z
#
# Youngs Moduli (GPa) = 93.81907 124.61476 90.06486
#
# Poissons Ratio (x) = 0.35915 0.45485
# Poissons Ratio (y) = 0.27040 -0.04786
# Poissons Ratio (z) = 0.47381 -0.06621
#
# Static dielectric constant tensor:
#      x y z
#    x 4.393790 0.000000 0.000000 
#    y 0.000000 4.369370 0.000000 
#    z 0.000000 0.000000 3.994830 
# 
# 
# High freq. dielectric constant tensor:
#      x y z
#    x 1.932890 0.000000 0.000000 
#    y 0.000000 1.953800 0.000000 
#    z 0.000000 0.000000 1.904750 
# 
# From -- ./inp_files/8309.got.cif
#   From: 2010.06.25/outbox.cif.g09.slc.cpg/sg43_5_cif.got.tgz:8309.got - 2010.06.26 16:48:59.
