data_PCOD8187702
_publ_section_title
;
Structure prediction by ZEFSAII (Michael W. Deem and Ramdas Pophale) SiO2 
 PCOD8187702
Probable space group: F D D 2
;
_chemical_formula_sum "Si O2"
_cell_formula_units_Z 112
_cell_length_a 11.064660
_cell_length_b 27.786306
_cell_length_c 16.835046
_cell_angle_alpha 90.000000
_cell_angle_beta 90.000000
_cell_angle_gamma 90.000000
_cell_volume 5175.868033
_symmetry_space_group_name_H-M "F D D 2"
_symmetry_group_IT_number 43
_symmetry_cell_setting 'orthorhombic'
loop_
_space_group_symop_operation_xyz
x,y,z
-x,-y,z
1/4-x,1/4+y,1/4+z
1/4+x,1/4-y,1/4+z
x,1/2+y,1/2+z
-x,1/2-y,1/2+z
1/4-x,3/4+y,3/4+z
1/4+x,3/4-y,3/4+z
1/2+x,y,1/2+z
1/2-x,-y,1/2+z
3/4-x,1/4+y,3/4+z
3/4+x,1/4-y,3/4+z
1/2+x,1/2+y,z
1/2-x,1/2-y,z
3/4-x,3/4+y,1/4+z
3/4+x,3/4-y,1/4+z
loop_
_atom_site_type_symbol
_atom_site_label
_atom_site_fract_x
_atom_site_fract_y
_atom_site_fract_z
Si Si1 0.786051 0.936334 0.777100
Si Si2 0.116304 0.612066 0.838647
Si Si3 0.591854 0.110247 0.416314
Si Si4 0.120612 0.772981 0.979694
Si Si5 0.135738 0.341906 0.348600
Si Si6 0.380785 0.150588 0.762644
Si Si7 0.730140 0.805025 0.902972
O O1 0.851300 0.931820 0.861967
O O2 0.671151 0.902064 0.780539
O O3 0.881466 0.920137 0.710234
O O4 0.739351 0.989283 0.755758
O O5 0.155323 0.572061 0.776477
O O6 0.226898 0.644948 0.869021
O O7 0.018642 0.646266 0.794801
O O8 0.089930 0.585923 0.922849
O O9 0.452946 0.117971 0.388612
O O10 0.618815 0.090034 0.503563
O O11 0.648703 0.163470 0.407162
O O12 0.250000 0.750000 0.000956
O O13 0.112783 0.788702 0.886684
O O14 0.318179 0.192802 0.813098
O O15 0.750000 0.750000 0.928874
#
# Coordination Sequence:
#
# PCOD8187702 Si02
#       7
#    16  16  16  16  16  16  16
#     4  11  23  44  68  99 141 177 232 304 360 425
#     4  12  22  43  69  97 139 184 235 293 369 437
#     4  11  24  45  72 100 142 193 237 287 373 434
#     4  12  25  43  70 103 141 181 237 306 360 433
#     4  12  23  45  71 101 140 196 240 289 369 445
#     4  11  23  43  69  98 135 184 233 289 374 430
#     4  11  24  42  70  99 137 184 239 302 355 432
#
# _framework density 21.638883
#
# number of rings (size 3 to 8) (size 9 to 14) (size 15 to 20)
#    0.000    0.571    7.143    0.857    0.000    0.571 
#    5.143    0.714    0.000    0.000    0.000    0.000 
#    0.000    0.000    0.000    0.000    0.000    0.000 
#
# Total GULP energy -346983.791739 kJ/mol
# GULP energy per Si atom -12392.278276 kJ/mol
# Density = 2.158963 g / cm^3
# Si number density = 21.638883 Si / 1000 Ang^3
#
#
#
# Elastic Constant Matrix: (Units=GPa)
#
#
# Indices 1 2 3 4 5 6 
#
# 1 95.4360 18.2512 21.0659 0.0000 0.0000 0.0000
# 2 18.2512 66.7362 19.1153 0.0000 0.0000 0.0000
# 3 21.0659 19.1153 149.2925 0.0000 0.0000 0.0000
# 4 0.0000 0.0000 0.0000 35.6362 0.0000 0.0000
# 5 0.0000 0.0000 0.0000 0.0000 36.6352 0.0000
# 6 0.0000 0.0000 0.0000 0.0000 0.0000 15.9651
#
#
#
# Elastic Compliance Matrix: (Units=1/GPa)
#
#
# Indices 1 2 3 4 5 6 
#
# 1 0.011274 -0.002728 -0.001242 0.000000 0.000000 0.000000
# 2 -0.002728 0.016215 -0.001691 0.000000 0.000000 0.000000
# 3 -0.001242 -0.001691 0.007090 0.000000 0.000000 0.000000
# 4 0.000000 0.000000 0.000000 0.028061 0.000000 0.000000
# 5 0.000000 0.000000 0.000000 0.000000 0.027296 0.000000
# 6 0.000000 0.000000 0.000000 0.000000 0.000000 0.062637
#
#
# Mechanical properties :
#
#
# Convention : Reuss Voigt Hill
#
# Bulk Modulus (GPa) = 42.99626 47.59216 45.29421
# Shear Modulus (GPa) = 29.12971 34.51613 31.82292
#
# Velocity S-wave (km/s) = 3.67301 3.99820 3.83905
# Velocity P-wave (km/s) = 6.15638 6.58450 6.37404
#
# Compressibility (1/GPa) = 0.02325783
#
# Stress axis : x y z
#
# Youngs Moduli (GPa) = 88.70042 61.67231 141.04380
#
# Poissons Ratio (x) = 0.16822 0.17511
# Poissons Ratio (y) = 0.24194 0.23854
# Poissons Ratio (z) = 0.11013 0.10430
#
# Static dielectric constant tensor:
#      x y z
#    x 4.093960 0.000000 0.000000 
#    y 0.000000 3.557960 0.000000 
#    z 0.000000 0.000000 4.206080 
# 
# 
# High freq. dielectric constant tensor:
#      x y z
#    x 1.865270 0.000000 0.000000 
#    y 0.000000 1.816100 0.000000 
#    z 0.000000 0.000000 1.868260 
# 
# From -- ./inp_files/9767.got.cif
#   From: 2010.06.25/outbox.cif.g09.slc.cpg/sg43_5_cif.got.tgz:9767.got - 2010.06.26 16:48:59.
