data_PCOD8187014
_publ_section_title
;
Structure prediction by ZEFSAII (Michael W. Deem and Ramdas Pophale) SiO2 
 PCOD8187014
Probable space group: F D D 2
;
_chemical_formula_sum "Si O2"
_cell_formula_units_Z 96
_cell_length_a 9.912839
_cell_length_b 17.975022
_cell_length_c 28.031152
_cell_angle_alpha 90.000000
_cell_angle_beta 90.000000
_cell_angle_gamma 90.000000
_cell_volume 4994.688747
_symmetry_space_group_name_H-M "F D D 2"
_symmetry_group_IT_number 43
_symmetry_cell_setting 'orthorhombic'
loop_
_space_group_symop_operation_xyz
x,y,z
-x,-y,z
1/4-x,1/4+y,1/4+z
1/4+x,1/4-y,1/4+z
x,1/2+y,1/2+z
-x,1/2-y,1/2+z
1/4-x,3/4+y,3/4+z
1/4+x,3/4-y,3/4+z
1/2+x,y,1/2+z
1/2-x,-y,1/2+z
3/4-x,1/4+y,3/4+z
3/4+x,1/4-y,3/4+z
1/2+x,1/2+y,z
1/2-x,1/2-y,z
3/4-x,3/4+y,1/4+z
3/4+x,3/4-y,1/4+z
loop_
_atom_site_type_symbol
_atom_site_label
_atom_site_fract_x
_atom_site_fract_y
_atom_site_fract_z
Si Si1 0.845547 0.679233 0.945460
Si Si2 0.745178 0.838126 0.847558
Si Si3 0.274756 0.916898 0.023288
Si Si4 0.986865 0.842712 0.787878
Si Si5 0.232700 0.662417 0.827223
Si Si6 0.588712 0.927063 0.683509
O O1 0.750000 0.750000 0.951409
O O2 0.797788 0.630859 0.899366
O O3 0.823467 0.630381 0.991550
O O4 0.003402 0.699908 0.937547
O O5 0.750000 0.750000 0.852058
O O6 0.641518 0.864642 0.807210
O O7 0.893135 0.865202 0.832627
O O8 0.301563 0.888335 0.970168
O O9 0.267812 0.005749 0.025530
O O10 0.134992 0.883296 0.042790
O O11 0.131589 0.873319 0.805211
O O12 0.250000 0.750000 0.824846
O O13 0.198239 0.641968 0.881917
O O14 0.500000 0.000000 0.694297
#
# Coordination Sequence:
#
# PCOD8187014 Si02
#       6
#    16  16  16  16  16  16
#     4  11  23  37  58  87 116 150 193 234 288 341
#     4   9  18  34  59  81 108 149 192 226 274 341
#     4  10  19  38  60  83 111 149 195 233 279 337
#     4  10  21  38  61  85 111 149 193 238 279 335
#     4   9  20  36  58  85 113 150 191 228 283 343
#     4  11  23  37  58  87 117 149 190 239 287 339
#
# _framework density 19.220416
#
# number of rings (size 3 to 8) (size 9 to 14) (size 15 to 20)
#    0.000    2.000    3.333    0.000    9.333    0.000 
#    0.000    3.333    0.000    0.000    0.000    0.000 
#    0.000    0.000    0.000    0.000    0.000    0.000 
#
# Total GULP energy -297442.682040 kJ/mol
# GULP energy per Si atom -12393.445085 kJ/mol
# Density = 1.917667 g / cm^3
# Si number density = 19.220416 Si / 1000 Ang^3
#
#
#
# Elastic Constant Matrix: (Units=GPa)
#
#
# Indices 1 2 3 4 5 6 
#
# 1 167.3525 26.3730 57.5684 0.0000 0.0000 0.0000
# 2 26.3730 25.6602 23.0321 0.0000 0.0000 0.0000
# 3 57.5684 23.0321 125.3653 0.0000 0.0000 0.0000
# 4 0.0000 0.0000 0.0000 24.2836 0.0000 0.0000
# 5 0.0000 0.0000 0.0000 0.0000 39.0225 0.0000
# 6 0.0000 0.0000 0.0000 0.0000 0.0000 18.6392
#
#
#
# Elastic Compliance Matrix: (Units=1/GPa)
#
#
# Indices 1 2 3 4 5 6 
#
# 1 0.007736 -0.005702 -0.002505 0.000000 0.000000 0.000000
# 2 -0.005702 0.050870 -0.006727 0.000000 0.000000 0.000000
# 3 -0.002505 -0.006727 0.010363 0.000000 0.000000 0.000000
# 4 0.000000 0.000000 0.000000 0.041180 0.000000 0.000000
# 5 0.000000 0.000000 0.000000 0.000000 0.025626 0.000000
# 6 0.000000 0.000000 0.000000 0.000000 0.000000 0.053650
#
#
# Mechanical properties :
#
#
# Convention : Reuss Voigt Hill
#
# Bulk Modulus (GPa) = 25.57562 59.14722 42.36142
# Shear Modulus (GPa) = 21.52142 30.48269 26.00206
#
# Velocity S-wave (km/s) = 3.34985 3.98672 3.68208
# Velocity P-wave (km/s) = 5.31952 7.21331 6.33756
#
# Compressibility (1/GPa) = 0.03909974
#
# Stress axis : x y z
#
# Youngs Moduli (GPa) = 129.27220 19.65802 96.49963
#
# Poissons Ratio (x) = 0.11210 0.24169
# Poissons Ratio (y) = 0.73716 0.64917
# Poissons Ratio (z) = 0.32377 0.13224
#
# Static dielectric constant tensor:
#      x y z
#    x 4.028620 0.000000 0.000000 
#    y 0.000000 2.979430 0.000000 
#    z 0.000000 0.000000 3.860360 
# 
# 
# High freq. dielectric constant tensor:
#      x y z
#    x 1.774210 0.000000 0.000000 
#    y 0.000000 1.691420 0.000000 
#    z 0.000000 0.000000 1.764990 
# 
# From -- ./inp_files/20293.got.cif
#   From: 2010.06.25/outbox.cif.g09.slc.cpg/sg43_11_cif.got.tgz:20293.got - 2010.06.26 16:48:59.
