data_PCOD8187872
_publ_section_title
;
Structure prediction by ZEFSAII (Michael W. Deem and Ramdas Pophale) SiO2 
 PCOD8187872
Probable space group: I M M 2
;
_chemical_formula_sum "Si O2"
_cell_formula_units_Z 64
_cell_length_a 23.486543
_cell_length_b 9.421639
_cell_length_c 19.160878
_cell_angle_alpha 90.000000
_cell_angle_beta 90.000000
_cell_angle_gamma 90.000000
_cell_volume 4239.952223
_symmetry_space_group_name_H-M "I M M 2"
_symmetry_group_IT_number 44
_symmetry_cell_setting 'orthorhombic'
loop_
_space_group_symop_operation_xyz
x,y,z
-x,-y,z
-x,y,z
x,-y,z
1/2+x,1/2+y,1/2+z
1/2-x,1/2-y,1/2+z
1/2-x,1/2+y,1/2+z
1/2+x,1/2-y,1/2+z
loop_
_atom_site_type_symbol
_atom_site_label
_atom_site_fract_x
_atom_site_fract_y
_atom_site_fract_z
Si Si1 0.272954 0.167862 0.582560
Si Si2 0.248466 0.167750 0.734347
Si Si3 0.065765 0.833036 0.874120
Si Si4 0.166125 0.168384 0.500477
Si Si5 0.730581 0.664981 0.867529
Si Si6 0.936756 0.169370 0.588210
Si Si7 0.343512 0.834642 0.454392
Si Si8 0.118446 0.168220 0.729858
O O1 0.280686 0.214950 0.662999
O O2 0.214153 0.232534 0.552185
O O3 0.325661 0.213280 0.533064
O O4 0.266819 0.000000 0.578844
O O5 0.279558 0.244614 0.798093
O O6 0.183390 0.221136 0.730413
O O7 0.251792 0.000000 0.746466
O O8 0.101362 0.755495 0.934235
O O9 0.086048 0.776364 0.798617
O O10 0.000000 0.794079 0.884415
O O11 0.076653 0.000000 0.880742
O O12 0.180410 0.212042 0.420966
O O13 0.104270 0.223755 0.525525
O O14 0.168430 0.000000 0.506432
O O15 0.725961 0.500000 0.848585
O O16 0.791659 0.698866 0.901898
O O17 0.913554 0.229409 0.661896
O O18 0.000000 0.229859 0.574666
O O19 0.937835 0.000000 0.590758
O O20 0.359349 0.000000 0.451919
O O21 0.116845 0.000000 0.727036
#
# Coordination Sequence:
#
# PCOD8187872 Si02
#       8
#     8   8   8   8   8   8   8   8
#     4   8  14  25  41  59  79 105 138 174 209 241
#     4  10  16  25  44  64  82 108 139 169 202 244
#     4  10  19  29  41  60  87 115 141 169 203 244
#     4   8  13  23  36  54  80 109 136 166 204 239
#     4   9  17  27  40  58  84 112 136 167 209 249
#     4   9  14  20  34  57  83 110 140 169 197 234
#     4   9  17  29  43  59  80 108 143 178 208 242
#     4   9  15  23  35  57  87 112 134 164 197 231
#
# _framework density 15.094511000000001
#
# number of rings (size 3 to 8) (size 9 to 14) (size 15 to 20)
#    0.000    3.000    2.500    1.875    0.000    1.750 
#    0.000    0.625    0.000    0.750    0.000    0.875 
#    0.000    5.500    0.000    0.000    0.000    0.000 
#
# Total GULP energy -396579.006380 kJ/mol
# GULP energy per Si atom -12393.093949 kJ/mol
# Density = 1.506015 g / cm^3
# Si number density = 15.094511 Si / 1000 Ang^3
#
#
#
# Elastic Constant Matrix: (Units=GPa)
#
#
# Indices 1 2 3 4 5 6 
#
# 1 97.5348 23.1716 74.3813 0.0000 0.0000 0.0000
# 2 23.1716 21.6521 34.3927 0.0000 0.0000 0.0000
# 3 74.3813 34.3927 141.2848 0.0000 0.0000 0.0000
# 4 0.0000 0.0000 0.0000 21.4163 0.0000 0.0000
# 5 0.0000 0.0000 0.0000 0.0000 25.8291 0.0000
# 6 0.0000 0.0000 0.0000 0.0000 0.0000 14.1523
#
#
#
# Elastic Compliance Matrix: (Units=1/GPa)
#
#
# Indices 1 2 3 4 5 6 
#
# 1 0.017717 -0.006757 -0.007682 0.000000 0.000000 0.000000
# 2 -0.006757 0.077879 -0.015400 0.000000 0.000000 0.000000
# 3 -0.007682 -0.015400 0.014871 0.000000 0.000000 0.000000
# 4 0.000000 0.000000 0.000000 0.046693 0.000000 0.000000
# 5 0.000000 0.000000 0.000000 0.000000 0.038716 0.000000
# 6 0.000000 0.000000 0.000000 0.000000 0.000000 0.070660
#
#
# Mechanical properties :
#
#
# Convention : Reuss Voigt Hill
#
# Bulk Modulus (GPa) = 19.69016 58.26253 38.97634
# Shear Modulus (GPa) = 14.57109 20.84795 17.70952
#
# Velocity S-wave (km/s) = 3.11034 3.72043 3.42898
# Velocity P-wave (km/s) = 5.09626 7.55895 6.44630
#
# Compressibility (1/GPa) = 0.05078678
#
# Stress axis : x y z
#
# Youngs Moduli (GPa) = 56.44391 12.84044 67.24395
#
# Poissons Ratio (x) = 0.08677 0.51659
# Poissons Ratio (y) = 0.38141 1.03558
# Poissons Ratio (z) = 0.43362 0.19775
#
# Static dielectric constant tensor:
#      x y z
#    x 2.920500 0.000000 0.000000 
#    y 0.000000 2.440450 0.000000 
#    z 0.000000 0.000000 3.108820 
# 
# 
# High freq. dielectric constant tensor:
#      x y z
#    x 1.558020 0.000000 0.000000 
#    y 0.000000 1.529220 0.000000 
#    z 0.000000 0.000000 1.579850 
# 
# From -- ./inp_files/20902.got.cif
#   From: 2010.03.12/outbox.cif.g09.slc.cpg/sg44_11_cif.got.tgz:20902.got - 2010.04.14 02:36:11.
