data_PCOD8187179
_publ_section_title
;
Structure prediction by ZEFSAII (Michael W. Deem and Ramdas Pophale) SiO2 
 PCOD8187179
Probable space group: F D D 2
;
_chemical_formula_sum "Si O2"
_cell_formula_units_Z 120
_cell_length_a 25.287215
_cell_length_b 8.348666
_cell_length_c 25.913504
_cell_angle_alpha 90.000000
_cell_angle_beta 90.000000
_cell_angle_gamma 90.000000
_cell_volume 5470.716754
_symmetry_space_group_name_H-M "F D D 2"
_symmetry_group_IT_number 43
_symmetry_cell_setting 'orthorhombic'
loop_
_space_group_symop_operation_xyz
x,y,z
-x,-y,z
1/4-x,1/4+y,1/4+z
1/4+x,1/4-y,1/4+z
x,1/2+y,1/2+z
-x,1/2-y,1/2+z
1/4-x,3/4+y,3/4+z
1/4+x,3/4-y,3/4+z
1/2+x,y,1/2+z
1/2-x,-y,1/2+z
3/4-x,1/4+y,3/4+z
3/4+x,1/4-y,3/4+z
1/2+x,1/2+y,z
1/2-x,1/2-y,z
3/4-x,3/4+y,1/4+z
3/4+x,3/4-y,1/4+z
loop_
_atom_site_type_symbol
_atom_site_label
_atom_site_fract_x
_atom_site_fract_y
_atom_site_fract_z
Si Si1 0.192629 0.256425 0.362450
Si Si2 0.902623 0.860010 0.210970
Si Si3 0.203370 0.516354 0.284875
Si Si4 0.637348 0.734462 0.846597
Si Si5 0.144426 0.761986 0.462888
Si Si6 0.927232 0.246536 0.035210
Si Si7 0.214022 0.903937 0.546940
Si Si8 0.000000 0.500000 0.768027
O O1 0.250000 0.250000 0.390587
O O2 0.150111 0.340552 0.400323
O O3 0.199357 0.336970 0.305951
O O4 0.174855 0.083508 0.342421
O O5 0.913748 0.672115 0.217842
O O6 0.846683 0.898805 0.237373
O O7 0.947939 0.970194 0.234918
O O8 0.186867 0.617432 0.335854
O O9 0.163821 0.540249 0.236881
O O10 0.263838 0.553930 0.268830
O O11 0.642365 0.811626 0.903088
O O12 0.581090 0.645301 0.841134
O O13 0.639326 0.854904 0.797735
O O14 0.187733 0.873727 0.490557
O O15 0.250000 0.750000 0.560251
O O16 0.241706 0.081152 0.549765
#
# Coordination Sequence:
#
# PCOD8187179 Si02
#       8
#    16  16  16  16  16  16  16   8
#     4  10  21  36  61  95 127 171 221 272 330 400
#     4  12  22  40  67  97 131 176 226 280 340 403
#     4  10  22  43  62  93 135 168 221 273 337 401
#     4  11  24  42  67  97 132 178 221 273 346 403
#     4  11  24  42  68 100 133 174 225 285 337 401
#     4  11  24  40  64  96 134 178 220 281 334 411
#     4  11  25  45  70  97 139 177 226 283 335 402
#     4  12  24  44  68 102 134 174 230 288 340 402
#
# _framework density 21.934968000000001
#
# number of rings (size 3 to 8) (size 9 to 14) (size 15 to 20)
#    0.000    1.067    6.000    0.400    1.867    1.067 
#    2.400    0.000    5.867    0.000    0.000    0.000 
#    0.000    0.000    0.000    0.000    0.000    0.000 
#
# Total GULP energy -371722.646397 kJ/mol
# GULP energy per Si atom -12390.754880 kJ/mol
# Density = 2.188504 g / cm^3
# Si number density = 21.934968 Si / 1000 Ang^3
#
#
#
# Elastic Constant Matrix: (Units=GPa)
#
#
# Indices 1 2 3 4 5 6 
#
# 1 113.1350 30.2379 39.9567 0.0000 0.0000 -0.0001
# 2 30.2379 97.2314 14.4574 -0.0002 0.0000 0.0001
# 3 39.9567 14.4574 76.4371 0.0000 0.0000 0.0001
# 4 0.0000 -0.0002 0.0000 27.7779 0.0000 0.0001
# 5 0.0000 0.0000 0.0000 0.0000 20.1042 0.0000
# 6 -0.0001 0.0001 0.0001 0.0001 0.0000 35.7638
#
#
#
# Elastic Compliance Matrix: (Units=1/GPa)
#
#
# Indices 1 2 3 4 5 6 
#
# 1 0.011520 -0.002765 -0.005499 0.000000 0.000000 0.000000
# 2 -0.002765 0.011246 -0.000682 0.000000 0.000000 0.000000
# 3 -0.005499 -0.000682 0.016086 0.000000 0.000000 0.000000
# 4 0.000000 0.000000 0.000000 0.036000 0.000000 0.000000
# 5 0.000000 0.000000 0.000000 0.000000 0.049741 0.000000
# 6 0.000000 0.000000 0.000000 0.000000 0.000000 0.027961
#
#
# Mechanical properties :
#
#
# Convention : Reuss Voigt Hill
#
# Bulk Modulus (GPa) = 47.70815 50.67862 49.19339
# Shear Modulus (GPa) = 28.17971 30.20595 29.19283
#
# Velocity S-wave (km/s) = 3.58815 3.71491 3.65208
# Velocity P-wave (km/s) = 6.24207 6.44631 6.34501
#
# Compressibility (1/GPa) = 0.02096078
#
# Stress axis : x y z
#
# Youngs Moduli (GPa) = 86.80447 88.92061 62.16523
#
# Poissons Ratio (x) = 0.24586 0.34185
# Poissons Ratio (y) = 0.24001 0.04238
# Poissons Ratio (z) = 0.47734 0.06062
#
# Static dielectric constant tensor:
#      x y z
#    x 3.968720 0.000000 0.000000 
#    y 0.000000 4.146390 0.000000 
#    z 0.000000 0.000000 3.587720 
# 
# 
# High freq. dielectric constant tensor:
#      x y z
#    x 1.858630 0.000000 0.000000 
#    y 0.000000 1.878560 0.000000 
#    z 0.000000 0.000000 1.835120 
# 
# From -- ./inp_files/24458.got.cif
#   From: 2010.06.25/outbox.cif.g09.slc.cpg/sg43_13_cif.got.tgz:24458.got - 2010.06.26 16:48:59.
