data_PCOD8187126
_publ_section_title
;
Structure prediction by ZEFSAII (Michael W. Deem and Ramdas Pophale) SiO2 
 PCOD8187126
Probable space group: F D D 2
;
_chemical_formula_sum "Si O2"
_cell_formula_units_Z 120
_cell_length_a 28.065771
_cell_length_b 10.350042
_cell_length_c 20.710940
_cell_angle_alpha 90.000000
_cell_angle_beta 90.000000
_cell_angle_gamma 90.000000
_cell_volume 6016.153380
_symmetry_space_group_name_H-M "F D D 2"
_symmetry_group_IT_number 43
_symmetry_cell_setting 'orthorhombic'
loop_
_space_group_symop_operation_xyz
x,y,z
-x,-y,z
1/4-x,1/4+y,1/4+z
1/4+x,1/4-y,1/4+z
x,1/2+y,1/2+z
-x,1/2-y,1/2+z
1/4-x,3/4+y,3/4+z
1/4+x,3/4-y,3/4+z
1/2+x,y,1/2+z
1/2-x,-y,1/2+z
3/4-x,1/4+y,3/4+z
3/4+x,1/4-y,3/4+z
1/2+x,1/2+y,z
1/2-x,1/2-y,z
3/4-x,3/4+y,1/4+z
3/4+x,3/4-y,1/4+z
loop_
_atom_site_type_symbol
_atom_site_label
_atom_site_fract_x
_atom_site_fract_y
_atom_site_fract_z
Si Si1 0.257731 0.026409 0.818920
Si Si2 0.653237 0.987646 0.040738
Si Si3 0.576378 0.637073 0.460496
Si Si4 0.000000 0.500000 0.622176
Si Si5 0.554004 0.498398 0.329177
Si Si6 0.409662 0.154227 0.128261
Si Si7 0.296657 0.671890 0.436858
Si Si8 0.408294 0.920869 0.699407
O O1 0.279763 0.062379 0.749333
O O2 0.205227 0.086095 0.830313
O O3 0.291965 0.085738 0.872982
O O4 0.255145 0.872271 0.825304
O O5 0.677514 0.101158 0.081873
O O6 0.637342 0.868404 0.085878
O O7 0.607063 0.040794 0.003985
O O8 0.691746 0.929386 0.992384
O O9 0.557657 0.560891 0.398979
O O10 0.609135 0.754782 0.435162
O O11 0.047077 0.507605 0.666293
O O12 0.500000 0.500000 0.305625
O O13 0.584126 0.580257 0.276662
O O14 0.403195 0.276642 0.173747
O O15 0.412896 0.028444 0.174225
O O16 0.250000 0.750000 0.457392
#
# Coordination Sequence:
#
# PCOD8187126 Si02
#       8
#    16  16  16   8  16  16  16  16
#     4  10  21  40  65  93 124 166 212 256 319 380
#     4  11  23  40  64  96 120 163 213 266 315 380
#     4  11  24  39  65  93 129 161 212 268 321 374
#     4  10  20  40  66  90 122 166 216 262 304 388
#     4  11  25  41  64  92 130 166 210 268 319 374
#     4  10  22  41  64  94 125 167 211 257 315 391
#     4  10  21  38  65  91 126 164 206 258 315 386
#     4  10  23  40  63  92 124 167 215 257 316 386
#
# _framework density 19.946300000000001
#
# number of rings (size 3 to 8) (size 9 to 14) (size 15 to 20)
#    0.000    1.600    2.000    2.400   11.200    1.067 
#    2.400    0.000    0.000    0.000    0.000    0.000 
#    0.000    0.000    0.000    0.000    0.000    0.000 
#
# Total GULP energy -372025.974237 kJ/mol
# GULP energy per Si atom -12400.865808 kJ/mol
# Density = 1.990090 g / cm^3
# Si number density = 19.946300 Si / 1000 Ang^3
#
#
#
# Elastic Constant Matrix: (Units=GPa)
#
#
# Indices 1 2 3 4 5 6 
#
# 1 64.9663 44.3958 42.3025 0.0000 0.0000 0.0000
# 2 44.3958 136.9107 65.5825 0.0000 0.0000 0.0000
# 3 42.3025 65.5825 110.8395 0.0000 0.0000 0.0000
# 4 0.0000 0.0000 0.0000 24.9678 0.0000 0.0000
# 5 0.0000 0.0000 0.0000 0.0000 28.6860 0.0000
# 6 0.0000 0.0000 0.0000 0.0000 0.0000 28.0011
#
#
#
# Elastic Compliance Matrix: (Units=1/GPa)
#
#
# Indices 1 2 3 4 5 6 
#
# 1 0.022223 -0.004387 -0.005886 0.000000 0.000000 0.000000
# 2 -0.004387 0.011059 -0.004869 0.000000 0.000000 0.000000
# 3 -0.005886 -0.004869 0.014150 0.000000 0.000000 0.000000
# 4 0.000000 0.000000 0.000000 0.040052 0.000000 0.000000
# 5 0.000000 0.000000 0.000000 0.000000 0.034860 0.000000
# 6 0.000000 0.000000 0.000000 0.000000 0.000000 0.035713
#
#
# Mechanical properties :
#
#
# Convention : Reuss Voigt Hill
#
# Bulk Modulus (GPa) = 58.31713 68.58646 63.45180
# Shear Modulus (GPa) = 25.76579 27.02669 26.39624
#
# Velocity S-wave (km/s) = 3.59800 3.68499 3.64176
# Velocity P-wave (km/s) = 6.82359 7.25022 7.04014
#
# Compressibility (1/GPa) = 0.01714762
#
# Stress axis : x y z
#
# Youngs Moduli (GPa) = 44.99855 90.42439 70.67377
#
# Poissons Ratio (x) = 0.39667 0.41598
# Poissons Ratio (y) = 0.19740 0.34413
# Poissons Ratio (z) = 0.26486 0.44030
#
# Static dielectric constant tensor:
#      x y z
#    x 3.653410 0.000000 0.000000 
#    y 0.000000 3.736180 0.000000 
#    z 0.000000 0.000000 3.425460 
# 
# 
# High freq. dielectric constant tensor:
#      x y z
#    x 1.775360 0.000000 0.000000 
#    y 0.000000 1.787920 0.000000 
#    z 0.000000 0.000000 1.765610 
# 
# From -- ./inp_files/15273.got.cif
#   From: 2010.06.25/outbox.cif.g09.slc.cpg/sg43_8_cif.got.tgz:15273.got - 2010.06.26 16:48:59.
