data_PCOD8187820
_publ_section_title
;
Structure prediction by ZEFSAII (Michael W. Deem and Ramdas Pophale) SiO2 
 PCOD8187820
Probable space group: F D D 2
;
_chemical_formula_sum "Si O2"
_cell_formula_units_Z 64
_cell_length_a 7.517051
_cell_length_b 14.362237
_cell_length_c 25.438748
_cell_angle_alpha 90.000000
_cell_angle_beta 90.000000
_cell_angle_gamma 90.000000
_cell_volume 2746.409666
_symmetry_space_group_name_H-M "F D D 2"
_symmetry_group_IT_number 43
_symmetry_cell_setting 'orthorhombic'
loop_
_space_group_symop_operation_xyz
x,y,z
-x,-y,z
1/4-x,1/4+y,1/4+z
1/4+x,1/4-y,1/4+z
x,1/2+y,1/2+z
-x,1/2-y,1/2+z
1/4-x,3/4+y,3/4+z
1/4+x,3/4-y,3/4+z
1/2+x,y,1/2+z
1/2-x,-y,1/2+z
3/4-x,1/4+y,3/4+z
3/4+x,1/4-y,3/4+z
1/2+x,1/2+y,z
1/2-x,1/2-y,z
3/4-x,3/4+y,1/4+z
3/4+x,3/4-y,1/4+z
loop_
_atom_site_type_symbol
_atom_site_label
_atom_site_fract_x
_atom_site_fract_y
_atom_site_fract_z
Si Si1 0.262485 0.352712 0.831960
Si Si2 0.176521 0.148762 0.014840
Si Si3 0.704308 0.983249 0.926451
Si Si4 0.031726 0.104423 0.245279
O O1 0.250000 0.250000 0.859232
O O2 0.466242 0.354104 0.812890
O O3 0.231723 0.444676 0.867477
O O4 0.375384 0.141031 0.783297
O O5 0.250000 0.250000 0.004298
O O6 0.966740 0.143969 0.027750
O O7 0.212049 0.096095 0.961354
O O8 0.500000 0.000000 0.937904
O O9 0.797807 0.081170 0.942635
O O10 0.000000 0.000000 0.224974
#
# Coordination Sequence:
#
# PCOD8187820 Si02
#       4
#    16  16  16  16
#     4  12  26  49  78 116 153 201 263 326 388 467
#     4  12  24  46  77 109 153 200 248 323 386 459
#     4  12  25  48  78 114 153 204 259 317 394 462
#     4  12  24  49  79 108 162 202 251 328 390 461
#
# _framework density 23.303149000000001
#
# number of rings (size 3 to 8) (size 9 to 14) (size 15 to 20)
#    0.000    0.000    7.500    2.250    0.000    2.000 
#    0.000    0.000    5.500    0.000    0.000    0.000 
#    0.000    0.000    0.000    0.000    0.000    0.000 
#
# Total GULP energy -198308.218681 kJ/mol
# GULP energy per Si atom -12394.263668 kJ/mol
# Density = 2.325011 g / cm^3
# Si number density = 23.303149 Si / 1000 Ang^3
#
#
#
# Elastic Constant Matrix: (Units=GPa)
#
#
# Indices 1 2 3 4 5 6 
#
# 1 157.9766 38.7270 24.4971 0.0000 0.0000 0.0000
# 2 38.7270 181.0411 56.9174 0.0000 0.0000 0.0000
# 3 24.4971 56.9174 83.6996 0.0000 0.0000 0.0000
# 4 0.0000 0.0000 0.0000 87.1749 0.0000 0.0000
# 5 0.0000 0.0000 0.0000 0.0000 0.1447 0.0000
# 6 0.0000 0.0000 0.0000 0.0000 0.0000 28.4154
#
#
#
# Elastic Compliance Matrix: (Units=1/GPa)
#
#
# Indices 1 2 3 4 5 6 
#
# 1 0.006785 -0.001052 -0.001270 0.000000 0.000000 0.000000
# 2 -0.001052 0.007189 -0.004581 0.000000 0.000000 0.000000
# 3 -0.001270 -0.004581 0.015434 0.000000 0.000000 0.000000
# 4 0.000000 0.000000 0.000000 0.011471 0.000000 0.000000
# 5 0.000000 0.000000 0.000000 0.000000 6.913062 0.000000
# 6 0.000000 0.000000 0.000000 0.000000 0.000000 0.035192
#
#
# Mechanical properties :
#
#
# Convention : Reuss Voigt Hill
#
# Bulk Modulus (GPa) = 64.09489 73.66670 68.88079
# Shear Modulus (GPa) = 0.71346 43.31871 22.01608
#
# Velocity S-wave (km/s) = 0.55392 4.31620 3.07704
# Velocity P-wave (km/s) = 5.28901 7.51800 6.49977
#
# Compressibility (1/GPa) = 0.01560187
#
# Stress axis : x y z
#
# Youngs Moduli (GPa) = 147.38523 139.10672 64.79114
#
# Poissons Ratio (x) = 0.14634 0.08231
# Poissons Ratio (y) = 0.15504 0.29678
# Poissons Ratio (z) = 0.18725 0.63719
#
# Static dielectric constant tensor:
#      x y z
#    x 4.494010 0.000000 0.000000 
#    y 0.000000 4.576210 0.000000 
#    z 0.000000 0.000000 3.921180 
# 
# 
# High freq. dielectric constant tensor:
#      x y z
#    x 1.938710 0.000000 0.000000 
#    y 0.000000 1.948070 0.000000 
#    z 0.000000 0.000000 1.888740 
# 
# From -- ./inp_files/19913.got.cif
#   From: 2010.06.25/outbox.cif.g09.slc.cpg/sg43_10_cif.got.tgz:19913.got - 2010.06.26 16:48:59.
