data_PCOD8187993
_publ_section_title
;
Structure prediction by ZEFSAII (Michael W. Deem and Ramdas Pophale) SiO2 
 PCOD8187993
Probable space group: I M M 2
;
_chemical_formula_sum "Si O2"
_cell_formula_units_Z 64
_cell_length_a 8.956153
_cell_length_b 26.809432
_cell_length_c 18.322840
_cell_angle_alpha 90.000000
_cell_angle_beta 90.000000
_cell_angle_gamma 90.000000
_cell_volume 4399.485658
_symmetry_space_group_name_H-M "I M M 2"
_symmetry_group_IT_number 44
_symmetry_cell_setting 'orthorhombic'
loop_
_space_group_symop_operation_xyz
x,y,z
-x,-y,z
-x,y,z
x,-y,z
1/2+x,1/2+y,1/2+z
1/2-x,1/2-y,1/2+z
1/2-x,1/2+y,1/2+z
1/2+x,1/2-y,1/2+z
loop_
_atom_site_type_symbol
_atom_site_label
_atom_site_fract_x
_atom_site_fract_y
_atom_site_fract_z
Si Si1 0.676118 0.752357 0.961580
Si Si2 0.326965 0.852009 0.040389
Si Si3 0.830082 0.758721 0.810713
Si Si4 0.825125 0.298340 0.087410
Si Si5 0.329318 0.211068 0.167466
Si Si6 0.173956 0.147921 0.709600
Si Si7 0.327042 0.556493 0.305624
Si Si8 0.322616 0.944884 0.956526
O O1 0.500000 0.747174 0.968420
O O2 0.721302 0.748688 0.877497
O O3 0.735350 0.805087 0.994063
O O4 0.750285 0.707058 0.007401
O O5 0.500000 0.856506 0.022527
O O6 0.298862 0.842301 0.127497
O O7 0.255123 0.904366 0.013970
O O8 0.811067 0.711336 0.755037
O O9 0.784396 0.809317 0.768559
O O10 0.000000 0.762320 0.839111
O O11 0.787289 0.249537 0.134103
O O12 0.761840 0.345329 0.133306
O O13 0.000000 0.304858 0.076925
O O14 0.500000 0.228264 0.147920
O O15 0.220522 0.094154 0.741474
O O16 0.000000 0.150916 0.691301
O O17 0.500000 0.563903 0.325904
O O18 0.294430 0.500000 0.279285
O O19 0.231904 0.570296 0.376499
O O20 0.500000 0.945339 0.956049
O O21 0.261696 0.000000 0.977954
#
# Coordination Sequence:
#
# PCOD8187993 Si02
#       8
#     8   8   8   8   8   8   8   8
#     4  10  18  27  39  54  76 104 130 158 193 233
#     4   8  14  25  39  53  72 103 135 156 186 230
#     4   9  16  25  38  56  76  99 128 161 194 228
#     4  10  18  27  40  57  76  98 129 164 194 230
#     4   8  15  28  41  53  75 104 130 159 196 234
#     4   9  17  29  42  56  79 108 134 161 195 231
#     4   9  17  28  41  57  78 105 135 164 193 226
#     4   9  16  25  38  57  80 104 133 169 199 223
#
# _framework density 14.547155999999999
#
# number of rings (size 3 to 8) (size 9 to 14) (size 15 to 20)
#    0.000    3.000    0.000    3.750    0.000    2.500 
#    0.000    2.500    0.000    0.000    0.000    0.000 
#    0.000    1.000    0.000    4.000    0.000    2.125 
#
# Total GULP energy -396492.759670 kJ/mol
# GULP energy per Si atom -12390.398740 kJ/mol
# Density = 1.451405 g / cm^3
# Si number density = 14.547156 Si / 1000 Ang^3
#
#
#
# Elastic Constant Matrix: (Units=GPa)
#
#
# Indices 1 2 3 4 5 6 
#
# 1 47.0229 22.0045 33.2533 0.0000 0.0000 0.0000
# 2 22.0045 87.1801 54.7054 -0.0001 0.0000 0.0000
# 3 33.2533 54.7054 96.3392 -0.0002 0.0000 0.0000
# 4 0.0000 -0.0001 -0.0002 27.7815 0.0000 0.0000
# 5 0.0000 0.0000 0.0000 0.0000 23.5207 0.0000
# 6 0.0000 0.0000 0.0000 0.0000 0.0000 11.7325
#
#
#
# Elastic Compliance Matrix: (Units=1/GPa)
#
#
# Indices 1 2 3 4 5 6 
#
# 1 0.028272 -0.001573 -0.008865 0.000000 0.000000 0.000000
# 2 -0.001573 0.017908 -0.009626 0.000000 0.000000 0.000000
# 3 -0.008865 -0.009626 0.018906 0.000000 0.000000 0.000000
# 4 0.000000 0.000000 0.000000 0.035995 0.000000 0.000000
# 5 0.000000 0.000000 0.000000 0.000000 0.042516 0.000000
# 6 0.000000 0.000000 0.000000 0.000000 0.000000 0.085234
#
#
# Mechanical properties :
#
#
# Convention : Reuss Voigt Hill
#
# Bulk Modulus (GPa) = 40.06857 50.05205 45.06031
# Shear Modulus (GPa) = 18.03253 20.64554 19.33903
#
# Velocity S-wave (km/s) = 3.52460 3.77133 3.65005
# Velocity P-wave (km/s) = 6.64586 7.31064 6.98616
#
# Compressibility (1/GPa) = 0.02495722
#
# Stress axis : x y z
#
# Youngs Moduli (GPa) = 35.37126 55.84191 52.89338
#
# Poissons Ratio (x) = 0.08783 0.46892
# Poissons Ratio (y) = 0.05563 0.50914
# Poissons Ratio (z) = 0.31358 0.53752
#
# Static dielectric constant tensor:
#      x y z
#    x 2.695760 0.000000 0.000000 
#    y 0.000000 2.940340 0.000000 
#    z 0.000000 0.000000 2.900620 
# 
# 
# High freq. dielectric constant tensor:
#      x y z
#    x 1.548740 0.000000 0.000000 
#    y 0.000000 1.525510 0.000000 
#    z 0.000000 0.000000 1.544710 
# 
# From -- ./inp_files/20904.got.cif
#   From: 2010.03.12/outbox.cif.g09.slc.cpg/sg44_11_cif.got.tgz:20904.got - 2010.04.14 02:36:11.
