data_PCOD8187316
_publ_section_title
;
Structure prediction by ZEFSAII (Michael W. Deem and Ramdas Pophale) SiO2 
 PCOD8187316
Probable space group: F D D 2
;
_chemical_formula_sum "Si O2"
_cell_formula_units_Z 104
_cell_length_a 32.112228
_cell_length_b 5.984445
_cell_length_c 26.288189
_cell_angle_alpha 90.000000
_cell_angle_beta 90.000000
_cell_angle_gamma 90.000000
_cell_volume 5051.902813
_symmetry_space_group_name_H-M "F D D 2"
_symmetry_group_IT_number 43
_symmetry_cell_setting 'orthorhombic'
loop_
_space_group_symop_operation_xyz
x,y,z
-x,-y,z
1/4-x,1/4+y,1/4+z
1/4+x,1/4-y,1/4+z
x,1/2+y,1/2+z
-x,1/2-y,1/2+z
1/4-x,3/4+y,3/4+z
1/4+x,3/4-y,3/4+z
1/2+x,y,1/2+z
1/2-x,-y,1/2+z
3/4-x,1/4+y,3/4+z
3/4+x,1/4-y,3/4+z
1/2+x,1/2+y,z
1/2-x,1/2-y,z
3/4-x,3/4+y,1/4+z
3/4+x,3/4-y,1/4+z
loop_
_atom_site_type_symbol
_atom_site_label
_atom_site_fract_x
_atom_site_fract_y
_atom_site_fract_z
Si Si1 0.365794 0.453282 0.732810
Si Si2 0.000000 0.500000 0.832755
Si Si3 0.612585 0.014462 0.388906
Si Si4 0.040633 0.605500 0.017708
Si Si5 0.145246 0.179971 0.314892
Si Si6 0.830264 0.942418 0.552037
Si Si7 0.718306 0.559976 0.165119
O O1 0.377537 0.530394 0.675012
O O2 0.322291 0.325147 0.742977
O O3 0.363607 0.678778 0.764808
O O4 0.403009 0.284419 0.748100
O O5 0.031015 0.358292 0.796827
O O6 0.030721 0.633275 0.869769
O O7 0.586451 0.109513 0.341988
O O8 0.648109 0.848222 0.364639
O O9 0.579665 0.879217 0.422761
O O10 0.018070 0.725321 0.970352
O O11 0.000000 0.500000 0.046732
O O12 0.063423 0.776233 0.056973
O O13 0.105636 0.021172 0.321790
O O14 0.750000 0.750000 0.148235
#
# Coordination Sequence:
#
# PCOD8187316 Si02
#       7
#    16   8  16  16  16  16  16
#     4  10  22  38  56  88 122 161 204 249 301 369
#     4  12  20  34  54  86 128 162 192 254 312 380
#     4  11  20  36  57  83 126 157 204 248 303 372
#     4  11  22  35  55  88 129 159 196 252 313 371
#     4  10  22  36  56  86 121 159 203 244 305 360
#     4  10  22  36  55  89 123 156 203 247 312 363
#     4  12  21  31  57  91 125 155 183 239 328 377
#
# _framework density 20.586303999999998
#
# number of rings (size 3 to 8) (size 9 to 14) (size 15 to 20)
#    0.000    1.231    5.385    1.846    0.000    0.000 
#    0.000    0.000    0.000    0.000    0.000   36.615 
#    0.000    0.000    0.000    0.000    0.000    0.000 
#
# Total GULP energy -322147.118915 kJ/mol
# GULP energy per Si atom -12390.273804 kJ/mol
# Density = 2.053945 g / cm^3
# Si number density = 20.586304 Si / 1000 Ang^3
#
#
#
# Elastic Constant Matrix: (Units=GPa)
#
#
# Indices 1 2 3 4 5 6 
#
# 1 121.7474 46.2563 50.9980 -0.0124 -0.0023 -0.0101
# 2 46.2563 91.8935 35.6322 -0.0220 -0.0068 -0.0285
# 3 50.9980 35.6322 78.3661 -0.0002 -0.0011 -0.0036
# 4 -0.0124 -0.0220 -0.0002 35.9590 -0.0029 -0.0049
# 5 -0.0023 -0.0068 -0.0011 -0.0029 26.7194 -0.0016
# 6 -0.0101 -0.0285 -0.0036 -0.0049 -0.0016 36.0865
#
#
#
# Elastic Compliance Matrix: (Units=1/GPa)
#
#
# Indices 1 2 3 4 5 6 
#
# 1 0.012266 -0.003738 -0.006282 0.000002 0.000000 0.000000
# 2 -0.003738 0.014351 -0.004092 0.000007 0.000003 0.000010
# 3 -0.006282 -0.004092 0.018710 -0.000005 -0.000001 -0.000003
# 4 0.000002 0.000007 -0.000005 0.027809 0.000003 0.000004
# 5 0.000000 0.000003 -0.000001 0.000003 0.037426 0.000002
# 6 0.000000 0.000010 -0.000003 0.000004 0.000002 0.027711
#
#
# Mechanical properties :
#
#
# Convention : Reuss Voigt Hill
#
# Bulk Modulus (GPa) = 58.47889 61.97555 60.22722
# Shear Modulus (GPa) = 29.03627 30.36102 29.69865
#
# Velocity S-wave (km/s) = 3.75969 3.84450 3.80233
# Velocity P-wave (km/s) = 6.87862 7.06240 6.97112
#
# Compressibility (1/GPa) = 0.01710019
#
# Stress axis : x y z
#
# Youngs Moduli (GPa) = 81.52937 69.68309 53.44803
#
# Poissons Ratio (x) = 0.26048 0.33578
# Poissons Ratio (y) = 0.30476 0.21874
# Poissons Ratio (z) = 0.51219 0.28518
#
# Static dielectric constant tensor:
#      x y z
#    x 3.555820 -0.000020 -0.000020 
#    y -0.000020 4.093500 -0.000050 
#    z -0.000020 -0.000050 3.589310 
# 
# 
# High freq. dielectric constant tensor:
#      x y z
#    x 1.781840 0.000000 0.000000 
#    y 0.000000 1.828630 0.000000 
#    z 0.000000 0.000000 1.775350 
# 
# From -- ./inp_files/30029.got.cif
#   From: 2010.06.25/outbox.cif.g09.slc.cpg/sg43_16_cif.got.tgz:30029.got - 2010.06.26 16:48:59.
