data_PCOD8187858
_publ_section_title
;
Structure prediction by ZEFSAII (Michael W. Deem and Ramdas Pophale) SiO2 
 PCOD8187858
Probable space group: F D D 2
;
_chemical_formula_sum "Si O2"
_cell_formula_units_Z 64
_cell_length_a 11.889997
_cell_length_b 16.294313
_cell_length_c 12.494158
_cell_angle_alpha 90.000000
_cell_angle_beta 90.000000
_cell_angle_gamma 90.000000
_cell_volume 2420.609833
_symmetry_space_group_name_H-M "F D D 2"
_symmetry_group_IT_number 43
_symmetry_cell_setting 'orthorhombic'
loop_
_space_group_symop_operation_xyz
x,y,z
-x,-y,z
1/4-x,1/4+y,1/4+z
1/4+x,1/4-y,1/4+z
x,1/2+y,1/2+z
-x,1/2-y,1/2+z
1/4-x,3/4+y,3/4+z
1/4+x,3/4-y,3/4+z
1/2+x,y,1/2+z
1/2-x,-y,1/2+z
3/4-x,1/4+y,3/4+z
3/4+x,1/4-y,3/4+z
1/2+x,1/2+y,z
1/2-x,1/2-y,z
3/4-x,3/4+y,1/4+z
3/4+x,3/4-y,1/4+z
loop_
_atom_site_type_symbol
_atom_site_label
_atom_site_fract_x
_atom_site_fract_y
_atom_site_fract_z
Si Si1 0.534588 0.380594 0.286120
Si Si2 0.818100 0.830139 0.982609
Si Si3 0.035701 0.413538 0.557692
Si Si4 0.132331 0.951126 0.504807
O O1 0.403005 0.367563 0.262709
O O2 0.564929 0.433350 0.182064
O O3 0.605158 0.297351 0.273724
O O4 0.566886 0.428486 0.394994
O O5 0.750000 0.750000 0.026948
O O6 0.754117 0.911791 0.017206
O O7 0.810399 0.831428 0.854189
O O8 0.943834 0.840905 0.031819
O O9 0.000000 0.500000 0.503185
#
# Coordination Sequence:
#
# PCOD8187858 Si02
#       4
#    16  16  16  16
#     4  12  29  49  82 118 167 212 286 348 434 510
#     4  12  27  50  81 116 167 221 281 343 434 516
#     4  12  29  50  78 120 162 217 275 356 421 514
#     4  12  27  50  78 120 159 223 273 352 427 515
#
# _framework density 26.439617999999999
#
# number of rings (size 3 to 8) (size 9 to 14) (size 15 to 20)
#    0.000    0.000    5.000    3.000    7.000    2.000 
#    0.000    0.000    0.000    0.000    0.000    0.000 
#    0.000    0.000    0.000    0.000    0.000    0.000 
#
# Total GULP energy -198244.482192 kJ/mol
# GULP energy per Si atom -12390.280137 kJ/mol
# Density = 2.637944 g / cm^3
# Si number density = 26.439618 Si / 1000 Ang^3
#
#
#
# Elastic Constant Matrix: (Units=GPa)
#
#
# Indices 1 2 3 4 5 6 
#
# 1 113.8734 44.0953 18.5031 0.0000 0.0000 0.0000
# 2 44.0953 126.4359 26.0831 0.0000 0.0000 0.0000
# 3 18.5031 26.0831 144.7038 0.0000 0.0000 0.0000
# 4 0.0000 0.0000 0.0000 16.0219 0.0000 0.0000
# 5 0.0000 0.0000 0.0000 0.0000 45.8667 0.0000
# 6 0.0000 0.0000 0.0000 0.0000 0.0000 53.3157
#
#
#
# Elastic Compliance Matrix: (Units=1/GPa)
#
#
# Indices 1 2 3 4 5 6 
#
# 1 0.010219 -0.003422 -0.000690 0.000000 0.000000 0.000000
# 2 -0.003422 0.009360 -0.001250 0.000000 0.000000 0.000000
# 3 -0.000690 -0.001250 0.007224 0.000000 0.000000 0.000000
# 4 0.000000 0.000000 0.000000 0.062415 0.000000 0.000000
# 5 0.000000 0.000000 0.000000 0.000000 0.021802 0.000000
# 6 0.000000 0.000000 0.000000 0.000000 0.000000 0.018756
#
#
# Mechanical properties :
#
#
# Convention : Reuss Voigt Hill
#
# Bulk Modulus (GPa) = 62.18585 62.48624 62.33604
# Shear Modulus (GPa) = 34.27977 42.79632 38.53804
#
# Velocity S-wave (km/s) = 3.60464 4.02760 3.82198
# Velocity P-wave (km/s) = 6.39497 6.73154 6.56541
#
# Compressibility (1/GPa) = 0.01608083
#
# Stress axis : x y z
#
# Youngs Moduli (GPa) = 97.85983 106.83503 138.42470
#
# Poissons Ratio (x) = 0.36554 0.09550
# Poissons Ratio (y) = 0.33483 0.17299
# Poissons Ratio (z) = 0.06752 0.13351
#
# Static dielectric constant tensor:
#      x y z
#    x 4.688580 0.000000 0.000000 
#    y 0.000000 4.714310 0.000000 
#    z 0.000000 0.000000 4.970370 
# 
# 
# High freq. dielectric constant tensor:
#      x y z
#    x 2.082690 0.000000 0.000000 
#    y 0.000000 2.055370 0.000000 
#    z 0.000000 0.000000 2.073680 
# 
# From -- ./inp_files/5952.got.cif
#   From: 2010.06.25/outbox.cif.g09.slc.cpg/sg43_3_cif.got.tgz:5952.got - 2010.06.26 16:48:59.
