data_PCOD8187067
_publ_section_title
;
Structure prediction by ZEFSAII (Michael W. Deem and Ramdas Pophale) SiO2 
 PCOD8187067
Probable space group: F D D 2
;
_chemical_formula_sum "Si O2"
_cell_formula_units_Z 112
_cell_length_a 13.862774
_cell_length_b 16.476082
_cell_length_c 24.443334
_cell_angle_alpha 90.000000
_cell_angle_beta 90.000000
_cell_angle_gamma 90.000000
_cell_volume 5582.960176
_symmetry_space_group_name_H-M "F D D 2"
_symmetry_group_IT_number 43
_symmetry_cell_setting 'orthorhombic'
loop_
_space_group_symop_operation_xyz
x,y,z
-x,-y,z
1/4-x,1/4+y,1/4+z
1/4+x,1/4-y,1/4+z
x,1/2+y,1/2+z
-x,1/2-y,1/2+z
1/4-x,3/4+y,3/4+z
1/4+x,3/4-y,3/4+z
1/2+x,y,1/2+z
1/2-x,-y,1/2+z
3/4-x,1/4+y,3/4+z
3/4+x,1/4-y,3/4+z
1/2+x,1/2+y,z
1/2-x,1/2-y,z
3/4-x,3/4+y,1/4+z
3/4+x,3/4-y,1/4+z
loop_
_atom_site_type_symbol
_atom_site_label
_atom_site_fract_x
_atom_site_fract_y
_atom_site_fract_z
Si Si1 0.222465 0.456931 0.022260
Si Si2 0.442069 0.131034 0.071667
Si Si3 0.545832 0.914902 0.189288
Si Si4 0.138194 0.745192 0.956533
Si Si5 0.908956 0.448371 0.585950
Si Si6 0.175826 0.819446 0.231252
Si Si7 0.040865 0.702258 0.518767
O O1 0.147306 0.430846 0.068754
O O2 0.322126 0.482960 0.049451
O O3 0.230351 0.378720 0.983804
O O4 0.180499 0.531905 0.987760
O O5 0.458155 0.142836 0.136101
O O6 0.534166 0.092380 0.041181
O O7 0.416121 0.214671 0.042122
O O8 0.653134 0.926141 0.213662
O O9 0.500000 0.000000 0.172675
O O10 0.250000 0.750000 0.976794
O O11 0.131803 0.794047 0.899597
O O12 0.094389 0.653077 0.947313
O O13 0.072201 0.790138 0.002139
O O14 0.938980 0.357669 0.569347
O O15 0.000000 0.500000 0.569346
O O16 0.250000 0.750000 0.205121
#
# Coordination Sequence:
#
# PCOD8187067 Si02
#       7
#    16  16  16  16  16  16  16
#     4  10  20  37  61  87 121 153 203 261 308 369
#     4  10  20  38  62  92 122 154 205 263 315 366
#     4  11  20  34  62  90 121 164 197 259 325 365
#     4  10  22  40  66  85 126 175 202 263 325 372
#     4  10  23  39  59  87 126 163 204 252 307 394
#     4   9  20  39  61  91 122 157 210 269 303 375
#     4  10  22  41  60  92 127 155 216 261 306 392
#
# _framework density 20.061042
#
# number of rings (size 3 to 8) (size 9 to 14) (size 15 to 20)
#    0.000    2.000    1.429    2.143    2.000    2.286 
#    2.571    0.000    0.000    0.000    0.000    0.000 
#    0.000    0.000    0.000    0.000    0.000    0.000 
#
# Total GULP energy -346977.780978 kJ/mol
# GULP energy per Si atom -12392.063606 kJ/mol
# Density = 2.001538 g / cm^3
# Si number density = 20.061042 Si / 1000 Ang^3
#
#
#
# Elastic Constant Matrix: (Units=GPa)
#
#
# Indices 1 2 3 4 5 6 
#
# 1 108.2590 41.9744 38.4073 0.0000 0.0000 0.0000
# 2 41.9744 93.3948 32.7210 0.0000 0.0000 0.0000
# 3 38.4073 32.7210 94.0386 0.0000 0.0000 0.0000
# 4 0.0000 0.0000 0.0000 31.3367 0.0000 0.0000
# 5 0.0000 0.0000 0.0000 0.0000 24.1498 0.0000
# 6 0.0000 0.0000 0.0000 0.0000 0.0000 33.3138
#
#
#
# Elastic Compliance Matrix: (Units=1/GPa)
#
#
# Indices 1 2 3 4 5 6 
#
# 1 0.012108 -0.004224 -0.003475 0.000000 0.000000 0.000000
# 2 -0.004224 0.013667 -0.003030 0.000000 0.000000 0.000000
# 3 -0.003475 -0.003030 0.013108 0.000000 0.000000 0.000000
# 4 0.000000 0.000000 0.000000 0.031911 0.000000 0.000000
# 5 0.000000 0.000000 0.000000 0.000000 0.041408 0.000000
# 6 0.000000 0.000000 0.000000 0.000000 0.000000 0.030018
#
#
# Mechanical properties :
#
#
# Convention : Reuss Voigt Hill
#
# Bulk Modulus (GPa) = 57.39404 57.98863 57.69134
# Shear Modulus (GPa) = 29.50068 29.93268 29.71668
#
# Velocity S-wave (km/s) = 3.83893 3.86694 3.85296
# Velocity P-wave (km/s) = 6.95138 6.99331 6.97238
#
# Compressibility (1/GPa) = 0.01742341
#
# Stress axis : x y z
#
# Youngs Moduli (GPa) = 82.59136 73.16707 76.29066
#
# Poissons Ratio (x) = 0.30906 0.26513
# Poissons Ratio (y) = 0.34887 0.23119
# Poissons Ratio (z) = 0.28703 0.22173
#
# Static dielectric constant tensor:
#      x y z
#    x 3.782890 0.000000 0.000000 
#    y 0.000000 3.862670 0.000000 
#    z 0.000000 0.000000 3.354690 
# 
# 
# High freq. dielectric constant tensor:
#      x y z
#    x 1.791060 0.000000 0.000000 
#    y 0.000000 1.786510 0.000000 
#    z 0.000000 0.000000 1.760680 
# 
# From -- ./inp_files/21715.got.cif
#   From: 2010.06.25/outbox.cif.g09.slc.cpg/sg43_11_cif.got.tgz:21715.got - 2010.06.26 16:48:59.
