data_PCOD8187477
_publ_section_title
;
Structure prediction by ZEFSAII (Michael W. Deem and Ramdas Pophale) SiO2 
 PCOD8187477
Probable space group: F D D 2
;
_chemical_formula_sum "Si O2"
_cell_formula_units_Z 104
_cell_length_a 22.482168
_cell_length_b 13.459379
_cell_length_c 16.622910
_cell_angle_alpha 90.000000
_cell_angle_beta 90.000000
_cell_angle_gamma 90.000000
_cell_volume 5030.026404
_symmetry_space_group_name_H-M "F D D 2"
_symmetry_group_IT_number 43
_symmetry_cell_setting 'orthorhombic'
loop_
_space_group_symop_operation_xyz
x,y,z
-x,-y,z
1/4-x,1/4+y,1/4+z
1/4+x,1/4-y,1/4+z
x,1/2+y,1/2+z
-x,1/2-y,1/2+z
1/4-x,3/4+y,3/4+z
1/4+x,3/4-y,3/4+z
1/2+x,y,1/2+z
1/2-x,-y,1/2+z
3/4-x,1/4+y,3/4+z
3/4+x,1/4-y,3/4+z
1/2+x,1/2+y,z
1/2-x,1/2-y,z
3/4-x,3/4+y,1/4+z
3/4+x,3/4-y,1/4+z
loop_
_atom_site_type_symbol
_atom_site_label
_atom_site_fract_x
_atom_site_fract_y
_atom_site_fract_z
Si Si1 0.144243 0.165949 0.172300
Si Si2 0.909652 0.522002 0.752242
Si Si3 0.211040 0.892567 0.272340
Si Si4 0.750000 0.250000 0.407728
Si Si5 0.390047 0.619501 0.733221
Si Si6 0.762608 0.601072 0.246361
Si Si7 0.500000 0.000000 0.890150
Si Si8 0.250000 0.750000 0.876094
O O1 0.110533 0.269377 0.194512
O O2 0.215096 0.163877 0.193370
O O3 0.113263 0.087100 0.230399
O O4 0.140372 0.134075 0.079779
O O5 0.859189 0.605246 0.756264
O O6 0.941405 0.515940 0.837973
O O7 0.953654 0.558894 0.682295
O O8 0.220326 0.834387 0.354350
O O9 0.244084 0.846001 0.196215
O O10 0.234710 0.002778 0.282989
O O11 0.803317 0.302652 0.457397
O O12 0.325682 0.576395 0.702129
O O13 0.782796 0.668070 0.322258
#
# Coordination Sequence:
#
# PCOD8187477 Si02
#       8
#    16  16  16   8  16  16   8   8
#     4  11  23  42  70 101 134 179 230 294 349 404
#     4  10  23  40  71  95 134 171 227 287 338 408
#     4  10  25  46  63  95 138 182 226 277 333 421
#     4  11  28  46  64  99 142 190 222 265 354 418
#     4  12  25  44  68 100 141 176 233 285 344 426
#     4  11  22  40  71  95 137 173 225 293 340 402
#     4  10  24  42  66  98 132 180 228 266 340 410
#     4  11  20  42  64 107 122 172 228 283 356 384
#
# _framework density 20.675834999999999
#
# number of rings (size 3 to 8) (size 9 to 14) (size 15 to 20)
#    0.000    1.231    3.077    0.923   12.923    0.000 
#    0.000    0.000    0.000    0.000    0.000    0.000 
#    0.000    0.000    0.000    0.000    0.000    0.000 
#
# Total GULP energy -322181.424376 kJ/mol
# GULP energy per Si atom -12391.593245 kJ/mol
# Density = 2.062878 g / cm^3
# Si number density = 20.675835 Si / 1000 Ang^3
#
#
#
# Elastic Constant Matrix: (Units=GPa)
#
#
# Indices 1 2 3 4 5 6 
#
# 1 161.0233 44.2417 52.1886 0.0000 0.0000 0.0000
# 2 44.2417 96.8394 46.4876 0.0000 0.0000 0.0000
# 3 52.1886 46.4876 118.7986 0.0000 0.0000 0.0000
# 4 0.0000 0.0000 0.0000 17.5878 0.0000 0.0000
# 5 0.0000 0.0000 0.0000 0.0000 17.6450 0.0000
# 6 0.0000 0.0000 0.0000 0.0000 0.0000 41.5394
#
#
#
# Elastic Compliance Matrix: (Units=1/GPa)
#
#
# Indices 1 2 3 4 5 6 
#
# 1 0.007640 -0.002314 -0.002451 0.000000 0.000000 0.000000
# 2 -0.002314 0.013416 -0.004233 0.000000 0.000000 0.000000
# 3 -0.002451 -0.004233 0.011151 0.000000 0.000000 0.000000
# 4 0.000000 0.000000 0.000000 0.056858 0.000000 0.000000
# 5 0.000000 0.000000 0.000000 0.000000 0.056673 0.000000
# 6 0.000000 0.000000 0.000000 0.000000 0.000000 0.024074
#
#
# Mechanical properties :
#
#
# Convention : Reuss Voigt Hill
#
# Bulk Modulus (GPa) = 70.36991 73.61079 71.99035
# Shear Modulus (GPa) = 25.96802 30.93733 28.45267
#
# Velocity S-wave (km/s) = 3.54780 3.87241 3.71365
# Velocity P-wave (km/s) = 7.13381 7.46148 7.29948
#
# Compressibility (1/GPa) = 0.01421062
#
# Stress axis : x y z
#
# Youngs Moduli (GPa) = 130.88263 74.53962 89.67938
#
# Poissons Ratio (x) = 0.17248 0.21980
# Poissons Ratio (y) = 0.30286 0.37963
# Poissons Ratio (z) = 0.32079 0.31554
#
# Static dielectric constant tensor:
#      x y z
#    x 4.105030 0.000000 0.000000 
#    y 0.000000 3.717090 0.000000 
#    z 0.000000 0.000000 3.696570 
# 
# 
# High freq. dielectric constant tensor:
#      x y z
#    x 1.832580 0.000000 0.000000 
#    y 0.000000 1.802890 0.000000 
#    z 0.000000 0.000000 1.804820 
# 
# From -- ./inp_files/13951.got.cif
#   From: 2010.06.25/outbox.cif.g09.slc.cpg/sg43_7_cif.got.tgz:13951.got - 2010.06.26 16:48:59.
