data_PCOD8187778
_publ_section_title
;
Structure prediction by ZEFSAII (Michael W. Deem and Ramdas Pophale) SiO2 
 PCOD8187778
Probable space group: F D D 2
;
_chemical_formula_sum "Si O2"
_cell_formula_units_Z 88
_cell_length_a 20.990938
_cell_length_b 11.509002
_cell_length_c 13.815223
_cell_angle_alpha 90.000000
_cell_angle_beta 90.000000
_cell_angle_gamma 90.000000
_cell_volume 3337.547159
_symmetry_space_group_name_H-M "F D D 2"
_symmetry_group_IT_number 43
_symmetry_cell_setting 'orthorhombic'
loop_
_space_group_symop_operation_xyz
x,y,z
-x,-y,z
1/4-x,1/4+y,1/4+z
1/4+x,1/4-y,1/4+z
x,1/2+y,1/2+z
-x,1/2-y,1/2+z
1/4-x,3/4+y,3/4+z
1/4+x,3/4-y,3/4+z
1/2+x,y,1/2+z
1/2-x,-y,1/2+z
3/4-x,1/4+y,3/4+z
3/4+x,1/4-y,3/4+z
1/2+x,1/2+y,z
1/2-x,1/2-y,z
3/4-x,3/4+y,1/4+z
3/4+x,3/4-y,1/4+z
loop_
_atom_site_type_symbol
_atom_site_label
_atom_site_fract_x
_atom_site_fract_y
_atom_site_fract_z
Si Si1 0.955874 0.717318 0.772490
Si Si2 0.135831 0.761264 0.002004
Si Si3 0.751570 0.474002 0.803053
Si Si4 0.250000 0.250000 0.172013
Si Si5 0.124587 0.580725 0.348212
Si Si6 0.910498 0.733910 0.306348
O O1 0.936112 0.583918 0.789405
O O2 0.988139 0.713146 0.667602
O O3 0.895855 0.799520 0.795758
O O4 0.014012 0.769836 0.837814
O O5 0.064721 0.707475 0.017413
O O6 0.145996 0.878330 0.059699
O O7 0.138902 0.806008 0.889784
O O8 0.747171 0.354989 0.745864
O O9 0.684295 0.539016 0.783676
O O10 0.187092 0.242787 0.101732
O O11 0.145450 0.592076 0.460884
#
# Coordination Sequence:
#
# PCOD8187778 Si02
#       6
#    16  16  16   8  16  16
#     4  11  26  45  72 115 153 192 248 321 391 455
#     4  12  23  51  75 111 144 201 253 316 378 470
#     4  11  27  45  78 111 151 200 256 318 389 468
#     4  12  24  48  78 106 150 210 270 310 382 486
#     4  11  27  45  72 115 152 194 252 331 388 457
#     4  11  26  47  79 107 146 201 261 303 381 470
#
# _framework density 26.366669000000002
#
# number of rings (size 3 to 8) (size 9 to 14) (size 15 to 20)
#    0.000    0.727    3.636    1.636   10.182    5.091 
#    3.273    1.818    0.000    0.000    0.000    0.000 
#    0.000    0.000    0.000    0.000    0.000    0.000 
#
# Total GULP energy -272545.716212 kJ/mol
# GULP energy per Si atom -12388.441646 kJ/mol
# Density = 2.630666 g / cm^3
# Si number density = 26.366669 Si / 1000 Ang^3
#
#
#
# Elastic Constant Matrix: (Units=GPa)
#
#
# Indices 1 2 3 4 5 6 
#
# 1 150.8538 28.9135 15.2387 0.0000 0.0000 0.0000
# 2 28.9135 64.6326 16.0907 0.0000 0.0000 0.0000
# 3 15.2387 16.0907 40.9097 0.0000 0.0000 0.0000
# 4 0.0000 0.0000 0.0000 24.8319 0.0000 0.0000
# 5 0.0000 0.0000 0.0000 0.0000 44.4872 0.0000
# 6 0.0000 0.0000 0.0000 0.0000 0.0000 44.4953
#
#
#
# Elastic Compliance Matrix: (Units=1/GPa)
#
#
# Indices 1 2 3 4 5 6 
#
# 1 0.007344 -0.002887 -0.001600 0.000000 0.000000 0.000000
# 2 -0.002887 0.018286 -0.006117 0.000000 0.000000 0.000000
# 3 -0.001600 -0.006117 0.027446 0.000000 0.000000 0.000000
# 4 0.000000 0.000000 0.000000 0.040271 0.000000 0.000000
# 5 0.000000 0.000000 0.000000 0.000000 0.022478 0.000000
# 6 0.000000 0.000000 0.000000 0.000000 0.000000 0.022474
#
#
# Mechanical properties :
#
#
# Convention : Reuss Voigt Hill
#
# Bulk Modulus (GPa) = 31.37926 41.87577 36.62752
# Shear Modulus (GPa) = 29.38914 35.83975 32.61444
#
# Velocity S-wave (km/s) = 3.34223 3.69084 3.52086
# Velocity P-wave (km/s) = 5.17890 5.83778 5.51818
#
# Compressibility (1/GPa) = 0.03186818
#
# Stress axis : x y z
#
# Youngs Moduli (GPa) = 136.16745 54.68528 36.43508
#
# Poissons Ratio (x) = 0.15787 0.05830
# Poissons Ratio (y) = 0.39311 0.22288
# Poissons Ratio (z) = 0.21788 0.33452
#
# Static dielectric constant tensor:
#      x y z
#    x 6.038750 0.000000 0.000000 
#    y 0.000000 4.492810 0.000000 
#    z 0.000000 0.000000 4.963620 
# 
# 
# High freq. dielectric constant tensor:
#      x y z
#    x 2.089300 0.000000 0.000000 
#    y 0.000000 2.045040 0.000000 
#    z 0.000000 0.000000 2.058200 
# 
# From -- ./inp_files/11200.got.cif
#   From: 2010.06.25/outbox.cif.g09.slc.cpg/sg43_6_cif.got.tgz:11200.got - 2010.06.26 16:48:59.
