data_PCOD8187450
_publ_section_title
;
Structure prediction by ZEFSAII (Michael W. Deem and Ramdas Pophale) SiO2 
 PCOD8187450
Probable space group: F D D 2
;
_chemical_formula_sum "Si O2"
_cell_formula_units_Z 64
_cell_length_a 7.296805
_cell_length_b 21.126220
_cell_length_c 16.922740
_cell_angle_alpha 90.000000
_cell_angle_beta 90.000000
_cell_angle_gamma 90.000000
_cell_volume 2608.706500
_symmetry_space_group_name_H-M "F D D 2"
_symmetry_group_IT_number 43
_symmetry_cell_setting 'orthorhombic'
loop_
_space_group_symop_operation_xyz
x,y,z
-x,-y,z
1/4-x,1/4+y,1/4+z
1/4+x,1/4-y,1/4+z
x,1/2+y,1/2+z
-x,1/2-y,1/2+z
1/4-x,3/4+y,3/4+z
1/4+x,3/4-y,3/4+z
1/2+x,y,1/2+z
1/2-x,-y,1/2+z
3/4-x,1/4+y,3/4+z
3/4+x,1/4-y,3/4+z
1/2+x,1/2+y,z
1/2-x,1/2-y,z
3/4-x,3/4+y,1/4+z
3/4+x,3/4-y,1/4+z
loop_
_atom_site_type_symbol
_atom_site_label
_atom_site_fract_x
_atom_site_fract_y
_atom_site_fract_z
Si Si1 0.321354 0.039985 0.224940
Si Si2 0.692885 0.650498 0.128751
Si Si3 0.190112 0.929269 0.318500
Si Si4 0.919775 0.433904 0.953791
O O1 0.373081 0.094578 0.288327
O O2 0.500000 0.000000 0.196778
O O3 0.361730 0.937558 0.379451
O O4 0.176076 0.991381 0.263602
O O5 0.724576 0.576554 0.152320
O O6 0.549339 0.683066 0.189433
O O7 0.229148 0.867887 0.266445
O O8 0.006232 0.919460 0.367869
O O9 0.000000 0.500000 0.985657
#
# Coordination Sequence:
#
# PCOD8187450 Si02
#       4
#    16  16  16  16
#     4  10  22  44  76 102 151 193 248 302 380 443
#     4  11  23  45  71 103 144 199 236 313 371 439
#     4  11  25  46  69 105 151 195 245 313 373 455
#     4  12  26  44  74 108 146 195 256 308 380 452
#
# _framework density 24.533228999999999
#
# number of rings (size 3 to 8) (size 9 to 14) (size 15 to 20)
#    0.000    1.000    2.500    4.500    0.000    3.000 
#    0.000    2.500    0.000    0.000    0.000    0.000 
#    0.000    0.000    0.000    0.000    0.000    0.000 
#
# Total GULP energy -198330.614933 kJ/mol
# GULP energy per Si atom -12395.663433 kJ/mol
# Density = 2.447739 g / cm^3
# Si number density = 24.533229 Si / 1000 Ang^3
#
#
#
# Elastic Constant Matrix: (Units=GPa)
#
#
# Indices 1 2 3 4 5 6 
#
# 1 116.2940 36.3078 14.3986 0.0000 0.0000 0.0000
# 2 36.3078 185.1526 77.2363 0.0000 0.0000 0.0000
# 3 14.3986 77.2363 67.5499 0.0000 0.0000 0.0000
# 4 0.0000 0.0000 0.0000 71.5817 0.0000 0.0000
# 5 0.0000 0.0000 0.0000 0.0000 22.5498 0.0000
# 6 0.0000 0.0000 0.0000 0.0000 0.0000 37.2891
#
#
#
# Elastic Compliance Matrix: (Units=1/GPa)
#
#
# Indices 1 2 3 4 5 6 
#
# 1 0.009161 -0.001877 0.000194 0.000000 0.000000 0.000000
# 2 -0.001877 0.010711 -0.011847 0.000000 0.000000 0.000000
# 3 0.000194 -0.011847 0.028308 0.000000 0.000000 0.000000
# 4 0.000000 0.000000 0.000000 0.013970 0.000000 0.000000
# 5 0.000000 0.000000 0.000000 0.000000 0.044346 0.000000
# 6 0.000000 0.000000 0.000000 0.000000 0.000000 0.026818
#
#
# Mechanical properties :
#
#
# Convention : Reuss Voigt Hill
#
# Bulk Modulus (GPa) = 47.34953 69.43133 58.39043
# Shear Modulus (GPa) = 29.86609 42.35436 36.11023
#
# Velocity S-wave (km/s) = 3.49287 4.15951 3.84068
# Velocity P-wave (km/s) = 5.96732 7.17155 6.59697
#
# Compressibility (1/GPa) = 0.02111954
#
# Stress axis : x y z
#
# Youngs Moduli (GPa) = 109.15837 93.36281 35.32571
#
# Poissons Ratio (x) = 0.17527 -0.00684
# Poissons Ratio (y) = 0.20492 0.41849
# Poissons Ratio (z) = -0.02115 1.10604
#
# Static dielectric constant tensor:
#      x y z
#    x 4.641220 0.000000 0.000000 
#    y 0.000000 4.396440 0.000000 
#    z 0.000000 0.000000 4.140450 
# 
# 
# High freq. dielectric constant tensor:
#      x y z
#    x 1.995240 0.000000 0.000000 
#    y 0.000000 1.972440 0.000000 
#    z 0.000000 0.000000 1.946870 
# 
# From -- ./inp_files/12513.got.cif
#   From: 2010.06.25/outbox.cif.g09.slc.cpg/sg43_7_cif.got.tgz:12513.got - 2010.06.26 16:48:59.
