data_PCOD8187883
_publ_section_title
;
Structure prediction by ZEFSAII (Michael W. Deem and Ramdas Pophale) SiO2 
 PCOD8187883
Probable space group: I M M 2
;
_chemical_formula_sum "Si O2"
_cell_formula_units_Z 46
_cell_length_a 7.840915
_cell_length_b 16.639475
_cell_length_c 20.575968
_cell_angle_alpha 90.000000
_cell_angle_beta 90.000000
_cell_angle_gamma 90.000000
_cell_volume 2684.519984
_symmetry_space_group_name_H-M "I M M 2"
_symmetry_group_IT_number 44
_symmetry_cell_setting 'orthorhombic'
loop_
_space_group_symop_operation_xyz
x,y,z
-x,-y,z
-x,y,z
x,-y,z
1/2+x,1/2+y,1/2+z
1/2-x,1/2-y,1/2+z
1/2-x,1/2+y,1/2+z
1/2+x,1/2-y,1/2+z
loop_
_atom_site_type_symbol
_atom_site_label
_atom_site_fract_x
_atom_site_fract_y
_atom_site_fract_z
Si Si1 0.185847 0.000000 0.794780
Si Si2 0.191208 0.800952 0.431106
Si Si3 0.193549 0.628521 0.389816
Si Si4 0.000000 0.500000 0.198915
Si Si5 0.303644 0.589635 0.531002
Si Si6 0.311723 0.751930 0.079610
Si Si7 0.000000 0.405834 0.955619
Si Si8 0.000000 0.351068 0.104256
O O1 0.192237 0.079516 0.839453
O O2 0.329589 0.000000 0.740694
O O3 0.000000 0.000000 0.760713
O O4 0.240105 0.723403 0.387443
O O5 0.195950 0.772822 0.504974
O O6 0.331179 0.870273 0.420628
O O7 0.000000 0.832514 0.413827
O O8 0.211626 0.593595 0.461902
O O9 0.000000 0.615347 0.367647
O O10 0.000000 0.578029 0.154906
O O11 0.500000 0.612730 0.519829
O O12 0.281920 0.500000 0.559969
O O13 0.223906 0.652316 0.582597
O O14 0.500000 0.733899 0.108960
O O15 0.168460 0.702313 0.118356
O O16 0.000000 0.386344 0.031815
O O17 0.000000 0.500000 0.943760
#
# Coordination Sequence:
#
# PCOD8187883 Si02
#       8
#     4   8   8   2   8   8   4   4
#     4  12  24  36  52  76 104 136 182 220 250 301
#     4   8  17  28  44  70  99 129 165 199 245 314
#     4  10  18  31  47  69 103 142 169 202 253 306
#     4  12  26  42  54  72  98 142 190 234 252 292
#     4  10  17  24  42  76 111 141 167 191 245 323
#     4   9  17  30  48  70  94 131 173 209 253 312
#     4  10  18  30  50  74  96 131 169 204 253 308
#     4  10  20  38  53  62  93 134 180 228 260 274
#
# _framework density 17.135279000000001
#
# number of rings (size 3 to 8) (size 9 to 14) (size 15 to 20)
#    0.000    2.261    3.043    2.087    4.870    2.087 
#    0.000    0.000    0.000    0.000    0.000    0.000 
#    0.000    2.783    0.348    0.000    0.000    0.000 
#
# Total GULP energy -285099.652217 kJ/mol
# GULP energy per Si atom -12395.637053 kJ/mol
# Density = 1.709628 g / cm^3
# Si number density = 17.135279 Si / 1000 Ang^3
#
#
#
# Elastic Constant Matrix: (Units=GPa)
#
#
# Indices 1 2 3 4 5 6 
#
# 1 149.0410 78.1854 28.0647 0.0000 0.0000 0.0000
# 2 78.1854 135.0394 29.9820 0.0000 0.0000 0.0000
# 3 28.0647 29.9820 37.4505 0.0000 0.0000 0.0000
# 4 0.0000 0.0000 0.0000 5.5801 0.0000 0.0000
# 5 0.0000 0.0000 0.0000 0.0000 7.4188 0.0000
# 6 0.0000 0.0000 0.0000 0.0000 0.0000 25.7010
#
#
#
# Elastic Compliance Matrix: (Units=1/GPa)
#
#
# Indices 1 2 3 4 5 6 
#
# 1 0.009995 -0.005015 -0.003475 0.000000 0.000000 0.000000
# 2 -0.005015 0.011523 -0.005466 0.000000 0.000000 0.000000
# 3 -0.003475 -0.005466 0.033682 0.000000 0.000000 0.000000
# 4 0.000000 0.000000 0.000000 0.179208 0.000000 0.000000
# 5 0.000000 0.000000 0.000000 0.000000 0.134792 0.000000
# 6 0.000000 0.000000 0.000000 0.000000 0.000000 0.038909
#
#
# Mechanical properties :
#
#
# Convention : Reuss Voigt Hill
#
# Bulk Modulus (GPa) = 36.64803 65.99945 51.32374
# Shear Modulus (GPa) = 11.23297 20.09324 15.66311
#
# Velocity S-wave (km/s) = 2.56314 3.42807 3.02666
# Velocity P-wave (km/s) = 5.49486 7.36677 6.49857
#
# Compressibility (1/GPa) = 0.02728660
#
# Stress axis : x y z
#
# Youngs Moduli (GPa) = 100.05117 86.78510 29.68937
#
# Poissons Ratio (x) = 0.43526 0.10316
# Poissons Ratio (y) = 0.50179 0.16229
# Poissons Ratio (z) = 0.34766 0.47440
#
# Static dielectric constant tensor:
#      x y z
#    x 3.531640 0.000000 0.000000 
#    y 0.000000 3.365990 0.000000 
#    z 0.000000 0.000000 2.568990 
# 
# 
# High freq. dielectric constant tensor:
#      x y z
#    x 1.684050 0.000000 0.000000 
#    y 0.000000 1.665160 0.000000 
#    z 0.000000 0.000000 1.579460 
# 
# From -- ./inp_files/24887.got.cif
#   From: 2010.03.12/outbox.cif.g09.slc.cpg/sg44_13_cif.got.tgz:24887.got - 2010.04.14 02:36:11.
