data_PCOD8187599
_publ_section_title
;
Structure prediction by ZEFSAII (Michael W. Deem and Ramdas Pophale) SiO2 
 PCOD8187599
Probable space group: F D D 2
;
_chemical_formula_sum "Si O2"
_cell_formula_units_Z 104
_cell_length_a 11.123510
_cell_length_b 27.581171
_cell_length_c 15.784847
_cell_angle_alpha 90.000000
_cell_angle_beta 90.000000
_cell_angle_gamma 90.000000
_cell_volume 4842.782085
_symmetry_space_group_name_H-M "F D D 2"
_symmetry_group_IT_number 43
_symmetry_cell_setting 'orthorhombic'
loop_
_space_group_symop_operation_xyz
x,y,z
-x,-y,z
1/4-x,1/4+y,1/4+z
1/4+x,1/4-y,1/4+z
x,1/2+y,1/2+z
-x,1/2-y,1/2+z
1/4-x,3/4+y,3/4+z
1/4+x,3/4-y,3/4+z
1/2+x,y,1/2+z
1/2-x,-y,1/2+z
3/4-x,1/4+y,3/4+z
3/4+x,1/4-y,3/4+z
1/2+x,1/2+y,z
1/2-x,1/2-y,z
3/4-x,3/4+y,1/4+z
3/4+x,3/4-y,1/4+z
loop_
_atom_site_type_symbol
_atom_site_label
_atom_site_fract_x
_atom_site_fract_y
_atom_site_fract_z
Si Si1 0.114201 0.471257 0.002450
Si Si2 0.471679 0.612492 0.223747
Si Si3 0.500000 0.000000 0.320739
Si Si4 0.366463 0.722124 0.998438
Si Si5 0.082460 0.272503 0.921989
Si Si6 0.960847 0.621384 0.909531
Si Si7 0.468584 0.288416 0.156158
O O1 0.118849 0.483108 0.103510
O O2 0.000000 0.500000 0.964077
O O3 0.234713 0.490744 0.956514
O O4 0.096294 0.413687 0.982372
O O5 0.569041 0.573058 0.189754
O O6 0.345635 0.612064 0.177591
O O7 0.452530 0.593992 0.320514
O O8 0.526541 0.666210 0.219458
O O9 0.597733 0.024877 0.260907
O O10 0.421816 0.034787 0.381385
O O11 0.250000 0.750000 0.033754
O O12 0.448046 0.701551 0.074704
O O13 0.444036 0.758570 0.940191
O O14 0.106101 0.327545 0.892348
#
# Coordination Sequence:
#
# PCOD8187599 Si02
#       7
#    16  16   8  16  16  16  16
#     4  12  22  43  69 100 133 182 237 286 343 427
#     4  12  22  41  68 101 131 175 233 291 346 421
#     4  10  26  46  64  94 144 182 218 292 358 404
#     4  11  22  40  67  97 132 178 228 287 353 412
#     4  11  24  44  67  97 140 183 231 288 349 426
#     4  12  24  40  70 101 134 177 236 290 351 419
#     4  11  23  43  66  97 138 176 229 288 350 422
#
# _framework density 21.475259999999999
#
# number of rings (size 3 to 8) (size 9 to 14) (size 15 to 20)
#    0.000    0.615    6.923    1.385    2.154    1.231 
#    4.154    3.077    0.000    0.000    0.000    0.000 
#    0.000    0.000    0.000    0.000    0.000    0.000 
#
# Total GULP energy -322178.612800 kJ/mol
# GULP energy per Si atom -12391.485108 kJ/mol
# Density = 2.142638 g / cm^3
# Si number density = 21.475260 Si / 1000 Ang^3
#
#
#
# Elastic Constant Matrix: (Units=GPa)
#
#
# Indices 1 2 3 4 5 6 
#
# 1 94.4365 23.7347 8.9576 0.0000 0.0000 0.0000
# 2 23.7347 130.1444 16.2258 0.0000 0.0000 0.0000
# 3 8.9576 16.2258 65.3986 0.0000 0.0000 0.0000
# 4 0.0000 0.0000 0.0000 33.4241 0.0000 0.0000
# 5 0.0000 0.0000 0.0000 0.0000 24.2732 0.0000
# 6 0.0000 0.0000 0.0000 0.0000 0.0000 33.6859
#
#
#
# Elastic Compliance Matrix: (Units=1/GPa)
#
#
# Indices 1 2 3 4 5 6 
#
# 1 0.011168 -0.001905 -0.001057 0.000000 0.000000 0.000000
# 2 -0.001905 0.008254 -0.001787 0.000000 0.000000 0.000000
# 3 -0.001057 -0.001787 0.015879 0.000000 0.000000 0.000000
# 4 0.000000 0.000000 0.000000 0.029919 0.000000 0.000000
# 5 0.000000 0.000000 0.000000 0.000000 0.041198 0.000000
# 6 0.000000 0.000000 0.000000 0.000000 0.000000 0.029686
#
#
# Mechanical properties :
#
#
# Convention : Reuss Voigt Hill
#
# Bulk Modulus (GPa) = 38.75492 43.09064 40.92278
# Shear Modulus (GPa) = 32.42493 34.34740 33.38617
#
# Velocity S-wave (km/s) = 3.88992 4.00358 3.94716
# Velocity P-wave (km/s) = 6.18553 6.44052 6.31432
#
# Compressibility (1/GPa) = 0.02580318
#
# Stress axis : x y z
#
# Youngs Moduli (GPa) = 89.54020 121.15373 62.97633
#
# Poissons Ratio (x) = 0.23079 0.06657
# Poissons Ratio (y) = 0.17057 0.11254
# Poissons Ratio (z) = 0.09465 0.21650
#
# Static dielectric constant tensor:
#      x y z
#    x 3.961070 0.000000 0.000000 
#    y 0.000000 3.996450 0.000000 
#    z 0.000000 0.000000 3.790070 
# 
# 
# High freq. dielectric constant tensor:
#      x y z
#    x 1.840010 0.000000 0.000000 
#    y 0.000000 1.842270 0.000000 
#    z 0.000000 0.000000 1.832290 
# 
# From -- ./inp_files/13424.got.cif
#   From: 2010.06.25/outbox.cif.g09.slc.cpg/sg43_7_cif.got.tgz:13424.got - 2010.06.26 16:48:59.
