data_PCOD8187273
_publ_section_title
;
Structure prediction by ZEFSAII (Michael W. Deem and Ramdas Pophale) SiO2 
 PCOD8187273
Probable space group: F D D 2
;
_chemical_formula_sum "Si O2"
_cell_formula_units_Z 88
_cell_length_a 18.277559
_cell_length_b 27.786474
_cell_length_c 7.541764
_cell_angle_alpha 90.000000
_cell_angle_beta 90.000000
_cell_angle_gamma 90.000000
_cell_volume 3830.227522
_symmetry_space_group_name_H-M "F D D 2"
_symmetry_group_IT_number 43
_symmetry_cell_setting 'orthorhombic'
loop_
_space_group_symop_operation_xyz
x,y,z
-x,-y,z
1/4-x,1/4+y,1/4+z
1/4+x,1/4-y,1/4+z
x,1/2+y,1/2+z
-x,1/2-y,1/2+z
1/4-x,3/4+y,3/4+z
1/4+x,3/4-y,3/4+z
1/2+x,y,1/2+z
1/2-x,-y,1/2+z
3/4-x,1/4+y,3/4+z
3/4+x,1/4-y,3/4+z
1/2+x,1/2+y,z
1/2-x,1/2-y,z
3/4-x,3/4+y,1/4+z
3/4+x,3/4-y,1/4+z
loop_
_atom_site_type_symbol
_atom_site_label
_atom_site_fract_x
_atom_site_fract_y
_atom_site_fract_z
Si Si1 0.676507 0.420684 0.344380
Si Si2 0.131221 0.940754 0.715804
Si Si3 0.334739 0.910934 0.452842
Si Si4 0.500000 0.500000 0.655370
Si Si5 0.293875 0.475476 0.261104
Si Si6 0.864595 0.179759 0.308215
O O1 0.623070 0.437497 0.501837
O O2 0.749741 0.398063 0.429151
O O3 0.694829 0.467434 0.227378
O O4 0.641444 0.375617 0.236644
O O5 0.124981 0.885980 0.785735
O O6 0.062705 0.974064 0.777045
O O7 0.207643 0.964985 0.767435
O O8 0.339704 0.952089 0.601972
O O9 0.369026 0.929099 0.268974
O O10 0.460500 0.459638 0.532797
O O11 0.322113 0.457235 0.451604
#
# Coordination Sequence:
#
# PCOD8187273 Si02
#       6
#    16  16  16   8  16  16
#     4  10  21  42  67  98 133 179 235 283 345 424
#     4  10  22  42  68  97 141 179 230 288 351 421
#     4  10  23  44  65  98 139 173 231 290 342 414
#     4  12  20  44  70  96 134 186 224 284 350 414
#     4  11  24  45  67 104 134 180 237 289 339 425
#     4  11  24  43  71  97 134 188 225 283 360 409
#
# _framework density 22.975135999999999
#
# number of rings (size 3 to 8) (size 9 to 14) (size 15 to 20)
#    0.000    1.455    3.636    1.091    2.545    1.455 
#    3.273    0.909    0.000    0.000    0.000    0.000 
#    0.000    0.000    0.000    0.000    0.000    0.000 
#
# Total GULP energy -272634.620669 kJ/mol
# GULP energy per Si atom -12392.482758 kJ/mol
# Density = 2.292284 g / cm^3
# Si number density = 22.975136 Si / 1000 Ang^3
#
#
#
# Elastic Constant Matrix: (Units=GPa)
#
#
# Indices 1 2 3 4 5 6 
#
# 1 119.7531 68.3668 34.9603 -0.0012 -0.0027 0.0000
# 2 68.3668 212.2912 48.1752 0.0001 -0.0001 0.0000
# 3 34.9603 48.1752 66.5352 -0.0035 -0.0033 0.0002
# 4 -0.0012 0.0001 -0.0035 26.8960 0.0025 0.0003
# 5 -0.0027 -0.0001 -0.0033 0.0025 29.5837 -0.0003
# 6 0.0000 0.0000 0.0002 0.0003 -0.0003 36.9678
#
#
#
# Elastic Compliance Matrix: (Units=1/GPa)
#
#
# Indices 1 2 3 4 5 6 
#
# 1 0.010997 -0.002669 -0.003846 0.000000 0.000001 0.000000
# 2 -0.002669 0.006284 -0.003148 -0.000001 -0.000001 0.000000
# 3 -0.003846 -0.003148 0.019330 0.000002 0.000002 0.000000
# 4 0.000000 -0.000001 0.000002 0.037180 -0.000003 0.000000
# 5 0.000001 -0.000001 0.000002 -0.000003 0.033802 0.000000
# 6 0.000000 0.000000 0.000000 0.000000 0.000000 0.027051
#
#
# Mechanical properties :
#
#
# Convention : Reuss Voigt Hill
#
# Bulk Modulus (GPa) = 57.85104 77.95377 67.90241
# Shear Modulus (GPa) = 31.30262 35.16131 33.23196
#
# Velocity S-wave (km/s) = 3.69515 3.91629 3.80732
# Velocity P-wave (km/s) = 6.59091 7.37923 6.99618
#
# Compressibility (1/GPa) = 0.01728577
#
# Stress axis : x y z
#
# Youngs Moduli (GPa) = 90.93540 159.12648 51.73384
#
# Poissons Ratio (x) = 0.42466 0.19896
# Poissons Ratio (y) = 0.24268 0.16286
# Poissons Ratio (z) = 0.34973 0.50092
#
# Static dielectric constant tensor:
#      x y z
#    x 4.122850 0.000000 0.000010 
#    y 0.000000 4.604440 0.000000 
#    z 0.000010 0.000000 3.735400 
# 
# 
# High freq. dielectric constant tensor:
#      x y z
#    x 1.907080 0.000000 0.000000 
#    y 0.000000 1.942240 0.000000 
#    z 0.000000 0.000000 1.854080 
# 
# From -- ./inp_files/2928.got.cif
#   From: 2010.06.25/outbox.cif.g09.slc.cpg/sg43_2_cif.got.tgz:2928.got - 2010.06.26 16:48:59.
