data_PCOD8187086
_publ_section_title
;
Structure prediction by ZEFSAII (Michael W. Deem and Ramdas Pophale) SiO2 
 PCOD8187086
Probable space group: F D D 2
;
_chemical_formula_sum "Si O2"
_cell_formula_units_Z 120
_cell_length_a 17.831550
_cell_length_b 12.409566
_cell_length_c 25.954757
_cell_angle_alpha 90.000000
_cell_angle_beta 90.000000
_cell_angle_gamma 90.000000
_cell_volume 5743.315259
_symmetry_space_group_name_H-M "F D D 2"
_symmetry_group_IT_number 43
_symmetry_cell_setting 'orthorhombic'
loop_
_space_group_symop_operation_xyz
x,y,z
-x,-y,z
1/4-x,1/4+y,1/4+z
1/4+x,1/4-y,1/4+z
x,1/2+y,1/2+z
-x,1/2-y,1/2+z
1/4-x,3/4+y,3/4+z
1/4+x,3/4-y,3/4+z
1/2+x,y,1/2+z
1/2-x,-y,1/2+z
3/4-x,1/4+y,3/4+z
3/4+x,1/4-y,3/4+z
1/2+x,1/2+y,z
1/2-x,1/2-y,z
3/4-x,3/4+y,1/4+z
3/4+x,3/4-y,1/4+z
loop_
_atom_site_type_symbol
_atom_site_label
_atom_site_fract_x
_atom_site_fract_y
_atom_site_fract_z
Si Si1 0.824906 0.934415 0.564690
Si Si2 0.028367 0.192928 0.576476
Si Si3 0.533347 0.324182 0.685155
Si Si4 0.423177 0.780561 0.426791
Si Si5 0.458406 0.391590 0.240734
Si Si6 0.250000 0.250000 0.016968
Si Si7 0.782471 0.370195 0.755501
Si Si8 0.114291 0.861711 0.519531
O O1 0.887327 0.841238 0.562923
O O2 0.809331 0.987167 0.620074
O O3 0.746614 0.885413 0.545699
O O4 0.849896 0.020556 0.521714
O O5 0.011074 0.315300 0.557901
O O6 0.020464 0.166036 0.636278
O O7 0.965052 0.123670 0.547275
O O8 0.615594 0.369973 0.671653
O O9 0.531211 0.198601 0.697551
O O10 0.502555 0.392343 0.732673
O O11 0.497005 0.826445 0.454484
O O12 0.392115 0.680761 0.460747
O O13 0.500000 0.500000 0.219900
O O14 0.370133 0.390449 0.249963
O O15 0.172449 0.274067 0.048186
O O16 0.750000 0.250000 0.762357
#
# Coordination Sequence:
#
# PCOD8187086 Si02
#       8
#    16  16  16  16  16   8  16  16
#     4  12  23  43  70 101 139 177 234 303 363 438
#     4  11  23  40  69  99 132 176 225 297 361 423
#     4  11  21  41  70  97 133 173 230 295 354 422
#     4  10  23  43  70 102 132 178 238 302 360 427
#     4  12  26  48  67  96 145 196 233 288 363 444
#     4  10  20  38  62 100 134 160 230 288 344 418
#     4  11  24  49  67  95 144 189 235 289 362 437
#     4  10  21  37  65 101 131 173 221 289 363 416
#
# _framework density 20.893854999999999
#
# number of rings (size 3 to 8) (size 9 to 14) (size 15 to 20)
#    0.000    1.067    5.333    2.000    0.000    0.533 
#    8.400    2.667    0.000    0.000    0.000    0.000 
#    0.000    0.000    0.000    0.000    0.000    0.000 
#
# Total GULP energy -371645.446869 kJ/mol
# GULP energy per Si atom -12388.181562 kJ/mol
# Density = 2.084630 g / cm^3
# Si number density = 20.893855 Si / 1000 Ang^3
#
#
#
# Elastic Constant Matrix: (Units=GPa)
#
#
# Indices 1 2 3 4 5 6 
#
# 1 144.7386 32.5316 29.8664 0.0000 0.0000 0.0000
# 2 32.5316 129.0271 39.4240 0.0000 0.0000 0.0000
# 3 29.8664 39.4240 71.7857 0.0000 0.0000 0.0000
# 4 0.0000 0.0000 0.0000 21.8834 0.0000 0.0000
# 5 0.0000 0.0000 0.0000 0.0000 29.8713 0.0000
# 6 0.0000 0.0000 0.0000 0.0000 0.0000 33.6128
#
#
#
# Elastic Compliance Matrix: (Units=1/GPa)
#
#
# Indices 1 2 3 4 5 6 
#
# 1 0.007699 -0.001156 -0.002568 0.000000 0.000000 0.000000
# 2 -0.001156 0.009487 -0.004729 0.000000 0.000000 0.000000
# 3 -0.002568 -0.004729 0.017596 0.000000 0.000000 0.000000
# 4 0.000000 0.000000 0.000000 0.045697 0.000000 0.000000
# 5 0.000000 0.000000 0.000000 0.000000 0.033477 0.000000
# 6 0.000000 0.000000 0.000000 0.000000 0.000000 0.029751
#
#
# Mechanical properties :
#
#
# Convention : Reuss Voigt Hill
#
# Bulk Modulus (GPa) = 55.94484 61.02173 58.48329
# Shear Modulus (GPa) = 30.01729 33.32213 31.66971
#
# Velocity S-wave (km/s) = 3.79444 3.99786 3.89748
# Velocity P-wave (km/s) = 6.78461 7.11193 6.95019
#
# Compressibility (1/GPa) = 0.01787475
#
# Stress axis : x y z
#
# Youngs Moduli (GPa) = 129.88983 105.40966 56.83164
#
# Poissons Ratio (x) = 0.12190 0.14594
# Poissons Ratio (y) = 0.15021 0.26875
# Poissons Ratio (z) = 0.33355 0.49847
#
# Static dielectric constant tensor:
#      x y z
#    x 4.146450 0.000000 0.000000 
#    y 0.000000 4.073740 0.000000 
#    z 0.000000 0.000000 3.590340 
# 
# 
# High freq. dielectric constant tensor:
#      x y z
#    x 1.839100 0.000000 0.000000 
#    y 0.000000 1.822650 0.000000 
#    z 0.000000 0.000000 1.794040 
# 
# From -- ./inp_files/25193.got.cif
#   From: 2010.06.25/outbox.cif.g09.slc.cpg/sg43_13_cif.got.tgz:25193.got - 2010.06.26 16:48:59.
