data_PCOD8187226
_publ_section_title
;
Structure prediction by ZEFSAII (Michael W. Deem and Ramdas Pophale) SiO2 
 PCOD8187226
Probable space group: F D D 2
;
_chemical_formula_sum "Si O2"
_cell_formula_units_Z 112
_cell_length_a 14.634538
_cell_length_b 34.026405
_cell_length_c 10.148556
_cell_angle_alpha 90.000000
_cell_angle_beta 90.000000
_cell_angle_gamma 90.000000
_cell_volume 5053.582222
_symmetry_space_group_name_H-M "F D D 2"
_symmetry_group_IT_number 43
_symmetry_cell_setting 'orthorhombic'
loop_
_space_group_symop_operation_xyz
x,y,z
-x,-y,z
1/4-x,1/4+y,1/4+z
1/4+x,1/4-y,1/4+z
x,1/2+y,1/2+z
-x,1/2-y,1/2+z
1/4-x,3/4+y,3/4+z
1/4+x,3/4-y,3/4+z
1/2+x,y,1/2+z
1/2-x,-y,1/2+z
3/4-x,1/4+y,3/4+z
3/4+x,1/4-y,3/4+z
1/2+x,1/2+y,z
1/2-x,1/2-y,z
3/4-x,3/4+y,1/4+z
3/4+x,3/4-y,1/4+z
loop_
_atom_site_type_symbol
_atom_site_label
_atom_site_fract_x
_atom_site_fract_y
_atom_site_fract_z
Si Si1 0.554912 0.906257 0.099590
Si Si2 0.923937 0.971194 0.531698
Si Si3 0.021486 0.246060 0.275588
Si Si4 0.019244 0.667964 0.211970
Si Si5 0.416608 0.325708 0.114401
Si Si6 0.666349 0.601635 0.217026
Si Si7 0.085449 0.523075 0.724419
O O1 0.527564 0.859965 0.102065
O O2 0.603685 0.923219 0.232864
O O3 0.458879 0.927760 0.067349
O O4 0.620510 0.914033 0.973346
O O5 0.822320 0.978531 0.586349
O O6 0.911871 0.982555 0.379411
O O7 0.000000 0.000000 0.595040
O O8 0.077476 0.217462 0.177785
O O9 0.075046 0.254130 0.410292
O O10 0.008603 0.286698 0.194007
O O11 0.985314 0.648716 0.346368
O O12 0.376101 0.354921 0.226021
O O13 0.521534 0.339917 0.091876
O O14 0.584810 0.569878 0.194123
O O15 0.000000 0.500000 0.661363
#
# Coordination Sequence:
#
# PCOD8187226 Si02
#       7
#    16  16  16  16  16  16  16
#     4  10  21  44  65  95 130 179 220 277 340 397
#     4  11  22  42  65  89 132 178 215 276 335 398
#     4  11  22  43  67  98 130 178 222 278 341 404
#     4   9  20  41  64  90 132 166 220 275 329 392
#     4  10  21  39  68  94 131 174 224 274 334 407
#     4   9  19  38  63  87 127 173 211 274 329 387
#     4  10  23  42  63  91 135 175 218 278 341 391
#
# _framework density 22.162497999999999
#
# number of rings (size 3 to 8) (size 9 to 14) (size 15 to 20)
#    0.000    2.000    2.857    0.000    2.000    0.000 
#   10.286    0.000    0.000    0.000    0.000    0.000 
#    0.000    0.000    0.000    0.000    0.000    0.000 
#
# Total GULP energy -346943.870596 kJ/mol
# GULP energy per Si atom -12390.852521 kJ/mol
# Density = 2.211206 g / cm^3
# Si number density = 22.162498 Si / 1000 Ang^3
#
#
#
# Elastic Constant Matrix: (Units=GPa)
#
#
# Indices 1 2 3 4 5 6 
#
# 1 124.2430 71.5416 29.1284 0.0000 0.0000 0.0000
# 2 71.5416 173.1426 35.0619 0.0000 0.0000 0.0000
# 3 29.1284 35.0619 45.8271 0.0000 0.0000 0.0000
# 4 0.0000 0.0000 0.0000 25.7662 0.0000 0.0000
# 5 0.0000 0.0000 0.0000 0.0000 21.9273 0.0000
# 6 0.0000 0.0000 0.0000 0.0000 0.0000 38.6444
#
#
#
# Elastic Compliance Matrix: (Units=1/GPa)
#
#
# Indices 1 2 3 4 5 6 
#
# 1 0.011217 -0.003776 -0.004241 0.000000 0.000000 0.000000
# 2 -0.003776 0.008106 -0.003801 0.000000 0.000000 0.000000
# 3 -0.004241 -0.003801 0.027425 0.000000 0.000000 0.000000
# 4 0.000000 0.000000 0.000000 0.038811 0.000000 0.000000
# 5 0.000000 0.000000 0.000000 0.000000 0.045605 0.000000
# 6 0.000000 0.000000 0.000000 0.000000 0.000000 0.025877
#
#
# Mechanical properties :
#
#
# Convention : Reuss Voigt Hill
#
# Bulk Modulus (GPa) = 43.26875 68.29739 55.78307
# Shear Modulus (GPa) = 26.54188 31.09963 28.82075
#
# Velocity S-wave (km/s) = 3.46439 3.75007 3.61006
# Velocity P-wave (km/s) = 5.96393 7.04516 6.52697
#
# Compressibility (1/GPa) = 0.02311137
#
# Stress axis : x y z
#
# Youngs Moduli (GPa) = 89.14725 123.37037 36.46304
#
# Poissons Ratio (x) = 0.46587 0.15463
# Poissons Ratio (y) = 0.33664 0.13861
# Poissons Ratio (z) = 0.37806 0.46898
#
# Static dielectric constant tensor:
#      x y z
#    x 4.450490 0.000000 0.000000 
#    y 0.000000 4.139130 0.000000 
#    z 0.000000 0.000000 3.576540 
# 
# 
# High freq. dielectric constant tensor:
#      x y z
#    x 1.879420 0.000000 0.000000 
#    y 0.000000 1.879350 0.000000 
#    z 0.000000 0.000000 1.829370 
# 
# From -- ./inp_files/6326.got.cif
#   From: 2010.06.25/outbox.cif.g09.slc.cpg/sg43_4_cif.got.tgz:6326.got - 2010.06.26 16:48:59.
