data_PCOD8187284
_publ_section_title
;
Structure prediction by ZEFSAII (Michael W. Deem and Ramdas Pophale) SiO2 
 PCOD8187284
Probable space group: F D D 2
;
_chemical_formula_sum "Si O2"
_cell_formula_units_Z 104
_cell_length_a 9.220945
_cell_length_b 20.897442
_cell_length_c 26.990669
_cell_angle_alpha 90.000000
_cell_angle_beta 90.000000
_cell_angle_gamma 90.000000
_cell_volume 5200.944380
_symmetry_space_group_name_H-M "F D D 2"
_symmetry_group_IT_number 43
_symmetry_cell_setting 'orthorhombic'
loop_
_space_group_symop_operation_xyz
x,y,z
-x,-y,z
1/4-x,1/4+y,1/4+z
1/4+x,1/4-y,1/4+z
x,1/2+y,1/2+z
-x,1/2-y,1/2+z
1/4-x,3/4+y,3/4+z
1/4+x,3/4-y,3/4+z
1/2+x,y,1/2+z
1/2-x,-y,1/2+z
3/4-x,1/4+y,3/4+z
3/4+x,1/4-y,3/4+z
1/2+x,1/2+y,z
1/2-x,1/2-y,z
3/4-x,3/4+y,1/4+z
3/4+x,3/4-y,1/4+z
loop_
_atom_site_type_symbol
_atom_site_label
_atom_site_fract_x
_atom_site_fract_y
_atom_site_fract_z
Si Si1 0.406636 0.864938 0.920590
Si Si2 0.670948 0.013906 0.221513
Si Si3 0.000000 0.500000 0.890768
Si Si4 0.529463 0.277809 0.582060
Si Si5 0.262034 0.324664 0.319889
Si Si6 0.143901 0.110896 0.217449
Si Si7 0.290627 0.343339 0.115189
O O1 0.546510 0.822501 0.934313
O O2 0.441886 0.941047 0.924130
O O3 0.366956 0.845311 0.864559
O O4 0.277924 0.848190 0.959729
O O5 0.763294 0.952272 0.206003
O O6 0.500000 0.000000 0.221454
O O7 0.730187 0.037758 0.273890
O O8 0.121728 0.470910 0.855288
O O9 0.612482 0.212465 0.592277
O O10 0.620723 0.336766 0.604447
O O11 0.250000 0.250000 0.309111
O O12 0.319700 0.360535 0.271000
O O13 0.099242 0.343898 0.336788
O O14 0.188598 0.159932 0.174195
#
# Coordination Sequence:
#
# PCOD8187284 Si02
#       7
#    16  16   8  16  16  16  16
#     4  11  26  43  65  99 137 176 223 277 335 406
#     4  12  24  43  69  99 130 176 229 276 338 405
#     4  12  24  44  68  96 138 172 234 280 334 388
#     4  11  22  42  68  92 128 173 228 274 323 404
#     4  11  22  42  67 102 135 170 223 276 335 406
#     4  11  22  42  70  95 130 182 217 269 351 391
#     4  10  21  43  64  98 124 171 224 273 324 401
#
# _framework density 19.996369000000001
#
# number of rings (size 3 to 8) (size 9 to 14) (size 15 to 20)
#    0.000    0.923    6.154    2.308    8.615    0.000 
#    2.769    0.000    1.692    0.000    0.000    0.000 
#    0.000    0.000    0.000    0.000    0.000    0.000 
#
# Total GULP energy -322332.391931 kJ/mol
# GULP energy per Si atom -12397.399690 kJ/mol
# Density = 1.995086 g / cm^3
# Si number density = 19.996369 Si / 1000 Ang^3
#
#
#
# Elastic Constant Matrix: (Units=GPa)
#
#
# Indices 1 2 3 4 5 6 
#
# 1 132.0732 41.2771 35.6770 0.0000 0.0000 0.0000
# 2 41.2771 106.0307 36.2051 0.0000 0.0000 0.0000
# 3 35.6770 36.2051 123.6090 0.0000 0.0000 0.0000
# 4 0.0000 0.0000 0.0000 24.8513 0.0000 0.0000
# 5 0.0000 0.0000 0.0000 0.0000 26.6476 0.0000
# 6 0.0000 0.0000 0.0000 0.0000 0.0000 31.2501
#
#
#
# Elastic Compliance Matrix: (Units=1/GPa)
#
#
# Indices 1 2 3 4 5 6 
#
# 1 0.008943 -0.002889 -0.001735 0.000000 0.000000 0.000000
# 2 -0.002889 0.011413 -0.002509 0.000000 0.000000 0.000000
# 3 -0.001735 -0.002509 0.009326 0.000000 0.000000 0.000000
# 4 0.000000 0.000000 0.000000 0.040239 0.000000 0.000000
# 5 0.000000 0.000000 0.000000 0.000000 0.037527 0.000000
# 6 0.000000 0.000000 0.000000 0.000000 0.000000 0.032000
#
#
# Mechanical properties :
#
#
# Convention : Reuss Voigt Hill
#
# Bulk Modulus (GPa) = 64.87002 65.33680 65.10341
# Shear Modulus (GPa) = 31.47584 33.12005 32.29795
#
# Velocity S-wave (km/s) = 3.97177 4.07419 4.02330
# Velocity P-wave (km/s) = 7.31742 7.40792 7.36281
#
# Compressibility (1/GPa) = 0.01541544
#
# Stress axis : x y z
#
# Youngs Moduli (GPa) = 111.81712 87.62230 107.23107
#
# Poissons Ratio (x) = 0.25315 0.18605
# Poissons Ratio (y) = 0.32305 0.26903
# Poissons Ratio (z) = 0.19401 0.21983
#
# Static dielectric constant tensor:
#      x y z
#    x 3.854990 0.000000 0.000000 
#    y 0.000000 3.889300 0.000000 
#    z 0.000000 0.000000 3.662710 
# 
# 
# High freq. dielectric constant tensor:
#      x y z
#    x 1.784260 0.000000 0.000000 
#    y 0.000000 1.777970 0.000000 
#    z 0.000000 0.000000 1.784140 
# 
# From -- ./inp_files/24322.got.cif
#   From: 2010.06.25/outbox.cif.g09.slc.cpg/sg43_13_cif.got.tgz:24322.got - 2010.06.26 16:48:59.
