data_PCOD8187761
_publ_section_title
;
Structure prediction by ZEFSAII (Michael W. Deem and Ramdas Pophale) SiO2 
 PCOD8187761
Probable space group: F D D 2
;
_chemical_formula_sum "Si O2"
_cell_formula_units_Z 120
_cell_length_a 24.907502
_cell_length_b 22.776537
_cell_length_c 9.360102
_cell_angle_alpha 90.000000
_cell_angle_beta 90.000000
_cell_angle_gamma 90.000000
_cell_volume 5310.048024
_symmetry_space_group_name_H-M "F D D 2"
_symmetry_group_IT_number 43
_symmetry_cell_setting 'orthorhombic'
loop_
_space_group_symop_operation_xyz
x,y,z
-x,-y,z
1/4-x,1/4+y,1/4+z
1/4+x,1/4-y,1/4+z
x,1/2+y,1/2+z
-x,1/2-y,1/2+z
1/4-x,3/4+y,3/4+z
1/4+x,3/4-y,3/4+z
1/2+x,y,1/2+z
1/2-x,-y,1/2+z
3/4-x,1/4+y,3/4+z
3/4+x,1/4-y,3/4+z
1/2+x,1/2+y,z
1/2-x,1/2-y,z
3/4-x,3/4+y,1/4+z
3/4+x,3/4-y,1/4+z
loop_
_atom_site_type_symbol
_atom_site_label
_atom_site_fract_x
_atom_site_fract_y
_atom_site_fract_z
Si Si1 0.777011 0.073850 0.659250
Si Si2 0.250000 0.250000 0.795233
Si Si3 0.284809 0.828600 0.062433
Si Si4 0.579911 0.294320 0.788055
Si Si5 0.680233 0.348925 0.412433
Si Si6 0.355050 0.079324 0.656771
Si Si7 0.563710 0.304079 0.455157
Si Si8 0.431531 0.897907 0.653733
O O1 0.713352 0.081478 0.630071
O O2 0.811482 0.115307 0.556321
O O3 0.790430 0.094615 0.818891
O O4 0.794574 0.006716 0.635455
O O5 0.292783 0.282491 0.691874
O O6 0.275585 0.201505 0.897375
O O7 0.279461 0.893424 0.133179
O O8 0.334526 0.819209 0.958119
O O9 0.229895 0.814483 0.974779
O O10 0.577003 0.228920 0.848975
O O11 0.558984 0.300580 0.626241
O O12 0.641725 0.315339 0.801571
O O13 0.682528 0.394979 0.282003
O O14 0.624618 0.314769 0.411481
O O15 0.357624 0.124897 0.527171
#
# Coordination Sequence:
#
# PCOD8187761 Si02
#       8
#    16   8  16  16  16  16  16  16
#     4  12  27  45  76 107 150 192 248 300 369 445
#     4  12  24  46  74 108 150 190 248 304 364 452
#     4  11  25  46  73 107 146 196 247 307 371 448
#     4  12  26  45  74 106 146 192 240 311 362 442
#     4  11  27  47  74 107 146 200 243 305 369 444
#     4  11  25  44  73 105 141 190 247 298 371 431
#     4  11  26  47  73 106 148 194 248 306 370 438
#     4  12  24  48  69 109 146 190 243 304 371 431
#
# _framework density 22.598666000000001
#
# number of rings (size 3 to 8) (size 9 to 14) (size 15 to 20)
#    0.000    0.533    4.000    3.200    5.600    2.133 
#    2.400    0.000    0.000    0.000    0.000    0.000 
#    0.000    0.000    0.000    0.000    0.000    0.000 
#
# Total GULP energy -372056.208535 kJ/mol
# GULP energy per Si atom -12401.873618 kJ/mol
# Density = 2.254723 g / cm^3
# Si number density = 22.598666 Si / 1000 Ang^3
#
#
#
# Elastic Constant Matrix: (Units=GPa)
#
#
# Indices 1 2 3 4 5 6 
#
# 1 98.9448 6.2431 23.7448 0.0015 -0.0007 -0.0002
# 2 6.2431 58.8544 18.9571 0.0033 -0.0021 -0.0009
# 3 23.7448 18.9571 100.9776 0.0115 -0.0074 -0.0046
# 4 0.0015 0.0033 0.0115 41.8991 -0.0033 -0.0020
# 5 -0.0007 -0.0021 -0.0074 -0.0033 38.6285 0.0018
# 6 -0.0002 -0.0009 -0.0046 -0.0020 0.0018 33.2912
#
#
#
# Elastic Compliance Matrix: (Units=1/GPa)
#
#
# Indices 1 2 3 4 5 6 
#
# 1 0.010718 -0.000346 -0.002455 0.000000 0.000000 0.000000
# 2 -0.000346 0.018096 -0.003316 0.000000 0.000000 0.000000
# 3 -0.002455 -0.003316 0.011103 -0.000003 0.000002 0.000001
# 4 0.000000 0.000000 -0.000003 0.023867 0.000002 0.000001
# 5 0.000000 0.000000 0.000002 0.000002 0.025888 -0.000001
# 6 0.000000 0.000000 0.000001 0.000001 -0.000001 0.030038
#
#
# Mechanical properties :
#
#
# Convention : Reuss Voigt Hill
#
# Bulk Modulus (GPa) = 36.12431 39.62963 37.87697
# Shear Modulus (GPa) = 35.41808 36.75255 36.08531
#
# Velocity S-wave (km/s) = 3.96316 4.03713 4.00032
# Velocity P-wave (km/s) = 6.07964 6.26942 6.17526
#
# Compressibility (1/GPa) = 0.02768219
#
# Stress axis : x y z
#
# Youngs Moduli (GPa) = 93.30356 55.26129 90.06527
#
# Poissons Ratio (x) = 0.01912 0.22114
# Poissons Ratio (y) = 0.03229 0.29864
# Poissons Ratio (z) = 0.22909 0.18324
#
# Static dielectric constant tensor:
#      x y z
#    x 3.959580 0.000000 0.000000 
#    y 0.000000 4.062580 -0.000010 
#    z 0.000000 -0.000010 4.102030 
# 
# 
# High freq. dielectric constant tensor:
#      x y z
#    x 1.898190 0.000000 0.000000 
#    y 0.000000 1.893430 0.000000 
#    z 0.000000 0.000000 1.898120 
# 
# From -- ./inp_files/4330.got.cif
#   From: 2010.06.25/outbox.cif.g09.slc.cpg/sg43_3_cif.got.tgz:4330.got - 2010.06.26 16:48:59.
