data_PCOD8187669
_publ_section_title
;
Structure prediction by ZEFSAII (Michael W. Deem and Ramdas Pophale) SiO2 
 PCOD8187669
Probable space group: F D D 2
;
_chemical_formula_sum "Si O2"
_cell_formula_units_Z 88
_cell_length_a 5.675471
_cell_length_b 25.937845
_cell_length_c 26.634760
_cell_angle_alpha 90.000000
_cell_angle_beta 90.000000
_cell_angle_gamma 90.000000
_cell_volume 3920.889359
_symmetry_space_group_name_H-M "F D D 2"
_symmetry_group_IT_number 43
_symmetry_cell_setting 'orthorhombic'
loop_
_space_group_symop_operation_xyz
x,y,z
-x,-y,z
1/4-x,1/4+y,1/4+z
1/4+x,1/4-y,1/4+z
x,1/2+y,1/2+z
-x,1/2-y,1/2+z
1/4-x,3/4+y,3/4+z
1/4+x,3/4-y,3/4+z
1/2+x,y,1/2+z
1/2-x,-y,1/2+z
3/4-x,1/4+y,3/4+z
3/4+x,1/4-y,3/4+z
1/2+x,1/2+y,z
1/2-x,1/2-y,z
3/4-x,3/4+y,1/4+z
3/4+x,3/4-y,1/4+z
loop_
_atom_site_type_symbol
_atom_site_label
_atom_site_fract_x
_atom_site_fract_y
_atom_site_fract_z
Si Si1 0.206829 0.467079 0.983170
Si Si2 0.137892 0.373057 0.709520
Si Si3 0.750000 0.750000 0.149236
Si Si4 0.865467 0.194553 0.390207
Si Si5 0.278081 0.859267 0.622048
Si Si6 0.088706 0.913706 0.048066
O O1 0.275978 0.504745 0.937095
O O2 0.000000 0.500000 0.012528
O O3 0.114537 0.413986 0.959617
O O4 0.434886 0.455088 0.017209
O O5 0.237385 0.428809 0.690665
O O6 0.937164 0.356781 0.671191
O O7 0.024116 0.369639 0.765044
O O8 0.799893 0.700107 0.114721
O O9 0.750000 0.250000 0.399879
O O10 0.677625 0.150241 0.378656
O O11 0.034973 0.196717 0.341818
O O12 0.418411 0.871486 0.571718
#
# Coordination Sequence:
#
# PCOD8187669 Si02
#       6
#    16  16   8  16  16  16
#     4  12  22  40  75 106 135 178 236 296 361 423
#     4  11  22  43  71  98 143 187 232 297 361 428
#     4  12  22  42  74 102 138 184 232 294 370 416
#     4  11  26  46  72 101 147 189 243 299 360 436
#     4  11  24  43  71 102 141 182 236 298 362 427
#     4  11  25  42  69 108 143 184 243 296 361 432
#
# _framework density 22.443887
#
# number of rings (size 3 to 8) (size 9 to 14) (size 15 to 20)
#    0.000    0.727    5.455    1.091    0.000   10.182 
#    0.000    0.000   30.000    0.000    0.000    0.000 
#    0.000    0.000    0.000    0.000    0.000    0.000 
#
# Total GULP energy -272611.825524 kJ/mol
# GULP energy per Si atom -12391.446615 kJ/mol
# Density = 2.239280 g / cm^3
# Si number density = 22.443887 Si / 1000 Ang^3
#
#
#
# Elastic Constant Matrix: (Units=GPa)
#
#
# Indices 1 2 3 4 5 6 
#
# 1 100.2539 55.2528 27.1336 0.0000 0.0000 0.0000
# 2 55.2528 166.9507 41.7124 0.0000 0.0000 0.0000
# 3 27.1336 41.7124 80.5667 0.0000 0.0000 0.0000
# 4 0.0000 0.0000 0.0000 23.0687 0.0000 0.0000
# 5 0.0000 0.0000 0.0000 0.0000 38.1670 0.0000
# 6 0.0000 0.0000 0.0000 0.0000 0.0000 42.2243
#
#
#
# Elastic Compliance Matrix: (Units=1/GPa)
#
#
# Indices 1 2 3 4 5 6 
#
# 1 0.012589 -0.003569 -0.002392 0.000000 0.000000 0.000000
# 2 -0.003569 0.007891 -0.002884 0.000000 0.000000 0.000000
# 3 -0.002392 -0.002884 0.014711 0.000000 0.000000 0.000000
# 4 0.000000 0.000000 0.000000 0.043349 0.000000 0.000000
# 5 0.000000 0.000000 0.000000 0.000000 0.026201 0.000000
# 6 0.000000 0.000000 0.000000 0.000000 0.000000 0.023683
#
#
# Mechanical properties :
#
#
# Convention : Reuss Voigt Hill
#
# Bulk Modulus (GPa) = 57.13672 66.21879 61.67775
# Shear Modulus (GPa) = 32.90633 35.60352 34.25492
#
# Velocity S-wave (km/s) = 3.83320 3.98720 3.91096
# Velocity P-wave (km/s) = 6.71596 7.12497 6.92349
#
# Compressibility (1/GPa) = 0.01750188
#
# Stress axis : x y z
#
# Youngs Moduli (GPa) = 79.43516 126.72083 67.97750
#
# Poissons Ratio (x) = 0.45222 0.16261
# Poissons Ratio (y) = 0.28348 0.19603
# Poissons Ratio (z) = 0.19002 0.36544
#
# Static dielectric constant tensor:
#      x y z
#    x 4.396590 0.000000 0.000000 
#    y 0.000000 4.059880 0.000000 
#    z 0.000000 0.000000 4.073220 
# 
# 
# High freq. dielectric constant tensor:
#      x y z
#    x 1.907870 0.000000 0.000000 
#    y 0.000000 1.880280 0.000000 
#    z 0.000000 0.000000 1.867050 
# 
# From -- ./inp_files/27234.got.cif
#   From: 2010.06.25/outbox.cif.g09.slc.cpg/sg43_14_cif.got.tgz:27234.got - 2010.06.26 16:48:59.
