data_PCOD8187924
_publ_section_title
;
Structure prediction by ZEFSAII (Michael W. Deem and Ramdas Pophale) SiO2 
 PCOD8187924
Probable space group: I M M 2
;
_chemical_formula_sum "Si O2"
_cell_formula_units_Z 64
_cell_length_a 14.571248
_cell_length_b 9.065315
_cell_length_c 28.016796
_cell_angle_alpha 90.000000
_cell_angle_beta 90.000000
_cell_angle_gamma 90.000000
_cell_volume 3700.821319
_symmetry_space_group_name_H-M "I M M 2"
_symmetry_group_IT_number 44
_symmetry_cell_setting 'orthorhombic'
loop_
_space_group_symop_operation_xyz
x,y,z
-x,-y,z
-x,y,z
x,-y,z
1/2+x,1/2+y,1/2+z
1/2-x,1/2-y,1/2+z
1/2-x,1/2+y,1/2+z
1/2+x,1/2-y,1/2+z
loop_
_atom_site_type_symbol
_atom_site_label
_atom_site_fract_x
_atom_site_fract_y
_atom_site_fract_z
Si Si1 0.894727 0.173486 0.873750
Si Si2 0.395066 0.826335 0.094807
Si Si3 0.394820 0.670924 0.997372
Si Si4 0.606351 0.830462 0.827558
Si Si5 0.722840 0.325887 0.906881
Si Si6 0.215549 0.174754 0.677553
Si Si7 0.599632 0.825219 0.720387
Si Si8 0.899136 0.825191 0.766705
O O1 0.825475 0.258754 0.908778
O O2 0.868684 0.223364 0.819718
O O3 0.000000 0.217443 0.885460
O O4 0.881092 0.000000 0.880599
O O5 0.500000 0.781774 0.107055
O O6 0.327035 0.755334 0.132690
O O7 0.381618 0.000000 0.095175
O O8 0.367186 0.766179 0.043174
O O9 0.500000 0.700717 0.982296
O O10 0.379502 0.500000 0.009955
O O11 0.329889 0.723895 0.954584
O O12 0.500000 0.814931 0.841861
O O13 0.667475 0.731534 0.861597
O O14 0.622392 0.769976 0.773857
O O15 0.638844 0.000000 0.832297
O O16 0.729716 0.500000 0.903561
O O17 0.322519 0.221260 0.682396
O O18 0.168983 0.233704 0.726230
O O19 0.202545 0.000000 0.671208
O O20 0.500000 0.763491 0.703475
O O21 0.594891 0.000000 0.724085
O O22 0.000000 0.760745 0.755365
O O23 0.902961 0.000000 0.765615
#
# Coordination Sequence:
#
# PCOD8187924 Si02
#       8
#     8   8   8   8   8   8   8   8
#     4   9  18  33  51  70  96 132 172 208 236 270
#     4  10  21  35  50  71  98 122 147 189 243 291
#     4   9  19  36  54  71  94 124 156 189 230 286
#     4   9  17  30  49  72  99 132 168 202 235 278
#     4  11  21  31  48  74 102 129 158 198 246 292
#     4  10  17  27  49  73  93 124 162 196 233 280
#     4   8  15  28  46  70  98 128 166 206 233 261
#     4   8  14  25  43  68  94 122 161 201 230 266
#
# _framework density 17.293458000000001
#
# number of rings (size 3 to 8) (size 9 to 14) (size 15 to 20)
#    0.000    2.750    0.000    3.750    0.000    5.250 
#    0.000    3.750    0.000    2.625    0.000    1.750 
#    0.000    0.000    0.000    0.000    0.000    0.000 
#
# Total GULP energy -396692.258393 kJ/mol
# GULP energy per Si atom -12396.633075 kJ/mol
# Density = 1.725410 g / cm^3
# Si number density = 17.293458 Si / 1000 Ang^3
#
#
#
# Elastic Constant Matrix: (Units=GPa)
#
#
# Indices 1 2 3 4 5 6 
#
# 1 131.8528 46.8070 87.4194 0.0000 0.0000 0.0000
# 2 46.8070 46.9360 41.5211 0.0000 0.0000 0.0000
# 3 87.4194 41.5211 105.3935 0.0000 0.0000 0.0000
# 4 0.0000 0.0000 0.0000 24.4777 0.0000 0.0000
# 5 0.0000 0.0000 0.0000 0.0000 30.6277 0.0000
# 6 0.0000 0.0000 0.0000 0.0000 0.0000 23.2220
#
#
#
# Elastic Compliance Matrix: (Units=1/GPa)
#
#
# Indices 1 2 3 4 5 6 
#
# 1 0.018402 -0.007443 -0.012332 0.000000 0.000000 0.000000
# 2 -0.007443 0.035713 -0.007896 0.000000 0.000000 0.000000
# 3 -0.012332 -0.007896 0.022828 0.000000 0.000000 0.000000
# 4 0.000000 0.000000 0.000000 0.040854 0.000000 0.000000
# 5 0.000000 0.000000 0.000000 0.000000 0.032650 0.000000
# 6 0.000000 0.000000 0.000000 0.000000 0.000000 0.043063
#
#
# Mechanical properties :
#
#
# Convention : Reuss Voigt Hill
#
# Bulk Modulus (GPa) = 46.29255 70.63081 58.46168
# Shear Modulus (GPa) = 19.52727 22.89446 21.21086
#
# Velocity S-wave (km/s) = 3.36396 3.64246 3.50598
# Velocity P-wave (km/s) = 6.47420 7.65645 7.09001
#
# Compressibility (1/GPa) = 0.02160175
#
# Stress axis : x y z
#
# Youngs Moduli (GPa) = 54.34047 28.00095 43.80602
#
# Poissons Ratio (x) = 0.20840 0.54021
# Poissons Ratio (y) = 0.40444 0.34590
# Poissons Ratio (z) = 0.67012 0.22110
#
# Static dielectric constant tensor:
#      x y z
#    x 3.570870 0.000000 0.000000 
#    y 0.000000 2.922130 0.000000 
#    z 0.000000 0.000000 3.129960 
# 
# 
# High freq. dielectric constant tensor:
#      x y z
#    x 1.675470 0.000000 0.000000 
#    y 0.000000 1.638900 0.000000 
#    z 0.000000 0.000000 1.649480 
# 
# From -- ./inp_files/25806.got.cif
#   From: 2010.03.12/outbox.cif.g09.slc.cpg/sg44_13_cif.got.tgz:25806.got - 2010.04.14 02:36:11.
