data_PCOD8187287
_publ_section_title
;
Structure prediction by ZEFSAII (Michael W. Deem and Ramdas Pophale) SiO2 
 PCOD8187287
Probable space group: F D D 2
;
_chemical_formula_sum "Si O2"
_cell_formula_units_Z 96
_cell_length_a 8.949105
_cell_length_b 28.034825
_cell_length_c 19.440910
_cell_angle_alpha 90.000000
_cell_angle_beta 90.000000
_cell_angle_gamma 90.000000
_cell_volume 4877.463667
_symmetry_space_group_name_H-M "F D D 2"
_symmetry_group_IT_number 43
_symmetry_cell_setting 'orthorhombic'
loop_
_space_group_symop_operation_xyz
x,y,z
-x,-y,z
1/4-x,1/4+y,1/4+z
1/4+x,1/4-y,1/4+z
x,1/2+y,1/2+z
-x,1/2-y,1/2+z
1/4-x,3/4+y,3/4+z
1/4+x,3/4-y,3/4+z
1/2+x,y,1/2+z
1/2-x,-y,1/2+z
3/4-x,1/4+y,3/4+z
3/4+x,1/4-y,3/4+z
1/2+x,1/2+y,z
1/2-x,1/2-y,z
3/4-x,3/4+y,1/4+z
3/4+x,3/4-y,1/4+z
loop_
_atom_site_type_symbol
_atom_site_label
_atom_site_fract_x
_atom_site_fract_y
_atom_site_fract_z
Si Si1 0.104432 0.223291 0.952720
Si Si2 0.364691 0.789305 0.918123
Si Si3 0.595640 0.191321 0.307756
Si Si4 0.318523 0.121867 0.444228
Si Si5 0.817115 0.450699 0.040055
Si Si6 0.861999 0.615028 0.283468
O O1 0.250000 0.250000 0.923480
O O2 0.041986 0.192458 0.887840
O O3 0.977506 0.262381 0.971611
O O4 0.153528 0.189922 0.016024
O O5 0.250000 0.750000 0.888154
O O6 0.277359 0.830296 0.960206
O O7 0.457882 0.811026 0.854199
O O8 0.770118 0.178858 0.306002
O O9 0.567327 0.242951 0.273741
O O10 0.499208 0.151129 0.267956
O O11 0.235271 0.075205 0.471280
O O12 0.324084 0.116811 0.362835
O O13 0.475702 0.122504 0.483430
#
# Coordination Sequence:
#
# PCOD8187287 Si02
#       6
#    16  16  16  16  16  16
#     4  11  22  42  66  93 129 175 227 266 338 407
#     4  11  20  39  66  93 126 174 217 279 330 414
#     4  10  21  43  67  89 127 175 222 270 325 410
#     4  12  24  40  65  97 131 172 221 274 342 403
#     4  10  22  39  66  92 123 172 223 263 331 403
#     4  12  24  43  65  97 132 172 223 282 336 405
#
# _framework density 19.682362000000001
#
# number of rings (size 3 to 8) (size 9 to 14) (size 15 to 20)
#    0.000    1.000    8.333    1.000    2.333    0.000 
#    3.000    3.333    0.000    0.000    0.000    0.000 
#    0.000    0.000    0.000    0.000    0.000    0.000 
#
# Total GULP energy -297500.341430 kJ/mol
# GULP energy per Si atom -12395.847560 kJ/mol
# Density = 1.963756 g / cm^3
# Si number density = 19.682362 Si / 1000 Ang^3
#
#
#
# Elastic Constant Matrix: (Units=GPa)
#
#
# Indices 1 2 3 4 5 6 
#
# 1 136.1491 61.5093 41.3109 0.0000 0.0000 0.0000
# 2 61.5093 117.8780 51.4948 0.0000 0.0000 0.0000
# 3 41.3109 51.4948 70.7268 0.0000 0.0000 0.0000
# 4 0.0000 0.0000 0.0000 36.1468 0.0000 0.0000
# 5 0.0000 0.0000 0.0000 0.0000 26.4559 0.0000
# 6 0.0000 0.0000 0.0000 0.0000 0.0000 47.0831
#
#
#
# Elastic Compliance Matrix: (Units=1/GPa)
#
#
# Indices 1 2 3 4 5 6 
#
# 1 0.010027 -0.003921 -0.003002 0.000000 0.000000 0.000000
# 2 -0.003921 0.013973 -0.007883 0.000000 0.000000 0.000000
# 3 -0.003002 -0.007883 0.021632 0.000000 0.000000 0.000000
# 4 0.000000 0.000000 0.000000 0.027665 0.000000 0.000000
# 5 0.000000 0.000000 0.000000 0.000000 0.037799 0.000000
# 6 0.000000 0.000000 0.000000 0.000000 0.000000 0.021239
#
#
# Mechanical properties :
#
#
# Convention : Reuss Voigt Hill
#
# Bulk Modulus (GPa) = 62.42290 70.37597 66.39943
# Shear Modulus (GPa) = 29.88864 33.29977 31.59421
#
# Velocity S-wave (km/s) = 3.90108 4.11768 4.01085
# Velocity P-wave (km/s) = 7.21632 7.64464 7.43357
#
# Compressibility (1/GPa) = 0.01601976
#
# Stress axis : x y z
#
# Youngs Moduli (GPa) = 99.72969 71.56635 46.22736
#
# Poissons Ratio (x) = 0.28059 0.13878
# Poissons Ratio (y) = 0.39101 0.36443
# Poissons Ratio (z) = 0.29940 0.56419
#
# Static dielectric constant tensor:
#      x y z
#    x 3.888800 0.000000 0.000000 
#    y 0.000000 3.912300 0.000000 
#    z 0.000000 0.000000 3.332270 
# 
# 
# High freq. dielectric constant tensor:
#      x y z
#    x 1.791030 0.000000 0.000000 
#    y 0.000000 1.771810 0.000000 
#    z 0.000000 0.000000 1.727170 
# 
# From -- ./inp_files/16468.got.cif
#   From: 2010.06.25/outbox.cif.g09.slc.cpg/sg43_9_cif.got.tgz:16468.got - 2010.06.26 16:48:59.
