data_PCOD8187785
_publ_section_title
;
Structure prediction by ZEFSAII (Michael W. Deem and Ramdas Pophale) SiO2 
 PCOD8187785
Probable space group: F D D 2
;
_chemical_formula_sum "Si O2"
_cell_formula_units_Z 48
_cell_length_a 21.967531
_cell_length_b 11.773926
_cell_length_c 6.859208
_cell_angle_alpha 90.000000
_cell_angle_beta 90.000000
_cell_angle_gamma 90.000000
_cell_volume 1774.093573
_symmetry_space_group_name_H-M "F D D 2"
_symmetry_group_IT_number 43
_symmetry_cell_setting 'orthorhombic'
loop_
_space_group_symop_operation_xyz
x,y,z
-x,-y,z
1/4-x,1/4+y,1/4+z
1/4+x,1/4-y,1/4+z
x,1/2+y,1/2+z
-x,1/2-y,1/2+z
1/4-x,3/4+y,3/4+z
1/4+x,3/4-y,3/4+z
1/2+x,y,1/2+z
1/2-x,-y,1/2+z
3/4-x,1/4+y,3/4+z
3/4+x,1/4-y,3/4+z
1/2+x,1/2+y,z
1/2-x,1/2-y,z
3/4-x,3/4+y,1/4+z
3/4+x,3/4-y,1/4+z
loop_
_atom_site_type_symbol
_atom_site_label
_atom_site_fract_x
_atom_site_fract_y
_atom_site_fract_z
Si Si1 0.519077 0.650785 0.351660
Si Si2 0.209670 0.877138 0.664460
Si Si3 0.919845 0.515237 0.090313
O O1 0.513485 0.787864 0.337053
O O2 0.458621 0.601844 0.457970
O O3 0.576960 0.609565 0.482196
O O4 0.528829 0.598689 0.138502
O O5 0.202738 0.756592 0.551320
O O6 0.147271 0.944188 0.626097
#
# Coordination Sequence:
#
# PCOD8187785 Si02
#       3
#    16  16  16
#     4  11  26  48  77 113 158 208 266 331 401 474
#     4  12  24  50  79 113 163 208 271 330 397 484
#     4  11  26  49  74 118 155 213 265 325 408 464
#
# _framework density 27.056069999999998
#
# number of rings (size 3 to 8) (size 9 to 14) (size 15 to 20)
#    0.000    0.667    6.667    0.000    0.000    8.000 
#   12.000    0.000    0.000    0.000    0.000    0.000 
#    0.000    0.000    0.000    0.000    0.000    0.000 
#
# Total GULP energy -148678.540144 kJ/mol
# GULP energy per Si atom -12389.878345 kJ/mol
# Density = 2.699449 g / cm^3
# Si number density = 27.056070 Si / 1000 Ang^3
#
#
#
# Elastic Constant Matrix: (Units=GPa)
#
#
# Indices 1 2 3 4 5 6 
#
# 1 108.1180 34.1565 27.4191 0.0000 0.0000 0.0000
# 2 34.1565 116.2399 12.0074 0.0000 0.0000 0.0000
# 3 27.4191 12.0074 203.5980 0.0000 0.0000 0.0000
# 4 0.0000 0.0000 0.0000 36.7164 0.0000 0.0000
# 5 0.0000 0.0000 0.0000 0.0000 32.5670 0.0000
# 6 0.0000 0.0000 0.0000 0.0000 0.0000 50.8190
#
#
#
# Elastic Compliance Matrix: (Units=1/GPa)
#
#
# Indices 1 2 3 4 5 6 
#
# 1 0.010498 -0.002957 -0.001239 0.000000 0.000000 0.000000
# 2 -0.002957 0.009488 -0.000161 0.000000 0.000000 0.000000
# 3 -0.001239 -0.000161 0.005088 0.000000 0.000000 0.000000
# 4 0.000000 0.000000 0.000000 0.027236 0.000000 0.000000
# 5 0.000000 0.000000 0.000000 0.000000 0.030706 0.000000
# 6 0.000000 0.000000 0.000000 0.000000 0.000000 0.019678
#
#
# Mechanical properties :
#
#
# Convention : Reuss Voigt Hill
#
# Bulk Modulus (GPa) = 61.12780 63.90242 62.51511
# Shear Modulus (GPa) = 42.78582 47.64535 45.21558
#
# Velocity S-wave (km/s) = 3.98097 4.20096 4.09244
# Velocity P-wave (km/s) = 6.61611 6.87027 6.74438
#
# Compressibility (1/GPa) = 0.01635917
#
# Stress axis : x y z
#
# Youngs Moduli (GPa) = 95.26072 105.39232 196.53826
#
# Poissons Ratio (x) = 0.31160 0.24358
# Poissons Ratio (y) = 0.28165 0.03172
# Poissons Ratio (z) = 0.11806 0.01701
#
# Static dielectric constant tensor:
#      x y z
#    x 4.816440 0.000000 0.000000 
#    y 0.000000 5.448760 0.000000 
#    z 0.000000 0.000000 5.274010 
# 
# 
# High freq. dielectric constant tensor:
#      x y z
#    x 2.080810 0.000000 0.000000 
#    y 0.000000 2.105200 0.000000 
#    z 0.000000 0.000000 2.108810 
# 
# From -- ./inp_files/263.got.cif
#   From: 2010.06.25/outbox.cif.g09.slc.cpg/sg43_1_cif.got.tgz:263.got - 2010.06.26 16:48:59.
