data_PCOD8187958
_publ_section_title
;
Structure prediction by ZEFSAII (Michael W. Deem and Ramdas Pophale) SiO2 
 PCOD8187958
Probable space group: I M M 2
;
_chemical_formula_sum "Si O2"
_cell_formula_units_Z 64
_cell_length_a 8.932447
_cell_length_b 31.033121
_cell_length_c 12.045262
_cell_angle_alpha 90.000000
_cell_angle_beta 90.000000
_cell_angle_gamma 90.000000
_cell_volume 3338.967207
_symmetry_space_group_name_H-M "I M M 2"
_symmetry_group_IT_number 44
_symmetry_cell_setting 'orthorhombic'
loop_
_space_group_symop_operation_xyz
x,y,z
-x,-y,z
-x,y,z
x,-y,z
1/2+x,1/2+y,1/2+z
1/2-x,1/2-y,1/2+z
1/2-x,1/2+y,1/2+z
1/2+x,1/2-y,1/2+z
loop_
_atom_site_type_symbol
_atom_site_label
_atom_site_fract_x
_atom_site_fract_y
_atom_site_fract_z
Si Si1 0.168477 0.163914 0.337660
Si Si2 0.176025 0.424093 0.837661
Si Si3 0.821942 0.547352 0.073443
Si Si4 0.178058 0.452648 0.601880
Si Si5 0.326931 0.295401 0.072221
Si Si6 0.322852 0.129064 0.709555
Si Si7 0.322853 0.129064 0.965766
Si Si8 0.826931 0.795401 0.103099
O O1 0.288191 0.126143 0.337662
O O2 0.196497 0.193078 0.444273
O O3 0.196496 0.193077 0.231046
O O4 0.000000 0.144747 0.337661
O O5 0.242848 0.445725 0.726389
O O6 0.000000 0.430164 0.837663
O O7 0.242849 0.445726 0.948932
O O8 0.769323 0.500000 0.115526
O O9 0.761438 0.584689 0.154701
O O10 0.000000 0.549683 0.070838
O O11 0.230677 0.500000 0.559797
O O12 0.238562 0.415311 0.520621
O O13 0.000000 0.450316 0.604485
O O14 0.500000 0.292002 0.104693
O O15 0.252462 0.330508 0.151411
O O16 0.250000 0.250000 0.087661
O O17 0.500000 0.133246 0.694519
O O18 0.275893 0.128307 0.837660
O O19 0.500000 0.133245 0.980801
O O20 0.247540 0.169492 0.023909
O O21 0.000000 0.792003 0.070625
#
# Coordination Sequence:
#
# PCOD8187958 Si02
#       8
#     8   8   8   8   8   8   8   8
#     4  10  22  39  59  83 114 146 179 231 284 331
#     4  10  17  30  56  84 112 146 188 233 277 331
#     4   9  17  30  52  84 116 146 185 234 282 327
#     4   9  17  30  52  84 116 146 185 234 282 327
#     4  11  24  41  61  85 113 147 187 232 285 339
#     4  10  21  37  57  83 116 152 191 235 279 329
#     4  10  21  37  57  83 116 152 191 235 279 329
#     4  11  24  41  61  85 113 147 187 232 285 339
#
# _framework density 19.167604999999998
#
# number of rings (size 3 to 8) (size 9 to 14) (size 15 to 20)
#    0.000    2.000    2.500    1.125    1.750    3.500 
#    0.000    2.500    0.000    3.750    0.000    1.750 
#    0.000    0.000    0.000    0.000    0.000    0.000 
#
# Total GULP energy -396768.225742 kJ/mol
# GULP energy per Si atom -12399.007054 kJ/mol
# Density = 1.912398 g / cm^3
# Si number density = 19.167605 Si / 1000 Ang^3
#
#
#
# Elastic Constant Matrix: (Units=GPa)
#
#
# Indices 1 2 3 4 5 6 
#
# 1 30.5159 36.7924 42.2261 -0.0007 0.0001 0.0000
# 2 36.7924 190.8225 89.7493 -0.0012 0.0002 0.0001
# 3 42.2261 89.7493 162.8772 -0.0029 0.0004 0.0004
# 4 -0.0007 -0.0012 -0.0029 28.5649 0.0003 0.0002
# 5 0.0001 0.0002 0.0004 0.0003 20.4504 -0.0003
# 6 0.0000 0.0001 0.0004 0.0002 -0.0003 24.0958
#
#
#
# Elastic Compliance Matrix: (Units=1/GPa)
#
#
# Indices 1 2 3 4 5 6 
#
# 1 0.054720 -0.005235 -0.011302 0.000000 0.000000 0.000000
# 2 -0.005235 0.007575 -0.002817 0.000000 0.000000 0.000000
# 3 -0.011302 -0.002817 0.010622 0.000001 0.000000 0.000000
# 4 0.000000 0.000000 0.000001 0.035008 0.000000 0.000000
# 5 0.000000 0.000000 0.000000 0.000000 0.048899 0.000001
# 6 0.000000 0.000000 0.000000 0.000000 0.000001 0.041501
#
#
# Mechanical properties :
#
#
# Convention : Reuss Voigt Hill
#
# Bulk Modulus (GPa) = 29.23142 80.19458 54.71300
# Shear Modulus (GPa) = 20.12607 28.98541 24.55574
#
# Velocity S-wave (km/s) = 3.24389 3.89293 3.58314
# Velocity P-wave (km/s) = 5.41424 7.88264 6.76203
#
# Compressibility (1/GPa) = 0.03420976
#
# Stress axis : x y z
#
# Youngs Moduli (GPa) = 18.27478 132.02102 94.14825
#
# Poissons Ratio (x) = 0.69114 1.06403
# Poissons Ratio (y) = 0.09567 0.26517
# Poissons Ratio (z) = 0.20653 0.37184
#
# Static dielectric constant tensor:
#      x y z
#    x 3.295560 0.000000 0.000000 
#    y 0.000000 3.586660 0.000000 
#    z 0.000000 0.000000 3.801710 
# 
# 
# High freq. dielectric constant tensor:
#      x y z
#    x 1.711310 0.000000 0.000000 
#    y 0.000000 1.759130 0.000000 
#    z 0.000000 0.000000 1.756800 
# 
# From -- ./inp_files/11439.got.cif
#   From: 2010.03.12/outbox.cif.g09.slc.cpg/sg44_6_cif.got.tgz:11439.got - 2010.04.14 02:36:11.
