data_PCOD8187739
_publ_section_title
;
Structure prediction by ZEFSAII (Michael W. Deem and Ramdas Pophale) SiO2 
 PCOD8187739
Probable space group: F D D 2
;
_chemical_formula_sum "Si O2"
_cell_formula_units_Z 96
_cell_length_a 19.894819
_cell_length_b 23.343772
_cell_length_c 9.901433
_cell_angle_alpha 90.000000
_cell_angle_beta 90.000000
_cell_angle_gamma 90.000000
_cell_volume 4598.424689
_symmetry_space_group_name_H-M "F D D 2"
_symmetry_group_IT_number 43
_symmetry_cell_setting 'orthorhombic'
loop_
_space_group_symop_operation_xyz
x,y,z
-x,-y,z
1/4-x,1/4+y,1/4+z
1/4+x,1/4-y,1/4+z
x,1/2+y,1/2+z
-x,1/2-y,1/2+z
1/4-x,3/4+y,3/4+z
1/4+x,3/4-y,3/4+z
1/2+x,y,1/2+z
1/2-x,-y,1/2+z
3/4-x,1/4+y,3/4+z
3/4+x,1/4-y,3/4+z
1/2+x,1/2+y,z
1/2-x,1/2-y,z
3/4-x,3/4+y,1/4+z
3/4+x,3/4-y,1/4+z
loop_
_atom_site_type_symbol
_atom_site_label
_atom_site_fract_x
_atom_site_fract_y
_atom_site_fract_z
Si Si1 0.775367 0.336008 0.530170
Si Si2 0.169211 0.044755 0.436725
Si Si3 0.355913 0.228276 0.965583
Si Si4 0.474996 0.089035 0.590888
Si Si5 0.459908 0.210848 0.192499
Si Si6 0.851933 0.227131 0.911377
O O1 0.700052 0.311700 0.533392
O O2 0.827367 0.292787 0.458688
O O3 0.796578 0.347355 0.685120
O O4 0.777611 0.393173 0.442671
O O5 0.123279 0.046062 0.569175
O O6 0.212278 0.102845 0.423174
O O7 0.117573 0.038461 0.314539
O O8 0.218300 0.990889 0.444536
O O9 0.422274 0.228480 0.056318
O O10 0.553386 0.071964 0.600547
O O11 0.431613 0.039265 0.658837
O O12 0.419581 0.230031 0.324759
#
# Coordination Sequence:
#
# PCOD8187739 Si02
#       6
#    16  16  16  16  16  16
#     4  11  24  46  75  94 135 192 226 277 342 410
#     4  12  29  40  70 110 139 169 228 297 338 393
#     4  11  26  46  68 104 138 177 234 281 344 405
#     4  11  24  46  74  96 134 191 226 277 342 413
#     4  12  25  42  73 100 135 180 231 278 336 414
#     4  11  24  46  70  98 137 181 229 274 346 407
#
# _framework density 20.876712999999999
#
# number of rings (size 3 to 8) (size 9 to 14) (size 15 to 20)
#    0.000    0.667    5.000    2.000    9.333    4.000 
#    0.000    0.000    0.000    0.000    0.000    0.000 
#    0.000    0.000    0.000    0.000    0.000    0.000 
#
# Total GULP energy -297804.497131 kJ/mol
# GULP energy per Si atom -12408.520714 kJ/mol
# Density = 2.082920 g / cm^3
# Si number density = 20.876713 Si / 1000 Ang^3
#
#
#
# Elastic Constant Matrix: (Units=GPa)
#
#
# Indices 1 2 3 4 5 6 
#
# 1 65.6361 32.1693 18.0680 0.0000 0.0000 0.0000
# 2 32.1693 142.6319 20.8291 0.0000 0.0000 0.0000
# 3 18.0680 20.8291 121.3067 0.0000 0.0000 0.0000
# 4 0.0000 0.0000 0.0000 32.1318 0.0000 0.0000
# 5 0.0000 0.0000 0.0000 0.0000 36.5015 0.0000
# 6 0.0000 0.0000 0.0000 0.0000 0.0000 25.7512
#
#
#
# Elastic Compliance Matrix: (Units=1/GPa)
#
#
# Indices 1 2 3 4 5 6 
#
# 1 0.017584 -0.003676 -0.001988 0.000000 0.000000 0.000000
# 2 -0.003676 0.007960 -0.000819 0.000000 0.000000 0.000000
# 3 -0.001988 -0.000819 0.008680 0.000000 0.000000 0.000000
# 4 0.000000 0.000000 0.000000 0.031122 0.000000 0.000000
# 5 0.000000 0.000000 0.000000 0.000000 0.027396 0.000000
# 6 0.000000 0.000000 0.000000 0.000000 0.000000 0.038833
#
#
# Mechanical properties :
#
#
# Convention : Reuss Voigt Hill
#
# Bulk Modulus (GPa) = 47.03989 52.41196 49.72593
# Shear Modulus (GPa) = 32.97560 36.11079 34.54319
#
# Velocity S-wave (km/s) = 3.97865 4.16350 4.07212
# Velocity P-wave (km/s) = 6.60964 6.94787 6.78087
#
# Compressibility (1/GPa) = 0.02125855
#
# Stress axis : x y z
#
# Youngs Moduli (GPa) = 56.86906 125.63279 115.20297
#
# Poissons Ratio (x) = 0.46178 0.22902
# Poissons Ratio (y) = 0.20903 0.09438
# Poissons Ratio (z) = 0.11305 0.10293
#
# Static dielectric constant tensor:
#      x y z
#    x 3.835680 0.000000 0.000000 
#    y 0.000000 3.869950 0.000000 
#    z 0.000000 0.000000 3.790760 
# 
# 
# High freq. dielectric constant tensor:
#      x y z
#    x 1.824050 0.000000 0.000000 
#    y 0.000000 1.826800 0.000000 
#    z 0.000000 0.000000 1.817450 
# 
# From -- ./inp_files/3722.got.cif
#   From: 2010.06.25/outbox.cif.g09.slc.cpg/sg43_2_cif.got.tgz:3722.got - 2010.06.26 16:48:59.
