data_PCOD8187435
_publ_section_title
;
Structure prediction by ZEFSAII (Michael W. Deem and Ramdas Pophale) SiO2 
 PCOD8187435
Probable space group: F D D 2
;
_chemical_formula_sum "Si O2"
_cell_formula_units_Z 96
_cell_length_a 15.231826
_cell_length_b 12.475680
_cell_length_c 23.359495
_cell_angle_alpha 90.000000
_cell_angle_beta 90.000000
_cell_angle_gamma 90.000000
_cell_volume 4438.943796
_symmetry_space_group_name_H-M "F D D 2"
_symmetry_group_IT_number 43
_symmetry_cell_setting 'orthorhombic'
loop_
_space_group_symop_operation_xyz
x,y,z
-x,-y,z
1/4-x,1/4+y,1/4+z
1/4+x,1/4-y,1/4+z
x,1/2+y,1/2+z
-x,1/2-y,1/2+z
1/4-x,3/4+y,3/4+z
1/4+x,3/4-y,3/4+z
1/2+x,y,1/2+z
1/2-x,-y,1/2+z
3/4-x,1/4+y,3/4+z
3/4+x,1/4-y,3/4+z
1/2+x,1/2+y,z
1/2-x,1/2-y,z
3/4-x,3/4+y,1/4+z
3/4+x,3/4-y,1/4+z
loop_
_atom_site_type_symbol
_atom_site_label
_atom_site_fract_x
_atom_site_fract_y
_atom_site_fract_z
Si Si1 0.754327 0.634344 0.377260
Si Si2 0.000000 0.000000 0.306875
Si Si3 0.143989 0.642320 0.762119
Si Si4 0.074884 0.279988 0.837947
Si Si5 0.452474 0.608100 0.889946
Si Si6 0.490678 0.278108 0.722518
Si Si7 0.250000 0.250000 0.909975
O O1 0.750000 0.750000 0.408322
O O2 0.701658 0.648172 0.318620
O O3 0.854134 0.599597 0.365592
O O4 0.711936 0.545765 0.418737
O O5 0.076443 0.044046 0.266077
O O6 0.956452 0.095921 0.344465
O O7 0.207791 0.626855 0.708451
O O8 0.085590 0.748196 0.749725
O O9 0.165866 0.255234 0.868999
O O10 0.997256 0.212647 0.865526
O O11 0.082958 0.241984 0.771469
O O12 0.500000 0.500000 0.869702
O O13 0.499102 0.399470 0.702216
#
# Coordination Sequence:
#
# PCOD8187435 Si02
#       7
#    16   8  16  16  16  16   8
#     4  11  22  42  76 103 136 188 242 303 368 429
#     4  10  22  44  67 100 146 179 246 296 334 448
#     4  10  22  44  73 104 138 184 247 295 367 434
#     4  11  25  47  69 103 146 189 240 299 369 434
#     4  11  25  42  70 107 141 179 243 304 365 439
#     4  10  25  45  70 104 146 186 242 303 352 436
#     4  12  26  52  69 104 154 191 234 300 378 434
#
# _framework density 21.626766
#
# number of rings (size 3 to 8) (size 9 to 14) (size 15 to 20)
#    0.000    1.333    0.000    5.500   11.667    2.667 
#    9.000    0.833    0.000    0.000    0.000    0.000 
#    0.000    0.000    0.000    0.000    0.000    0.000 
#
# Total GULP energy -297513.348532 kJ/mol
# GULP energy per Si atom -12396.389522 kJ/mol
# Density = 2.157754 g / cm^3
# Si number density = 21.626766 Si / 1000 Ang^3
#
#
#
# Elastic Constant Matrix: (Units=GPa)
#
#
# Indices 1 2 3 4 5 6 
#
# 1 90.7359 35.9211 45.8511 0.0000 0.0000 0.0000
# 2 35.9211 172.6845 52.7376 0.0000 0.0000 0.0000
# 3 45.8511 52.7376 135.8033 0.0000 0.0000 0.0000
# 4 0.0000 0.0000 0.0000 30.9818 0.0000 0.0000
# 5 0.0000 0.0000 0.0000 0.0000 50.5264 0.0000
# 6 0.0000 0.0000 0.0000 0.0000 0.0000 32.9601
#
#
#
# Elastic Compliance Matrix: (Units=1/GPa)
#
#
# Indices 1 2 3 4 5 6 
#
# 1 0.013680 -0.001628 -0.003986 0.000000 0.000000 0.000000
# 2 -0.001628 0.006764 -0.002077 0.000000 0.000000 0.000000
# 3 -0.003986 -0.002077 0.009516 0.000000 0.000000 0.000000
# 4 0.000000 0.000000 0.000000 0.032277 0.000000 0.000000
# 5 0.000000 0.000000 0.000000 0.000000 0.019792 0.000000
# 6 0.000000 0.000000 0.000000 0.000000 0.000000 0.030340
#
#
# Mechanical properties :
#
#
# Convention : Reuss Voigt Hill
#
# Bulk Modulus (GPa) = 68.60228 74.24926 71.42577
# Shear Modulus (GPa) = 37.70437 40.54125 39.12281
#
# Velocity S-wave (km/s) = 4.17995 4.33435 4.25785
# Velocity P-wave (km/s) = 7.42198 7.71073 7.56774
#
# Compressibility (1/GPa) = 0.01457677
#
# Stress axis : x y z
#
# Youngs Moduli (GPa) = 73.09913 147.84369 105.08498
#
# Poissons Ratio (x) = 0.24072 0.41892
# Poissons Ratio (y) = 0.11902 0.21826
# Poissons Ratio (z) = 0.29141 0.30706
#
# Static dielectric constant tensor:
#      x y z
#    x 4.031500 0.000000 0.000000 
#    y 0.000000 4.132260 0.000000 
#    z 0.000000 0.000000 4.246870 
# 
# 
# High freq. dielectric constant tensor:
#      x y z
#    x 1.843960 0.000000 0.000000 
#    y 0.000000 1.861440 0.000000 
#    z 0.000000 0.000000 1.856370 
# 
# From -- ./inp_files/22083.got.cif
#   From: 2010.06.25/outbox.cif.g09.slc.cpg/sg43_12_cif.got.tgz:22083.got - 2010.06.26 16:48:59.
