data_PCOD8187901
_publ_section_title
;
Structure prediction by ZEFSAII (Michael W. Deem and Ramdas Pophale) SiO2 
 PCOD8187901
Probable space group: I M M 2
;
_chemical_formula_sum "Si O2"
_cell_formula_units_Z 56
_cell_length_a 8.828848
_cell_length_b 22.508304
_cell_length_c 17.718197
_cell_angle_alpha 90.000000
_cell_angle_beta 90.000000
_cell_angle_gamma 90.000000
_cell_volume 3521.002539
_symmetry_space_group_name_H-M "I M M 2"
_symmetry_group_IT_number 44
_symmetry_cell_setting 'orthorhombic'
loop_
_space_group_symop_operation_xyz
x,y,z
-x,-y,z
-x,y,z
x,-y,z
1/2+x,1/2+y,1/2+z
1/2-x,1/2-y,1/2+z
1/2-x,1/2+y,1/2+z
1/2+x,1/2-y,1/2+z
loop_
_atom_site_type_symbol
_atom_site_label
_atom_site_fract_x
_atom_site_fract_y
_atom_site_fract_z
Si Si1 0.177990 0.686060 0.940360
Si Si2 0.175550 0.308505 0.394111
Si Si3 0.822753 0.219306 0.753531
Si Si4 0.675567 0.718407 0.084282
Si Si5 0.678822 0.433622 0.667510
Si Si6 0.679880 0.344264 0.794909
Si Si7 0.173718 0.351680 0.550798
O O1 0.225672 0.752162 0.917940
O O2 0.256576 0.642210 0.879247
O O3 0.000000 0.676843 0.936633
O O4 0.235086 0.675374 0.026240
O O5 0.243539 0.327305 0.312281
O O6 0.194290 0.358038 0.459503
O O7 0.000000 0.290120 0.386141
O O8 0.794102 0.195302 0.668974
O O9 0.748259 0.283757 0.761932
O O10 0.000000 0.224706 0.770870
O O11 0.500000 0.715717 0.061834
O O12 0.730925 0.786730 0.077346
O O13 0.500000 0.436207 0.666385
O O14 0.747426 0.500000 0.671488
O O15 0.735556 0.397232 0.740472
O O16 0.729960 0.402675 0.590087
O O17 0.500000 0.339138 0.797221
O O18 0.000000 0.360287 0.574534
#
# Coordination Sequence:
#
# PCOD8187901 Si02
#       7
#     8   8   8   8   8   8   8
#     4  10  18  26  40  60  81 108 144 175 206 253
#     4   9  17  28  40  58  84 111 140 172 210 254
#     4  10  17  26  42  63  86 112 143 174 205 250
#     4   9  17  28  41  60  88 114 140 173 209 251
#     4  10  21  33  45  63  84 110 148 188 220 253
#     4  10  18  29  43  57  81 113 142 176 219 255
#     4   9  17  30  44  58  81 113 144 177 215 251
#
# _framework density 15.904560999999999
#
# number of rings (size 3 to 8) (size 9 to 14) (size 15 to 20)
#    0.000    2.429    1.429    5.143    0.000    4.857 
#    0.000    0.000    0.000    0.000    0.000    0.000 
#    0.000    1.143    0.000   10.286    0.000    6.000 
#
# Total GULP energy -346996.903893 kJ/mol
# GULP energy per Si atom -12392.746568 kJ/mol
# Density = 1.586836 g / cm^3
# Si number density = 15.904561 Si / 1000 Ang^3
#
#
#
# Elastic Constant Matrix: (Units=GPa)
#
#
# Indices 1 2 3 4 5 6 
#
# 1 62.4851 18.3590 48.2215 0.0000 0.0000 0.0000
# 2 18.3590 47.6720 40.9808 0.0000 0.0000 0.0000
# 3 48.2215 40.9808 145.9613 0.0000 0.0000 0.0000
# 4 0.0000 0.0000 0.0000 15.1449 0.0000 0.0000
# 5 0.0000 0.0000 0.0000 0.0000 31.1239 0.0000
# 6 0.0000 0.0000 0.0000 0.0000 0.0000 12.2020
#
#
#
# Elastic Compliance Matrix: (Units=1/GPa)
#
#
# Indices 1 2 3 4 5 6 
#
# 1 0.021781 -0.002903 -0.006381 0.000000 0.000000 0.000000
# 2 -0.002903 0.028037 -0.006913 0.000000 0.000000 0.000000
# 3 -0.006381 -0.006913 0.010900 0.000000 0.000000 0.000000
# 4 0.000000 0.000000 0.000000 0.066029 0.000000 0.000000
# 5 0.000000 0.000000 0.000000 0.000000 0.032130 0.000000
# 6 0.000000 0.000000 0.000000 0.000000 0.000000 0.081953
#
#
# Mechanical properties :
#
#
# Convention : Reuss Voigt Hill
#
# Bulk Modulus (GPa) = 35.30432 52.36012 43.83222
# Shear Modulus (GPa) = 17.68880 21.59798 19.64339
#
# Velocity S-wave (km/s) = 3.33856 3.68907 3.51818
# Velocity P-wave (km/s) = 6.09156 7.15112 6.64250
#
# Compressibility (1/GPa) = 0.02832514
#
# Stress axis : x y z
#
# Youngs Moduli (GPa) = 45.91161 35.66696 91.74280
#
# Poissons Ratio (x) = 0.10354 0.58539
# Poissons Ratio (y) = 0.13328 0.63420
# Poissons Ratio (z) = 0.29295 0.24656
#
# Static dielectric constant tensor:
#      x y z
#    x 3.045770 0.000000 0.000000 
#    y 0.000000 2.606820 0.000000 
#    z 0.000000 0.000000 3.764190 
# 
# 
# High freq. dielectric constant tensor:
#      x y z
#    x 1.620190 0.000000 0.000000 
#    y 0.000000 1.529210 0.000000 
#    z 0.000000 0.000000 1.633990 
# 
# From -- ./inp_files/20818.got.cif
#   From: 2010.03.12/outbox.cif.g09.slc.cpg/sg44_11_cif.got.tgz:20818.got - 2010.04.14 02:36:11.
