data_PCOD8187903
_publ_section_title
;
Structure prediction by ZEFSAII (Michael W. Deem and Ramdas Pophale) SiO2 
 PCOD8187903
Probable space group: I M M 2
;
_chemical_formula_sum "Si O2"
_cell_formula_units_Z 64
_cell_length_a 8.596831
_cell_length_b 26.551245
_cell_length_c 18.349558
_cell_angle_alpha 90.000000
_cell_angle_beta 90.000000
_cell_angle_gamma 90.000000
_cell_volume 4188.407099
_symmetry_space_group_name_H-M "I M M 2"
_symmetry_group_IT_number 44
_symmetry_cell_setting 'orthorhombic'
loop_
_space_group_symop_operation_xyz
x,y,z
-x,-y,z
-x,y,z
x,-y,z
1/2+x,1/2+y,1/2+z
1/2-x,1/2-y,1/2+z
1/2-x,1/2+y,1/2+z
1/2+x,1/2-y,1/2+z
loop_
_atom_site_type_symbol
_atom_site_label
_atom_site_fract_x
_atom_site_fract_y
_atom_site_fract_z
Si Si1 0.681307 0.648917 0.154480
Si Si2 0.316638 0.149863 0.325178
Si Si3 0.180398 0.557732 0.078456
Si Si4 0.320869 0.741263 0.912825
Si Si5 0.177824 0.201671 0.794298
Si Si6 0.177855 0.739496 0.066156
Si Si7 0.821032 0.790383 0.209488
Si Si8 0.315080 0.055431 0.414280
O O1 0.500000 0.660694 0.142755
O O2 0.720724 0.591987 0.133201
O O3 0.724539 0.655436 0.240709
O O4 0.778881 0.686986 0.104353
O O5 0.500000 0.147003 0.312861
O O6 0.278607 0.194915 0.381279
O O7 0.230319 0.156678 0.246503
O O8 0.251627 0.097802 0.359314
O O9 0.208228 0.500000 0.101075
O O10 0.000000 0.572179 0.085223
O O11 0.241867 0.567267 0.996335
O O12 0.500000 0.727763 0.903599
O O13 0.280996 0.792639 0.867622
O O14 0.284336 0.750662 0.997040
O O15 0.203067 0.251184 0.745664
O O16 0.000000 0.197752 0.819304
O O17 0.200701 0.786581 0.122241
O O18 0.000000 0.735565 0.040411
O O19 0.000000 0.777981 0.229961
O O20 0.500000 0.055338 0.415576
O O21 0.254475 0.000000 0.389843
#
# Coordination Sequence:
#
# PCOD8187903 Si02
#       8
#     8   8   8   8   8   8   8   8
#     4  10  19  29  43  62  83 109 140 175 209 242
#     4  10  17  26  43  61  80 109 139 168 203 242
#     4   9  17  29  44  60  81 112 146 176 206 243
#     4  11  20  28  41  61  84 107 135 172 206 241
#     4   9  17  29  42  57  80 108 137 166 201 246
#     4  10  19  30  43  58  80 111 141 168 202 246
#     4   9  17  28  41  57  79 106 135 168 202 238
#     4   8  15  27  41  58  79 105 139 172 199 231
#
# _framework density 15.280272999999999
#
# number of rings (size 3 to 8) (size 9 to 14) (size 15 to 20)
#    0.000    2.500    0.000    6.000    0.000    4.250 
#    0.000    0.625    0.000    3.000    0.000    0.000 
#    0.000    1.000    0.000    7.500    0.000    3.875 
#
# Total GULP energy -396570.090914 kJ/mol
# GULP energy per Si atom -12392.815341 kJ/mol
# Density = 1.524549 g / cm^3
# Si number density = 15.280273 Si / 1000 Ang^3
#
#
#
# Elastic Constant Matrix: (Units=GPa)
#
#
# Indices 1 2 3 4 5 6 
#
# 1 42.1569 17.0810 23.0068 0.0000 0.0000 0.0000
# 2 17.0810 78.0216 45.4431 0.0000 0.0000 0.0000
# 3 23.0068 45.4431 89.2886 0.0003 0.0000 0.0000
# 4 0.0000 0.0000 0.0003 28.3464 0.0000 0.0000
# 5 0.0000 0.0000 0.0000 0.0000 23.9581 0.0000
# 6 0.0000 0.0000 0.0000 0.0000 0.0000 17.2890
#
#
#
# Elastic Compliance Matrix: (Units=1/GPa)
#
#
# Indices 1 2 3 4 5 6 
#
# 1 0.028009 -0.002741 -0.005822 0.000000 0.000000 0.000000
# 2 -0.002741 0.018485 -0.008702 0.000000 0.000000 0.000000
# 3 -0.005822 -0.008702 0.017129 0.000000 0.000000 0.000000
# 4 0.000000 0.000000 0.000000 0.035278 0.000000 0.000000
# 5 0.000000 0.000000 0.000000 0.000000 0.041739 0.000000
# 6 0.000000 0.000000 0.000000 0.000000 0.000000 0.057840
#
#
# Mechanical properties :
#
#
# Convention : Reuss Voigt Hill
#
# Bulk Modulus (GPa) = 34.37223 42.28100 38.32661
# Shear Modulus (GPa) = 20.60094 22.18112 21.39103
#
# Velocity S-wave (km/s) = 3.67577 3.81414 3.74560
# Velocity P-wave (km/s) = 6.36855 6.86493 6.62140
#
# Compressibility (1/GPa) = 0.02909326
#
# Stress axis : x y z
#
# Youngs Moduli (GPa) = 35.70309 54.09706 58.38218
#
# Poissons Ratio (x) = 0.14827 0.33990
# Poissons Ratio (y) = 0.09786 0.50803
# Poissons Ratio (z) = 0.20786 0.47074
#
# Static dielectric constant tensor:
#      x y z
#    x 2.870700 0.000000 0.000000 
#    y 0.000000 2.936430 0.000000 
#    z 0.000000 0.000000 3.155200 
# 
# 
# High freq. dielectric constant tensor:
#      x y z
#    x 1.590090 0.000000 0.000000 
#    y 0.000000 1.547740 0.000000 
#    z 0.000000 0.000000 1.576290 
# 
# From -- ./inp_files/20931.got.cif
#   From: 2010.03.12/outbox.cif.g09.slc.cpg/sg44_11_cif.got.tgz:20931.got - 2010.04.14 02:36:11.
