data_PCOD8187192
_publ_section_title
;
Structure prediction by ZEFSAII (Michael W. Deem and Ramdas Pophale) SiO2 
 PCOD8187192
Probable space group: F D D 2
;
_chemical_formula_sum "Si O2"
_cell_formula_units_Z 96
_cell_length_a 8.479089
_cell_length_b 29.716735
_cell_length_c 16.655600
_cell_angle_alpha 90.000000
_cell_angle_beta 90.000000
_cell_angle_gamma 90.000000
_cell_volume 4196.725537
_symmetry_space_group_name_H-M "F D D 2"
_symmetry_group_IT_number 43
_symmetry_cell_setting 'orthorhombic'
loop_
_space_group_symop_operation_xyz
x,y,z
-x,-y,z
1/4-x,1/4+y,1/4+z
1/4+x,1/4-y,1/4+z
x,1/2+y,1/2+z
-x,1/2-y,1/2+z
1/4-x,3/4+y,3/4+z
1/4+x,3/4-y,3/4+z
1/2+x,y,1/2+z
1/2-x,-y,1/2+z
3/4-x,1/4+y,3/4+z
3/4+x,1/4-y,3/4+z
1/2+x,1/2+y,z
1/2-x,1/2-y,z
3/4-x,3/4+y,1/4+z
3/4+x,3/4-y,1/4+z
loop_
_atom_site_type_symbol
_atom_site_label
_atom_site_fract_x
_atom_site_fract_y
_atom_site_fract_z
Si Si1 0.232834 0.073651 0.953510
Si Si2 0.573745 0.543342 0.652145
Si Si3 0.540474 0.143858 0.371523
Si Si4 0.411786 0.766922 0.776685
Si Si5 0.722027 0.876083 0.685438
Si Si6 0.591834 0.134032 0.759699
O O1 0.124610 0.095242 0.883246
O O2 0.416687 0.082392 0.934500
O O3 0.206002 0.020233 0.959373
O O4 0.192088 0.100835 0.038197
O O5 0.500000 0.500000 0.699753
O O6 0.423680 0.568111 0.613618
O O7 0.691821 0.523172 0.585638
O O8 0.673454 0.579075 0.704004
O O9 0.427872 0.150750 0.449570
O O10 0.250000 0.750000 0.820870
O O11 0.368966 0.814373 0.733667
O O12 0.597544 0.872566 0.757086
O O13 0.619033 0.877054 0.603404
#
# Coordination Sequence:
#
# PCOD8187192 Si02
#       6
#    16  16  16  16  16  16
#     4  11  21  40  67  92 131 167 223 263 331 388
#     4  10  21  37  64  95 121 169 227 266 312 397
#     4  11  22  38  66  97 129 171 212 274 327 391
#     4  11  22  39  67  99 124 177 231 273 311 421
#     4  10  23  39  67  94 127 173 217 270 331 398
#     4  11  23  41  66  95 131 167 223 269 333 391
#
# _framework density 22.874977000000001
#
# number of rings (size 3 to 8) (size 9 to 14) (size 15 to 20)
#    0.000    1.333    3.333    4.000    2.333    0.000 
#    0.000    0.000   36.667    0.000    0.000    0.000 
#    0.000    0.000    0.000    0.000    0.000    0.000 
#
# Total GULP energy -297333.267703 kJ/mol
# GULP energy per Si atom -12388.886154 kJ/mol
# Density = 2.282291 g / cm^3
# Si number density = 22.874977 Si / 1000 Ang^3
#
#
#
# Elastic Constant Matrix: (Units=GPa)
#
#
# Indices 1 2 3 4 5 6 
#
# 1 57.5862 21.5262 7.6428 0.0000 0.0000 0.0000
# 2 21.5262 120.2244 25.2828 0.0000 0.0000 0.0000
# 3 7.6428 25.2828 56.9429 0.0000 0.0000 0.0000
# 4 0.0000 0.0000 0.0000 22.0769 0.0000 0.0000
# 5 0.0000 0.0000 0.0000 0.0000 40.7449 0.0000
# 6 0.0000 0.0000 0.0000 0.0000 0.0000 40.3650
#
#
#
# Elastic Compliance Matrix: (Units=1/GPa)
#
#
# Indices 1 2 3 4 5 6 
#
# 1 0.018676 -0.003107 -0.001127 0.000000 0.000000 0.000000
# 2 -0.003107 0.009691 -0.003886 0.000000 0.000000 0.000000
# 3 -0.001127 -0.003886 0.019438 0.000000 0.000000 0.000000
# 4 0.000000 0.000000 0.000000 0.045296 0.000000 0.000000
# 5 0.000000 0.000000 0.000000 0.000000 0.024543 0.000000
# 6 0.000000 0.000000 0.000000 0.000000 0.000000 0.024774
#
#
# Mechanical properties :
#
#
# Convention : Reuss Voigt Hill
#
# Bulk Modulus (GPa) = 31.68019 38.18413 34.93216
# Shear Modulus (GPa) = 29.55418 32.65747 31.10583
#
# Velocity S-wave (km/s) = 3.59832 3.78253 3.69157
# Velocity P-wave (km/s) = 5.58061 5.98376 5.78570
#
# Compressibility (1/GPa) = 0.03156547
#
# Stress axis : x y z
#
# Youngs Moduli (GPa) = 53.54388 103.18549 51.44526
#
# Poissons Ratio (x) = 0.32059 0.05799
# Poissons Ratio (y) = 0.16636 0.19991
# Poissons Ratio (z) = 0.06036 0.40097
#
# Static dielectric constant tensor:
#      x y z
#    x 4.440790 0.000000 0.000000 
#    y 0.000000 4.376790 0.000000 
#    z 0.000000 0.000000 3.661020 
# 
# 
# High freq. dielectric constant tensor:
#      x y z
#    x 1.938550 0.000000 0.000000 
#    y 0.000000 1.893320 0.000000 
#    z 0.000000 0.000000 1.858130 
# 
# From -- ./inp_files/16479.got.cif
#   From: 2010.06.25/outbox.cif.g09.slc.cpg/sg43_9_cif.got.tgz:16479.got - 2010.06.26 16:48:59.
