data_PCOD8187639
_publ_section_title
;
Structure prediction by ZEFSAII (Michael W. Deem and Ramdas Pophale) SiO2 
 PCOD8187639
Probable space group: F D D 2
;
_chemical_formula_sum "Si O2"
_cell_formula_units_Z 88
_cell_length_a 29.659315
_cell_length_b 9.686133
_cell_length_c 12.647417
_cell_angle_alpha 90.000000
_cell_angle_beta 90.000000
_cell_angle_gamma 90.000000
_cell_volume 3633.401428
_symmetry_space_group_name_H-M "F D D 2"
_symmetry_group_IT_number 43
_symmetry_cell_setting 'orthorhombic'
loop_
_space_group_symop_operation_xyz
x,y,z
-x,-y,z
1/4-x,1/4+y,1/4+z
1/4+x,1/4-y,1/4+z
x,1/2+y,1/2+z
-x,1/2-y,1/2+z
1/4-x,3/4+y,3/4+z
1/4+x,3/4-y,3/4+z
1/2+x,y,1/2+z
1/2-x,-y,1/2+z
3/4-x,1/4+y,3/4+z
3/4+x,1/4-y,3/4+z
1/2+x,1/2+y,z
1/2-x,1/2-y,z
3/4-x,3/4+y,1/4+z
3/4+x,3/4-y,1/4+z
loop_
_atom_site_type_symbol
_atom_site_label
_atom_site_fract_x
_atom_site_fract_y
_atom_site_fract_z
Si Si1 0.926233 0.443835 0.881570
Si Si2 0.574914 0.373196 0.569888
Si Si3 0.170602 0.112512 0.441687
Si Si4 0.334899 0.191699 0.011596
Si Si5 0.000000 0.000000 0.880276
Si Si6 0.736959 0.006560 0.767722
O O1 0.879109 0.361577 0.892498
O O2 0.934799 0.501447 0.761466
O O3 0.965679 0.351214 0.933376
O O4 0.923570 0.583821 0.947730
O O5 0.618575 0.270614 0.575465
O O6 0.584487 0.507906 0.640380
O O7 0.525590 0.310017 0.593434
O O8 0.202815 0.089780 0.341702
O O9 0.172409 0.973295 0.512374
O O10 0.294649 0.279512 0.062688
O O11 0.012894 0.132353 0.948190
#
# Coordination Sequence:
#
# PCOD8187639 Si02
#       6
#    16  16  16  16   8  16
#     4  11  21  42  74 107 144 195 252 308 378 453
#     4  11  22  42  75 104 145 194 247 307 384 453
#     4  11  21  43  74 107 142 196 252 310 376 450
#     4  11  22  45  72 103 141 195 245 310 378 452
#     4  12  28  48  66 102 146 192 254 312 374 462
#     4  12  25  47  68 108 152 193 256 314 378 453
#
# _framework density 24.219730999999999
#
# number of rings (size 3 to 8) (size 9 to 14) (size 15 to 20)
#    0.000    0.727    3.636    7.091    0.000    0.000 
#   16.364    0.000    4.000    0.000    0.000    0.000 
#    0.000    0.000    0.000    0.000    0.000    0.000 
#
# Total GULP energy -272612.152731 kJ/mol
# GULP energy per Si atom -12391.461488 kJ/mol
# Density = 2.416461 g / cm^3
# Si number density = 24.219731 Si / 1000 Ang^3
#
#
#
# Elastic Constant Matrix: (Units=GPa)
#
#
# Indices 1 2 3 4 5 6 
#
# 1 171.9701 43.7959 39.3927 0.0000 0.0000 0.0000
# 2 43.7959 78.9698 47.9702 0.0000 0.0000 0.0000
# 3 39.3927 47.9702 100.9726 0.0000 0.0000 0.0000
# 4 0.0000 0.0000 0.0000 49.6996 0.0000 0.0000
# 5 0.0000 0.0000 0.0000 0.0000 28.7641 0.0000
# 6 0.0000 0.0000 0.0000 0.0000 0.0000 28.6109
#
#
#
# Elastic Compliance Matrix: (Units=1/GPa)
#
#
# Indices 1 2 3 4 5 6 
#
# 1 0.006877 -0.003070 -0.001224 0.000000 0.000000 0.000000
# 2 -0.003070 0.019171 -0.007910 0.000000 0.000000 0.000000
# 3 -0.001224 -0.007910 0.014139 0.000000 0.000000 0.000000
# 4 0.000000 0.000000 0.000000 0.020121 0.000000 0.000000
# 5 0.000000 0.000000 0.000000 0.000000 0.034766 0.000000
# 6 0.000000 0.000000 0.000000 0.000000 0.000000 0.034952
#
#
# Mechanical properties :
#
#
# Convention : Reuss Voigt Hill
#
# Bulk Modulus (GPa) = 63.37909 68.24780 65.81344
# Shear Modulus (GPa) = 31.30992 36.13183 33.72087
#
# Velocity S-wave (km/s) = 3.59938 3.86662 3.73539
# Velocity P-wave (km/s) = 6.59539 6.94075 6.77028
#
# Compressibility (1/GPa) = 0.01577808
#
# Stress axis : x y z
#
# Youngs Moduli (GPa) = 145.40443 52.16302 70.72559
#
# Poissons Ratio (x) = 0.16016 0.08660
# Poissons Ratio (y) = 0.44644 0.55942
# Poissons Ratio (z) = 0.17804 0.41260
#
# Static dielectric constant tensor:
#      x y z
#    x 4.763540 0.000000 0.000000 
#    y 0.000000 3.924890 0.000000 
#    z 0.000000 0.000000 4.139880 
# 
# 
# High freq. dielectric constant tensor:
#      x y z
#    x 1.980260 0.000000 0.000000 
#    y 0.000000 1.933300 0.000000 
#    z 0.000000 0.000000 1.954080 
# 
# From -- ./inp_files/8222.got.cif
#   From: 2010.06.25/outbox.cif.g09.slc.cpg/sg43_5_cif.got.tgz:8222.got - 2010.06.26 16:48:59.
