data_PCOD8187866
_publ_section_title
;
Structure prediction by ZEFSAII (Michael W. Deem and Ramdas Pophale) SiO2 
 PCOD8187866
Probable space group: I M M 2
;
_chemical_formula_sum "Si O2"
_cell_formula_units_Z 28
_cell_length_a 12.642474
_cell_length_b 5.232710
_cell_length_c 27.399303
_cell_angle_alpha 90.000000
_cell_angle_beta 90.000000
_cell_angle_gamma 90.000000
_cell_volume 1812.584454
_symmetry_space_group_name_H-M "I M M 2"
_symmetry_group_IT_number 44
_symmetry_cell_setting 'orthorhombic'
loop_
_space_group_symop_operation_xyz
x,y,z
-x,-y,z
-x,y,z
x,-y,z
1/2+x,1/2+y,1/2+z
1/2-x,1/2-y,1/2+z
1/2-x,1/2+y,1/2+z
1/2+x,1/2-y,1/2+z
loop_
_atom_site_type_symbol
_atom_site_label
_atom_site_fract_x
_atom_site_fract_y
_atom_site_fract_z
Si Si1 0.614780 0.500000 0.157990
Si Si2 0.500000 0.000000 0.302434
Si Si3 0.667456 0.000000 0.617702
Si Si4 0.837724 0.500000 0.718483
Si Si5 0.616751 0.500000 0.678231
Si Si6 0.500000 0.500000 0.367555
Si Si7 0.117537 0.000000 0.961068
Si Si8 0.121434 0.500000 0.005198
O O1 0.500000 0.500000 0.132081
O O2 0.704677 0.500000 0.116755
O O3 0.622979 0.251362 0.191398
O O4 0.608816 0.000000 0.271511
O O5 0.500000 0.249749 0.335160
O O6 0.625354 0.749232 0.644568
O O7 0.627012 0.000000 0.563098
O O8 0.708510 0.500000 0.719829
O O9 0.500000 0.500000 0.703080
O O10 0.605353 0.500000 0.402027
O O11 0.177970 0.748908 0.981426
O O12 0.000000 0.000000 0.985491
O O13 0.000000 0.500000 0.987367
#
# Coordination Sequence:
#
# PCOD8187866 Si02
#       8
#     4   2   4   4   4   2   4   4
#     4  10  17  32  43  60  95 119 155 188 226 250
#     4  12  18  30  48  66  90 110 164 182 220 288
#     4  10  20  26  45  68  83 125 162 184 208 263
#     4  10  20  29  47  66  84 126 153 186 227 261
#     4  10  19  32  42  63  97 119 154 188 223 252
#     4  10  20  30  44  66  88 116 138 192 236 278
#     4   8  17  28  39  57  83 116 127 168 235 264
#     4  10  15  26  41  57  86 112 145 167 207 274
#
# _framework density 15.447554999999999
#
# number of rings (size 3 to 8) (size 9 to 14) (size 15 to 20)
#    0.429    1.714    1.429    3.857    0.000    1.143 
#    0.000    0.000    0.000    0.000    0.000    0.000 
#    0.000    6.857    0.000    0.000    0.000    0.000 
#
# Total GULP energy -173465.656430 kJ/mol
# GULP energy per Si atom -12390.404031 kJ/mol
# Density = 1.541240 g / cm^3
# Si number density = 15.447555 Si / 1000 Ang^3
#
#
#
# Elastic Constant Matrix: (Units=GPa)
#
#
# Indices 1 2 3 4 5 6 
#
# 1 100.8667 19.6604 21.9123 0.0000 0.0000 0.0000
# 2 19.6604 154.5790 43.4166 0.0000 0.0000 0.0000
# 3 21.9123 43.4166 78.4191 0.0000 0.0000 0.0000
# 4 0.0000 0.0000 0.0000 33.3059 0.0000 0.0000
# 5 0.0000 0.0000 0.0000 0.0000 11.2148 0.0000
# 6 0.0000 0.0000 0.0000 0.0000 0.0000 14.2459
#
#
#
# Elastic Compliance Matrix: (Units=1/GPa)
#
#
# Indices 1 2 3 4 5 6 
#
# 1 0.010603 -0.000612 -0.002624 0.000000 0.000000 0.000000
# 2 -0.000612 0.007696 -0.004090 0.000000 0.000000 0.000000
# 3 -0.002624 -0.004090 0.015750 0.000000 0.000000 0.000000
# 4 0.000000 0.000000 0.000000 0.030025 0.000000 0.000000
# 5 0.000000 0.000000 0.000000 0.000000 0.089168 0.000000
# 6 0.000000 0.000000 0.000000 0.000000 0.000000 0.070196
#
#
# Mechanical properties :
#
#
# Convention : Reuss Voigt Hill
#
# Bulk Modulus (GPa) = 51.55331 55.98259 53.76795
# Shear Modulus (GPa) = 20.44542 28.34503 24.39522
#
# Velocity S-wave (km/s) = 3.64199 4.28824 3.97826
# Velocity P-wave (km/s) = 7.15060 7.79986 7.48227
#
# Compressibility (1/GPa) = 0.01939740
#
# Stress axis : x y z
#
# Youngs Moduli (GPa) = 94.30961 129.94327 63.49366
#
# Poissons Ratio (x) = 0.07946 0.16663
# Poissons Ratio (y) = 0.05767 0.25968
# Poissons Ratio (z) = 0.24750 0.53144
#
# Static dielectric constant tensor:
#      x y z
#    x 2.981870 0.000000 0.000000 
#    y 0.000000 3.385520 0.000000 
#    z 0.000000 0.000000 2.668460 
# 
# 
# High freq. dielectric constant tensor:
#      x y z
#    x 1.556400 0.000000 0.000000 
#    y 0.000000 1.631150 0.000000 
#    z 0.000000 0.000000 1.557770 
# 
# From -- ./inp_files/25267.got.cif
#   From: 2010.03.12/outbox.cif.g09.slc.cpg/sg44_13_cif.got.tgz:25267.got - 2010.04.14 02:36:11.
