data_PCOD8187525
_publ_section_title
;
Structure prediction by ZEFSAII (Michael W. Deem and Ramdas Pophale) SiO2 
 PCOD8187525
Probable space group: F D D 2
;
_chemical_formula_sum "Si O2"
_cell_formula_units_Z 120
_cell_length_a 18.391434
_cell_length_b 10.381068
_cell_length_c 25.300375
_cell_angle_alpha 90.000000
_cell_angle_beta 90.000000
_cell_angle_gamma 90.000000
_cell_volume 4830.416588
_symmetry_space_group_name_H-M "F D D 2"
_symmetry_group_IT_number 43
_symmetry_cell_setting 'orthorhombic'
loop_
_space_group_symop_operation_xyz
x,y,z
-x,-y,z
1/4-x,1/4+y,1/4+z
1/4+x,1/4-y,1/4+z
x,1/2+y,1/2+z
-x,1/2-y,1/2+z
1/4-x,3/4+y,3/4+z
1/4+x,3/4-y,3/4+z
1/2+x,y,1/2+z
1/2-x,-y,1/2+z
3/4-x,1/4+y,3/4+z
3/4+x,1/4-y,3/4+z
1/2+x,1/2+y,z
1/2-x,1/2-y,z
3/4-x,3/4+y,1/4+z
3/4+x,3/4-y,1/4+z
loop_
_atom_site_type_symbol
_atom_site_label
_atom_site_fract_x
_atom_site_fract_y
_atom_site_fract_z
Si Si1 0.102660 0.279727 0.926060
Si Si2 0.047287 0.628846 0.923608
Si Si3 0.250000 0.750000 0.705730
Si Si4 0.730524 0.887242 0.308743
Si Si5 0.809115 0.352635 0.991050
Si Si6 0.124398 0.739678 0.092808
Si Si7 0.302923 0.140331 0.012234
Si Si8 0.392974 0.967247 0.370643
O O1 0.136949 0.395245 0.891942
O O2 0.141622 0.150505 0.904098
O O3 0.014664 0.260477 0.920841
O O4 0.119702 0.318383 0.986795
O O5 0.086159 0.616826 0.866299
O O6 0.000000 0.500000 0.938663
O O7 0.111710 0.660181 0.964484
O O8 0.281505 0.636610 0.744994
O O9 0.313293 0.798935 0.665458
O O10 0.750000 0.750000 0.335357
O O11 0.797540 0.983128 0.315728
O O12 0.662154 0.940106 0.340615
O O13 0.750000 0.250000 0.967119
O O14 0.820042 0.321385 0.052079
O O15 0.778400 0.499123 0.990752
O O16 0.250000 0.250000 0.989668
O O17 0.307002 0.148580 0.075761
#
# Coordination Sequence:
#
# PCOD8187525 Si02
#       8
#    16  16   8  16  16  16  16  16
#     4  11  25  47  80 113 154 210 281 335 417 501
#     4  10  23  47  76 113 160 214 273 341 424 499
#     4  10  26  56  76 118 158 222 270 346 428 510
#     4  10  28  51  75 122 161 207 284 344 418 510
#     4  12  26  47  81 120 160 216 283 362 421 499
#     4  11  24  47  75 115 154 206 269 344 408 498
#     4  12  27  48  75 121 160 213 284 338 417 526
#     4  12  25  49  83 107 161 224 265 346 430 487
#
# _framework density 24.842578
#
# number of rings (size 3 to 8) (size 9 to 14) (size 15 to 20)
#    0.400    0.533    4.667    2.000    5.600    2.667 
#    2.400    0.000    0.000    0.000    0.000    0.000 
#    0.000    0.000    0.000    0.000    0.000    0.000 
#
# Total GULP energy -371645.739128 kJ/mol
# GULP energy per Si atom -12388.191304 kJ/mol
# Density = 2.478604 g / cm^3
# Si number density = 24.842578 Si / 1000 Ang^3
#
#
#
# Elastic Constant Matrix: (Units=GPa)
#
#
# Indices 1 2 3 4 5 6 
#
# 1 132.9277 58.0403 62.6093 0.0000 0.0000 0.0000
# 2 58.0403 118.6205 45.1006 0.0000 0.0000 0.0000
# 3 62.6093 45.1006 158.4316 0.0000 0.0000 0.0000
# 4 0.0000 0.0000 0.0000 32.9487 0.0000 0.0000
# 5 0.0000 0.0000 0.0000 0.0000 43.5285 0.0000
# 6 0.0000 0.0000 0.0000 0.0000 0.0000 45.6937
#
#
#
# Elastic Compliance Matrix: (Units=1/GPa)
#
#
# Indices 1 2 3 4 5 6 
#
# 1 0.010765 -0.004093 -0.003089 0.000000 0.000000 0.000000
# 2 -0.004093 0.011009 -0.001517 0.000000 0.000000 0.000000
# 3 -0.003089 -0.001517 0.007964 0.000000 0.000000 0.000000
# 4 0.000000 0.000000 0.000000 0.030350 0.000000 0.000000
# 5 0.000000 0.000000 0.000000 0.000000 0.022973 0.000000
# 6 0.000000 0.000000 0.000000 0.000000 0.000000 0.021885
#
#
# Mechanical properties :
#
#
# Convention : Reuss Voigt Hill
#
# Bulk Modulus (GPa) = 81.02525 82.38669 81.70597
# Shear Modulus (GPa) = 39.53887 40.71614 40.12751
#
# Velocity S-wave (km/s) = 3.99379 4.05281 4.02340
# Velocity P-wave (km/s) = 7.34530 7.42535 7.38543
#
# Compressibility (1/GPa) = 0.01234183
#
# Stress axis : x y z
#
# Youngs Moduli (GPa) = 92.89530 90.83121 125.55971
#
# Poissons Ratio (x) = 0.37174 0.38785
# Poissons Ratio (y) = 0.38019 0.19044
# Poissons Ratio (z) = 0.28695 0.13776
#
# Static dielectric constant tensor:
#      x y z
#    x 4.275380 0.000000 0.000000 
#    y 0.000000 4.906940 0.000000 
#    z 0.000000 0.000000 4.513170 
# 
# 
# High freq. dielectric constant tensor:
#      x y z
#    x 1.972460 0.000000 0.000000 
#    y 0.000000 1.994950 0.000000 
#    z 0.000000 0.000000 2.002410 
# 
# From -- ./inp_files/26073.got.cif
#   From: 2010.06.25/outbox.cif.g09.slc.cpg/sg43_14_cif.got.tgz:26073.got - 2010.06.26 16:48:59.
