data_PCOD8187717
_publ_section_title
;
Structure prediction by ZEFSAII (Michael W. Deem and Ramdas Pophale) SiO2 
 PCOD8187717
Probable space group: F D D 2
;
_chemical_formula_sum "Si O2"
_cell_formula_units_Z 120
_cell_length_a 16.181643
_cell_length_b 20.292815
_cell_length_c 17.102399
_cell_angle_alpha 90.000000
_cell_angle_beta 90.000000
_cell_angle_gamma 90.000000
_cell_volume 5615.933364
_symmetry_space_group_name_H-M "F D D 2"
_symmetry_group_IT_number 43
_symmetry_cell_setting 'orthorhombic'
loop_
_space_group_symop_operation_xyz
x,y,z
-x,-y,z
1/4-x,1/4+y,1/4+z
1/4+x,1/4-y,1/4+z
x,1/2+y,1/2+z
-x,1/2-y,1/2+z
1/4-x,3/4+y,3/4+z
1/4+x,3/4-y,3/4+z
1/2+x,y,1/2+z
1/2-x,-y,1/2+z
3/4-x,1/4+y,3/4+z
3/4+x,1/4-y,3/4+z
1/2+x,1/2+y,z
1/2-x,1/2-y,z
3/4-x,3/4+y,1/4+z
3/4+x,3/4-y,1/4+z
loop_
_atom_site_type_symbol
_atom_site_label
_atom_site_fract_x
_atom_site_fract_y
_atom_site_fract_z
Si Si1 0.218333 0.464069 0.166690
Si Si2 0.250000 0.250000 0.344809
Si Si3 0.246279 0.093409 0.010371
Si Si4 0.838860 0.066600 0.126505
Si Si5 0.069114 0.555369 0.973374
Si Si6 0.985312 0.794812 0.211356
Si Si7 0.675406 0.880124 0.307208
Si Si8 0.682779 0.802593 0.903797
O O1 0.197873 0.427562 0.084951
O O2 0.307259 0.497654 0.161374
O O3 0.225650 0.414471 0.238166
O O4 0.154764 0.523253 0.177505
O O5 0.312028 0.303361 0.386799
O O6 0.307720 0.198612 0.298801
O O7 0.171907 0.139635 0.041736
O O8 0.307117 0.131578 0.953376
O O9 0.207135 0.031569 0.962763
O O10 0.804654 0.128511 0.174196
O O11 0.803959 0.078811 0.038671
O O12 0.164909 0.536722 0.959925
O O13 0.000000 0.500000 0.948041
O O14 0.056874 0.572136 0.063861
O O15 0.950175 0.835301 0.138321
O O16 0.750000 0.750000 0.929896
#
# Coordination Sequence:
#
# PCOD8187717 Si02
#       8
#    16   8  16  16  16  16  16  16
#     4  11  25  45  68 102 141 178 238 288 353 426
#     4  12  24  48  70  98 146 180 240 294 348 426
#     4  11  25  45  69 102 140 183 235 298 347 427
#     4  11  25  48  69 103 141 189 233 300 357 430
#     4  11  25  45  74 105 142 186 233 298 361 430
#     4  11  25  47  68 105 142 179 246 286 356 436
#     4  12  26  46  71 101 137 193 230 297 356 423
#     4  11  23  45  70 104 142 180 229 293 354 426
#
# _framework density 21.367775000000002
#
# number of rings (size 3 to 8) (size 9 to 14) (size 15 to 20)
#    0.000    0.800    8.000    0.000    5.600    1.067 
#    2.400    0.000    0.000    0.000    0.000    0.000 
#    0.000    0.000    0.000    0.000    0.000    0.000 
#
# Total GULP energy -371715.758082 kJ/mol
# GULP energy per Si atom -12390.525269 kJ/mol
# Density = 2.131914 g / cm^3
# Si number density = 21.367775 Si / 1000 Ang^3
#
#
#
# Elastic Constant Matrix: (Units=GPa)
#
#
# Indices 1 2 3 4 5 6 
#
# 1 104.3219 22.9450 26.3880 0.0000 0.0000 0.0000
# 2 22.9450 115.0150 79.0632 0.0000 0.0000 0.0000
# 3 26.3880 79.0632 109.7924 0.0000 0.0000 0.0000
# 4 0.0000 0.0000 0.0000 41.2574 0.0000 0.0000
# 5 0.0000 0.0000 0.0000 0.0000 26.7532 0.0000
# 6 0.0000 0.0000 0.0000 0.0000 0.0000 39.5383
#
#
#
# Elastic Compliance Matrix: (Units=1/GPa)
#
#
# Indices 1 2 3 4 5 6 
#
# 1 0.010234 -0.000695 -0.001959 0.000000 0.000000 0.000000
# 2 -0.000695 0.017265 -0.012266 0.000000 0.000000 0.000000
# 3 -0.001959 -0.012266 0.018412 0.000000 0.000000 0.000000
# 4 0.000000 0.000000 0.000000 0.024238 0.000000 0.000000
# 5 0.000000 0.000000 0.000000 0.000000 0.037379 0.000000
# 6 0.000000 0.000000 0.000000 0.000000 0.000000 0.025292
#
#
# Mechanical properties :
#
#
# Convention : Reuss Voigt Hill
#
# Bulk Modulus (GPa) = 62.22385 65.10241 63.66313
# Shear Modulus (GPa) = 29.75914 34.89200 32.32557
#
# Velocity S-wave (km/s) = 3.73595 4.04533 3.89372
# Velocity P-wave (km/s) = 6.91328 7.23556 7.07625
#
# Compressibility (1/GPa) = 0.01607101
#
# Stress axis : x y z
#
# Youngs Moduli (GPa) = 97.71210 57.92179 54.31345
#
# Poissons Ratio (x) = 0.04024 0.10642
# Poissons Ratio (y) = 0.06788 0.66619
# Poissons Ratio (z) = 0.19146 0.71044
#
# Static dielectric constant tensor:
#      x y z
#    x -0.537020 0.000000 0.000000 
#    y 0.000000 4.215050 0.000000 
#    z 0.000000 0.000000 3.781210 
# 
# 
# High freq. dielectric constant tensor:
#      x y z
#    x 1.853480 0.000000 0.000000 
#    y 0.000000 1.846470 0.000000 
#    z 0.000000 0.000000 1.823140 
# 
# From -- ./inp_files/14290.got.cif
#   From: 2010.06.25/outbox.cif.g09.slc.cpg/sg43_8_cif.got.tgz:14290.got - 2010.06.26 16:48:59.
