data_PCOD8187940
_publ_section_title
;
Structure prediction by ZEFSAII (Michael W. Deem and Ramdas Pophale) SiO2 
 PCOD8187940
Probable space group: I M M 2
;
_chemical_formula_sum "Si O2"
_cell_formula_units_Z 48
_cell_length_a 12.265374
_cell_length_b 13.532193
_cell_length_c 18.634650
_cell_angle_alpha 90.000000
_cell_angle_beta 90.000000
_cell_angle_gamma 90.000000
_cell_volume 3092.930909
_symmetry_space_group_name_H-M "I M M 2"
_symmetry_group_IT_number 44
_symmetry_cell_setting 'orthorhombic'
loop_
_space_group_symop_operation_xyz
x,y,z
-x,-y,z
-x,y,z
x,-y,z
1/2+x,1/2+y,1/2+z
1/2-x,1/2-y,1/2+z
1/2-x,1/2+y,1/2+z
1/2+x,1/2-y,1/2+z
loop_
_atom_site_type_symbol
_atom_site_label
_atom_site_fract_x
_atom_site_fract_y
_atom_site_fract_z
Si Si1 0.704117 0.887864 0.899190
Si Si2 0.500000 0.239972 0.901397
Si Si3 0.500000 0.614837 0.779965
Si Si4 0.000000 0.113904 0.673725
Si Si5 0.269823 0.883947 0.060096
Si Si6 0.877531 0.230100 0.172330
Si Si7 0.275992 0.387537 0.246057
Si Si8 0.000000 0.713547 0.564244
O O1 0.603434 0.821504 0.876789
O O2 0.785267 0.873068 0.832307
O O3 0.662028 0.000000 0.905855
O O4 0.756274 0.858915 0.976299
O O5 0.500000 0.343659 0.860483
O O6 0.500000 0.257999 0.985236
O O7 0.500000 0.500000 0.787919
O O8 0.391975 0.650282 0.736567
O O9 0.104253 0.140156 0.720743
O O10 0.000000 0.185561 0.606925
O O11 0.000000 0.000000 0.647639
O O12 0.185685 0.819988 0.106373
O O13 0.394036 0.853819 0.079080
O O14 0.254006 0.000000 0.076667
O O15 0.812306 0.322590 0.203943
O O16 0.000000 0.263770 0.146986
O O17 0.244331 0.500000 0.227466
#
# Coordination Sequence:
#
# PCOD8187940 Si02
#       8
#     8   4   4   4   8   8   8   4
#     4   9  17  30  49  74  99 125 161 206 250 293
#     4  10  17  29  48  74  98 129 162 202 251 289
#     4  10  20  32  46  70 102 132 164 200 242 298
#     4  10  20  34  50  72 100 128 160 202 248 301
#     4  10  19  32  50  73 102 133 165 203 248 294
#     4  10  20  33  50  73 100 130 163 201 250 295
#     4  10  19  34  54  75  98 127 163 206 254 299
#     4  10  19  31  52  72 100 129 170 206 243 296
#
# _framework density 15.519259
#
# number of rings (size 3 to 8) (size 9 to 14) (size 15 to 20)
#    0.500    1.667    3.333    1.000    0.000    2.667 
#    1.500    0.000    0.000    0.000    0.000    0.000 
#    0.000    0.000    0.000    0.000    0.000    0.000 
#
# Total GULP energy -297418.152896 kJ/mol
# GULP energy per Si atom -12392.423037 kJ/mol
# Density = 1.548394 g / cm^3
# Si number density = 15.519259 Si / 1000 Ang^3
#
#
#
# Elastic Constant Matrix: (Units=GPa)
#
#
# Indices 1 2 3 4 5 6 
#
# 1 103.9391 47.0564 53.4331 0.0000 0.0000 0.0000
# 2 47.0564 89.4008 54.3410 0.0000 0.0000 0.0000
# 3 53.4331 54.3410 96.8838 0.0000 0.0000 0.0000
# 4 0.0000 0.0000 0.0000 29.9539 0.0000 0.0000
# 5 0.0000 0.0000 0.0000 0.0000 -94.9773 0.0000
# 6 0.0000 0.0000 0.0000 0.0000 0.0000 20.1389
#
#
#
# Elastic Compliance Matrix: (Units=1/GPa)
#
#
# Indices 1 2 3 4 5 6 
#
# 1 0.014385 -0.004172 -0.005594 0.000000 0.000000 0.000000
# 2 -0.004172 0.018181 -0.007897 0.000000 0.000000 0.000000
# 3 -0.005594 -0.007897 0.017836 0.000000 0.000000 0.000000
# 4 0.000000 0.000000 0.000000 0.033385 0.000000 0.000000
# 5 0.000000 0.000000 0.000000 0.000000 -0.010529 0.000000
# 6 0.000000 0.000000 0.000000 0.000000 0.000000 0.049655
#
#
# Mechanical properties :
#
#
# Convention : Reuss Voigt Hill
#
# Bulk Modulus (GPa) = 66.32287 66.65384 66.48835
# Shear Modulus (GPa) = 30.62506 0.04932 15.33719
#
# Velocity S-wave (km/s) = 4.44707 0.17847 3.14708
# Velocity P-wave (km/s) = 8.31848 6.56390 7.49273
#
# Compressibility (1/GPa) = 0.01507776
#
# Stress axis : x y z
#
# Youngs Moduli (GPa) = 69.51509 55.00126 56.06581
#
# Poissons Ratio (x) = 0.22944 0.31363
# Poissons Ratio (y) = 0.28999 0.44275
# Poissons Ratio (z) = 0.38887 0.43435
#
# Static dielectric constant tensor:
#      x y z
#    x 2.946860 0.000000 0.000000 
#    y 0.000000 2.876960 0.000000 
#    z 0.000000 0.000000 3.065440 
# 
# 
# High freq. dielectric constant tensor:
#      x y z
#    x 1.587360 0.000000 0.000000 
#    y 0.000000 1.590960 0.000000 
#    z 0.000000 0.000000 1.600770 
# 
# From -- ./inp_files/23750.got.cif
#   From: 2010.03.12/outbox.cif.g09.slc.cpg/sg44_12_cif.got.tgz:23750.got - 2010.04.14 02:36:11.
