data_PCOD8187094
_publ_section_title
;
Structure prediction by ZEFSAII (Michael W. Deem and Ramdas Pophale) SiO2 
 PCOD8187094
Probable space group: F D D 2
;
_chemical_formula_sum "Si O2"
_cell_formula_units_Z 96
_cell_length_a 12.792270
_cell_length_b 19.535440
_cell_length_c 18.288448
_cell_angle_alpha 90.000000
_cell_angle_beta 90.000000
_cell_angle_gamma 90.000000
_cell_volume 4570.331127
_symmetry_space_group_name_H-M "F D D 2"
_symmetry_group_IT_number 43
_symmetry_cell_setting 'orthorhombic'
loop_
_space_group_symop_operation_xyz
x,y,z
-x,-y,z
1/4-x,1/4+y,1/4+z
1/4+x,1/4-y,1/4+z
x,1/2+y,1/2+z
-x,1/2-y,1/2+z
1/4-x,3/4+y,3/4+z
1/4+x,3/4-y,3/4+z
1/2+x,y,1/2+z
1/2-x,-y,1/2+z
3/4-x,1/4+y,3/4+z
3/4+x,1/4-y,3/4+z
1/2+x,1/2+y,z
1/2-x,1/2-y,z
3/4-x,3/4+y,1/4+z
3/4+x,3/4-y,1/4+z
loop_
_atom_site_type_symbol
_atom_site_label
_atom_site_fract_x
_atom_site_fract_y
_atom_site_fract_z
Si Si1 0.201441 0.181349 0.234620
Si Si2 0.559627 0.801489 0.894454
Si Si3 0.890616 0.345516 0.403264
Si Si4 0.792883 0.938634 0.482169
Si Si5 0.674327 0.194070 0.899211
Si Si6 0.682602 0.904539 0.981187
O O1 0.250000 0.250000 0.199204
O O2 0.257080 0.116585 0.198557
O O3 0.079667 0.180037 0.218963
O O4 0.225555 0.180224 0.320619
O O5 0.630084 0.735377 0.913063
O O6 0.581050 0.828771 0.813378
O O7 0.440760 0.773909 0.896666
O O8 0.585052 0.863666 0.948085
O O9 0.921417 0.360377 0.318074
O O10 0.789501 0.381579 0.439885
O O11 0.844913 0.879907 0.434477
O O12 0.830358 0.015196 0.462457
O O13 0.750000 0.250000 0.939846
#
# Coordination Sequence:
#
# PCOD8187094 Si02
#       6
#    16  16  16  16  16  16
#     4  10  20  38  65  95 123 160 216 275 331 381
#     4  10  24  43  61  94 132 174 215 265 334 394
#     4  11  24  42  69  95 133 168 221 281 331 388
#     4  10  22  42  64  92 130 168 215 273 326 392
#     4  10  22  41  67  91 129 170 214 269 326 394
#     4  11  25  43  65  96 132 177 215 274 332 401
#
# _framework density 21.005042
#
# number of rings (size 3 to 8) (size 9 to 14) (size 15 to 20)
#    0.000    1.667    1.667    1.500    7.000    3.333 
#    6.000    0.000    0.000    0.000    0.000    0.000 
#    0.000    0.000    0.000    0.000    0.000    0.000 
#
# Total GULP energy -297416.070038 kJ/mol
# GULP energy per Si atom -12392.336252 kJ/mol
# Density = 2.095723 g / cm^3
# Si number density = 21.005042 Si / 1000 Ang^3
#
#
#
# Elastic Constant Matrix: (Units=GPa)
#
#
# Indices 1 2 3 4 5 6 
#
# 1 49.3046 34.5313 39.6020 0.0000 0.0000 0.0000
# 2 34.5313 114.0006 61.8062 0.0000 0.0000 0.0000
# 3 39.6020 61.8062 98.2127 0.0000 0.0000 0.0000
# 4 0.0000 0.0000 0.0000 34.8210 0.0000 0.0000
# 5 0.0000 0.0000 0.0000 0.0000 30.0898 0.0000
# 6 0.0000 0.0000 0.0000 0.0000 0.0000 36.5818
#
#
#
# Elastic Compliance Matrix: (Units=1/GPa)
#
#
# Indices 1 2 3 4 5 6 
#
# 1 0.031146 -0.003985 -0.010051 0.000000 0.000000 0.000000
# 2 -0.003985 0.013824 -0.007093 0.000000 0.000000 0.000000
# 3 -0.010051 -0.007093 0.018699 0.000000 0.000000 0.000000
# 4 0.000000 0.000000 0.000000 0.028718 0.000000 0.000000
# 5 0.000000 0.000000 0.000000 0.000000 0.033234 0.000000
# 6 0.000000 0.000000 0.000000 0.000000 0.000000 0.027336
#
#
# Mechanical properties :
#
#
# Convention : Reuss Voigt Hill
#
# Bulk Modulus (GPa) = 46.70523 59.26633 52.98578
# Shear Modulus (GPa) = 24.70929 28.67042 26.68986
#
# Velocity S-wave (km/s) = 3.43352 3.69850 3.56847
# Velocity P-wave (km/s) = 6.16460 6.82020 6.50067
#
# Compressibility (1/GPa) = 0.02141088
#
# Stress axis : x y z
#
# Youngs Moduli (GPa) = 32.10655 72.33545 53.47990
#
# Poissons Ratio (x) = 0.28826 0.53754
# Poissons Ratio (y) = 0.12794 0.37933
# Poissons Ratio (z) = 0.32271 0.51308
#
# Static dielectric constant tensor:
#      x y z
#    x 5.406150 0.000000 0.000000 
#    y 0.000000 3.935280 0.000000 
#    z 0.000000 0.000000 3.792910 
# 
# 
# High freq. dielectric constant tensor:
#      x y z
#    x 1.829080 0.000000 0.000000 
#    y 0.000000 1.832550 0.000000 
#    z 0.000000 0.000000 1.812630 
# 
# From -- ./inp_files/10909.got.cif
#   From: 2010.06.25/outbox.cif.g09.slc.cpg/sg43_6_cif.got.tgz:10909.got - 2010.06.26 16:48:59.
