data_PCOD8187888
_publ_section_title
;
Structure prediction by ZEFSAII (Michael W. Deem and Ramdas Pophale) SiO2 
 PCOD8187888
Probable space group: I M M 2
;
_chemical_formula_sum "Si O2"
_cell_formula_units_Z 64
_cell_length_a 23.587681
_cell_length_b 9.284324
_cell_length_c 19.264874
_cell_angle_alpha 90.000000
_cell_angle_beta 90.000000
_cell_angle_gamma 90.000000
_cell_volume 4218.924043
_symmetry_space_group_name_H-M "I M M 2"
_symmetry_group_IT_number 44
_symmetry_cell_setting 'orthorhombic'
loop_
_space_group_symop_operation_xyz
x,y,z
-x,-y,z
-x,y,z
x,-y,z
1/2+x,1/2+y,1/2+z
1/2-x,1/2-y,1/2+z
1/2-x,1/2+y,1/2+z
1/2+x,1/2-y,1/2+z
loop_
_atom_site_type_symbol
_atom_site_label
_atom_site_fract_x
_atom_site_fract_y
_atom_site_fract_z
Si Si1 0.435551 0.330900 0.777870
Si Si2 0.230257 0.828524 0.057835
Si Si3 0.883732 0.330484 0.406210
Si Si4 0.562953 0.171266 0.051029
Si Si5 0.747890 0.830338 0.906173
Si Si6 0.165240 0.170277 0.186099
Si Si7 0.772820 0.669536 0.773229
Si Si8 0.662803 0.170497 0.141424
O O1 0.500000 0.294281 0.757349
O O2 0.426884 0.500000 0.791179
O O3 0.418907 0.249327 0.847311
O O4 0.395769 0.276689 0.714046
O O5 0.224817 0.774056 0.978709
O O6 0.233296 0.000000 0.056582
O O7 0.178090 0.774568 0.107250
O O8 0.288230 0.767296 0.091194
O O9 0.891687 0.500000 0.395759
O O10 0.909479 0.277713 0.478999
O O11 0.818022 0.286433 0.403677
O O12 0.500000 0.237419 0.059271
O O13 0.559932 0.000000 0.052165
O O14 0.601911 0.228820 0.114896
O O15 0.782202 0.751719 0.845275
O O16 0.755520 0.000000 0.897232
O O17 0.214076 0.223755 0.238726
O O18 0.168110 0.000000 0.184330
O O19 0.771622 0.500000 0.787878
O O20 0.824546 0.712440 0.721431
O O21 0.664367 0.000000 0.134046
#
# Coordination Sequence:
#
# PCOD8187888 Si02
#       8
#     8   8   8   8   8   8   8   8
#     4  10  19  29  41  58  81 108 138 167 192 227
#     4   8  13  23  39  56  76 101 131 164 196 232
#     4  10  18  27  39  59  86 110 133 160 191 232
#     4   9  15  23  37  58  83 107 134 167 196 224
#     4  10  17  25  41  63  83 105 132 163 196 235
#     4   8  14  25  40  57  75 101 134 164 196 229
#     4   9  16  26  42  58  78 106 133 162 199 241
#     4   8  13  23  38  57  76 101 136 167 195 228
#
# _framework density 15.169744
#
# number of rings (size 3 to 8) (size 9 to 14) (size 15 to 20)
#    0.000    3.000    2.500    1.875    0.000    0.750 
#    0.000    0.000    0.000    4.500    0.000    0.875 
#    0.000    1.000    0.000    0.000    0.000    0.000 
#
# Total GULP energy -396508.085768 kJ/mol
# GULP energy per Si atom -12390.877680 kJ/mol
# Density = 1.513522 g / cm^3
# Si number density = 15.169744 Si / 1000 Ang^3
#
#
#
# Elastic Constant Matrix: (Units=GPa)
#
#
# Indices 1 2 3 4 5 6 
#
# 1 94.9142 16.5272 71.3268 0.0000 0.0000 0.0000
# 2 16.5272 14.7223 25.0717 0.0000 0.0000 0.0000
# 3 71.3268 25.0717 144.6137 0.0000 0.0000 0.0000
# 4 0.0000 0.0000 0.0000 20.8361 0.0000 0.0000
# 5 0.0000 0.0000 0.0000 0.0000 24.8606 0.0000
# 6 0.0000 0.0000 0.0000 0.0000 0.0000 9.4555
#
#
#
# Elastic Compliance Matrix: (Units=1/GPa)
#
#
# Indices 1 2 3 4 5 6 
#
# 1 0.017222 -0.006907 -0.007297 0.000000 0.000000 0.000000
# 2 -0.006907 0.099150 -0.013783 0.000000 0.000000 0.000000
# 3 -0.007297 -0.013783 0.012903 0.000000 0.000000 0.000000
# 4 0.000000 0.000000 0.000000 0.047994 0.000000 0.000000
# 5 0.000000 0.000000 0.000000 0.000000 0.040224 0.000000
# 6 0.000000 0.000000 0.000000 0.000000 0.000000 0.105759
#
#
# Mechanical properties :
#
#
# Convention : Reuss Voigt Hill
#
# Bulk Modulus (GPa) = 13.64219 53.34461 33.49340
# Shear Modulus (GPa) = 12.38666 20.45208 16.41937
#
# Velocity S-wave (km/s) = 2.86061 3.67579 3.29352
# Velocity P-wave (km/s) = 4.46356 7.29772 6.04897
#
# Compressibility (1/GPa) = 0.07330202
#
# Stress axis : x y z
#
# Youngs Moduli (GPa) = 58.06531 10.08570 77.49856
#
# Poissons Ratio (x) = 0.06966 0.56549
# Poissons Ratio (y) = 0.40106 1.06816
# Poissons Ratio (z) = 0.42369 0.13901
#
# Static dielectric constant tensor:
#      x y z
#    x 3.128740 0.000000 0.000000 
#    y 0.000000 2.468450 0.000000 
#    z 0.000000 0.000000 3.160100 
# 
# 
# High freq. dielectric constant tensor:
#      x y z
#    x 1.561960 0.000000 0.000000 
#    y 0.000000 1.533610 0.000000 
#    z 0.000000 0.000000 1.583070 
# 
# From -- ./inp_files/20894.got.cif
#   From: 2010.03.12/outbox.cif.g09.slc.cpg/sg44_11_cif.got.tgz:20894.got - 2010.04.14 02:36:11.
