data_PCOD8187905
_publ_section_title
;
Structure prediction by ZEFSAII (Michael W. Deem and Ramdas Pophale) SiO2 
 PCOD8187905
Probable space group: I M M 2
;
_chemical_formula_sum "Si O2"
_cell_formula_units_Z 56
_cell_length_a 21.897786
_cell_length_b 9.035100
_cell_length_c 17.674465
_cell_angle_alpha 90.000000
_cell_angle_beta 90.000000
_cell_angle_gamma 90.000000
_cell_volume 3496.869681
_symmetry_space_group_name_H-M "I M M 2"
_symmetry_group_IT_number 44
_symmetry_cell_setting 'orthorhombic'
loop_
_space_group_symop_operation_xyz
x,y,z
-x,-y,z
-x,y,z
x,-y,z
1/2+x,1/2+y,1/2+z
1/2-x,1/2-y,1/2+z
1/2-x,1/2+y,1/2+z
1/2+x,1/2-y,1/2+z
loop_
_atom_site_type_symbol
_atom_site_label
_atom_site_fract_x
_atom_site_fract_y
_atom_site_fract_z
Si Si1 0.349636 0.673353 0.309520
Si Si2 0.725416 0.669821 0.761741
Si Si3 0.929436 0.328313 0.692921
Si Si4 0.708477 0.169344 0.614850
Si Si5 0.300148 0.667305 0.924461
Si Si6 0.316463 0.669898 0.471547
Si Si7 0.850098 0.166261 0.575578
O O1 0.340874 0.500000 0.292778
O O2 0.290549 0.755799 0.277195
O O3 0.408322 0.734967 0.265715
O O4 0.360558 0.701775 0.399439
O O5 0.737603 0.500000 0.740643
O O6 0.690995 0.747534 0.692267
O O7 0.681548 0.683957 0.836128
O O8 0.917163 0.500000 0.708694
O O9 0.893244 0.281543 0.617502
O O10 0.000000 0.294408 0.678574
O O11 0.667586 0.233672 0.545693
O O12 0.779796 0.194581 0.597791
O O13 0.690772 0.000000 0.624896
O O14 0.272966 0.500000 0.937831
O O15 0.250719 0.791828 0.941947
O O16 0.355977 0.688851 0.984004
O O17 0.318864 0.500000 0.496113
O O18 0.869554 0.000000 0.598869
#
# Coordination Sequence:
#
# PCOD8187905 Si02
#       7
#     8   8   8   8   8   8   8
#     4  10  19  31  45  61  83 113 147 184 222 261
#     4  10  17  26  43  64  88 117 145 175 213 257
#     4  11  23  34  45  63  85 113 152 192 226 261
#     4  10  18  27  41  63  90 117 146 176 210 257
#     4   8  16  28  41  60  84 111 142 175 213 258
#     4   9  17  27  41  61  83 110 145 177 212 259
#     4   9  17  30  45  59  82 113 145 182 219 256
#
# _framework density 16.014323000000001
#
# number of rings (size 3 to 8) (size 9 to 14) (size 15 to 20)
#    0.000    2.429    1.429    3.000    0.000    5.714 
#    0.000    0.000    0.000    0.000    0.000    0.000 
#    0.000    1.143    0.000   10.857    0.000    6.286 
#
# Total GULP energy -347000.918698 kJ/mol
# GULP energy per Si atom -12392.889954 kJ/mol
# Density = 1.597787 g / cm^3
# Si number density = 16.014323 Si / 1000 Ang^3
#
#
#
# Elastic Constant Matrix: (Units=GPa)
#
#
# Indices 1 2 3 4 5 6 
#
# 1 31.4359 22.6434 26.3280 0.0000 0.0000 0.0000
# 2 22.6434 99.9111 59.9886 0.0000 0.0000 0.0000
# 3 26.3280 59.9886 142.6250 0.0000 0.0000 0.0000
# 4 0.0000 0.0000 0.0000 29.7116 0.0000 0.0000
# 5 0.0000 0.0000 0.0000 0.0000 12.7161 0.0000
# 6 0.0000 0.0000 0.0000 0.0000 0.0000 15.1207
#
#
#
# Elastic Compliance Matrix: (Units=1/GPa)
#
#
# Indices 1 2 3 4 5 6 
#
# 1 0.040350 -0.006251 -0.004819 0.000000 0.000000 0.000000
# 2 -0.006251 0.014359 -0.004886 0.000000 0.000000 0.000000
# 3 -0.004819 -0.004886 0.009956 0.000000 0.000000 0.000000
# 4 0.000000 0.000000 0.000000 0.033657 0.000000 0.000000
# 5 0.000000 0.000000 0.000000 0.000000 0.078640 0.000000
# 6 0.000000 0.000000 0.000000 0.000000 0.000000 0.066135
#
#
# Mechanical properties :
#
#
# Convention : Reuss Voigt Hill
#
# Bulk Modulus (GPa) = 30.53173 54.65469 42.59321
# Shear Modulus (GPa) = 17.48708 22.51047 19.99878
#
# Velocity S-wave (km/s) = 3.30807 3.75326 3.53768
# Velocity P-wave (km/s) = 5.80498 7.27910 6.58343
#
# Compressibility (1/GPa) = 0.03275282
#
# Stress axis : x y z
#
# Youngs Moduli (GPa) = 24.78345 69.64279 100.44357
#
# Poissons Ratio (x) = 0.43535 0.48405
# Poissons Ratio (y) = 0.15493 0.49072
# Poissons Ratio (z) = 0.11943 0.34024
#
# Static dielectric constant tensor:
#      x y z
#    x 2.441660 0.000000 0.000000 
#    y 0.000000 3.170130 0.000000 
#    z 0.000000 0.000000 3.592680 
# 
# 
# High freq. dielectric constant tensor:
#      x y z
#    x 1.527140 0.000000 0.000000 
#    y 0.000000 1.633380 0.000000 
#    z 0.000000 0.000000 1.639320 
# 
# From -- ./inp_files/20636.got.cif
#   From: 2010.03.12/outbox.cif.g09.slc.cpg/sg44_11_cif.got.tgz:20636.got - 2010.04.14 02:36:11.
