data_PCOD8187207
_publ_section_title
;
Structure prediction by ZEFSAII (Michael W. Deem and Ramdas Pophale) SiO2 
 PCOD8187207
Probable space group: F D D 2
;
_chemical_formula_sum "Si O2"
_cell_formula_units_Z 120
_cell_length_a 20.245141
_cell_length_b 23.273703
_cell_length_c 12.557089
_cell_angle_alpha 90.000000
_cell_angle_beta 90.000000
_cell_angle_gamma 90.000000
_cell_volume 5916.641646
_symmetry_space_group_name_H-M "F D D 2"
_symmetry_group_IT_number 43
_symmetry_cell_setting 'orthorhombic'
loop_
_space_group_symop_operation_xyz
x,y,z
-x,-y,z
1/4-x,1/4+y,1/4+z
1/4+x,1/4-y,1/4+z
x,1/2+y,1/2+z
-x,1/2-y,1/2+z
1/4-x,3/4+y,3/4+z
1/4+x,3/4-y,3/4+z
1/2+x,y,1/2+z
1/2-x,-y,1/2+z
3/4-x,1/4+y,3/4+z
3/4+x,1/4-y,3/4+z
1/2+x,1/2+y,z
1/2-x,1/2-y,z
3/4-x,3/4+y,1/4+z
3/4+x,3/4-y,1/4+z
loop_
_atom_site_type_symbol
_atom_site_label
_atom_site_fract_x
_atom_site_fract_y
_atom_site_fract_z
Si Si1 0.279330 0.189697 0.629150
Si Si2 0.170120 0.416029 0.745565
Si Si3 0.574259 0.508254 0.165193
Si Si4 0.000000 0.500000 0.313595
Si Si5 0.058470 0.278808 0.010458
Si Si6 0.644336 0.685416 0.922579
Si Si7 0.100175 0.396123 0.943433
Si Si8 0.114728 0.554515 0.448428
O O1 0.250000 0.250000 0.676395
O O2 0.325640 0.150323 0.704931
O O3 0.320138 0.201445 0.520780
O O4 0.213431 0.151324 0.614736
O O5 0.108023 0.447292 0.691529
O O6 0.234420 0.455132 0.728860
O O7 0.163265 0.413418 0.873659
O O8 0.500000 0.500000 0.123677
O O9 0.616288 0.535815 0.071221
O O10 0.042845 0.457971 0.238437
O O11 0.046374 0.538620 0.389112
O O12 0.073805 0.272714 0.137444
O O13 0.078814 0.222611 0.945787
O O14 0.108617 0.330392 0.978808
O O15 0.658867 0.687383 0.795945
O O16 0.625738 0.621928 0.956746
#
# Coordination Sequence:
#
# PCOD8187207 Si02
#       8
#    16  16  16   8  16  16  16  16
#     4  10  22  40  61  95 122 165 217 256 322 392
#     4  11  23  40  65  92 132 167 210 284 324 385
#     4  11  22  43  66  95 130 173 220 267 326 396
#     4  10  22  40  66  88 128 170 208 272 324 380
#     4   9  23  39  57  94 123 161 220 263 326 387
#     4  10  23  39  63  94 122 171 215 264 327 393
#     4  10  21  38  63  86 126 161 214 265 322 382
#     4  10  22  42  63  90 130 168 219 265 318 395
#
# _framework density 20.281776000000001
#
# number of rings (size 3 to 8) (size 9 to 14) (size 15 to 20)
#    0.000    1.867    3.333    0.000    2.800   12.800 
#    2.400    2.667    0.000    0.000    0.000    0.000 
#    0.000    0.000    0.000    0.000    0.000    0.000 
#
# Total GULP energy -371671.606461 kJ/mol
# GULP energy per Si atom -12389.053549 kJ/mol
# Density = 2.023561 g / cm^3
# Si number density = 20.281776 Si / 1000 Ang^3
#
#
#
# Elastic Constant Matrix: (Units=GPa)
#
#
# Indices 1 2 3 4 5 6 
#
# 1 67.6209 37.1769 40.2982 0.0000 0.0000 0.0000
# 2 37.1769 106.2365 68.7057 0.0000 0.0000 0.0000
# 3 40.2982 68.7057 133.6861 0.0000 0.0000 0.0000
# 4 0.0000 0.0000 0.0000 26.4357 0.0000 0.0000
# 5 0.0000 0.0000 0.0000 0.0000 29.8130 0.0000
# 6 0.0000 0.0000 0.0000 0.0000 0.0000 37.2362
#
#
#
# Elastic Compliance Matrix: (Units=1/GPa)
#
#
# Indices 1 2 3 4 5 6 
#
# 1 0.019361 -0.004495 -0.003526 0.000000 0.000000 0.000000
# 2 -0.004495 0.015143 -0.006427 0.000000 0.000000 0.000000
# 3 -0.003526 -0.006427 0.011846 0.000000 0.000000 0.000000
# 4 0.000000 0.000000 0.000000 0.037828 0.000000 0.000000
# 5 0.000000 0.000000 0.000000 0.000000 0.033542 0.000000
# 6 0.000000 0.000000 0.000000 0.000000 0.000000 0.026856
#
#
# Mechanical properties :
#
#
# Convention : Reuss Voigt Hill
#
# Bulk Modulus (GPa) = 57.29588 66.65614 61.97601
# Shear Modulus (GPa) = 27.88779 29.45447 28.67113
#
# Velocity S-wave (km/s) = 3.71214 3.81499 3.76392
# Velocity P-wave (km/s) = 6.83261 7.23477 7.03657
#
# Compressibility (1/GPa) = 0.01745326
#
# Stress axis : x y z
#
# Youngs Moduli (GPa) = 51.65062 66.03856 84.41415
#
# Poissons Ratio (x) = 0.29683 0.29765
# Poissons Ratio (y) = 0.23216 0.54256
# Poissons Ratio (z) = 0.18212 0.42446
#
# Static dielectric constant tensor:
#      x y z
#    x 3.633280 0.000000 0.000000 
#    y 0.000000 3.681650 0.000000 
#    z 0.000000 0.000000 3.808390 
# 
# 
# High freq. dielectric constant tensor:
#      x y z
#    x 1.787130 0.000000 0.000000 
#    y 0.000000 1.789370 0.000000 
#    z 0.000000 0.000000 1.794930 
# 
# From -- ./inp_files/7223.got.cif
#   From: 2010.06.25/outbox.cif.g09.slc.cpg/sg43_4_cif.got.tgz:7223.got - 2010.06.26 16:48:59.
