data_PCOD8187100
_publ_section_title
;
Structure prediction by ZEFSAII (Michael W. Deem and Ramdas Pophale) SiO2 
 PCOD8187100
Probable space group: F D D 2
;
_chemical_formula_sum "Si O2"
_cell_formula_units_Z 112
_cell_length_a 20.315763
_cell_length_b 20.580876
_cell_length_c 13.201824
_cell_angle_alpha 90.000000
_cell_angle_beta 90.000000
_cell_angle_gamma 90.000000
_cell_volume 5519.896473
_symmetry_space_group_name_H-M "F D D 2"
_symmetry_group_IT_number 43
_symmetry_cell_setting 'orthorhombic'
loop_
_space_group_symop_operation_xyz
x,y,z
-x,-y,z
1/4-x,1/4+y,1/4+z
1/4+x,1/4-y,1/4+z
x,1/2+y,1/2+z
-x,1/2-y,1/2+z
1/4-x,3/4+y,3/4+z
1/4+x,3/4-y,3/4+z
1/2+x,y,1/2+z
1/2-x,-y,1/2+z
3/4-x,1/4+y,3/4+z
3/4+x,1/4-y,3/4+z
1/2+x,1/2+y,z
1/2-x,1/2-y,z
3/4-x,3/4+y,1/4+z
3/4+x,3/4-y,1/4+z
loop_
_atom_site_type_symbol
_atom_site_label
_atom_site_fract_x
_atom_site_fract_y
_atom_site_fract_z
Si Si1 0.325996 0.041094 0.509270
Si Si2 0.316536 0.789885 0.590820
Si Si3 0.636440 0.974675 0.130640
Si Si4 0.364144 0.417306 0.341677
Si Si5 0.442376 0.154040 0.792254
Si Si6 0.186785 0.713992 0.184402
Si Si7 0.465851 0.182442 0.402701
O O1 0.373540 0.019104 0.417023
O O2 0.339735 0.115699 0.537289
O O3 0.247970 0.049088 0.490605
O O4 0.329579 0.987144 0.597911
O O5 0.250000 0.750000 0.616831
O O6 0.338643 0.779084 0.476217
O O7 0.300840 0.865257 0.599170
O O8 0.706277 0.941899 0.150640
O O9 0.644192 0.050988 0.108417
O O10 0.604792 0.939700 0.031488
O O11 0.345616 0.378412 0.444018
O O12 0.396954 0.486749 0.362918
O O13 0.301572 0.431664 0.271005
O O14 0.462984 0.095285 0.865252
O O15 0.250000 0.750000 0.229849
#
# Coordination Sequence:
#
# PCOD8187100 Si02
#       7
#    16  16  16  16  16  16  16
#     4  10  21  41  60  88 122 157 203 250 303 364
#     4  11  25  41  63  92 124 161 209 250 307 371
#     4  10  24  41  60  90 125 165 204 254 305 372
#     4  10  20  39  60  93 120 155 204 252 306 366
#     4  10  21  38  63  88 122 161 201 254 308 359
#     4  11  21  38  64  92 124 159 207 255 309 362
#     4  10  23  41  64  88 122 162 204 252 312 362
#
# _framework density 20.290236
#
# number of rings (size 3 to 8) (size 9 to 14) (size 15 to 20)
#    0.000    1.714    1.429    2.143    4.000    0.000 
#    2.571    2.143    0.000    0.000    0.000    0.000 
#    0.000    0.000    0.000    0.000    0.000    0.000 
#
# Total GULP energy -346971.338239 kJ/mol
# GULP energy per Si atom -12391.833509 kJ/mol
# Density = 2.024405 g / cm^3
# Si number density = 20.290236 Si / 1000 Ang^3
#
#
#
# Elastic Constant Matrix: (Units=GPa)
#
#
# Indices 1 2 3 4 5 6 
#
# 1 99.2501 26.3574 50.9345 0.0000 0.0000 0.0000
# 2 26.3574 74.9660 49.7183 0.0000 0.0000 0.0000
# 3 50.9345 49.7183 119.3611 0.0000 0.0000 0.0000
# 4 0.0000 0.0000 0.0000 25.6847 0.0000 0.0000
# 5 0.0000 0.0000 0.0000 0.0000 39.2001 0.0000
# 6 0.0000 0.0000 0.0000 0.0000 0.0000 32.1735
#
#
#
# Elastic Compliance Matrix: (Units=1/GPa)
#
#
# Indices 1 2 3 4 5 6 
#
# 1 0.012982 -0.001230 -0.005027 0.000000 0.000000 0.000000
# 2 -0.001230 0.018548 -0.007201 0.000000 0.000000 0.000000
# 3 -0.005027 -0.007201 0.013523 0.000000 0.000000 0.000000
# 4 0.000000 0.000000 0.000000 0.038934 0.000000 0.000000
# 5 0.000000 0.000000 0.000000 0.000000 0.025510 0.000000
# 6 0.000000 0.000000 0.000000 0.000000 0.000000 0.031081
#
#
# Mechanical properties :
#
#
# Convention : Reuss Voigt Hill
#
# Bulk Modulus (GPa) = 55.14000 60.84418 57.99209
# Shear Modulus (GPa) = 28.81180 30.51612 29.66396
#
# Velocity S-wave (km/s) = 3.77235 3.88233 3.82774
# Velocity P-wave (km/s) = 6.79771 7.08157 6.94109
#
# Compressibility (1/GPa) = 0.01813565
#
# Stress axis : x y z
#
# Youngs Moduli (GPa) = 77.02777 53.91545 73.94974
#
# Poissons Ratio (x) = 0.06633 0.37178
# Poissons Ratio (y) = 0.09476 0.53250
# Poissons Ratio (z) = 0.38726 0.38823
#
# Static dielectric constant tensor:
#      x y z
#    x 3.791290 0.000000 0.000000 
#    y 0.000000 3.587080 0.000000 
#    z 0.000000 0.000000 3.696150 
# 
# 
# High freq. dielectric constant tensor:
#      x y z
#    x 1.801850 0.000000 0.000000 
#    y 0.000000 1.789210 0.000000 
#    z 0.000000 0.000000 1.795840 
# 
# From -- ./inp_files/7174.got.cif
#   From: 2010.06.25/outbox.cif.g09.slc.cpg/sg43_4_cif.got.tgz:7174.got - 2010.06.26 16:48:59.
