data_PCOD8187076
_publ_section_title
;
Structure prediction by ZEFSAII (Michael W. Deem and Ramdas Pophale) SiO2 
 PCOD8187076
Probable space group: F D D 2
;
_chemical_formula_sum "Si O2"
_cell_formula_units_Z 120
_cell_length_a 11.606362
_cell_length_b 19.418597
_cell_length_c 22.481558
_cell_angle_alpha 90.000000
_cell_angle_beta 90.000000
_cell_angle_gamma 90.000000
_cell_volume 5066.877048
_symmetry_space_group_name_H-M "F D D 2"
_symmetry_group_IT_number 43
_symmetry_cell_setting 'orthorhombic'
loop_
_space_group_symop_operation_xyz
x,y,z
-x,-y,z
1/4-x,1/4+y,1/4+z
1/4+x,1/4-y,1/4+z
x,1/2+y,1/2+z
-x,1/2-y,1/2+z
1/4-x,3/4+y,3/4+z
1/4+x,3/4-y,3/4+z
1/2+x,y,1/2+z
1/2-x,-y,1/2+z
3/4-x,1/4+y,3/4+z
3/4+x,1/4-y,3/4+z
1/2+x,1/2+y,z
1/2-x,1/2-y,z
3/4-x,3/4+y,1/4+z
3/4+x,3/4-y,1/4+z
loop_
_atom_site_type_symbol
_atom_site_label
_atom_site_fract_x
_atom_site_fract_y
_atom_site_fract_z
Si Si1 0.708948 0.920511 0.452580
Si Si2 0.530047 0.114328 0.938013
Si Si3 0.806755 0.349651 0.503378
Si Si4 0.775679 0.947446 0.581423
Si Si5 0.250000 0.250000 0.769045
Si Si6 0.813331 0.469624 0.268771
Si Si7 0.341281 0.439599 0.897204
Si Si8 0.947010 0.660607 0.374514
O O1 0.842888 0.918250 0.433331
O O2 0.698956 0.927142 0.524156
O O3 0.650564 0.851762 0.425023
O O4 0.639461 0.985305 0.425813
O O5 0.475546 0.129543 0.873351
O O6 0.530604 0.184712 0.976304
O O7 0.451042 0.060088 0.975539
O O8 0.918137 0.298590 0.497066
O O9 0.690766 0.310664 0.517284
O O10 0.773918 0.392122 0.444145
O O11 0.846580 0.399134 0.556966
O O12 0.731287 0.009216 0.623739
O O13 0.903608 0.968360 0.561694
O O14 0.771005 0.456051 0.336527
O O15 0.456579 0.396904 0.885594
#
# Coordination Sequence:
#
# PCOD8187076 Si02
#       8
#    16  16  16  16   8  16  16  16
#     4  11  25  45  66 101 150 190 233 291 379 439
#     4  11  26  45  67 105 146 189 239 300 374 448
#     4  10  20  37  68 103 133 172 231 302 350 404
#     4  11  25  50  73 106 146 192 246 302 371 443
#     4  10  24  52  76 104 144 194 248 310 368 440
#     4  10  22  39  65 104 137 172 239 293 348 429
#     4  11  21  40  71 101 136 182 234 298 353 418
#     4  11  22  42  71 105 137 186 244 295 357 433
#
# _framework density 23.683229000000001
#
# number of rings (size 3 to 8) (size 9 to 14) (size 15 to 20)
#    0.000    1.333    2.667    2.800    1.867    5.867 
#    4.800    0.000    0.000    0.000    0.000    0.000 
#    0.000    0.000    0.000    0.000    0.000    0.000 
#
# Total GULP energy -371663.138730 kJ/mol
# GULP energy per Si atom -12388.771291 kJ/mol
# Density = 2.362932 g / cm^3
# Si number density = 23.683229 Si / 1000 Ang^3
#
#
#
# Elastic Constant Matrix: (Units=GPa)
#
#
# Indices 1 2 3 4 5 6 
#
# 1 47.3141 19.8608 26.5026 0.0000 0.0000 0.0000
# 2 19.8608 103.0474 57.4690 0.0000 0.0000 0.0000
# 3 26.5026 57.4690 166.2055 0.0000 0.0000 0.0000
# 4 0.0000 0.0000 0.0000 58.4942 0.0000 0.0000
# 5 0.0000 0.0000 0.0000 0.0000 29.8253 0.0000
# 6 0.0000 0.0000 0.0000 0.0000 0.0000 30.5569
#
#
#
# Elastic Compliance Matrix: (Units=1/GPa)
#
#
# Indices 1 2 3 4 5 6 
#
# 1 0.023974 -0.003083 -0.002757 0.000000 0.000000 0.000000
# 2 -0.003083 0.012419 -0.003803 0.000000 0.000000 0.000000
# 3 -0.002757 -0.003803 0.007771 0.000000 0.000000 0.000000
# 4 0.000000 0.000000 0.000000 0.017096 0.000000 0.000000
# 5 0.000000 0.000000 0.000000 0.000000 0.033529 0.000000
# 6 0.000000 0.000000 0.000000 0.000000 0.000000 0.032726
#
#
# Mechanical properties :
#
#
# Convention : Reuss Voigt Hill
#
# Bulk Modulus (GPa) = 40.19445 58.24800 49.22122
# Shear Modulus (GPa) = 32.23894 37.95758 35.09826
#
# Velocity S-wave (km/s) = 3.69352 4.00774 3.85384
# Velocity P-wave (km/s) = 5.93279 6.78705 6.37425
#
# Compressibility (1/GPa) = 0.02487906
#
# Stress axis : x y z
#
# Youngs Moduli (GPa) = 41.71236 80.52067 128.68299
#
# Poissons Ratio (x) = 0.24826 0.35474
# Poissons Ratio (y) = 0.12861 0.48932
# Poissons Ratio (z) = 0.11499 0.30618
#
# Static dielectric constant tensor:
#      x y z
#    x 3.730480 0.000000 0.000000 
#    y 0.000000 4.592620 0.000000 
#    z 0.000000 0.000000 4.822730 
# 
# 
# High freq. dielectric constant tensor:
#      x y z
#    x 1.895540 0.000000 0.000000 
#    y 0.000000 1.942320 0.000000 
#    z 0.000000 0.000000 1.959850 
# 
# From -- ./inp_files/21249.got.cif
#   From: 2010.06.25/outbox.cif.g09.slc.cpg/sg43_11_cif.got.tgz:21249.got - 2010.06.26 16:48:59.
