data_PCOD8187486
_publ_section_title
;
Structure prediction by ZEFSAII (Michael W. Deem and Ramdas Pophale) SiO2 
 PCOD8187486
Probable space group: F D D 2
;
_chemical_formula_sum "Si O2"
_cell_formula_units_Z 112
_cell_length_a 15.569827
_cell_length_b 28.626980
_cell_length_c 11.751197
_cell_angle_alpha 90.000000
_cell_angle_beta 90.000000
_cell_angle_gamma 90.000000
_cell_volume 5237.709755
_symmetry_space_group_name_H-M "F D D 2"
_symmetry_group_IT_number 43
_symmetry_cell_setting 'orthorhombic'
loop_
_space_group_symop_operation_xyz
x,y,z
-x,-y,z
1/4-x,1/4+y,1/4+z
1/4+x,1/4-y,1/4+z
x,1/2+y,1/2+z
-x,1/2-y,1/2+z
1/4-x,3/4+y,3/4+z
1/4+x,3/4-y,3/4+z
1/2+x,y,1/2+z
1/2-x,-y,1/2+z
3/4-x,1/4+y,3/4+z
3/4+x,1/4-y,3/4+z
1/2+x,1/2+y,z
1/2-x,1/2-y,z
3/4-x,3/4+y,1/4+z
3/4+x,3/4-y,1/4+z
loop_
_atom_site_type_symbol
_atom_site_label
_atom_site_fract_x
_atom_site_fract_y
_atom_site_fract_z
Si Si1 0.457318 0.807704 0.973250
Si Si2 0.592991 0.631402 0.278652
Si Si3 0.030540 0.132115 0.038253
Si Si4 0.188712 0.600029 0.421125
Si Si5 0.240246 0.460557 0.127755
Si Si6 0.455000 0.546511 0.597489
Si Si7 0.976683 0.550984 0.834221
O O1 0.467777 0.841293 0.865291
O O2 0.462085 0.757797 0.912206
O O3 0.536685 0.821442 0.056838
O O4 0.368586 0.815222 0.041926
O O5 0.587027 0.646220 0.147218
O O6 0.690499 0.642695 0.319330
O O7 0.555282 0.579359 0.279247
O O8 0.085649 0.103981 0.942479
O O9 0.999011 0.181272 0.991359
O O10 0.220747 0.569395 0.525564
O O11 0.222434 0.654597 0.416368
O O12 0.142800 0.469656 0.095246
O O13 0.500000 0.500000 0.650261
O O14 0.484983 0.556195 0.469593
O O15 0.000000 0.500000 0.791386
#
# Coordination Sequence:
#
# PCOD8187486 Si02
#       7
#    16  16  16  16  16  16  16
#     4  12  26  42  73 102 143 192 245 290 360 437
#     4  12  24  44  71 104 137 190 237 293 354 432
#     4  11  25  46  69  99 140 188 234 294 360 416
#     4  11  24  47  71 101 146 189 234 299 365 421
#     4  11  25  44  69  99 142 190 236 296 359 427
#     4  10  23  42  71 102 136 185 239 300 353 426
#     4  11  23  41  68 105 142 177 237 297 361 423
#
# _framework density 21.383391
#
# number of rings (size 3 to 8) (size 9 to 14) (size 15 to 20)
#    0.000    0.857    5.714    0.857    2.000    5.714 
#    0.000    0.000    0.000    0.857    0.000    0.000 
#    0.000    0.000    0.000    0.000    0.000    0.000 
#
# Total GULP energy -346905.772964 kJ/mol
# GULP energy per Si atom -12389.491892 kJ/mol
# Density = 2.133472 g / cm^3
# Si number density = 21.383391 Si / 1000 Ang^3
#
#
#
# Elastic Constant Matrix: (Units=GPa)
#
#
# Indices 1 2 3 4 5 6 
#
# 1 110.6429 36.9064 38.4825 0.0000 0.0000 0.0000
# 2 36.9064 139.9749 58.6317 0.0000 0.0000 0.0000
# 3 38.4825 58.6317 105.6223 0.0000 0.0000 0.0000
# 4 0.0000 0.0000 0.0000 34.1726 0.0000 0.0000
# 5 0.0000 0.0000 0.0000 0.0000 30.9391 0.0000
# 6 0.0000 0.0000 0.0000 0.0000 0.0000 33.3657
#
#
#
# Elastic Compliance Matrix: (Units=1/GPa)
#
#
# Indices 1 2 3 4 5 6 
#
# 1 0.010596 -0.001533 -0.003010 0.000000 0.000000 0.000000
# 2 -0.001533 0.009530 -0.004732 0.000000 0.000000 0.000000
# 3 -0.003010 -0.004732 0.013191 0.000000 0.000000 0.000000
# 4 0.000000 0.000000 0.000000 0.029263 0.000000 0.000000
# 5 0.000000 0.000000 0.000000 0.000000 0.032322 0.000000
# 6 0.000000 0.000000 0.000000 0.000000 0.000000 0.029971
#
#
# Mechanical properties :
#
#
# Convention : Reuss Voigt Hill
#
# Bulk Modulus (GPa) = 67.71214 69.36458 68.53836
# Shear Modulus (GPa) = 33.70520 34.51012 34.10766
#
# Velocity S-wave (km/s) = 3.97449 4.02166 3.99815
# Velocity P-wave (km/s) = 7.26612 7.35350 7.30994
#
# Compressibility (1/GPa) = 0.01476840
#
# Stress axis : x y z
#
# Youngs Moduli (GPa) = 94.37292 104.92725 75.81023
#
# Poissons Ratio (x) = 0.16088 0.22815
# Poissons Ratio (y) = 0.14470 0.35872
# Poissons Ratio (z) = 0.28402 0.49649
#
# Static dielectric constant tensor:
#      x y z
#    x 3.720800 0.000000 0.000000 
#    y 0.000000 3.929850 0.000000 
#    z 0.000000 0.000000 3.917580 
# 
# 
# High freq. dielectric constant tensor:
#      x y z
#    x 1.841180 0.000000 0.000000 
#    y 0.000000 1.837510 0.000000 
#    z 0.000000 0.000000 1.845470 
# 
# From -- ./inp_files/6343.got.cif
#   From: 2010.06.25/outbox.cif.g09.slc.cpg/sg43_4_cif.got.tgz:6343.got - 2010.06.26 16:48:59.
