data_PCOD8187404
_publ_section_title
;
Structure prediction by ZEFSAII (Michael W. Deem and Ramdas Pophale) SiO2 
 PCOD8187404
Probable space group: F D D 2
;
_chemical_formula_sum "Si O2"
_cell_formula_units_Z 88
_cell_length_a 16.980720
_cell_length_b 22.705939
_cell_length_c 9.894322
_cell_angle_alpha 90.000000
_cell_angle_beta 90.000000
_cell_angle_gamma 90.000000
_cell_volume 3814.886378
_symmetry_space_group_name_H-M "F D D 2"
_symmetry_group_IT_number 43
_symmetry_cell_setting 'orthorhombic'
loop_
_space_group_symop_operation_xyz
x,y,z
-x,-y,z
1/4-x,1/4+y,1/4+z
1/4+x,1/4-y,1/4+z
x,1/2+y,1/2+z
-x,1/2-y,1/2+z
1/4-x,3/4+y,3/4+z
1/4+x,3/4-y,3/4+z
1/2+x,y,1/2+z
1/2-x,-y,1/2+z
3/4-x,1/4+y,3/4+z
3/4+x,1/4-y,3/4+z
1/2+x,1/2+y,z
1/2-x,1/2-y,z
3/4-x,3/4+y,1/4+z
3/4+x,3/4-y,1/4+z
loop_
_atom_site_type_symbol
_atom_site_label
_atom_site_fract_x
_atom_site_fract_y
_atom_site_fract_z
Si Si1 0.949760 0.239758 0.384160
Si Si2 0.598960 0.596906 0.481660
Si Si3 0.500000 0.000000 0.846669
Si Si4 0.616831 0.551090 0.899012
Si Si5 0.524097 0.144105 0.246910
Si Si6 0.122437 0.964523 0.128700
O O1 0.925915 0.188281 0.279751
O O2 0.904830 0.233584 0.524475
O O3 0.929449 0.301818 0.315677
O O4 0.041640 0.238435 0.411907
O O5 0.529058 0.553730 0.438296
O O6 0.563959 0.635624 0.602490
O O7 0.624419 0.642851 0.362385
O O8 0.428479 0.022408 0.758800
O O9 0.541247 0.588120 0.845818
O O10 0.680964 0.593280 0.974398
O O11 0.587383 0.499429 0.999795
#
# Coordination Sequence:
#
# PCOD8187404 Si02
#       6
#    16  16   8  16  16  16
#     4  10  22  42  73  99 136 188 236 289 364 417
#     4  11  23  42  75 100 141 185 244 293 348 439
#     4  12  28  44  72 110 142 186 244 294 362 428
#     4  10  23  43  70 100 140 188 234 294 359 424
#     4  10  22  42  69 102 135 178 242 288 355 425
#     4  11  24  45  64 105 142 180 233 294 357 423
#
# _framework density 23.067529
#
# number of rings (size 3 to 8) (size 9 to 14) (size 15 to 20)
#    0.000    1.455    1.818    2.182    7.636    1.455 
#    9.818    0.000    0.000    0.000    0.000    0.000 
#    0.000    0.000    0.000    0.000    0.000    0.000 
#
# Total GULP energy -272773.990850 kJ/mol
# GULP energy per Si atom -12398.817766 kJ/mol
# Density = 2.301503 g / cm^3
# Si number density = 23.067529 Si / 1000 Ang^3
#
#
#
# Elastic Constant Matrix: (Units=GPa)
#
#
# Indices 1 2 3 4 5 6 
#
# 1 90.7013 38.2548 43.4792 0.0000 0.0000 0.0000
# 2 38.2548 153.9144 79.9885 0.0000 0.0000 0.0000
# 3 43.4792 79.9885 115.6228 0.0000 0.0000 0.0000
# 4 0.0000 0.0000 0.0000 55.4409 0.0000 0.0000
# 5 0.0000 0.0000 0.0000 0.0000 19.1556 0.0000
# 6 0.0000 0.0000 0.0000 0.0000 0.0000 20.0786
#
#
#
# Elastic Compliance Matrix: (Units=1/GPa)
#
#
# Indices 1 2 3 4 5 6 
#
# 1 0.013573 -0.001126 -0.004325 0.000000 0.000000 0.000000
# 2 -0.001126 0.010238 -0.006659 0.000000 0.000000 0.000000
# 3 -0.004325 -0.006659 0.014882 0.000000 0.000000 0.000000
# 4 0.000000 0.000000 0.000000 0.018037 0.000000 0.000000
# 5 0.000000 0.000000 0.000000 0.000000 0.052204 0.000000
# 6 0.000000 0.000000 0.000000 0.000000 0.000000 0.049804
#
#
# Mechanical properties :
#
#
# Convention : Reuss Voigt Hill
#
# Bulk Modulus (GPa) = 69.09556 75.96483 72.53020
# Shear Modulus (GPa) = 26.62639 32.16941 29.39790
#
# Velocity S-wave (km/s) = 3.40116 3.73845 3.57379
# Velocity P-wave (km/s) = 6.74110 7.18594 6.96707
#
# Compressibility (1/GPa) = 0.01447271
#
# Stress axis : x y z
#
# Youngs Moduli (GPa) = 73.67322 97.67892 67.19453
#
# Poissons Ratio (x) = 0.10996 0.29064
# Poissons Ratio (y) = 0.08294 0.44746
# Poissons Ratio (z) = 0.31867 0.65046
#
# Static dielectric constant tensor:
#      x y z
#    x 4.045710 0.000000 0.000000 
#    y 0.000000 4.564690 0.000000 
#    z 0.000000 0.000000 4.261130 
# 
# 
# High freq. dielectric constant tensor:
#      x y z
#    x 1.904970 0.000000 0.000000 
#    y 0.000000 1.924000 0.000000 
#    z 0.000000 0.000000 1.908740 
# 
# From -- ./inp_files/3234.got.cif
#   From: 2010.06.25/outbox.cif.g09.slc.cpg/sg43_2_cif.got.tgz:3234.got - 2010.06.26 16:48:59.
