data_PCOD8187018
_publ_section_title
;
Structure prediction by ZEFSAII (Michael W. Deem and Ramdas Pophale) SiO2 
 PCOD8187018
Probable space group: F D D 2
;
_chemical_formula_sum "Si O2"
_cell_formula_units_Z 80
_cell_length_a 11.795833
_cell_length_b 23.518297
_cell_length_c 12.433415
_cell_angle_alpha 90.000000
_cell_angle_beta 90.000000
_cell_angle_gamma 90.000000
_cell_volume 3449.251927
_symmetry_space_group_name_H-M "F D D 2"
_symmetry_group_IT_number 43
_symmetry_cell_setting 'orthorhombic'
loop_
_space_group_symop_operation_xyz
x,y,z
-x,-y,z
1/4-x,1/4+y,1/4+z
1/4+x,1/4-y,1/4+z
x,1/2+y,1/2+z
-x,1/2-y,1/2+z
1/4-x,3/4+y,3/4+z
1/4+x,3/4-y,3/4+z
1/2+x,y,1/2+z
1/2-x,-y,1/2+z
3/4-x,1/4+y,3/4+z
3/4+x,1/4-y,3/4+z
1/2+x,1/2+y,z
1/2-x,1/2-y,z
3/4-x,3/4+y,1/4+z
3/4+x,3/4-y,1/4+z
loop_
_atom_site_type_symbol
_atom_site_label
_atom_site_fract_x
_atom_site_fract_y
_atom_site_fract_z
Si Si1 0.473504 0.761839 0.706780
Si Si2 0.171252 0.088639 0.804537
Si Si3 0.087225 0.044089 0.139555
Si Si4 0.540611 0.897405 0.451276
Si Si5 0.076190 0.053584 0.582539
O O1 0.484289 0.710890 0.621350
O O2 0.429595 0.739509 0.821405
O O3 0.384119 0.807465 0.661217
O O4 0.595808 0.789439 0.728918
O O5 0.155048 0.067953 0.683601
O O6 0.249825 0.143383 0.800429
O O7 0.050582 0.105710 0.855643
O O8 0.152299 0.085387 0.222302
O O9 0.000000 0.000000 0.197718
O O10 0.015248 0.084900 0.061996
O O11 0.000000 0.000000 0.613754
#
# Coordination Sequence:
#
# PCOD8187018 Si02
#       5
#    16  16  16  16  16
#     4  10  23  40  61  95 129 164 222 275 326 404
#     4  11  23  42  68  96 128 177 228 276 339 409
#     4   9  19  35  58  86 116 153 203 257 311 375
#     4  10  19  38  63  86 119 163 210 260 312 389
#     4  12  24  41  66  97 134 175 220 280 343 409
#
# _framework density 23.193435999999998
#
# number of rings (size 3 to 8) (size 9 to 14) (size 15 to 20)
#    0.000    1.600    0.000    7.800    0.000    4.800 
#    0.000    0.000    0.000    7.200    0.000    0.000 
#    0.000    0.000    0.000    0.000    0.000    0.000 
#
# Total GULP energy -248051.632818 kJ/mol
# GULP energy per Si atom -12402.581641 kJ/mol
# Density = 2.314065 g / cm^3
# Si number density = 23.193436 Si / 1000 Ang^3
#
#
#
# Elastic Constant Matrix: (Units=GPa)
#
#
# Indices 1 2 3 4 5 6 
#
# 1 134.1563 98.1091 47.3870 0.0000 0.0000 0.0000
# 2 98.1091 162.4100 31.2883 0.0000 0.0000 0.0000
# 3 47.3870 31.2883 51.2787 0.0000 0.0000 0.0000
# 4 0.0000 0.0000 0.0000 29.4855 0.0000 0.0000
# 5 0.0000 0.0000 0.0000 0.0000 16.1194 0.0000
# 6 0.0000 0.0000 0.0000 0.0000 0.0000 71.7514
#
#
#
# Elastic Compliance Matrix: (Units=1/GPa)
#
#
# Indices 1 2 3 4 5 6 
#
# 1 0.017557 -0.008477 -0.011052 0.000000 0.000000 0.000000
# 2 -0.008477 0.011070 0.001079 0.000000 0.000000 0.000000
# 3 -0.011052 0.001079 0.029057 0.000000 0.000000 0.000000
# 4 0.000000 0.000000 0.000000 0.033915 0.000000 0.000000
# 5 0.000000 0.000000 0.000000 0.000000 0.062037 0.000000
# 6 0.000000 0.000000 0.000000 0.000000 0.000000 0.013937
#
#
# Mechanical properties :
#
#
# Convention : Reuss Voigt Hill
#
# Bulk Modulus (GPa) = 48.11584 77.93487 63.02536
# Shear Modulus (GPa) = 23.65178 34.87531 29.26354
#
# Velocity S-wave (km/s) = 3.19684 3.88193 3.55592
# Velocity P-wave (km/s) = 5.86659 7.33264 6.64020
#
# Compressibility (1/GPa) = 0.02078318
#
# Stress axis : x y z
#
# Youngs Moduli (GPa) = 56.95764 90.33429 34.41558
#
# Poissons Ratio (x) = 0.76573 0.38037
# Poissons Ratio (y) = 0.48281 -0.03713
# Poissons Ratio (z) = 0.62952 -0.09745
#
# Static dielectric constant tensor:
#      x y z
#    x 4.352400 0.000000 0.000000 
#    y 0.000000 4.500250 0.000000 
#    z 0.000000 0.000000 3.665530 
# 
# 
# High freq. dielectric constant tensor:
#      x y z
#    x 1.926170 0.000000 0.000000 
#    y 0.000000 1.938820 0.000000 
#    z 0.000000 0.000000 1.882170 
# 
# From -- ./inp_files/9524.got.cif
#   From: 2010.06.25/outbox.cif.g09.slc.cpg/sg43_5_cif.got.tgz:9524.got - 2010.06.26 16:48:59.
