data_PCOD8187912
_publ_section_title
;
Structure prediction by ZEFSAII (Michael W. Deem and Ramdas Pophale) SiO2 
 PCOD8187912
Probable space group: I M M 2
;
_chemical_formula_sum "Si O2"
_cell_formula_units_Z 64
_cell_length_a 14.595747
_cell_length_b 9.197855
_cell_length_c 28.106041
_cell_angle_alpha 90.000000
_cell_angle_beta 90.000000
_cell_angle_gamma 90.000000
_cell_volume 3773.223765
_symmetry_space_group_name_H-M "I M M 2"
_symmetry_group_IT_number 44
_symmetry_cell_setting 'orthorhombic'
loop_
_space_group_symop_operation_xyz
x,y,z
-x,-y,z
-x,y,z
x,-y,z
1/2+x,1/2+y,1/2+z
1/2-x,1/2-y,1/2+z
1/2-x,1/2+y,1/2+z
1/2+x,1/2-y,1/2+z
loop_
_atom_site_type_symbol
_atom_site_label
_atom_site_fract_x
_atom_site_fract_y
_atom_site_fract_z
Si Si1 0.605873 0.169020 0.538750
Si Si2 0.895897 0.669776 0.310193
Si Si3 0.729742 0.826852 0.347785
Si Si4 0.106613 0.665597 0.201214
Si Si5 0.288855 0.328108 0.620226
Si Si6 0.898117 0.327703 0.764577
Si Si7 0.600379 0.827689 0.158740
Si Si8 0.398482 0.172460 0.431566
O O1 0.500000 0.200572 0.550969
O O2 0.670510 0.260592 0.572789
O O3 0.628474 0.219211 0.485033
O O4 0.627726 0.000000 0.546309
O O5 0.879091 0.500000 0.317888
O O6 0.830923 0.759206 0.345785
O O7 0.875248 0.712504 0.255558
O O8 0.000000 0.711191 0.323176
O O9 0.674322 0.765215 0.302249
O O10 0.677539 0.768823 0.394890
O O11 0.737573 0.000000 0.348127
O O12 0.138897 0.500000 0.192339
O O13 0.161067 0.773730 0.167455
O O14 0.000000 0.679140 0.188862
O O15 0.300448 0.500000 0.617972
O O16 0.181538 0.280685 0.623127
O O17 0.891165 0.500000 0.765109
O O18 0.877336 0.266727 0.711699
O O19 0.000000 0.279476 0.780380
O O20 0.500000 0.769741 0.141446
O O21 0.596107 0.000000 0.162481
O O22 0.500000 0.233816 0.418774
O O23 0.403515 0.000000 0.428772
#
# Coordination Sequence:
#
# PCOD8187912 Si02
#       8
#     8   8   8   8   8   8   8   8
#     4   9  18  33  50  66  90 125 155 178 218 281
#     4   9  19  34  47  61  89 129 163 186 216 266
#     4  10  17  26  47  75  94 111 145 192 232 262
#     4   9  18  32  47  63  89 127 161 183 215 272
#     4  11  20  28  45  72  94 114 149 198 240 266
#     4   8  13  22  39  65  94 118 139 169 215 270
#     4   8  15  27  40  58  89 123 147 171 213 268
#     4   8  15  29  49  72  95 119 149 183 221 273
#
# _framework density 16.961622999999999
#
# number of rings (size 3 to 8) (size 9 to 14) (size 15 to 20)
#    0.000    3.000    0.000    4.125    0.000    5.250 
#    0.000    1.875    0.000    4.500    0.000   10.500 
#    0.000    0.000    0.000    0.000    0.000    0.000 
#
# Total GULP energy -396620.970806 kJ/mol
# GULP energy per Si atom -12394.405338 kJ/mol
# Density = 1.692302 g / cm^3
# Si number density = 16.961623 Si / 1000 Ang^3
#
#
#
# Elastic Constant Matrix: (Units=GPa)
#
#
# Indices 1 2 3 4 5 6 
#
# 1 133.5217 43.9945 85.2391 0.0000 0.0000 0.0000
# 2 43.9945 39.0784 37.9368 0.0000 0.0000 0.0000
# 3 85.2391 37.9368 104.2766 0.0000 0.0000 0.0000
# 4 0.0000 0.0000 0.0000 20.0817 0.0000 0.0000
# 5 0.0000 0.0000 0.0000 0.0000 29.8608 0.0000
# 6 0.0000 0.0000 0.0000 0.0000 0.0000 17.8886
#
#
#
# Elastic Compliance Matrix: (Units=1/GPa)
#
#
# Indices 1 2 3 4 5 6 
#
# 1 0.017490 -0.008984 -0.011028 0.000000 0.000000 0.000000
# 2 -0.008984 0.044177 -0.008728 0.000000 0.000000 0.000000
# 3 -0.011028 -0.008728 0.021780 0.000000 0.000000 0.000000
# 4 0.000000 0.000000 0.000000 0.049797 0.000000 0.000000
# 5 0.000000 0.000000 0.000000 0.000000 0.033489 0.000000
# 6 0.000000 0.000000 0.000000 0.000000 0.000000 0.055901
#
#
# Mechanical properties :
#
#
# Convention : Reuss Voigt Hill
#
# Bulk Modulus (GPa) = 38.51191 67.91306 53.21248
# Shear Modulus (GPa) = 17.31478 20.87999 19.09739
#
# Velocity S-wave (km/s) = 3.19850 3.51239 3.35911
# Velocity P-wave (km/s) = 6.03284 7.52166 6.81801
#
# Compressibility (1/GPa) = 0.02596600
#
# Stress axis : x y z
#
# Youngs Moduli (GPa) = 57.17528 22.63625 45.91304
#
# Poissons Ratio (x) = 0.20336 0.50635
# Poissons Ratio (y) = 0.51366 0.40074
# Poissons Ratio (z) = 0.63056 0.19757
#
# Static dielectric constant tensor:
#      x y z
#    x 3.389770 0.000000 0.000000 
#    y 0.000000 2.762760 0.000000 
#    z 0.000000 0.000000 3.217600 
# 
# 
# High freq. dielectric constant tensor:
#      x y z
#    x 1.658360 0.000000 0.000000 
#    y 0.000000 1.615560 0.000000 
#    z 0.000000 0.000000 1.640070 
# 
# From -- ./inp_files/27326.got.cif
#   From: 2010.03.12/outbox.cif.g09.slc.cpg/sg44_14_cif.got.tgz:27326.got - 2010.04.14 02:36:11.
