data_PCOD8187497
_publ_section_title
;
Structure prediction by ZEFSAII (Michael W. Deem and Ramdas Pophale) SiO2 
 PCOD8187497
Probable space group: F D D 2
;
_chemical_formula_sum "Si O2"
_cell_formula_units_Z 96
_cell_length_a 21.612023
_cell_length_b 21.908797
_cell_length_c 8.965683
_cell_angle_alpha 90.000000
_cell_angle_beta 90.000000
_cell_angle_gamma 90.000000
_cell_volume 4245.191948
_symmetry_space_group_name_H-M "F D D 2"
_symmetry_group_IT_number 43
_symmetry_cell_setting 'orthorhombic'
loop_
_space_group_symop_operation_xyz
x,y,z
-x,-y,z
1/4-x,1/4+y,1/4+z
1/4+x,1/4-y,1/4+z
x,1/2+y,1/2+z
-x,1/2-y,1/2+z
1/4-x,3/4+y,3/4+z
1/4+x,3/4-y,3/4+z
1/2+x,y,1/2+z
1/2-x,-y,1/2+z
3/4-x,1/4+y,3/4+z
3/4+x,1/4-y,3/4+z
1/2+x,1/2+y,z
1/2-x,1/2-y,z
3/4-x,3/4+y,1/4+z
3/4+x,3/4-y,1/4+z
loop_
_atom_site_type_symbol
_atom_site_label
_atom_site_fract_x
_atom_site_fract_y
_atom_site_fract_z
Si Si1 0.990581 0.822863 0.802090
Si Si2 0.187039 0.866400 0.073958
Si Si3 0.159117 0.344044 0.888512
Si Si4 0.217285 0.047133 0.723231
Si Si5 0.178242 0.176675 0.193266
Si Si6 0.000000 0.000000 0.184894
Si Si7 0.750000 0.750000 0.970958
O O1 0.923824 0.850496 0.753048
O O2 0.984354 0.769266 0.918634
O O3 0.022024 0.801787 0.648980
O O4 0.030012 0.869678 0.898616
O O5 0.143208 0.864116 0.220687
O O6 0.247774 0.904022 0.119424
O O7 0.143451 0.903366 0.955205
O O8 0.206916 0.797893 0.026246
O O9 0.105024 0.305072 0.955711
O O10 0.223228 0.304980 0.872211
O O11 0.202393 0.207503 0.344956
O O12 0.190228 0.227980 0.067311
#
# Coordination Sequence:
#
# PCOD8187497 Si02
#       7
#    16  16  16  16  16   8   8
#     4  10  26  45  70 102 136 186 239 286 364 413
#     4  11  25  41  67 100 141 183 230 289 359 416
#     4  10  23  44  65  98 139 180 231 289 352 426
#     4  11  26  44  70 103 140 186 234 294 353 427
#     4  10  24  43  66  98 136 176 240 287 345 420
#     4  11  25  42  68 104 139 187 232 296 353 425
#     4   9  21  42  68  94 127 187 230 286 349 413
#
# _framework density 22.613817000000001
#
# number of rings (size 3 to 8) (size 9 to 14) (size 15 to 20)
#    0.000    1.667    0.000    1.500    9.333    9.333 
#    0.000    0.000    0.000    0.000    0.000    0.000 
#    0.000    0.000    0.000    0.000    0.000    0.000 
#
# Total GULP energy -297409.186354 kJ/mol
# GULP energy per Si atom -12392.049431 kJ/mol
# Density = 2.256235 g / cm^3
# Si number density = 22.613817 Si / 1000 Ang^3
#
#
#
# Elastic Constant Matrix: (Units=GPa)
#
#
# Indices 1 2 3 4 5 6 
#
# 1 82.7128 29.0850 22.7346 0.0006 -0.0004 -0.0003
# 2 29.0850 134.4117 46.0233 0.0003 -0.0003 -0.0002
# 3 22.7346 46.0233 70.1489 0.0028 -0.0023 -0.0012
# 4 0.0006 0.0003 0.0028 40.6684 -0.0010 -0.0007
# 5 -0.0004 -0.0003 -0.0023 -0.0010 12.0898 0.0008
# 6 -0.0003 -0.0002 -0.0012 -0.0007 0.0008 38.7256
#
#
#
# Elastic Compliance Matrix: (Units=1/GPa)
#
#
# Indices 1 2 3 4 5 6 
#
# 1 0.013621 -0.001852 -0.003199 0.000000 0.000000 0.000000
# 2 -0.001852 0.009847 -0.005860 0.000000 -0.000001 0.000000
# 3 -0.003199 -0.005860 0.019137 -0.000001 0.000003 0.000001
# 4 0.000000 0.000000 -0.000001 0.024589 0.000002 0.000000
# 5 0.000000 -0.000001 0.000003 0.000002 0.082715 -0.000002
# 6 0.000000 0.000000 0.000001 0.000000 -0.000002 0.025823
#
#
# Mechanical properties :
#
#
# Convention : Reuss Voigt Hill
#
# Bulk Modulus (GPa) = 48.11910 53.66213 50.89062
# Shear Modulus (GPa) = 24.45207 30.92545 27.68876
#
# Velocity S-wave (km/s) = 3.29186 3.70205 3.50296
# Velocity P-wave (km/s) = 5.98108 6.48497 6.23812
#
# Compressibility (1/GPa) = 0.02078177
#
# Stress axis : x y z
#
# Youngs Moduli (GPa) = 73.41823 101.55206 52.25445
#
# Poissons Ratio (x) = 0.18806 0.16718
# Poissons Ratio (y) = 0.13596 0.30623
# Poissons Ratio (z) = 0.23489 0.59513
#
# Static dielectric constant tensor:
#      x y z
#    x 3.810360 0.000010 0.000000 
#    y 0.000010 4.277100 0.000000 
#    z 0.000000 0.000000 4.110000 
# 
# 
# High freq. dielectric constant tensor:
#      x y z
#    x 1.881900 0.000000 0.000000 
#    y 0.000000 1.909390 0.000000 
#    z 0.000000 0.000000 1.896150 
# 
# From -- ./inp_files/4296.got.cif
#   From: 2010.06.25/outbox.cif.g09.slc.cpg/sg43_3_cif.got.tgz:4296.got - 2010.06.26 16:48:59.
