data_PCOD8187818
_publ_section_title
;
Structure prediction by ZEFSAII (Michael W. Deem and Ramdas Pophale) SiO2 
 PCOD8187818
Probable space group: F D D 2
;
_chemical_formula_sum "Si O2"
_cell_formula_units_Z 112
_cell_length_a 13.985355
_cell_length_b 26.080558
_cell_length_c 13.326977
_cell_angle_alpha 90.000000
_cell_angle_beta 90.000000
_cell_angle_gamma 90.000000
_cell_volume 4860.959717
_symmetry_space_group_name_H-M "F D D 2"
_symmetry_group_IT_number 43
_symmetry_cell_setting 'orthorhombic'
loop_
_space_group_symop_operation_xyz
x,y,z
-x,-y,z
1/4-x,1/4+y,1/4+z
1/4+x,1/4-y,1/4+z
x,1/2+y,1/2+z
-x,1/2-y,1/2+z
1/4-x,3/4+y,3/4+z
1/4+x,3/4-y,3/4+z
1/2+x,y,1/2+z
1/2-x,-y,1/2+z
3/4-x,1/4+y,3/4+z
3/4+x,1/4-y,3/4+z
1/2+x,1/2+y,z
1/2-x,1/2-y,z
3/4-x,3/4+y,1/4+z
3/4+x,3/4-y,1/4+z
loop_
_atom_site_type_symbol
_atom_site_label
_atom_site_fract_x
_atom_site_fract_y
_atom_site_fract_z
Si Si1 0.143963 0.235731 0.827530
Si Si2 0.356974 0.122528 0.995721
Si Si3 0.810974 0.933579 0.905566
Si Si4 0.769557 0.108476 0.097896
Si Si5 0.247244 0.513994 0.754046
Si Si6 0.327251 0.427523 0.425773
Si Si7 0.886540 0.504256 0.585075
O O1 0.250000 0.250000 0.859420
O O2 0.150164 0.182973 0.768113
O O3 0.091311 0.275323 0.753160
O O4 0.087704 0.230442 0.931807
O O5 0.349691 0.156530 0.097877
O O6 0.252126 0.113792 0.948958
O O7 0.429225 0.153011 0.921136
O O8 0.748424 0.962221 0.820333
O O9 0.845253 0.972393 0.990914
O O10 0.820758 0.159742 0.134371
O O11 0.845300 0.062017 0.086035
O O12 0.723994 0.118087 0.987894
O O13 0.243412 0.560087 0.833947
O O14 0.150225 0.519358 0.689368
O O15 0.000000 0.500000 0.580583
#
# Coordination Sequence:
#
# PCOD8187818 Si02
#       7
#    16  16  16  16  16  16  16
#     4  12  25  47  74 114 147 196 251 318 390 449
#     4  12  24  45  81 108 146 195 259 320 375 465
#     4  12  26  50  76 111 154 200 259 316 392 463
#     4  12  25  46  76 112 144 196 266 311 389 466
#     4  12  24  50  72 104 160 194 250 321 384 464
#     4  12  26  46  75 108 151 198 253 319 382 468
#     4  12  28  51  72 108 161 206 251 320 393 460
#
# _framework density 23.040717000000001
#
# number of rings (size 3 to 8) (size 9 to 14) (size 15 to 20)
#    0.000    0.000    8.571    0.857    4.000    2.286 
#    0.000    0.000    0.000    0.000    0.000    0.000 
#    0.000    0.000    0.000    0.000    0.000    0.000 
#
# Total GULP energy -347041.148005 kJ/mol
# GULP energy per Si atom -12394.326714 kJ/mol
# Density = 2.298827 g / cm^3
# Si number density = 23.040717 Si / 1000 Ang^3
#
#
#
# Elastic Constant Matrix: (Units=GPa)
#
#
# Indices 1 2 3 4 5 6 
#
# 1 135.3307 17.7219 70.0840 0.0000 0.0000 0.0000
# 2 17.7219 58.6653 51.2076 0.0000 0.0000 0.0000
# 3 70.0840 51.2076 181.3031 0.0000 0.0000 0.0000
# 4 0.0000 0.0000 0.0000 39.8893 0.0000 0.0000
# 5 0.0000 0.0000 0.0000 0.0000 24.3950 0.0000
# 6 0.0000 0.0000 0.0000 0.0000 0.0000 32.5455
#
#
#
# Elastic Compliance Matrix: (Units=1/GPa)
#
#
# Indices 1 2 3 4 5 6 
#
# 1 0.009247 0.000434 -0.003697 0.000000 0.000000 0.000000
# 2 0.000434 0.022644 -0.006563 0.000000 0.000000 0.000000
# 3 -0.003697 -0.006563 0.008798 0.000000 0.000000 0.000000
# 4 0.000000 0.000000 0.000000 0.025069 0.000000 0.000000
# 5 0.000000 0.000000 0.000000 0.000000 0.040992 0.000000
# 6 0.000000 0.000000 0.000000 0.000000 0.000000 0.030726
#
#
# Mechanical properties :
#
#
# Convention : Reuss Voigt Hill
#
# Bulk Modulus (GPa) = 47.53723 72.59181 60.06452
# Shear Modulus (GPa) = 30.46144 35.11833 32.78988
#
# Velocity S-wave (km/s) = 3.63997 3.90832 3.77653
# Velocity P-wave (km/s) = 6.19213 7.20700 6.71876
#
# Compressibility (1/GPa) = 0.02103614
#
# Stress axis : x y z
#
# Youngs Moduli (GPa) = 108.14205 44.16246 113.65656
#
# Poissons Ratio (x) = -0.01915 0.42019
# Poissons Ratio (y) = -0.04689 0.74594
# Poissons Ratio (z) = 0.39980 0.28984
#
# Static dielectric constant tensor:
#      x y z
#    x 4.151960 0.000000 0.000000 
#    y 0.000000 4.164280 0.000000 
#    z 0.000000 0.000000 4.553000 
# 
# 
# High freq. dielectric constant tensor:
#      x y z
#    x 1.897930 0.000000 0.000000 
#    y 0.000000 1.905220 0.000000 
#    z 0.000000 0.000000 1.933900 
# 
# From -- ./inp_files/6310.got.cif
#   From: 2010.06.25/outbox.cif.g09.slc.cpg/sg43_4_cif.got.tgz:6310.got - 2010.06.26 16:48:59.
