data_PCOD8187956
_publ_section_title
;
Structure prediction by ZEFSAII (Michael W. Deem and Ramdas Pophale) SiO2 
 PCOD8187956
Probable space group: I M M 2
;
_chemical_formula_sum "Si O2"
_cell_formula_units_Z 56
_cell_length_a 18.575330
_cell_length_b 12.009576
_cell_length_c 14.321578
_cell_angle_alpha 90.000000
_cell_angle_beta 90.000000
_cell_angle_gamma 90.000000
_cell_volume 3194.883934
_symmetry_space_group_name_H-M "I M M 2"
_symmetry_group_IT_number 44
_symmetry_cell_setting 'orthorhombic'
loop_
_space_group_symop_operation_xyz
x,y,z
-x,-y,z
-x,y,z
x,-y,z
1/2+x,1/2+y,1/2+z
1/2-x,1/2-y,1/2+z
1/2-x,1/2+y,1/2+z
1/2+x,1/2-y,1/2+z
loop_
_atom_site_type_symbol
_atom_site_label
_atom_site_fract_x
_atom_site_fract_y
_atom_site_fract_z
Si Si1 0.420149 0.500000 0.730450
Si Si2 0.825839 0.793569 0.226206
Si Si3 0.918996 0.368549 0.124330
Si Si4 0.190174 0.806999 0.446176
Si Si5 0.307006 0.868160 0.103566
Si Si6 0.079809 0.631082 0.753684
Si Si7 0.649158 0.872018 0.438770
Si Si8 0.082216 0.000000 0.451487
O O1 0.500000 0.500000 0.687383
O O2 0.378798 0.391973 0.694744
O O3 0.422953 0.500000 0.841225
O O4 0.863793 0.678250 0.200300
O O5 0.814136 0.785893 0.336277
O O6 0.752708 0.812617 0.169742
O O7 0.910454 0.500000 0.126797
O O8 0.000000 0.331333 0.148483
O O9 0.897629 0.319485 0.022699
O O10 0.187192 0.690989 0.502887
O O11 0.267227 0.861927 0.463421
O O12 0.126846 0.889726 0.482338
O O13 0.381928 0.843900 0.155683
O O14 0.292592 0.000000 0.089594
O O15 0.074803 0.500000 0.767886
O O16 0.125215 0.683965 0.840461
O O17 0.000000 0.684215 0.751344
O O18 0.628923 0.000000 0.431433
O O19 0.000000 0.000000 0.493209
#
# Coordination Sequence:
#
# PCOD8187956 Si02
#       8
#     4   8   8   8   8   8   8   4
#     4   9  18  32  54  80 103 135 182 229 272 320
#     4  11  20  34  56  79 110 148 186 230 277 332
#     4  10  21  35  53  81 115 145 181 230 287 345
#     4  11  21  34  58  84 110 144 187 234 278 327
#     4  11  22  36  55  81 115 150 186 228 276 334
#     4   9  18  32  53  79 107 138 176 226 279 325
#     4  10  17  30  55  82 107 134 174 230 282 324
#     4   9  20  36  56  82 109 139 182 231 274 322
#
# _framework density 17.528023000000001
#
# number of rings (size 3 to 8) (size 9 to 14) (size 15 to 20)
#    0.000    1.857    4.286    0.857    0.000    3.429 
#    0.000    0.000    0.000    1.714    0.000    0.000 
#    0.000    0.000    0.000    0.000    0.000    0.000 
#
# Total GULP energy -347055.003329 kJ/mol
# GULP energy per Si atom -12394.821547 kJ/mol
# Density = 1.748813 g / cm^3
# Si number density = 17.528023 Si / 1000 Ang^3
#
#
#
# Elastic Constant Matrix: (Units=GPa)
#
#
# Indices 1 2 3 4 5 6 
#
# 1 129.7945 39.8393 29.7267 0.0000 0.0000 0.0000
# 2 39.8393 53.1658 50.1873 0.0000 0.0000 0.0000
# 3 29.7267 50.1873 65.4373 0.0000 0.0000 0.0000
# 4 0.0000 0.0000 0.0000 24.3677 0.0000 0.0000
# 5 0.0000 0.0000 0.0000 0.0000 24.9271 0.0000
# 6 0.0000 0.0000 0.0000 0.0000 0.0000 23.3449
#
#
#
# Elastic Compliance Matrix: (Units=1/GPa)
#
#
# Indices 1 2 3 4 5 6 
#
# 1 0.010362 -0.012033 0.004521 0.000000 0.000000 0.000000
# 2 -0.012033 0.082118 -0.057515 0.000000 0.000000 0.000000
# 3 0.004521 -0.057515 0.057339 0.000000 0.000000 0.000000
# 4 0.000000 0.000000 0.000000 0.041038 0.000000 0.000000
# 5 0.000000 0.000000 0.000000 0.000000 0.040117 0.000000
# 6 0.000000 0.000000 0.000000 0.000000 0.000000 0.042836
#
#
# Mechanical properties :
#
#
# Convention : Reuss Voigt Hill
#
# Bulk Modulus (GPa) = 50.58914 54.21159 52.40036
# Shear Modulus (GPa) = 12.18170 23.10421 17.64295
#
# Velocity S-wave (km/s) = 2.63912 3.63454 3.17607
# Velocity P-wave (km/s) = 6.18151 6.97201 6.58863
#
# Compressibility (1/GPa) = 0.01976709
#
# Stress axis : x y z
#
# Youngs Moduli (GPa) = 96.50273 12.17755 17.44021
#
# Poissons Ratio (x) = 0.14653 -0.07885
# Poissons Ratio (y) = 1.16122 1.00307
# Poissons Ratio (z) = -0.43632 0.70039
#
# Static dielectric constant tensor:
#      x y z
#    x 3.604230 0.000000 0.000000 
#    y 0.000000 3.004760 0.000000 
#    z 0.000000 0.000000 3.236950 
# 
# 
# High freq. dielectric constant tensor:
#      x y z
#    x 1.695800 0.000000 0.000000 
#    y 0.000000 1.644140 0.000000 
#    z 0.000000 0.000000 1.668140 
# 
# From -- ./inp_files/19005.got.cif
#   From: 2010.03.12/outbox.cif.g09.slc.cpg/sg44_10_cif.got.tgz:19005.got - 2010.04.14 02:36:11.
