data_PCOD8187985
_publ_section_title
;
Structure prediction by ZEFSAII (Michael W. Deem and Ramdas Pophale) SiO2 
 PCOD8187985
Probable space group: I M M 2
;
_chemical_formula_sum "Si O2"
_cell_formula_units_Z 64
_cell_length_a 9.515744
_cell_length_b 25.725701
_cell_length_c 18.318234
_cell_angle_alpha 90.000000
_cell_angle_beta 90.000000
_cell_angle_gamma 90.000000
_cell_volume 4484.288753
_symmetry_space_group_name_H-M "I M M 2"
_symmetry_group_IT_number 44
_symmetry_cell_setting 'orthorhombic'
loop_
_space_group_symop_operation_xyz
x,y,z
-x,-y,z
-x,y,z
x,-y,z
1/2+x,1/2+y,1/2+z
1/2-x,1/2-y,1/2+z
1/2-x,1/2+y,1/2+z
1/2+x,1/2-y,1/2+z
loop_
_atom_site_type_symbol
_atom_site_label
_atom_site_fract_x
_atom_site_fract_y
_atom_site_fract_z
Si Si1 0.164913 0.643785 0.209720
Si Si2 0.333104 0.754820 0.462010
Si Si3 0.161461 0.939621 0.625379
Si Si4 0.160371 0.060065 0.457932
Si Si5 0.334327 0.143999 0.380606
Si Si6 0.336362 0.750585 0.625490
Si Si7 0.655039 0.798976 0.240042
Si Si8 0.657017 0.307533 0.328061
O O1 0.234316 0.592752 0.176032
O O2 0.195750 0.692137 0.156379
O O3 0.234166 0.653595 0.289148
O O4 0.000000 0.634339 0.220531
O O5 0.500000 0.759101 0.462739
O O6 0.273838 0.809118 0.430559
O O7 0.274759 0.746758 0.543634
O O8 0.289698 0.705974 0.410368
O O9 0.202644 0.928928 0.541599
O O10 0.000000 0.923017 0.639626
O O11 0.181888 0.000000 0.644495
O O12 0.259161 0.091258 0.403292
O O13 0.000000 0.076799 0.444879
O O14 0.181875 0.000000 0.439286
O O15 0.500000 0.137417 0.392022
O O16 0.299064 0.155208 0.295436
O O17 0.500000 0.738092 0.627882
O O18 0.262095 0.705837 0.672966
O O19 0.500000 0.810345 0.208163
O O20 0.650953 0.746470 0.285944
O O21 0.500000 0.332369 0.329118
#
# Coordination Sequence:
#
# PCOD8187985 Si02
#       8
#     8   8   8   8   8   8   8   8
#     4  10  18  26  39  59  81 103 129 163 198 228
#     4   8  14  25  40  57  77 103 134 164 192 224
#     4   9  18  31  43  55  75 104 135 163 191 227
#     4   9  18  30  41  56  79 103 129 164 199 227
#     4   9  16  27  42  57  76 104 135 163 192 228
#     4   9  16  25  38  57  80 104 131 162 194 228
#     4   8  15  26  38  54  76 102 131 160 190 227
#     4   8  14  26  41  53  72 104 134 158 188 229
#
# _framework density 14.272052
#
# number of rings (size 3 to 8) (size 9 to 14) (size 15 to 20)
#    0.000    3.250    0.000    3.375    0.000    3.000 
#    0.000    4.375    0.000    0.000    0.000    0.000 
#    0.000    1.000    0.000    9.000    0.000    5.750 
#
# Total GULP energy -396644.203229 kJ/mol
# GULP energy per Si atom -12395.131351 kJ/mol
# Density = 1.423957 g / cm^3
# Si number density = 14.272052 Si / 1000 Ang^3
#
#
#
# Elastic Constant Matrix: (Units=GPa)
#
#
# Indices 1 2 3 4 5 6 
#
# 1 64.0343 39.1835 45.9769 0.0000 0.0000 0.0000
# 2 39.1835 56.2342 40.2913 0.0000 0.0000 0.0000
# 3 45.9769 40.2913 98.1977 -0.0001 0.0000 0.0000
# 4 0.0000 0.0000 -0.0001 26.1308 0.0000 0.0000
# 5 0.0000 0.0000 0.0000 0.0000 21.6795 0.0000
# 6 0.0000 0.0000 0.0000 0.0000 0.0000 22.7068
#
#
#
# Elastic Compliance Matrix: (Units=1/GPa)
#
#
# Indices 1 2 3 4 5 6 
#
# 1 0.031144 -0.015939 -0.008042 0.000000 0.000000 0.000000
# 2 -0.015939 0.033345 -0.006219 0.000000 0.000000 0.000000
# 3 -0.008042 -0.006219 0.016501 0.000000 0.000000 0.000000
# 4 0.000000 0.000000 0.000000 0.038269 0.000000 0.000000
# 5 0.000000 0.000000 0.000000 0.000000 0.046127 0.000000
# 6 0.000000 0.000000 0.000000 0.000000 0.000000 0.044040
#
#
# Mechanical properties :
#
#
# Convention : Reuss Voigt Hill
#
# Bulk Modulus (GPa) = 48.56807 52.15219 50.36013
# Shear Modulus (GPa) = 18.07097 20.30439 19.18768
#
# Velocity S-wave (km/s) = 3.56220 3.77592 3.67062
# Velocity P-wave (km/s) = 7.14305 7.45861 7.30253
#
# Compressibility (1/GPa) = 0.02058966
#
# Stress axis : x y z
#
# Youngs Moduli (GPa) = 32.10889 29.98995 60.60408
#
# Poissons Ratio (x) = 0.47800 0.48738
# Poissons Ratio (y) = 0.51178 0.37689
# Poissons Ratio (z) = 0.25822 0.18650
#
# Static dielectric constant tensor:
#      x y z
#    x 2.739000 0.000000 0.000000 
#    y 0.000000 2.530660 0.000000 
#    z 0.000000 0.000000 2.977140 
# 
# 
# High freq. dielectric constant tensor:
#      x y z
#    x 1.539880 0.000000 0.000000 
#    y 0.000000 1.510190 0.000000 
#    z 0.000000 0.000000 1.536470 
# 
# From -- ./inp_files/20870.got.cif
#   From: 2010.03.12/outbox.cif.g09.slc.cpg/sg44_11_cif.got.tgz:20870.got - 2010.04.14 02:36:11.
