data_PCOD8187466
_publ_section_title
;
Structure prediction by ZEFSAII (Michael W. Deem and Ramdas Pophale) SiO2 
 PCOD8187466
Probable space group: F D D 2
;
_chemical_formula_sum "Si O2"
_cell_formula_units_Z 64
_cell_length_a 10.558232
_cell_length_b 8.216906
_cell_length_c 24.098649
_cell_angle_alpha 90.000000
_cell_angle_beta 90.000000
_cell_angle_gamma 90.000000
_cell_volume 2090.702390
_symmetry_space_group_name_H-M "F D D 2"
_symmetry_group_IT_number 43
_symmetry_cell_setting 'orthorhombic'
loop_
_space_group_symop_operation_xyz
x,y,z
-x,-y,z
1/4-x,1/4+y,1/4+z
1/4+x,1/4-y,1/4+z
x,1/2+y,1/2+z
-x,1/2-y,1/2+z
1/4-x,3/4+y,3/4+z
1/4+x,3/4-y,3/4+z
1/2+x,y,1/2+z
1/2-x,-y,1/2+z
3/4-x,1/4+y,3/4+z
3/4+x,1/4-y,3/4+z
1/2+x,1/2+y,z
1/2-x,1/2-y,z
3/4-x,3/4+y,1/4+z
3/4+x,3/4-y,1/4+z
loop_
_atom_site_type_symbol
_atom_site_label
_atom_site_fract_x
_atom_site_fract_y
_atom_site_fract_z
Si Si1 0.137924 0.574407 0.078160
Si Si2 0.067985 0.330999 0.503545
Si Si3 0.094311 0.644314 0.220592
Si Si4 0.871443 0.811414 0.396356
O O1 0.112069 0.745926 0.163279
O O2 0.236890 0.520684 0.125194
O O3 0.000000 0.500000 0.092251
O O4 0.206032 0.506404 0.021202
O O5 0.151981 0.319409 0.448211
O O6 0.130752 0.274397 0.563809
O O7 0.000000 0.500000 0.509429
O O8 0.978128 0.173499 0.491824
O O9 0.000000 0.500000 0.207049
O O10 0.750000 0.750000 0.358881
#
# Coordination Sequence:
#
# PCOD8187466 Si02
#       4
#    16  16  16  16
#     4   9  22  47  80 117 158 208 269 330 396 480
#     4  10  22  47  79 111 156 210 263 332 403 470
#     4  10  22  47  77 112 161 210 262 334 402 468
#     4  11  23  45  79 120 161 208 265 328 400 482
#
# _framework density 30.611723999999999
#
# number of rings (size 3 to 8) (size 9 to 14) (size 15 to 20)
#    0.000    2.000    0.000    3.750    0.000    2.000 
#    0.000   43.750    0.000    9.000    0.000    0.000 
#    0.000    0.000    0.000    0.000    0.000    0.000 
#
# Total GULP energy -198408.895717 kJ/mol
# GULP energy per Si atom -12400.555982 kJ/mol
# Density = 3.054205 g / cm^3
# Si number density = 30.611724 Si / 1000 Ang^3
#
#
#
# Elastic Constant Matrix: (Units=GPa)
#
#
# Indices 1 2 3 4 5 6 
#
# 1 209.5525 61.6933 62.4830 0.0000 0.0000 0.0000
# 2 61.6933 172.9267 46.6450 0.0000 0.0000 0.0000
# 3 62.4830 46.6450 119.1097 0.0000 0.0000 0.0000
# 4 0.0000 0.0000 0.0000 12.0735 0.0000 0.0000
# 5 0.0000 0.0000 0.0000 0.0000 45.6527 0.0000
# 6 0.0000 0.0000 0.0000 0.0000 0.0000 58.9975
#
#
#
# Elastic Compliance Matrix: (Units=1/GPa)
#
#
# Indices 1 2 3 4 5 6 
#
# 1 0.005959 -0.001434 -0.002564 0.000000 0.000000 0.000000
# 2 -0.001434 0.006811 -0.001915 0.000000 0.000000 0.000000
# 3 -0.002564 -0.001915 0.010491 0.000000 0.000000 0.000000
# 4 0.000000 0.000000 0.000000 0.082826 0.000000 0.000000
# 5 0.000000 0.000000 0.000000 0.000000 0.021905 0.000000
# 6 0.000000 0.000000 0.000000 0.000000 0.000000 0.016950
#
#
# Mechanical properties :
#
#
# Convention : Reuss Voigt Hill
#
# Bulk Modulus (GPa) = 87.46010 93.69237 90.57624
# Shear Modulus (GPa) = 31.13734 45.39592 38.26663
#
# Velocity S-wave (km/s) = 3.19277 3.85510 3.53946
# Velocity P-wave (km/s) = 6.49804 7.10555 6.80857
#
# Compressibility (1/GPa) = 0.01143379
#
# Stress axis : x y z
#
# Youngs Moduli (GPa) = 167.81571 146.82143 95.32242
#
# Poissons Ratio (x) = 0.21057 0.24443
# Poissons Ratio (y) = 0.24068 0.18253
# Poissons Ratio (z) = 0.43033 0.28115
#
# Static dielectric constant tensor:
#      x y z
#    x 5.845840 0.000000 0.000000 
#    y 0.000000 5.650670 0.000000 
#    z 0.000000 0.000000 6.464050 
# 
# 
# High freq. dielectric constant tensor:
#      x y z
#    x 2.290580 0.000000 0.000000 
#    y 0.000000 2.261960 0.000000 
#    z 0.000000 0.000000 2.302770 
# 
# From -- ./inp_files/16892.got.cif
#   From: 2010.06.25/outbox.cif.g09.slc.cpg/sg43_9_cif.got.tgz:16892.got - 2010.06.26 16:48:59.
