data_PCOD8187775
_publ_section_title
;
Structure prediction by ZEFSAII (Michael W. Deem and Ramdas Pophale) SiO2 
 PCOD8187775
Probable space group: F D D 2
;
_chemical_formula_sum "Si O2"
_cell_formula_units_Z 112
_cell_length_a 28.384935
_cell_length_b 15.783323
_cell_length_c 10.715855
_cell_angle_alpha 90.000000
_cell_angle_beta 90.000000
_cell_angle_gamma 90.000000
_cell_volume 4800.795169
_symmetry_space_group_name_H-M "F D D 2"
_symmetry_group_IT_number 43
_symmetry_cell_setting 'orthorhombic'
loop_
_space_group_symop_operation_xyz
x,y,z
-x,-y,z
1/4-x,1/4+y,1/4+z
1/4+x,1/4-y,1/4+z
x,1/2+y,1/2+z
-x,1/2-y,1/2+z
1/4-x,3/4+y,3/4+z
1/4+x,3/4-y,3/4+z
1/2+x,y,1/2+z
1/2-x,-y,1/2+z
3/4-x,1/4+y,3/4+z
3/4+x,1/4-y,3/4+z
1/2+x,1/2+y,z
1/2-x,1/2-y,z
3/4-x,3/4+y,1/4+z
3/4+x,3/4-y,1/4+z
loop_
_atom_site_type_symbol
_atom_site_label
_atom_site_fract_x
_atom_site_fract_y
_atom_site_fract_z
Si Si1 0.510118 0.747359 0.150220
Si Si2 0.239594 0.658845 0.725023
Si Si3 0.671299 0.427992 0.072382
Si Si4 0.595925 0.366801 0.580578
Si Si5 0.052314 0.109395 0.733583
Si Si6 0.201004 0.774465 0.236166
Si Si7 0.107771 0.358594 0.366021
O O1 0.527999 0.718630 0.287898
O O2 0.551755 0.801865 0.082204
O O3 0.461521 0.798098 0.175563
O O4 0.498995 0.665856 0.070090
O O5 0.250000 0.750000 0.790358
O O6 0.273071 0.654776 0.606877
O O7 0.186142 0.652807 0.681744
O O8 0.674691 0.353238 0.171905
O O9 0.640767 0.505873 0.127392
O O10 0.652669 0.393865 0.939402
O O11 0.643285 0.336721 0.511514
O O12 0.583641 0.445491 0.491764
O O13 0.609678 0.389608 0.722936
O O14 0.035360 0.044973 0.628349
O O15 0.250000 0.750000 0.166382
#
# Coordination Sequence:
#
# PCOD8187775 Si02
#       7
#    16  16  16  16  16  16  16
#     4  11  26  49  72 109 151 192 247 315 371 446
#     4  12  26  45  77 108 142 196 248 302 368 447
#     4  11  27  47  72 105 152 189 241 309 373 439
#     4  11  26  46  79 105 145 198 256 299 375 445
#     4  12  25  46  77 105 145 195 247 305 370 437
#     4  12  26  48  73 107 147 189 248 312 364 442
#     4  11  25  50  72 107 149 192 247 305 362 452
#
# _framework density 23.329467000000001
#
# number of rings (size 3 to 8) (size 9 to 14) (size 15 to 20)
#    0.000    0.571    4.286    3.000   16.000    0.571 
#    0.000    0.000    0.000    0.000    0.000    0.000 
#    0.000    0.000    0.000    0.000    0.000    0.000 
#
# Total GULP energy -347058.132076 kJ/mol
# GULP energy per Si atom -12394.933288 kJ/mol
# Density = 2.327637 g / cm^3
# Si number density = 23.329467 Si / 1000 Ang^3
#
#
#
# Elastic Constant Matrix: (Units=GPa)
#
#
# Indices 1 2 3 4 5 6 
#
# 1 88.0806 28.9394 21.6924 0.0000 0.0000 0.0000
# 2 28.9394 119.1900 26.2870 0.0000 0.0000 0.0000
# 3 21.6924 26.2870 44.7005 0.0000 0.0000 0.0000
# 4 0.0000 0.0000 0.0000 45.8903 0.0000 0.0000
# 5 0.0000 0.0000 0.0000 0.0000 39.1155 0.0000
# 6 0.0000 0.0000 0.0000 0.0000 0.0000 29.2121
#
#
#
# Elastic Compliance Matrix: (Units=1/GPa)
#
#
# Indices 1 2 3 4 5 6 
#
# 1 0.013328 -0.002079 -0.005245 0.000000 0.000000 0.000000
# 2 -0.002079 0.009965 -0.004851 0.000000 0.000000 0.000000
# 3 -0.005245 -0.004851 0.027769 0.000000 0.000000 0.000000
# 4 0.000000 0.000000 0.000000 0.021791 0.000000 0.000000
# 5 0.000000 0.000000 0.000000 0.000000 0.025565 0.000000
# 6 0.000000 0.000000 0.000000 0.000000 0.000000 0.034232
#
#
# Mechanical properties :
#
#
# Convention : Reuss Voigt Hill
#
# Bulk Modulus (GPa) = 37.43730 45.08986 41.26358
# Shear Modulus (GPa) = 30.13770 34.51374 32.32572
#
# Velocity S-wave (km/s) = 3.59810 3.85048 3.72643
# Velocity P-wave (km/s) = 5.77441 6.25601 6.02003
#
# Compressibility (1/GPa) = 0.02671133
#
# Stress axis : x y z
#
# Youngs Moduli (GPa) = 75.02906 100.35466 36.01121
#
# Poissons Ratio (x) = 0.20867 0.18888
# Poissons Ratio (y) = 0.15601 0.17469
# Poissons Ratio (z) = 0.39354 0.48681
#
# Static dielectric constant tensor:
#      x y z
#    x 4.390770 0.000000 0.000000 
#    y 0.000000 4.863350 0.000000 
#    z 0.000000 0.000000 4.066590 
# 
# 
# High freq. dielectric constant tensor:
#      x y z
#    x 1.922810 0.000000 0.000000 
#    y 0.000000 1.941290 0.000000 
#    z 0.000000 0.000000 1.908170 
# 
# From -- ./inp_files/8277.got.cif
#   From: 2010.06.25/outbox.cif.g09.slc.cpg/sg43_5_cif.got.tgz:8277.got - 2010.06.26 16:48:59.
