data_PCOD8187579
_publ_section_title
;
Structure prediction by ZEFSAII (Michael W. Deem and Ramdas Pophale) SiO2 
 PCOD8187579
Probable space group: F D D 2
;
_chemical_formula_sum "Si O2"
_cell_formula_units_Z 88
_cell_length_a 17.232864
_cell_length_b 9.400376
_cell_length_c 24.251647
_cell_angle_alpha 90.000000
_cell_angle_beta 90.000000
_cell_angle_gamma 90.000000
_cell_volume 3928.655284
_symmetry_space_group_name_H-M "F D D 2"
_symmetry_group_IT_number 43
_symmetry_cell_setting 'orthorhombic'
loop_
_space_group_symop_operation_xyz
x,y,z
-x,-y,z
1/4-x,1/4+y,1/4+z
1/4+x,1/4-y,1/4+z
x,1/2+y,1/2+z
-x,1/2-y,1/2+z
1/4-x,3/4+y,3/4+z
1/4+x,3/4-y,3/4+z
1/2+x,y,1/2+z
1/2-x,-y,1/2+z
3/4-x,1/4+y,3/4+z
3/4+x,1/4-y,3/4+z
1/2+x,1/2+y,z
1/2-x,1/2-y,z
3/4-x,3/4+y,1/4+z
3/4+x,3/4-y,1/4+z
loop_
_atom_site_type_symbol
_atom_site_label
_atom_site_fract_x
_atom_site_fract_y
_atom_site_fract_z
Si Si1 0.750000 0.250000 0.545090
Si Si2 0.683715 0.634880 0.279975
Si Si3 0.816467 0.526560 0.130249
Si Si4 0.919316 0.683785 0.210700
Si Si5 0.451659 0.870596 0.955312
Si Si6 0.676273 0.488272 0.392500
O O1 0.792130 0.121935 0.577832
O O2 0.815488 0.310629 0.504879
O O3 0.750000 0.750000 0.270138
O O4 0.604721 0.679711 0.247604
O O5 0.706717 0.484974 0.255582
O O6 0.674865 0.606285 0.344641
O O7 0.844438 0.638439 0.175857
O O8 0.738967 0.446286 0.149861
O O9 0.884274 0.407571 0.121139
O O10 0.988506 0.709049 0.167016
O O11 0.500000 0.000000 0.978818
O O12 0.367085 0.932294 0.942239
#
# Coordination Sequence:
#
# PCOD8187579 Si02
#       6
#     8  16  16  16  16  16
#     4  12  26  44  78 106 150 200 240 316 374 446
#     4  12  27  45  74 108 146 195 247 312 376 440
#     4  11  23  47  72 107 150 196 247 301 379 448
#     4  12  26  47  72 113 146 193 253 306 373 451
#     4  10  24  48  72 101 149 195 239 307 377 447
#     4  11  27  46  72 110 146 195 253 309 365 454
#
# _framework density 22.399521
#
# number of rings (size 3 to 8) (size 9 to 14) (size 15 to 20)
#    0.000    0.727    3.636    2.182    7.636    1.455 
#    0.000    0.000    0.000    0.000    0.000    0.000 
#    0.000    0.000    0.000    0.000    0.000    0.000 
#
# Total GULP energy -272699.730051 kJ/mol
# GULP energy per Si atom -12395.442275 kJ/mol
# Density = 2.234854 g / cm^3
# Si number density = 22.399521 Si / 1000 Ang^3
#
#
#
# Elastic Constant Matrix: (Units=GPa)
#
#
# Indices 1 2 3 4 5 6 
#
# 1 80.2318 32.3532 23.6255 0.0000 0.0000 0.0000
# 2 32.3532 109.9652 31.5011 0.0000 0.0000 0.0000
# 3 23.6255 31.5011 75.8281 0.0000 0.0000 0.0000
# 4 0.0000 0.0000 0.0000 497.5944 0.0000 0.0000
# 5 0.0000 0.0000 0.0000 0.0000 -25.9593 0.0000
# 6 0.0000 0.0000 0.0000 0.0000 0.0000 30.0459
#
#
#
# Elastic Compliance Matrix: (Units=1/GPa)
#
#
# Indices 1 2 3 4 5 6 
#
# 1 0.014787 -0.003440 -0.003178 0.000000 0.000000 0.000000
# 2 -0.003440 0.011123 -0.003549 0.000000 0.000000 0.000000
# 3 -0.003178 -0.003549 0.015652 0.000000 0.000000 0.000000
# 4 0.000000 0.000000 0.000000 0.002010 0.000000 0.000000
# 5 0.000000 0.000000 0.000000 0.000000 -0.038522 0.000000
# 6 0.000000 0.000000 0.000000 0.000000 0.000000 0.033282
#
#
# Mechanical properties :
#
#
# Convention : Reuss Voigt Hill
#
# Bulk Modulus (GPa) = 47.10804 48.99831 48.05317
# Shear Modulus (GPa) = 76.05549 112.23921 94.14735
#
# Velocity S-wave (km/s) = 5.83333 7.08637 6.49016
# Velocity P-wave (km/s) = 8.15149 9.42750 8.81262
#
# Compressibility (1/GPa) = 0.02122780
#
# Stress axis : x y z
#
# Youngs Moduli (GPa) = 67.62738 89.90772 63.88902
#
# Poissons Ratio (x) = 0.30929 0.20304
# Poissons Ratio (y) = 0.23265 0.22673
# Poissons Ratio (z) = 0.21492 0.31906
#
# Static dielectric constant tensor:
#      x y z
#    x 4.794550 0.000000 0.000000 
#    y 0.000000 3.246590 0.000000 
#    z 0.000000 0.000000 3.911400 
# 
# 
# High freq. dielectric constant tensor:
#      x y z
#    x 1.882990 0.000000 0.000000 
#    y 0.000000 1.899170 0.000000 
#    z 0.000000 0.000000 1.881540 
# 
# From -- ./inp_files/22344.got.cif
#   From: 2010.06.25/outbox.cif.g09.slc.cpg/sg43_12_cif.got.tgz:22344.got - 2010.06.26 16:48:59.
