data_PCOD8187069
_publ_section_title
;
Structure prediction by ZEFSAII (Michael W. Deem and Ramdas Pophale) SiO2 
 PCOD8187069
Probable space group: F D D 2
;
_chemical_formula_sum "Si O2"
_cell_formula_units_Z 112
_cell_length_a 11.543818
_cell_length_b 32.036372
_cell_length_c 14.257204
_cell_angle_alpha 90.000000
_cell_angle_beta 90.000000
_cell_angle_gamma 90.000000
_cell_volume 5272.628378
_symmetry_space_group_name_H-M "F D D 2"
_symmetry_group_IT_number 43
_symmetry_cell_setting 'orthorhombic'
loop_
_space_group_symop_operation_xyz
x,y,z
-x,-y,z
1/4-x,1/4+y,1/4+z
1/4+x,1/4-y,1/4+z
x,1/2+y,1/2+z
-x,1/2-y,1/2+z
1/4-x,3/4+y,3/4+z
1/4+x,3/4-y,3/4+z
1/2+x,y,1/2+z
1/2-x,-y,1/2+z
3/4-x,1/4+y,3/4+z
3/4+x,1/4-y,3/4+z
1/2+x,1/2+y,z
1/2-x,1/2-y,z
3/4-x,3/4+y,1/4+z
3/4+x,3/4-y,1/4+z
loop_
_atom_site_type_symbol
_atom_site_label
_atom_site_fract_x
_atom_site_fract_y
_atom_site_fract_z
Si Si1 0.338459 0.569596 0.725500
Si Si2 0.801523 0.007163 0.288227
Si Si3 0.569080 0.916213 0.581294
Si Si4 0.000000 0.000000 0.437531
Si Si5 0.032624 0.839807 0.463966
Si Si6 0.500000 0.000000 0.641138
Si Si7 0.009802 0.575977 0.072220
Si Si8 0.400050 0.118204 0.390371
O O1 0.282633 0.532883 0.787757
O O2 0.415372 0.553716 0.639201
O O3 0.432206 0.592855 0.795070
O O4 0.241186 0.597506 0.673308
O O5 0.721107 0.048677 0.280923
O O6 0.884774 0.010595 0.378290
O O7 0.882524 0.000258 0.199262
O O8 0.660653 0.910919 0.662661
O O9 0.501441 0.959803 0.576004
O O10 0.623969 0.911265 0.479057
O O11 0.475732 0.882251 0.608306
O O12 0.962677 0.959097 0.495356
O O13 0.129072 0.838096 0.383532
O O14 0.042667 0.881932 0.525457
#
# Coordination Sequence:
#
# PCOD8187069 Si02
#       8
#    16  16  16   8  16   8  16  16
#     4  11  23  43  64  93 135 173 214 269 336 395
#     4  10  22  41  65  95 128 170 217 274 324 391
#     4  10  20  37  62  96 123 162 218 267 322 377
#     4  11  26  42  69 100 130 174 225 274 330 387
#     4  11  24  40  69  96 135 171 222 272 334 396
#     4   9  18  38  59  92 124 156 201 274 314 373
#     4  12  25  44  66  99 137 175 216 271 335 401
#     4  10  22  37  65  92 126 168 215 271 325 391
#
# _framework density 21.241776999999999
#
# number of rings (size 3 to 8) (size 9 to 14) (size 15 to 20)
#    0.000    1.429    1.429    3.429    6.000    0.000 
#    0.000    5.000    0.000    0.000    0.000    0.000 
#    0.000    0.000    0.000    0.000    0.000    0.000 
#
# Total GULP energy -346965.567290 kJ/mol
# GULP energy per Si atom -12391.627403 kJ/mol
# Density = 2.119343 g / cm^3
# Si number density = 21.241777 Si / 1000 Ang^3
#
#
#
# Elastic Constant Matrix: (Units=GPa)
#
#
# Indices 1 2 3 4 5 6 
#
# 1 37.8447 21.5463 37.2757 0.0000 0.0000 0.0000
# 2 21.5463 127.6507 55.4928 0.0000 0.0000 0.0000
# 3 37.2757 55.4928 119.1166 0.0000 0.0000 0.0000
# 4 0.0000 0.0000 0.0000 29.8790 0.0000 0.0000
# 5 0.0000 0.0000 0.0000 0.0000 30.5763 0.0000
# 6 0.0000 0.0000 0.0000 0.0000 0.0000 28.8903
#
#
#
# Elastic Compliance Matrix: (Units=1/GPa)
#
#
# Indices 1 2 3 4 5 6 
#
# 1 0.038449 -0.001579 -0.011297 0.000000 0.000000 0.000000
# 2 -0.001579 0.009888 -0.004112 0.000000 0.000000 0.000000
# 3 -0.011297 -0.004112 0.013846 0.000000 0.000000 0.000000
# 4 0.000000 0.000000 0.000000 0.033468 0.000000 0.000000
# 5 0.000000 0.000000 0.000000 0.000000 0.032705 0.000000
# 6 0.000000 0.000000 0.000000 0.000000 0.000000 0.034614
#
#
# Mechanical properties :
#
#
# Convention : Reuss Voigt Hill
#
# Bulk Modulus (GPa) = 35.45142 57.02683 46.23913
# Shear Modulus (GPa) = 24.23075 29.22227 26.72651
#
# Velocity S-wave (km/s) = 3.38111 3.71306 3.55097
# Velocity P-wave (km/s) = 5.65404 6.72958 6.21512
#
# Compressibility (1/GPa) = 0.02820761
#
# Stress axis : x y z
#
# Youngs Moduli (GPa) = 26.00820 101.13072 72.22265
#
# Poissons Ratio (x) = 0.15969 0.81586
# Poissons Ratio (y) = 0.04107 0.29701
# Poissons Ratio (z) = 0.29380 0.41590
#
# Static dielectric constant tensor:
#      x y z
#    x 3.749120 0.000000 0.000000 
#    y 0.000000 4.128380 0.000000 
#    z 0.000000 0.000000 4.105250 
# 
# 
# High freq. dielectric constant tensor:
#      x y z
#    x 1.834030 0.000000 0.000000 
#    y 0.000000 1.838160 0.000000 
#    z 0.000000 0.000000 1.838020 
# 
# From -- ./inp_files/9815.got.cif
#   From: 2010.06.25/outbox.cif.g09.slc.cpg/sg43_5_cif.got.tgz:9815.got - 2010.06.26 16:48:59.
