data_PCOD8187564
_publ_section_title
;
Structure prediction by ZEFSAII (Michael W. Deem and Ramdas Pophale) SiO2 
 PCOD8187564
Probable space group: F D D 2
;
_chemical_formula_sum "Si O2"
_cell_formula_units_Z 64
_cell_length_a 17.950224
_cell_length_b 14.299678
_cell_length_c 11.513520
_cell_angle_alpha 90.000000
_cell_angle_beta 90.000000
_cell_angle_gamma 90.000000
_cell_volume 2955.318213
_symmetry_space_group_name_H-M "F D D 2"
_symmetry_group_IT_number 43
_symmetry_cell_setting 'orthorhombic'
loop_
_space_group_symop_operation_xyz
x,y,z
-x,-y,z
1/4-x,1/4+y,1/4+z
1/4+x,1/4-y,1/4+z
x,1/2+y,1/2+z
-x,1/2-y,1/2+z
1/4-x,3/4+y,3/4+z
1/4+x,3/4-y,3/4+z
1/2+x,y,1/2+z
1/2-x,-y,1/2+z
3/4-x,1/4+y,3/4+z
3/4+x,1/4-y,3/4+z
1/2+x,1/2+y,z
1/2-x,1/2-y,z
3/4-x,3/4+y,1/4+z
3/4+x,3/4-y,1/4+z
loop_
_atom_site_type_symbol
_atom_site_label
_atom_site_fract_x
_atom_site_fract_y
_atom_site_fract_z
Si Si1 0.953530 0.223421 0.230130
Si Si2 0.505571 0.898806 0.365497
Si Si3 0.424167 0.032563 0.817466
Si Si4 0.177706 0.851612 0.864613
O O1 0.959868 0.320933 0.296120
O O2 0.898400 0.237548 0.122646
O O3 0.918717 0.145212 0.316116
O O4 0.032991 0.186427 0.184744
O O5 0.467228 0.908854 0.491132
O O6 0.591477 0.874451 0.361495
O O7 0.500000 0.000000 0.303442
O O8 0.500000 0.000000 0.884907
O O9 0.432266 0.996417 0.684292
#
# Coordination Sequence:
#
# PCOD8187564 Si02
#       4
#    16  16  16  16
#     4  11  25  44  71 105 141 185 240 303 354 432
#     4  12  26  44  72 107 144 190 244 302 361 427
#     4  10  24  44  71  98 139 190 233 291 363 436
#     4  11  24  48  75 101 144 196 246 288 364 452
#
# _framework density 21.655874000000001
#
# number of rings (size 3 to 8) (size 9 to 14) (size 15 to 20)
#    0.000    1.000    2.500    3.750   10.500    0.000 
#    4.500    0.000    0.000    0.000    0.000    0.000 
#    0.000    0.000    0.000    0.000    0.000    0.000 
#
# Total GULP energy -198340.732243 kJ/mol
# GULP energy per Si atom -12396.295765 kJ/mol
# Density = 2.160658 g / cm^3
# Si number density = 21.655874 Si / 1000 Ang^3
#
#
#
# Elastic Constant Matrix: (Units=GPa)
#
#
# Indices 1 2 3 4 5 6 
#
# 1 129.4600 30.2340 29.3998 0.0000 0.0000 0.0000
# 2 30.2340 183.1188 43.1505 0.0000 0.0000 0.0000
# 3 29.3998 43.1505 70.5681 0.0000 0.0000 0.0000
# 4 0.0000 0.0000 0.0000 9.9937 0.0000 0.0000
# 5 0.0000 0.0000 0.0000 0.0000 21.0296 0.0000
# 6 0.0000 0.0000 0.0000 0.0000 0.0000 35.1886
#
#
#
# Elastic Compliance Matrix: (Units=1/GPa)
#
#
# Indices 1 2 3 4 5 6 
#
# 1 0.008602 -0.000673 -0.003172 0.000000 0.000000 0.000000
# 2 -0.000673 0.006433 -0.003653 0.000000 0.000000 0.000000
# 3 -0.003172 -0.003653 0.017726 0.000000 0.000000 0.000000
# 4 0.000000 0.000000 0.000000 0.100063 0.000000 0.000000
# 5 0.000000 0.000000 0.000000 0.000000 0.047552 0.000000
# 6 0.000000 0.000000 0.000000 0.000000 0.000000 0.028418
#
#
# Mechanical properties :
#
#
# Convention : Reuss Voigt Hill
#
# Bulk Modulus (GPa) = 56.29242 65.41282 60.85262
# Shear Modulus (GPa) = 21.76633 31.93322 26.84978
#
# Velocity S-wave (km/s) = 3.17377 3.84419 3.52495
# Velocity P-wave (km/s) = 6.28339 7.06929 6.68789
#
# Compressibility (1/GPa) = 0.01776438
#
# Stress axis : x y z
#
# Youngs Moduli (GPa) = 116.25311 155.45173 56.41350
#
# Poissons Ratio (x) = 0.10457 0.17896
# Poissons Ratio (y) = 0.07820 0.20609
# Poissons Ratio (z) = 0.36880 0.56791
#
# Static dielectric constant tensor:
#      x y z
#    x 3.988270 0.000000 0.000000 
#    y 0.000000 4.535020 0.000000 
#    z 0.000000 0.000000 3.645350 
# 
# 
# High freq. dielectric constant tensor:
#      x y z
#    x 1.874460 0.000000 0.000000 
#    y 0.000000 1.867720 0.000000 
#    z 0.000000 0.000000 1.819680 
# 
# From -- ./inp_files/5478.got.cif
#   From: 2010.06.25/outbox.cif.g09.slc.cpg/sg43_3_cif.got.tgz:5478.got - 2010.06.26 16:48:59.
