data_PCOD8187414
_publ_section_title
;
Structure prediction by ZEFSAII (Michael W. Deem and Ramdas Pophale) SiO2 
 PCOD8187414
Probable space group: F D D 2
;
_chemical_formula_sum "Si O2"
_cell_formula_units_Z 112
_cell_length_a 14.792245
_cell_length_b 11.559717
_cell_length_c 28.439684
_cell_angle_alpha 90.000000
_cell_angle_beta 90.000000
_cell_angle_gamma 90.000000
_cell_volume 4863.020047
_symmetry_space_group_name_H-M "F D D 2"
_symmetry_group_IT_number 43
_symmetry_cell_setting 'orthorhombic'
loop_
_space_group_symop_operation_xyz
x,y,z
-x,-y,z
1/4-x,1/4+y,1/4+z
1/4+x,1/4-y,1/4+z
x,1/2+y,1/2+z
-x,1/2-y,1/2+z
1/4-x,3/4+y,3/4+z
1/4+x,3/4-y,3/4+z
1/2+x,y,1/2+z
1/2-x,-y,1/2+z
3/4-x,1/4+y,3/4+z
3/4+x,1/4-y,3/4+z
1/2+x,1/2+y,z
1/2-x,1/2-y,z
3/4-x,3/4+y,1/4+z
3/4+x,3/4-y,1/4+z
loop_
_atom_site_type_symbol
_atom_site_label
_atom_site_fract_x
_atom_site_fract_y
_atom_site_fract_z
Si Si1 0.750000 0.552954 0.848980
Si Si2 0.999831 0.367909 0.435222
Si Si3 0.694147 0.147147 0.788425
Si Si4 0.999831 0.632091 0.762738
Si Si5 0.658245 0.196238 0.268405
Si Si6 0.194146 0.852853 0.909535
Si Si7 0.158246 0.803762 0.429555
O O1 0.813478 0.469855 0.818225
O O2 0.682173 0.627498 0.816394
O O3 0.686521 0.469855 0.879735
O O4 0.817826 0.627499 0.881566
O O5 0.999545 0.365767 0.491605
O O6 0.092699 0.307103 0.418563
O O7 0.000000 0.500000 0.416791
O O8 0.914275 0.295735 0.415864
O O9 0.750000 0.250000 0.813891
O O10 0.592699 0.192897 0.779397
O O11 0.914276 0.704265 0.782096
O O12 0.000000 0.500000 0.781169
O O13 0.999545 0.634232 0.706355
O O14 0.750000 0.250000 0.249010
O O15 0.625000 0.125001 0.223980
O O16 0.250000 0.750000 0.884069
O O17 0.250000 0.750000 0.448951
#
# Coordination Sequence:
#
# PCOD8187414 Si02
#       7
#    16  16  16  16  16  16  16
#     4  12  24  48  72 112 158 190 262 316 378 472
#     4  10  22  44  74 104 145 204 252 310 391 456
#     4  10  22  42  74 108 147 196 259 313 374 460
#     4  10  22  44  74 104 145 204 252 310 391 456
#     4  12  27  47  73 107 149 200 248 315 390 452
#     4  10  22  42  74 108 147 196 259 313 374 460
#     4  12  27  47  73 107 149 200 248 315 390 452
#
# _framework density 23.030956
#
# number of rings (size 3 to 8) (size 9 to 14) (size 15 to 20)
#    0.000    1.143    2.857    2.571    8.000    0.000 
#    0.000   21.429    0.000    0.000    0.000    0.000 
#    0.000    0.000    0.000    0.000    0.000    0.000 
#
# Total GULP energy -347053.868843 kJ/mol
# GULP energy per Si atom -12394.781030 kJ/mol
# Density = 2.297854 g / cm^3
# Si number density = 23.030956 Si / 1000 Ang^3
#
#
#
# Elastic Constant Matrix: (Units=GPa)
#
#
# Indices 1 2 3 4 5 6 
#
# 1 180.8214 93.7059 52.2506 0.0000 0.0000 0.0000
# 2 93.7059 172.8971 71.6750 0.0000 0.0000 0.0000
# 3 52.2506 71.6750 102.3807 0.0000 0.0000 0.0000
# 4 0.0000 0.0000 0.0000 47.1709 0.0000 0.0000
# 5 0.0000 0.0000 0.0000 0.0000 17.0540 0.0000
# 6 0.0000 0.0000 0.0000 0.0000 0.0000 51.9623
#
#
#
# Elastic Compliance Matrix: (Units=1/GPa)
#
#
# Indices 1 2 3 4 5 6 
#
# 1 0.007839 -0.003649 -0.001446 0.000000 0.000000 0.000000
# 2 -0.003649 0.009847 -0.005032 0.000000 0.000000 0.000000
# 3 -0.001446 -0.005032 0.014028 0.000000 0.000000 0.000000
# 4 0.000000 0.000000 0.000000 0.021199 0.000000 0.000000
# 5 0.000000 0.000000 0.000000 0.000000 0.058637 0.000000
# 6 0.000000 0.000000 0.000000 0.000000 0.000000 0.019245
#
#
# Mechanical properties :
#
#
# Convention : Reuss Voigt Hill
#
# Bulk Modulus (GPa) = 87.25296 99.04026 93.14661
# Shear Modulus (GPa) = 32.28507 39.13531 35.71019
#
# Velocity S-wave (km/s) = 3.74814 4.12667 3.94195
# Velocity P-wave (km/s) = 7.52986 8.11186 7.82627
#
# Compressibility (1/GPa) = 0.01146093
#
# Stress axis : x y z
#
# Youngs Moduli (GPa) = 127.56257 101.54905 71.28583
#
# Poissons Ratio (x) = 0.37058 0.10308
# Poissons Ratio (y) = 0.46551 0.35868
# Poissons Ratio (z) = 0.18446 0.51096
#
# Static dielectric constant tensor:
#      x y z
#    x 4.050080 0.000000 0.000000 
#    y 0.000000 4.575230 0.000000 
#    z 0.000000 0.000000 4.082110 
# 
# 
# High freq. dielectric constant tensor:
#      x y z
#    x 1.911800 0.000000 0.000000 
#    y 0.000000 1.917480 0.000000 
#    z 0.000000 0.000000 1.909850 
# 
# From -- ./inp_files/29088.got.cif
#   From: 2010.06.25/outbox.cif.g09.slc.cpg/sg43_15_cif.got.tgz:29088.got - 2010.06.26 16:48:59.
