data_PCOD8187102
_publ_section_title
;
Structure prediction by ZEFSAII (Michael W. Deem and Ramdas Pophale) SiO2 
 PCOD8187102
Probable space group: F D D 2
;
_chemical_formula_sum "Si O2"
_cell_formula_units_Z 120
_cell_length_a 25.348545
_cell_length_b 8.579768
_cell_length_c 27.117874
_cell_angle_alpha 90.000000
_cell_angle_beta 90.000000
_cell_angle_gamma 90.000000
_cell_volume 5897.720935
_symmetry_space_group_name_H-M "F D D 2"
_symmetry_group_IT_number 43
_symmetry_cell_setting 'orthorhombic'
loop_
_space_group_symop_operation_xyz
x,y,z
-x,-y,z
1/4-x,1/4+y,1/4+z
1/4+x,1/4-y,1/4+z
x,1/2+y,1/2+z
-x,1/2-y,1/2+z
1/4-x,3/4+y,3/4+z
1/4+x,3/4-y,3/4+z
1/2+x,y,1/2+z
1/2-x,-y,1/2+z
3/4-x,1/4+y,3/4+z
3/4+x,1/4-y,3/4+z
1/2+x,1/2+y,z
1/2-x,1/2-y,z
3/4-x,3/4+y,1/4+z
3/4+x,3/4-y,1/4+z
loop_
_atom_site_type_symbol
_atom_site_label
_atom_site_fract_x
_atom_site_fract_y
_atom_site_fract_z
Si Si1 0.923180 0.721711 0.665940
Si Si2 0.626242 0.227889 0.375959
Si Si3 0.654137 0.925870 0.325079
Si Si4 0.408808 0.225013 0.415050
Si Si5 0.750000 0.750000 0.356809
Si Si6 0.742872 0.435684 0.606224
Si Si7 0.502303 0.315659 0.746038
Si Si8 0.866192 0.456182 0.472668
O O1 0.867813 0.638704 0.678819
O O2 0.962617 0.605202 0.639615
O O3 0.949476 0.764753 0.717940
O O4 0.910638 0.863901 0.628382
O O5 0.565470 0.252024 0.362763
O O6 0.653503 0.111918 0.335898
O O7 0.623693 0.169635 0.431429
O O8 0.620114 0.851996 0.368590
O O9 0.713968 0.863082 0.323389
O O10 0.627179 0.879257 0.274075
O O11 0.469199 0.256661 0.398836
O O12 0.402505 0.108603 0.462166
O O13 0.750000 0.250000 0.610111
O O14 0.756787 0.496936 0.551740
O O15 0.500000 0.500000 0.745884
O O16 0.554288 0.247410 0.719071
#
# Coordination Sequence:
#
# PCOD8187102 Si02
#       8
#    16  16  16  16   8  16  16  16
#     4  11  23  41  60  97 131 170 215 285 340 395
#     4  11  23  37  65  93 131 164 221 279 331 398
#     4  10  20  39  61  94 121 171 216 267 327 404
#     4  10  22  40  60  90 135 163 217 271 333 394
#     4  10  24  40  60  84 136 166 214 274 338 408
#     4  11  20  40  66  93 124 174 219 272 335 407
#     4  11  20  35  67  94 119 164 226 268 325 399
#     4  11  20  38  67  92 122 167 221 270 322 406
#
# _framework density 20.346843
#
# number of rings (size 3 to 8) (size 9 to 14) (size 15 to 20)
#    0.000    1.333    5.333    3.200    0.000    1.600 
#    4.800    1.333    0.000    1.600    0.000    0.000 
#    0.000    0.000    0.000    0.000    0.000    0.000 
#
# Total GULP energy -371857.549760 kJ/mol
# GULP energy per Si atom -12395.251659 kJ/mol
# Density = 2.030053 g / cm^3
# Si number density = 20.346843 Si / 1000 Ang^3
#
#
#
# Elastic Constant Matrix: (Units=GPa)
#
#
# Indices 1 2 3 4 5 6 
#
# 1 100.3243 37.8244 4.8651 0.0000 0.0000 -0.0001
# 2 37.8244 103.3811 31.2224 0.0000 -0.0001 -0.0002
# 3 4.8651 31.2224 62.2434 0.0000 0.0000 0.0000
# 4 0.0000 0.0000 0.0000 15.0038 0.0000 0.0000
# 5 0.0000 -0.0001 0.0000 0.0000 32.9965 0.0001
# 6 -0.0001 -0.0002 0.0000 0.0000 0.0001 35.3168
#
#
#
# Elastic Compliance Matrix: (Units=1/GPa)
#
#
# Indices 1 2 3 4 5 6 
#
# 1 0.011673 -0.004708 0.001449 0.000000 0.000000 0.000000
# 2 -0.004708 0.013299 -0.006303 0.000000 0.000000 0.000000
# 3 0.001449 -0.006303 0.019114 0.000000 0.000000 0.000000
# 4 0.000000 0.000000 0.000000 0.066650 0.000000 0.000000
# 5 0.000000 0.000000 0.000000 0.000000 0.030306 0.000000
# 6 0.000000 0.000000 0.000000 0.000000 0.000000 0.028315
#
#
# Mechanical properties :
#
#
# Convention : Reuss Voigt Hill
#
# Bulk Modulus (GPa) = 40.06077 45.97475 43.01776
# Shear Modulus (GPa) = 25.40619 29.46587 27.43603
#
# Velocity S-wave (km/s) = 3.53747 3.80962 3.67606
# Velocity P-wave (km/s) = 6.03461 6.48040 6.26147
#
# Compressibility (1/GPa) = 0.02496208
#
# Stress axis : x y z
#
# Youngs Moduli (GPa) = 85.67095 75.19210 52.31649
#
# Poissons Ratio (x) = 0.35404 -0.07583
# Poissons Ratio (y) = 0.40338 0.32976
# Poissons Ratio (z) = -0.12418 0.47395
#
# Static dielectric constant tensor:
#      x y z
#    x 4.098490 0.000000 0.000000 
#    y 0.000000 3.912870 0.000000 
#    z 0.000000 0.000000 3.869470 
# 
# 
# High freq. dielectric constant tensor:
#      x y z
#    x 1.803650 0.000000 0.000000 
#    y 0.000000 1.780250 0.000000 
#    z 0.000000 0.000000 1.783180 
# 
# From -- ./inp_files/22827.got.cif
#   From: 2010.06.25/outbox.cif.g09.slc.cpg/sg43_12_cif.got.tgz:22827.got - 2010.06.26 16:48:59.
