data_PCOD8187077
_publ_section_title
;
Structure prediction by ZEFSAII (Michael W. Deem and Ramdas Pophale) SiO2 
 PCOD8187077
Probable space group: F D D 2
;
_chemical_formula_sum "Si O2"
_cell_formula_units_Z 104
_cell_length_a 19.182264
_cell_length_b 9.194265
_cell_length_c 26.335627
_cell_angle_alpha 90.000000
_cell_angle_beta 90.000000
_cell_angle_gamma 90.000000
_cell_volume 4644.730748
_symmetry_space_group_name_H-M "F D D 2"
_symmetry_group_IT_number 43
_symmetry_cell_setting 'orthorhombic'
loop_
_space_group_symop_operation_xyz
x,y,z
-x,-y,z
1/4-x,1/4+y,1/4+z
1/4+x,1/4-y,1/4+z
x,1/2+y,1/2+z
-x,1/2-y,1/2+z
1/4-x,3/4+y,3/4+z
1/4+x,3/4-y,3/4+z
1/2+x,y,1/2+z
1/2-x,-y,1/2+z
3/4-x,1/4+y,3/4+z
3/4+x,1/4-y,3/4+z
1/2+x,1/2+y,z
1/2-x,1/2-y,z
3/4-x,3/4+y,1/4+z
3/4+x,3/4-y,1/4+z
loop_
_atom_site_type_symbol
_atom_site_label
_atom_site_fract_x
_atom_site_fract_y
_atom_site_fract_z
Si Si1 0.104956 0.782821 0.960440
Si Si2 0.580748 0.480176 0.733752
Si Si3 0.947979 0.756635 0.164382
Si Si4 0.360561 0.507333 0.420415
Si Si5 0.854187 0.136545 0.586797
Si Si6 0.000000 0.500000 0.419231
Si Si7 0.921125 0.056911 0.312932
O O1 0.091115 0.615518 0.945670
O O2 0.035087 0.879170 0.955815
O O3 0.161173 0.836284 0.917603
O O4 0.135199 0.780014 0.017244
O O5 0.500000 0.500000 0.720587
O O6 0.594077 0.318996 0.712260
O O7 0.626246 0.593912 0.700641
O O8 0.596633 0.490794 0.793348
O O9 0.930937 0.663241 0.112590
O O10 0.028836 0.778974 0.174248
O O11 0.379252 0.515753 0.362317
O O12 0.801684 0.162695 0.632693
O O13 0.837469 0.983055 0.558885
O O14 0.000000 0.000000 0.316282
#
# Coordination Sequence:
#
# PCOD8187077 Si02
#       7
#    16  16  16  16  16   8  16
#     4  11  24  44  68  95 140 177 231 287 349 415
#     4  10  20  37  68  91 126 177 228 274 344 409
#     4  10  23  41  65  98 132 174 231 287 346 415
#     4  11  22  43  65  97 132 175 227 289 335 414
#     4  11  21  41  67  94 132 181 226 281 350 422
#     4  10  24  44  66 102 140 178 230 298 346 414
#     4  12  25  40  67  99 134 180 234 282 349 423
#
# _framework density 22.390964
#
# number of rings (size 3 to 8) (size 9 to 14) (size 15 to 20)
#    0.000    1.231    3.846    2.308    2.154    2.462 
#    8.308    0.000    0.000    0.000    0.000    0.000 
#    0.000    0.000    0.000    0.000    0.000    0.000 
#
# Total GULP energy -322199.931419 kJ/mol
# GULP energy per Si atom -12392.305055 kJ/mol
# Density = 2.234000 g / cm^3
# Si number density = 22.390964 Si / 1000 Ang^3
#
#
#
# Elastic Constant Matrix: (Units=GPa)
#
#
# Indices 1 2 3 4 5 6 
#
# 1 54.3554 29.0209 28.7050 0.0000 0.0000 0.0000
# 2 29.0209 88.1096 38.7595 0.0000 0.0000 0.0000
# 3 28.7050 38.7595 118.2065 0.0000 0.0000 0.0000
# 4 0.0000 0.0000 0.0000 39.8001 0.0000 0.0000
# 5 0.0000 0.0000 0.0000 0.0000 33.9625 0.0000
# 6 0.0000 0.0000 0.0000 0.0000 0.0000 32.9303
#
#
#
# Elastic Compliance Matrix: (Units=1/GPa)
#
#
# Indices 1 2 3 4 5 6 
#
# 1 0.023649 -0.006150 -0.003726 0.000000 0.000000 0.000000
# 2 -0.006150 0.014862 -0.003380 0.000000 0.000000 0.000000
# 3 -0.003726 -0.003380 0.010473 0.000000 0.000000 0.000000
# 4 0.000000 0.000000 0.000000 0.025126 0.000000 0.000000
# 5 0.000000 0.000000 0.000000 0.000000 0.029444 0.000000
# 6 0.000000 0.000000 0.000000 0.000000 0.000000 0.030367
#
#
# Mechanical properties :
#
#
# Convention : Reuss Voigt Hill
#
# Bulk Modulus (GPa) = 44.50076 50.40471 47.45274
# Shear Modulus (GPa) = 29.77549 32.28429 31.02989
#
# Velocity S-wave (km/s) = 3.65060 3.80128 3.72670
# Velocity P-wave (km/s) = 6.13895 6.46733 6.30528
#
# Compressibility (1/GPa) = 0.02247152
#
# Stress axis : x y z
#
# Youngs Moduli (GPa) = 42.28527 67.28605 95.48516
#
# Poissons Ratio (x) = 0.41382 0.35580
# Poissons Ratio (y) = 0.26006 0.32271
# Poissons Ratio (z) = 0.15756 0.22741
#
# Static dielectric constant tensor:
#      x y z
#    x 3.936360 0.000000 0.000000 
#    y 0.000000 4.391950 0.000000 
#    z 0.000000 0.000000 4.028320 
# 
# 
# High freq. dielectric constant tensor:
#      x y z
#    x 1.865660 0.000000 0.000000 
#    y 0.000000 1.894460 0.000000 
#    z 0.000000 0.000000 1.884500 
# 
# From -- ./inp_files/26340.got.cif
#   From: 2010.06.25/outbox.cif.g09.slc.cpg/sg43_14_cif.got.tgz:26340.got - 2010.06.26 16:48:59.
