data_PCOD8187917
_publ_section_title
;
Structure prediction by ZEFSAII (Michael W. Deem and Ramdas Pophale) SiO2 
 PCOD8187917
Probable space group: I M M 2
;
_chemical_formula_sum "Si O2"
_cell_formula_units_Z 64
_cell_length_a 9.238112
_cell_length_b 30.333588
_cell_length_c 14.443863
_cell_angle_alpha 90.000000
_cell_angle_beta 90.000000
_cell_angle_gamma 90.000000
_cell_volume 4047.532712
_symmetry_space_group_name_H-M "I M M 2"
_symmetry_group_IT_number 44
_symmetry_cell_setting 'orthorhombic'
loop_
_space_group_symop_operation_xyz
x,y,z
-x,-y,z
-x,y,z
x,-y,z
1/2+x,1/2+y,1/2+z
1/2-x,1/2-y,1/2+z
1/2-x,1/2+y,1/2+z
1/2+x,1/2-y,1/2+z
loop_
_atom_site_type_symbol
_atom_site_label
_atom_site_fract_x
_atom_site_fract_y
_atom_site_fract_z
Si Si1 0.172376 0.951887 0.258630
Si Si2 0.330611 0.549818 0.546340
Si Si3 0.329503 0.867927 0.999281
Si Si4 0.662059 0.675699 0.657900
Si Si5 0.665058 0.222730 0.672264
Si Si6 0.827158 0.201551 0.496303
Si Si7 0.332035 0.634177 0.849385
Si Si8 0.171400 0.285542 0.379807
O O1 0.217316 0.942256 0.152765
O O2 0.238271 0.913828 0.325760
O O3 0.000000 0.951794 0.262739
O O4 0.231471 0.000000 0.290012
O O5 0.500000 0.557942 0.533359
O O6 0.289811 0.500000 0.516185
O O7 0.245062 0.584579 0.481509
O O8 0.500000 0.874461 0.999737
O O9 0.280722 0.832690 0.921553
O O10 0.279805 0.849786 0.098285
O O11 0.500000 0.658401 0.632961
O O12 0.674105 0.727113 0.639908
O O13 0.695071 0.667490 0.765133
O O14 0.500000 0.205487 0.669519
O O15 0.760512 0.196070 0.598324
O O16 0.732214 0.216822 0.775019
O O17 0.770024 0.158357 0.440303
O O18 0.769283 0.245467 0.443316
O O19 0.000000 0.202808 0.503813
O O20 0.500000 0.626211 0.865630
O O21 0.000000 0.280567 0.375985
#
# Coordination Sequence:
#
# PCOD8187917 Si02
#       8
#     8   8   8   8   8   8   8   8
#     4   8  13  22  40  66  89 111 146 184 212 253
#     4   9  17  30  48  68  91 119 152 187 221 266
#     4  11  20  29  44  67  94 123 151 186 228 270
#     4  10  17  27  45  65  87 119 157 187 216 263
#     4  10  19  32  47  63  87 122 158 190 221 263
#     4  10  18  30  46  65  89 117 151 190 228 265
#     4   9  15  25  44  64  86 121 153 178 217 271
#     4   9  18  31  45  62  88 122 154 183 225 274
#
# _framework density 15.812103
#
# number of rings (size 3 to 8) (size 9 to 14) (size 15 to 20)
#    0.000    2.500    3.750    1.125    0.000    0.250 
#    0.000    2.500    0.000    0.000    0.000    0.875 
#    0.000    3.000    0.000    0.000    0.000    0.000 
#
# Total GULP energy -396566.523213 kJ/mol
# GULP energy per Si atom -12392.703850 kJ/mol
# Density = 1.577611 g / cm^3
# Si number density = 15.812103 Si / 1000 Ang^3
#
#
#
# Elastic Constant Matrix: (Units=GPa)
#
#
# Indices 1 2 3 4 5 6 
#
# 1 30.3338 27.8515 18.5045 0.0000 0.0000 0.0000
# 2 27.8515 106.4305 40.1665 -0.0001 0.0000 0.0000
# 3 18.5045 40.1665 70.6277 0.0002 0.0000 -0.0001
# 4 0.0000 -0.0001 0.0002 25.4663 0.0000 0.0000
# 5 0.0000 0.0000 0.0000 0.0000 21.2776 0.0000
# 6 0.0000 0.0000 -0.0001 0.0000 0.0000 19.2782
#
#
#
# Elastic Compliance Matrix: (Units=1/GPa)
#
#
# Indices 1 2 3 4 5 6 
#
# 1 0.045676 -0.009469 -0.006582 0.000000 0.000000 0.000000
# 2 -0.009469 0.013926 -0.005439 0.000000 0.000000 0.000000
# 3 -0.006582 -0.005439 0.018977 0.000000 0.000000 0.000000
# 4 0.000000 0.000000 0.000000 0.039268 0.000000 0.000000
# 5 0.000000 0.000000 0.000000 0.000000 0.046998 0.000000
# 6 0.000000 0.000000 0.000000 0.000000 0.000000 0.051872
#
#
# Mechanical properties :
#
#
# Convention : Reuss Voigt Hill
#
# Bulk Modulus (GPa) = 28.09107 42.27078 35.18092
# Shear Modulus (GPa) = 18.41200 21.26240 19.83720
#
# Velocity S-wave (km/s) = 3.41607 3.67098 3.54582
# Velocity P-wave (km/s) = 5.77611 6.69024 6.24991
#
# Compressibility (1/GPa) = 0.03559850
#
# Stress axis : x y z
#
# Youngs Moduli (GPa) = 21.89353 71.80628 52.69645
#
# Poissons Ratio (x) = 0.67991 0.34686
# Poissons Ratio (y) = 0.20730 0.28663
# Poissons Ratio (z) = 0.14411 0.39057
#
# Static dielectric constant tensor:
#      x y z
#    x 2.681210 0.000000 0.000000 
#    y 0.000000 3.351170 0.000000 
#    z 0.000000 0.000000 2.917250 
# 
# 
# High freq. dielectric constant tensor:
#      x y z
#    x 1.570270 0.000000 0.000000 
#    y 0.000000 1.609250 0.000000 
#    z 0.000000 0.000000 1.581100 
# 
# From -- ./inp_files/17102.got.cif
#   From: 2010.03.12/outbox.cif.g09.slc.cpg/sg44_9_cif.got.tgz:17102.got - 2010.04.14 02:36:11.
