data_PCOD8187922
_publ_section_title
;
Structure prediction by ZEFSAII (Michael W. Deem and Ramdas Pophale) SiO2 
 PCOD8187922
Probable space group: I M M 2
;
_chemical_formula_sum "Si O2"
_cell_formula_units_Z 64
_cell_length_a 20.883783
_cell_length_b 9.426271
_cell_length_c 19.805219
_cell_angle_alpha 90.000000
_cell_angle_beta 90.000000
_cell_angle_gamma 90.000000
_cell_volume 3898.780114
_symmetry_space_group_name_H-M "I M M 2"
_symmetry_group_IT_number 44
_symmetry_cell_setting 'orthorhombic'
loop_
_space_group_symop_operation_xyz
x,y,z
-x,-y,z
-x,y,z
x,-y,z
1/2+x,1/2+y,1/2+z
1/2-x,1/2-y,1/2+z
1/2-x,1/2+y,1/2+z
1/2+x,1/2-y,1/2+z
loop_
_atom_site_type_symbol
_atom_site_label
_atom_site_fract_x
_atom_site_fract_y
_atom_site_fract_z
Si Si1 0.271144 0.836022 0.504110
Si Si2 0.625893 0.331550 0.154494
Si Si3 0.928090 0.335093 0.383411
Si Si4 0.379954 0.336560 0.005785
Si Si5 0.768118 0.331442 0.153102
Si Si6 0.070345 0.168667 0.791837
Si Si7 0.309764 0.331416 0.377874
Si Si8 0.686629 0.168373 0.793313
O O1 0.195509 0.810898 0.497069
O O2 0.294573 0.787291 0.579190
O O3 0.308630 0.739106 0.451278
O O4 0.288176 0.000000 0.490862
O O5 0.630715 0.500000 0.157251
O O6 0.697119 0.268428 0.163808
O O7 0.582342 0.273662 0.215642
O O8 0.598277 0.288331 0.081091
O O9 0.914442 0.500000 0.396375
O O10 0.919840 0.257249 0.454236
O O11 0.877962 0.273187 0.328438
O O12 0.000000 0.309796 0.356093
O O13 0.397228 0.500000 0.992672
O O14 0.763680 0.500000 0.154997
O O15 0.811471 0.275338 0.215653
O O16 0.125314 0.223770 0.842136
O O17 0.000000 0.222222 0.815392
O O18 0.072687 0.000000 0.790566
O O19 0.309119 0.500000 0.386480
O O20 0.248999 0.278551 0.334180
O O21 0.686290 0.000000 0.792994
#
# Coordination Sequence:
#
# PCOD8187922 Si02
#       8
#     8   8   8   8   8   8   8   8
#     4   9  17  28  45  69  93 115 143 182 223 260
#     4   8  13  23  39  63  91 114 141 178 218 256
#     4  10  20  31  43  63  91 120 148 181 220 258
#     4   9  17  28  44  66  91 118 147 178 214 260
#     4   8  13  24  43  65  87 112 143 181 222 258
#     4   9  16  25  40  66  94 115 143 185 222 252
#     4  10  17  27  47  69  88 116 149 180 218 261
#     4   9  15  26  45  65  84 112 149 183 215 254
#
# _framework density 16.415389999999999
#
# number of rings (size 3 to 8) (size 9 to 14) (size 15 to 20)
#    0.000    3.000    2.500    1.500    0.000    0.750 
#    0.000    1.250    0.000    3.375    0.000    1.750 
#    0.000    0.000    0.000    0.000    0.000    0.000 
#
# Total GULP energy -396534.043241 kJ/mol
# GULP energy per Si atom -12391.688851 kJ/mol
# Density = 1.637803 g / cm^3
# Si number density = 16.415390 Si / 1000 Ang^3
#
#
#
# Elastic Constant Matrix: (Units=GPa)
#
#
# Indices 1 2 3 4 5 6 
#
# 1 107.8309 20.7529 69.8934 0.0000 0.0000 0.0000
# 2 20.7529 20.1235 26.0446 0.0000 0.0000 0.0000
# 3 69.8934 26.0446 140.8981 0.0000 0.0000 0.0000
# 4 0.0000 0.0000 0.0000 22.6207 0.0000 0.0000
# 5 0.0000 0.0000 0.0000 0.0000 23.4463 0.0000
# 6 0.0000 0.0000 0.0000 0.0000 0.0000 11.5041
#
#
#
# Elastic Compliance Matrix: (Units=1/GPa)
#
#
# Indices 1 2 3 4 5 6 
#
# 1 0.014461 -0.007399 -0.005806 0.000000 0.000000 0.000000
# 2 -0.007399 0.069106 -0.009104 0.000000 0.000000 0.000000
# 3 -0.005806 -0.009104 0.011660 0.000000 0.000000 0.000000
# 4 0.000000 0.000000 0.000000 0.044207 0.000000 0.000000
# 5 0.000000 0.000000 0.000000 0.000000 0.042651 0.000000
# 6 0.000000 0.000000 0.000000 0.000000 0.000000 0.086926
#
#
# Mechanical properties :
#
#
# Convention : Reuss Voigt Hill
#
# Bulk Modulus (GPa) = 19.75898 55.80381 37.78140
# Shear Modulus (GPa) = 15.12868 21.65831 18.39350
#
# Velocity S-wave (km/s) = 3.03911 3.63628 3.35102
# Velocity P-wave (km/s) = 4.93740 7.19018 6.16752
#
# Compressibility (1/GPa) = 0.05060990
#
# Stress axis : x y z
#
# Youngs Moduli (GPa) = 69.15173 14.47051 85.76295
#
# Poissons Ratio (x) = 0.10707 0.49791
# Poissons Ratio (y) = 0.51168 0.78075
# Poissons Ratio (z) = 0.40147 0.13173
#
# Static dielectric constant tensor:
#      x y z
#    x 3.128970 0.000000 0.000000 
#    y 0.000000 2.594350 0.000000 
#    z 0.000000 0.000000 3.424290 
# 
# 
# High freq. dielectric constant tensor:
#      x y z
#    x 1.613230 0.000000 0.000000 
#    y 0.000000 1.575340 0.000000 
#    z 0.000000 0.000000 1.641360 
# 
# From -- ./inp_files/21485.got.cif
#   From: 2010.03.12/outbox.cif.g09.slc.cpg/sg44_11_cif.got.tgz:21485.got - 2010.04.14 02:36:11.
