data_PCOD8187994
_publ_section_title
;
Structure prediction by ZEFSAII (Michael W. Deem and Ramdas Pophale) SiO2 
 PCOD8187994
Probable space group: I M M 2
;
_chemical_formula_sum "Si O2"
_cell_formula_units_Z 64
_cell_length_a 9.088198
_cell_length_b 26.701673
_cell_length_c 18.163143
_cell_angle_alpha 90.000000
_cell_angle_beta 90.000000
_cell_angle_gamma 90.000000
_cell_volume 4407.651567
_symmetry_space_group_name_H-M "I M M 2"
_symmetry_group_IT_number 44
_symmetry_cell_setting 'orthorhombic'
loop_
_space_group_symop_operation_xyz
x,y,z
-x,-y,z
-x,y,z
x,-y,z
1/2+x,1/2+y,1/2+z
1/2-x,1/2-y,1/2+z
1/2-x,1/2+y,1/2+z
1/2+x,1/2-y,1/2+z
loop_
_atom_site_type_symbol
_atom_site_label
_atom_site_fract_x
_atom_site_fract_y
_atom_site_fract_z
Si Si1 0.672502 0.754336 0.961580
Si Si2 0.333305 0.856966 0.041144
Si Si3 0.834293 0.757394 0.811901
Si Si4 0.826693 0.295631 0.088095
Si Si5 0.333372 0.209911 0.167822
Si Si6 0.171632 0.148108 0.708123
Si Si7 0.325019 0.555564 0.300492
Si Si8 0.173280 0.943904 0.965256
O O1 0.500000 0.744712 0.967819
O O2 0.719514 0.751183 0.877038
O O3 0.716229 0.808762 0.993498
O O4 0.755361 0.710620 0.007118
O O5 0.500000 0.871068 0.022234
O O6 0.313868 0.844088 0.128575
O O7 0.236076 0.904815 0.023492
O O8 0.815878 0.709542 0.756432
O O9 0.799631 0.807536 0.766214
O O10 0.000000 0.759530 0.844001
O O11 0.788506 0.246451 0.134729
O O12 0.758921 0.343064 0.131886
O O13 0.000000 0.302615 0.080119
O O14 0.500000 0.230118 0.148691
O O15 0.235237 0.096940 0.743767
O O16 0.000000 0.143545 0.689280
O O17 0.500000 0.557626 0.302641
O O18 0.272186 0.500000 0.275951
O O19 0.266654 0.567436 0.382936
O O20 0.000000 0.938364 0.966402
O O21 0.220211 0.000000 0.988868
#
# Coordination Sequence:
#
# PCOD8187994 Si02
#       8
#     8   8   8   8   8   8   8   8
#     4  10  19  29  40  57  82 107 133 166 201 236
#     4   9  17  28  41  56  77 107 136 162 196 235
#     4   9  16  26  41  59  79 106 136 163 196 238
#     4  10  18  27  40  57  77 103 136 167 196 236
#     4   8  16  30  42  55  79 106 131 163 201 236
#     4   9  16  27  42  58  80 108 135 166 202 235
#     4   8  14  25  41  59  78 104 138 169 196 230
#     4   9  17  28  41  58  80 105 135 170 200 226
#
# _framework density 14.520205000000001
#
# number of rings (size 3 to 8) (size 9 to 14) (size 15 to 20)
#    0.000    3.000    0.000    4.500    0.000    5.750 
#    0.000    0.625    0.000    1.125    0.000    0.000 
#    0.000    1.000    0.000    7.250    0.000    3.750 
#
# Total GULP energy -396552.250213 kJ/mol
# GULP energy per Si atom -12392.257819 kJ/mol
# Density = 1.448716 g / cm^3
# Si number density = 14.520205 Si / 1000 Ang^3
#
#
#
# Elastic Constant Matrix: (Units=GPa)
#
#
# Indices 1 2 3 4 5 6 
#
# 1 55.8804 30.0881 38.1688 0.0000 0.0000 0.0000
# 2 30.0881 86.4305 49.6671 -0.0001 0.0000 0.0000
# 3 38.1688 49.6671 84.9086 -0.0001 0.0000 0.0000
# 4 0.0000 -0.0001 -0.0001 26.5654 0.0000 0.0000
# 5 0.0000 0.0000 0.0000 0.0000 24.3737 0.0000
# 6 0.0000 0.0000 0.0000 0.0000 0.0000 17.4468
#
#
#
# Elastic Compliance Matrix: (Units=1/GPa)
#
#
# Indices 1 2 3 4 5 6 
#
# 1 0.026544 -0.003591 -0.009832 0.000000 0.000000 0.000000
# 2 -0.003591 0.017914 -0.008865 0.000000 0.000000 0.000000
# 3 -0.009832 -0.008865 0.021383 0.000000 0.000000 0.000000
# 4 0.000000 0.000000 0.000000 0.037643 0.000000 0.000000
# 5 0.000000 0.000000 0.000000 0.000000 0.041028 0.000000
# 6 0.000000 0.000000 0.000000 0.000000 0.000000 0.057317
#
#
# Mechanical properties :
#
#
# Convention : Reuss Voigt Hill
#
# Bulk Modulus (GPa) = 47.02307 51.45193 49.23750
# Shear Modulus (GPa) = 19.72443 20.96354 20.34399
#
# Velocity S-wave (km/s) = 3.68966 3.80379 3.74716
# Velocity P-wave (km/s) = 7.11382 7.40293 7.25981
#
# Compressibility (1/GPa) = 0.02126616
#
# Stress axis : x y z
#
# Youngs Moduli (GPa) = 37.67267 55.82217 46.76707
#
# Poissons Ratio (x) = 0.20044 0.45982
# Poissons Ratio (y) = 0.13527 0.41458
# Poissons Ratio (z) = 0.37040 0.49485
#
# Static dielectric constant tensor:
#      x y z
#    x 2.670440 0.000000 0.000000 
#    y 0.000000 2.776510 0.000000 
#    z 0.000000 0.000000 2.929330 
# 
# 
# High freq. dielectric constant tensor:
#      x y z
#    x 1.547600 0.000000 0.000000 
#    y 0.000000 1.522480 0.000000 
#    z 0.000000 0.000000 1.544310 
# 
# From -- ./inp_files/20915.got.cif
#   From: 2010.03.12/outbox.cif.g09.slc.cpg/sg44_11_cif.got.tgz:20915.got - 2010.04.14 02:36:11.
