data_PCOD8187680
_publ_section_title
;
Structure prediction by ZEFSAII (Michael W. Deem and Ramdas Pophale) SiO2 
 PCOD8187680
Probable space group: F D D 2
;
_chemical_formula_sum "Si O2"
_cell_formula_units_Z 88
_cell_length_a 30.047854
_cell_length_b 7.267500
_cell_length_c 18.453680
_cell_angle_alpha 90.000000
_cell_angle_beta 90.000000
_cell_angle_gamma 90.000000
_cell_volume 4029.781383
_symmetry_space_group_name_H-M "F D D 2"
_symmetry_group_IT_number 43
_symmetry_cell_setting 'orthorhombic'
loop_
_space_group_symop_operation_xyz
x,y,z
-x,-y,z
1/4-x,1/4+y,1/4+z
1/4+x,1/4-y,1/4+z
x,1/2+y,1/2+z
-x,1/2-y,1/2+z
1/4-x,3/4+y,3/4+z
1/4+x,3/4-y,3/4+z
1/2+x,y,1/2+z
1/2-x,-y,1/2+z
3/4-x,1/4+y,3/4+z
3/4+x,1/4-y,3/4+z
1/2+x,1/2+y,z
1/2-x,1/2-y,z
3/4-x,3/4+y,1/4+z
3/4+x,3/4-y,1/4+z
loop_
_atom_site_type_symbol
_atom_site_label
_atom_site_fract_x
_atom_site_fract_y
_atom_site_fract_z
Si Si1 0.111256 0.422850 0.344730
Si Si2 0.588523 0.364829 0.006471
Si Si3 0.635108 0.829722 0.869425
Si Si4 0.965503 0.662468 0.868638
Si Si5 0.500000 0.000000 0.460413
Si Si6 0.794459 0.657237 0.993473
O O1 0.103361 0.336359 0.423420
O O2 0.138296 0.287114 0.294113
O O3 0.137942 0.613223 0.353271
O O4 0.064103 0.456182 0.305095
O O5 0.599608 0.176591 0.046085
O O6 0.535982 0.401948 0.011519
O O7 0.584974 0.895220 0.890158
O O8 0.668977 0.883950 0.932802
O O9 0.976222 0.845990 0.912507
O O10 0.966884 0.713013 0.782804
O O11 0.000000 0.500000 0.886347
O O12 0.750000 0.750000 0.960408
#
# Coordination Sequence:
#
# PCOD8187680 Si02
#       6
#    16  16  16  16   8  16
#     4  11  24  47  71 101 140 191 234 295 359 424
#     4  12  27  44  77 102 144 189 238 295 364 427
#     4  11  27  45  71 109 143 186 243 298 362 421
#     4  11  25  43  75 103 139 198 245 284 363 447
#     4  12  24  50  66 110 144 186 240 304 356 428
#     4  11  22  46  71 103 145 183 236 300 353 426
#
# _framework density 21.837413999999999
#
# number of rings (size 3 to 8) (size 9 to 14) (size 15 to 20)
#    0.000    0.727    6.364    0.000   10.182    2.909 
#    1.636    0.000    0.000    0.000    0.000    0.000 
#    0.000    0.000    0.000    0.000    0.000    0.000 
#
# Total GULP energy -272825.305174 kJ/mol
# GULP energy per Si atom -12401.150235 kJ/mol
# Density = 2.178771 g / cm^3
# Si number density = 21.837414 Si / 1000 Ang^3
#
#
#
# Elastic Constant Matrix: (Units=GPa)
#
#
# Indices 1 2 3 4 5 6 
#
# 1 157.1016 31.3346 54.9737 -0.0001 0.0000 0.0001
# 2 31.3346 55.8038 28.9533 -0.0001 0.0000 0.0001
# 3 54.9737 28.9533 111.7829 0.0000 0.0000 0.0000
# 4 -0.0001 -0.0001 0.0000 30.6784 0.0000 0.0000
# 5 0.0000 0.0000 0.0000 0.0000 41.0121 0.0000
# 6 0.0001 0.0001 0.0000 0.0000 0.0000 33.8874
#
#
#
# Elastic Compliance Matrix: (Units=1/GPa)
#
#
# Indices 1 2 3 4 5 6 
#
# 1 0.008063 -0.002854 -0.003226 0.000000 0.000000 0.000000
# 2 -0.002854 0.021712 -0.004220 0.000000 0.000000 0.000000
# 3 -0.003226 -0.004220 0.011626 0.000000 0.000000 0.000000
# 4 0.000000 0.000000 0.000000 0.032596 0.000000 0.000000
# 5 0.000000 0.000000 0.000000 0.000000 0.024383 0.000000
# 6 0.000000 0.000000 0.000000 0.000000 0.000000 0.029510
#
#
# Mechanical properties :
#
#
# Convention : Reuss Voigt Hill
#
# Bulk Modulus (GPa) = 48.07599 61.69016 54.88308
# Shear Modulus (GPa) = 32.17000 35.07734 33.62367
#
# Velocity S-wave (km/s) = 3.84234 4.01221 3.92819
# Velocity P-wave (km/s) = 6.46127 7.05513 6.76472
#
# Compressibility (1/GPa) = 0.02080040
#
# Stress axis : x y z
#
# Youngs Moduli (GPa) = 124.01569 46.05748 86.01628
#
# Poissons Ratio (x) = 0.13144 0.27752
# Poissons Ratio (y) = 0.35392 0.36301
# Poissons Ratio (z) = 0.40012 0.19437
#
# Static dielectric constant tensor:
#      x y z
#    x 4.289720 0.000000 0.000000 
#    y 0.000000 3.904620 0.000000 
#    z 0.000000 0.000000 4.034190 
# 
# 
# High freq. dielectric constant tensor:
#      x y z
#    x 1.869160 0.000000 0.000000 
#    y 0.000000 1.856860 0.000000 
#    z 0.000000 0.000000 1.854780 
# 
# From -- ./inp_files/15217.got.cif
#   From: 2010.06.25/outbox.cif.g09.slc.cpg/sg43_8_cif.got.tgz:15217.got - 2010.06.26 16:48:59.
