data_PCOD8187149
_publ_section_title
;
Structure prediction by ZEFSAII (Michael W. Deem and Ramdas Pophale) SiO2 
 PCOD8187149
Probable space group: F D D 2
;
_chemical_formula_sum "Si O2"
_cell_formula_units_Z 104
_cell_length_a 27.031622
_cell_length_b 13.501794
_cell_length_c 13.764801
_cell_angle_alpha 90.000000
_cell_angle_beta 90.000000
_cell_angle_gamma 90.000000
_cell_volume 5023.813637
_symmetry_space_group_name_H-M "F D D 2"
_symmetry_group_IT_number 43
_symmetry_cell_setting 'orthorhombic'
loop_
_space_group_symop_operation_xyz
x,y,z
-x,-y,z
1/4-x,1/4+y,1/4+z
1/4+x,1/4-y,1/4+z
x,1/2+y,1/2+z
-x,1/2-y,1/2+z
1/4-x,3/4+y,3/4+z
1/4+x,3/4-y,3/4+z
1/2+x,y,1/2+z
1/2-x,-y,1/2+z
3/4-x,1/4+y,3/4+z
3/4+x,1/4-y,3/4+z
1/2+x,1/2+y,z
1/2-x,1/2-y,z
3/4-x,3/4+y,1/4+z
3/4+x,3/4-y,1/4+z
loop_
_atom_site_type_symbol
_atom_site_label
_atom_site_fract_x
_atom_site_fract_y
_atom_site_fract_z
Si Si1 0.335788 0.619353 0.917500
Si Si2 0.881081 0.968534 0.638857
Si Si3 0.654527 0.953654 0.634698
Si Si4 0.066896 0.830624 0.219422
Si Si5 0.750000 0.750000 0.447912
Si Si6 0.420486 0.660871 0.576759
Si Si7 0.465776 0.327142 0.566609
O O1 0.384175 0.684085 0.893312
O O2 0.288528 0.685433 0.884014
O O3 0.339010 0.523156 0.853518
O O4 0.328720 0.581594 0.028239
O O5 0.835993 0.977542 0.562654
O O6 0.860672 0.903625 0.727373
O O7 0.929380 0.914398 0.598140
O O8 0.897856 0.083062 0.655177
O O9 0.613805 0.874258 0.664153
O O10 0.701270 0.954486 0.707365
O O11 0.032357 0.921039 0.259303
O O12 0.036967 0.762128 0.144406
O O13 0.478027 0.635400 0.562803
#
# Coordination Sequence:
#
# PCOD8187149 Si02
#       7
#    16  16  16  16   8  16  16
#     4  11  22  40  63  92 132 170 219 277 339 391
#     4  11  25  44  63  97 135 174 225 274 341 397
#     4  10  22  39  64  94 125 169 217 283 335 390
#     4  10  20  42  63  90 132 158 217 293 321 388
#     4  10  22  36  66  92 120 162 220 274 330 386
#     4  12  25  42  68  92 136 186 214 274 342 410
#     4  11  22  42  68  96 128 173 224 273 334 407
#
# _framework density 20.701404
#
# number of rings (size 3 to 8) (size 9 to 14) (size 15 to 20)
#    0.000    1.231    4.615    1.385    2.154    0.000 
#    0.000    0.000    0.000    0.000    0.000    0.000 
#    0.000    0.000    0.000    0.000    0.000    0.000 
#
# Total GULP energy -322173.800308 kJ/mol
# GULP energy per Si atom -12391.300012 kJ/mol
# Density = 2.065429 g / cm^3
# Si number density = 20.701404 Si / 1000 Ang^3
#
#
#
# Elastic Constant Matrix: (Units=GPa)
#
#
# Indices 1 2 3 4 5 6 
#
# 1 100.2088 28.4295 17.8169 0.0000 0.0000 0.0000
# 2 28.4295 103.1707 10.9616 0.0000 0.0000 0.0000
# 3 17.8169 10.9616 66.1364 0.0000 0.0000 0.0000
# 4 0.0000 0.0000 0.0000 28.5239 0.0000 0.0000
# 5 0.0000 0.0000 0.0000 0.0000 19.5724 0.0000
# 6 0.0000 0.0000 0.0000 0.0000 0.0000 29.8678
#
#
#
# Elastic Compliance Matrix: (Units=1/GPa)
#
#
# Indices 1 2 3 4 5 6 
#
# 1 0.011235 -0.002824 -0.002559 0.000000 0.000000 0.000000
# 2 -0.002824 0.010576 -0.000992 0.000000 0.000000 0.000000
# 3 -0.002559 -0.000992 0.015974 0.000000 0.000000 0.000000
# 4 0.000000 0.000000 0.000000 0.035058 0.000000 0.000000
# 5 0.000000 0.000000 0.000000 0.000000 0.051092 0.000000
# 6 0.000000 0.000000 0.000000 0.000000 0.000000 0.033481
#
#
# Mechanical properties :
#
#
# Convention : Reuss Voigt Hill
#
# Bulk Modulus (GPa) = 39.94290 42.65911 41.30100
# Shear Modulus (GPa) = 28.00929 29.74669 28.87799
#
# Velocity S-wave (km/s) = 3.68232 3.79481 3.73899
# Velocity P-wave (km/s) = 6.11686 6.31288 6.21564
#
# Compressibility (1/GPa) = 0.02503574
#
# Stress axis : x y z
#
# Youngs Moduli (GPa) = 89.00517 94.55106 62.60174
#
# Poissons Ratio (x) = 0.26702 0.16018
# Poissons Ratio (y) = 0.25136 0.06211
# Poissons Ratio (z) = 0.22774 0.09381
#
# Static dielectric constant tensor:
#      x y z
#    x 3.842210 0.000000 0.000000 
#    y 0.000000 3.858670 0.000000 
#    z 0.000000 0.000000 3.573850 
# 
# 
# High freq. dielectric constant tensor:
#      x y z
#    x 1.817500 0.000000 0.000000 
#    y 0.000000 1.826380 0.000000 
#    z 0.000000 0.000000 1.781480 
# 
# From -- ./inp_files/15046.got.cif
#   From: 2010.06.25/outbox.cif.g09.slc.cpg/sg43_8_cif.got.tgz:15046.got - 2010.06.26 16:48:59.
