data_PCOD8187322
_publ_section_title
;
Structure prediction by ZEFSAII (Michael W. Deem and Ramdas Pophale) SiO2 
 PCOD8187322
Probable space group: F D D 2
;
_chemical_formula_sum "Si O2"
_cell_formula_units_Z 72
_cell_length_a 18.233829
_cell_length_b 7.485080
_cell_length_c 28.638775
_cell_angle_alpha 90.000000
_cell_angle_beta 90.000000
_cell_angle_gamma 90.000000
_cell_volume 3908.667804
_symmetry_space_group_name_H-M "F D D 2"
_symmetry_group_IT_number 43
_symmetry_cell_setting 'orthorhombic'
loop_
_space_group_symop_operation_xyz
x,y,z
-x,-y,z
1/4-x,1/4+y,1/4+z
1/4+x,1/4-y,1/4+z
x,1/2+y,1/2+z
-x,1/2-y,1/2+z
1/4-x,3/4+y,3/4+z
1/4+x,3/4-y,3/4+z
1/2+x,y,1/2+z
1/2-x,-y,1/2+z
3/4-x,1/4+y,3/4+z
3/4+x,1/4-y,3/4+z
1/2+x,1/2+y,z
1/2-x,1/2-y,z
3/4-x,3/4+y,1/4+z
3/4+x,3/4-y,1/4+z
loop_
_atom_site_type_symbol
_atom_site_label
_atom_site_fract_x
_atom_site_fract_y
_atom_site_fract_z
Si Si1 0.168023 0.803794 0.882270
Si Si2 0.188330 0.110381 0.045176
Si Si3 0.921951 0.588137 0.191077
Si Si4 0.670248 0.720338 0.651879
Si Si5 0.250000 0.250000 0.563181
O O1 0.250000 0.750000 0.867026
O O2 0.122461 0.849257 0.835518
O O3 0.132127 0.640170 0.911234
O O4 0.168237 0.968796 0.917646
O O5 0.250000 0.250000 0.061846
O O6 0.228286 0.921839 0.033048
O O7 0.152631 0.162361 0.996005
O O8 0.860088 0.465441 0.169311
O O9 0.000000 0.500000 0.181076
O O10 0.750000 0.750000 0.676053
O O11 0.680468 0.699697 0.595982
#
# Coordination Sequence:
#
# PCOD8187322 Si02
#       5
#    16  16  16  16   8
#     4  11  22  40  61  87 122 157 196 253 304 352
#     4  10  22  38  62  87 117 158 209 240 301 368
#     4  11  22  37  63  90 119 157 202 249 302 358
#     4   9  20  39  60  84 115 158 199 240 299 355
#     4   8  18  36  60  80 114 152 196 242 288 352
#
# _framework density 18.420597999999998
#
# number of rings (size 3 to 8) (size 9 to 14) (size 15 to 20)
#    0.667    1.333    2.222    1.333    1.556    0.000 
#    4.000    1.111    0.000    0.000    0.000    0.000 
#    0.000    0.000    0.000    0.000    0.000    0.000 
#
# Total GULP energy -223089.437696 kJ/mol
# GULP energy per Si atom -12393.857650 kJ/mol
# Density = 1.837867 g / cm^3
# Si number density = 18.420598 Si / 1000 Ang^3
#
#
#
# Elastic Constant Matrix: (Units=GPa)
#
#
# Indices 1 2 3 4 5 6 
#
# 1 117.1345 52.4583 30.8695 0.0000 0.0000 0.0000
# 2 52.4583 108.6653 30.6169 0.0000 0.0000 0.0000
# 3 30.8695 30.6169 64.2784 0.0000 0.0000 0.0000
# 4 0.0000 0.0000 0.0000 -5.2236 0.0000 0.0000
# 5 0.0000 0.0000 0.0000 0.0000 -4.5663 0.0000
# 6 0.0000 0.0000 0.0000 0.0000 0.0000 40.5459
#
#
#
# Elastic Compliance Matrix: (Units=1/GPa)
#
#
# Indices 1 2 3 4 5 6 
#
# 1 0.011473 -0.004604 -0.003317 0.000000 0.000000 0.000000
# 2 -0.004604 0.012477 -0.003732 0.000000 0.000000 0.000000
# 3 -0.003317 -0.003732 0.018928 0.000000 0.000000 0.000000
# 4 0.000000 0.000000 0.000000 -0.191439 0.000000 0.000000
# 5 0.000000 0.000000 0.000000 0.000000 -0.218993 0.000000
# 6 0.000000 0.000000 0.000000 0.000000 0.000000 0.024663
#
#
# Mechanical properties :
#
#
# Convention : Reuss Voigt Hill
#
# Bulk Modulus (GPa) = 51.09332 57.55195 54.32263
# Shear Modulus (GPa) = -15.97133 17.89342 0.96105
#
# Velocity S-wave (km/s) = -2.94774 3.12008 0.72309
# Velocity P-wave (km/s) = 4.02637 6.65514 5.50012
#
# Compressibility (1/GPa) = 0.01957203
#
# Stress axis : x y z
#
# Youngs Moduli (GPa) = 87.15877 80.14959 52.83242
#
# Poissons Ratio (x) = 0.36902 0.17524
# Poissons Ratio (y) = 0.40130 0.19715
# Poissons Ratio (z) = 0.28910 0.29909
#
# Static dielectric constant tensor:
#      x y z
#    x 3.476260 0.000000 0.000000 
#    y 0.000000 3.543460 0.000000 
#    z 0.000000 0.000000 3.092970 
# 
# 
# High freq. dielectric constant tensor:
#      x y z
#    x 1.712960 0.000000 0.000000 
#    y 0.000000 1.734960 0.000000 
#    z 0.000000 0.000000 1.694730 
# 
# From -- ./inp_files/26206.got.cif
#   From: 2010.06.25/outbox.cif.g09.slc.cpg/sg43_14_cif.got.tgz:26206.got - 2010.06.26 16:48:59.
