data_PCOD8187057
_publ_section_title
;
Structure prediction by ZEFSAII (Michael W. Deem and Ramdas Pophale) SiO2 
 PCOD8187057
Probable space group: F D D 2
;
_chemical_formula_sum "Si O2"
_cell_formula_units_Z 96
_cell_length_a 12.507879
_cell_length_b 31.169420
_cell_length_c 12.401254
_cell_angle_alpha 90.000000
_cell_angle_beta 90.000000
_cell_angle_gamma 90.000000
_cell_volume 4834.794228
_symmetry_space_group_name_H-M "F D D 2"
_symmetry_group_IT_number 43
_symmetry_cell_setting 'orthorhombic'
loop_
_space_group_symop_operation_xyz
x,y,z
-x,-y,z
1/4-x,1/4+y,1/4+z
1/4+x,1/4-y,1/4+z
x,1/2+y,1/2+z
-x,1/2-y,1/2+z
1/4-x,3/4+y,3/4+z
1/4+x,3/4-y,3/4+z
1/2+x,y,1/2+z
1/2-x,-y,1/2+z
3/4-x,1/4+y,3/4+z
3/4+x,1/4-y,3/4+z
1/2+x,1/2+y,z
1/2-x,1/2-y,z
3/4-x,3/4+y,1/4+z
3/4+x,3/4-y,1/4+z
loop_
_atom_site_type_symbol
_atom_site_label
_atom_site_fract_x
_atom_site_fract_y
_atom_site_fract_z
Si Si1 0.255513 0.170655 0.442480
Si Si2 0.826134 0.494775 0.016757
Si Si3 0.235796 0.079093 0.091006
Si Si4 0.836040 0.833891 0.024450
Si Si5 0.750000 0.250000 0.443482
Si Si6 0.000000 0.000000 0.338697
Si Si7 0.924161 0.834372 0.262704
O O1 0.372194 0.180893 0.395328
O O2 0.216757 0.210014 0.515262
O O3 0.174536 0.163486 0.344226
O O4 0.258141 0.128582 0.519445
O O5 0.764366 0.540140 0.010384
O O6 0.895355 0.494911 0.123448
O O7 0.745440 0.456411 0.037100
O O8 0.897441 0.487627 0.910701
O O9 0.232126 0.122093 0.018067
O O10 0.323332 0.085045 0.183879
O O11 0.886640 0.830680 0.140968
O O12 0.758833 0.792866 0.014702
#
# Coordination Sequence:
#
# PCOD8187057 Si02
#       7
#    16  16  16  16   8   8  16
#     4  11  22  38  58  85 114 148 188 232 279 332
#     4  10  22  39  57  81 114 149 187 231 280 334
#     4  10  20  37  57  83 113 145 187 232 281 335
#     4  10  20  36  58  83 112 147 186 234 280 335
#     4   9  22  39  56  80 114 147 186 231 282 336
#     4  11  22  39  58  82 114 151 188 231 278 332
#     4  11  22  37  59  84 113 147 187 232 278 333
#
# _framework density 19.856065999999998
#
# number of rings (size 3 to 8) (size 9 to 14) (size 15 to 20)
#    0.000    1.667    0.000    7.000    0.000    6.000 
#    0.000    3.333    0.000    0.000    0.000    0.000 
#    0.000    0.000    0.000    0.000    0.000    0.000 
#
# Total GULP energy -297610.723922 kJ/mol
# GULP energy per Si atom -12400.446830 kJ/mol
# Density = 1.981087 g / cm^3
# Si number density = 19.856066 Si / 1000 Ang^3
#
#
#
# Elastic Constant Matrix: (Units=GPa)
#
#
# Indices 1 2 3 4 5 6 
#
# 1 84.8621 51.9783 18.7386 0.0000 0.0000 0.0000
# 2 51.9783 169.1573 37.7318 0.0000 0.0000 0.0000
# 3 18.7386 37.7318 60.7626 0.0000 0.0000 0.0000
# 4 0.0000 0.0000 0.0000 35.6719 0.0000 0.0000
# 5 0.0000 0.0000 0.0000 0.0000 27.6640 0.0000
# 6 0.0000 0.0000 0.0000 0.0000 0.0000 31.2675
#
#
#
# Elastic Compliance Matrix: (Units=1/GPa)
#
#
# Indices 1 2 3 4 5 6 
#
# 1 0.014724 -0.004076 -0.002010 0.000000 0.000000 0.000000
# 2 -0.004076 0.007991 -0.003705 0.000000 0.000000 0.000000
# 3 -0.002010 -0.003705 0.019378 0.000000 0.000000 0.000000
# 4 0.000000 0.000000 0.000000 0.028033 0.000000 0.000000
# 5 0.000000 0.000000 0.000000 0.000000 0.036148 0.000000
# 6 0.000000 0.000000 0.000000 0.000000 0.000000 0.031982
#
#
# Mechanical properties :
#
#
# Convention : Reuss Voigt Hill
#
# Bulk Modulus (GPa) = 44.42207 59.07550 51.74879
# Shear Modulus (GPa) = 30.24049 32.67622 31.45836
#
# Velocity S-wave (km/s) = 3.90678 4.06107 3.98467
# Velocity P-wave (km/s) = 6.53997 7.19765 6.87667
#
# Compressibility (1/GPa) = 0.02251133
#
# Stress axis : x y z
#
# Youngs Moduli (GPa) = 67.91522 125.14745 51.60534
#
# Poissons Ratio (x) = 0.51012 0.10371
# Poissons Ratio (y) = 0.27683 0.19119
# Poissons Ratio (z) = 0.13648 0.46365
#
# Static dielectric constant tensor:
#      x y z
#    x 3.216110 0.000000 0.000000 
#    y 0.000000 4.489130 0.000000 
#    z 0.000000 0.000000 3.536380 
# 
# 
# High freq. dielectric constant tensor:
#      x y z
#    x 1.773340 0.000000 0.000000 
#    y 0.000000 1.798850 0.000000 
#    z 0.000000 0.000000 1.768660 
# 
# From -- ./inp_files/6284.got.cif
#   From: 2010.06.25/outbox.cif.g09.slc.cpg/sg43_4_cif.got.tgz:6284.got - 2010.06.26 16:48:59.
