data_PCOD8187691
_publ_section_title
;
Structure prediction by ZEFSAII (Michael W. Deem and Ramdas Pophale) SiO2 
 PCOD8187691
Probable space group: F D D 2
;
_chemical_formula_sum "Si O2"
_cell_formula_units_Z 120
_cell_length_a 15.598582
_cell_length_b 15.647290
_cell_length_c 22.672604
_cell_angle_alpha 90.000000
_cell_angle_beta 90.000000
_cell_angle_gamma 90.000000
_cell_volume 5533.827977
_symmetry_space_group_name_H-M "F D D 2"
_symmetry_group_IT_number 43
_symmetry_cell_setting 'orthorhombic'
loop_
_space_group_symop_operation_xyz
x,y,z
-x,-y,z
1/4-x,1/4+y,1/4+z
1/4+x,1/4-y,1/4+z
x,1/2+y,1/2+z
-x,1/2-y,1/2+z
1/4-x,3/4+y,3/4+z
1/4+x,3/4-y,3/4+z
1/2+x,y,1/2+z
1/2-x,-y,1/2+z
3/4-x,1/4+y,3/4+z
3/4+x,1/4-y,3/4+z
1/2+x,1/2+y,z
1/2-x,1/2-y,z
3/4-x,3/4+y,1/4+z
3/4+x,3/4-y,1/4+z
loop_
_atom_site_type_symbol
_atom_site_label
_atom_site_fract_x
_atom_site_fract_y
_atom_site_fract_z
Si Si1 0.080185 0.767750 0.501160
Si Si2 0.615056 0.656421 0.273188
Si Si3 0.926683 0.655600 0.740136
Si Si4 0.733996 0.114695 0.679834
Si Si5 0.348419 0.773381 0.894231
Si Si6 0.341731 0.525044 0.320699
Si Si7 0.750000 0.750000 0.078491
Si Si8 0.336890 0.299062 0.693108
O O1 0.168102 0.750523 0.535811
O O2 0.077280 0.852823 0.461496
O O3 0.065142 0.687807 0.456105
O O4 0.006728 0.776714 0.550243
O O5 0.527857 0.670841 0.237635
O O6 0.695271 0.677716 0.229920
O O7 0.620477 0.721666 0.327250
O O8 0.615515 0.562083 0.299984
O O9 0.890849 0.611466 0.680206
O O10 0.900343 0.600886 0.796213
O O11 0.880065 0.747223 0.747079
O O12 0.754742 0.165571 0.619937
O O13 0.655677 0.048497 0.673981
O O14 0.250000 0.750000 0.898511
O O15 0.344459 0.539495 0.390419
O O16 0.250000 0.250000 0.675024
#
# Coordination Sequence:
#
# PCOD8187691 Si02
#       8
#    16  16  16  16  16  16   8  16
#     4  11  28  51  67 107 141 185 243 296 348 439
#     4  11  24  38  69 105 139 181 231 289 352 413
#     4  12  22  41  67 108 143 181 229 288 351 413
#     4  11  27  49  71  99 142 180 238 293 349 430
#     4  12  23  42  70 108 143 179 230 295 351 411
#     4  11  23  41  69  98 145 182 233 293 347 411
#     4  12  32  50  76  96 144 192 238 294 364 436
#     4  12  24  43  72 105 146 189 232 287 357 423
#
# _framework density 21.684809000000001
#
# number of rings (size 3 to 8) (size 9 to 14) (size 15 to 20)
#    0.000    0.533    6.667    1.200   10.267    1.067 
#    0.000    0.000    0.000    0.000    0.000    0.000 
#    0.000    0.000    0.000    0.000    0.000    0.000 
#
# Total GULP energy -371973.539499 kJ/mol
# GULP energy per Si atom -12399.117983 kJ/mol
# Density = 2.163545 g / cm^3
# Si number density = 21.684809 Si / 1000 Ang^3
#
#
#
# Elastic Constant Matrix: (Units=GPa)
#
#
# Indices 1 2 3 4 5 6 
#
# 1 129.2540 40.4556 44.1705 0.0000 0.0000 0.0000
# 2 40.4556 61.9448 27.3841 0.0000 0.0000 0.0000
# 3 44.1705 27.3841 97.5137 0.0000 0.0000 0.0000
# 4 0.0000 0.0000 0.0000 11.7162 0.0000 0.0000
# 5 0.0000 0.0000 0.0000 0.0000 39.1358 0.0000
# 6 0.0000 0.0000 0.0000 0.0000 0.0000 23.2201
#
#
#
# Elastic Compliance Matrix: (Units=1/GPa)
#
#
# Indices 1 2 3 4 5 6 
#
# 1 0.010555 -0.005457 -0.003249 0.000000 0.000000 0.000000
# 2 -0.005457 0.021253 -0.003496 0.000000 0.000000 0.000000
# 3 -0.003249 -0.003496 0.012708 0.000000 0.000000 0.000000
# 4 0.000000 0.000000 0.000000 0.085352 0.000000 0.000000
# 5 0.000000 0.000000 0.000000 0.000000 0.025552 0.000000
# 6 0.000000 0.000000 0.000000 0.000000 0.000000 0.043066
#
#
# Mechanical properties :
#
#
# Convention : Reuss Voigt Hill
#
# Bulk Modulus (GPa) = 49.72150 56.97033 53.34592
# Shear Modulus (GPa) = 21.77752 26.59458 24.18605
#
# Velocity S-wave (km/s) = 3.17247 3.50582 3.34330
# Velocity P-wave (km/s) = 6.03311 6.53580 6.28948
#
# Compressibility (1/GPa) = 0.02011202
#
# Stress axis : x y z
#
# Youngs Moduli (GPa) = 94.74261 47.05180 78.68860
#
# Poissons Ratio (x) = 0.25677 0.25562
# Poissons Ratio (y) = 0.51703 0.27513
# Poissons Ratio (z) = 0.30777 0.16451
#
# Static dielectric constant tensor:
#      x y z
#    x 3.874920 0.000000 0.000000 
#    y 0.000000 4.000720 0.000000 
#    z 0.000000 0.000000 4.025020 
# 
# 
# High freq. dielectric constant tensor:
#      x y z
#    x 1.853130 0.000000 0.000000 
#    y 0.000000 1.850230 0.000000 
#    z 0.000000 0.000000 1.855680 
# 
# From -- ./inp_files/21838.got.cif
#   From: 2010.06.25/outbox.cif.g09.slc.cpg/sg43_11_cif.got.tgz:21838.got - 2010.06.26 16:48:59.
