data_PCOD8187152
_publ_section_title
;
Structure prediction by ZEFSAII (Michael W. Deem and Ramdas Pophale) SiO2 
 PCOD8187152
Probable space group: F D D 2
;
_chemical_formula_sum "Si O2"
_cell_formula_units_Z 56
_cell_length_a 20.015505
_cell_length_b 5.007496
_cell_length_c 26.813512
_cell_angle_alpha 90.000000
_cell_angle_beta 90.000000
_cell_angle_gamma 90.000000
_cell_volume 2687.452916
_symmetry_space_group_name_H-M "F D D 2"
_symmetry_group_IT_number 43
_symmetry_cell_setting 'orthorhombic'
loop_
_space_group_symop_operation_xyz
x,y,z
-x,-y,z
1/4-x,1/4+y,1/4+z
1/4+x,1/4-y,1/4+z
x,1/2+y,1/2+z
-x,1/2-y,1/2+z
1/4-x,3/4+y,3/4+z
1/4+x,3/4-y,3/4+z
1/2+x,y,1/2+z
1/2-x,-y,1/2+z
3/4-x,1/4+y,3/4+z
3/4+x,1/4-y,3/4+z
1/2+x,1/2+y,z
1/2-x,1/2-y,z
3/4-x,3/4+y,1/4+z
3/4+x,3/4-y,1/4+z
loop_
_atom_site_type_symbol
_atom_site_label
_atom_site_fract_x
_atom_site_fract_y
_atom_site_fract_z
Si Si1 0.927252 0.879681 0.490610
Si Si2 0.000000 0.000000 0.056003
Si Si3 0.423525 0.414277 0.379627
Si Si4 0.885841 0.669160 0.080801
O O1 0.938631 0.608517 0.521936
O O2 0.899451 0.827656 0.435197
O O3 0.878990 0.075922 0.522650
O O4 0.000000 0.000000 0.483276
O O5 0.962857 0.773672 0.089286
O O6 0.500000 0.500000 0.375590
O O7 0.376085 0.660370 0.364930
O O8 0.415274 0.156883 0.344036
#
# Coordination Sequence:
#
# PCOD8187152 Si02
#       4
#    16   8  16  16
#     4   9  21  38  65  92 119 157 215 257 295 358
#     4  10  20  42  66  92 118 162 208 268 296 356
#     4  11  24  38  65  92 124 163 207 252 312 367
#     4  11  22  39  64  90 125 156 208 256 307 360
#
# _framework density 20.837575000000001
#
# number of rings (size 3 to 8) (size 9 to 14) (size 15 to 20)
#    0.000    1.714    2.857    0.857   12.000    0.000 
#    0.000    0.000   18.857    0.000    0.000    0.000 
#    0.000    0.000    0.000    0.000    0.000    0.000 
#
# Total GULP energy -173438.484012 kJ/mol
# GULP energy per Si atom -12388.463144 kJ/mol
# Density = 2.079015 g / cm^3
# Si number density = 20.837575 Si / 1000 Ang^3
#
#
#
# Elastic Constant Matrix: (Units=GPa)
#
#
# Indices 1 2 3 4 5 6 
#
# 1 54.1391 37.4078 63.2862 0.0090 0.0001 0.1159
# 2 37.4078 138.0837 59.5322 0.0106 -0.0140 -0.0006
# 3 63.2862 59.5322 127.8951 -0.0009 -0.0002 -0.0081
# 4 0.0090 0.0106 -0.0009 20.1340 -0.0119 -0.0082
# 5 0.0001 -0.0140 -0.0002 -0.0119 29.6518 -0.0021
# 6 0.1159 -0.0006 -0.0081 -0.0082 -0.0021 46.4203
#
#
#
# Elastic Compliance Matrix: (Units=1/GPa)
#
#
# Indices 1 2 3 4 5 6 
#
# 1 0.044943 -0.003237 -0.020732 -0.000019 -0.000002 -0.000116
# 2 -0.003237 0.009293 -0.002724 -0.000004 0.000004 0.000008
# 3 -0.020732 -0.002724 0.019346 0.000012 -0.000001 0.000055
# 4 -0.000019 -0.000004 0.000012 0.049667 0.000020 0.000009
# 5 -0.000002 0.000004 -0.000001 0.000020 0.033725 0.000002
# 6 -0.000116 0.000008 0.000055 0.000009 0.000002 0.021543
#
#
# Mechanical properties :
#
#
# Convention : Reuss Voigt Hill
#
# Bulk Modulus (GPa) = 49.51628 71.17446 60.34537
# Shear Modulus (GPa) = 20.95245 29.90067 25.42656
#
# Velocity S-wave (km/s) = 3.17442 3.79217 3.49696
# Velocity P-wave (km/s) = 6.10332 7.30787 6.73259
#
# Compressibility (1/GPa) = 0.02019538
#
# Stress axis : x y z
#
# Youngs Moduli (GPa) = 22.25039 107.60394 51.69058
#
# Poissons Ratio (x) = 0.34831 1.07167
# Poissons Ratio (y) = 0.07202 0.14081
# Poissons Ratio (z) = 0.46130 0.29312
#
# Static dielectric constant tensor:
#      x y z
#    x 3.633050 0.000160 0.000060 
#    y 0.000160 4.138990 0.000020 
#    z 0.000060 0.000020 4.137230 
# 
# 
# High freq. dielectric constant tensor:
#      x y z
#    x 1.777150 0.000000 0.000000 
#    y 0.000000 1.841230 0.000000 
#    z 0.000000 0.000000 1.801990 
# 
# From -- ./inp_files/12099.got.cif
#   From: 2010.06.25/outbox.cif.g09.slc.cpg/sg43_7_cif.got.tgz:12099.got - 2010.06.26 16:48:59.
