data_PCOD8187397
_publ_section_title
;
Structure prediction by ZEFSAII (Michael W. Deem and Ramdas Pophale) SiO2 
 PCOD8187397
Probable space group: F D D 2
;
_chemical_formula_sum "Si O2"
_cell_formula_units_Z 80
_cell_length_a 10.285502
_cell_length_b 24.279286
_cell_length_c 15.027001
_cell_angle_alpha 90.000000
_cell_angle_beta 90.000000
_cell_angle_gamma 90.000000
_cell_volume 3752.612486
_symmetry_space_group_name_H-M "F D D 2"
_symmetry_group_IT_number 43
_symmetry_cell_setting 'orthorhombic'
loop_
_space_group_symop_operation_xyz
x,y,z
-x,-y,z
1/4-x,1/4+y,1/4+z
1/4+x,1/4-y,1/4+z
x,1/2+y,1/2+z
-x,1/2-y,1/2+z
1/4-x,3/4+y,3/4+z
1/4+x,3/4-y,3/4+z
1/2+x,y,1/2+z
1/2-x,-y,1/2+z
3/4-x,1/4+y,3/4+z
3/4+x,1/4-y,3/4+z
1/2+x,1/2+y,z
1/2-x,1/2-y,z
3/4-x,3/4+y,1/4+z
3/4+x,3/4-y,1/4+z
loop_
_atom_site_type_symbol
_atom_site_label
_atom_site_fract_x
_atom_site_fract_y
_atom_site_fract_z
Si Si1 0.396057 0.310558 0.081230
Si Si2 0.446123 0.287887 0.626216
Si Si3 0.750000 0.250000 0.981074
Si Si4 0.790105 0.838726 0.903064
Si Si5 0.178566 0.591124 0.685756
Si Si6 0.500000 0.500000 0.520753
O O1 0.421056 0.247322 0.109753
O O2 0.372471 0.347374 0.168316
O O3 0.281609 0.316998 0.006248
O O4 0.531002 0.334895 0.039416
O O5 0.352438 0.284477 0.540639
O O6 0.485580 0.350068 0.645639
O O7 0.374951 0.262928 0.711705
O O8 0.677783 0.293643 0.916151
O O9 0.709537 0.800717 0.835285
O O10 0.942458 0.833686 0.874433
#
# Coordination Sequence:
#
# PCOD8187397 Si02
#       6
#    16  16   8  16  16   8
#     4   9  21  41  62  93 129 168 212 265 328 381
#     4  10  22  42  67  95 131 168 220 274 321 400
#     4   9  20  42  64  95 130 174 220 269 322 396
#     4  10  23  40  64  95 130 164 218 276 320 389
#     4   9  20  41  61  91 128 170 215 263 326 387
#     4  11  24  42  68  95 122 180 226 251 344 384
#
# _framework density 21.318480999999998
#
# number of rings (size 3 to 8) (size 9 to 14) (size 15 to 20)
#    1.200    1.200    0.000    1.200    2.800    4.000 
#    7.200    0.000    0.000    0.000    0.000    0.000 
#    0.000    0.000    0.000    0.000    0.000    0.000 
#
# Total GULP energy -247766.595378 kJ/mol
# GULP energy per Si atom -12388.329769 kJ/mol
# Density = 2.126996 g / cm^3
# Si number density = 21.318481 Si / 1000 Ang^3
#
#
#
# Elastic Constant Matrix: (Units=GPa)
#
#
# Indices 1 2 3 4 5 6 
#
# 1 61.8481 48.8962 19.8292 0.0000 0.0000 0.0000
# 2 48.8962 166.6867 64.5493 0.0000 0.0000 0.0000
# 3 19.8292 64.5493 74.2693 0.0000 0.0000 0.0000
# 4 0.0000 0.0000 0.0000 36.1025 0.0000 0.0000
# 5 0.0000 0.0000 0.0000 0.0000 14.5318 0.0000
# 6 0.0000 0.0000 0.0000 0.0000 0.0000 42.1759
#
#
#
# Elastic Compliance Matrix: (Units=1/GPa)
#
#
# Indices 1 2 3 4 5 6 
#
# 1 0.021058 -0.006029 -0.000382 0.000000 0.000000 0.000000
# 2 -0.006029 0.010769 -0.007750 0.000000 0.000000 0.000000
# 3 -0.000382 -0.007750 0.020302 0.000000 0.000000 0.000000
# 4 0.000000 0.000000 0.000000 0.027699 0.000000 0.000000
# 5 0.000000 0.000000 0.000000 0.000000 0.068815 0.000000
# 6 0.000000 0.000000 0.000000 0.000000 0.000000 0.023710
#
#
# Mechanical properties :
#
#
# Convention : Reuss Voigt Hill
#
# Bulk Modulus (GPa) = 42.00522 63.26149 52.63336
# Shear Modulus (GPa) = 23.96811 29.86400 26.91605
#
# Velocity S-wave (km/s) = 3.35668 3.74685 3.55712
# Velocity P-wave (km/s) = 5.89657 6.96114 6.45085
#
# Compressibility (1/GPa) = 0.02380656
#
# Stress axis : x y z
#
# Youngs Moduli (GPa) = 47.48853 92.85894 49.25574
#
# Poissons Ratio (x) = 0.55986 0.01882
# Poissons Ratio (y) = 0.28631 0.38173
# Poissons Ratio (z) = 0.01815 0.71965
#
# Static dielectric constant tensor:
#      x y z
#    x 3.746270 0.000000 0.000000 
#    y 0.000000 3.703340 0.000000 
#    z 0.000000 0.000000 3.638480 
# 
# 
# High freq. dielectric constant tensor:
#      x y z
#    x 1.821080 0.000000 0.000000 
#    y 0.000000 1.838730 0.000000 
#    z 0.000000 0.000000 1.817390 
# 
# From -- ./inp_files/9559.got.cif
#   From: 2010.06.25/outbox.cif.g09.slc.cpg/sg43_5_cif.got.tgz:9559.got - 2010.06.26 16:48:59.
