data_PCOD8187392
_publ_section_title
;
Structure prediction by ZEFSAII (Michael W. Deem and Ramdas Pophale) SiO2 
 PCOD8187392
Probable space group: F D D 2
;
_chemical_formula_sum "Si O2"
_cell_formula_units_Z 80
_cell_length_a 15.687110
_cell_length_b 22.127338
_cell_length_c 9.230096
_cell_angle_alpha 90.000000
_cell_angle_beta 90.000000
_cell_angle_gamma 90.000000
_cell_volume 3203.895406
_symmetry_space_group_name_H-M "F D D 2"
_symmetry_group_IT_number 43
_symmetry_cell_setting 'orthorhombic'
loop_
_space_group_symop_operation_xyz
x,y,z
-x,-y,z
1/4-x,1/4+y,1/4+z
1/4+x,1/4-y,1/4+z
x,1/2+y,1/2+z
-x,1/2-y,1/2+z
1/4-x,3/4+y,3/4+z
1/4+x,3/4-y,3/4+z
1/2+x,y,1/2+z
1/2-x,-y,1/2+z
3/4-x,1/4+y,3/4+z
3/4+x,1/4-y,3/4+z
1/2+x,1/2+y,z
1/2-x,1/2-y,z
3/4-x,3/4+y,1/4+z
3/4+x,3/4-y,1/4+z
loop_
_atom_site_type_symbol
_atom_site_label
_atom_site_fract_x
_atom_site_fract_y
_atom_site_fract_z
Si Si1 0.689410 0.383125 0.673510
Si Si2 0.154528 0.328802 0.643294
Si Si3 0.846277 0.318676 0.705889
Si Si4 0.188851 0.008080 0.164989
Si Si5 0.937895 0.149699 0.428609
O O1 0.744565 0.319787 0.671625
O O2 0.655002 0.404509 0.828618
O O3 0.754221 0.434826 0.618065
O O4 0.611284 0.373782 0.567801
O O5 0.100556 0.385774 0.590500
O O6 0.126714 0.271262 0.547091
O O7 0.255772 0.341704 0.627854
O O8 0.126922 0.322239 0.811110
O O9 0.885144 0.256007 0.766872
O O10 0.246504 0.952809 0.220555
#
# Coordination Sequence:
#
# PCOD8187392 Si02
#       5
#    16  16  16  16  16
#     4  11  24  45  71 104 141 181 235 301 355 420
#     4  10  22  43  68  98 135 182 232 285 349 420
#     4  10  22  43  68  98 135 182 232 285 349 420
#     4  10  22  42  66 100 144 188 230 278 351 432
#     4  11  24  45  71 104 141 181 235 301 355 420
#
# _framework density 24.969602999999999
#
# number of rings (size 3 to 8) (size 9 to 14) (size 15 to 20)
#    0.000    1.600    0.000    6.000    0.000   12.800 
#    0.000   36.000    0.000    0.000    0.000    0.000 
#    0.000    0.000    0.000    0.000    0.000    0.000 
#
# Total GULP energy -247871.413134 kJ/mol
# GULP energy per Si atom -12393.570657 kJ/mol
# Density = 2.491277 g / cm^3
# Si number density = 24.969603 Si / 1000 Ang^3
#
#
#
# Elastic Constant Matrix: (Units=GPa)
#
#
# Indices 1 2 3 4 5 6 
#
# 1 156.4874 59.3633 68.4850 0.0000 0.0000 0.0000
# 2 59.3633 71.6452 51.2553 0.0000 0.0000 0.0000
# 3 68.4850 51.2553 130.8144 0.0000 0.0000 0.0000
# 4 0.0000 0.0000 0.0000 45.6626 0.0000 0.0000
# 5 0.0000 0.0000 0.0000 0.0000 43.6089 0.0000
# 6 0.0000 0.0000 0.0000 0.0000 0.0000 47.6459
#
#
#
# Elastic Compliance Matrix: (Units=1/GPa)
#
#
# Indices 1 2 3 4 5 6 
#
# 1 0.009989 -0.006302 -0.002760 0.000000 0.000000 0.000000
# 2 -0.006302 0.023370 -0.005857 0.000000 0.000000 0.000000
# 3 -0.002760 -0.005857 0.011385 0.000000 0.000000 0.000000
# 4 0.000000 0.000000 0.000000 0.021900 0.000000 0.000000
# 5 0.000000 0.000000 0.000000 0.000000 0.022931 0.000000
# 6 0.000000 0.000000 0.000000 0.000000 0.000000 0.020988
#
#
# Mechanical properties :
#
#
# Convention : Reuss Voigt Hill
#
# Bulk Modulus (GPa) = 67.09622 79.68378 73.39000
# Shear Modulus (GPa) = 34.39519 39.37302 36.88411
#
# Velocity S-wave (km/s) = 3.71547 3.97525 3.84755
# Velocity P-wave (km/s) = 6.73319 7.28366 7.01383
#
# Compressibility (1/GPa) = 0.01490397
#
# Stress axis : x y z
#
# Youngs Moduli (GPa) = 100.11127 42.79068 87.83817
#
# Poissons Ratio (x) = 0.26966 0.24246
# Poissons Ratio (y) = 0.63088 0.51451
# Poissons Ratio (z) = 0.27634 0.25064
#
# Static dielectric constant tensor:
#      x y z
#    x 4.790550 0.000000 0.000000 
#    y 0.000000 4.711200 0.000000 
#    z 0.000000 0.000000 4.351050 
# 
# 
# High freq. dielectric constant tensor:
#      x y z
#    x 2.012350 0.000000 0.000000 
#    y 0.000000 1.981590 0.000000 
#    z 0.000000 0.000000 1.989810 
# 
# From -- ./inp_files/2813.got.cif
#   From: 2010.06.25/outbox.cif.g09.slc.cpg/sg43_2_cif.got.tgz:2813.got - 2010.06.26 16:48:59.
