data_PCOD8187936
_publ_section_title
;
Structure prediction by ZEFSAII (Michael W. Deem and Ramdas Pophale) SiO2 
 PCOD8187936
Probable space group: I M M 2
;
_chemical_formula_sum "Si O2"
_cell_formula_units_Z 64
_cell_length_a 14.229423
_cell_length_b 18.950824
_cell_length_c 11.802612
_cell_angle_alpha 90.000000
_cell_angle_beta 90.000000
_cell_angle_gamma 90.000000
_cell_volume 3182.683983
_symmetry_space_group_name_H-M "I M M 2"
_symmetry_group_IT_number 44
_symmetry_cell_setting 'orthorhombic'
loop_
_space_group_symop_operation_xyz
x,y,z
-x,-y,z
-x,y,z
x,-y,z
1/2+x,1/2+y,1/2+z
1/2-x,1/2-y,1/2+z
1/2-x,1/2+y,1/2+z
1/2+x,1/2-y,1/2+z
loop_
_atom_site_type_symbol
_atom_site_label
_atom_site_fract_x
_atom_site_fract_y
_atom_site_fract_z
Si Si1 0.390884 0.213685 0.945270
Si Si2 0.604858 0.641139 0.453165
Si Si3 0.390629 0.804681 0.485982
Si Si4 0.894880 0.120593 0.465749
Si Si5 0.895888 0.148436 0.706650
Si Si6 0.756984 0.637903 0.617496
Si Si7 0.287202 0.077582 0.345893
Si Si8 0.205712 0.720706 0.210165
O O1 0.500000 0.192831 0.938927
O O2 0.375727 0.295790 0.969992
O O3 0.342304 0.195246 0.825811
O O4 0.343176 0.168991 0.045260
O O5 0.500000 0.632175 0.503776
O O6 0.631843 0.724927 0.445442
O O7 0.610438 0.607336 0.327041
O O8 0.680487 0.602287 0.532864
O O9 0.500000 0.818967 0.495011
O O10 0.348393 0.859755 0.397094
O O11 0.344807 0.820771 0.607833
O O12 0.883863 0.096346 0.598202
O O13 0.820989 0.081340 0.386978
O O14 0.000000 0.103618 0.420546
O O15 0.816693 0.207670 0.708187
O O16 0.000000 0.185037 0.698654
O O17 0.793023 0.581747 0.709029
O O18 0.697178 0.695681 0.689848
O O19 0.326148 0.000000 0.379652
#
# Coordination Sequence:
#
# PCOD8187936 Si02
#       8
#     8   8   8   8   8   8   8   8
#     4  11  21  33  56  88 118 148 181 237 306 351
#     4   9  18  32  56  88 116 144 175 231 303 348
#     4  10  21  36  55  82 114 147 191 239 285 341
#     4  10  20  35  55  84 118 148 186 235 290 350
#     4  10  17  28  53  84 113 142 175 223 291 354
#     4  11  21  33  53  80 117 151 187 235 277 345
#     4  12  25  40  56  78 114 165 202 227 269 335
#     4  11  18  33  58  84 116 143 180 240 307 346
#
# _framework density 20.108815
#
# number of rings (size 3 to 8) (size 9 to 14) (size 15 to 20)
#    0.000    1.500    5.000    1.875    0.000    2.000 
#    0.000    0.000    0.000    3.000    0.000    1.750 
#    0.000    0.000    0.000    0.000    0.000    0.000 
#
# Total GULP energy -396628.177097 kJ/mol
# GULP energy per Si atom -12394.630534 kJ/mol
# Density = 2.006305 g / cm^3
# Si number density = 20.108815 Si / 1000 Ang^3
#
#
#
# Elastic Constant Matrix: (Units=GPa)
#
#
# Indices 1 2 3 4 5 6 
#
# 1 105.2278 10.9450 45.8997 0.0000 0.0000 0.0000
# 2 10.9450 29.5544 15.1648 0.0000 0.0000 0.0000
# 3 45.8997 15.1648 133.6276 0.0000 0.0000 0.0000
# 4 0.0000 0.0000 0.0000 10.8008 0.0000 0.0000
# 5 0.0000 0.0000 0.0000 0.0000 29.0982 0.0000
# 6 0.0000 0.0000 0.0000 0.0000 0.0000 6.0073
#
#
#
# Elastic Compliance Matrix: (Units=1/GPa)
#
#
# Indices 1 2 3 4 5 6 
#
# 1 0.011328 -0.002334 -0.003626 0.000000 0.000000 0.000000
# 2 -0.002334 0.036409 -0.003330 0.000000 0.000000 0.000000
# 3 -0.003626 -0.003330 0.009107 0.000000 0.000000 0.000000
# 4 0.000000 0.000000 0.000000 0.092586 0.000000 0.000000
# 5 0.000000 0.000000 0.000000 0.000000 0.034366 0.000000
# 6 0.000000 0.000000 0.000000 0.000000 0.000000 0.166463
#
#
# Mechanical properties :
#
#
# Convention : Reuss Voigt Hill
#
# Bulk Modulus (GPa) = 26.13515 45.82542 35.98029
# Shear Modulus (GPa) = 13.10291 22.27461 17.68876
#
# Velocity S-wave (km/s) = 2.55542 3.33183 2.96911
# Velocity P-wave (km/s) = 4.66175 6.13512 5.44847
#
# Compressibility (1/GPa) = 0.03826265
#
# Stress axis : x y z
#
# Youngs Moduli (GPa) = 88.27963 27.46564 109.80692
#
# Poissons Ratio (x) = 0.06412 0.39816
# Poissons Ratio (y) = 0.20608 0.36566
# Poissons Ratio (z) = 0.32010 0.09146
#
# Static dielectric constant tensor:
#      x y z
#    x 3.822120 0.000000 0.000000 
#    y 0.000000 2.985010 0.000000 
#    z 0.000000 0.000000 4.095240 
# 
# 
# High freq. dielectric constant tensor:
#      x y z
#    x 1.797340 0.000000 0.000000 
#    y 0.000000 1.706400 0.000000 
#    z 0.000000 0.000000 1.808690 
# 
# From -- ./inp_files/13449.got.cif
#   From: 2010.03.12/outbox.cif.g09.slc.cpg/sg44_7_cif.got.tgz:13449.got - 2010.04.14 02:36:11.
