data_PCOD8187408
_publ_section_title
;
Structure prediction by ZEFSAII (Michael W. Deem and Ramdas Pophale) SiO2 
 PCOD8187408
Probable space group: F D D 2
;
_chemical_formula_sum "Si O2"
_cell_formula_units_Z 80
_cell_length_a 24.764432
_cell_length_b 11.677810
_cell_length_c 11.647537
_cell_angle_alpha 90.000000
_cell_angle_beta 90.000000
_cell_angle_gamma 90.000000
_cell_volume 3368.401678
_symmetry_space_group_name_H-M "F D D 2"
_symmetry_group_IT_number 43
_symmetry_cell_setting 'orthorhombic'
loop_
_space_group_symop_operation_xyz
x,y,z
-x,-y,z
1/4-x,1/4+y,1/4+z
1/4+x,1/4-y,1/4+z
x,1/2+y,1/2+z
-x,1/2-y,1/2+z
1/4-x,3/4+y,3/4+z
1/4+x,3/4-y,3/4+z
1/2+x,y,1/2+z
1/2-x,-y,1/2+z
3/4-x,1/4+y,3/4+z
3/4+x,1/4-y,3/4+z
1/2+x,1/2+y,z
1/2-x,1/2-y,z
3/4-x,3/4+y,1/4+z
3/4+x,3/4-y,1/4+z
loop_
_atom_site_type_symbol
_atom_site_label
_atom_site_fract_x
_atom_site_fract_y
_atom_site_fract_z
Si Si1 0.815731 0.139244 0.447520
Si Si2 0.345968 0.288724 0.543900
Si Si3 0.942450 0.644857 0.138040
Si Si4 0.426331 0.792277 0.847983
Si Si5 0.293802 0.992315 0.144572
O O1 0.856087 0.054594 0.384795
O O2 0.832548 0.268940 0.412970
O O3 0.756480 0.112402 0.400276
O O4 0.817163 0.110781 0.586345
O O5 0.371893 0.271528 0.419042
O O6 0.313076 0.176446 0.579296
O O7 0.304283 0.394638 0.547839
O O8 0.916034 0.731180 0.227390
O O9 0.927658 0.697673 0.012164
O O10 0.479491 0.742379 0.911775
#
# Coordination Sequence:
#
# PCOD8187408 Si02
#       5
#    16  16  16  16  16
#     4  10  22  42  70 100 129 183 236 278 342 429
#     4  12  22  43  67  97 137 179 233 282 348 428
#     4  10  23  44  69  98 142 178 231 296 348 411
#     4  11  25  43  67 103 139 177 234 293 352 421
#     4  11  23  43  73  99 134 187 232 284 353 423
#
# _framework density 23.750138
#
# number of rings (size 3 to 8) (size 9 to 14) (size 15 to 20)
#    0.000    1.200    4.000    1.800    2.800    1.600 
#    3.600    0.000    8.800    0.000    0.000    0.000 
#    0.000    0.000    0.000    0.000    0.000    0.000 
#
# Total GULP energy -247955.394185 kJ/mol
# GULP energy per Si atom -12397.769709 kJ/mol
# Density = 2.369608 g / cm^3
# Si number density = 23.750138 Si / 1000 Ang^3
#
#
#
# Elastic Constant Matrix: (Units=GPa)
#
#
# Indices 1 2 3 4 5 6 
#
# 1 26.2682 8.4806 24.6687 0.0000 0.0000 0.0000
# 2 8.4806 96.7791 59.6221 0.0000 0.0000 0.0000
# 3 24.6687 59.6221 157.9023 0.0000 0.0000 0.0000
# 4 0.0000 0.0000 0.0000 43.7766 0.0000 0.0000
# 5 0.0000 0.0000 0.0000 0.0000 36.1818 0.0000
# 6 0.0000 0.0000 0.0000 0.0000 0.0000 33.4089
#
#
#
# Elastic Compliance Matrix: (Units=1/GPa)
#
#
# Indices 1 2 3 4 5 6 
#
# 1 0.044633 0.000501 -0.007162 0.000000 0.000000 0.000000
# 2 0.000501 0.013471 -0.005165 0.000000 0.000000 0.000000
# 3 -0.007162 -0.005165 0.009402 0.000000 0.000000 0.000000
# 4 0.000000 0.000000 0.000000 0.022843 0.000000 0.000000
# 5 0.000000 0.000000 0.000000 0.000000 0.027638 0.000000
# 6 0.000000 0.000000 0.000000 0.000000 0.000000 0.029932
#
#
# Mechanical properties :
#
#
# Convention : Reuss Voigt Hill
#
# Bulk Modulus (GPa) = 22.80266 51.83249 37.31758
# Shear Modulus (GPa) = 26.85447 35.21867 31.03657
#
# Velocity S-wave (km/s) = 3.36625 3.85500 3.61888
# Velocity P-wave (km/s) = 4.97300 6.45648 5.76268
#
# Compressibility (1/GPa) = 0.04385453
#
# Stress axis : x y z
#
# Youngs Moduli (GPa) = 22.40495 74.23551 106.35955
#
# Poissons Ratio (x) = -0.03721 0.76176
# Poissons Ratio (y) = -0.01123 0.54931
# Poissons Ratio (z) = 0.16047 0.38340
#
# Static dielectric constant tensor:
#      x y z
#    x 4.155530 0.000000 0.000000 
#    y 0.000000 4.264720 0.000000 
#    z 0.000000 0.000000 4.333780 
# 
# 
# High freq. dielectric constant tensor:
#      x y z
#    x 1.954250 0.000000 0.000000 
#    y 0.000000 1.931520 0.000000 
#    z 0.000000 0.000000 1.932000 
# 
# From -- ./inp_files/5679.got.cif
#   From: 2010.06.25/outbox.cif.g09.slc.cpg/sg43_3_cif.got.tgz:5679.got - 2010.06.26 16:48:59.
