data_PCOD8187959
_publ_section_title
;
Structure prediction by ZEFSAII (Michael W. Deem and Ramdas Pophale) SiO2 
 PCOD8187959
Probable space group: I M M 2
;
_chemical_formula_sum "Si O2"
_cell_formula_units_Z 36
_cell_length_a 12.326232
_cell_length_b 14.506198
_cell_length_c 8.121771
_cell_angle_alpha 90.000000
_cell_angle_beta 90.000000
_cell_angle_gamma 90.000000
_cell_volume 1452.227574
_symmetry_space_group_name_H-M "I M M 2"
_symmetry_group_IT_number 44
_symmetry_cell_setting 'orthorhombic'
loop_
_space_group_symop_operation_xyz
x,y,z
-x,-y,z
-x,y,z
x,-y,z
1/2+x,1/2+y,1/2+z
1/2-x,1/2-y,1/2+z
1/2-x,1/2+y,1/2+z
1/2+x,1/2-y,1/2+z
loop_
_atom_site_type_symbol
_atom_site_label
_atom_site_fract_x
_atom_site_fract_y
_atom_site_fract_z
Si Si1 0.373913 0.000000 0.122491
Si Si2 0.371060 0.194570 0.267683
Si Si3 0.874251 0.199149 0.448723
Si Si4 0.120589 0.000000 0.545118
Si Si5 0.681634 0.000000 0.755840
Si Si6 0.123645 0.696412 0.134880
O O1 0.340584 0.089845 0.224231
O O2 0.500000 0.000000 0.077731
O O3 0.311776 0.000000 0.951006
O O4 0.500000 0.206037 0.283790
O O5 0.326302 0.264505 0.125379
O O6 0.319409 0.211428 0.453120
O O7 0.820252 0.243105 0.282313
O O8 0.000000 0.230302 0.448112
O O9 0.858885 0.089682 0.433388
O O10 0.193215 0.000000 0.706252
O O11 0.000000 0.000000 0.617831
O O12 0.621892 0.910762 0.683286
O O13 0.000000 0.729839 0.116514
#
# Coordination Sequence:
#
# PCOD8187959 Si02
#       6
#     4   8   8   4   4   8
#     4  10  17  30  57  99 145 169 190 249 336 405
#     4   9  17  31  57  93 131 166 194 244 322 392
#     4   9  18  38  63  84 119 169 215 257 305 369
#     4  10  24  45  64  84 123 181 230 265 307 363
#     4  12  21  35  61  97 124 168 212 260 327 378
#     4  10  19  34  63 101 133 158 197 259 332 396
#
# _framework density 24.789501999999999
#
# number of rings (size 3 to 8) (size 9 to 14) (size 15 to 20)
#    0.000    2.222    2.222    1.667    0.000    1.778 
#    4.000    1.111    4.889    6.667    0.000    0.000 
#    0.000    0.000    0.000    0.000    0.000    0.000 
#
# Total GULP energy -223289.281010 kJ/mol
# GULP energy per Si atom -12404.960056 kJ/mol
# Density = 2.473308 g / cm^3
# Si number density = 24.789502 Si / 1000 Ang^3
#
#
#
# Elastic Constant Matrix: (Units=GPa)
#
#
# Indices 1 2 3 4 5 6 
#
# 1 75.8935 19.4990 75.5090 0.0000 0.0000 0.0000
# 2 19.4990 187.4582 103.6216 0.0000 0.0000 0.0000
# 3 75.5090 103.6216 270.0182 0.0000 0.0000 0.0000
# 4 0.0000 0.0000 0.0000 35.8969 0.0000 0.0000
# 5 0.0000 0.0000 0.0000 0.0000 49.6420 0.0000
# 6 0.0000 0.0000 0.0000 0.0000 0.0000 7.9334
#
#
#
# Elastic Compliance Matrix: (Units=1/GPa)
#
#
# Indices 1 2 3 4 5 6 
#
# 1 0.018461 0.001185 -0.005617 0.000000 0.000000 0.000000
# 2 0.001185 0.006847 -0.002959 0.000000 0.000000 0.000000
# 3 -0.005617 -0.002959 0.006410 0.000000 0.000000 0.000000
# 4 0.000000 0.000000 0.000000 0.027858 0.000000 0.000000
# 5 0.000000 0.000000 0.000000 0.000000 0.020144 0.000000
# 6 0.000000 0.000000 0.000000 0.000000 0.000000 0.126049
#
#
# Mechanical properties :
#
#
# Convention : Reuss Voigt Hill
#
# Bulk Modulus (GPa) = 59.05001 103.40323 81.22662
# Shear Modulus (GPa) = 22.10485 41.01050 31.55768
#
# Velocity S-wave (km/s) = 2.98938 4.07178 3.57182
# Velocity P-wave (km/s) = 5.98226 7.99431 7.06033
#
# Compressibility (1/GPa) = 0.01693480
#
# Stress axis : x y z
#
# Youngs Moduli (GPa) = 54.16958 146.05265 156.01368
#
# Poissons Ratio (x) = -0.17303 0.87633
# Poissons Ratio (y) = -0.06418 0.46162
# Poissons Ratio (z) = 0.30427 0.43214
#
# Static dielectric constant tensor:
#      x y z
#    x 4.742660 0.000000 0.000000 
#    y 0.000000 4.335620 0.000000 
#    z 0.000000 0.000000 4.827510 
# 
# 
# High freq. dielectric constant tensor:
#      x y z
#    x 2.039860 0.000000 0.000000 
#    y 0.000000 1.973900 0.000000 
#    z 0.000000 0.000000 2.005010 
# 
# From -- ./inp_files/6786.got.cif
#   From: 2010.03.12/outbox.cif.g09.slc.cpg/sg44_4_cif.got.tgz:6786.got - 2010.04.14 02:36:11.
