data_PCOD8187800
_publ_section_title
;
Structure prediction by ZEFSAII (Michael W. Deem and Ramdas Pophale) SiO2 
 PCOD8187800
Probable space group: F D D 2
;
_chemical_formula_sum "Si O2"
_cell_formula_units_Z 72
_cell_length_a 12.951515
_cell_length_b 7.688073
_cell_length_c 32.994712
_cell_angle_alpha 90.000000
_cell_angle_beta 90.000000
_cell_angle_gamma 90.000000
_cell_volume 3285.355824
_symmetry_space_group_name_H-M "F D D 2"
_symmetry_group_IT_number 43
_symmetry_cell_setting 'orthorhombic'
loop_
_space_group_symop_operation_xyz
x,y,z
-x,-y,z
1/4-x,1/4+y,1/4+z
1/4+x,1/4-y,1/4+z
x,1/2+y,1/2+z
-x,1/2-y,1/2+z
1/4-x,3/4+y,3/4+z
1/4+x,3/4-y,3/4+z
1/2+x,y,1/2+z
1/2-x,-y,1/2+z
3/4-x,1/4+y,3/4+z
3/4+x,1/4-y,3/4+z
1/2+x,1/2+y,z
1/2-x,1/2-y,z
3/4-x,3/4+y,1/4+z
3/4+x,3/4-y,1/4+z
loop_
_atom_site_type_symbol
_atom_site_label
_atom_site_fract_x
_atom_site_fract_y
_atom_site_fract_z
Si Si1 0.834913 0.110315 0.130110
Si Si2 0.710736 0.571792 0.878036
Si Si3 0.962478 0.325583 0.317367
Si Si4 0.406211 0.117794 0.448922
Si Si5 0.500000 0.500000 0.263757
O O1 0.750000 0.250000 0.119199
O O2 0.947173 0.185414 0.118448
O O3 0.805851 0.950406 0.100305
O O4 0.819656 0.052935 0.177133
O O5 0.750000 0.750000 0.897902
O O6 0.646751 0.631051 0.838429
O O7 0.645684 0.488881 0.913353
O O8 0.000000 0.500000 0.293109
O O9 0.948122 0.154406 0.289868
O O10 0.336635 0.156076 0.487437
O O11 0.500000 0.000000 0.465076
#
# Coordination Sequence:
#
# PCOD8187800 Si02
#       5
#    16  16  16  16   8
#     4  12  21  43  75 107 141 190 261 299 353 464
#     4  12  21  40  79 105 137 194 251 302 361 453
#     4  12  25  47  72 107 150 192 250 304 375 450
#     4  12  24  47  73 108 142 197 250 306 373 447
#     4  12  28  50  68 112 166 182 242 338 382 418
#
# _framework density 21.915434999999999
#
# number of rings (size 3 to 8) (size 9 to 14) (size 15 to 20)
#    0.000    0.000   10.000    0.000    0.000    0.889 
#   12.000    0.000    0.000    0.000    0.000    0.000 
#    0.000    0.000    0.000    0.000    0.000    0.000 
#
# Total GULP energy -223058.491868 kJ/mol
# GULP energy per Si atom -12392.138437 kJ/mol
# Density = 2.186555 g / cm^3
# Si number density = 21.915435 Si / 1000 Ang^3
#
#
#
# Elastic Constant Matrix: (Units=GPa)
#
#
# Indices 1 2 3 4 5 6 
#
# 1 146.7193 55.1549 50.7869 0.0000 0.0000 0.0000
# 2 55.1549 131.2930 39.7669 0.0000 0.0000 0.0000
# 3 50.7869 39.7669 100.4593 0.0000 0.0000 0.0000
# 4 0.0000 0.0000 0.0000 14.7065 0.0000 0.0000
# 5 0.0000 0.0000 0.0000 0.0000 21.5849 0.0000
# 6 0.0000 0.0000 0.0000 0.0000 0.0000 51.8208
#
#
#
# Elastic Compliance Matrix: (Units=1/GPa)
#
#
# Indices 1 2 3 4 5 6 
#
# 1 0.009057 -0.002747 -0.003491 0.000000 0.000000 0.000000
# 2 -0.002747 0.009488 -0.002367 0.000000 0.000000 0.000000
# 3 -0.003491 -0.002367 0.012656 0.000000 0.000000 0.000000
# 4 0.000000 0.000000 0.000000 0.067997 0.000000 0.000000
# 5 0.000000 0.000000 0.000000 0.000000 0.046329 0.000000
# 6 0.000000 0.000000 0.000000 0.000000 0.000000 0.019297
#
#
# Mechanical properties :
#
#
# Convention : Reuss Voigt Hill
#
# Bulk Modulus (GPa) = 71.47909 74.43211 72.95560
# Shear Modulus (GPa) = 26.78127 33.13997 29.96062
#
# Velocity S-wave (km/s) = 3.49954 3.89289 3.70144
# Velocity P-wave (km/s) = 7.00112 7.36500 7.18536
#
# Compressibility (1/GPa) = 0.01399011
#
# Stress axis : x y z
#
# Youngs Moduli (GPa) = 110.41191 105.40147 79.01308
#
# Poissons Ratio (x) = 0.28957 0.27585
# Poissons Ratio (y) = 0.30334 0.18700
# Poissons Ratio (z) = 0.38547 0.24946
#
# Static dielectric constant tensor:
#      x y z
#    x 4.083870 0.000000 0.000000 
#    y 0.000000 4.323290 0.000000 
#    z 0.000000 0.000000 3.792380 
# 
# 
# High freq. dielectric constant tensor:
#      x y z
#    x 1.867710 0.000000 0.000000 
#    y 0.000000 1.899920 0.000000 
#    z 0.000000 0.000000 1.829860 
# 
# From -- ./inp_files/28952.got.cif
#   From: 2010.06.25/outbox.cif.g09.slc.cpg/sg43_15_cif.got.tgz:28952.got - 2010.06.26 16:48:59.
