data_PCOD8187754
_publ_section_title
;
Structure prediction by ZEFSAII (Michael W. Deem and Ramdas Pophale) SiO2 
 PCOD8187754
Probable space group: F D D 2
;
_chemical_formula_sum "Si O2"
_cell_formula_units_Z 112
_cell_length_a 30.458100
_cell_length_b 14.307003
_cell_length_c 11.127979
_cell_angle_alpha 90.000000
_cell_angle_beta 90.000000
_cell_angle_gamma 90.000000
_cell_volume 4849.174066
_symmetry_space_group_name_H-M "F D D 2"
_symmetry_group_IT_number 43
_symmetry_cell_setting 'orthorhombic'
loop_
_space_group_symop_operation_xyz
x,y,z
-x,-y,z
1/4-x,1/4+y,1/4+z
1/4+x,1/4-y,1/4+z
x,1/2+y,1/2+z
-x,1/2-y,1/2+z
1/4-x,3/4+y,3/4+z
1/4+x,3/4-y,3/4+z
1/2+x,y,1/2+z
1/2-x,-y,1/2+z
3/4-x,1/4+y,3/4+z
3/4+x,1/4-y,3/4+z
1/2+x,1/2+y,z
1/2-x,1/2-y,z
3/4-x,3/4+y,1/4+z
3/4+x,3/4-y,1/4+z
loop_
_atom_site_type_symbol
_atom_site_label
_atom_site_fract_x
_atom_site_fract_y
_atom_site_fract_z
Si Si1 0.135898 0.636448 0.775990
Si Si2 0.586898 0.543020 0.693064
Si Si3 0.547625 0.677198 0.139729
Si Si4 0.081507 0.683305 0.990430
Si Si5 0.752063 0.360334 0.103017
Si Si6 0.953363 0.461783 0.439036
Si Si7 0.676202 0.106014 0.288830
O O1 0.090198 0.635543 0.705038
O O2 0.164210 0.544591 0.749593
O O3 0.164557 0.724851 0.740365
O O4 0.122797 0.642087 0.916166
O O5 0.582700 0.639193 0.621687
O O6 0.549308 0.543884 0.794575
O O7 0.582638 0.454496 0.604187
O O8 0.632728 0.545966 0.763150
O O9 0.504129 0.646955 0.215965
O O10 0.547038 0.790192 0.131919
O O11 0.548502 0.638940 0.003389
O O12 0.034975 0.659488 0.932683
O O13 0.750000 0.250000 0.104540
O O14 0.799099 0.383081 0.161661
O O15 0.000000 0.500000 0.477479
#
# Coordination Sequence:
#
# PCOD8187754 Si02
#       7
#    16  16  16  16  16  16  16
#     4  11  24  48  75 103 142 193 251 297 365 441
#     4  12  27  47  73 109 149 194 247 301 376 445
#     4  11  26  49  75 109 146 196 245 309 372 438
#     4  11  25  46  75 105 143 195 242 304 364 436
#     4  11  26  50  73 106 149 191 248 311 360 437
#     4  12  28  46  74 109 152 197 249 309 371 446
#     4  12  27  48  74 108 150 199 243 309 373 446
#
# _framework density 23.096717000000002
#
# number of rings (size 3 to 8) (size 9 to 14) (size 15 to 20)
#    0.000    0.571    4.286    2.143   10.000    1.143 
#    2.571    0.000    0.000    0.000    0.000    0.000 
#    0.000    0.000    0.000    0.000    0.000    0.000 
#
# Total GULP energy -347217.083721 kJ/mol
# GULP energy per Si atom -12400.610133 kJ/mol
# Density = 2.304415 g / cm^3
# Si number density = 23.096717 Si / 1000 Ang^3
#
#
#
# Elastic Constant Matrix: (Units=GPa)
#
#
# Indices 1 2 3 4 5 6 
#
# 1 51.7118 -6.6469 28.6226 0.0000 0.0000 0.0000
# 2 -6.6469 79.1000 36.5958 0.0000 0.0000 0.0000
# 3 28.6226 36.5958 118.7869 0.0000 0.0000 0.0000
# 4 0.0000 0.0000 0.0000 35.7931 0.0000 0.0000
# 5 0.0000 0.0000 0.0000 0.0000 41.3367 0.0000
# 6 0.0000 0.0000 0.0000 0.0000 0.0000 30.7933
#
#
#
# Elastic Compliance Matrix: (Units=1/GPa)
#
#
# Indices 1 2 3 4 5 6 
#
# 1 0.024220 0.005522 -0.007537 0.000000 0.000000 0.000000
# 2 0.005522 0.016003 -0.006261 0.000000 0.000000 0.000000
# 3 -0.007537 -0.006261 0.012163 0.000000 0.000000 0.000000
# 4 0.000000 0.000000 0.000000 0.027938 0.000000 0.000000
# 5 0.000000 0.000000 0.000000 0.000000 0.024192 0.000000
# 6 0.000000 0.000000 0.000000 0.000000 0.000000 0.032475
#
#
# Mechanical properties :
#
#
# Convention : Reuss Voigt Hill
#
# Bulk Modulus (GPa) = 27.90607 40.74909 34.32758
# Shear Modulus (GPa) = 30.21393 34.31976 32.26684
#
# Velocity S-wave (km/s) = 3.62076 3.85894 3.74174
# Velocity P-wave (km/s) = 5.43952 6.12669 5.79330
#
# Compressibility (1/GPa) = 0.03583449
#
# Stress axis : x y z
#
# Youngs Moduli (GPa) = 41.28880 62.48895 82.21384
#
# Poissons Ratio (x) = -0.34508 0.61966
# Poissons Ratio (y) = -0.22801 0.51472
# Poissons Ratio (z) = 0.31120 0.39123
#
# Static dielectric constant tensor:
#      x y z
#    x 4.235380 0.000000 0.000000 
#    y 0.000000 4.070210 0.000000 
#    z 0.000000 0.000000 4.408240 
# 
# 
# High freq. dielectric constant tensor:
#      x y z
#    x 1.911850 0.000000 0.000000 
#    y 0.000000 1.919950 0.000000 
#    z 0.000000 0.000000 1.920990 
# 
# From -- ./inp_files/8267.got.cif
#   From: 2010.06.25/outbox.cif.g09.slc.cpg/sg43_5_cif.got.tgz:8267.got - 2010.06.26 16:48:59.
