data_PCOD8187125
_publ_section_title
;
Structure prediction by ZEFSAII (Michael W. Deem and Ramdas Pophale) SiO2 
 PCOD8187125
Probable space group: F D D 2
;
_chemical_formula_sum "Si O2"
_cell_formula_units_Z 88
_cell_length_a 8.618747
_cell_length_b 29.222164
_cell_length_c 16.824221
_cell_angle_alpha 90.000000
_cell_angle_beta 90.000000
_cell_angle_gamma 90.000000
_cell_volume 4237.322027
_symmetry_space_group_name_H-M "F D D 2"
_symmetry_group_IT_number 43
_symmetry_cell_setting 'orthorhombic'
loop_
_space_group_symop_operation_xyz
x,y,z
-x,-y,z
1/4-x,1/4+y,1/4+z
1/4+x,1/4-y,1/4+z
x,1/2+y,1/2+z
-x,1/2-y,1/2+z
1/4-x,3/4+y,3/4+z
1/4+x,3/4-y,3/4+z
1/2+x,y,1/2+z
1/2-x,-y,1/2+z
3/4-x,1/4+y,3/4+z
3/4+x,1/4-y,3/4+z
1/2+x,1/2+y,z
1/2-x,1/2-y,z
3/4-x,3/4+y,1/4+z
3/4+x,3/4-y,1/4+z
loop_
_atom_site_type_symbol
_atom_site_label
_atom_site_fract_x
_atom_site_fract_y
_atom_site_fract_z
Si Si1 0.955502 0.569207 0.985740
Si Si2 0.200941 0.928712 0.697953
Si Si3 0.250000 0.250000 0.859314
Si Si4 0.883613 0.960329 0.335703
Si Si5 0.447504 0.894304 0.317503
Si Si6 0.093738 0.771768 0.671976
O O1 0.785573 0.543068 0.981326
O O2 0.036914 0.572869 0.900415
O O3 0.059380 0.540309 0.049246
O O4 0.942247 0.620672 0.017964
O O5 0.351639 0.935762 0.752518
O O6 0.256246 0.894008 0.629794
O O7 0.076346 0.903841 0.752648
O O8 0.134686 0.977175 0.663762
O O9 0.724035 0.979467 0.371800
O O10 0.000000 0.000000 0.314798
O O11 0.388559 0.939612 0.358782
O O12 0.250000 0.750000 0.713511
#
# Coordination Sequence:
#
# PCOD8187125 Si02
#       6
#    16  16   8  16  16  16
#     4  10  21  41  62  94 124 161 212 268 321 372
#     4  11  22  39  63  92 126 164 210 254 319 384
#     4  10  20  40  66  86 122 164 208 256 316 386
#     4  10  21  41  64  89 124 163 209 262 311 379
#     4  11  22  38  62  92 124 164 208 262 310 387
#     4  11  19  36  65  90 122 165 212 251 325 373
#
# _framework density 20.767834000000001
#
# number of rings (size 3 to 8) (size 9 to 14) (size 15 to 20)
#    0.000    1.455    6.364    1.091    0.000    0.000 
#    6.545    5.455    4.000    0.000    0.000    0.000 
#    0.000    0.000    0.000    0.000    0.000    0.000 
#
# Total GULP energy -272572.796099 kJ/mol
# GULP energy per Si atom -12389.672550 kJ/mol
# Density = 2.072057 g / cm^3
# Si number density = 20.767834 Si / 1000 Ang^3
#
#
#
# Elastic Constant Matrix: (Units=GPa)
#
#
# Indices 1 2 3 4 5 6 
#
# 1 71.0610 23.8560 33.2598 0.0000 0.0000 0.0000
# 2 23.8560 59.8408 32.9709 0.0000 0.0000 0.0000
# 3 33.2598 32.9709 128.4615 0.0000 0.0000 0.0000
# 4 0.0000 0.0000 0.0000 29.1743 0.0000 0.0000
# 5 0.0000 0.0000 0.0000 0.0000 26.4531 0.0000
# 6 0.0000 0.0000 0.0000 0.0000 0.0000 12.6750
#
#
#
# Elastic Compliance Matrix: (Units=1/GPa)
#
#
# Indices 1 2 3 4 5 6 
#
# 1 0.017277 -0.005151 -0.003151 0.000000 0.000000 0.000000
# 2 -0.005151 0.020999 -0.004056 0.000000 0.000000 0.000000
# 3 -0.003151 -0.004056 0.009641 0.000000 0.000000 0.000000
# 4 0.000000 0.000000 0.000000 0.034277 0.000000 0.000000
# 5 0.000000 0.000000 0.000000 0.000000 0.037803 0.000000
# 6 0.000000 0.000000 0.000000 0.000000 0.000000 0.078895
#
#
# Mechanical properties :
#
#
# Convention : Reuss Voigt Hill
#
# Bulk Modulus (GPa) = 43.10214 48.83742 45.96978
# Shear Modulus (GPa) = 21.61304 24.94560 23.27932
#
# Velocity S-wave (km/s) = 3.22948 3.46954 3.35166
# Velocity P-wave (km/s) = 5.89113 6.29422 6.09601
#
# Compressibility (1/GPa) = 0.02320071
#
# Stress axis : x y z
#
# Youngs Moduli (GPa) = 57.88194 47.62051 103.72115
#
# Poissons Ratio (x) = 0.24531 0.32682
# Poissons Ratio (y) = 0.29817 0.42069
# Poissons Ratio (z) = 0.18238 0.19315
#
# Static dielectric constant tensor:
#      x y z
#    x 3.737500 0.000000 0.000000 
#    y 0.000000 3.982190 0.000000 
#    z 0.000000 0.000000 4.060290 
# 
# 
# High freq. dielectric constant tensor:
#      x y z
#    x 1.783900 0.000000 0.000000 
#    y 0.000000 1.814430 0.000000 
#    z 0.000000 0.000000 1.821450 
# 
# From -- ./inp_files/12865.got.cif
#   From: 2010.06.25/outbox.cif.g09.slc.cpg/sg43_7_cif.got.tgz:12865.got - 2010.06.26 16:48:59.
