data_PCOD8187169
_publ_section_title
;
Structure prediction by ZEFSAII (Michael W. Deem and Ramdas Pophale) SiO2 
 PCOD8187169
Probable space group: F D D 2
;
_chemical_formula_sum "Si O2"
_cell_formula_units_Z 112
_cell_length_a 26.493913
_cell_length_b 14.483295
_cell_length_c 12.654544
_cell_angle_alpha 90.000000
_cell_angle_beta 90.000000
_cell_angle_gamma 90.000000
_cell_volume 4855.790965
_symmetry_space_group_name_H-M "F D D 2"
_symmetry_group_IT_number 43
_symmetry_cell_setting 'orthorhombic'
loop_
_space_group_symop_operation_xyz
x,y,z
-x,-y,z
1/4-x,1/4+y,1/4+z
1/4+x,1/4-y,1/4+z
x,1/2+y,1/2+z
-x,1/2-y,1/2+z
1/4-x,3/4+y,3/4+z
1/4+x,3/4-y,3/4+z
1/2+x,y,1/2+z
1/2-x,-y,1/2+z
3/4-x,1/4+y,3/4+z
3/4+x,1/4-y,3/4+z
1/2+x,1/2+y,z
1/2-x,1/2-y,z
3/4-x,3/4+y,1/4+z
3/4+x,3/4-y,1/4+z
loop_
_atom_site_type_symbol
_atom_site_label
_atom_site_fract_x
_atom_site_fract_y
_atom_site_fract_z
Si Si1 0.746606 0.108106 0.868730
Si Si2 0.603764 0.095157 0.534367
Si Si3 0.148136 0.000338 0.627485
Si Si4 0.455492 0.819175 0.192603
Si Si5 0.595522 0.954994 0.928465
Si Si6 0.675568 0.666978 0.185498
Si Si7 0.750000 0.250000 0.049589
Si Si8 0.250000 0.250000 0.017372
O O1 0.795364 0.145932 0.812041
O O2 0.700042 0.130476 0.792512
O O3 0.748023 0.998224 0.892811
O O4 0.739580 0.159869 0.979678
O O5 0.621422 0.185395 0.471177
O O6 0.637906 0.088619 0.639661
O O7 0.609940 0.004228 0.463993
O O8 0.196296 0.955438 0.567003
O O9 0.100870 0.002927 0.544194
O O10 0.167335 0.095784 0.679121
O O11 0.402847 0.797208 0.129001
O O12 0.471686 0.926685 0.189996
O O13 0.551493 0.011633 0.868344
O O14 0.713940 0.691423 0.092642
#
# Coordination Sequence:
#
# PCOD8187169 Si02
#       8
#    16  16  16  16  16  16   8   8
#     4  12  25  46  70 110 147 190 250 308 367 458
#     4  12  24  44  72 107 141 198 245 309 372 455
#     4  10  20  45  65 102 147 182 250 310 359 452
#     4  10  24  42  73 103 147 187 254 306 373 449
#     4  10  23  44  72 101 148 194 238 314 381 450
#     4  12  25  44  75 106 150 191 251 306 375 455
#     4  12  21  46  77  98 154 196 237 308 395 446
#     4  12  21  52  73  96 146 202 239 318 379 444
#
# _framework density 23.065245000000001
#
# number of rings (size 3 to 8) (size 9 to 14) (size 15 to 20)
#    0.857    0.000    5.714    1.714    4.000    0.000 
#    5.143    0.714    0.000    0.000    0.000    0.000 
#    0.000    0.000    0.000    0.000    0.000    0.000 
#
# Total GULP energy -346931.107923 kJ/mol
# GULP energy per Si atom -12390.396712 kJ/mol
# Density = 2.301275 g / cm^3
# Si number density = 23.065245 Si / 1000 Ang^3
#
#
#
# Elastic Constant Matrix: (Units=GPa)
#
#
# Indices 1 2 3 4 5 6 
#
# 1 92.5226 19.6633 40.6006 0.0000 0.0000 0.0000
# 2 19.6633 75.3486 16.0012 0.0000 0.0000 0.0000
# 3 40.6006 16.0012 82.3395 0.0000 0.0000 0.0000
# 4 0.0000 0.0000 0.0000 23.7388 0.0000 0.0000
# 5 0.0000 0.0000 0.0000 0.0000 39.9142 0.0000
# 6 0.0000 0.0000 0.0000 0.0000 0.0000 32.9431
#
#
#
# Elastic Compliance Matrix: (Units=1/GPa)
#
#
# Indices 1 2 3 4 5 6 
#
# 1 0.014167 -0.002309 -0.006537 0.000000 0.000000 0.000000
# 2 -0.002309 0.014219 -0.001625 0.000000 0.000000 0.000000
# 3 -0.006537 -0.001625 0.015684 0.000000 0.000000 0.000000
# 4 0.000000 0.000000 0.000000 0.042125 0.000000 0.000000
# 5 0.000000 0.000000 0.000000 0.000000 0.025054 0.000000
# 6 0.000000 0.000000 0.000000 0.000000 0.000000 0.030355
#
#
# Mechanical properties :
#
#
# Convention : Reuss Voigt Hill
#
# Bulk Modulus (GPa) = 43.23565 44.74897 43.99231
# Shear Modulus (GPa) = 29.36749 30.91558 30.14153
#
# Velocity S-wave (km/s) = 3.57211 3.66506 3.61888
# Velocity P-wave (km/s) = 5.98322 6.11174 6.04782
#
# Compressibility (1/GPa) = 0.02312906
#
# Stress axis : x y z
#
# Youngs Moduli (GPa) = 70.58416 70.32724 63.75950
#
# Poissons Ratio (x) = 0.16238 0.41680
# Poissons Ratio (y) = 0.16298 0.10359
# Poissons Ratio (z) = 0.46142 0.11426
#
# Static dielectric constant tensor:
#      x y z
#    x 4.110300 0.000000 0.000000 
#    y 0.000000 4.011560 0.000000 
#    z 0.000000 0.000000 4.063720 
# 
# 
# High freq. dielectric constant tensor:
#      x y z
#    x 1.904770 0.000000 0.000000 
#    y 0.000000 1.904810 0.000000 
#    z 0.000000 0.000000 1.903200 
# 
# From -- ./inp_files/11531.got.cif
#   From: 2010.06.25/outbox.cif.g09.slc.cpg/sg43_6_cif.got.tgz:11531.got - 2010.06.26 16:48:59.
