data_PCOD8187648
_publ_section_title
;
Structure prediction by ZEFSAII (Michael W. Deem and Ramdas Pophale) SiO2 
 PCOD8187648
Probable space group: F D D 2
;
_chemical_formula_sum "Si O2"
_cell_formula_units_Z 80
_cell_length_a 27.203166
_cell_length_b 10.546292
_cell_length_c 11.403137
_cell_angle_alpha 90.000000
_cell_angle_beta 90.000000
_cell_angle_gamma 90.000000
_cell_volume 3271.474846
_symmetry_space_group_name_H-M "F D D 2"
_symmetry_group_IT_number 43
_symmetry_cell_setting 'orthorhombic'
loop_
_space_group_symop_operation_xyz
x,y,z
-x,-y,z
1/4-x,1/4+y,1/4+z
1/4+x,1/4-y,1/4+z
x,1/2+y,1/2+z
-x,1/2-y,1/2+z
1/4-x,3/4+y,3/4+z
1/4+x,3/4-y,3/4+z
1/2+x,y,1/2+z
1/2-x,-y,1/2+z
3/4-x,1/4+y,3/4+z
3/4+x,1/4-y,3/4+z
1/2+x,1/2+y,z
1/2-x,1/2-y,z
3/4-x,3/4+y,1/4+z
3/4+x,3/4-y,1/4+z
loop_
_atom_site_type_symbol
_atom_site_label
_atom_site_fract_x
_atom_site_fract_y
_atom_site_fract_z
Si Si1 0.675483 0.457058 0.463630
Si Si2 0.332934 0.702539 0.824797
Si Si3 0.090879 0.625841 0.963657
Si Si4 0.226292 0.933299 0.014436
Si Si5 0.174861 0.193485 0.072998
O O1 0.619489 0.496073 0.499871
O O2 0.680607 0.451225 0.323423
O O3 0.714468 0.560378 0.513379
O O4 0.690976 0.320597 0.509793
O O5 0.366246 0.791594 0.905417
O O6 0.367934 0.583667 0.791022
O O7 0.315653 0.782717 0.711945
O O8 0.287704 0.641433 0.895581
O O9 0.045554 0.603233 0.874156
O O10 0.206666 0.077026 0.023765
#
# Coordination Sequence:
#
# PCOD8187648 Si02
#       5
#    16  16  16  16  16
#     4  12  26  44  72 105 146 189 242 315 374 444
#     4  11  21  45  75  99 146 193 238 301 366 446
#     4  11  23  48  68 104 149 185 242 309 369 441
#     4  11  25  46  71 109 137 198 250 293 369 457
#     4  11  22  43  72 106 145 190 245 299 374 435
#
# _framework density 24.453803000000001
#
# number of rings (size 3 to 8) (size 9 to 14) (size 15 to 20)
#    0.000    0.800    6.000    3.000    2.800    0.800 
#    3.600    0.000    0.000    0.000    0.000    0.000 
#    0.000    0.000    0.000    0.000    0.000    0.000 
#
# Total GULP energy -247910.527467 kJ/mol
# GULP energy per Si atom -12395.526373 kJ/mol
# Density = 2.439814 g / cm^3
# Si number density = 24.453803 Si / 1000 Ang^3
#
#
#
# Elastic Constant Matrix: (Units=GPa)
#
#
# Indices 1 2 3 4 5 6 
#
# 1 62.9473 4.6454 26.4304 0.0000 0.0000 0.0000
# 2 4.6454 82.8900 34.9616 0.0000 0.0000 0.0000
# 3 26.4304 34.9616 107.6874 0.0000 0.0000 0.0000
# 4 0.0000 0.0000 0.0000 35.2053 0.0000 0.0000
# 5 0.0000 0.0000 0.0000 0.0000 25.0767 0.0000
# 6 0.0000 0.0000 0.0000 0.0000 0.0000 24.1544
#
#
#
# Elastic Compliance Matrix: (Units=1/GPa)
#
#
# Indices 1 2 3 4 5 6 
#
# 1 0.017780 0.000978 -0.004681 0.000000 0.000000 0.000000
# 2 0.000978 0.014032 -0.004796 0.000000 0.000000 0.000000
# 3 -0.004681 -0.004796 0.011992 0.000000 0.000000 0.000000
# 4 0.000000 0.000000 0.000000 0.028405 0.000000 0.000000
# 5 0.000000 0.000000 0.000000 0.000000 0.039878 0.000000
# 6 0.000000 0.000000 0.000000 0.000000 0.000000 0.041400
#
#
# Mechanical properties :
#
#
# Convention : Reuss Voigt Hill
#
# Bulk Modulus (GPa) = 37.30506 42.84439 40.07472
# Shear Modulus (GPa) = 27.86759 29.38644 28.62702
#
# Velocity S-wave (km/s) = 3.37946 3.47033 3.42520
# Velocity P-wave (km/s) = 5.52414 5.79795 5.66270
#
# Compressibility (1/GPa) = 0.02680602
#
# Stress axis : x y z
#
# Youngs Moduli (GPa) = 56.24381 71.26509 83.38841
#
# Poissons Ratio (x) = -0.06970 0.39037
# Poissons Ratio (y) = -0.05501 0.39991
# Poissons Ratio (z) = 0.26330 0.34177
#
# Static dielectric constant tensor:
#      x y z
#    x 4.547760 0.000000 0.000000 
#    y 0.000000 4.909530 0.000000 
#    z 0.000000 0.000000 4.569110 
# 
# 
# High freq. dielectric constant tensor:
#      x y z
#    x 1.959720 0.000000 0.000000 
#    y 0.000000 1.982850 0.000000 
#    z 0.000000 0.000000 1.966310 
# 
# From -- ./inp_files/5688.got.cif
#   From: 2010.06.25/outbox.cif.g09.slc.cpg/sg43_3_cif.got.tgz:5688.got - 2010.06.26 16:48:59.
