data_PCOD8187448
_publ_section_title
;
Structure prediction by ZEFSAII (Michael W. Deem and Ramdas Pophale) SiO2 
 PCOD8187448
Probable space group: F D D 2
;
_chemical_formula_sum "Si O2"
_cell_formula_units_Z 88
_cell_length_a 29.738479
_cell_length_b 10.753412
_cell_length_c 11.410899
_cell_angle_alpha 90.000000
_cell_angle_beta 90.000000
_cell_angle_gamma 90.000000
_cell_volume 3649.092726
_symmetry_space_group_name_H-M "F D D 2"
_symmetry_group_IT_number 43
_symmetry_cell_setting 'orthorhombic'
loop_
_space_group_symop_operation_xyz
x,y,z
-x,-y,z
1/4-x,1/4+y,1/4+z
1/4+x,1/4-y,1/4+z
x,1/2+y,1/2+z
-x,1/2-y,1/2+z
1/4-x,3/4+y,3/4+z
1/4+x,3/4-y,3/4+z
1/2+x,y,1/2+z
1/2-x,-y,1/2+z
3/4-x,1/4+y,3/4+z
3/4+x,1/4-y,3/4+z
1/2+x,1/2+y,z
1/2-x,1/2-y,z
3/4-x,3/4+y,1/4+z
3/4+x,3/4-y,1/4+z
loop_
_atom_site_type_symbol
_atom_site_label
_atom_site_fract_x
_atom_site_fract_y
_atom_site_fract_z
Si Si1 0.943105 0.824269 0.184310
Si Si2 0.166610 0.292264 0.727679
Si Si3 0.551529 0.964298 0.217137
Si Si4 0.949562 0.469234 0.467045
Si Si5 0.603846 0.306314 0.036590
Si Si6 0.750000 0.750000 0.577204
O O1 0.942529 0.683322 0.225903
O O2 0.898969 0.897476 0.223383
O O3 0.987841 0.884368 0.242559
O O4 0.945325 0.841290 0.041495
O O5 0.165823 0.256044 0.863035
O O6 0.119068 0.257810 0.665956
O O7 0.170579 0.443678 0.717711
O O8 0.207517 0.223153 0.661461
O O9 0.571941 0.028767 0.335774
O O10 0.500000 0.000000 0.188556
O O11 0.930323 0.579668 0.547977
O O12 0.000000 0.500000 0.435374
#
# Coordination Sequence:
#
# PCOD8187448 Si02
#       6
#    16  16  16  16  16   8
#     4  11  24  46  76 106 150 203 256 313 397 469
#     4  11  24  46  72 108 152 194 250 325 386 458
#     4  11  27  46  72 117 156 194 256 334 380 476
#     4  11  24  45  75 108 143 201 255 318 385 473
#     4  11  24  48  73 104 148 200 259 316 387 472
#     4  10  22  44  74 102 148 204 252 310 382 474
#
# _framework density 24.115583000000001
#
# number of rings (size 3 to 8) (size 9 to 14) (size 15 to 20)
#    0.000    1.091    3.636    2.182    2.545    4.364 
#    3.273    0.000    0.000    0.000    0.000    0.000 
#    0.000    0.000    0.000    0.000    0.000    0.000 
#
# Total GULP energy -272656.776445 kJ/mol
# GULP energy per Si atom -12393.489838 kJ/mol
# Density = 2.406070 g / cm^3
# Si number density = 24.115583 Si / 1000 Ang^3
#
#
#
# Elastic Constant Matrix: (Units=GPa)
#
#
# Indices 1 2 3 4 5 6 
#
# 1 71.5993 19.9760 32.5633 0.0000 0.0000 0.0000
# 2 19.9760 79.9115 30.6381 0.0000 0.0000 0.0000
# 3 32.5633 30.6381 183.3040 0.0000 0.0000 0.0000
# 4 0.0000 0.0000 0.0000 31.6898 0.0000 0.0000
# 5 0.0000 0.0000 0.0000 0.0000 30.9770 0.0000
# 6 0.0000 0.0000 0.0000 0.0000 0.0000 36.1087
#
#
#
# Elastic Compliance Matrix: (Units=1/GPa)
#
#
# Indices 1 2 3 4 5 6 
#
# 1 0.015875 -0.003085 -0.002305 0.000000 0.000000 0.000000
# 2 -0.003085 0.013970 -0.001787 0.000000 0.000000 0.000000
# 3 -0.002305 -0.001787 0.006164 0.000000 0.000000 0.000000
# 4 0.000000 0.000000 0.000000 0.031556 0.000000 0.000000
# 5 0.000000 0.000000 0.000000 0.000000 0.032282 0.000000
# 6 0.000000 0.000000 0.000000 0.000000 0.000000 0.027694
#
#
# Mechanical properties :
#
#
# Convention : Reuss Voigt Hill
#
# Bulk Modulus (GPa) = 46.17639 55.68550 50.93095
# Shear Modulus (GPa) = 33.53166 36.53092 35.03129
#
# Velocity S-wave (km/s) = 3.73293 3.89630 3.81549
# Velocity P-wave (km/s) = 6.14566 6.58656 6.36993
#
# Compressibility (1/GPa) = 0.02165609
#
# Stress axis : x y z
#
# Youngs Moduli (GPa) = 62.99047 71.58126 162.24535
#
# Poissons Ratio (x) = 0.22082 0.37391
# Poissons Ratio (y) = 0.19432 0.28993
# Poissons Ratio (z) = 0.14517 0.12792
#
# Static dielectric constant tensor:
#      x y z
#    x 4.371490 0.000000 0.000000 
#    y 0.000000 4.145250 0.000000 
#    z 0.000000 0.000000 4.875280 
# 
# 
# High freq. dielectric constant tensor:
#      x y z
#    x 1.946210 0.000000 0.000000 
#    y 0.000000 1.935050 0.000000 
#    z 0.000000 0.000000 1.980990 
# 
# From -- ./inp_files/5736.got.cif
#   From: 2010.06.25/outbox.cif.g09.slc.cpg/sg43_3_cif.got.tgz:5736.got - 2010.06.26 16:48:59.
