data_PCOD8187621
_publ_section_title
;
Structure prediction by ZEFSAII (Michael W. Deem and Ramdas Pophale) SiO2 
 PCOD8187621
Probable space group: F D D 2
;
_chemical_formula_sum "Si O2"
_cell_formula_units_Z 104
_cell_length_a 26.366881
_cell_length_b 10.889132
_cell_length_c 17.206917
_cell_angle_alpha 90.000000
_cell_angle_beta 90.000000
_cell_angle_gamma 90.000000
_cell_volume 4940.320056
_symmetry_space_group_name_H-M "F D D 2"
_symmetry_group_IT_number 43
_symmetry_cell_setting 'orthorhombic'
loop_
_space_group_symop_operation_xyz
x,y,z
-x,-y,z
1/4-x,1/4+y,1/4+z
1/4+x,1/4-y,1/4+z
x,1/2+y,1/2+z
-x,1/2-y,1/2+z
1/4-x,3/4+y,3/4+z
1/4+x,3/4-y,3/4+z
1/2+x,y,1/2+z
1/2-x,-y,1/2+z
3/4-x,1/4+y,3/4+z
3/4+x,1/4-y,3/4+z
1/2+x,1/2+y,z
1/2-x,1/2-y,z
3/4-x,3/4+y,1/4+z
3/4+x,3/4-y,1/4+z
loop_
_atom_site_type_symbol
_atom_site_label
_atom_site_fract_x
_atom_site_fract_y
_atom_site_fract_z
Si Si1 0.923446 0.849260 0.167630
Si Si2 0.008962 0.853638 0.062523
Si Si3 0.157826 0.002531 0.074631
Si Si4 0.888268 0.724527 0.643989
Si Si5 0.671895 0.566334 0.568423
Si Si6 0.005608 0.144399 0.888273
Si Si7 0.250000 0.250000 0.515591
O O1 0.965700 0.783687 0.113407
O O2 0.896967 0.761416 0.231697
O O3 0.952385 0.957561 0.213507
O O4 0.880878 0.901547 0.111056
O O5 0.063012 0.815595 0.095004
O O6 0.000000 0.000000 0.068082
O O7 0.005444 0.807177 0.974816
O O8 0.155205 0.872065 0.119394
O O9 0.214513 0.050702 0.079804
O O10 0.898618 0.720104 0.735421
O O11 0.869990 0.860412 0.618852
O O12 0.688334 0.440157 0.611791
O O13 0.725216 0.641227 0.565453
O O14 0.000000 0.000000 0.883756
#
# Coordination Sequence:
#
# PCOD8187621 Si02
#       7
#    16  16  16  16  16  16   8
#     4  12  21  36  65 101 131 166 222 276 337 393
#     4  11  20  38  63  98 132 169 217 279 335 399
#     4  12  21  37  66 102 127 170 224 290 337 402
#     4  12  21  38  72 100 131 166 229 280 342 404
#     4  12  23  42  64  98 133 180 220 282 337 403
#     4  11  26  43  61  91 136 182 226 277 340 409
#     4  12  18  36  68  96 126 160 216 278 332 382
#
# _framework density 21.051268
#
# number of rings (size 3 to 8) (size 9 to 14) (size 15 to 20)
#    0.000    0.308    8.462    1.846    2.154    0.000 
#    2.769    0.000    3.385    0.000    0.000    0.000 
#    0.000    0.000    0.000    0.000    0.000    0.000 
#
# Total GULP energy -322339.704194 kJ/mol
# GULP energy per Si atom -12397.680931 kJ/mol
# Density = 2.100335 g / cm^3
# Si number density = 21.051268 Si / 1000 Ang^3
#
#
#
# Elastic Constant Matrix: (Units=GPa)
#
#
# Indices 1 2 3 4 5 6 
#
# 1 97.7903 50.6309 48.3460 0.0000 0.0000 0.0000
# 2 50.6309 80.3781 57.1612 0.0000 0.0000 0.0000
# 3 48.3460 57.1612 140.3095 0.0000 0.0000 0.0000
# 4 0.0000 0.0000 0.0000 32.0255 0.0000 0.0000
# 5 0.0000 0.0000 0.0000 0.0000 39.3728 0.0000
# 6 0.0000 0.0000 0.0000 0.0000 0.0000 35.5071
#
#
#
# Elastic Compliance Matrix: (Units=1/GPa)
#
#
# Indices 1 2 3 4 5 6 
#
# 1 0.015535 -0.008418 -0.001924 0.000000 0.000000 0.000000
# 2 -0.008418 0.022077 -0.006094 0.000000 0.000000 0.000000
# 3 -0.001924 -0.006094 0.010272 0.000000 0.000000 0.000000
# 4 0.000000 0.000000 0.000000 0.031225 0.000000 0.000000
# 5 0.000000 0.000000 0.000000 0.000000 0.025398 0.000000
# 6 0.000000 0.000000 0.000000 0.000000 0.000000 0.028163
#
#
# Mechanical properties :
#
#
# Convention : Reuss Voigt Hill
#
# Bulk Modulus (GPa) = 66.60087 70.08379 68.34233
# Shear Modulus (GPa) = 29.31752 32.20374 30.76063
#
# Velocity S-wave (km/s) = 3.73590 3.91548 3.82674
# Velocity P-wave (km/s) = 7.09334 7.33523 7.21529
#
# Compressibility (1/GPa) = 0.01501482
#
# Stress axis : x y z
#
# Youngs Moduli (GPa) = 64.36961 45.29569 97.34842
#
# Poissons Ratio (x) = 0.38129 0.18725
# Poissons Ratio (y) = 0.54185 0.59320
# Poissons Ratio (z) = 0.12382 0.27601
#
# Static dielectric constant tensor:
#      x y z
#    x 3.933220 0.000000 0.000000 
#    y 0.000000 3.601200 0.000000 
#    z 0.000000 0.000000 4.132390 
# 
# 
# High freq. dielectric constant tensor:
#      x y z
#    x 1.835330 0.000000 0.000000 
#    y 0.000000 1.787650 0.000000 
#    z 0.000000 0.000000 1.835930 
# 
# From -- ./inp_files/13419.got.cif
#   From: 2010.06.25/outbox.cif.g09.slc.cpg/sg43_7_cif.got.tgz:13419.got - 2010.06.26 16:48:59.
