data_PCOD8187264
_publ_section_title
;
Structure prediction by ZEFSAII (Michael W. Deem and Ramdas Pophale) SiO2 
 PCOD8187264
Probable space group: F D D 2
;
_chemical_formula_sum "Si O2"
_cell_formula_units_Z 88
_cell_length_a 18.306830
_cell_length_b 25.665039
_cell_length_c 8.467550
_cell_angle_alpha 90.000000
_cell_angle_beta 90.000000
_cell_angle_gamma 90.000000
_cell_volume 3978.440314
_symmetry_space_group_name_H-M "F D D 2"
_symmetry_group_IT_number 43
_symmetry_cell_setting 'orthorhombic'
loop_
_space_group_symop_operation_xyz
x,y,z
-x,-y,z
1/4-x,1/4+y,1/4+z
1/4+x,1/4-y,1/4+z
x,1/2+y,1/2+z
-x,1/2-y,1/2+z
1/4-x,3/4+y,3/4+z
1/4+x,3/4-y,3/4+z
1/2+x,y,1/2+z
1/2-x,-y,1/2+z
3/4-x,1/4+y,3/4+z
3/4+x,1/4-y,3/4+z
1/2+x,1/2+y,z
1/2-x,1/2-y,z
3/4-x,3/4+y,1/4+z
3/4+x,3/4-y,1/4+z
loop_
_atom_site_type_symbol
_atom_site_label
_atom_site_fract_x
_atom_site_fract_y
_atom_site_fract_z
Si Si1 0.959110 0.084064 0.489500
Si Si2 0.198394 0.082996 0.205268
Si Si3 0.750000 0.250000 0.987114
Si Si4 0.887184 0.828902 0.023996
Si Si5 0.864199 0.128749 0.248327
Si Si6 0.142107 0.981999 0.082281
O O1 0.906872 0.057626 0.620763
O O2 0.914463 0.130622 0.404581
O O3 0.977841 0.047477 0.344463
O O4 0.035947 0.101812 0.560791
O O5 0.161264 0.123168 0.085566
O O6 0.281973 0.100158 0.234690
O O7 0.152129 0.083883 0.368522
O O8 0.202986 0.024624 0.131338
O O9 0.682865 0.262523 0.871409
O O10 0.894614 0.781286 0.146779
O O11 0.850128 0.071157 0.179526
#
# Coordination Sequence:
#
# PCOD8187264 Si02
#       6
#    16  16   8  16  16  16
#     4  11  22  43  62 100 128 172 223 286 336 408
#     4  11  23  46  66 100 138 185 227 289 343 426
#     4  10  22  42  68  92 128 178 228 278 338 414
#     4  11  26  41  68 101 141 177 232 284 357 409
#     4  10  21  41  70  91 131 179 224 276 346 405
#     4  10  23  41  70  95 137 184 231 274 354 414
#
# _framework density 22.119222000000001
#
# number of rings (size 3 to 8) (size 9 to 14) (size 15 to 20)
#    0.000    1.455    1.818    3.273    5.091    5.091 
#    6.545    0.000    0.000    0.000    0.000    0.000 
#    0.000    0.000    0.000    0.000    0.000    0.000 
#
# Total GULP energy -272722.438915 kJ/mol
# GULP energy per Si atom -12396.474496 kJ/mol
# Density = 2.206888 g / cm^3
# Si number density = 22.119222 Si / 1000 Ang^3
#
#
#
# Elastic Constant Matrix: (Units=GPa)
#
#
# Indices 1 2 3 4 5 6 
#
# 1 179.1262 30.3730 58.1535 -0.0001 0.0001 0.0000
# 2 30.3730 77.3102 29.5063 -0.0001 0.0000 0.0000
# 3 58.1535 29.5063 85.4872 -0.0004 0.0007 0.0001
# 4 -0.0001 -0.0001 -0.0004 31.6182 0.0000 0.0000
# 5 0.0001 0.0000 0.0007 0.0000 36.1177 0.0000
# 6 0.0000 0.0000 0.0001 0.0000 0.0000 26.4221
#
#
#
# Elastic Compliance Matrix: (Units=1/GPa)
#
#
# Indices 1 2 3 4 5 6 
#
# 1 0.007247 -0.001112 -0.004546 0.000000 0.000000 0.000000
# 2 -0.001112 0.015068 -0.004444 0.000000 0.000000 0.000000
# 3 -0.004546 -0.004444 0.016324 0.000000 0.000000 0.000000
# 4 0.000000 0.000000 0.000000 0.031627 0.000000 0.000000
# 5 0.000000 0.000000 0.000000 0.000000 0.027687 0.000000
# 6 0.000000 0.000000 0.000000 0.000000 0.000000 0.037847
#
#
# Mechanical properties :
#
#
# Convention : Reuss Voigt Hill
#
# Bulk Modulus (GPa) = 54.24656 64.22103 59.23379
# Shear Modulus (GPa) = 30.83549 33.75763 32.29656
#
# Velocity S-wave (km/s) = 3.73776 3.91086 3.82529
# Velocity P-wave (km/s) = 6.57310 7.03492 6.80793
#
# Compressibility (1/GPa) = 0.01843435
#
# Stress axis : x y z
#
# Youngs Moduli (GPa) = 137.98591 66.36562 61.25902
#
# Poissons Ratio (x) = 0.07381 0.27849
# Poissons Ratio (y) = 0.15346 0.27225
# Poissons Ratio (z) = 0.62729 0.29495
#
# Static dielectric constant tensor:
#      x y z
#    x 4.745040 0.000000 0.000000 
#    y 0.000000 3.817310 0.000000 
#    z 0.000000 0.000000 4.110370 
# 
# 
# High freq. dielectric constant tensor:
#      x y z
#    x 1.888690 0.000000 0.000000 
#    y 0.000000 1.845850 0.000000 
#    z 0.000000 0.000000 1.870360 
# 
# From -- ./inp_files/2904.got.cif
#   From: 2010.06.25/outbox.cif.g09.slc.cpg/sg43_2_cif.got.tgz:2904.got - 2010.06.26 16:48:59.
