data_PCOD8187265
_publ_section_title
;
Structure prediction by ZEFSAII (Michael W. Deem and Ramdas Pophale) SiO2 
 PCOD8187265
Probable space group: F D D 2
;
_chemical_formula_sum "Si O2"
_cell_formula_units_Z 112
_cell_length_a 13.869370
_cell_length_b 23.224863
_cell_length_c 16.205415
_cell_angle_alpha 90.000000
_cell_angle_beta 90.000000
_cell_angle_gamma 90.000000
_cell_volume 5219.994582
_symmetry_space_group_name_H-M "F D D 2"
_symmetry_group_IT_number 43
_symmetry_cell_setting 'orthorhombic'
loop_
_space_group_symop_operation_xyz
x,y,z
-x,-y,z
1/4-x,1/4+y,1/4+z
1/4+x,1/4-y,1/4+z
x,1/2+y,1/2+z
-x,1/2-y,1/2+z
1/4-x,3/4+y,3/4+z
1/4+x,3/4-y,3/4+z
1/2+x,y,1/2+z
1/2-x,-y,1/2+z
3/4-x,1/4+y,3/4+z
3/4+x,1/4-y,3/4+z
1/2+x,1/2+y,z
1/2-x,1/2-y,z
3/4-x,3/4+y,1/4+z
3/4+x,3/4-y,1/4+z
loop_
_atom_site_type_symbol
_atom_site_label
_atom_site_fract_x
_atom_site_fract_y
_atom_site_fract_z
Si Si1 0.195921 0.956991 0.602620
Si Si2 0.604631 0.267262 0.737807
Si Si3 0.283180 0.327881 0.299492
Si Si4 0.179614 0.545036 0.764307
Si Si5 0.653921 0.858660 0.986404
Si Si6 0.000000 0.500000 0.686524
Si Si7 0.750000 0.250000 0.417996
Si Si8 0.993712 0.317615 0.095690
O O1 0.257408 0.996450 0.540138
O O2 0.241409 0.955896 0.692704
O O3 0.199511 0.893617 0.562359
O O4 0.086185 0.979076 0.608207
O O5 0.657774 0.205126 0.725955
O O6 0.669714 0.314349 0.787265
O O7 0.583788 0.297713 0.651303
O O8 0.306022 0.394635 0.311152
O O9 0.316073 0.293711 0.382341
O O10 0.069178 0.542177 0.736896
O O11 0.188904 0.490738 0.823905
O O12 0.712089 0.799491 0.978639
O O13 0.668817 0.892058 0.897953
O O14 0.541101 0.847303 0.013174
#
# Coordination Sequence:
#
# PCOD8187265 Si02
#       8
#    16  16  16  16  16   8   8  16
#     4  11  22  42  67  98 138 177 225 293 342 423
#     4   9  21  42  67 101 134 169 229 282 350 409
#     4  10  21  41  70  96 128 174 214 286 331 399
#     4  12  24  42  69  97 134 181 228 277 349 414
#     4  11  24  43  65 104 137 177 235 286 352 424
#     4  10  24  48  60  98 132 168 228 270 338 408
#     4  12  24  40  72 100 136 188 222 288 370 406
#     4  11  24  42  66 101 138 177 226 286 348 418
#
# _framework density 21.455960000000001
#
# number of rings (size 3 to 8) (size 9 to 14) (size 15 to 20)
#    0.000    1.429    5.714    0.857    4.000    2.286 
#    5.143    2.857    0.000    0.000    0.000    0.000 
#    0.000    0.000    0.000    0.000    0.000    0.000 
#
# Total GULP energy -346929.262736 kJ/mol
# GULP energy per Si atom -12390.330812 kJ/mol
# Density = 2.140713 g / cm^3
# Si number density = 21.455960 Si / 1000 Ang^3
#
#
#
# Elastic Constant Matrix: (Units=GPa)
#
#
# Indices 1 2 3 4 5 6 
#
# 1 104.9062 41.8462 40.3964 0.0000 0.0000 0.0000
# 2 41.8462 156.2489 57.4664 0.0000 0.0000 0.0000
# 3 40.3964 57.4664 74.0099 0.0000 0.0000 0.0000
# 4 0.0000 0.0000 0.0000 31.6484 0.0000 0.0000
# 5 0.0000 0.0000 0.0000 0.0000 33.5141 0.0000
# 6 0.0000 0.0000 0.0000 0.0000 0.0000 26.7074
#
#
#
# Elastic Compliance Matrix: (Units=1/GPa)
#
#
# Indices 1 2 3 4 5 6 
#
# 1 0.012214 -0.001147 -0.005776 0.000000 0.000000 0.000000
# 2 -0.001147 0.009066 -0.006414 0.000000 0.000000 0.000000
# 3 -0.005776 -0.006414 0.021645 0.000000 0.000000 0.000000
# 4 0.000000 0.000000 0.000000 0.031597 0.000000 0.000000
# 5 0.000000 0.000000 0.000000 0.000000 0.029838 0.000000
# 6 0.000000 0.000000 0.000000 0.000000 0.000000 0.037443
#
#
# Mechanical properties :
#
#
# Convention : Reuss Voigt Hill
#
# Bulk Modulus (GPa) = 61.53341 68.28698 64.91020
# Shear Modulus (GPa) = 28.75332 31.40439 30.07886
#
# Velocity S-wave (km/s) = 3.66472 3.82994 3.74824
# Velocity P-wave (km/s) = 6.82994 7.17312 7.00363
#
# Compressibility (1/GPa) = 0.01625133
#
# Stress axis : x y z
#
# Youngs Moduli (GPa) = 81.87305 110.30259 46.20105
#
# Poissons Ratio (x) = 0.12648 0.26687
# Poissons Ratio (y) = 0.09388 0.29631
# Poissons Ratio (z) = 0.47293 0.70743
#
# Static dielectric constant tensor:
#      x y z
#    x 3.949960 0.000000 0.000000 
#    y 0.000000 3.965130 0.000000 
#    z 0.000000 0.000000 3.872670 
# 
# 
# High freq. dielectric constant tensor:
#      x y z
#    x 1.834820 0.000000 0.000000 
#    y 0.000000 1.842490 0.000000 
#    z 0.000000 0.000000 1.823800 
# 
# From -- ./inp_files/10237.got.cif
#   From: 2010.06.25/outbox.cif.g09.slc.cpg/sg43_6_cif.got.tgz:10237.got - 2010.06.26 16:48:59.
