data_PCOD8187145
_publ_section_title
;
Structure prediction by ZEFSAII (Michael W. Deem and Ramdas Pophale) SiO2 
 PCOD8187145
Probable space group: F D D 2
;
_chemical_formula_sum "Si O2"
_cell_formula_units_Z 104
_cell_length_a 23.927893
_cell_length_b 7.529664
_cell_length_c 26.382619
_cell_angle_alpha 90.000000
_cell_angle_beta 90.000000
_cell_angle_gamma 90.000000
_cell_volume 4753.329938
_symmetry_space_group_name_H-M "F D D 2"
_symmetry_group_IT_number 43
_symmetry_cell_setting 'orthorhombic'
loop_
_space_group_symop_operation_xyz
x,y,z
-x,-y,z
1/4-x,1/4+y,1/4+z
1/4+x,1/4-y,1/4+z
x,1/2+y,1/2+z
-x,1/2-y,1/2+z
1/4-x,3/4+y,3/4+z
1/4+x,3/4-y,3/4+z
1/2+x,y,1/2+z
1/2-x,-y,1/2+z
3/4-x,1/4+y,3/4+z
3/4+x,1/4-y,3/4+z
1/2+x,1/2+y,z
1/2-x,1/2-y,z
3/4-x,3/4+y,1/4+z
3/4+x,3/4-y,1/4+z
loop_
_atom_site_type_symbol
_atom_site_label
_atom_site_fract_x
_atom_site_fract_y
_atom_site_fract_z
Si Si1 0.324053 0.049736 0.456820
Si Si2 0.103387 0.075234 0.802712
Si Si3 0.331695 0.370332 0.615919
Si Si4 0.750000 0.250000 0.037121
Si Si5 0.000000 0.500000 0.239224
Si Si6 0.824499 0.040653 0.720662
Si Si7 0.750000 0.750000 0.286500
Si Si8 0.351775 0.259190 0.357535
O O1 0.300031 0.161025 0.504642
O O2 0.324989 0.175990 0.408182
O O3 0.280283 0.887353 0.450986
O O4 0.385705 0.966737 0.465612
O O5 0.121057 0.222341 0.844262
O O6 0.042799 0.097402 0.777040
O O7 0.146076 0.101899 0.756732
O O8 0.108498 0.880984 0.828793
O O9 0.280893 0.380214 0.576312
O O10 0.308944 0.438989 0.669533
O O11 0.362586 0.183024 0.621450
O O12 0.767304 0.092196 0.748591
O O13 0.698867 0.684081 0.321152
#
# Coordination Sequence:
#
# PCOD8187145 Si02
#       8
#    16  16  16   8   8  16   8  16
#     4  11  23  42  71 103 137 178 225 290 337 404
#     4  10  22  45  67  99 138 176 223 284 338 407
#     4  12  25  44  70 101 136 181 226 282 346 414
#     4  12  25  42  68 111 129 174 241 278 338 406
#     4  10  20  41  72  97 137 176 227 288 338 396
#     4  10  24  45  69  99 136 183 226 275 351 400
#     4  10  23  47  66  94 138 186 216 282 338 400
#     4  11  25  45  70  99 141 181 226 279 348 403
#
# _framework density 21.879397000000001
#
# number of rings (size 3 to 8) (size 9 to 14) (size 15 to 20)
#    0.000    1.231    3.077    3.231    2.154    4.308 
#    2.769    1.538    0.000    0.000    0.000    0.000 
#    0.000    0.000    0.000    0.000    0.000    0.000 
#
# Total GULP energy -322169.251757 kJ/mol
# GULP energy per Si atom -12391.125068 kJ/mol
# Density = 2.182960 g / cm^3
# Si number density = 21.879397 Si / 1000 Ang^3
#
#
#
# Elastic Constant Matrix: (Units=GPa)
#
#
# Indices 1 2 3 4 5 6 
#
# 1 84.0939 32.2048 45.2506 0.0000 0.0003 0.0000
# 2 32.2048 108.3231 59.1446 0.0001 0.0007 0.0010
# 3 45.2506 59.1446 169.0224 -0.0001 0.0001 0.0003
# 4 0.0000 0.0001 -0.0001 43.6917 0.0001 -0.0001
# 5 0.0003 0.0007 0.0001 0.0001 34.3325 -0.0003
# 6 0.0000 0.0010 0.0003 -0.0001 -0.0003 19.5314
#
#
#
# Elastic Compliance Matrix: (Units=1/GPa)
#
#
# Indices 1 2 3 4 5 6 
#
# 1 0.014509 -0.002711 -0.002936 0.000000 0.000000 0.000000
# 2 -0.002711 0.011918 -0.003445 0.000000 0.000000 -0.000001
# 3 -0.002936 -0.003445 0.007908 0.000000 0.000000 0.000000
# 4 0.000000 0.000000 0.000000 0.022888 0.000000 0.000000
# 5 0.000000 0.000000 0.000000 0.000000 0.029127 0.000000
# 6 0.000000 -0.000001 0.000000 0.000000 0.000000 0.051200
#
#
# Mechanical properties :
#
#
# Convention : Reuss Voigt Hill
#
# Bulk Modulus (GPa) = 61.90889 70.51549 66.21219
# Shear Modulus (GPa) = 31.03340 34.50041 32.76690
#
# Velocity S-wave (km/s) = 3.77023 3.97526 3.87410
# Velocity P-wave (km/s) = 6.87821 7.30543 7.09504
#
# Compressibility (1/GPa) = 0.01615277
#
# Stress axis : x y z
#
# Youngs Moduli (GPa) = 68.92102 83.90381 126.45753
#
# Poissons Ratio (x) = 0.22744 0.37127
# Poissons Ratio (y) = 0.18682 0.43562
# Poissons Ratio (z) = 0.20235 0.28903
#
# Static dielectric constant tensor:
#      x y z
#    x 3.918880 0.000000 0.000000 
#    y 0.000000 3.946100 0.000000 
#    z 0.000000 0.000000 4.173160 
# 
# 
# High freq. dielectric constant tensor:
#      x y z
#    x 1.849500 0.000000 0.000000 
#    y 0.000000 1.855450 0.000000 
#    z 0.000000 0.000000 1.877710 
# 
# From -- ./inp_files/22807.got.cif
#   From: 2010.06.25/outbox.cif.g09.slc.cpg/sg43_12_cif.got.tgz:22807.got - 2010.06.26 16:48:59.
