data_PCOD8187409
_publ_section_title
;
Structure prediction by ZEFSAII (Michael W. Deem and Ramdas Pophale) SiO2 
 PCOD8187409
Probable space group: F D D 2
;
_chemical_formula_sum "Si O2"
_cell_formula_units_Z 104
_cell_length_a 20.194604
_cell_length_b 25.757168
_cell_length_c 8.935995
_cell_angle_alpha 90.000000
_cell_angle_beta 90.000000
_cell_angle_gamma 90.000000
_cell_volume 4648.109699
_symmetry_space_group_name_H-M "F D D 2"
_symmetry_group_IT_number 43
_symmetry_cell_setting 'orthorhombic'
loop_
_space_group_symop_operation_xyz
x,y,z
-x,-y,z
1/4-x,1/4+y,1/4+z
1/4+x,1/4-y,1/4+z
x,1/2+y,1/2+z
-x,1/2-y,1/2+z
1/4-x,3/4+y,3/4+z
1/4+x,3/4-y,3/4+z
1/2+x,y,1/2+z
1/2-x,-y,1/2+z
3/4-x,1/4+y,3/4+z
3/4+x,1/4-y,3/4+z
1/2+x,1/2+y,z
1/2-x,1/2-y,z
3/4-x,3/4+y,1/4+z
3/4+x,3/4-y,1/4+z
loop_
_atom_site_type_symbol
_atom_site_label
_atom_site_fract_x
_atom_site_fract_y
_atom_site_fract_z
Si Si1 0.734574 0.529485 0.038800
Si Si2 0.159726 0.290571 0.996145
Si Si3 0.482680 0.184668 0.957725
Si Si4 0.229491 0.676528 0.271578
Si Si5 0.107582 0.179598 0.970140
Si Si6 0.591685 0.072107 0.569648
Si Si7 0.750000 0.750000 0.522295
O O1 0.733745 0.467908 0.075532
O O2 0.792272 0.558732 0.126155
O O3 0.665942 0.553307 0.092973
O O4 0.745740 0.535053 0.862746
O O5 0.096174 0.319340 0.926420
O O6 0.218061 0.292361 0.874838
O O7 0.137967 0.231796 0.041543
O O8 0.184776 0.315854 0.149778
O O9 0.513184 0.126776 0.961562
O O10 0.164626 0.657747 0.360051
O O11 0.207396 0.712698 0.132197
O O12 0.091184 0.134976 0.094364
O O13 0.545458 0.038647 0.677636
#
# Coordination Sequence:
#
# PCOD8187409 Si02
#       7
#    16  16  16  16  16  16   8
#     4  10  23  42  67  98 135 175 233 285 339 423
#     4  10  22  42  70  97 132 192 230 268 339 445
#     4  10  23  39  67  97 131 183 227 279 348 411
#     4  12  23  43  70 102 137 184 233 281 355 421
#     4  11  22  42  74  94 131 190 236 269 349 431
#     4  11  26  44  67 102 138 175 229 294 353 394
#     4  12  30  40  64 110 140 168 224 314 342 388
#
# _framework density 22.374686000000001
#
# number of rings (size 3 to 8) (size 9 to 14) (size 15 to 20)
#    0.000    1.231    4.615    0.923    4.308    3.692 
#    0.000    0.000    0.000    0.000    0.000    0.000 
#    0.000    0.000    0.000    0.000    0.000    0.000 
#
# Total GULP energy -322281.935035 kJ/mol
# GULP energy per Si atom -12395.459040 kJ/mol
# Density = 2.232376 g / cm^3
# Si number density = 22.374686 Si / 1000 Ang^3
#
#
#
# Elastic Constant Matrix: (Units=GPa)
#
#
# Indices 1 2 3 4 5 6 
#
# 1 91.9899 29.2791 31.3665 0.0000 0.0002 0.0000
# 2 29.2791 161.6572 39.8939 0.0000 0.0002 0.0000
# 3 31.3665 39.8939 59.4747 0.0001 0.0012 -0.0001
# 4 0.0000 0.0000 0.0001 45.2211 -0.0002 -0.0002
# 5 0.0002 0.0002 0.0012 -0.0002 26.2362 0.0001
# 6 0.0000 0.0000 -0.0001 -0.0002 0.0001 29.9344
#
#
#
# Elastic Compliance Matrix: (Units=1/GPa)
#
#
# Indices 1 2 3 4 5 6 
#
# 1 0.013343 -0.000815 -0.006490 0.000000 0.000000 0.000000
# 2 -0.000815 0.007463 -0.004576 0.000000 0.000000 0.000000
# 3 -0.006490 -0.004576 0.023306 0.000000 -0.000001 0.000000
# 4 0.000000 0.000000 0.000000 0.022114 0.000000 0.000000
# 5 0.000000 0.000000 -0.000001 0.000000 0.038115 0.000000
# 6 0.000000 0.000000 0.000000 0.000000 0.000000 0.033406
#
#
# Mechanical properties :
#
#
# Convention : Reuss Voigt Hill
#
# Bulk Modulus (GPa) = 49.14129 57.13344 53.13737
# Shear Modulus (GPa) = 29.70995 34.45050 32.08022
#
# Velocity S-wave (km/s) = 3.64790 3.92817 3.79063
# Velocity P-wave (km/s) = 6.30504 6.79443 6.55430
#
# Compressibility (1/GPa) = 0.02034948
#
# Stress axis : x y z
#
# Youngs Moduli (GPa) = 74.94415 133.99768 42.90670
#
# Poissons Ratio (x) = 0.10921 0.27848
# Poissons Ratio (y) = 0.06108 0.19634
# Poissons Ratio (z) = 0.48642 0.61318
#
# Static dielectric constant tensor:
#      x y z
#    x 3.994050 0.000000 0.000000 
#    y 0.000000 4.380810 0.000000 
#    z 0.000000 0.000000 3.889710 
# 
# 
# High freq. dielectric constant tensor:
#      x y z
#    x 1.871340 0.000000 0.000000 
#    y 0.000000 1.910630 0.000000 
#    z 0.000000 0.000000 1.858430 
# 
# From -- ./inp_files/3369.got.cif
#   From: 2010.06.25/outbox.cif.g09.slc.cpg/sg43_2_cif.got.tgz:3369.got - 2010.06.26 16:48:59.
