data_PCOD8187418
_publ_section_title
;
Structure prediction by ZEFSAII (Michael W. Deem and Ramdas Pophale) SiO2 
 PCOD8187418
Probable space group: F D D 2
;
_chemical_formula_sum "Si O2"
_cell_formula_units_Z 120
_cell_length_a 20.574834
_cell_length_b 12.307587
_cell_length_c 20.901546
_cell_angle_alpha 90.000000
_cell_angle_beta 90.000000
_cell_angle_gamma 90.000000
_cell_volume 5292.826581
_symmetry_space_group_name_H-M "F D D 2"
_symmetry_group_IT_number 43
_symmetry_cell_setting 'orthorhombic'
loop_
_space_group_symop_operation_xyz
x,y,z
-x,-y,z
1/4-x,1/4+y,1/4+z
1/4+x,1/4-y,1/4+z
x,1/2+y,1/2+z
-x,1/2-y,1/2+z
1/4-x,3/4+y,3/4+z
1/4+x,3/4-y,3/4+z
1/2+x,y,1/2+z
1/2-x,-y,1/2+z
3/4-x,1/4+y,3/4+z
3/4+x,1/4-y,3/4+z
1/2+x,1/2+y,z
1/2-x,1/2-y,z
3/4-x,3/4+y,1/4+z
3/4+x,3/4-y,1/4+z
loop_
_atom_site_type_symbol
_atom_site_label
_atom_site_fract_x
_atom_site_fract_y
_atom_site_fract_z
Si Si1 0.095548 0.193957 0.016470
Si Si2 0.130607 0.850285 0.899393
Si Si3 0.011764 0.377676 0.043348
Si Si4 0.546284 0.335957 0.011422
Si Si5 0.623963 0.108024 0.884650
Si Si6 0.000000 0.000000 0.331224
Si Si7 0.507434 0.331913 0.220639
Si Si8 0.714814 0.644373 0.943630
O O1 0.130607 0.162405 0.083054
O O2 0.079112 0.324157 0.017292
O O3 0.138232 0.166304 0.954344
O O4 0.028646 0.124599 0.012446
O O5 0.082033 0.896819 0.952953
O O6 0.101886 0.729037 0.900241
O O7 0.205788 0.857262 0.923548
O O8 0.015879 0.374620 0.120336
O O9 0.000000 0.500000 0.017930
O O10 0.953729 0.298685 0.017769
O O11 0.585664 0.378281 0.071007
O O12 0.671960 0.064908 0.939433
O O13 0.562173 0.027386 0.875867
O O14 0.015152 0.896057 0.286960
O O15 0.482401 0.210831 0.235577
O O16 0.750000 0.750000 0.972120
#
# Coordination Sequence:
#
# PCOD8187418 Si02
#       8
#    16  16  16  16  16   8  16  16
#     4  10  23  43  68 106 133 186 243 294 362 433
#     4  12  22  42  71 102 145 180 239 298 366 436
#     4   9  20  45  70  92 140 190 235 290 361 438
#     4  10  22  43  67 106 135 189 230 290 373 419
#     4  12  22  42  65 105 141 182 232 295 368 425
#     4  12  26  42  72 112 140 184 244 304 368 440
#     4  12  21  44  72  99 145 184 234 301 361 429
#     4  11  23  46  68  98 140 199 240 293 369 435
#
# _framework density 22.672196
#
# number of rings (size 3 to 8) (size 9 to 14) (size 15 to 20)
#    0.800    0.267    6.667    0.800    0.000    0.000 
#   10.800    0.000    0.000    0.000    0.000    0.000 
#    0.000    0.000    0.000    0.000    0.000    0.000 
#
# Total GULP energy -371682.972430 kJ/mol
# GULP energy per Si atom -12389.432414 kJ/mol
# Density = 2.262059 g / cm^3
# Si number density = 22.672196 Si / 1000 Ang^3
#
#
#
# Elastic Constant Matrix: (Units=GPa)
#
#
# Indices 1 2 3 4 5 6 
#
# 1 133.7145 35.5423 44.3265 0.0000 0.0000 0.0000
# 2 35.5423 107.8588 23.7517 0.0000 0.0000 0.0000
# 3 44.3265 23.7517 51.0031 0.0000 0.0000 0.0000
# 4 0.0000 0.0000 0.0000 13.2246 0.0000 0.0000
# 5 0.0000 0.0000 0.0000 0.0000 44.8750 0.0000
# 6 0.0000 0.0000 0.0000 0.0000 0.0000 33.2397
#
#
#
# Elastic Compliance Matrix: (Units=1/GPa)
#
#
# Indices 1 2 3 4 5 6 
#
# 1 0.010765 -0.001657 -0.008584 0.000000 0.000000 0.000000
# 2 -0.001657 0.010586 -0.003490 0.000000 0.000000 0.000000
# 3 -0.008584 -0.003490 0.028692 0.000000 0.000000 0.000000
# 4 0.000000 0.000000 0.000000 0.075617 0.000000 0.000000
# 5 0.000000 0.000000 0.000000 0.000000 0.022284 0.000000
# 6 0.000000 0.000000 0.000000 0.000000 0.000000 0.030085
#
#
# Mechanical properties :
#
#
# Convention : Reuss Voigt Hill
#
# Bulk Modulus (GPa) = 44.28414 55.53528 49.90971
# Shear Modulus (GPa) = 23.47244 30.86492 27.16868
#
# Velocity S-wave (km/s) = 3.22109 3.69366 3.46544
# Velocity P-wave (km/s) = 5.78002 6.53750 6.17040
#
# Compressibility (1/GPa) = 0.02258145
#
# Stress axis : x y z
#
# Youngs Moduli (GPa) = 92.89699 94.46560 34.85296
#
# Poissons Ratio (x) = 0.15653 0.29917
# Poissons Ratio (y) = 0.15393 0.12163
# Poissons Ratio (z) = 0.79741 0.32966
#
# Static dielectric constant tensor:
#      x y z
#    x 4.447590 0.000000 0.000000 
#    y 0.000000 4.259480 0.000000 
#    z 0.000000 0.000000 3.862500 
# 
# 
# High freq. dielectric constant tensor:
#      x y z
#    x 1.884790 0.000000 0.000000 
#    y 0.000000 1.894540 0.000000 
#    z 0.000000 0.000000 1.881390 
# 
# From -- ./inp_files/26465.got.cif
#   From: 2010.06.25/outbox.cif.g09.slc.cpg/sg43_14_cif.got.tgz:26465.got - 2010.06.26 16:48:59.
