data_PCOD8187582
_publ_section_title
;
Structure prediction by ZEFSAII (Michael W. Deem and Ramdas Pophale) SiO2 
 PCOD8187582
Probable space group: F D D 2
;
_chemical_formula_sum "Si O2"
_cell_formula_units_Z 120
_cell_length_a 27.610685
_cell_length_b 10.133038
_cell_length_c 18.990049
_cell_angle_alpha 90.000000
_cell_angle_beta 90.000000
_cell_angle_gamma 90.000000
_cell_volume 5313.038194
_symmetry_space_group_name_H-M "F D D 2"
_symmetry_group_IT_number 43
_symmetry_cell_setting 'orthorhombic'
loop_
_space_group_symop_operation_xyz
x,y,z
-x,-y,z
1/4-x,1/4+y,1/4+z
1/4+x,1/4-y,1/4+z
x,1/2+y,1/2+z
-x,1/2-y,1/2+z
1/4-x,3/4+y,3/4+z
1/4+x,3/4-y,3/4+z
1/2+x,y,1/2+z
1/2-x,-y,1/2+z
3/4-x,1/4+y,3/4+z
3/4+x,1/4-y,3/4+z
1/2+x,1/2+y,z
1/2-x,1/2-y,z
3/4-x,3/4+y,1/4+z
3/4+x,3/4-y,1/4+z
loop_
_atom_site_type_symbol
_atom_site_label
_atom_site_fract_x
_atom_site_fract_y
_atom_site_fract_z
Si Si1 0.507943 0.155668 0.158180
Si Si2 0.994880 0.146307 0.810504
Si Si3 0.750000 0.750000 0.547057
Si Si4 0.397126 0.941815 0.735105
Si Si5 0.571718 0.811600 0.052728
Si Si6 0.798675 0.941246 0.650767
Si Si7 0.615279 0.815472 0.326011
Si Si8 0.853280 0.144793 0.333966
O O1 0.506117 0.222448 0.236016
O O2 0.464114 0.226349 0.116245
O O3 0.559440 0.181538 0.121783
O O4 0.500000 0.000000 0.154808
O O5 0.941490 0.171366 0.839931
O O6 0.036502 0.162698 0.871027
O O7 0.000000 0.000000 0.783151
O O8 0.796183 0.713800 0.500213
O O9 0.758889 0.869695 0.601201
O O10 0.376864 0.807213 0.772024
O O11 0.390787 0.948485 0.651405
O O12 0.366188 0.064586 0.764102
O O13 0.612208 0.698185 0.040760
O O14 0.595830 0.953018 0.064732
O O15 0.537872 0.820746 0.983140
O O16 0.852499 0.888401 0.638900
#
# Coordination Sequence:
#
# PCOD8187582 Si02
#       8
#    16  16   8  16  16  16  16  16
#     4   9  22  43  68 101 135 183 233 301 350 427
#     4  11  24  42  70  98 143 185 235 290 372 435
#     4  10  24  50  70  98 134 196 242 300 354 436
#     4  11  27  48  75 102 146 193 243 300 369 446
#     4  11  26  42  73 102 143 179 242 298 361 425
#     4  11  25  40  74 100 134 181 243 296 354 423
#     4  12  27  48  70 106 152 190 239 305 379 436
#     4  10  25  44  74 102 133 184 248 293 352 431
#
# _framework density 22.585946
#
# number of rings (size 3 to 8) (size 9 to 14) (size 15 to 20)
#    0.000    1.333    1.333    1.600   19.600    1.067 
#    0.000    0.000    0.000    0.000    0.000    0.000 
#    0.000    0.000    0.000    0.000    0.000    0.000 
#
# Total GULP energy -371861.965877 kJ/mol
# GULP energy per Si atom -12395.398863 kJ/mol
# Density = 2.253454 g / cm^3
# Si number density = 22.585946 Si / 1000 Ang^3
#
#
#
# Elastic Constant Matrix: (Units=GPa)
#
#
# Indices 1 2 3 4 5 6 
#
# 1 116.7133 27.4049 23.0217 0.0000 0.0000 0.0000
# 2 27.4049 71.6037 16.4287 0.0000 0.0000 0.0000
# 3 23.0217 16.4287 122.5494 0.0000 0.0000 0.0000
# 4 0.0000 0.0000 0.0000 13.1023 0.0000 0.0000
# 5 0.0000 0.0000 0.0000 0.0000 11.6350 0.0000
# 6 0.0000 0.0000 0.0000 0.0000 0.0000 32.0466
#
#
#
# Elastic Compliance Matrix: (Units=1/GPa)
#
#
# Indices 1 2 3 4 5 6 
#
# 1 0.009628 -0.003374 -0.001356 0.000000 0.000000 0.000000
# 2 -0.003374 0.015591 -0.001456 0.000000 0.000000 0.000000
# 3 -0.001356 -0.001456 0.008610 0.000000 0.000000 0.000000
# 4 0.000000 0.000000 0.000000 0.076322 0.000000 0.000000
# 5 0.000000 0.000000 0.000000 0.000000 0.085948 0.000000
# 6 0.000000 0.000000 0.000000 0.000000 0.000000 0.031205
#
#
# Mechanical properties :
#
#
# Convention : Reuss Voigt Hill
#
# Bulk Modulus (GPa) = 46.60671 49.39745 48.00208
# Shear Modulus (GPa) = 20.25701 27.62419 23.94060
#
# Velocity S-wave (km/s) = 2.99805 3.50104 3.25926
# Velocity P-wave (km/s) = 5.71529 6.18558 5.95508
#
# Compressibility (1/GPa) = 0.02145614
#
# Stress axis : x y z
#
# Youngs Moduli (GPa) = 103.86714 64.13924 116.14382
#
# Poissons Ratio (x) = 0.21638 0.15753
# Poissons Ratio (y) = 0.35041 0.16915
# Poissons Ratio (z) = 0.14088 0.09341
#
# Static dielectric constant tensor:
#      x y z
#    x 4.179620 0.000000 0.000000 
#    y 0.000000 4.689340 0.000000 
#    z 0.000000 0.000000 3.975280 
# 
# 
# High freq. dielectric constant tensor:
#      x y z
#    x 1.893070 0.000000 0.000000 
#    y 0.000000 1.893190 0.000000 
#    z 0.000000 0.000000 1.896040 
# 
# From -- ./inp_files/15101.got.cif
#   From: 2010.06.25/outbox.cif.g09.slc.cpg/sg43_8_cif.got.tgz:15101.got - 2010.06.26 16:48:59.
