data_PCOD8187150
_publ_section_title
;
Structure prediction by ZEFSAII (Michael W. Deem and Ramdas Pophale) SiO2 
 PCOD8187150
Probable space group: F D D 2
;
_chemical_formula_sum "Si O2"
_cell_formula_units_Z 96
_cell_length_a 9.671201
_cell_length_b 16.715663
_cell_length_c 28.428890
_cell_angle_alpha 90.000000
_cell_angle_beta 90.000000
_cell_angle_gamma 90.000000
_cell_volume 4595.829616
_symmetry_space_group_name_H-M "F D D 2"
_symmetry_group_IT_number 43
_symmetry_cell_setting 'orthorhombic'
loop_
_space_group_symop_operation_xyz
x,y,z
-x,-y,z
1/4-x,1/4+y,1/4+z
1/4+x,1/4-y,1/4+z
x,1/2+y,1/2+z
-x,1/2-y,1/2+z
1/4-x,3/4+y,3/4+z
1/4+x,3/4-y,3/4+z
1/2+x,y,1/2+z
1/2-x,-y,1/2+z
3/4-x,1/4+y,3/4+z
3/4+x,1/4-y,3/4+z
1/2+x,1/2+y,z
1/2-x,1/2-y,z
3/4-x,3/4+y,1/4+z
3/4+x,3/4-y,1/4+z
loop_
_atom_site_type_symbol
_atom_site_label
_atom_site_fract_x
_atom_site_fract_y
_atom_site_fract_z
Si Si1 0.518111 0.154330 0.904900
Si Si2 0.249550 0.901106 0.966977
Si Si3 0.917226 0.081487 0.313999
Si Si4 0.531148 0.690553 0.956755
Si Si5 0.214604 0.413089 0.967030
Si Si6 0.126335 0.548450 0.292864
O O1 0.672702 0.127978 0.919697
O O2 0.490958 0.142411 0.849683
O O3 0.496633 0.248399 0.914127
O O4 0.417756 0.095516 0.933824
O O5 0.096188 0.867221 0.966382
O O6 0.240496 0.995841 0.971012
O O7 0.332399 0.867171 0.011686
O O8 0.754377 0.067967 0.327794
O O9 0.000000 0.000000 0.316180
O O10 0.662460 0.637295 0.943050
O O11 0.560994 0.741569 0.002884
O O12 0.182328 0.379594 0.019341
O O13 0.000000 0.500000 0.318476
#
# Coordination Sequence:
#
# PCOD8187150 Si02
#       6
#    16  16  16  16  16  16
#     4  11  23  40  64  92 124 170 223 263 314 397
#     4  12  21  40  67  94 126 173 211 268 336 385
#     4  12  22  39  66  97 130 170 219 273 330 394
#     4  10  20  42  64  88 126 172 206 262 336 378
#     4  10  21  39  62  94 125 165 217 261 321 387
#     4   9  19  38  64  88 124 169 213 260 322 388
#
# _framework density 20.888504000000001
#
# number of rings (size 3 to 8) (size 9 to 14) (size 15 to 20)
#    0.000    1.333    5.000    4.000    0.000    0.000 
#    6.000    6.667    0.000    0.000    0.000    0.000 
#    0.000    0.000    0.000    0.000    0.000    0.000 
#
# Total GULP energy -297631.426168 kJ/mol
# GULP energy per Si atom -12401.309424 kJ/mol
# Density = 2.084096 g / cm^3
# Si number density = 20.888504 Si / 1000 Ang^3
#
#
#
# Elastic Constant Matrix: (Units=GPa)
#
#
# Indices 1 2 3 4 5 6 
#
# 1 82.8506 50.0519 19.0260 0.0000 0.0000 0.0000
# 2 50.0519 137.4510 2.0007 0.0000 0.0000 0.0000
# 3 19.0260 2.0007 43.8693 0.0000 0.0000 0.0000
# 4 0.0000 0.0000 0.0000 4.2451 0.0000 0.0000
# 5 0.0000 0.0000 0.0000 0.0000 15.5129 0.0000
# 6 0.0000 0.0000 0.0000 0.0000 0.0000 28.5828
#
#
#
# Elastic Compliance Matrix: (Units=1/GPa)
#
#
# Indices 1 2 3 4 5 6 
#
# 1 0.017548 -0.006283 -0.007324 0.000000 0.000000 0.000000
# 2 -0.006283 0.009530 0.002290 0.000000 0.000000 0.000000
# 3 -0.007324 0.002290 0.025867 0.000000 0.000000 0.000000
# 4 0.000000 0.000000 0.000000 0.235568 0.000000 0.000000
# 5 0.000000 0.000000 0.000000 0.000000 0.064463 0.000000
# 6 0.000000 0.000000 0.000000 0.000000 0.000000 0.034986
#
#
# Mechanical properties :
#
#
# Convention : Reuss Voigt Hill
#
# Bulk Modulus (GPa) = 32.99113 45.14755 39.06934
# Shear Modulus (GPa) = 11.88500 22.54097 17.21298
#
# Velocity S-wave (km/s) = 2.38790 3.28854 2.87373
# Velocity P-wave (km/s) = 4.84056 6.00665 5.45485
#
# Compressibility (1/GPa) = 0.03031118
#
# Stress axis : x y z
#
# Youngs Moduli (GPa) = 56.98783 104.93198 38.65952
#
# Poissons Ratio (x) = 0.65931 0.28313
# Poissons Ratio (y) = 0.35807 -0.08855
# Poissons Ratio (z) = 0.41737 -0.24034
#
# Static dielectric constant tensor:
#      x y z
#    x 4.132190 0.000000 0.000000 
#    y 0.000000 3.878460 0.000000 
#    z 0.000000 0.000000 3.538190 
# 
# 
# High freq. dielectric constant tensor:
#      x y z
#    x 1.837500 0.000000 0.000000 
#    y 0.000000 1.825450 0.000000 
#    z 0.000000 0.000000 1.774770 
# 
# From -- ./inp_files/25068.got.cif
#   From: 2010.06.25/outbox.cif.g09.slc.cpg/sg43_13_cif.got.tgz:25068.got - 2010.06.26 16:48:59.
