data_PCOD8187282
_publ_section_title
;
Structure prediction by ZEFSAII (Michael W. Deem and Ramdas Pophale) SiO2 
 PCOD8187282
Probable space group: F D D 2
;
_chemical_formula_sum "Si O2"
_cell_formula_units_Z 64
_cell_length_a 33.484277
_cell_length_b 12.902223
_cell_length_c 7.897828
_cell_angle_alpha 90.000000
_cell_angle_beta 90.000000
_cell_angle_gamma 90.000000
_cell_volume 3412.032359
_symmetry_space_group_name_H-M "F D D 2"
_symmetry_group_IT_number 43
_symmetry_cell_setting 'orthorhombic'
loop_
_space_group_symop_operation_xyz
x,y,z
-x,-y,z
1/4-x,1/4+y,1/4+z
1/4+x,1/4-y,1/4+z
x,1/2+y,1/2+z
-x,1/2-y,1/2+z
1/4-x,3/4+y,3/4+z
1/4+x,3/4-y,3/4+z
1/2+x,y,1/2+z
1/2-x,-y,1/2+z
3/4-x,1/4+y,3/4+z
3/4+x,1/4-y,3/4+z
1/2+x,1/2+y,z
1/2-x,1/2-y,z
3/4-x,3/4+y,1/4+z
3/4+x,3/4-y,1/4+z
loop_
_atom_site_type_symbol
_atom_site_label
_atom_site_fract_x
_atom_site_fract_y
_atom_site_fract_z
Si Si1 0.160421 0.704965 0.466830
Si Si2 0.295140 0.286224 0.644179
Si Si3 0.705612 0.790427 0.288174
Si Si4 0.678241 0.012851 0.279514
O O1 0.179799 0.761979 0.301824
O O2 0.177720 0.751681 0.637884
O O3 0.170138 0.580925 0.451173
O O4 0.113350 0.721927 0.454374
O O5 0.250000 0.250000 0.664649
O O6 0.312727 0.250184 0.464477
O O7 0.299240 0.411619 0.646313
O O8 0.750000 0.750000 0.255530
O O9 0.706915 0.914904 0.306307
#
# Coordination Sequence:
#
# PCOD8187282 Si02
#       4
#    16  16  16  16
#     4  10  21  43  61  87 125 158 200 255 297 356
#     4   9  22  41  58  91 120 155 208 243 298 366
#     4  11  22  40  62  91 121 161 201 244 309 358
#     4  10  22  42  61  89 123 156 206 248 297 366
#
# _framework density 18.757149999999999
#
# number of rings (size 3 to 8) (size 9 to 14) (size 15 to 20)
#    1.500    0.500    2.500    0.750    0.000    6.000 
#    4.500    0.000    0.000    0.000    0.000    0.000 
#    0.000    0.000    0.000    0.000    0.000    0.000 
#
# Total GULP energy -198223.837979 kJ/mol
# GULP energy per Si atom -12388.989874 kJ/mol
# Density = 1.871446 g / cm^3
# Si number density = 18.757150 Si / 1000 Ang^3
#
#
#
# Elastic Constant Matrix: (Units=GPa)
#
#
# Indices 1 2 3 4 5 6 
#
# 1 95.6259 49.1611 34.6492 0.0000 0.0000 0.0000
# 2 49.1611 163.1764 50.0383 0.0000 0.0000 0.0000
# 3 34.6492 50.0383 129.0515 0.0000 0.0000 0.0000
# 4 0.0000 0.0000 0.0000 30.9375 0.0000 0.0000
# 5 0.0000 0.0000 0.0000 0.0000 5.7277 0.0000
# 6 0.0000 0.0000 0.0000 0.0000 0.0000 37.8470
#
#
#
# Elastic Compliance Matrix: (Units=1/GPa)
#
#
# Indices 1 2 3 4 5 6 
#
# 1 0.012912 -0.003209 -0.002223 0.000000 0.000000 0.000000
# 2 -0.003209 0.007753 -0.002145 0.000000 0.000000 0.000000
# 3 -0.002223 -0.002145 0.009177 0.000000 0.000000 0.000000
# 4 0.000000 0.000000 0.000000 0.032323 0.000000 0.000000
# 5 0.000000 0.000000 0.000000 0.000000 0.174591 0.000000
# 6 0.000000 0.000000 0.000000 0.000000 0.000000 0.026422
#
#
# Mechanical properties :
#
#
# Convention : Reuss Voigt Hill
#
# Bulk Modulus (GPa) = 68.07162 72.83901 70.45532
# Shear Modulus (GPa) = 17.65367 31.83611 24.74489
#
# Velocity S-wave (km/s) = 3.07118 4.12427 3.63605
# Velocity P-wave (km/s) = 6.99614 7.84834 7.43446
#
# Compressibility (1/GPa) = 0.01469041
#
# Stress axis : x y z
#
# Youngs Moduli (GPa) = 77.44533 128.98870 108.96619
#
# Poissons Ratio (x) = 0.41387 0.24221
# Poissons Ratio (y) = 0.24849 0.23368
# Poissons Ratio (z) = 0.17214 0.27662
#
# Static dielectric constant tensor:
#      x y z
#    x 3.322730 0.000000 0.000000 
#    y 0.000000 3.510960 0.000000 
#    z 0.000000 0.000000 3.456630 
# 
# 
# High freq. dielectric constant tensor:
#      x y z
#    x 1.728520 0.000000 0.000000 
#    y 0.000000 1.726420 0.000000 
#    z 0.000000 0.000000 1.722340 
# 
# From -- ./inp_files/1976.got.cif
#   From: 2010.06.25/outbox.cif.g09.slc.cpg/sg43_1_cif.got.tgz:1976.got - 2010.06.26 16:48:59.
