data_PCOD8187232
_publ_section_title
;
Structure prediction by ZEFSAII (Michael W. Deem and Ramdas Pophale) SiO2 
 PCOD8187232
Probable space group: F D D 2
;
_chemical_formula_sum "Si O2"
_cell_formula_units_Z 120
_cell_length_a 24.879545
_cell_length_b 8.652842
_cell_length_c 26.735885
_cell_angle_alpha 90.000000
_cell_angle_beta 90.000000
_cell_angle_gamma 90.000000
_cell_volume 5755.668489
_symmetry_space_group_name_H-M "F D D 2"
_symmetry_group_IT_number 43
_symmetry_cell_setting 'orthorhombic'
loop_
_space_group_symop_operation_xyz
x,y,z
-x,-y,z
1/4-x,1/4+y,1/4+z
1/4+x,1/4-y,1/4+z
x,1/2+y,1/2+z
-x,1/2-y,1/2+z
1/4-x,3/4+y,3/4+z
1/4+x,3/4-y,3/4+z
1/2+x,y,1/2+z
1/2-x,-y,1/2+z
3/4-x,1/4+y,3/4+z
3/4+x,1/4-y,3/4+z
1/2+x,1/2+y,z
1/2-x,1/2-y,z
3/4-x,3/4+y,1/4+z
3/4+x,3/4-y,1/4+z
loop_
_atom_site_type_symbol
_atom_site_label
_atom_site_fract_x
_atom_site_fract_y
_atom_site_fract_z
Si Si1 0.156862 0.543782 0.685170
Si Si2 0.593073 0.691582 0.093129
Si Si3 0.734964 0.925758 0.135846
Si Si4 0.750000 0.750000 0.377330
Si Si5 0.641785 0.549903 0.999091
Si Si6 0.003905 0.819415 0.280831
Si Si7 0.827018 0.962706 0.440744
Si Si8 0.886229 0.030425 0.653880
O O1 0.130615 0.607982 0.634036
O O2 0.219827 0.513472 0.674395
O O3 0.148184 0.663082 0.730990
O O4 0.131642 0.380836 0.702250
O O5 0.533523 0.619886 0.093976
O O6 0.613155 0.666462 0.037124
O O7 0.593166 0.876540 0.104675
O O8 0.750000 0.750000 0.120995
O O9 0.677586 0.943888 0.162778
O O10 0.727727 0.029107 0.086546
O O11 0.788258 0.849069 0.411816
O O12 0.693541 0.486469 0.026364
O O13 0.664248 0.643335 0.951903
O O14 0.046390 0.740806 0.242144
O O15 0.000000 0.000000 0.271484
O O16 0.843584 0.104280 0.404309
#
# Coordination Sequence:
#
# PCOD8187232 Si02
#       8
#    16  16  16   8  16  16  16  16
#     4  10  21  41  65  91 136 170 228 278 336 408
#     4  10  21  40  63  95 124 176 222 277 338 412
#     4  12  24  43  66  98 136 182 224 281 355 415
#     4  10  22  42  64  86 130 172 224 274 348 412
#     4  11  21  42  67  94 129 176 228 282 336 427
#     4  12  24  39  69 100 127 176 235 282 344 416
#     4  11  23  42  63  99 133 174 226 290 340 405
#     4  11  26  39  64  98 140 171 227 291 347 404
#
# _framework density 20.849011000000001
#
# number of rings (size 3 to 8) (size 9 to 14) (size 15 to 20)
#    0.000    1.067    6.000    1.600    5.600    2.667 
#    0.000    0.000    0.000    1.600    0.000    0.000 
#    0.000    0.000    0.000    0.000    0.000    0.000 
#
# Total GULP energy -371929.411630 kJ/mol
# GULP energy per Si atom -12397.647054 kJ/mol
# Density = 2.080156 g / cm^3
# Si number density = 20.849011 Si / 1000 Ang^3
#
#
#
# Elastic Constant Matrix: (Units=GPa)
#
#
# Indices 1 2 3 4 5 6 
#
# 1 100.0121 43.1001 13.2050 0.0000 0.0000 -0.0002
# 2 43.1001 130.9125 35.1640 0.0000 0.0000 -0.0003
# 3 13.2050 35.1640 76.9516 0.0000 0.0000 0.0000
# 4 0.0000 0.0000 0.0000 32.0274 0.0000 0.0000
# 5 0.0000 0.0000 0.0000 0.0000 6.6994 0.0000
# 6 -0.0002 -0.0003 0.0000 0.0000 0.0000 24.0148
#
#
#
# Elastic Compliance Matrix: (Units=1/GPa)
#
#
# Indices 1 2 3 4 5 6 
#
# 1 0.011657 -0.003762 -0.000281 0.000000 0.000000 0.000000
# 2 -0.003762 0.009922 -0.003888 0.000000 0.000000 0.000000
# 3 -0.000281 -0.003888 0.014820 0.000000 0.000000 0.000000
# 4 0.000000 0.000000 0.000000 0.031223 0.000000 0.000000
# 5 0.000000 0.000000 0.000000 0.000000 0.149266 0.000000
# 6 0.000000 0.000000 0.000000 0.000000 0.000000 0.041641
#
#
# Mechanical properties :
#
#
# Convention : Reuss Voigt Hill
#
# Bulk Modulus (GPa) = 48.69561 54.53495 51.61528
# Shear Modulus (GPa) = 17.77848 26.97546 22.37697
#
# Velocity S-wave (km/s) = 2.92331 3.60091 3.27966
# Velocity P-wave (km/s) = 5.89927 6.59565 6.25716
#
# Compressibility (1/GPa) = 0.02053573
#
# Stress axis : x y z
#
# Youngs Moduli (GPa) = 85.78304 100.78822 67.47542
#
# Poissons Ratio (x) = 0.37921 0.01897
# Poissons Ratio (y) = 0.32275 0.26236
# Poissons Ratio (z) = 0.02412 0.39189
#
# Static dielectric constant tensor:
#      x y z
#    x 4.775140 0.000000 0.000000 
#    y 0.000000 3.658850 0.000000 
#    z 0.000000 0.000000 3.622320 
# 
# 
# High freq. dielectric constant tensor:
#      x y z
#    x 1.819780 0.000000 0.000000 
#    y 0.000000 1.813600 0.000000 
#    z 0.000000 0.000000 1.800080 
# 
# From -- ./inp_files/26589.got.cif
#   From: 2010.06.25/outbox.cif.g09.slc.cpg/sg43_14_cif.got.tgz:26589.got - 2010.06.26 16:48:59.
