data_PCOD8187081
_publ_section_title
;
Structure prediction by ZEFSAII (Michael W. Deem and Ramdas Pophale) SiO2 
 PCOD8187081
Probable space group: F D D 2
;
_chemical_formula_sum "Si O2"
_cell_formula_units_Z 120
_cell_length_a 35.383315
_cell_length_b 16.732284
_cell_length_c 10.470498
_cell_angle_alpha 90.000000
_cell_angle_beta 90.000000
_cell_angle_gamma 90.000000
_cell_volume 6198.992120
_symmetry_space_group_name_H-M "F D D 2"
_symmetry_group_IT_number 43
_symmetry_cell_setting 'orthorhombic'
loop_
_space_group_symop_operation_xyz
x,y,z
-x,-y,z
1/4-x,1/4+y,1/4+z
1/4+x,1/4-y,1/4+z
x,1/2+y,1/2+z
-x,1/2-y,1/2+z
1/4-x,3/4+y,3/4+z
1/4+x,3/4-y,3/4+z
1/2+x,y,1/2+z
1/2-x,-y,1/2+z
3/4-x,1/4+y,3/4+z
3/4+x,1/4-y,3/4+z
1/2+x,1/2+y,z
1/2-x,1/2-y,z
3/4-x,3/4+y,1/4+z
3/4+x,3/4-y,1/4+z
loop_
_atom_site_type_symbol
_atom_site_label
_atom_site_fract_x
_atom_site_fract_y
_atom_site_fract_z
Si Si1 0.219744 0.393462 0.313080
Si Si2 0.134814 0.055622 0.709711
Si Si3 0.929089 0.077643 0.300116
Si Si4 0.423155 0.327113 0.807959
Si Si5 0.382914 0.726036 0.934873
Si Si6 0.000000 0.500000 0.715664
Si Si7 0.549735 0.791369 0.611366
Si Si8 0.148091 0.943450 0.931414
O O1 0.197871 0.389463 0.176819
O O2 0.227706 0.305722 0.366440
O O3 0.258031 0.444539 0.304954
O O4 0.193116 0.433838 0.419483
O O5 0.168057 0.118506 0.672587
O O6 0.094794 0.102927 0.718094
O O7 0.138878 0.981056 0.609892
O O8 0.138360 0.021699 0.850696
O O9 0.931175 0.129979 0.171397
O O10 0.971123 0.041847 0.314536
O O11 0.898489 0.006834 0.285180
O O12 0.451726 0.278429 0.717495
O O13 0.383941 0.789885 0.822317
O O14 0.372813 0.637489 0.884546
O O15 0.424319 0.732031 0.993477
#
# Coordination Sequence:
#
# PCOD8187081 Si02
#       8
#    16  16  16  16  16   8  16  16
#     4  10  22  37  59  89 119 163 196 250 311 353
#     4  10  21  38  61  86 120 155 196 250 298 359
#     4  10  20  38  60  88 117 156 202 241 306 348
#     4  10  21  39  62  88 121 158 202 248 311 358
#     4  12  21  38  60  93 116 155 207 249 290 363
#     4  10  20  38  62  88 124 156 204 254 296 378
#     4  10  22  37  60  88 122 157 199 252 297 366
#     4  11  23  37  61  90 121 151 204 249 303 358
#
# _framework density 19.357986
#
# number of rings (size 3 to 8) (size 9 to 14) (size 15 to 20)
#    0.000    1.600    4.000    1.600    1.867    0.000 
#    0.000    0.000    0.000    0.000    0.000    0.933 
#    0.000    0.000    0.000    0.000    0.000    0.000 
#
# Total GULP energy -371760.077825 kJ/mol
# GULP energy per Si atom -12392.002594 kJ/mol
# Density = 1.931393 g / cm^3
# Si number density = 19.357986 Si / 1000 Ang^3
#
#
#
# Elastic Constant Matrix: (Units=GPa)
#
#
# Indices 1 2 3 4 5 6 
#
# 1 88.6110 29.4760 21.7509 0.0000 0.0000 0.0000
# 2 29.4760 79.5098 17.9900 0.0000 0.0000 0.0000
# 3 21.7509 17.9900 45.8116 0.0000 0.0000 0.0000
# 4 0.0000 0.0000 0.0000 28.2045 0.0000 0.0000
# 5 0.0000 0.0000 0.0000 0.0000 32.6004 0.0000
# 6 0.0000 0.0000 0.0000 0.0000 0.0000 34.1458
#
#
#
# Elastic Compliance Matrix: (Units=1/GPa)
#
#
# Indices 1 2 3 4 5 6 
#
# 1 0.013844 -0.004000 -0.005002 0.000000 0.000000 0.000000
# 2 -0.004000 0.014960 -0.003975 0.000000 0.000000 0.000000
# 3 -0.005002 -0.003975 0.025764 0.000000 0.000000 0.000000
# 4 0.000000 0.000000 0.000000 0.035455 0.000000 0.000000
# 5 0.000000 0.000000 0.000000 0.000000 0.030674 0.000000
# 6 0.000000 0.000000 0.000000 0.000000 0.000000 0.029286
#
#
# Mechanical properties :
#
#
# Convention : Reuss Voigt Hill
#
# Bulk Modulus (GPa) = 34.94959 39.15182 37.05071
# Shear Modulus (GPa) = 26.95761 28.63786 27.79773
#
# Velocity S-wave (km/s) = 3.73578 3.85045 3.79355
# Velocity P-wave (km/s) = 6.05819 6.32748 6.19430
#
# Compressibility (1/GPa) = 0.02861264
#
# Stress axis : x y z
#
# Youngs Moduli (GPa) = 72.23438 66.84693 38.81320
#
# Poissons Ratio (x) = 0.26742 0.19414
# Poissons Ratio (y) = 0.28897 0.15429
# Poissons Ratio (z) = 0.36131 0.26573
#
# Static dielectric constant tensor:
#      x y z
#    x 3.628610 0.000000 0.000000 
#    y 0.000000 3.722190 0.000000 
#    z 0.000000 0.000000 3.324340 
# 
# 
# High freq. dielectric constant tensor:
#      x y z
#    x 1.746380 0.000000 0.000000 
#    y 0.000000 1.764020 0.000000 
#    z 0.000000 0.000000 1.735940 
# 
# From -- ./inp_files/6881.got.cif
#   From: 2010.06.25/outbox.cif.g09.slc.cpg/sg43_4_cif.got.tgz:6881.got - 2010.06.26 16:48:59.
