data_PCOD8187239
_publ_section_title
;
Structure prediction by ZEFSAII (Michael W. Deem and Ramdas Pophale) SiO2 
 PCOD8187239
Probable space group: F D D 2
;
_chemical_formula_sum "Si O2"
_cell_formula_units_Z 120
_cell_length_a 25.882767
_cell_length_b 25.439490
_cell_length_c 9.085071
_cell_angle_alpha 90.000000
_cell_angle_beta 90.000000
_cell_angle_gamma 90.000000
_cell_volume 5982.014053
_symmetry_space_group_name_H-M "F D D 2"
_symmetry_group_IT_number 43
_symmetry_cell_setting 'orthorhombic'
loop_
_space_group_symop_operation_xyz
x,y,z
-x,-y,z
1/4-x,1/4+y,1/4+z
1/4+x,1/4-y,1/4+z
x,1/2+y,1/2+z
-x,1/2-y,1/2+z
1/4-x,3/4+y,3/4+z
1/4+x,3/4-y,3/4+z
1/2+x,y,1/2+z
1/2-x,-y,1/2+z
3/4-x,1/4+y,3/4+z
3/4+x,1/4-y,3/4+z
1/2+x,1/2+y,z
1/2-x,1/2-y,z
3/4-x,3/4+y,1/4+z
3/4+x,3/4-y,1/4+z
loop_
_atom_site_type_symbol
_atom_site_label
_atom_site_fract_x
_atom_site_fract_y
_atom_site_fract_z
Si Si1 0.259125 0.513663 0.102050
Si Si2 0.750000 0.250000 0.669589
Si Si3 0.163722 0.581146 0.034515
Si Si4 0.402904 0.775819 0.647903
Si Si5 0.576232 0.938874 0.617484
Si Si6 0.677504 0.930810 0.098331
Si Si7 0.102045 0.239991 0.574505
Si Si8 0.159592 0.314842 0.054563
O O1 0.212924 0.556019 0.119237
O O2 0.235386 0.454862 0.096122
O O3 0.299900 0.519437 0.231967
O O4 0.287286 0.524372 0.945862
O O5 0.725006 0.206743 0.780745
O O6 0.789925 0.222781 0.556130
O O7 0.114683 0.579393 0.145115
O O8 0.179923 0.637568 0.969356
O O9 0.148113 0.547552 0.892625
O O10 0.371701 0.817841 0.746884
O O11 0.395802 0.792565 0.480046
O O12 0.380900 0.715940 0.659710
O O13 0.596517 0.985072 0.726479
O O14 0.678304 0.868943 0.127635
O O15 0.647042 0.945163 0.949736
#
# Coordination Sequence:
#
# PCOD8187239 Si02
#       8
#    16   8  16  16  16  16  16  16
#     4  10  22  38  66  98 126 161 227 267 315 383
#     4  10  26  44  62  94 144 172 220 258 326 406
#     4  11  22  40  69  93 133 167 217 269 325 376
#     4  10  22  42  63  94 129 170 215 270 315 387
#     4  10  23  44  64  93 129 172 213 265 327 384
#     4  11  20  37  65  90 129 166 214 260 322 379
#     4  10  21  40  64  96 127 163 217 276 314 375
#     4  11  23  42  63  95 134 171 216 262 323 386
#
# _framework density 20.060134000000001
#
# number of rings (size 3 to 8) (size 9 to 14) (size 15 to 20)
#    0.000    1.600    4.000    1.600    3.733    3.200 
#    4.800    2.000    0.000    0.000    0.000    0.000 
#    0.000    0.000    0.000    0.000    0.000    0.000 
#
# Total GULP energy -371743.218041 kJ/mol
# GULP energy per Si atom -12391.440601 kJ/mol
# Density = 2.001448 g / cm^3
# Si number density = 20.060134 Si / 1000 Ang^3
#
#
#
# Elastic Constant Matrix: (Units=GPa)
#
#
# Indices 1 2 3 4 5 6 
#
# 1 104.9771 45.5378 41.0364 0.0003 -0.0018 -0.0019
# 2 45.5378 119.5382 32.1329 0.0027 -0.0046 -0.0037
# 3 41.0364 32.1329 99.4450 -0.0085 0.0029 -0.0044
# 4 0.0003 0.0027 -0.0085 28.0526 0.0016 -0.0015
# 5 -0.0018 -0.0046 0.0029 0.0016 24.7738 0.0026
# 6 -0.0019 -0.0037 -0.0044 -0.0015 0.0026 18.7794
#
#
#
# Elastic Compliance Matrix: (Units=1/GPa)
#
#
# Indices 1 2 3 4 5 6 
#
# 1 0.012739 -0.003767 -0.004040 -0.000001 0.000001 0.000000
# 2 -0.003767 0.010275 -0.001766 -0.000001 0.000002 0.000001
# 3 -0.004040 -0.001766 0.012293 0.000004 -0.000002 0.000002
# 4 -0.000001 -0.000001 0.000004 0.035647 -0.000002 0.000003
# 5 0.000001 0.000002 -0.000002 -0.000002 0.040365 -0.000006
# 6 0.000000 0.000001 0.000002 0.000003 -0.000006 0.053250
#
#
# Mechanical properties :
#
#
# Convention : Reuss Voigt Hill
#
# Bulk Modulus (GPa) = 61.86990 62.37492 62.12241
# Shear Modulus (GPa) = 26.44072 28.00470 27.22271
#
# Velocity S-wave (km/s) = 3.63447 3.74041 3.68782
# Velocity P-wave (km/s) = 6.96575 7.05802 7.01204
#
# Compressibility (1/GPa) = 0.01616295
#
# Stress axis : x y z
#
# Youngs Moduli (GPa) = 78.49839 97.32167 81.34512
#
# Poissons Ratio (x) = 0.36662 0.32860
# Poissons Ratio (y) = 0.29571 0.14363
# Poissons Ratio (z) = 0.31710 0.17184
#
# Static dielectric constant tensor:
#      x y z
#    x 3.631840 0.000000 0.000000 
#    y 0.000000 3.612590 -0.000010 
#    z 0.000000 -0.000010 3.747090 
# 
# 
# High freq. dielectric constant tensor:
#      x y z
#    x 1.776210 0.000000 0.000000 
#    y 0.000000 1.773890 0.000000 
#    z 0.000000 0.000000 1.792690 
# 
# From -- ./inp_files/3915.got.cif
#   From: 2010.06.25/outbox.cif.g09.slc.cpg/sg43_2_cif.got.tgz:3915.got - 2010.06.26 16:48:59.
