data_PCOD8187166
_publ_section_title
;
Structure prediction by ZEFSAII (Michael W. Deem and Ramdas Pophale) SiO2 
 PCOD8187166
Probable space group: F D D 2
;
_chemical_formula_sum "Si O2"
_cell_formula_units_Z 88
_cell_length_a 11.611311
_cell_length_b 14.902472
_cell_length_c 23.919507
_cell_angle_alpha 90.000000
_cell_angle_beta 90.000000
_cell_angle_gamma 90.000000
_cell_volume 4138.965403
_symmetry_space_group_name_H-M "F D D 2"
_symmetry_group_IT_number 43
_symmetry_cell_setting 'orthorhombic'
loop_
_space_group_symop_operation_xyz
x,y,z
-x,-y,z
1/4-x,1/4+y,1/4+z
1/4+x,1/4-y,1/4+z
x,1/2+y,1/2+z
-x,1/2-y,1/2+z
1/4-x,3/4+y,3/4+z
1/4+x,3/4-y,3/4+z
1/2+x,y,1/2+z
1/2-x,-y,1/2+z
3/4-x,1/4+y,3/4+z
3/4+x,1/4-y,3/4+z
1/2+x,1/2+y,z
1/2-x,1/2-y,z
3/4-x,3/4+y,1/4+z
3/4+x,3/4-y,1/4+z
loop_
_atom_site_type_symbol
_atom_site_label
_atom_site_fract_x
_atom_site_fract_y
_atom_site_fract_z
Si Si1 0.938646 0.714027 0.093190
Si Si2 0.883481 0.448257 0.897997
Si Si3 0.921185 0.412558 0.021253
Si Si4 0.179646 0.958023 0.072781
Si Si5 0.750000 0.750000 0.232467
Si Si6 0.779250 0.867721 0.128458
O O1 0.860296 0.804273 0.088884
O O2 0.852424 0.633298 0.107025
O O3 0.027828 0.731665 0.144298
O O4 0.011574 0.678993 0.039544
O O5 0.861846 0.376752 0.848109
O O6 0.000000 0.500000 0.886657
O O7 0.884314 0.398233 0.957202
O O8 0.807582 0.426695 0.057772
O O9 0.000000 0.500000 0.027236
O O10 0.180572 0.030450 0.123067
O O11 0.113719 0.003820 0.020833
O O12 0.773284 0.836235 0.193020
#
# Coordination Sequence:
#
# PCOD8187166 Si02
#       6
#    16  16  16  16   8  16
#     4  10  20  43  63  90 132 164 209 269 318 378
#     4  11  24  39  62  95 130 160 207 268 322 379
#     4  11  22  40  66  92 126 168 211 265 326 379
#     4  12  23  42  67  94 125 172 212 264 321 387
#     4  10  24  42  66  96 136 164 218 268 332 376
#     4  10  23  42  68  91 128 172 218 266 315 387
#
# _framework density 21.261351000000001
#
# number of rings (size 3 to 8) (size 9 to 14) (size 15 to 20)
#    0.000    1.455    3.636    3.273    0.000    2.909 
#    0.000    0.000    4.000    0.000    0.000    0.000 
#    0.000    0.000    0.000    0.000    0.000    0.000 
#
# Total GULP energy -272568.249383 kJ/mol
# GULP energy per Si atom -12389.465881 kJ/mol
# Density = 2.121296 g / cm^3
# Si number density = 21.261351 Si / 1000 Ang^3
#
#
#
# Elastic Constant Matrix: (Units=GPa)
#
#
# Indices 1 2 3 4 5 6 
#
# 1 120.4612 27.7862 36.9798 0.0000 0.0000 0.0000
# 2 27.7862 79.0833 45.3659 0.0000 0.0000 0.0000
# 3 36.9798 45.3659 121.1039 0.0000 0.0000 0.0000
# 4 0.0000 0.0000 0.0000 36.0449 0.0000 0.0000
# 5 0.0000 0.0000 0.0000 0.0000 25.6542 0.0000
# 6 0.0000 0.0000 0.0000 0.0000 0.0000 23.1269
#
#
#
# Elastic Compliance Matrix: (Units=1/GPa)
#
#
# Indices 1 2 3 4 5 6 
#
# 1 0.009430 -0.002116 -0.002087 0.000000 0.000000 0.000000
# 2 -0.002116 0.016581 -0.005565 0.000000 0.000000 0.000000
# 3 -0.002087 -0.005565 0.010979 0.000000 0.000000 0.000000
# 4 0.000000 0.000000 0.000000 0.027743 0.000000 0.000000
# 5 0.000000 0.000000 0.000000 0.000000 0.038980 0.000000
# 6 0.000000 0.000000 0.000000 0.000000 0.000000 0.043240
#
#
# Mechanical properties :
#
#
# Convention : Reuss Voigt Hill
#
# Bulk Modulus (GPa) = 57.29305 60.10136 58.69720
# Shear Modulus (GPa) = 29.01791 30.99962 30.00877
#
# Velocity S-wave (km/s) = 3.69835 3.82255 3.76097
# Velocity P-wave (km/s) = 6.72627 6.91461 6.82109
#
# Compressibility (1/GPa) = 0.01745412
#
# Stress axis : x y z
#
# Youngs Moduli (GPa) = 106.04240 60.31073 91.08080
#
# Poissons Ratio (x) = 0.12763 0.19007
# Poissons Ratio (y) = 0.22441 0.50687
# Poissons Ratio (z) = 0.22129 0.33563
#
# Static dielectric constant tensor:
#      x y z
#    x 4.140200 0.000000 0.000000 
#    y 0.000000 3.675290 0.000000 
#    z 0.000000 0.000000 3.678160 
# 
# 
# High freq. dielectric constant tensor:
#      x y z
#    x 1.860590 0.000000 0.000000 
#    y 0.000000 1.822080 0.000000 
#    z 0.000000 0.000000 1.814750 
# 
# From -- ./inp_files/17061.got.cif
#   From: 2010.06.25/outbox.cif.g09.slc.cpg/sg43_9_cif.got.tgz:17061.got - 2010.06.26 16:48:59.
