data_PCOD8187248
_publ_section_title
;
Structure prediction by ZEFSAII (Michael W. Deem and Ramdas Pophale) SiO2 
 PCOD8187248
Probable space group: F D D 2
;
_chemical_formula_sum "Si O2"
_cell_formula_units_Z 104
_cell_length_a 9.860487
_cell_length_b 29.501792
_cell_length_c 17.152765
_cell_angle_alpha 90.000000
_cell_angle_beta 90.000000
_cell_angle_gamma 90.000000
_cell_volume 4989.774270
_symmetry_space_group_name_H-M "F D D 2"
_symmetry_group_IT_number 43
_symmetry_cell_setting 'orthorhombic'
loop_
_space_group_symop_operation_xyz
x,y,z
-x,-y,z
1/4-x,1/4+y,1/4+z
1/4+x,1/4-y,1/4+z
x,1/2+y,1/2+z
-x,1/2-y,1/2+z
1/4-x,3/4+y,3/4+z
1/4+x,3/4-y,3/4+z
1/2+x,y,1/2+z
1/2-x,-y,1/2+z
3/4-x,1/4+y,3/4+z
3/4+x,1/4-y,3/4+z
1/2+x,1/2+y,z
1/2-x,1/2-y,z
3/4-x,3/4+y,1/4+z
3/4+x,3/4-y,1/4+z
loop_
_atom_site_type_symbol
_atom_site_label
_atom_site_fract_x
_atom_site_fract_y
_atom_site_fract_z
Si Si1 0.750000 0.750000 0.221591
Si Si2 0.763711 0.152590 0.960831
Si Si3 0.743412 0.850202 0.281660
Si Si4 0.500000 0.500000 0.285099
Si Si5 0.250000 0.250000 0.977619
Si Si6 0.277631 0.478569 0.848671
Si Si7 0.531689 0.904107 0.175482
Si Si8 0.519567 0.862767 0.022948
O O1 0.761951 0.796135 0.270445
O O2 0.889804 0.746384 0.172926
O O3 0.804936 0.143538 0.870884
O O4 0.753729 0.206071 0.979533
O O5 0.617229 0.130735 0.974754
O O6 0.866174 0.126255 0.017258
O O7 0.636750 0.873059 0.223261
O O8 0.631433 0.502601 0.341508
O O9 0.382816 0.237178 0.023850
O O10 0.193135 0.207437 0.931255
O O11 0.255232 0.424867 0.842835
O O12 0.548005 0.903678 0.081757
O O13 0.383709 0.892248 0.208105
#
# Coordination Sequence:
#
# PCOD8187248 Si02
#       8
#     8  16  16   8   8  16  16  16
#     4  11  23  42  62  96 130 166 226 274 312 374
#     4  11  25  41  64  98 130 172 209 273 328 389
#     4  12  25  41  67  96 131 170 226 265 323 384
#     4  10  21  40  67  93 133 168 214 254 349 386
#     4   9  20  34  65  89 129 164 222 250 323 378
#     4   9  19  37  63  93 123 167 206 270 316 388
#     4  11  21  40  65  93 121 175 215 264 312 388
#     4  10  21  41  63  89 129 164 206 264 325 381
#
# _framework density 20.842624000000001
#
# number of rings (size 3 to 8) (size 9 to 14) (size 15 to 20)
#    0.000    1.538    1.538    3.231    6.462    0.000 
#    0.000    4.615    0.000    0.923    0.000    0.000 
#    0.000    0.000    0.000    0.000    0.000    0.000 
#
# Total GULP energy -322157.175325 kJ/mol
# GULP energy per Si atom -12390.660589 kJ/mol
# Density = 2.079519 g / cm^3
# Si number density = 20.842624 Si / 1000 Ang^3
#
#
#
# Elastic Constant Matrix: (Units=GPa)
#
#
# Indices 1 2 3 4 5 6 
#
# 1 99.5493 -2.3943 -2.3827 0.0000 0.0000 0.0000
# 2 -2.3943 98.9144 10.6192 0.0000 0.0000 0.0000
# 3 -2.3827 10.6192 73.1472 0.0000 0.0000 0.0000
# 4 0.0000 0.0000 0.0000 3484.8305 0.0000 0.0000
# 5 0.0000 0.0000 0.0000 0.0000 18.5882 0.0000
# 6 0.0000 0.0000 0.0000 0.0000 0.0000 24.0074
#
#
#
# Elastic Compliance Matrix: (Units=1/GPa)
#
#
# Indices 1 2 3 4 5 6 
#
# 1 0.010057 0.000212 0.000297 0.000000 0.000000 0.000000
# 2 0.000212 0.010274 -0.001485 0.000000 0.000000 0.000000
# 3 0.000297 -0.001485 0.013896 0.000000 0.000000 0.000000
# 4 0.000000 0.000000 0.000000 0.000287 0.000000 0.000000
# 5 0.000000 0.000000 0.000000 0.000000 0.053798 0.000000
# 6 0.000000 0.000000 0.000000 0.000000 0.000000 0.041654
#
#
# Mechanical properties :
#
#
# Convention : Reuss Voigt Hill
#
# Bulk Modulus (GPa) = 30.98317 31.47726 31.23021
# Shear Modulus (GPa) = 35.04411 723.20312 379.12362
#
# Velocity S-wave (km/s) = 4.10490 18.64768 13.50160
# Velocity P-wave (km/s) = 6.11265 21.88111 16.06468
#
# Compressibility (1/GPa) = 0.03227559
#
# Stress axis : x y z
#
# Youngs Moduli (GPa) = 99.42861 97.33057 71.96170
#
# Poissons Ratio (x) = -0.02059 -0.02137
# Poissons Ratio (y) = -0.02104 0.10684
# Poissons Ratio (z) = -0.02952 0.14451
#
# Static dielectric constant tensor:
#      x y z
#    x 3.880020 0.000000 0.000000 
#    y 0.000000 -71.619010 0.000000 
#    z 0.000000 0.000000 3.542310 
# 
# 
# High freq. dielectric constant tensor:
#      x y z
#    x 1.828190 0.000000 0.000000 
#    y 0.000000 1.824380 0.000000 
#    z 0.000000 0.000000 1.802120 
# 
# From -- ./inp_files/13451.got.cif
#   From: 2010.06.25/outbox.cif.g09.slc.cpg/sg43_7_cif.got.tgz:13451.got - 2010.06.26 16:48:59.
