data_PCOD8187298
_publ_section_title
;
Structure prediction by ZEFSAII (Michael W. Deem and Ramdas Pophale) SiO2 
 PCOD8187298
Probable space group: F D D 2
;
_chemical_formula_sum "Si O2"
_cell_formula_units_Z 120
_cell_length_a 22.747731
_cell_length_b 27.398205
_cell_length_c 9.120013
_cell_angle_alpha 90.000000
_cell_angle_beta 90.000000
_cell_angle_gamma 90.000000
_cell_volume 5684.020717
_symmetry_space_group_name_H-M "F D D 2"
_symmetry_group_IT_number 43
_symmetry_cell_setting 'orthorhombic'
loop_
_space_group_symop_operation_xyz
x,y,z
-x,-y,z
1/4-x,1/4+y,1/4+z
1/4+x,1/4-y,1/4+z
x,1/2+y,1/2+z
-x,1/2-y,1/2+z
1/4-x,3/4+y,3/4+z
1/4+x,3/4-y,3/4+z
1/2+x,y,1/2+z
1/2-x,-y,1/2+z
3/4-x,1/4+y,3/4+z
3/4+x,1/4-y,3/4+z
1/2+x,1/2+y,z
1/2-x,1/2-y,z
3/4-x,3/4+y,1/4+z
3/4+x,3/4-y,1/4+z
loop_
_atom_site_type_symbol
_atom_site_label
_atom_site_fract_x
_atom_site_fract_y
_atom_site_fract_z
Si Si1 0.892496 0.525958 0.077820
Si Si2 0.359523 0.386552 0.280490
Si Si3 0.582048 0.136513 0.212125
Si Si4 0.899374 0.992251 0.260464
Si Si5 0.750000 0.750000 0.292672
Si Si6 0.441508 0.814648 0.917567
Si Si7 0.278136 0.829283 0.571171
Si Si8 0.074579 0.323409 0.840152
O O1 0.939006 0.544949 0.199778
O O2 0.862910 0.474941 0.117213
O O3 0.840821 0.566461 0.065122
O O4 0.920611 0.515660 0.916123
O O5 0.398959 0.433918 0.247085
O O6 0.402223 0.339601 0.291212
O O7 0.317785 0.371996 0.143941
O O8 0.324821 0.401687 0.429074
O O9 0.529217 0.102973 0.256585
O O10 0.646596 0.110624 0.207104
O O11 0.562410 0.147939 0.049056
O O12 0.834620 0.012233 0.216176
O O13 0.943987 0.011153 0.141070
O O14 0.752665 0.702470 0.194906
O O15 0.508345 0.808156 0.871433
#
# Coordination Sequence:
#
# PCOD8187298 Si02
#       8
#    16  16  16  16   8  16  16  16
#     4  10  24  45  66  98 135 183 225 277 350 414
#     4  10  24  41  66  98 132 177 226 279 348 402
#     4  10  23  41  67  99 131 177 232 275 343 411
#     4  10  24  45  66  97 134 185 227 271 343 417
#     4  12  26  42  68 100 142 170 230 284 338 404
#     4  10  21  44  67  97 131 178 231 273 331 428
#     4  12  25  43  66 107 139 174 226 298 344 409
#     4  10  22  43  68  94 131 181 228 279 339 422
#
# _framework density 21.111815
#
# number of rings (size 3 to 8) (size 9 to 14) (size 15 to 20)
#    0.000    1.600    1.333    1.600    5.600    3.733 
#    7.200    0.000    0.000    0.000    0.000    0.000 
#    0.000    0.000    0.000    0.000    0.000    0.000 
#
# Total GULP energy -371717.786928 kJ/mol
# GULP energy per Si atom -12390.592898 kJ/mol
# Density = 2.106376 g / cm^3
# Si number density = 21.111815 Si / 1000 Ang^3
#
#
#
# Elastic Constant Matrix: (Units=GPa)
#
#
# Indices 1 2 3 4 5 6 
#
# 1 92.8554 12.5213 48.1384 0.0010 0.0000 0.0000
# 2 12.5213 86.7061 34.4913 0.0000 0.0000 -0.0001
# 3 48.1384 34.4913 78.9651 0.0099 -0.0053 -0.0014
# 4 0.0010 0.0000 0.0099 13.8963 -0.0037 -0.0016
# 5 0.0000 0.0000 -0.0053 -0.0037 28.5192 -0.0001
# 6 0.0000 -0.0001 -0.0014 -0.0016 -0.0001 29.5728
#
#
#
# Elastic Compliance Matrix: (Units=1/GPa)
#
#
# Indices 1 2 3 4 5 6 
#
# 1 0.016000 0.001900 -0.010584 0.000006 -0.000002 -0.000001
# 2 0.001900 0.014184 -0.007353 0.000005 -0.000001 0.000000
# 3 -0.010584 -0.007353 0.022328 -0.000015 0.000004 0.000001
# 4 0.000006 0.000005 -0.000015 0.071962 0.000009 0.000004
# 5 -0.000002 -0.000001 0.000004 0.000009 0.035064 0.000000
# 6 -0.000001 0.000000 0.000001 0.000004 0.000000 0.033815
#
#
# Mechanical properties :
#
#
# Convention : Reuss Voigt Hill
#
# Bulk Modulus (GPa) = 48.93144 49.86985 49.40065
# Shear Modulus (GPa) = 21.52946 25.28935 23.40940
#
# Velocity S-wave (km/s) = 3.19687 3.46479 3.33352
# Velocity P-wave (km/s) = 6.07077 6.29916 6.18602
#
# Compressibility (1/GPa) = 0.02043676
#
# Stress axis : x y z
#
# Youngs Moduli (GPa) = 62.49967 70.50150 44.78737
#
# Poissons Ratio (x) = -0.13392 0.47401
# Poissons Ratio (y) = -0.11872 0.32934
# Poissons Ratio (z) = 0.66147 0.51843
#
# Static dielectric constant tensor:
#      x y z
#    x 3.701240 0.000000 0.000000 
#    y 0.000000 3.992610 0.000000 
#    z 0.000000 0.000000 3.966390 
# 
# 
# High freq. dielectric constant tensor:
#      x y z
#    x 1.818720 0.000000 0.000000 
#    y 0.000000 1.845100 0.000000 
#    z 0.000000 0.000000 1.826840 
# 
# From -- ./inp_files/3876.got.cif
#   From: 2010.06.25/outbox.cif.g09.slc.cpg/sg43_2_cif.got.tgz:3876.got - 2010.06.26 16:48:59.
