data_PCOD8187351
_publ_section_title
;
Structure prediction by ZEFSAII (Michael W. Deem and Ramdas Pophale) SiO2 
 PCOD8187351
Probable space group: F D D 2
;
_chemical_formula_sum "Si O2"
_cell_formula_units_Z 112
_cell_length_a 17.641556
_cell_length_b 14.607550
_cell_length_c 21.560132
_cell_angle_alpha 90.000000
_cell_angle_beta 90.000000
_cell_angle_gamma 90.000000
_cell_volume 5556.044105
_symmetry_space_group_name_H-M "F D D 2"
_symmetry_group_IT_number 43
_symmetry_cell_setting 'orthorhombic'
loop_
_space_group_symop_operation_xyz
x,y,z
-x,-y,z
1/4-x,1/4+y,1/4+z
1/4+x,1/4-y,1/4+z
x,1/2+y,1/2+z
-x,1/2-y,1/2+z
1/4-x,3/4+y,3/4+z
1/4+x,3/4-y,3/4+z
1/2+x,y,1/2+z
1/2-x,-y,1/2+z
3/4-x,1/4+y,3/4+z
3/4+x,1/4-y,3/4+z
1/2+x,1/2+y,z
1/2-x,1/2-y,z
3/4-x,3/4+y,1/4+z
3/4+x,3/4-y,1/4+z
loop_
_atom_site_type_symbol
_atom_site_label
_atom_site_fract_x
_atom_site_fract_y
_atom_site_fract_z
Si Si1 0.312118 0.481931 0.315380
Si Si2 0.825336 0.513660 0.403602
Si Si3 0.078254 0.678597 0.791957
Si Si4 0.713852 0.994101 0.198183
Si Si5 0.050200 0.362743 0.346206
Si Si6 0.944936 0.576404 0.214803
Si Si7 0.048253 0.412766 0.864248
O O1 0.246582 0.459034 0.363550
O O2 0.354434 0.386898 0.310052
O O3 0.279819 0.509770 0.248282
O O4 0.368396 0.560982 0.339636
O O5 0.822830 0.562830 0.469002
O O6 0.901792 0.550703 0.370924
O O7 0.820273 0.404419 0.413420
O O8 0.098754 0.771777 0.829260
O O9 0.996457 0.638035 0.809476
O O10 0.693724 0.093030 0.170765
O O11 0.737412 0.917873 0.146592
O O12 0.638126 0.961066 0.232637
O O13 0.014562 0.391027 0.279146
O O14 0.000000 0.500000 0.184432
O O15 0.000000 0.500000 0.887431
#
# Coordination Sequence:
#
# PCOD8187351 Si02
#       7
#    16  16  16  16  16  16  16
#     4  11  21  39  64  93 126 166 216 257 325 378
#     4  11  22  40  62  93 123 165 213 264 317 380
#     4   9  21  40  60  95 129 162 211 265 321 375
#     4  11  22  40  66  90 124 168 211 264 320 381
#     4  10  22  40  63  93 126 164 212 264 322 369
#     4  11  25  42  61  91 130 167 211 261 323 388
#     4   9  21  40  60  90 128 164 206 266 312 383
#
# _framework density 20.158227
#
# number of rings (size 3 to 8) (size 9 to 14) (size 15 to 20)
#    0.000    1.714    2.857    0.857    2.000    4.000 
#    2.571    3.571    0.000    0.000    0.000    0.000 
#    0.000    0.000    0.000    0.000    0.000    0.000 
#
# Total GULP energy -347086.866324 kJ/mol
# GULP energy per Si atom -12395.959512 kJ/mol
# Density = 2.011235 g / cm^3
# Si number density = 20.158227 Si / 1000 Ang^3
#
#
#
# Elastic Constant Matrix: (Units=GPa)
#
#
# Indices 1 2 3 4 5 6 
#
# 1 75.7239 24.5939 16.0281 0.0000 0.0000 0.0000
# 2 24.5939 114.8275 25.2237 0.0000 0.0000 0.0000
# 3 16.0281 25.2237 80.0911 0.0000 0.0000 0.0000
# 4 0.0000 0.0000 0.0000 30.3678 0.0000 0.0000
# 5 0.0000 0.0000 0.0000 0.0000 29.5895 0.0000
# 6 0.0000 0.0000 0.0000 0.0000 0.0000 22.6948
#
#
#
# Elastic Compliance Matrix: (Units=1/GPa)
#
#
# Indices 1 2 3 4 5 6 
#
# 1 0.014505 -0.002653 -0.002067 0.000000 0.000000 0.000000
# 2 -0.002653 0.009841 -0.002568 0.000000 0.000000 0.000000
# 3 -0.002067 -0.002568 0.013708 0.000000 0.000000 0.000000
# 4 0.000000 0.000000 0.000000 0.032930 0.000000 0.000000
# 5 0.000000 0.000000 0.000000 0.000000 0.033796 0.000000
# 6 0.000000 0.000000 0.000000 0.000000 0.000000 0.044063
#
#
# Mechanical properties :
#
#
# Convention : Reuss Voigt Hill
#
# Bulk Modulus (GPa) = 42.59382 44.70377 43.64880
# Shear Modulus (GPa) = 29.19786 30.18356 29.69071
#
# Velocity S-wave (km/s) = 3.80996 3.87374 3.84198
# Velocity P-wave (km/s) = 6.36632 6.49864 6.43282
#
# Compressibility (1/GPa) = 0.02347758
#
# Stress axis : x y z
#
# Youngs Moduli (GPa) = 68.94192 101.61523 72.94788
#
# Poissons Ratio (x) = 0.26954 0.15081
# Poissons Ratio (y) = 0.18287 0.18736
# Poissons Ratio (z) = 0.14253 0.26100
#
# Static dielectric constant tensor:
#      x y z
#    x 3.545150 0.000000 0.000000 
#    y 0.000000 3.891310 0.000000 
#    z 0.000000 0.000000 3.632900 
# 
# 
# High freq. dielectric constant tensor:
#      x y z
#    x 1.779290 0.000000 0.000000 
#    y 0.000000 1.798600 0.000000 
#    z 0.000000 0.000000 1.789370 
# 
# From -- ./inp_files/21718.got.cif
#   From: 2010.06.25/outbox.cif.g09.slc.cpg/sg43_11_cif.got.tgz:21718.got - 2010.06.26 16:48:59.
