data_PCOD8187341
_publ_section_title
;
Structure prediction by ZEFSAII (Michael W. Deem and Ramdas Pophale) SiO2 
 PCOD8187341
Probable space group: F D D 2
;
_chemical_formula_sum "Si O2"
_cell_formula_units_Z 104
_cell_length_a 21.919542
_cell_length_b 26.842641
_cell_length_c 7.603815
_cell_angle_alpha 90.000000
_cell_angle_beta 90.000000
_cell_angle_gamma 90.000000
_cell_volume 4473.920479
_symmetry_space_group_name_H-M "F D D 2"
_symmetry_group_IT_number 43
_symmetry_cell_setting 'orthorhombic'
loop_
_space_group_symop_operation_xyz
x,y,z
-x,-y,z
1/4-x,1/4+y,1/4+z
1/4+x,1/4-y,1/4+z
x,1/2+y,1/2+z
-x,1/2-y,1/2+z
1/4-x,3/4+y,3/4+z
1/4+x,3/4-y,3/4+z
1/2+x,y,1/2+z
1/2-x,-y,1/2+z
3/4-x,1/4+y,3/4+z
3/4+x,1/4-y,3/4+z
1/2+x,1/2+y,z
1/2-x,1/2-y,z
3/4-x,3/4+y,1/4+z
3/4+x,3/4-y,1/4+z
loop_
_atom_site_type_symbol
_atom_site_label
_atom_site_fract_x
_atom_site_fract_y
_atom_site_fract_z
Si Si1 0.620099 0.926374 0.359730
Si Si2 0.750000 0.750000 0.414848
Si Si3 0.492858 0.190581 0.717155
Si Si4 0.524913 0.293322 0.836044
Si Si5 0.347143 0.715789 0.647575
Si Si6 0.585040 0.136408 0.261249
Si Si7 0.928853 0.092860 0.232117
O O1 0.687277 0.929137 0.435302
O O2 0.620958 0.893991 0.182624
O O3 0.579166 0.904065 0.518880
O O4 0.595514 0.980677 0.302761
O O5 0.701782 0.782807 0.304337
O O6 0.785500 0.791623 0.530379
O O7 0.487517 0.240663 0.832848
O O8 0.455880 0.199541 0.537153
O O9 0.463803 0.141593 0.807068
O O10 0.584768 0.293688 0.718574
O O11 0.480346 0.337699 0.775713
O O12 0.327327 0.673643 0.506555
O O13 0.614625 0.158090 0.083841
#
# Coordination Sequence:
#
# PCOD8187341 Si02
#       7
#    16   8  16  16  16  16  16
#     4   9  22  44  60  92 129 175 219 269 332 398
#     4  10  22  44  68  96 138 182 218 272 350 400
#     4  10  22  39  65  94 129 175 222 273 331 399
#     4  10  23  40  67  94 133 174 227 275 334 400
#     4  10  22  43  69  89 136 179 217 277 335 405
#     4  11  24  40  67 100 128 170 228 277 336 396
#     4  11  24  41  67  98 134 172 222 275 340 400
#
# _framework density 23.245830000000002
#
# number of rings (size 3 to 8) (size 9 to 14) (size 15 to 20)
#    0.000    1.846    0.000    2.769   12.923    1.231 
#    0.000    4.615    0.000    0.000    0.000    0.000 
#    0.000    0.000    0.000    0.000    0.000    0.000 
#
# Total GULP energy -322298.178833 kJ/mol
# GULP energy per Si atom -12396.083801 kJ/mol
# Density = 2.319292 g / cm^3
# Si number density = 23.245830 Si / 1000 Ang^3
#
#
#
# Elastic Constant Matrix: (Units=GPa)
#
#
# Indices 1 2 3 4 5 6 
#
# 1 66.8210 37.6748 9.9032 0.0179 0.0080 -0.0147
# 2 37.6748 129.1086 23.0373 0.0550 -0.0111 -0.0443
# 3 9.9032 23.0373 51.6841 0.0037 0.0336 -0.0102
# 4 0.0179 0.0550 0.0037 29.7229 0.0088 -0.0092
# 5 0.0080 -0.0111 0.0336 0.0088 18.4124 -0.0072
# 6 -0.0147 -0.0443 -0.0102 -0.0092 -0.0072 37.1868
#
#
#
# Elastic Compliance Matrix: (Units=1/GPa)
#
#
# Indices 1 2 3 4 5 6 
#
# 1 0.017981 -0.005032 -0.001202 -0.000001 -0.000009 0.000001
# 2 -0.005032 0.009823 -0.003414 -0.000015 0.000014 0.000009
# 3 -0.001202 -0.003414 0.021101 0.000004 -0.000040 0.000001
# 4 -0.000001 -0.000015 0.000004 0.033644 -0.000016 0.000008
# 5 -0.000009 0.000014 -0.000040 -0.000016 0.054311 0.000011
# 6 0.000001 0.000009 0.000001 0.000008 0.000011 0.026891
#
#
# Mechanical properties :
#
#
# Convention : Reuss Voigt Hill
#
# Bulk Modulus (GPa) = 33.77600 43.20493 38.49047
# Shear Modulus (GPa) = 25.91776 28.86432 27.39104
#
# Velocity S-wave (km/s) = 3.34270 3.52760 3.43639
# Velocity P-wave (km/s) = 5.42767 5.93451 5.68674
#
# Compressibility (1/GPa) = 0.02960682
#
# Stress axis : x y z
#
# Youngs Moduli (GPa) = 55.61456 101.80043 47.39222
#
# Poissons Ratio (x) = 0.51230 0.05697
# Poissons Ratio (y) = 0.27988 0.16181
# Poissons Ratio (z) = 0.06686 0.34757
#
# Static dielectric constant tensor:
#      x y z
#    x 4.076770 0.000010 0.000050 
#    y 0.000010 4.543930 -0.000070 
#    z 0.000050 -0.000070 4.000710 
# 
# 
# High freq. dielectric constant tensor:
#      x y z
#    x 1.917190 0.000000 0.000000 
#    y 0.000000 1.943050 0.000000 
#    z 0.000000 0.000000 1.881170 
# 
# From -- ./inp_files/3841.got.cif
#   From: 2010.06.25/outbox.cif.g09.slc.cpg/sg43_2_cif.got.tgz:3841.got - 2010.06.26 16:48:59.
