data_PCOD8187767
_publ_section_title
;
Structure prediction by ZEFSAII (Michael W. Deem and Ramdas Pophale) SiO2 
 PCOD8187767
Probable space group: F D D 2
;
_chemical_formula_sum "Si O2"
_cell_formula_units_Z 88
_cell_length_a 16.256309
_cell_length_b 25.034444
_cell_length_c 8.006052
_cell_angle_alpha 90.000000
_cell_angle_beta 90.000000
_cell_angle_gamma 90.000000
_cell_volume 3258.204227
_symmetry_space_group_name_H-M "F D D 2"
_symmetry_group_IT_number 43
_symmetry_cell_setting 'orthorhombic'
loop_
_space_group_symop_operation_xyz
x,y,z
-x,-y,z
1/4-x,1/4+y,1/4+z
1/4+x,1/4-y,1/4+z
x,1/2+y,1/2+z
-x,1/2-y,1/2+z
1/4-x,3/4+y,3/4+z
1/4+x,3/4-y,3/4+z
1/2+x,y,1/2+z
1/2-x,-y,1/2+z
3/4-x,1/4+y,3/4+z
3/4+x,1/4-y,3/4+z
1/2+x,1/2+y,z
1/2-x,1/2-y,z
3/4-x,3/4+y,1/4+z
3/4+x,3/4-y,1/4+z
loop_
_atom_site_type_symbol
_atom_site_label
_atom_site_fract_x
_atom_site_fract_y
_atom_site_fract_z
Si Si1 0.733313 0.468528 0.896890
Si Si2 0.114440 0.585446 0.051165
Si Si3 0.298898 0.913868 0.383536
Si Si4 0.250000 0.750000 0.177760
Si Si5 0.717834 0.367714 0.693596
Si Si6 0.393125 0.559448 0.157082
O O1 0.743729 0.529609 0.837643
O O2 0.701243 0.429104 0.751067
O O3 0.821636 0.446725 0.939799
O O4 0.666690 0.475816 0.044256
O O5 0.164311 0.607599 0.210667
O O6 0.037311 0.544530 0.054833
O O7 0.084111 0.641110 0.967176
O O8 0.386107 0.916960 0.484654
O O9 0.239673 0.873432 0.491646
O O10 0.318952 0.775797 0.057655
O O11 0.786688 0.336639 0.794781
#
# Coordination Sequence:
#
# PCOD8187767 Si02
#       6
#    16  16  16   8  16  16
#     4  11  25  47  75 106 148 205 251 313 401 456
#     4  11  28  46  75 110 153 203 258 321 395 468
#     4  12  27  46  74 106 152 195 252 326 386 473
#     4  12  28  48  82 114 160 208 278 318 400 476
#     4  11  25  48  73 111 150 196 257 323 395 464
#     4  11  25  47  77 109 149 205 256 328 381 472
#
# _framework density 27.008742000000002
#
# number of rings (size 3 to 8) (size 9 to 14) (size 15 to 20)
#    0.000    0.727    1.818    4.364   15.273    2.909 
#    0.000    0.000    0.000    0.000    0.000    0.000 
#    0.000    0.000    0.000    0.000    0.000    0.000 
#
# Total GULP energy -272599.994046 kJ/mol
# GULP energy per Si atom -12390.908820 kJ/mol
# Density = 2.694727 g / cm^3
# Si number density = 27.008742 Si / 1000 Ang^3
#
#
#
# Elastic Constant Matrix: (Units=GPa)
#
#
# Indices 1 2 3 4 5 6 
#
# 1 61.6285 36.9908 12.8534 0.0000 0.0000 0.0000
# 2 36.9908 122.3855 18.9438 0.0000 0.0000 0.0000
# 3 12.8534 18.9438 98.5405 -0.0001 0.0002 0.0000
# 4 0.0000 0.0000 -0.0001 44.8111 0.0000 0.0000
# 5 0.0000 0.0000 0.0002 0.0000 42.3761 0.0000
# 6 0.0000 0.0000 0.0000 0.0000 0.0000 62.5396
#
#
#
# Elastic Compliance Matrix: (Units=1/GPa)
#
#
# Indices 1 2 3 4 5 6 
#
# 1 0.020033 -0.005824 -0.001494 0.000000 0.000000 0.000000
# 2 -0.005824 0.010115 -0.001185 0.000000 0.000000 0.000000
# 3 -0.001494 -0.001185 0.010571 0.000000 0.000000 0.000000
# 4 0.000000 0.000000 0.000000 0.022316 0.000000 0.000000
# 5 0.000000 0.000000 0.000000 0.000000 0.023598 0.000000
# 6 0.000000 0.000000 0.000000 0.000000 0.000000 0.015990
#
#
# Mechanical properties :
#
#
# Convention : Reuss Voigt Hill
#
# Bulk Modulus (GPa) = 42.16874 46.68117 44.42495
# Shear Modulus (GPa) = 39.20595 44.19648 41.70121
#
# Velocity S-wave (km/s) = 3.81412 4.04960 3.93363
# Velocity P-wave (km/s) = 5.91976 6.25995 6.09223
#
# Compressibility (1/GPa) = 0.02371425
#
# Stress axis : x y z
#
# Youngs Moduli (GPa) = 49.91669 98.86745 94.60121
#
# Poissons Ratio (x) = 0.57579 0.14129
# Poissons Ratio (y) = 0.29071 0.11208
# Poissons Ratio (z) = 0.07455 0.11714
#
# Static dielectric constant tensor:
#      x y z
#    x 5.226130 0.000000 0.000000 
#    y 0.000000 5.032530 0.000000 
#    z 0.000000 0.000000 5.025120 
# 
# 
# High freq. dielectric constant tensor:
#      x y z
#    x 2.120690 0.000000 0.000000 
#    y 0.000000 2.088430 0.000000 
#    z 0.000000 0.000000 2.089780 
# 
# From -- ./inp_files/3230.got.cif
#   From: 2010.06.25/outbox.cif.g09.slc.cpg/sg43_2_cif.got.tgz:3230.got - 2010.06.26 16:48:59.
