data_PCOD8187783
_publ_section_title
;
Structure prediction by ZEFSAII (Michael W. Deem and Ramdas Pophale) SiO2 
 PCOD8187783
Probable space group: F D D 2
;
_chemical_formula_sum "Si O2"
_cell_formula_units_Z 40
_cell_length_a 7.616531
_cell_length_b 11.186568
_cell_length_c 18.296860
_cell_angle_alpha 90.000000
_cell_angle_beta 90.000000
_cell_angle_gamma 90.000000
_cell_volume 1558.944471
_symmetry_space_group_name_H-M "F D D 2"
_symmetry_group_IT_number 43
_symmetry_cell_setting 'orthorhombic'
loop_
_space_group_symop_operation_xyz
x,y,z
-x,-y,z
1/4-x,1/4+y,1/4+z
1/4+x,1/4-y,1/4+z
x,1/2+y,1/2+z
-x,1/2-y,1/2+z
1/4-x,3/4+y,3/4+z
1/4+x,3/4-y,3/4+z
1/2+x,y,1/2+z
1/2-x,-y,1/2+z
3/4-x,1/4+y,3/4+z
3/4+x,1/4-y,3/4+z
1/2+x,1/2+y,z
1/2-x,1/2-y,z
3/4-x,3/4+y,1/4+z
3/4+x,3/4-y,1/4+z
loop_
_atom_site_type_symbol
_atom_site_label
_atom_site_fract_x
_atom_site_fract_y
_atom_site_fract_z
Si Si1 0.308653 0.993645 0.190600
Si Si2 0.500000 0.000000 0.454843
Si Si3 0.590204 0.834912 0.784868
O O1 0.273857 0.128281 0.158195
O O2 0.500000 0.000000 0.229781
O O3 0.152739 0.961326 0.248172
O O4 0.316773 0.901530 0.122407
O O5 0.665865 0.975695 0.505942
O O6 0.750000 0.750000 0.763468
#
# Coordination Sequence:
#
# PCOD8187783 Si02
#       3
#    16   8  16
#     4  11  26  51  76 112 155 203 258 318 384 461
#     4  12  26  46  80 106 156 206 248 322 388 456
#     4  11  26  48  76 113 153 202 259 318 382 463
#
# _framework density 25.658386
#
# number of rings (size 3 to 8) (size 9 to 14) (size 15 to 20)
#    0.000    0.800    4.000    1.200    5.600    9.600 
#    0.000    0.000    0.000    0.000    0.000    0.000 
#    0.000    0.000    0.000    0.000    0.000    0.000 
#
# Total GULP energy -123899.218254 kJ/mol
# GULP energy per Si atom -12389.921825 kJ/mol
# Density = 2.559999 g / cm^3
# Si number density = 25.658386 Si / 1000 Ang^3
#
#
#
# Elastic Constant Matrix: (Units=GPa)
#
#
# Indices 1 2 3 4 5 6 
#
# 1 191.9958 18.6141 49.0847 0.0000 0.0000 0.0000
# 2 18.6141 151.7162 47.4211 0.0000 0.0000 0.0000
# 3 49.0847 47.4211 126.9404 0.0000 0.0000 0.0000
# 4 0.0000 0.0000 0.0000 27.5624 0.0000 0.0000
# 5 0.0000 0.0000 0.0000 0.0000 17.1463 0.0000
# 6 0.0000 0.0000 0.0000 0.0000 0.0000 35.3745
#
#
#
# Elastic Compliance Matrix: (Units=1/GPa)
#
#
# Indices 1 2 3 4 5 6 
#
# 1 0.005780 -0.000012 -0.002230 0.000000 0.000000 0.000000
# 2 -0.000012 0.007463 -0.002783 0.000000 0.000000 0.000000
# 3 -0.002230 -0.002783 0.009780 0.000000 0.000000 0.000000
# 4 0.000000 0.000000 0.000000 0.036281 0.000000 0.000000
# 5 0.000000 0.000000 0.000000 0.000000 0.058321 0.000000
# 6 0.000000 0.000000 0.000000 0.000000 0.000000 0.028269
#
#
# Mechanical properties :
#
#
# Convention : Reuss Voigt Hill
#
# Bulk Modulus (GPa) = 77.09417 77.87693 77.48555
# Shear Modulus (GPa) = 31.19752 39.71879 35.45816
#
# Velocity S-wave (km/s) = 3.49073 3.93871 3.72147
# Velocity P-wave (km/s) = 6.80871 7.14856 6.98071
#
# Compressibility (1/GPa) = 0.01297115
#
# Stress axis : x y z
#
# Youngs Moduli (GPa) = 173.01537 134.00062 102.25065
#
# Poissons Ratio (x) = 0.00160 0.22806
# Poissons Ratio (y) = 0.00207 0.28458
# Poissons Ratio (z) = 0.38590 0.37295
#
# Static dielectric constant tensor:
#      x y z
#    x 5.213970 0.000000 0.000000 
#    y 0.000000 4.995950 0.000000 
#    z 0.000000 0.000000 3.970250 
# 
# 
# High freq. dielectric constant tensor:
#      x y z
#    x 2.063160 0.000000 0.000000 
#    y 0.000000 2.036210 0.000000 
#    z 0.000000 0.000000 1.976930 
# 
# From -- ./inp_files/8752.got.cif
#   From: 2010.06.25/outbox.cif.g09.slc.cpg/sg43_5_cif.got.tgz:8752.got - 2010.06.26 16:48:59.
