data_PCOD8187567
_publ_section_title
;
Structure prediction by ZEFSAII (Michael W. Deem and Ramdas Pophale) SiO2 
 PCOD8187567
Probable space group: F D D 2
;
_chemical_formula_sum "Si O2"
_cell_formula_units_Z 112
_cell_length_a 12.826742
_cell_length_b 14.965802
_cell_length_c 26.899309
_cell_angle_alpha 90.000000
_cell_angle_beta 90.000000
_cell_angle_gamma 90.000000
_cell_volume 5163.658095
_symmetry_space_group_name_H-M "F D D 2"
_symmetry_group_IT_number 43
_symmetry_cell_setting 'orthorhombic'
loop_
_space_group_symop_operation_xyz
x,y,z
-x,-y,z
1/4-x,1/4+y,1/4+z
1/4+x,1/4-y,1/4+z
x,1/2+y,1/2+z
-x,1/2-y,1/2+z
1/4-x,3/4+y,3/4+z
1/4+x,3/4-y,3/4+z
1/2+x,y,1/2+z
1/2-x,-y,1/2+z
3/4-x,1/4+y,3/4+z
3/4+x,1/4-y,3/4+z
1/2+x,1/2+y,z
1/2-x,1/2-y,z
3/4-x,3/4+y,1/4+z
3/4+x,3/4-y,1/4+z
loop_
_atom_site_type_symbol
_atom_site_label
_atom_site_fract_x
_atom_site_fract_y
_atom_site_fract_z
Si Si1 0.925579 0.419217 0.191440
Si Si2 0.050714 0.597210 0.770091
Si Si3 0.922303 0.737189 0.204485
Si Si4 0.721438 0.843678 0.286893
Si Si5 0.105495 0.801950 0.329576
Si Si6 0.816097 0.369241 0.289893
Si Si7 0.388083 0.523138 0.849036
O O1 0.875922 0.445361 0.138506
O O2 0.838594 0.404345 0.234021
O O3 0.000000 0.500000 0.208906
O O4 0.986232 0.326488 0.185401
O O5 0.027256 0.675121 0.729982
O O6 0.176527 0.593488 0.777016
O O7 0.000000 0.500000 0.756101
O O8 0.994416 0.634948 0.819876
O O9 0.840761 0.678509 0.236262
O O10 0.859168 0.775843 0.158116
O O11 0.750000 0.750000 0.311814
O O12 0.644734 0.881962 0.327770
O O13 0.093604 0.698667 0.311128
O O14 0.200426 0.830576 0.293636
O O15 0.808265 0.451047 0.327811
O O16 0.500000 0.500000 0.826601
#
# Coordination Sequence:
#
# PCOD8187567 Si02
#       7
#    16  16  16  16  16  16  16
#     4  12  22  42  72 103 138 186 234 298 369 411
#     4  11  24  44  70  94 145 189 229 285 358 433
#     4  11  23  45  69  98 140 181 235 294 346 423
#     4  10  24  45  67  99 143 183 230 293 357 424
#     4  11  23  44  65  99 145 178 230 299 348 435
#     4  11  22  40  67 102 135 174 231 292 356 421
#     4  12  23  39  71 101 131 176 237 285 346 414
#
# _framework density 21.690049999999999
#
# number of rings (size 3 to 8) (size 9 to 14) (size 15 to 20)
#    0.000    0.857    4.286    4.286    2.000    0.571 
#    5.143    1.429    0.000    0.000    0.000    0.000 
#    0.000    0.000    0.000    0.000    0.000    0.000 
#
# Total GULP energy -347001.758698 kJ/mol
# GULP energy per Si atom -12392.919954 kJ/mol
# Density = 2.164068 g / cm^3
# Si number density = 21.690050 Si / 1000 Ang^3
#
#
#
# Elastic Constant Matrix: (Units=GPa)
#
#
# Indices 1 2 3 4 5 6 
#
# 1 71.2568 24.6835 44.1132 0.0000 0.0000 0.0000
# 2 24.6835 110.9018 46.9315 0.0000 0.0000 0.0000
# 3 44.1132 46.9315 153.5629 0.0000 0.0000 0.0000
# 4 0.0000 0.0000 0.0000 37.4913 0.0000 0.0000
# 5 0.0000 0.0000 0.0000 0.0000 27.6368 0.0000
# 6 0.0000 0.0000 0.0000 0.0000 0.0000 33.8776
#
#
#
# Elastic Compliance Matrix: (Units=1/GPa)
#
#
# Indices 1 2 3 4 5 6 
#
# 1 0.017457 -0.002025 -0.004396 0.000000 0.000000 0.000000
# 2 -0.002025 0.010591 -0.002655 0.000000 0.000000 0.000000
# 3 -0.004396 -0.002655 0.008586 0.000000 0.000000 0.000000
# 4 0.000000 0.000000 0.000000 0.026673 0.000000 0.000000
# 5 0.000000 0.000000 0.000000 0.000000 0.036184 0.000000
# 6 0.000000 0.000000 0.000000 0.000000 0.000000 0.029518
#
#
# Mechanical properties :
#
#
# Convention : Reuss Voigt Hill
#
# Bulk Modulus (GPa) = 54.10659 63.01978 58.56319
# Shear Modulus (GPa) = 32.61126 34.46736 33.53931
#
# Velocity S-wave (km/s) = 3.88172 3.99066 3.93657
# Velocity P-wave (km/s) = 6.71490 7.09588 6.90802
#
# Compressibility (1/GPa) = 0.01848204
#
# Stress axis : x y z
#
# Youngs Moduli (GPa) = 57.28516 94.41688 116.46610
#
# Poissons Ratio (x) = 0.19121 0.51195
# Poissons Ratio (y) = 0.11601 0.30924
# Poissons Ratio (z) = 0.25181 0.25069
#
# Static dielectric constant tensor:
#      x y z
#    x 3.927110 0.000000 0.000000 
#    y 0.000000 4.366590 0.000000 
#    z 0.000000 0.000000 3.760280 
# 
# 
# High freq. dielectric constant tensor:
#      x y z
#    x 1.846440 0.000000 0.000000 
#    y 0.000000 1.868510 0.000000 
#    z 0.000000 0.000000 1.842910 
# 
# From -- ./inp_files/25620.got.cif
#   From: 2010.06.25/outbox.cif.g09.slc.cpg/sg43_13_cif.got.tgz:25620.got - 2010.06.26 16:48:59.
