data_PCOD8187088
_publ_section_title
;
Structure prediction by ZEFSAII (Michael W. Deem and Ramdas Pophale) SiO2 
 PCOD8187088
Probable space group: F D D 2
;
_chemical_formula_sum "Si O2"
_cell_formula_units_Z 120
_cell_length_a 30.287663
_cell_length_b 7.722419
_cell_length_c 25.492528
_cell_angle_alpha 90.000000
_cell_angle_beta 90.000000
_cell_angle_gamma 90.000000
_cell_volume 5962.549961
_symmetry_space_group_name_H-M "F D D 2"
_symmetry_group_IT_number 43
_symmetry_cell_setting 'orthorhombic'
loop_
_space_group_symop_operation_xyz
x,y,z
-x,-y,z
1/4-x,1/4+y,1/4+z
1/4+x,1/4-y,1/4+z
x,1/2+y,1/2+z
-x,1/2-y,1/2+z
1/4-x,3/4+y,3/4+z
1/4+x,3/4-y,3/4+z
1/2+x,y,1/2+z
1/2-x,-y,1/2+z
3/4-x,1/4+y,3/4+z
3/4+x,1/4-y,3/4+z
1/2+x,1/2+y,z
1/2-x,1/2-y,z
3/4-x,3/4+y,1/4+z
3/4+x,3/4-y,1/4+z
loop_
_atom_site_type_symbol
_atom_site_label
_atom_site_fract_x
_atom_site_fract_y
_atom_site_fract_z
Si Si1 0.328657 0.433773 0.901510
Si Si2 0.014612 0.314853 0.659590
Si Si3 0.924904 0.156636 0.060201
Si Si4 0.411050 0.039775 0.043141
Si Si5 0.100551 0.671011 0.200394
Si Si6 0.715431 0.100130 0.695738
Si Si7 0.368499 0.501483 0.141470
Si Si8 0.250000 0.750000 0.230721
O O1 0.276047 0.430880 0.909735
O O2 0.338561 0.426050 0.839809
O O3 0.353209 0.272261 0.927726
O O4 0.348488 0.617012 0.921074
O O5 0.034116 0.342539 0.600929
O O6 0.050206 0.235327 0.699370
O O7 0.000000 0.500000 0.681928
O O8 0.903151 0.345287 0.062868
O O9 0.886215 0.027120 0.081424
O O10 0.941663 0.108641 0.001827
O O11 0.369380 0.093634 0.008388
O O12 0.458210 0.049836 0.015394
O O13 0.130691 0.811173 0.169598
O O14 0.750000 0.250000 0.681730
O O15 0.679986 0.082979 0.648217
O O16 0.740658 0.917821 0.695678
#
# Coordination Sequence:
#
# PCOD8187088 Si02
#       8
#    16  16  16  16  16  16  16   8
#     4  12  23  38  66  91 126 165 207 263 321 373
#     4  11  20  38  64  97 126 157 206 267 321 376
#     4  10  20  38  63  91 132 157 207 265 322 371
#     4  11  22  39  63  96 125 165 208 265 318 380
#     4  11  23  40  58  96 130 162 208 261 322 380
#     4  11  24  39  64  96 129 162 215 265 318 377
#     4  11  23  39  60  98 126 166 205 261 317 384
#     4  10  22  36  62  90 126 154 206 258 326 362
#
# _framework density 20.125616000000001
#
# number of rings (size 3 to 8) (size 9 to 14) (size 15 to 20)
#    0.000    1.067    8.000    2.400    3.733    0.000 
#    0.000    0.000    0.000    4.800    1.733    0.000 
#    0.000    0.000    0.000    0.000    0.000    0.000 
#
# Total GULP energy -371814.989995 kJ/mol
# GULP energy per Si atom -12393.833000 kJ/mol
# Density = 2.007981 g / cm^3
# Si number density = 20.125616 Si / 1000 Ang^3
#
#
#
# Elastic Constant Matrix: (Units=GPa)
#
#
# Indices 1 2 3 4 5 6 
#
# 1 123.2395 52.2155 53.3904 0.0004 0.0003 0.0004
# 2 52.2155 99.4676 25.0121 0.0018 0.0011 0.0016
# 3 53.3904 25.0121 36.2393 0.0000 0.0001 -0.0006
# 4 0.0004 0.0018 0.0000 15.8670 0.0007 0.0007
# 5 0.0003 0.0011 0.0001 0.0007 21.3958 0.0003
# 6 0.0004 0.0016 -0.0006 0.0007 0.0003 33.6685
#
#
#
# Elastic Compliance Matrix: (Units=1/GPa)
#
#
# Indices 1 2 3 4 5 6 
#
# 1 0.023976 -0.004482 -0.032230 0.000000 0.000000 -0.000001
# 2 -0.004482 0.013003 -0.002372 -0.000001 -0.000001 -0.000001
# 3 -0.032230 -0.002372 0.076714 0.000001 0.000000 0.000002
# 4 0.000000 -0.000001 0.000001 0.063024 -0.000002 -0.000001
# 5 0.000000 -0.000001 0.000000 -0.000002 0.046738 0.000000
# 6 -0.000001 -0.000001 0.000002 -0.000001 0.000000 0.029701
#
#
# Mechanical properties :
#
#
# Convention : Reuss Voigt Hill
#
# Bulk Modulus (GPa) = 28.14778 57.79805 42.97291
# Shear Modulus (GPa) = 14.57028 22.74149 18.65589
#
# Velocity S-wave (km/s) = 2.69358 3.36516 3.04792
# Velocity P-wave (km/s) = 4.86726 6.62420 5.81250
#
# Compressibility (1/GPa) = 0.03552679
#
# Stress axis : x y z
#
# Youngs Moduli (GPa) = 41.70872 76.90827 13.03538
#
# Poissons Ratio (x) = 0.34467 0.42013
# Poissons Ratio (y) = 0.18692 0.03091
# Poissons Ratio (z) = 1.34426 0.18239
#
# Static dielectric constant tensor:
#      x y z
#    x 3.700320 0.000000 0.000000 
#    y 0.000000 3.890310 0.000000 
#    z 0.000000 0.000000 3.411320 
# 
# 
# High freq. dielectric constant tensor:
#      x y z
#    x 1.781760 0.000000 0.000000 
#    y 0.000000 1.809130 0.000000 
#    z 0.000000 0.000000 1.740000 
# 
# From -- ./inp_files/26745.got.cif
#   From: 2010.06.25/outbox.cif.g09.slc.cpg/sg43_14_cif.got.tgz:26745.got - 2010.06.26 16:48:59.
