data_PCOD8187668
_publ_section_title
;
Structure prediction by ZEFSAII (Michael W. Deem and Ramdas Pophale) SiO2 
 PCOD8187668
Probable space group: F D D 2
;
_chemical_formula_sum "Si O2"
_cell_formula_units_Z 96
_cell_length_a 20.662500
_cell_length_b 14.984910
_cell_length_c 13.168728
_cell_angle_alpha 90.000000
_cell_angle_beta 90.000000
_cell_angle_gamma 90.000000
_cell_volume 4077.376663
_symmetry_space_group_name_H-M "F D D 2"
_symmetry_group_IT_number 43
_symmetry_cell_setting 'orthorhombic'
loop_
_space_group_symop_operation_xyz
x,y,z
-x,-y,z
1/4-x,1/4+y,1/4+z
1/4+x,1/4-y,1/4+z
x,1/2+y,1/2+z
-x,1/2-y,1/2+z
1/4-x,3/4+y,3/4+z
1/4+x,3/4-y,3/4+z
1/2+x,y,1/2+z
1/2-x,-y,1/2+z
3/4-x,1/4+y,3/4+z
3/4+x,1/4-y,3/4+z
1/2+x,1/2+y,z
1/2-x,1/2-y,z
3/4-x,3/4+y,1/4+z
3/4+x,3/4-y,1/4+z
loop_
_atom_site_type_symbol
_atom_site_label
_atom_site_fract_x
_atom_site_fract_y
_atom_site_fract_z
Si Si1 0.624032 0.440093 0.246190
Si Si2 0.996753 0.601700 0.621281
Si Si3 0.143736 0.913754 0.629759
Si Si4 0.536128 0.326427 0.912130
Si Si5 0.631064 0.963666 0.352882
Si Si6 0.074511 0.507753 0.954367
O O1 0.553668 0.402798 0.213439
O O2 0.660629 0.496543 0.156866
O O3 0.615976 0.494518 0.351192
O O4 0.666821 0.352404 0.259712
O O5 0.975813 0.667096 0.532146
O O6 0.000000 0.500000 0.580226
O O7 0.064430 0.648811 0.656332
O O8 0.218824 0.934564 0.599818
O O9 0.135750 0.972417 0.731175
O O10 0.124884 0.810847 0.655154
O O11 0.096431 0.936743 0.537993
O O12 0.562680 0.418386 0.870708
O O13 0.000000 0.500000 0.925580
#
# Coordination Sequence:
#
# PCOD8187668 Si02
#       6
#    16  16  16  16  16  16
#     4  12  26  47  73 111 147 201 248 322 382 463
#     4  11  22  43  70 110 143 184 254 307 381 443
#     4  11  27  48  71 107 148 199 252 308 383 458
#     4  11  24  45  73 106 145 194 251 308 379 450
#     4  11  24  44  77 107 147 194 251 314 374 457
#     4  12  30  48  75 107 157 198 256 308 395 461
#
# _framework density 23.544550999999998
#
# number of rings (size 3 to 8) (size 9 to 14) (size 15 to 20)
#    0.000    0.667    3.333    4.000    7.000    4.000 
#    0.000    0.000    0.000    0.000    0.000    0.000 
#    0.000    0.000    0.000    0.000    0.000    0.000 
#
# Total GULP energy -297387.938592 kJ/mol
# GULP energy per Si atom -12391.164108 kJ/mol
# Density = 2.349096 g / cm^3
# Si number density = 23.544551 Si / 1000 Ang^3
#
#
#
# Elastic Constant Matrix: (Units=GPa)
#
#
# Indices 1 2 3 4 5 6 
#
# 1 121.4819 38.1497 21.3270 0.0000 0.0000 0.0000
# 2 38.1497 105.5080 7.9732 0.0000 0.0000 0.0000
# 3 21.3270 7.9732 41.2724 0.0000 0.0000 0.0000
# 4 0.0000 0.0000 0.0000 41.0891 0.0000 0.0000
# 5 0.0000 0.0000 0.0000 0.0000 34.8401 0.0000
# 6 0.0000 0.0000 0.0000 0.0000 0.0000 37.8949
#
#
#
# Elastic Compliance Matrix: (Units=1/GPa)
#
#
# Indices 1 2 3 4 5 6 
#
# 1 0.010068 -0.003295 -0.004566 0.000000 0.000000 0.000000
# 2 -0.003295 0.010697 -0.000364 0.000000 0.000000 0.000000
# 3 -0.004566 -0.000364 0.026659 0.000000 0.000000 0.000000
# 4 0.000000 0.000000 0.000000 0.024337 0.000000 0.000000
# 5 0.000000 0.000000 0.000000 0.000000 0.028703 0.000000
# 6 0.000000 0.000000 0.000000 0.000000 0.000000 0.026389
#
#
# Mechanical properties :
#
#
# Convention : Reuss Voigt Hill
#
# Bulk Modulus (GPa) = 32.28509 44.79578 38.54043
# Shear Modulus (GPa) = 32.54628 36.15231 34.34930
#
# Velocity S-wave (km/s) = 3.72200 3.92278 3.82371
# Velocity P-wave (km/s) = 5.67566 6.29165 5.99158
#
# Compressibility (1/GPa) = 0.03097405
#
# Stress axis : x y z
#
# Youngs Moduli (GPa) = 99.32327 93.48424 37.51091
#
# Poissons Ratio (x) = 0.30807 0.17127
# Poissons Ratio (y) = 0.32731 0.01364
# Poissons Ratio (z) = 0.45351 0.03399
#
# Static dielectric constant tensor:
#      x y z
#    x 4.612930 0.000000 0.000000 
#    y 0.000000 2.091730 0.000000 
#    z 0.000000 0.000000 3.860720 
# 
# 
# High freq. dielectric constant tensor:
#      x y z
#    x 1.947640 0.000000 0.000000 
#    y 0.000000 1.935980 0.000000 
#    z 0.000000 0.000000 1.911130 
# 
# From -- ./inp_files/10066.got.cif
#   From: 2010.06.25/outbox.cif.g09.slc.cpg/sg43_6_cif.got.tgz:10066.got - 2010.06.26 16:48:59.
