data_PCOD8187449
_publ_section_title
;
Structure prediction by ZEFSAII (Michael W. Deem and Ramdas Pophale) SiO2 
 PCOD8187449
Probable space group: F D D 2
;
_chemical_formula_sum "Si O2"
_cell_formula_units_Z 96
_cell_length_a 18.557656
_cell_length_b 13.983056
_cell_length_c 16.653432
_cell_angle_alpha 90.000000
_cell_angle_beta 90.000000
_cell_angle_gamma 90.000000
_cell_volume 4321.444751
_symmetry_space_group_name_H-M "F D D 2"
_symmetry_group_IT_number 43
_symmetry_cell_setting 'orthorhombic'
loop_
_space_group_symop_operation_xyz
x,y,z
-x,-y,z
1/4-x,1/4+y,1/4+z
1/4+x,1/4-y,1/4+z
x,1/2+y,1/2+z
-x,1/2-y,1/2+z
1/4-x,3/4+y,3/4+z
1/4+x,3/4-y,3/4+z
1/2+x,y,1/2+z
1/2-x,-y,1/2+z
3/4-x,1/4+y,3/4+z
3/4+x,1/4-y,3/4+z
1/2+x,1/2+y,z
1/2-x,1/2-y,z
3/4-x,3/4+y,1/4+z
3/4+x,3/4-y,1/4+z
loop_
_atom_site_type_symbol
_atom_site_label
_atom_site_fract_x
_atom_site_fract_y
_atom_site_fract_z
Si Si1 0.253724 0.558827 0.415640
Si Si2 0.463006 0.777535 0.507118
Si Si3 0.250000 0.750000 0.058522
Si Si4 0.124091 0.041806 0.022046
Si Si5 0.617169 0.330651 0.959696
Si Si6 0.000000 0.500000 0.076573
Si Si7 0.339691 0.834760 0.193657
O O1 0.212683 0.488606 0.353674
O O2 0.206358 0.562226 0.496164
O O3 0.269518 0.663139 0.382511
O O4 0.335109 0.528546 0.432758
O O5 0.429124 0.879286 0.482870
O O6 0.546800 0.768136 0.481646
O O7 0.412828 0.697265 0.465446
O O8 0.289409 0.826670 0.115289
O O9 0.309777 0.698613 0.004591
O O10 0.118634 0.057933 0.116859
O O11 0.099015 0.939118 0.987831
O O12 0.933609 0.524181 0.020196
#
# Coordination Sequence:
#
# PCOD8187449 Si02
#       7
#    16  16   8  16  16   8  16
#     4  11  22  45  70 101 146 188 247 302 374 447
#     4  11  24  47  69 106 149 187 249 310 380 457
#     4  11  24  46  76 111 140 188 252 311 380 444
#     4  12  27  47  71 107 145 206 243 307 378 464
#     4  12  27  46  74 107 151 195 248 310 383 456
#     4   9  22  38  68 103 134 182 238 305 364 434
#     4  10  22  44  74 107 138 187 247 311 375 441
#
# _framework density 22.214791999999999
#
# number of rings (size 3 to 8) (size 9 to 14) (size 15 to 20)
#    0.000    1.000    3.333    2.500    2.333    5.333 
#    9.000    0.000    0.000    0.000    0.000    0.000 
#    0.000    0.000    0.000    0.000    0.000    0.000 
#
# Total GULP energy -297470.352198 kJ/mol
# GULP energy per Si atom -12394.598008 kJ/mol
# Density = 2.216423 g / cm^3
# Si number density = 22.214792 Si / 1000 Ang^3
#
#
#
# Elastic Constant Matrix: (Units=GPa)
#
#
# Indices 1 2 3 4 5 6 
#
# 1 114.2118 8.6578 21.0207 0.0000 0.0000 0.0000
# 2 8.6578 91.1997 19.3331 0.0000 0.0000 0.0000
# 3 21.0207 19.3331 105.8829 0.0000 0.0000 0.0000
# 4 0.0000 0.0000 0.0000 -140.8728 0.0000 0.0000
# 5 0.0000 0.0000 0.0000 0.0000 34.5307 0.0000
# 6 0.0000 0.0000 0.0000 0.0000 0.0000 31.6735
#
#
#
# Elastic Compliance Matrix: (Units=1/GPa)
#
#
# Indices 1 2 3 4 5 6 
#
# 1 0.009110 -0.000501 -0.001717 0.000000 0.000000 0.000000
# 2 -0.000501 0.011434 -0.001988 0.000000 0.000000 0.000000
# 3 -0.001717 -0.001988 0.010148 0.000000 0.000000 0.000000
# 4 0.000000 0.000000 0.000000 -0.007099 0.000000 0.000000
# 5 0.000000 0.000000 0.000000 0.000000 0.028960 0.000000
# 6 0.000000 0.000000 0.000000 0.000000 0.000000 0.031572
#
#
# Mechanical properties :
#
#
# Convention : Reuss Voigt Hill
#
# Bulk Modulus (GPa) = 44.88409 45.47971 45.18190
# Shear Modulus (GPa) = 50.01795 2.55181 26.28488
#
# Velocity S-wave (km/s) = 4.75021 1.07294 3.44352
# Velocity P-wave (km/s) = 7.09468 4.69596 6.01608
#
# Compressibility (1/GPa) = 0.02227961
#
# Stress axis : x y z
#
# Youngs Moduli (GPa) = 109.77359 87.45862 98.53839
#
# Poissons Ratio (x) = 0.04380 0.16920
# Poissons Ratio (y) = 0.05497 0.19592
# Poissons Ratio (z) = 0.18849 0.17389
#
# Static dielectric constant tensor:
#      x y z
#    x 4.322560 0.000000 0.000000 
#    y 0.000000 4.557920 0.000000 
#    z 0.000000 0.000000 4.093100 
# 
# 
# High freq. dielectric constant tensor:
#      x y z
#    x 1.884780 0.000000 0.000000 
#    y 0.000000 1.874940 0.000000 
#    z 0.000000 0.000000 1.881250 
# 
# From -- ./inp_files/10108.got.cif
#   From: 2010.06.25/outbox.cif.g09.slc.cpg/sg43_6_cif.got.tgz:10108.got - 2010.06.26 16:48:59.
