data_PCOD8187933
_publ_section_title
;
Structure prediction by ZEFSAII (Michael W. Deem and Ramdas Pophale) SiO2 
 PCOD8187933
Probable space group: I M M 2
;
_chemical_formula_sum "Si O2"
_cell_formula_units_Z 40
_cell_length_a 20.995810
_cell_length_b 8.857472
_cell_length_c 12.693806
_cell_angle_alpha 90.000000
_cell_angle_beta 90.000000
_cell_angle_gamma 90.000000
_cell_volume 2360.664553
_symmetry_space_group_name_H-M "I M M 2"
_symmetry_group_IT_number 44
_symmetry_cell_setting 'orthorhombic'
loop_
_space_group_symop_operation_xyz
x,y,z
-x,-y,z
-x,y,z
x,-y,z
1/2+x,1/2+y,1/2+z
1/2-x,1/2-y,1/2+z
1/2-x,1/2+y,1/2+z
1/2+x,1/2-y,1/2+z
loop_
_atom_site_type_symbol
_atom_site_label
_atom_site_fract_x
_atom_site_fract_y
_atom_site_fract_z
Si Si1 0.804711 0.677646 0.964530
Si Si2 0.342866 0.321355 0.260186
Si Si3 0.172949 0.675992 0.417140
Si Si4 0.705813 0.824204 0.692639
Si Si5 0.572374 0.176399 0.089444
O O1 0.813457 0.500000 0.948307
O O2 0.849305 0.762166 0.880253
O O3 0.730656 0.720383 0.954443
O O4 0.824743 0.733663 0.082800
O O5 0.344704 0.500000 0.262879
O O6 0.276327 0.255094 0.214034
O O7 0.401046 0.262292 0.190889
O O8 0.191683 0.500000 0.431949
O O9 0.159954 0.709599 0.292631
O O10 0.110685 0.719978 0.483500
O O11 0.717720 0.000000 0.678232
O O12 0.500000 0.227696 0.070852
O O13 0.577593 0.000000 0.112850
#
# Coordination Sequence:
#
# PCOD8187933 Si02
#       5
#     8   8   8   8   8
#     4  10  17  28  47  71  98 125 155 200 249 294
#     4  10  19  32  47  69  98 129 165 200 244 296
#     4   9  17  30  46  68  98 129 161 198 242 293
#     4   8  15  27  45  68  96 124 153 194 242 291
#     4  10  20  33  50  72  99 131 168 206 241 286
#
# _framework density 16.944382000000001
#
# number of rings (size 3 to 8) (size 9 to 14) (size 15 to 20)
#    0.000    2.600    2.000    2.400    0.000    0.400 
#    0.000    1.000    0.000    1.200    0.000    5.600 
#    0.000    0.000    0.000    0.000    0.000    0.000 
#
# Total GULP energy -247864.819328 kJ/mol
# GULP energy per Si atom -12393.240966 kJ/mol
# Density = 1.690582 g / cm^3
# Si number density = 16.944382 Si / 1000 Ang^3
#
#
#
# Elastic Constant Matrix: (Units=GPa)
#
#
# Indices 1 2 3 4 5 6 
#
# 1 75.5323 26.8985 57.0599 0.0000 0.0000 0.0000
# 2 26.8985 43.2025 37.3357 0.0000 0.0000 0.0000
# 3 57.0599 37.3357 170.6185 0.0000 0.0000 0.0000
# 4 0.0000 0.0000 0.0000 21.9415 0.0000 0.0000
# 5 0.0000 0.0000 0.0000 0.0000 24.7820 0.0000
# 6 0.0000 0.0000 0.0000 0.0000 0.0000 18.3472
#
#
#
# Elastic Compliance Matrix: (Units=1/GPa)
#
#
# Indices 1 2 3 4 5 6 
#
# 1 0.019794 -0.008143 -0.004838 0.000000 0.000000 0.000000
# 2 -0.008143 0.031895 -0.004256 0.000000 0.000000 0.000000
# 3 -0.004838 -0.004256 0.008410 0.000000 0.000000 0.000000
# 4 0.000000 0.000000 0.000000 0.045576 0.000000 0.000000
# 5 0.000000 0.000000 0.000000 0.000000 0.040352 0.000000
# 6 0.000000 0.000000 0.000000 0.000000 0.000000 0.054504
#
#
# Mechanical properties :
#
#
# Convention : Reuss Voigt Hill
#
# Bulk Modulus (GPa) = 39.02426 59.10461 49.06443
# Shear Modulus (GPa) = 20.52991 24.21808 22.37399
#
# Velocity S-wave (km/s) = 3.48459 3.78467 3.63772
# Velocity P-wave (km/s) = 6.26663 7.35225 6.83104
#
# Compressibility (1/GPa) = 0.02562509
#
# Stress axis : x y z
#
# Youngs Moduli (GPa) = 50.52051 31.35283 118.90243
#
# Poissons Ratio (x) = 0.25531 0.57522
# Poissons Ratio (y) = 0.41140 0.50606
# Poissons Ratio (z) = 0.24440 0.13344
#
# Static dielectric constant tensor:
#      x y z
#    x 2.850240 0.000000 0.000000 
#    y 0.000000 3.018750 0.000000 
#    z 0.000000 0.000000 3.704960 
# 
# 
# High freq. dielectric constant tensor:
#      x y z
#    x 1.600680 0.000000 0.000000 
#    y 0.000000 1.642450 0.000000 
#    z 0.000000 0.000000 1.675420 
# 
# From -- ./inp_files/10844.got.cif
#   From: 2010.03.12/outbox.cif.g09.slc.cpg/sg44_6_cif.got.tgz:10844.got - 2010.04.14 02:36:11.
