data_PCOD8187722
_publ_section_title
;
Structure prediction by ZEFSAII (Michael W. Deem and Ramdas Pophale) SiO2 
 PCOD8187722
Probable space group: F D D 2
;
_chemical_formula_sum "Si O2"
_cell_formula_units_Z 88
_cell_length_a 12.449863
_cell_length_b 24.191284
_cell_length_c 12.931766
_cell_angle_alpha 90.000000
_cell_angle_beta 90.000000
_cell_angle_gamma 90.000000
_cell_volume 3894.765639
_symmetry_space_group_name_H-M "F D D 2"
_symmetry_group_IT_number 43
_symmetry_cell_setting 'orthorhombic'
loop_
_space_group_symop_operation_xyz
x,y,z
-x,-y,z
1/4-x,1/4+y,1/4+z
1/4+x,1/4-y,1/4+z
x,1/2+y,1/2+z
-x,1/2-y,1/2+z
1/4-x,3/4+y,3/4+z
1/4+x,3/4-y,3/4+z
1/2+x,y,1/2+z
1/2-x,-y,1/2+z
3/4-x,1/4+y,3/4+z
3/4+x,1/4-y,3/4+z
1/2+x,1/2+y,z
1/2-x,1/2-y,z
3/4-x,3/4+y,1/4+z
3/4+x,3/4-y,1/4+z
loop_
_atom_site_type_symbol
_atom_site_label
_atom_site_fract_x
_atom_site_fract_y
_atom_site_fract_z
Si Si1 0.925812 0.318323 0.415810
Si Si2 0.878711 0.688144 0.176422
Si Si3 0.372781 0.246023 0.386899
Si Si4 0.250000 0.250000 0.024552
Si Si5 0.573084 0.664694 0.536482
Si Si6 0.044556 0.438687 0.971012
O O1 0.896548 0.376629 0.470863
O O2 0.849221 0.269675 0.455687
O O3 0.901439 0.320973 0.291945
O O4 0.051412 0.302779 0.435554
O O5 0.876958 0.736006 0.263893
O O6 0.783034 0.698710 0.095865
O O7 0.987186 0.693495 0.111726
O O8 0.250000 0.250000 0.426450
O O9 0.422615 0.303991 0.425866
O O10 0.548921 0.600650 0.516054
O O11 0.682521 0.670702 0.602747
O O12 0.000000 0.500000 0.975665
#
# Coordination Sequence:
#
# PCOD8187722 Si02
#       6
#    16  16  16   8  16  16
#     4  11  24  41  76 105 138 183 246 290 365 432
#     4  11  24  43  71 105 140 183 240 300 352 432
#     4  12  25  48  67 105 149 186 238 304 369 438
#     4  12  22  44  72 102 134 186 232 294 346 418
#     4  11  26  45  73 104 145 190 248 296 367 435
#     4  11  25  45  74 109 144 189 246 307 365 439
#
# _framework density 22.594428000000001
#
# number of rings (size 3 to 8) (size 9 to 14) (size 15 to 20)
#    0.000    0.727    5.455    1.636   10.182    0.000 
#    6.545    0.000    0.000    0.000    0.000    0.000 
#    0.000    0.000    0.000    0.000    0.000    0.000 
#
# Total GULP energy -272627.000502 kJ/mol
# GULP energy per Si atom -12392.136386 kJ/mol
# Density = 2.254300 g / cm^3
# Si number density = 22.594428 Si / 1000 Ang^3
#
#
#
# Elastic Constant Matrix: (Units=GPa)
#
#
# Indices 1 2 3 4 5 6 
#
# 1 110.6757 49.9963 40.2239 0.0000 0.0000 0.0000
# 2 49.9963 142.4311 67.5072 0.0000 0.0000 0.0000
# 3 40.2239 67.5072 111.8445 0.0000 0.0000 0.0000
# 4 0.0000 0.0000 0.0000 34.4544 0.0000 0.0000
# 5 0.0000 0.0000 0.0000 0.0000 28.7658 0.0000
# 6 0.0000 0.0000 0.0000 0.0000 0.0000 35.3504
#
#
#
# Elastic Compliance Matrix: (Units=1/GPa)
#
#
# Indices 1 2 3 4 5 6 
#
# 1 0.011148 -0.002819 -0.002307 0.000000 0.000000 0.000000
# 2 -0.002819 0.010547 -0.005352 0.000000 0.000000 0.000000
# 3 -0.002307 -0.005352 0.013001 0.000000 0.000000 0.000000
# 4 0.000000 0.000000 0.000000 0.029024 0.000000 0.000000
# 5 0.000000 0.000000 0.000000 0.000000 0.034764 0.000000
# 6 0.000000 0.000000 0.000000 0.000000 0.000000 0.028288
#
#
# Mechanical properties :
#
#
# Convention : Reuss Voigt Hill
#
# Bulk Modulus (GPa) = 72.78947 75.60068 74.19507
# Shear Modulus (GPa) = 32.82792 33.52906 33.17849
#
# Velocity S-wave (km/s) = 3.81586 3.85639 3.83618
# Velocity P-wave (km/s) = 7.19027 7.30490 7.24781
#
# Compressibility (1/GPa) = 0.01373825
#
# Stress axis : x y z
#
# Youngs Moduli (GPa) = 89.70507 94.81046 76.91539
#
# Poissons Ratio (x) = 0.26731 0.17747
# Poissons Ratio (y) = 0.25292 0.41167
# Poissons Ratio (z) = 0.20699 0.50744
#
# Static dielectric constant tensor:
#      x y z
#    x 4.072500 0.000000 0.000000 
#    y 0.000000 3.889320 0.000000 
#    z 0.000000 0.000000 4.068760 
# 
# 
# High freq. dielectric constant tensor:
#      x y z
#    x 1.888940 0.000000 0.000000 
#    y 0.000000 1.883410 0.000000 
#    z 0.000000 0.000000 1.885030 
# 
# From -- ./inp_files/9579.got.cif
#   From: 2010.06.25/outbox.cif.g09.slc.cpg/sg43_5_cif.got.tgz:9579.got - 2010.06.26 16:48:59.
