data_PCOD8187716
_publ_section_title
;
Structure prediction by ZEFSAII (Michael W. Deem and Ramdas Pophale) SiO2 
 PCOD8187716
Probable space group: F D D 2
;
_chemical_formula_sum "Si O2"
_cell_formula_units_Z 96
_cell_length_a 23.617839
_cell_length_b 17.503389
_cell_length_c 9.270877
_cell_angle_alpha 90.000000
_cell_angle_beta 90.000000
_cell_angle_gamma 90.000000
_cell_volume 3832.508455
_symmetry_space_group_name_H-M "F D D 2"
_symmetry_group_IT_number 43
_symmetry_cell_setting 'orthorhombic'
loop_
_space_group_symop_operation_xyz
x,y,z
-x,-y,z
1/4-x,1/4+y,1/4+z
1/4+x,1/4-y,1/4+z
x,1/2+y,1/2+z
-x,1/2-y,1/2+z
1/4-x,3/4+y,3/4+z
1/4+x,3/4-y,3/4+z
1/2+x,y,1/2+z
1/2-x,-y,1/2+z
3/4-x,1/4+y,3/4+z
3/4+x,1/4-y,3/4+z
1/2+x,1/2+y,z
1/2-x,1/2-y,z
3/4-x,3/4+y,1/4+z
3/4+x,3/4-y,1/4+z
loop_
_atom_site_type_symbol
_atom_site_label
_atom_site_fract_x
_atom_site_fract_y
_atom_site_fract_z
Si Si1 0.250000 0.250000 0.983230
Si Si2 0.441588 0.142554 0.636562
Si Si3 0.345896 0.842056 0.602153
Si Si4 0.581727 0.071096 0.005093
Si Si5 0.273358 0.030851 0.702439
Si Si6 0.750000 0.250000 0.032180
Si Si7 0.564793 0.774807 0.159651
O O1 0.197998 0.288692 0.897287
O O2 0.281367 0.312611 0.080225
O O3 0.396568 0.109021 0.521258
O O4 0.400799 0.185301 0.754725
O O5 0.477454 0.201753 0.540830
O O6 0.482474 0.075726 0.693856
O O7 0.395400 0.782518 0.570454
O O8 0.353785 0.916249 0.499959
O O9 0.573858 0.162384 0.990498
O O10 0.554567 0.023944 0.873525
O O11 0.271702 0.016706 0.528686
O O12 0.217718 0.069345 0.778705
#
# Coordination Sequence:
#
# PCOD8187716 Si02
#       7
#     8  16  16  16  16   8  16
#     4  11  25  46  66 102 145 183 238 296 362 431
#     4  11  24  42  74 104 138 186 239 296 355 435
#     4  11  25  44  69 104 139 187 237 294 360 429
#     4  11  23  45  69 100 144 181 237 296 363 430
#     4  11  23  45  72 106 142 184 237 297 357 433
#     4  11  25  42  74 106 141 193 244 298 360 439
#     4  11  25  44  74 102 143 188 239 295 360 433
#
# _framework density 25.048869
#
# number of rings (size 3 to 8) (size 9 to 14) (size 15 to 20)
#    0.000    1.000    3.333    2.500    2.333    5.333 
#    3.000    0.000    0.000    0.000    0.000    0.000 
#    0.000    0.000    0.000    0.000    0.000    0.000 
#
# Total GULP energy -297345.121165 kJ/mol
# GULP energy per Si atom -12389.380049 kJ/mol
# Density = 2.499186 g / cm^3
# Si number density = 25.048869 Si / 1000 Ang^3
#
#
#
# Elastic Constant Matrix: (Units=GPa)
#
#
# Indices 1 2 3 4 5 6 
#
# 1 62.0027 -12.5784 37.7917 0.0000 0.0000 0.0000
# 2 -12.5784 81.5895 20.4006 -0.0002 0.0000 0.0000
# 3 37.7917 20.4006 92.9233 -0.0004 0.0000 0.0000
# 4 0.0000 -0.0002 -0.0004 -194.0259 0.0000 -0.0001
# 5 0.0000 0.0000 0.0000 0.0000 33.6401 0.0000
# 6 0.0000 0.0000 0.0000 -0.0001 0.0000 40.6774
#
#
#
# Elastic Compliance Matrix: (Units=1/GPa)
#
#
# Indices 1 2 3 4 5 6 
#
# 1 0.024401 0.006606 -0.011374 0.000000 0.000000 0.000000
# 2 0.006606 0.014757 -0.005926 0.000000 0.000000 0.000000
# 3 -0.011374 -0.005926 0.016689 0.000000 0.000000 0.000000
# 4 0.000000 0.000000 0.000000 -0.005154 0.000000 0.000000
# 5 0.000000 0.000000 0.000000 0.000000 0.029726 0.000000
# 6 0.000000 0.000000 0.000000 0.000000 0.000000 0.024584
#
#
# Mechanical properties :
#
#
# Convention : Reuss Voigt Hill
#
# Bulk Modulus (GPa) = 29.02161 36.41595 32.71878
# Shear Modulus (GPa) = 36.26406 -11.21492 12.52457
#
# Velocity S-wave (km/s) = 3.80904 -2.11824 2.23851
# Velocity P-wave (km/s) = 5.56383 2.93035 4.44652
#
# Compressibility (1/GPa) = 0.03445708
#
# Stress axis : x y z
#
# Youngs Moduli (GPa) = 40.98159 67.76593 59.92149
#
# Poissons Ratio (x) = -0.44765 0.68156
# Poissons Ratio (y) = -0.27072 0.35511
# Poissons Ratio (z) = 0.46613 0.40160
#
# Static dielectric constant tensor:
#      x y z
#    x 4.144580 0.000000 0.000000 
#    y 0.000000 6.087710 0.000000 
#    z 0.000000 0.000000 4.688750 
# 
# 
# High freq. dielectric constant tensor:
#      x y z
#    x 1.993480 0.000000 0.000000 
#    y 0.000000 2.003340 0.000000 
#    z 0.000000 0.000000 2.003850 
# 
# From -- ./inp_files/4219.got.cif
#   From: 2010.06.25/outbox.cif.g09.slc.cpg/sg43_3_cif.got.tgz:4219.got - 2010.06.26 16:48:59.
