data_PCOD8187997
_publ_section_title
;
Structure prediction by ZEFSAII (Michael W. Deem and Ramdas Pophale) SiO2 
 PCOD8187997
Probable space group: I M M 2
;
_chemical_formula_sum "Si O2"
_cell_formula_units_Z 64
_cell_length_a 8.893612
_cell_length_b 26.746591
_cell_length_c 18.318293
_cell_angle_alpha 90.000000
_cell_angle_beta 90.000000
_cell_angle_gamma 90.000000
_cell_volume 4357.442014
_symmetry_space_group_name_H-M "I M M 2"
_symmetry_group_IT_number 44
_symmetry_cell_setting 'orthorhombic'
loop_
_space_group_symop_operation_xyz
x,y,z
-x,-y,z
-x,y,z
x,-y,z
1/2+x,1/2+y,1/2+z
1/2-x,1/2-y,1/2+z
1/2-x,1/2+y,1/2+z
1/2+x,1/2-y,1/2+z
loop_
_atom_site_type_symbol
_atom_site_label
_atom_site_fract_x
_atom_site_fract_y
_atom_site_fract_z
Si Si1 0.676162 0.354632 0.645570
Si Si2 0.674042 0.149112 0.818251
Si Si3 0.826302 0.442416 0.563748
Si Si4 0.328469 0.787534 0.691304
Si Si5 0.321138 0.945466 0.897939
Si Si6 0.677103 0.249200 0.896239
Si Si7 0.175749 0.300464 0.770094
Si Si8 0.828639 0.240190 0.047471
O O1 0.500000 0.354487 0.658931
O O2 0.726738 0.408075 0.615717
O O3 0.754394 0.346420 0.724290
O O4 0.720871 0.310797 0.588356
O O5 0.500000 0.143737 0.837158
O O6 0.700062 0.158738 0.730961
O O7 0.749981 0.097186 0.844842
O O8 0.736706 0.196363 0.863853
O O9 0.800094 0.500000 0.585819
O O10 0.773505 0.433146 0.480685
O O11 0.000000 0.427479 0.573152
O O12 0.500000 0.769686 0.710803
O O13 0.209781 0.749566 0.725077
O O14 0.310299 0.787275 0.603797
O O15 0.500000 0.947816 0.893300
O O16 0.256515 0.000000 0.874762
O O17 0.500000 0.254451 0.888474
O O18 0.752402 0.294738 0.850969
O O19 0.720841 0.252046 0.980626
O O20 0.000000 0.309282 0.778759
O O21 0.000000 0.235985 0.019794
#
# Coordination Sequence:
#
# PCOD8187997 Si02
#       8
#     8   8   8   8   8   8   8   8
#     4  10  19  30  43  59  82 110 140 171 203 242
#     4   8  13  22  36  52  73 104 134 159 195 236
#     4   9  17  28  41  59  83 109 140 177 210 239
#     4   8  15  27  39  54  79 106 133 166 201 238
#     4   8  13  21  35  57  82 105 134 172 204 230
#     4  10  18  27  40  57  78 104 134 166 200 242
#     4  10  18  28  42  58  78 103 132 165 202 243
#     4   9  17  27  38  55  79 105 133 167 203 239
#
# _framework density 14.687517
#
# number of rings (size 3 to 8) (size 9 to 14) (size 15 to 20)
#    0.000    3.000    0.000    4.875    0.000    3.750 
#    0.000    0.000    0.000    0.000    0.000    0.000 
#    0.000    1.000    0.000    7.500    0.000    1.750 
#
# Total GULP energy -396493.950395 kJ/mol
# GULP energy per Si atom -12390.435950 kJ/mol
# Density = 1.465409 g / cm^3
# Si number density = 14.687517 Si / 1000 Ang^3
#
#
#
# Elastic Constant Matrix: (Units=GPa)
#
#
# Indices 1 2 3 4 5 6 
#
# 1 55.9004 23.1937 34.7613 0.0001 0.0000 0.0000
# 2 23.1937 82.3417 51.6267 0.0000 0.0000 0.0000
# 3 34.7613 51.6267 94.9907 0.0001 0.0000 0.0000
# 4 0.0001 0.0000 0.0001 26.9321 0.0000 0.0000
# 5 0.0000 0.0000 0.0000 0.0000 21.9136 0.0000
# 6 0.0000 0.0000 0.0000 0.0000 0.0000 15.2554
#
#
#
# Elastic Compliance Matrix: (Units=1/GPa)
#
#
# Indices 1 2 3 4 5 6 
#
# 1 0.023343 -0.001850 -0.007537 0.000000 0.000000 0.000000
# 2 -0.001850 0.018569 -0.009415 0.000000 0.000000 0.000000
# 3 -0.007537 -0.009415 0.018402 0.000000 0.000000 0.000000
# 4 0.000000 0.000000 0.000000 0.037130 0.000000 0.000000
# 5 0.000000 0.000000 0.000000 0.000000 0.045634 0.000000
# 6 0.000000 0.000000 0.000000 0.000000 0.000000 0.065551
#
#
# Mechanical properties :
#
#
# Convention : Reuss Voigt Hill
#
# Bulk Modulus (GPa) = 44.03177 50.26625 47.14901
# Shear Modulus (GPa) = 19.70034 21.06362 20.38198
#
# Velocity S-wave (km/s) = 3.66635 3.79108 3.72924
# Velocity P-wave (km/s) = 6.92582 7.31171 7.12138
#
# Compressibility (1/GPa) = 0.02271088
#
# Stress axis : x y z
#
# Youngs Moduli (GPa) = 42.83894 53.85458 54.34060
#
# Poissons Ratio (x) = 0.09961 0.40957
# Poissons Ratio (y) = 0.07924 0.51162
# Poissons Ratio (z) = 0.32288 0.50704
#
# Static dielectric constant tensor:
#      x y z
#    x 2.646460 0.000000 0.000000 
#    y 0.000000 2.892680 0.000000 
#    z 0.000000 0.000000 2.938330 
# 
# 
# High freq. dielectric constant tensor:
#      x y z
#    x 1.548600 0.000000 0.000000 
#    y 0.000000 1.530020 0.000000 
#    z 0.000000 0.000000 1.552060 
# 
# From -- ./inp_files/20903.got.cif
#   From: 2010.03.12/outbox.cif.g09.slc.cpg/sg44_11_cif.got.tgz:20903.got - 2010.04.14 02:36:11.
