data_PCOD8187344
_publ_section_title
;
Structure prediction by ZEFSAII (Michael W. Deem and Ramdas Pophale) SiO2 
 PCOD8187344
Probable space group: F D D 2
;
_chemical_formula_sum "Si O2"
_cell_formula_units_Z 112
_cell_length_a 13.544652
_cell_length_b 14.656137
_cell_length_c 25.850194
_cell_angle_alpha 90.000000
_cell_angle_beta 90.000000
_cell_angle_gamma 90.000000
_cell_volume 5131.580829
_symmetry_space_group_name_H-M "F D D 2"
_symmetry_group_IT_number 43
_symmetry_cell_setting 'orthorhombic'
loop_
_space_group_symop_operation_xyz
x,y,z
-x,-y,z
1/4-x,1/4+y,1/4+z
1/4+x,1/4-y,1/4+z
x,1/2+y,1/2+z
-x,1/2-y,1/2+z
1/4-x,3/4+y,3/4+z
1/4+x,3/4-y,3/4+z
1/2+x,y,1/2+z
1/2-x,-y,1/2+z
3/4-x,1/4+y,3/4+z
3/4+x,1/4-y,3/4+z
1/2+x,1/2+y,z
1/2-x,1/2-y,z
3/4-x,3/4+y,1/4+z
3/4+x,3/4-y,1/4+z
loop_
_atom_site_type_symbol
_atom_site_label
_atom_site_fract_x
_atom_site_fract_y
_atom_site_fract_z
Si Si1 0.044594 0.875985 0.176520
Si Si2 0.554521 0.159533 0.173875
Si Si3 0.159906 0.398547 0.336586
Si Si4 0.141746 0.381321 0.220807
Si Si5 0.750000 0.750000 0.146814
Si Si6 0.554990 0.694273 0.563833
Si Si7 0.750000 0.250000 0.018032
Si Si8 0.998944 0.677360 0.956040
O O1 0.038982 0.767335 0.178614
O O2 0.156095 0.916032 0.168096
O O3 0.977283 0.908572 0.127443
O O4 0.996597 0.912404 0.229854
O O5 0.472943 0.100979 0.205208
O O6 0.558651 0.128289 0.113523
O O7 0.662662 0.140912 0.193993
O O8 0.145542 0.348640 0.280961
O O9 0.211456 0.492543 0.322403
O O10 0.054213 0.424270 0.361531
O O11 0.171590 0.298405 0.183938
O O12 0.211309 0.468124 0.208415
O O13 0.655855 0.752570 0.556065
O O14 0.537978 0.639394 0.511165
#
# Coordination Sequence:
#
# PCOD8187344 Si02
#       8
#    16  16  16  16   8  16   8  16
#     4  10  22  42  64  99 133 173 216 288 327 403
#     4  11  22  42  69  96 131 174 225 270 338 402
#     4  10  24  40  68  91 135 175 215 274 339 387
#     4  11  25  43  69  97 131 183 218 276 340 407
#     4  12  24  47  64 100 138 171 228 282 334 408
#     4   9  21  40  64  92 126 175 203 270 338 385
#     4  10  22  39  68  92 132 167 220 264 344 396
#     4  10  23  41  69  95 134 171 223 275 337 397
#
# _framework density 21.825633
#
# number of rings (size 3 to 8) (size 9 to 14) (size 15 to 20)
#    0.000    1.714    2.857    0.857   14.000    0.571 
#    0.000   10.000    0.000    0.000    0.000    0.000 
#    0.000    0.000    0.000    0.000    0.000    0.000 
#
# Total GULP energy -346969.787318 kJ/mol
# GULP energy per Si atom -12391.778119 kJ/mol
# Density = 2.177596 g / cm^3
# Si number density = 21.825633 Si / 1000 Ang^3
#
#
#
# Elastic Constant Matrix: (Units=GPa)
#
#
# Indices 1 2 3 4 5 6 
#
# 1 148.4762 8.6515 64.6577 0.0000 0.0000 0.0000
# 2 8.6515 44.7563 17.5129 0.0000 0.0000 0.0000
# 3 64.6577 17.5129 135.1062 0.0000 0.0000 0.0000
# 4 0.0000 0.0000 0.0000 19.4765 0.0000 0.0000
# 5 0.0000 0.0000 0.0000 0.0000 -52.9236 0.0000
# 6 0.0000 0.0000 0.0000 0.0000 0.0000 34.8849
#
#
#
# Elastic Compliance Matrix: (Units=1/GPa)
#
#
# Indices 1 2 3 4 5 6 
#
# 1 0.008508 -0.000054 -0.004065 0.000000 0.000000 0.000000
# 2 -0.000054 0.023537 -0.003025 0.000000 0.000000 0.000000
# 3 -0.004065 -0.003025 0.009739 0.000000 0.000000 0.000000
# 4 0.000000 0.000000 0.000000 0.051344 0.000000 0.000000
# 5 0.000000 0.000000 0.000000 0.000000 -0.018895 0.000000
# 6 0.000000 0.000000 0.000000 0.000000 0.000000 0.028666
#
#
# Mechanical properties :
#
#
# Convention : Reuss Voigt Hill
#
# Bulk Modulus (GPa) = 36.36808 56.66477 46.51642
# Shear Modulus (GPa) = 39.57173 16.12200 27.84686
#
# Velocity S-wave (km/s) = 4.26265 2.72080 3.57582
# Velocity P-wave (km/s) = 6.39735 5.99076 6.19739
#
# Compressibility (1/GPa) = 0.02749664
#
# Stress axis : x y z
#
# Youngs Moduli (GPa) = 117.53129 42.48564 102.67985
#
# Poissons Ratio (x) = 0.00230 0.41738
# Poissons Ratio (y) = 0.00636 0.31061
# Poissons Ratio (z) = 0.47774 0.12852
#
# Static dielectric constant tensor:
#      x y z
#    x 4.397340 0.000000 0.000000 
#    y 0.000000 3.397190 0.000000 
#    z 0.000000 0.000000 4.648280 
# 
# 
# High freq. dielectric constant tensor:
#      x y z
#    x 1.878030 0.000000 0.000000 
#    y 0.000000 1.816600 0.000000 
#    z 0.000000 0.000000 1.870160 
# 
# From -- ./inp_files/21775.got.cif
#   From: 2010.06.25/outbox.cif.g09.slc.cpg/sg43_11_cif.got.tgz:21775.got - 2010.06.26 16:48:59.
