data_PCOD8187345
_publ_section_title
;
Structure prediction by ZEFSAII (Michael W. Deem and Ramdas Pophale) SiO2 
 PCOD8187345
Probable space group: F D D 2
;
_chemical_formula_sum "Si O2"
_cell_formula_units_Z 72
_cell_length_a 10.842586
_cell_length_b 14.200951
_cell_length_c 17.727286
_cell_angle_alpha 90.000000
_cell_angle_beta 90.000000
_cell_angle_gamma 90.000000
_cell_volume 2729.559438
_symmetry_space_group_name_H-M "F D D 2"
_symmetry_group_IT_number 43
_symmetry_cell_setting 'orthorhombic'
loop_
_space_group_symop_operation_xyz
x,y,z
-x,-y,z
1/4-x,1/4+y,1/4+z
1/4+x,1/4-y,1/4+z
x,1/2+y,1/2+z
-x,1/2-y,1/2+z
1/4-x,3/4+y,3/4+z
1/4+x,3/4-y,3/4+z
1/2+x,y,1/2+z
1/2-x,-y,1/2+z
3/4-x,1/4+y,3/4+z
3/4+x,1/4-y,3/4+z
1/2+x,1/2+y,z
1/2-x,1/2-y,z
3/4-x,3/4+y,1/4+z
3/4+x,3/4-y,1/4+z
loop_
_atom_site_type_symbol
_atom_site_label
_atom_site_fract_x
_atom_site_fract_y
_atom_site_fract_z
Si Si1 0.848651 0.168915 0.146360
Si Si2 0.692219 0.347739 0.467632
Si Si3 0.515670 0.814272 0.078727
Si Si4 0.500000 0.000000 0.413120
Si Si5 0.289239 0.048135 0.512517
O O1 0.750000 0.250000 0.165433
O O2 0.797691 0.079280 0.099947
O O3 0.946917 0.215467 0.086768
O O4 0.926372 0.143293 0.222473
O O5 0.750000 0.250000 0.494427
O O6 0.692634 0.356459 0.376741
O O7 0.544604 0.346157 0.491874
O O8 0.761986 0.436211 0.505461
O O9 0.656805 0.811885 0.111942
O O10 0.583295 0.932700 0.467448
#
# Coordination Sequence:
#
# PCOD8187345 Si02
#       5
#    16  16  16   8  16
#     4  10  24  46  66 105 145 192 240 308 366 439
#     4  10  22  41  67 105 139 191 233 298 360 436
#     4  10  22  39  70  97 144 181 244 299 357 435
#     4   8  18  38  64 102 134 178 242 294 354 422
#     4  10  24  42  74 102 149 186 248 302 368 439
#
# _framework density 26.377883000000001
#
# number of rings (size 3 to 8) (size 9 to 14) (size 15 to 20)
#    0.000    2.667    1.111    0.000    6.222    7.111 
#    6.000    1.111    0.000    0.000    0.000    0.000 
#    0.000    0.000    0.000    0.000    0.000    0.000 
#
# Total GULP energy -222997.507255 kJ/mol
# GULP energy per Si atom -12388.750403 kJ/mol
# Density = 2.631785 g / cm^3
# Si number density = 26.377883 Si / 1000 Ang^3
#
#
#
# Elastic Constant Matrix: (Units=GPa)
#
#
# Indices 1 2 3 4 5 6 
#
# 1 129.9643 4.3711 16.9021 0.0000 0.0000 0.0000
# 2 4.3711 104.3356 26.6172 0.0000 0.0000 0.0000
# 3 16.9021 26.6172 128.5737 0.0000 0.0000 0.0000
# 4 0.0000 0.0000 0.0000 28.6100 0.0000 0.0000
# 5 0.0000 0.0000 0.0000 0.0000 14.2021 0.0000
# 6 0.0000 0.0000 0.0000 0.0000 0.0000 13.4285
#
#
#
# Elastic Compliance Matrix: (Units=1/GPa)
#
#
# Indices 1 2 3 4 5 6 
#
# 1 0.007829 -0.000069 -0.001015 0.000000 0.000000 0.000000
# 2 -0.000069 0.010119 -0.002086 0.000000 0.000000 0.000000
# 3 -0.001015 -0.002086 0.008343 0.000000 0.000000 0.000000
# 4 0.000000 0.000000 0.000000 0.034953 0.000000 0.000000
# 5 0.000000 0.000000 0.000000 0.000000 0.070412 0.000000
# 6 0.000000 0.000000 0.000000 0.000000 0.000000 0.074468
#
#
# Mechanical properties :
#
#
# Convention : Reuss Voigt Hill
#
# Bulk Modulus (GPa) = 50.12153 50.96162 50.54157
# Shear Modulus (GPa) = 22.81914 32.24701 27.53308
#
# Velocity S-wave (km/s) = 2.94443 3.50022 3.23429
# Velocity P-wave (km/s) = 5.53192 5.97471 5.75757
#
# Compressibility (1/GPa) = 0.01995151
#
# Stress axis : x y z
#
# Youngs Moduli (GPa) = 127.73470 98.81932 119.86294
#
# Poissons Ratio (x) = 0.00683 0.12164
# Poissons Ratio (y) = 0.00882 0.25002
# Poissons Ratio (z) = 0.12963 0.20612
#
# Static dielectric constant tensor:
#      x y z
#    x 5.669140 0.000000 0.000000 
#    y 0.000000 4.275180 0.000000 
#    z 0.000000 0.000000 5.240970 
# 
# 
# High freq. dielectric constant tensor:
#      x y z
#    x 2.092820 0.000000 0.000000 
#    y 0.000000 2.012740 0.000000 
#    z 0.000000 0.000000 2.074550 
# 
# From -- ./inp_files/16936.got.cif
#   From: 2010.06.25/outbox.cif.g09.slc.cpg/sg43_9_cif.got.tgz:16936.got - 2010.06.26 16:48:59.
