data_PCOD8187116
_publ_section_title
;
Structure prediction by ZEFSAII (Michael W. Deem and Ramdas Pophale) SiO2 
 PCOD8187116
Probable space group: F D D 2
;
_chemical_formula_sum "Si O2"
_cell_formula_units_Z 112
_cell_length_a 20.031795
_cell_length_b 16.806277
_cell_length_c 16.763335
_cell_angle_alpha 90.000000
_cell_angle_beta 90.000000
_cell_angle_gamma 90.000000
_cell_volume 5643.542611
_symmetry_space_group_name_H-M "F D D 2"
_symmetry_group_IT_number 43
_symmetry_cell_setting 'orthorhombic'
loop_
_space_group_symop_operation_xyz
x,y,z
-x,-y,z
1/4-x,1/4+y,1/4+z
1/4+x,1/4-y,1/4+z
x,1/2+y,1/2+z
-x,1/2-y,1/2+z
1/4-x,3/4+y,3/4+z
1/4+x,3/4-y,3/4+z
1/2+x,y,1/2+z
1/2-x,-y,1/2+z
3/4-x,1/4+y,3/4+z
3/4+x,1/4-y,3/4+z
1/2+x,1/2+y,z
1/2-x,1/2-y,z
3/4-x,3/4+y,1/4+z
3/4+x,3/4-y,1/4+z
loop_
_atom_site_type_symbol
_atom_site_label
_atom_site_fract_x
_atom_site_fract_y
_atom_site_fract_z
Si Si1 0.681243 0.720210 0.888010
Si Si2 0.250018 0.923655 0.990215
Si Si3 0.001860 0.809897 0.625757
Si Si4 0.646758 0.856272 0.781863
Si Si5 0.698800 0.955136 0.233682
Si Si6 0.182820 0.971179 0.142666
Si Si7 0.447652 0.434175 0.097973
O O1 0.750000 0.750000 0.929363
O O2 0.690361 0.626349 0.877350
O O3 0.670765 0.765560 0.802159
O O4 0.619149 0.738319 0.945401
O O5 0.317224 0.889565 0.029909
O O6 0.227484 0.866526 0.920082
O O7 0.259270 0.013755 0.958423
O O8 0.195231 0.927879 0.058911
O O9 0.031481 0.751098 0.561858
O O10 0.927887 0.841735 0.604034
O O11 0.674970 0.895058 0.700902
O O12 0.687038 0.865161 0.265655
O O13 0.757874 0.968494 0.169116
O O14 0.118627 0.026258 0.133224
O O15 0.500000 0.500000 0.071869
#
# Coordination Sequence:
#
# PCOD8187116 Si02
#       7
#    16  16  16  16  16  16  16
#     4  10  20  40  62  91 122 160 208 259 316 373
#     4  11  22  42  64  91 127 170 206 268 328 383
#     4   9  22  39  62  89 127 162 208 264 314 378
#     4  10  21  40  62  95 123 162 212 265 319 386
#     4  10  22  42  62  88 125 164 206 260 314 376
#     4  11  23  41  66  93 124 167 214 259 325 387
#     4  11  24  41  64  91 129 162 213 262 313 385
#
# _framework density 19.845690999999999
#
# number of rings (size 3 to 8) (size 9 to 14) (size 15 to 20)
#    0.000    1.714    2.857    0.857    2.000    3.429 
#    7.714    0.000    0.000    0.000    0.000    0.000 
#    0.000    0.000    0.000    0.000    0.000    0.000 
#
# Total GULP energy -346969.203240 kJ/mol
# GULP energy per Si atom -12391.757259 kJ/mol
# Density = 1.980052 g / cm^3
# Si number density = 19.845691 Si / 1000 Ang^3
#
#
#
# Elastic Constant Matrix: (Units=GPa)
#
#
# Indices 1 2 3 4 5 6 
#
# 1 139.3843 39.7441 30.7343 0.0000 0.0000 0.0000
# 2 39.7441 95.0821 40.0633 0.0000 0.0000 0.0000
# 3 30.7343 40.0633 71.1615 0.0000 0.0000 0.0000
# 4 0.0000 0.0000 0.0000 32.5903 0.0000 0.0000
# 5 0.0000 0.0000 0.0000 0.0000 13.1375 0.0000
# 6 0.0000 0.0000 0.0000 0.0000 0.0000 28.7945
#
#
#
# Elastic Compliance Matrix: (Units=1/GPa)
#
#
# Indices 1 2 3 4 5 6 
#
# 1 0.008392 -0.002596 -0.002162 0.000000 0.000000 0.000000
# 2 -0.002596 0.014591 -0.007093 0.000000 0.000000 0.000000
# 3 -0.002162 -0.007093 0.018980 0.000000 0.000000 0.000000
# 4 0.000000 0.000000 0.000000 0.030684 0.000000 0.000000
# 5 0.000000 0.000000 0.000000 0.000000 0.076118 0.000000
# 6 0.000000 0.000000 0.000000 0.000000 0.000000 0.034729
#
#
# Mechanical properties :
#
#
# Convention : Reuss Voigt Hill
#
# Bulk Modulus (GPa) = 54.76976 58.52347 56.64661
# Shear Modulus (GPa) = 23.44281 27.91019 25.67650
#
# Velocity S-wave (km/s) = 3.44067 3.75422 3.60086
# Velocity P-wave (km/s) = 6.59105 6.95309 6.77449
#
# Compressibility (1/GPa) = 0.01825825
#
# Stress axis : x y z
#
# Youngs Moduli (GPa) = 119.16666 68.53354 52.68690
#
# Poissons Ratio (x) = 0.17795 0.11394
# Poissons Ratio (y) = 0.30942 0.37373
# Poissons Ratio (z) = 0.25770 0.48614
#
# Static dielectric constant tensor:
#      x y z
#    x 3.701760 0.000000 0.000000 
#    y 0.000000 3.995210 0.000000 
#    z 0.000000 0.000000 3.574110 
# 
# 
# High freq. dielectric constant tensor:
#      x y z
#    x 1.782920 0.000000 0.000000 
#    y 0.000000 1.779200 0.000000 
#    z 0.000000 0.000000 1.765280 
# 
# From -- ./inp_files/14636.got.cif
#   From: 2010.06.25/outbox.cif.g09.slc.cpg/sg43_8_cif.got.tgz:14636.got - 2010.06.26 16:48:59.
