data_PCOD8187079
_publ_section_title
;
Structure prediction by ZEFSAII (Michael W. Deem and Ramdas Pophale) SiO2 
 PCOD8187079
Probable space group: F D D 2
;
_chemical_formula_sum "Si O2"
_cell_formula_units_Z 120
_cell_length_a 20.906100
_cell_length_b 11.336512
_cell_length_c 25.654509
_cell_angle_alpha 90.000000
_cell_angle_beta 90.000000
_cell_angle_gamma 90.000000
_cell_volume 6080.176446
_symmetry_space_group_name_H-M "F D D 2"
_symmetry_group_IT_number 43
_symmetry_cell_setting 'orthorhombic'
loop_
_space_group_symop_operation_xyz
x,y,z
-x,-y,z
1/4-x,1/4+y,1/4+z
1/4+x,1/4-y,1/4+z
x,1/2+y,1/2+z
-x,1/2-y,1/2+z
1/4-x,3/4+y,3/4+z
1/4+x,3/4-y,3/4+z
1/2+x,y,1/2+z
1/2-x,-y,1/2+z
3/4-x,1/4+y,3/4+z
3/4+x,1/4-y,3/4+z
1/2+x,1/2+y,z
1/2-x,1/2-y,z
3/4-x,3/4+y,1/4+z
3/4+x,3/4-y,1/4+z
loop_
_atom_site_type_symbol
_atom_site_label
_atom_site_fract_x
_atom_site_fract_y
_atom_site_fract_z
Si Si1 0.000000 0.500000 0.625000
Si Si2 0.473916 0.128664 0.171983
Si Si3 0.926158 0.722493 0.799519
Si Si4 0.576075 0.831082 0.686982
Si Si5 0.425255 0.787898 0.584063
Si Si6 0.207902 0.638576 0.539279
Si Si7 0.053065 0.901909 0.510878
Si Si8 0.436010 0.558022 0.394269
O O1 0.945005 0.547249 0.662372
O O2 0.973233 0.395213 0.590961
O O3 0.533937 0.214524 0.178509
O O4 0.424537 0.192701 0.132117
O O5 0.439160 0.114911 0.227952
O O6 0.500000 0.000000 0.152390
O O7 0.920053 0.639604 0.748482
O O8 0.871953 0.820554 0.787958
O O9 0.908575 0.648116 0.851184
O O10 0.997939 0.776269 0.805292
O O11 0.641953 0.803191 0.658002
O O12 0.356190 0.846554 0.573310
O O13 0.461257 0.724170 0.536038
O O14 0.250000 0.750000 0.552359
O O15 0.054790 0.875629 0.449371
O O16 0.000000 0.000000 0.524953
O O17 0.500000 0.500000 0.371423
#
# Coordination Sequence:
#
# PCOD8187079 Si02
#       8
#     8  16  16  16  16  16  16  16
#     4  10  24  40  58  84 124 162 200 236 288 382
#     4   9  20  36  64  87 110 157 206 245 287 350
#     4  10  21  38  64  86 117 156 194 252 303 344
#     4   9  21  40  58  88 115 153 203 239 286 366
#     4  11  22  38  61  85 122 157 197 246 302 348
#     4  10  20  38  58  91 120 148 198 249 292 357
#     4  10  22  39  60  91 117 149 205 250 291 353
#     4  10  23  38  59  89 118 152 193 252 304 346
#
# _framework density 19.736269
#
# number of rings (size 3 to 8) (size 9 to 14) (size 15 to 20)
#    0.000    2.133    1.333    0.400   10.267    0.000 
#    0.000    1.333    0.000    0.000    0.000    0.000 
#    0.000    0.000    0.000    0.000    0.000    0.000 
#
# Total GULP energy -371719.303491 kJ/mol
# GULP energy per Si atom -12390.643450 kJ/mol
# Density = 1.969135 g / cm^3
# Si number density = 19.736269 Si / 1000 Ang^3
#
#
#
# Elastic Constant Matrix: (Units=GPa)
#
#
# Indices 1 2 3 4 5 6 
#
# 1 83.5367 25.8528 43.6558 0.0000 0.0000 0.0000
# 2 25.8528 94.1307 55.8270 0.0000 0.0000 0.0000
# 3 43.6558 55.8270 122.3973 0.0000 0.0000 0.0000
# 4 0.0000 0.0000 0.0000 13.0645 0.0000 0.0000
# 5 0.0000 0.0000 0.0000 0.0000 35.5032 0.0000
# 6 0.0000 0.0000 0.0000 0.0000 0.0000 16.6941
#
#
#
# Elastic Compliance Matrix: (Units=1/GPa)
#
#
# Indices 1 2 3 4 5 6 
#
# 1 0.014825 -0.001283 -0.004703 0.000000 0.000000 0.000000
# 2 -0.001283 0.014674 -0.006235 0.000000 0.000000 0.000000
# 3 -0.004703 -0.006235 0.012692 0.000000 0.000000 0.000000
# 4 0.000000 0.000000 0.000000 0.076543 0.000000 0.000000
# 5 0.000000 0.000000 0.000000 0.000000 0.028167 0.000000
# 6 0.000000 0.000000 0.000000 0.000000 0.000000 0.059901
#
#
# Mechanical properties :
#
#
# Convention : Reuss Voigt Hill
#
# Bulk Modulus (GPa) = 56.34103 61.19287 58.76695
# Shear Modulus (GPa) = 21.08278 24.70096 22.89187
#
# Velocity S-wave (km/s) = 3.27192 3.54157 3.40941
# Velocity P-wave (km/s) = 6.54850 6.91348 6.73346
#
# Compressibility (1/GPa) = 0.01774905
#
# Stress axis : x y z
#
# Youngs Moduli (GPa) = 67.45191 68.14808 78.79261
#
# Poissons Ratio (x) = 0.08741 0.37054
# Poissons Ratio (y) = 0.08652 0.49131
# Poissons Ratio (z) = 0.31721 0.42494
#
# Static dielectric constant tensor:
#      x y z
#    x 3.585500 0.000000 0.000000 
#    y 0.000000 4.158740 0.000000 
#    z 0.000000 0.000000 3.806590 
# 
# 
# High freq. dielectric constant tensor:
#      x y z
#    x 1.763370 0.000000 0.000000 
#    y 0.000000 1.759600 0.000000 
#    z 0.000000 0.000000 1.773520 
# 
# From -- ./inp_files/25260.got.cif
#   From: 2010.06.25/outbox.cif.g09.slc.cpg/sg43_13_cif.got.tgz:25260.got - 2010.06.26 16:48:59.
