data_PCOD8187105
_publ_section_title
;
Structure prediction by ZEFSAII (Michael W. Deem and Ramdas Pophale) SiO2 
 PCOD8187105
Probable space group: F D D 2
;
_chemical_formula_sum "Si O2"
_cell_formula_units_Z 96
_cell_length_a 19.734595
_cell_length_b 7.665185
_cell_length_c 32.617721
_cell_angle_alpha 90.000000
_cell_angle_beta 90.000000
_cell_angle_gamma 90.000000
_cell_volume 4934.060527
_symmetry_space_group_name_H-M "F D D 2"
_symmetry_group_IT_number 43
_symmetry_cell_setting 'orthorhombic'
loop_
_space_group_symop_operation_xyz
x,y,z
-x,-y,z
1/4-x,1/4+y,1/4+z
1/4+x,1/4-y,1/4+z
x,1/2+y,1/2+z
-x,1/2-y,1/2+z
1/4-x,3/4+y,3/4+z
1/4+x,3/4-y,3/4+z
1/2+x,y,1/2+z
1/2-x,-y,1/2+z
3/4-x,1/4+y,3/4+z
3/4+x,1/4-y,3/4+z
1/2+x,1/2+y,z
1/2-x,1/2-y,z
3/4-x,3/4+y,1/4+z
3/4+x,3/4-y,1/4+z
loop_
_atom_site_type_symbol
_atom_site_label
_atom_site_fract_x
_atom_site_fract_y
_atom_site_fract_z
Si Si1 0.250000 0.250000 0.173311
Si Si2 0.250000 0.750000 0.356099
Si Si3 0.462761 0.840718 0.704159
Si Si4 0.610015 0.276282 0.888855
Si Si5 0.887550 0.322180 0.478696
Si Si6 0.910935 0.320449 0.163547
Si Si7 0.550860 0.158502 0.565366
O O1 0.284469 0.395628 0.143859
O O2 0.304629 0.160562 0.202054
O O3 0.319453 0.729556 0.382976
O O4 0.241713 0.576175 0.329328
O O5 0.430465 0.692218 0.733033
O O6 0.516195 0.767377 0.671528
O O7 0.500000 0.000000 0.729157
O O8 0.401467 0.918864 0.678619
O O9 0.642448 0.347518 0.847285
O O10 0.609912 0.064163 0.890765
O O11 0.869648 0.140709 0.456129
O O12 0.912204 0.281841 0.524011
O O13 0.500000 0.000000 0.556590
#
# Coordination Sequence:
#
# PCOD8187105 Si02
#       7
#     8   8  16  16  16  16  16
#     4  10  22  40  57  86 126 168 200 254 319 386
#     4  12  20  38  69  92 116 162 234 250 309 392
#     4   9  17  36  64  87 111 163 212 250 297 385
#     4  10  20  39  66  88 124 167 213 257 314 384
#     4  11  22  37  60  92 132 155 207 272 325 363
#     4  11  19  37  68  92 114 167 225 258 297 397
#     4  12  23  41  63  94 127 166 207 280 322 375
#
# _framework density 19.456593000000002
#
# number of rings (size 3 to 8) (size 9 to 14) (size 15 to 20)
#    0.000    1.333    5.833    1.500    0.000    2.000 
#    6.000    0.000    3.667    0.000    0.000    0.000 
#    0.000    0.000    0.000    0.000    0.000    0.000 
#
# Total GULP energy -297489.586344 kJ/mol
# GULP energy per Si atom -12395.399431 kJ/mol
# Density = 1.941231 g / cm^3
# Si number density = 19.456593 Si / 1000 Ang^3
#
#
#
# Elastic Constant Matrix: (Units=GPa)
#
#
# Indices 1 2 3 4 5 6 
#
# 1 78.5337 40.1615 27.7263 0.0000 0.0000 0.0000
# 2 40.1615 121.7175 43.4046 0.0000 0.0000 0.0000
# 3 27.7263 43.4046 100.2381 0.0000 0.0000 0.0000
# 4 0.0000 0.0000 0.0000 21.1593 0.0000 0.0000
# 5 0.0000 0.0000 0.0000 0.0000 24.6250 0.0000
# 6 0.0000 0.0000 0.0000 0.0000 0.0000 33.4756
#
#
#
# Elastic Compliance Matrix: (Units=1/GPa)
#
#
# Indices 1 2 3 4 5 6 
#
# 1 0.015832 -0.004331 -0.002504 0.000000 0.000000 0.000000
# 2 -0.004331 0.010901 -0.003522 0.000000 0.000000 0.000000
# 3 -0.002504 -0.003522 0.012194 0.000000 0.000000 0.000000
# 4 0.000000 0.000000 0.000000 0.047261 0.000000 0.000000
# 5 0.000000 0.000000 0.000000 0.000000 0.040609 0.000000
# 6 0.000000 0.000000 0.000000 0.000000 0.000000 0.029873
#
#
# Mechanical properties :
#
#
# Convention : Reuss Voigt Hill
#
# Bulk Modulus (GPa) = 54.90651 58.11933 56.51292
# Shear Modulus (GPa) = 27.25472 28.46511 27.85991
#
# Velocity S-wave (km/s) = 3.74678 3.82908 3.78815
# Velocity P-wave (km/s) = 6.85559 7.03457 6.94566
#
# Compressibility (1/GPa) = 0.01821278
#
# Stress axis : x y z
#
# Youngs Moduli (GPa) = 63.16225 91.73594 82.00755
#
# Poissons Ratio (x) = 0.39732 0.20533
# Poissons Ratio (y) = 0.27356 0.28885
# Poissons Ratio (z) = 0.15815 0.32312
#
# Static dielectric constant tensor:
#      x y z
#    x 4.115490 0.000000 0.000000 
#    y 0.000000 4.043670 0.000000 
#    z 0.000000 0.000000 3.278520 
# 
# 
# High freq. dielectric constant tensor:
#      x y z
#    x 1.750860 0.000000 0.000000 
#    y 0.000000 1.774250 0.000000 
#    z 0.000000 0.000000 1.725500 
# 
# From -- ./inp_files/26324.got.cif
#   From: 2010.06.25/outbox.cif.g09.slc.cpg/sg43_14_cif.got.tgz:26324.got - 2010.06.26 16:48:59.
