data_PCOD8187513
_publ_section_title
;
Structure prediction by ZEFSAII (Michael W. Deem and Ramdas Pophale) SiO2 
 PCOD8187513
Probable space group: F D D 2
;
_chemical_formula_sum "Si O2"
_cell_formula_units_Z 120
_cell_length_a 17.334966
_cell_length_b 13.531036
_cell_length_c 21.905008
_cell_angle_alpha 90.000000
_cell_angle_beta 90.000000
_cell_angle_gamma 90.000000
_cell_volume 5138.039750
_symmetry_space_group_name_H-M "F D D 2"
_symmetry_group_IT_number 43
_symmetry_cell_setting 'orthorhombic'
loop_
_space_group_symop_operation_xyz
x,y,z
-x,-y,z
1/4-x,1/4+y,1/4+z
1/4+x,1/4-y,1/4+z
x,1/2+y,1/2+z
-x,1/2-y,1/2+z
1/4-x,3/4+y,3/4+z
1/4+x,3/4-y,3/4+z
1/2+x,y,1/2+z
1/2-x,-y,1/2+z
3/4-x,1/4+y,3/4+z
3/4+x,1/4-y,3/4+z
1/2+x,1/2+y,z
1/2-x,1/2-y,z
3/4-x,3/4+y,1/4+z
3/4+x,3/4-y,1/4+z
loop_
_atom_site_type_symbol
_atom_site_label
_atom_site_fract_x
_atom_site_fract_y
_atom_site_fract_z
Si Si1 0.250000 0.250000 0.631440
Si Si2 0.362307 0.794960 0.555691
Si Si3 0.584997 0.290872 0.172898
Si Si4 0.844511 0.092979 0.600922
Si Si5 0.275251 0.360395 0.942810
Si Si6 0.540742 0.896926 0.425088
Si Si7 0.843270 0.382815 0.046587
Si Si8 0.289872 0.460651 0.294058
O O1 0.322086 0.221177 0.673614
O O2 0.225391 0.158960 0.588062
O O3 0.323315 0.684200 0.554465
O O4 0.317593 0.866983 0.508789
O O5 0.357922 0.838545 0.624574
O O6 0.449275 0.783217 0.532615
O O7 0.545966 0.185040 0.187137
O O8 0.563070 0.365718 0.226991
O O9 0.557823 0.340994 0.109268
O O10 0.915263 0.138190 0.639351
O O11 0.772320 0.072670 0.645648
O O12 0.866367 0.993644 0.565861
O O13 0.250000 0.250000 0.929164
O O14 0.576062 0.850288 0.487132
O O15 0.500000 0.000000 0.442001
O O16 0.920706 0.317811 0.050658
#
# Coordination Sequence:
#
# PCOD8187513 Si02
#       8
#     8  16  16  16  16  16  16  16
#     4  10  26  50  64 104 148 180 252 292 350 444
#     4  11  23  43  72 107 144 178 242 310 363 431
#     4  11  25  47  68 103 141 195 242 294 365 435
#     4  11  23  42  71 105 144 181 243 305 363 429
#     4  12  22  40  71 105 140 183 239 302 359 435
#     4  10  23  46  69 105 140 191 239 303 366 419
#     4  11  26  45  71 102 147 197 234 298 371 441
#     4  11  24  45  67 110 140 186 245 288 364 445
#
# _framework density 23.355211000000001
#
# number of rings (size 3 to 8) (size 9 to 14) (size 15 to 20)
#    0.000    1.067    2.667    4.400    1.867    4.267 
#    3.600    0.000    0.000    0.000    0.000    0.000 
#    0.000    0.000    0.000    0.000    0.000    0.000 
#
# Total GULP energy -371980.775401 kJ/mol
# GULP energy per Si atom -12399.359180 kJ/mol
# Density = 2.330205 g / cm^3
# Si number density = 23.355211 Si / 1000 Ang^3
#
#
#
# Elastic Constant Matrix: (Units=GPa)
#
#
# Indices 1 2 3 4 5 6 
#
# 1 110.4032 35.3105 23.8305 0.0000 0.0000 0.0000
# 2 35.3105 74.2358 52.2954 0.0000 0.0000 0.0000
# 3 23.8305 52.2954 138.9352 0.0000 0.0000 0.0000
# 4 0.0000 0.0000 0.0000 42.0366 0.0000 0.0000
# 5 0.0000 0.0000 0.0000 0.0000 33.1407 0.0000
# 6 0.0000 0.0000 0.0000 0.0000 0.0000 28.3536
#
#
#
# Elastic Compliance Matrix: (Units=1/GPa)
#
#
# Indices 1 2 3 4 5 6 
#
# 1 0.010684 -0.005159 0.000109 0.000000 0.000000 0.000000
# 2 -0.005159 0.020822 -0.006953 0.000000 0.000000 0.000000
# 3 0.000109 -0.006953 0.009796 0.000000 0.000000 0.000000
# 4 0.000000 0.000000 0.000000 0.023789 0.000000 0.000000
# 5 0.000000 0.000000 0.000000 0.000000 0.030174 0.000000
# 6 0.000000 0.000000 0.000000 0.000000 0.000000 0.035269
#
#
# Mechanical properties :
#
#
# Convention : Reuss Voigt Hill
#
# Bulk Modulus (GPa) = 57.81146 60.71632 59.26389
# Shear Modulus (GPa) = 31.19060 34.84871 33.01966
#
# Velocity S-wave (km/s) = 3.65840 3.86698 3.76414
# Velocity P-wave (km/s) = 6.53085 6.78170 6.65746
#
# Compressibility (1/GPa) = 0.01729761
#
# Stress axis : x y z
#
# Youngs Moduli (GPa) = 93.59705 48.02558 102.08407
#
# Poissons Ratio (x) = 0.24776 -0.01115
# Poissons Ratio (y) = 0.48286 0.70976
# Poissons Ratio (z) = -0.01023 0.33391
#
# Static dielectric constant tensor:
#      x y z
#    x 4.144120 0.000000 0.000000 
#    y 0.000000 3.883900 0.000000 
#    z 0.000000 0.000000 4.669010 
# 
# 
# High freq. dielectric constant tensor:
#      x y z
#    x 1.920980 0.000000 0.000000 
#    y 0.000000 1.897610 0.000000 
#    z 0.000000 0.000000 1.945280 
# 
# From -- ./inp_files/22152.got.cif
#   From: 2010.06.25/outbox.cif.g09.slc.cpg/sg43_12_cif.got.tgz:22152.got - 2010.06.26 16:48:59.
