data_PCOD8187982
_publ_section_title
;
Structure prediction by ZEFSAII (Michael W. Deem and Ramdas Pophale) SiO2 
 PCOD8187982
Probable space group: I M M 2
;
_chemical_formula_sum "Si O2"
_cell_formula_units_Z 48
_cell_length_a 8.779169
_cell_length_b 17.680384
_cell_length_c 18.379549
_cell_angle_alpha 90.000000
_cell_angle_beta 90.000000
_cell_angle_gamma 90.000000
_cell_volume 2852.856670
_symmetry_space_group_name_H-M "I M M 2"
_symmetry_group_IT_number 44
_symmetry_cell_setting 'orthorhombic'
loop_
_space_group_symop_operation_xyz
x,y,z
-x,-y,z
-x,y,z
x,-y,z
1/2+x,1/2+y,1/2+z
1/2-x,1/2-y,1/2+z
1/2-x,1/2+y,1/2+z
1/2+x,1/2-y,1/2+z
loop_
_atom_site_type_symbol
_atom_site_label
_atom_site_fract_x
_atom_site_fract_y
_atom_site_fract_z
Si Si1 0.321342 0.000000 0.027650
Si Si2 0.826413 0.802364 0.521087
Si Si3 0.325106 0.500000 0.681915
Si Si4 0.176264 0.854777 0.279211
Si Si5 0.679240 0.651384 0.520379
Si Si6 0.679704 0.085876 0.421553
Si Si7 0.174827 0.711383 0.653312
O O1 0.285658 0.000000 0.113351
O O2 0.248364 0.073758 0.988297
O O3 0.500000 0.000000 0.014396
O O4 0.756593 0.725773 0.483887
O O5 0.731649 0.876009 0.497429
O O6 0.815449 0.791892 0.609593
O O7 0.000000 0.811516 0.495304
O O8 0.500000 0.500000 0.654005
O O9 0.289558 0.570393 0.733762
O O10 0.250355 0.862973 0.358059
O O11 0.255800 0.785290 0.234724
O O12 0.000000 0.836637 0.289558
O O13 0.500000 0.653990 0.508175
O O14 0.722561 0.651444 0.606864
O O15 0.500000 0.086509 0.415629
O O16 0.742305 0.000000 0.418806
O O17 0.000000 0.683392 0.655376
#
# Coordination Sequence:
#
# PCOD8187982 Si02
#       7
#     4   8   4   8   8   8   8
#     4  12  20  26  42  68  98 130 165 204 249 298
#     4   9  19  35  52  69  95 132 175 217 260 309
#     4  10  18  26  38  58  90 128 161 194 237 290
#     4  11  20  30  46  68  98 134 170 208 253 305
#     4  10  18  29  45  65  92 126 164 206 251 299
#     4  11  23  35  50  73 105 143 179 216 261 313
#     4   9  18  31  47  68  94 129 169 210 253 301
#
# _framework density 16.825240000000001
#
# number of rings (size 3 to 8) (size 9 to 14) (size 15 to 20)
#    1.000    0.833    2.500    3.750    0.000    1.667 
#    0.000    0.000    0.000    0.000    0.000    0.000 
#    2.500    0.000    3.500    0.000    2.833    0.167 
#
# Total GULP energy -297378.695818 kJ/mol
# GULP energy per Si atom -12390.778992 kJ/mol
# Density = 1.678695 g / cm^3
# Si number density = 16.825240 Si / 1000 Ang^3
#
#
#
# Elastic Constant Matrix: (Units=GPa)
#
#
# Indices 1 2 3 4 5 6 
#
# 1 108.4157 31.2966 26.3030 0.0000 0.0000 0.0000
# 2 31.2966 61.2769 34.7250 0.0000 0.0000 0.0000
# 3 26.3030 34.7250 56.1395 0.0000 0.0000 0.0000
# 4 0.0000 0.0000 0.0000 19.9532 0.0000 0.0000
# 5 0.0000 0.0000 0.0000 0.0000 25.0438 0.0000
# 6 0.0000 0.0000 0.0000 0.0000 0.0000 25.8359
#
#
#
# Elastic Compliance Matrix: (Units=1/GPa)
#
#
# Indices 1 2 3 4 5 6 
#
# 1 0.011060 -0.004176 -0.002599 0.000000 0.000000 0.000000
# 2 -0.004176 0.026704 -0.014561 0.000000 0.000000 0.000000
# 3 -0.002599 -0.014561 0.028037 0.000000 0.000000 0.000000
# 4 0.000000 0.000000 0.000000 0.050117 0.000000 0.000000
# 5 0.000000 0.000000 0.000000 0.000000 0.039930 0.000000
# 6 0.000000 0.000000 0.000000 0.000000 0.000000 0.038706
#
#
# Mechanical properties :
#
#
# Convention : Reuss Voigt Hill
#
# Bulk Modulus (GPa) = 43.23562 45.60902 44.42232
# Shear Modulus (GPa) = 20.41358 23.06707 21.74033
#
# Velocity S-wave (km/s) = 3.48698 3.70669 3.59851
# Velocity P-wave (km/s) = 6.47802 6.74431 6.61251
#
# Compressibility (1/GPa) = 0.02312908
#
# Stress axis : x y z
#
# Youngs Moduli (GPa) = 90.41811 37.44795 35.66710
#
# Poissons Ratio (x) = 0.15638 0.09269
# Poissons Ratio (y) = 0.37758 0.51935
# Poissons Ratio (z) = 0.23498 0.54528
#
# Static dielectric constant tensor:
#      x y z
#    x 3.164650 0.000000 0.000000 
#    y 0.000000 3.098600 0.000000 
#    z 0.000000 0.000000 2.864540 
# 
# 
# High freq. dielectric constant tensor:
#      x y z
#    x 1.667230 0.000000 0.000000 
#    y 0.000000 1.625040 0.000000 
#    z 0.000000 0.000000 1.603090 
# 
# From -- ./inp_files/23189.got.cif
#   From: 2010.03.12/outbox.cif.g09.slc.cpg/sg44_12_cif.got.tgz:23189.got - 2010.04.14 02:36:11.
