data_PCOD8187591
_publ_section_title
;
Structure prediction by ZEFSAII (Michael W. Deem and Ramdas Pophale) SiO2 
 PCOD8187591
Probable space group: F D D 2
;
_chemical_formula_sum "Si O2"
_cell_formula_units_Z 64
_cell_length_a 14.825587
_cell_length_b 16.250245
_cell_length_c 11.879854
_cell_angle_alpha 90.000000
_cell_angle_beta 90.000000
_cell_angle_gamma 90.000000
_cell_volume 2862.087547
_symmetry_space_group_name_H-M "F D D 2"
_symmetry_group_IT_number 43
_symmetry_cell_setting 'orthorhombic'
loop_
_space_group_symop_operation_xyz
x,y,z
-x,-y,z
1/4-x,1/4+y,1/4+z
1/4+x,1/4-y,1/4+z
x,1/2+y,1/2+z
-x,1/2-y,1/2+z
1/4-x,3/4+y,3/4+z
1/4+x,3/4-y,3/4+z
1/2+x,y,1/2+z
1/2-x,-y,1/2+z
3/4-x,1/4+y,3/4+z
3/4+x,1/4-y,3/4+z
1/2+x,1/2+y,z
1/2-x,1/2-y,z
3/4-x,3/4+y,1/4+z
3/4+x,3/4-y,1/4+z
loop_
_atom_site_type_symbol
_atom_site_label
_atom_site_fract_x
_atom_site_fract_y
_atom_site_fract_z
Si Si1 0.799684 0.165936 0.290780
Si Si2 0.247094 0.552390 0.094237
Si Si3 0.595221 0.979617 0.450389
Si Si4 0.284989 0.884725 0.510533
O O1 0.750000 0.250000 0.252827
O O2 0.758288 0.091910 0.216997
O O3 0.907946 0.169231 0.276628
O O4 0.787539 0.150584 0.423698
O O5 0.337441 0.578203 0.023454
O O6 0.243311 0.452001 0.098888
O O7 0.578377 0.940143 0.328742
O O8 0.500000 0.000000 0.511969
O O9 0.640119 0.069556 0.433011
#
# Coordination Sequence:
#
# PCOD8187591 Si02
#       4
#    16  16  16  16
#     4  12  26  46  72 107 147 190 239 308 372 435
#     4  10  28  44  72 104 149 187 241 300 368 433
#     4  10  25  45  77 105 143 191 250 299 357 443
#     4  10  26  45  76 102 146 189 250 298 366 432
#
# _framework density 22.361301000000001
#
# number of rings (size 3 to 8) (size 9 to 14) (size 15 to 20)
#    1.500    0.000    0.000    2.250   14.000    4.000 
#    0.000    0.000    0.000    0.000    0.000    0.000 
#    0.000    0.000    0.000    0.000    0.000    0.000 
#
# Total GULP energy -198212.276100 kJ/mol
# GULP energy per Si atom -12388.267256 kJ/mol
# Density = 2.231041 g / cm^3
# Si number density = 22.361301 Si / 1000 Ang^3
#
#
#
# Elastic Constant Matrix: (Units=GPa)
#
#
# Indices 1 2 3 4 5 6 
#
# 1 158.4245 37.6971 45.4167 0.0000 0.0000 0.0000
# 2 37.6971 93.6716 48.5382 0.0000 0.0000 0.0000
# 3 45.4167 48.5382 109.0281 0.0000 0.0000 0.0000
# 4 0.0000 0.0000 0.0000 39.8060 0.0000 0.0000
# 5 0.0000 0.0000 0.0000 0.0000 36.7417 0.0000
# 6 0.0000 0.0000 0.0000 0.0000 0.0000 30.1041
#
#
#
# Elastic Compliance Matrix: (Units=1/GPa)
#
#
# Indices 1 2 3 4 5 6 
#
# 1 0.007393 -0.001793 -0.002281 0.000000 0.000000 0.000000
# 2 -0.001793 0.014312 -0.005625 0.000000 0.000000 0.000000
# 3 -0.002281 -0.005625 0.012626 0.000000 0.000000 0.000000
# 4 0.000000 0.000000 0.000000 0.025122 0.000000 0.000000
# 5 0.000000 0.000000 0.000000 0.000000 0.027217 0.000000
# 6 0.000000 0.000000 0.000000 0.000000 0.000000 0.033218
#
#
# Mechanical properties :
#
#
# Convention : Reuss Voigt Hill
#
# Bulk Modulus (GPa) = 66.96577 69.38090 68.17333
# Shear Modulus (GPa) = 34.65893 36.62851 35.64372
#
# Velocity S-wave (km/s) = 3.94121 4.05165 3.99681
# Velocity P-wave (km/s) = 7.12201 7.27890 7.20088
#
# Compressibility (1/GPa) = 0.01493300
#
# Stress axis : x y z
#
# Youngs Moduli (GPa) = 135.26670 69.87310 79.20027
#
# Poissons Ratio (x) = 0.12529 0.18068
# Poissons Ratio (y) = 0.24254 0.44546
# Poissons Ratio (z) = 0.30858 0.39300
#
# Static dielectric constant tensor:
#      x y z
#    x 4.235760 0.000000 0.000000 
#    y 0.000000 3.938950 0.000000 
#    z 0.000000 0.000000 3.493640 
# 
# 
# High freq. dielectric constant tensor:
#      x y z
#    x 1.899600 0.000000 0.000000 
#    y 0.000000 1.879070 0.000000 
#    z 0.000000 0.000000 1.853800 
# 
# From -- ./inp_files/5953.got.cif
#   From: 2010.06.25/outbox.cif.g09.slc.cpg/sg43_3_cif.got.tgz:5953.got - 2010.06.26 16:48:59.
