data_PCOD8187929
_publ_section_title
;
Structure prediction by ZEFSAII (Michael W. Deem and Ramdas Pophale) SiO2 
 PCOD8187929
Probable space group: I M M 2
;
_chemical_formula_sum "Si O2"
_cell_formula_units_Z 64
_cell_length_a 9.121308
_cell_length_b 30.691890
_cell_length_c 14.397257
_cell_angle_alpha 90.000000
_cell_angle_beta 90.000000
_cell_angle_gamma 90.000000
_cell_volume 4030.514714
_symmetry_space_group_name_H-M "I M M 2"
_symmetry_group_IT_number 44
_symmetry_cell_setting 'orthorhombic'
loop_
_space_group_symop_operation_xyz
x,y,z
-x,-y,z
-x,y,z
x,-y,z
1/2+x,1/2+y,1/2+z
1/2-x,1/2-y,1/2+z
1/2-x,1/2+y,1/2+z
1/2+x,1/2-y,1/2+z
loop_
_atom_site_type_symbol
_atom_site_label
_atom_site_fract_x
_atom_site_fract_y
_atom_site_fract_z
Si Si1 0.326654 0.201813 0.628980
Si Si2 0.824617 0.285044 0.724181
Si Si3 0.670569 0.137121 0.098632
Si Si4 0.327780 0.771928 0.428903
Si Si5 0.171239 0.048829 0.844107
Si Si6 0.329435 0.047748 0.037497
Si Si7 0.334766 0.367426 0.240926
Si Si8 0.165077 0.823781 0.937132
O O1 0.500000 0.206769 0.644959
O O2 0.247230 0.242575 0.677752
O O3 0.286582 0.199602 0.519042
O O4 0.271847 0.155306 0.666902
O O5 0.764996 0.329347 0.674696
O O6 0.770070 0.291039 0.830862
O O7 0.000000 0.279691 0.717108
O O8 0.500000 0.145948 0.094713
O O9 0.705272 0.085360 0.114997
O O10 0.735304 0.144783 0.997187
O O11 0.500000 0.766570 0.418663
O O12 0.262423 0.723880 0.444492
O O13 0.223904 0.083991 0.766918
O O14 0.000000 0.056620 0.862290
O O15 0.204147 0.000000 0.806889
O O16 0.246819 0.057356 0.941978
O O17 0.500000 0.048839 0.012215
O O18 0.284468 0.000000 0.077531
O O19 0.500000 0.369745 0.200255
O O20 0.332830 0.337564 0.331162
O O21 0.000000 0.824795 0.977244
#
# Coordination Sequence:
#
# PCOD8187929 Si02
#       8
#     8   8   8   8   8   8   8   8
#     4  11  21  31  46  67  88 115 153 188 220 266
#     4  10  19  33  48  63  87 119 153 186 224 266
#     4  10  19  28  44  68  89 118 156 187 217 262
#     4   9  18  32  45  59  86 120 150 179 219 261
#     4   9  17  29  46  67  89 118 155 185 214 264
#     4   9  17  28  41  63  96 123 144 181 230 269
#     4  10  19  31  46  65  91 124 151 180 221 264
#     4  10  17  28  45  63  90 124 149 176 221 266
#
# _framework density 15.878866
#
# number of rings (size 3 to 8) (size 9 to 14) (size 15 to 20)
#    0.000    2.250    3.750    0.375    0.000    1.000 
#    0.000    1.250    0.000    0.000    0.000    0.875 
#    0.000    3.000    0.000    0.000    0.000    0.000 
#
# Total GULP energy -396485.189604 kJ/mol
# GULP energy per Si atom -12390.162175 kJ/mol
# Density = 1.584272 g / cm^3
# Si number density = 15.878866 Si / 1000 Ang^3
#
#
#
# Elastic Constant Matrix: (Units=GPa)
#
#
# Indices 1 2 3 4 5 6 
#
# 1 23.8850 27.5079 20.7770 -0.0001 0.0001 0.0000
# 2 27.5079 129.6435 45.7159 0.0000 0.0000 -0.0001
# 3 20.7770 45.7159 75.4808 0.0003 0.0002 -0.0003
# 4 -0.0001 0.0000 0.0003 24.4675 0.0001 -0.0001
# 5 0.0001 0.0000 0.0002 0.0001 16.4119 0.0000
# 6 0.0000 -0.0001 -0.0003 -0.0001 0.0000 15.0612
#
#
#
# Elastic Compliance Matrix: (Units=1/GPa)
#
#
# Indices 1 2 3 4 5 6 
#
# 1 0.062573 -0.009159 -0.011676 0.000000 0.000000 0.000000
# 2 -0.009159 0.011149 -0.004231 0.000000 0.000000 0.000000
# 3 -0.011676 -0.004231 0.019025 0.000000 0.000000 0.000000
# 4 0.000000 0.000000 0.000000 0.040871 0.000000 0.000000
# 5 0.000000 0.000000 0.000000 0.000000 0.060931 0.000000
# 6 0.000000 0.000000 0.000000 0.000000 0.000000 0.066396
#
#
# Mechanical properties :
#
#
# Convention : Reuss Voigt Hill
#
# Bulk Modulus (GPa) = 23.46705 46.33454 34.90080
# Shear Modulus (GPa) = 15.37120 20.18868 17.77994
#
# Velocity S-wave (km/s) = 3.11469 3.56956 3.34986
# Velocity P-wave (km/s) = 5.26744 6.79944 6.08187
#
# Compressibility (1/GPa) = 0.04261294
#
# Stress axis : x y z
#
# Youngs Moduli (GPa) = 15.98133 89.69430 52.56176
#
# Poissons Ratio (x) = 0.82154 0.61374
# Poissons Ratio (y) = 0.14638 0.22240
# Poissons Ratio (z) = 0.18661 0.37952
#
# Static dielectric constant tensor:
#      x y z
#    x 2.946990 0.000000 0.000000 
#    y 0.000000 3.389410 0.000000 
#    z 0.000000 0.000000 2.973130 
# 
# 
# High freq. dielectric constant tensor:
#      x y z
#    x 1.598770 0.000000 0.000000 
#    y 0.000000 1.614690 0.000000 
#    z 0.000000 0.000000 1.578300 
# 
# From -- ./inp_files/17075.got.cif
#   From: 2010.03.12/outbox.cif.g09.slc.cpg/sg44_9_cif.got.tgz:17075.got - 2010.04.14 02:36:11.
