data_PCOD8187963
_publ_section_title
;
Structure prediction by ZEFSAII (Michael W. Deem and Ramdas Pophale) SiO2 
 PCOD8187963
Probable space group: I M M 2
;
_chemical_formula_sum "Si O2"
_cell_formula_units_Z 48
_cell_length_a 18.581110
_cell_length_b 8.489846
_cell_length_c 15.260355
_cell_angle_alpha 90.000000
_cell_angle_beta 90.000000
_cell_angle_gamma 90.000000
_cell_volume 2407.332636
_symmetry_space_group_name_H-M "I M M 2"
_symmetry_group_IT_number 44
_symmetry_cell_setting 'orthorhombic'
loop_
_space_group_symop_operation_xyz
x,y,z
-x,-y,z
-x,y,z
x,-y,z
1/2+x,1/2+y,1/2+z
1/2-x,1/2-y,1/2+z
1/2-x,1/2+y,1/2+z
1/2+x,1/2-y,1/2+z
loop_
_atom_site_type_symbol
_atom_site_label
_atom_site_fract_x
_atom_site_fract_y
_atom_site_fract_z
Si Si1 0.152890 0.313176 0.769540
Si Si2 0.500000 0.312451 0.219054
Si Si3 0.736475 0.185364 0.436667
Si Si4 0.272048 0.811438 0.633887
Si Si5 0.500000 0.315585 0.026356
Si Si6 0.891395 0.185282 0.383432
Si Si7 0.077196 0.683764 0.203512
O O1 0.154785 0.500000 0.761498
O O2 0.072105 0.249858 0.764148
O O3 0.176041 0.257912 0.867729
O O4 0.206147 0.247700 0.694056
O O5 0.500000 0.500000 0.221937
O O6 0.500000 0.237492 0.121592
O O7 0.732810 0.256675 0.534642
O O8 0.809622 0.238464 0.390501
O O9 0.733685 0.000000 0.448654
O O10 0.349498 0.740722 0.665165
O O11 0.269658 0.000000 0.636912
O O12 0.500000 0.500000 0.041995
O O13 0.570963 0.264592 0.973957
O O14 0.927681 0.281448 0.306121
O O15 0.901363 0.000000 0.365145
O O16 0.081837 0.500000 0.186091
O O17 0.000000 0.744991 0.162750
#
# Coordination Sequence:
#
# PCOD8187963 Si02
#       7
#     8   4   8   8   4   8   8
#     4  11  22  39  61  88 118 149 194 251 295 335
#     4  11  23  41  61  82 115 156 196 235 289 357
#     4   9  19  35  57  83 111 149 195 236 283 346
#     4  10  20  38  61  83 112 156 199 235 286 353
#     4   9  18  31  55  84 107 142 190 229 269 341
#     4  10  17  31  55  79 105 141 185 225 274 340
#     4  10  20  33  51  81 116 144 179 230 284 333
#
# _framework density 19.939080000000001
#
# number of rings (size 3 to 8) (size 9 to 14) (size 15 to 20)
#    0.000    2.000    2.500    1.750    0.000    2.667 
#    1.500    5.833    0.000    0.000    0.000    0.000 
#    0.000    0.000    0.000    0.000    0.000    0.000 
#
# Total GULP energy -297360.397557 kJ/mol
# GULP energy per Si atom -12390.016565 kJ/mol
# Density = 1.989370 g / cm^3
# Si number density = 19.939080 Si / 1000 Ang^3
#
#
#
# Elastic Constant Matrix: (Units=GPa)
#
#
# Indices 1 2 3 4 5 6 
#
# 1 175.3211 21.6557 62.4529 0.0000 0.0000 0.0000
# 2 21.6557 28.3999 18.8530 0.0000 0.0000 0.0000
# 3 62.4529 18.8530 120.3374 0.0000 0.0000 0.0000
# 4 0.0000 0.0000 0.0000 23.0574 0.0000 0.0000
# 5 0.0000 0.0000 0.0000 0.0000 61.2536 0.0000
# 6 0.0000 0.0000 0.0000 0.0000 0.0000 25.1730
#
#
#
# Elastic Compliance Matrix: (Units=1/GPa)
#
#
# Indices 1 2 3 4 5 6 
#
# 1 0.007280 -0.003396 -0.003246 0.000000 0.000000 0.000000
# 2 -0.003396 0.040883 -0.004643 0.000000 0.000000 0.000000
# 3 -0.003246 -0.004643 0.010722 0.000000 0.000000 0.000000
# 4 0.000000 0.000000 0.000000 0.043370 0.000000 0.000000
# 5 0.000000 0.000000 0.000000 0.000000 0.016326 0.000000
# 6 0.000000 0.000000 0.000000 0.000000 0.000000 0.039725
#
#
# Mechanical properties :
#
#
# Convention : Reuss Voigt Hill
#
# Bulk Modulus (GPa) = 27.53666 58.88686 43.21176
# Shear Modulus (GPa) = 25.90954 36.63659 31.27307
#
# Velocity S-wave (km/s) = 3.60868 4.29117 3.96464
# Velocity P-wave (km/s) = 5.58604 7.35865 6.53274
#
# Compressibility (1/GPa) = 0.03631523
#
# Stress axis : x y z
#
# Youngs Moduli (GPa) = 137.37094 24.46014 93.26740
#
# Poissons Ratio (x) = 0.08307 0.30274
# Poissons Ratio (y) = 0.46653 0.43300
# Poissons Ratio (z) = 0.44589 0.11356
#
# Static dielectric constant tensor:
#      x y z
#    x 4.136910 0.000000 0.000000 
#    y 0.000000 3.281480 0.000000 
#    z 0.000000 0.000000 3.823680 
# 
# 
# High freq. dielectric constant tensor:
#      x y z
#    x 1.798210 0.000000 0.000000 
#    y 0.000000 1.741090 0.000000 
#    z 0.000000 0.000000 1.776330 
# 
# From -- ./inp_files/16163.got.cif
#   From: 2010.03.12/outbox.cif.g09.slc.cpg/sg44_9_cif.got.tgz:16163.got - 2010.04.14 02:36:11.
