data_PCOD8187090
_publ_section_title
;
Structure prediction by ZEFSAII (Michael W. Deem and Ramdas Pophale) SiO2 
 PCOD8187090
Probable space group: F D D 2
;
_chemical_formula_sum "Si O2"
_cell_formula_units_Z 120
_cell_length_a 24.695773
_cell_length_b 9.092547
_cell_length_c 26.924489
_cell_angle_alpha 90.000000
_cell_angle_beta 90.000000
_cell_angle_gamma 90.000000
_cell_volume 6045.826066
_symmetry_space_group_name_H-M "F D D 2"
_symmetry_group_IT_number 43
_symmetry_cell_setting 'orthorhombic'
loop_
_space_group_symop_operation_xyz
x,y,z
-x,-y,z
1/4-x,1/4+y,1/4+z
1/4+x,1/4-y,1/4+z
x,1/2+y,1/2+z
-x,1/2-y,1/2+z
1/4-x,3/4+y,3/4+z
1/4+x,3/4-y,3/4+z
1/2+x,y,1/2+z
1/2-x,-y,1/2+z
3/4-x,1/4+y,3/4+z
3/4+x,1/4-y,3/4+z
1/2+x,1/2+y,z
1/2-x,1/2-y,z
3/4-x,3/4+y,1/4+z
3/4+x,3/4-y,1/4+z
loop_
_atom_site_type_symbol
_atom_site_label
_atom_site_fract_x
_atom_site_fract_y
_atom_site_fract_z
Si Si1 0.664968 0.957190 0.707440
Si Si2 0.581452 0.296560 0.064957
Si Si3 0.006135 0.670891 0.638258
Si Si4 0.809756 0.188087 0.563411
Si Si5 0.080225 0.197276 0.706349
Si Si6 0.902513 0.166314 0.373557
Si Si7 0.369972 0.654738 0.864372
Si Si8 0.000000 0.500000 0.918274
O O1 0.613677 0.848430 0.710191
O O2 0.721451 0.869405 0.703758
O O3 0.668683 0.059704 0.755879
O O4 0.659090 0.067004 0.661137
O O5 0.520457 0.280425 0.085726
O O6 0.618094 0.156869 0.079351
O O7 0.603243 0.439998 0.092107
O O8 0.070200 0.698520 0.632757
O O9 0.000000 0.500000 0.651544
O O10 0.978107 0.767241 0.681614
O O11 0.750000 0.250000 0.570981
O O12 0.817974 0.119042 0.509635
O O13 0.849321 0.325552 0.569647
O O14 0.826570 0.075587 0.607139
O O15 0.114826 0.081094 0.673157
O O16 0.955607 0.069454 0.382316
#
# Coordination Sequence:
#
# PCOD8187090 Si02
#       8
#    16  16  16  16  16  16  16   8
#     4  11  20  38  67  94 123 171 220 257 317 386
#     4  10  20  39  67  96 120 167 220 259 315 392
#     4   9  18  39  65  93 125 158 214 267 306 378
#     4  12  27  41  59  98 136 164 209 270 330 373
#     4  10  21  41  66  94 125 167 220 263 310 396
#     4  10  21  42  65  87 130 170 214 264 316 382
#     4  11  23  43  63  96 134 164 211 271 325 380
#     4  10  20  38  64  92 124 170 220 264 302 388
#
# _framework density 19.848405
#
# number of rings (size 3 to 8) (size 9 to 14) (size 15 to 20)
#    0.000    1.600    6.667    0.800    0.000    5.333 
#    1.200    6.000    0.000    0.000    0.000    0.000 
#    0.000    0.000    0.000    0.000    0.000    0.000 
#
# Total GULP energy -371926.896944 kJ/mol
# GULP energy per Si atom -12397.563231 kJ/mol
# Density = 1.980323 g / cm^3
# Si number density = 19.848405 Si / 1000 Ang^3
#
#
#
# Elastic Constant Matrix: (Units=GPa)
#
#
# Indices 1 2 3 4 5 6 
#
# 1 121.9646 32.9435 35.9296 0.0000 0.0000 0.0001
# 2 32.9435 55.2475 39.0896 0.0000 0.0000 0.0002
# 3 35.9296 39.0896 129.8305 0.0000 0.0000 0.0000
# 4 0.0000 0.0000 0.0000 33.8881 0.0000 0.0000
# 5 0.0000 0.0000 0.0000 0.0000 17.9826 0.0000
# 6 0.0001 0.0002 0.0000 0.0000 0.0000 31.3107
#
#
#
# Elastic Compliance Matrix: (Units=1/GPa)
#
#
# Indices 1 2 3 4 5 6 
#
# 1 0.009924 -0.005050 -0.001226 0.000000 0.000000 0.000000
# 2 -0.005050 0.025570 -0.006301 0.000000 0.000000 0.000000
# 3 -0.001226 -0.006301 0.009939 0.000000 0.000000 0.000000
# 4 0.000000 0.000000 0.000000 0.029509 0.000000 0.000000
# 5 0.000000 0.000000 0.000000 0.000000 0.055609 0.000000
# 6 0.000000 0.000000 0.000000 0.000000 0.000000 0.031938
#
#
# Mechanical properties :
#
#
# Convention : Reuss Voigt Hill
#
# Bulk Modulus (GPa) = 49.31332 58.10754 53.71043
# Shear Modulus (GPa) = 25.71969 29.90829 27.81399
#
# Velocity S-wave (km/s) = 3.60364 3.88601 3.74748
# Velocity P-wave (km/s) = 6.49722 7.03377 6.77081
#
# Compressibility (1/GPa) = 0.02027850
#
# Stress axis : x y z
#
# Youngs Moduli (GPa) = 100.76177 39.10822 100.61655
#
# Poissons Ratio (x) = 0.19751 0.12335
# Poissons Ratio (y) = 0.50889 0.63399
# Poissons Ratio (z) = 0.12352 0.24642
#
# Static dielectric constant tensor:
#      x y z
#    x 3.953140 0.000000 0.000000 
#    y 0.000000 3.509990 0.000000 
#    z 0.000000 0.000000 3.545680 
# 
# 
# High freq. dielectric constant tensor:
#      x y z
#    x 1.783630 0.000000 0.000000 
#    y 0.000000 1.760430 0.000000 
#    z 0.000000 0.000000 1.770650 
# 
# From -- ./inp_files/26600.got.cif
#   From: 2010.06.25/outbox.cif.g09.slc.cpg/sg43_14_cif.got.tgz:26600.got - 2010.06.26 16:48:59.
