data_PCOD8187237
_publ_section_title
;
Structure prediction by ZEFSAII (Michael W. Deem and Ramdas Pophale) SiO2 
 PCOD8187237
Probable space group: F D D 2
;
_chemical_formula_sum "Si O2"
_cell_formula_units_Z 96
_cell_length_a 18.944046
_cell_length_b 10.034112
_cell_length_c 23.566290
_cell_angle_alpha 90.000000
_cell_angle_beta 90.000000
_cell_angle_gamma 90.000000
_cell_volume 4479.637809
_symmetry_space_group_name_H-M "F D D 2"
_symmetry_group_IT_number 43
_symmetry_cell_setting 'orthorhombic'
loop_
_space_group_symop_operation_xyz
x,y,z
-x,-y,z
1/4-x,1/4+y,1/4+z
1/4+x,1/4-y,1/4+z
x,1/2+y,1/2+z
-x,1/2-y,1/2+z
1/4-x,3/4+y,3/4+z
1/4+x,3/4-y,3/4+z
1/2+x,y,1/2+z
1/2-x,-y,1/2+z
3/4-x,1/4+y,3/4+z
3/4+x,1/4-y,3/4+z
1/2+x,1/2+y,z
1/2-x,1/2-y,z
3/4-x,3/4+y,1/4+z
3/4+x,3/4-y,1/4+z
loop_
_atom_site_type_symbol
_atom_site_label
_atom_site_fract_x
_atom_site_fract_y
_atom_site_fract_z
Si Si1 0.049162 0.745937 0.916460
Si Si2 0.216043 0.115496 0.960880
Si Si3 0.828483 0.737988 0.746575
Si Si4 0.428860 0.787993 0.494514
Si Si5 0.102123 0.720296 0.618626
Si Si6 0.554230 0.210099 0.321608
O O1 0.082367 0.610431 0.942532
O O2 0.004294 0.819205 0.965939
O O3 0.994216 0.709280 0.865877
O O4 0.110354 0.840920 0.894511
O O5 0.250000 0.250000 0.936555
O O6 0.132019 0.118137 0.971387
O O7 0.213755 0.009952 0.909491
O O8 0.255281 0.078315 0.018472
O O9 0.750000 0.750000 0.772780
O O10 0.848700 0.888280 0.728316
O O11 0.883121 0.695531 0.796622
O O12 0.438397 0.814926 0.560988
O O13 0.162164 0.831412 0.603346
#
# Coordination Sequence:
#
# PCOD8187237 Si02
#       6
#    16  16  16  16  16  16
#     4  11  21  41  64  93 133 165 215 277 328 385
#     4  12  21  37  70  95 118 167 231 269 314 386
#     4   9  21  39  60  93 133 166 211 265 332 394
#     4  10  21  40  64  94 122 169 220 267 319 396
#     4  11  23  39  68  97 125 172 228 273 320 393
#     4  11  21  41  67  90 127 174 224 263 320 402
#
# _framework density 21.430302999999999
#
# number of rings (size 3 to 8) (size 9 to 14) (size 15 to 20)
#    0.000    1.333    6.667    0.500    0.000    5.333 
#    0.000    7.500    3.667    0.000    0.000    0.000 
#    0.000    0.000    0.000    0.000    0.000    0.000 
#
# Total GULP energy -297348.726297 kJ/mol
# GULP energy per Si atom -12389.530262 kJ/mol
# Density = 2.138153 g / cm^3
# Si number density = 21.430303 Si / 1000 Ang^3
#
#
#
# Elastic Constant Matrix: (Units=GPa)
#
#
# Indices 1 2 3 4 5 6 
#
# 1 80.7619 34.2675 58.4982 0.0000 0.0000 0.0000
# 2 34.2675 65.9446 51.8049 0.0000 0.0000 0.0000
# 3 58.4982 51.8049 149.1413 0.0000 0.0000 0.0000
# 4 0.0000 0.0000 0.0000 30.5807 0.0000 0.0000
# 5 0.0000 0.0000 0.0000 0.0000 55.4656 0.0000
# 6 0.0000 0.0000 0.0000 0.0000 0.0000 28.6239
#
#
#
# Elastic Compliance Matrix: (Units=1/GPa)
#
#
# Indices 1 2 3 4 5 6 
#
# 1 0.018601 -0.005411 -0.005417 0.000000 0.000000 0.000000
# 2 -0.005411 0.022429 -0.005669 0.000000 0.000000 0.000000
# 3 -0.005417 -0.005669 0.010799 0.000000 0.000000 0.000000
# 4 0.000000 0.000000 0.000000 0.032700 0.000000 0.000000
# 5 0.000000 0.000000 0.000000 0.000000 0.018029 0.000000
# 6 0.000000 0.000000 0.000000 0.000000 0.000000 0.034936
#
#
# Mechanical properties :
#
#
# Convention : Reuss Voigt Hill
#
# Bulk Modulus (GPa) = 53.08678 64.99878 59.04278
# Shear Modulus (GPa) = 28.28611 33.01917 30.65264
#
# Velocity S-wave (km/s) = 3.63700 3.92952 3.78609
# Velocity P-wave (km/s) = 6.51634 7.14033 6.83546
#
# Compressibility (1/GPa) = 0.01883708
#
# Stress axis : x y z
#
# Youngs Moduli (GPa) = 53.75973 44.58511 92.60467
#
# Poissons Ratio (x) = 0.24124 0.50160
# Poissons Ratio (y) = 0.29088 0.52493
# Poissons Ratio (z) = 0.29119 0.25273
#
# Static dielectric constant tensor:
#      x y z
#    x 4.174910 0.000000 0.000000 
#    y 0.000000 3.586530 0.000000 
#    z 0.000000 0.000000 4.248010 
# 
# 
# High freq. dielectric constant tensor:
#      x y z
#    x 1.842860 0.000000 0.000000 
#    y 0.000000 1.794760 0.000000 
#    z 0.000000 0.000000 1.855840 
# 
# From -- ./inp_files/18310.got.cif
#   From: 2010.06.25/outbox.cif.g09.slc.cpg/sg43_10_cif.got.tgz:18310.got - 2010.06.26 16:48:59.
