data_PCOD8187124
_publ_section_title
;
Structure prediction by ZEFSAII (Michael W. Deem and Ramdas Pophale) SiO2 
 PCOD8187124
Probable space group: F D D 2
;
_chemical_formula_sum "Si O2"
_cell_formula_units_Z 120
_cell_length_a 17.313687
_cell_length_b 15.130388
_cell_length_c 21.862753
_cell_angle_alpha 90.000000
_cell_angle_beta 90.000000
_cell_angle_gamma 90.000000
_cell_volume 5727.228036
_symmetry_space_group_name_H-M "F D D 2"
_symmetry_group_IT_number 43
_symmetry_cell_setting 'orthorhombic'
loop_
_space_group_symop_operation_xyz
x,y,z
-x,-y,z
1/4-x,1/4+y,1/4+z
1/4+x,1/4-y,1/4+z
x,1/2+y,1/2+z
-x,1/2-y,1/2+z
1/4-x,3/4+y,3/4+z
1/4+x,3/4-y,3/4+z
1/2+x,y,1/2+z
1/2-x,-y,1/2+z
3/4-x,1/4+y,3/4+z
3/4+x,1/4-y,3/4+z
1/2+x,1/2+y,z
1/2-x,1/2-y,z
3/4-x,3/4+y,1/4+z
3/4+x,3/4-y,1/4+z
loop_
_atom_site_type_symbol
_atom_site_label
_atom_site_fract_x
_atom_site_fract_y
_atom_site_fract_z
Si Si1 0.500000 0.500000 0.459880
Si Si2 0.280712 0.651764 0.981779
Si Si3 0.180062 0.480147 0.270881
Si Si4 0.210302 0.021189 0.383758
Si Si5 0.064377 0.629403 0.864844
Si Si6 0.059940 0.313623 0.426564
Si Si7 0.969424 0.096737 0.807870
Si Si8 0.352749 0.089604 0.984146
O O1 0.512565 0.585866 0.417814
O O2 0.422775 0.519992 0.500238
O O3 0.250000 0.750000 0.971751
O O4 0.236558 0.584078 0.938680
O O5 0.370327 0.649021 0.965781
O O6 0.266989 0.619579 0.051438
O O7 0.222702 0.502860 0.335361
O O8 0.240091 0.448776 0.221820
O O9 0.118208 0.400774 0.281182
O O10 0.137270 0.563648 0.241980
O O11 0.141103 0.072682 0.350255
O O12 0.176885 0.931122 0.414815
O O13 0.084546 0.727558 0.887439
O O14 0.032655 0.388360 0.379884
O O15 0.027023 0.169100 0.777454
O O16 0.000000 0.000000 0.794366
#
# Coordination Sequence:
#
# PCOD8187124 Si02
#       8
#     8  16  16  16  16  16  16  16
#     4  10  20  40  66 100 136 168 210 286 336 406
#     4  12  23  39  65  97 134 172 215 278 335 398
#     4  11  23  44  68  93 134 173 221 280 333 400
#     4  11  23  41  66  97 132 173 219 273 340 403
#     4  11  22  38  65  98 132 171 214 271 342 401
#     4  12  23  42  66  97 127 176 222 270 336 409
#     4  10  24  45  65  91 132 175 223 275 327 400
#     4  10  23  44  66  95 132 174 222 276 335 404
#
# _framework density 20.952544
#
# number of rings (size 3 to 8) (size 9 to 14) (size 15 to 20)
#    0.000    1.067    6.000    0.800    0.000    2.133 
#    4.800    0.667    0.000    0.000    0.000    0.000 
#    0.000    0.000    0.000    0.000    0.000    0.000 
#
# Total GULP energy -371887.208403 kJ/mol
# GULP energy per Si atom -12396.240280 kJ/mol
# Density = 2.090486 g / cm^3
# Si number density = 20.952544 Si / 1000 Ang^3
#
#
#
# Elastic Constant Matrix: (Units=GPa)
#
#
# Indices 1 2 3 4 5 6 
#
# 1 125.5400 12.9628 47.3995 0.0000 0.0000 0.0000
# 2 12.9628 41.8201 28.5606 0.0000 0.0000 0.0000
# 3 47.3995 28.5606 104.7096 0.0000 0.0000 0.0000
# 4 0.0000 0.0000 0.0000 34.3718 0.0000 0.0000
# 5 0.0000 0.0000 0.0000 0.0000 47.3134 0.0000
# 6 0.0000 0.0000 0.0000 0.0000 0.0000 32.3525
#
#
#
# Elastic Compliance Matrix: (Units=1/GPa)
#
#
# Indices 1 2 3 4 5 6 
#
# 1 0.009608 -0.000010 -0.004347 0.000000 0.000000 0.000000
# 2 -0.000010 0.029386 -0.008011 0.000000 0.000000 0.000000
# 3 -0.004347 -0.008011 0.013703 0.000000 0.000000 0.000000
# 4 0.000000 0.000000 0.000000 0.029094 0.000000 0.000000
# 5 0.000000 0.000000 0.000000 0.000000 0.021136 0.000000
# 6 0.000000 0.000000 0.000000 0.000000 0.000000 0.030909
#
#
# Mechanical properties :
#
#
# Convention : Reuss Voigt Hill
#
# Bulk Modulus (GPa) = 35.76253 49.99061 42.87657
# Shear Modulus (GPa) = 29.78138 35.01733 32.39936
#
# Velocity S-wave (km/s) = 3.77420 4.09255 3.93659
# Velocity P-wave (km/s) = 6.00818 6.80020 6.41642
#
# Compressibility (1/GPa) = 0.02796222
#
# Stress axis : x y z
#
# Youngs Moduli (GPa) = 104.08336 34.02994 72.97757
#
# Poissons Ratio (x) = 0.00033 0.31720
# Poissons Ratio (y) = 0.00100 0.58462
# Poissons Ratio (z) = 0.45240 0.27261
#
# Static dielectric constant tensor:
#      x y z
#    x 4.173650 0.000000 0.000000 
#    y 0.000000 3.697470 0.000000 
#    z 0.000000 0.000000 3.732350 
# 
# 
# High freq. dielectric constant tensor:
#      x y z
#    x 1.841410 0.000000 0.000000 
#    y 0.000000 1.807910 0.000000 
#    z 0.000000 0.000000 1.814860 
# 
# From -- ./inp_files/14275.got.cif
#   From: 2010.06.25/outbox.cif.g09.slc.cpg/sg43_8_cif.got.tgz:14275.got - 2010.06.26 16:48:59.
