data_PCOD8187526
_publ_section_title
;
Structure prediction by ZEFSAII (Michael W. Deem and Ramdas Pophale) SiO2 
 PCOD8187526
Probable space group: F D D 2
;
_chemical_formula_sum "Si O2"
_cell_formula_units_Z 112
_cell_length_a 15.704326
_cell_length_b 15.657039
_cell_length_c 21.435630
_cell_angle_alpha 90.000000
_cell_angle_beta 90.000000
_cell_angle_gamma 90.000000
_cell_volume 5270.662256
_symmetry_space_group_name_H-M "F D D 2"
_symmetry_group_IT_number 43
_symmetry_cell_setting 'orthorhombic'
loop_
_space_group_symop_operation_xyz
x,y,z
-x,-y,z
1/4-x,1/4+y,1/4+z
1/4+x,1/4-y,1/4+z
x,1/2+y,1/2+z
-x,1/2-y,1/2+z
1/4-x,3/4+y,3/4+z
1/4+x,3/4-y,3/4+z
1/2+x,y,1/2+z
1/2-x,-y,1/2+z
3/4-x,1/4+y,3/4+z
3/4+x,1/4-y,3/4+z
1/2+x,1/2+y,z
1/2-x,1/2-y,z
3/4-x,3/4+y,1/4+z
3/4+x,3/4-y,1/4+z
loop_
_atom_site_type_symbol
_atom_site_label
_atom_site_fract_x
_atom_site_fract_y
_atom_site_fract_z
Si Si1 0.250000 0.250000 0.540480
Si Si2 0.995696 0.275761 0.227529
Si Si3 0.194828 0.831758 0.386109
Si Si4 0.250000 0.750000 0.794527
Si Si5 0.492067 0.147079 0.883427
Si Si6 0.665573 0.055680 0.593733
Si Si7 0.874686 0.370732 0.720110
Si Si8 0.819845 0.684486 0.745262
O O1 0.287884 0.320295 0.587689
O O2 0.326711 0.204697 0.500237
O O3 0.979443 0.334021 0.168328
O O4 0.910341 0.229786 0.251003
O O5 0.036337 0.339407 0.281118
O O6 0.057429 0.201501 0.202958
O O7 0.250000 0.750000 0.405525
O O8 0.097217 0.813764 0.407725
O O9 0.204474 0.851749 0.312652
O O10 0.185800 0.803370 0.837134
O O11 0.199063 0.675247 0.759218
O O12 0.544822 0.210529 0.840161
O O13 0.559689 0.134735 0.940266
O O14 0.680470 0.103469 0.658591
O O15 0.750000 0.750000 0.720914
#
# Coordination Sequence:
#
# PCOD8187526 Si02
#       8
#     8  16  16   8  16  16  16  16
#     4  12  21  44  74 108 137 188 244 302 354 412
#     4  11  23  49  67 101 141 178 235 301 353 427
#     4  11  25  45  69 101 139 183 229 290 368 430
#     4  10  23  48  64 100 141 192 230 300 360 424
#     4  12  23  41  71 106 136 178 237 303 349 421
#     4  11  25  43  67  99 145 182 234 296 349 435
#     4  11  26  43  74 100 148 187 241 289 362 438
#     4  11  22  41  70  98 134 171 227 300 351 407
#
# _framework density 21.249701000000002
#
# number of rings (size 3 to 8) (size 9 to 14) (size 15 to 20)
#    0.000    0.857    6.429    0.429    6.000    3.429 
#    3.857    0.000    0.000    0.000    0.000    0.000 
#    0.000    0.000    0.000    0.000    0.000    0.000 
#
# Total GULP energy -346884.688134 kJ/mol
# GULP energy per Si atom -12388.738862 kJ/mol
# Density = 2.120134 g / cm^3
# Si number density = 21.249701 Si / 1000 Ang^3
#
#
#
# Elastic Constant Matrix: (Units=GPa)
#
#
# Indices 1 2 3 4 5 6 
#
# 1 127.0770 41.6141 23.1248 0.0000 0.0000 0.0000
# 2 41.6141 83.4233 39.9835 0.0000 0.0000 0.0000
# 3 23.1248 39.9835 105.4472 0.0000 0.0000 0.0000
# 4 0.0000 0.0000 0.0000 73.3045 0.0000 0.0000
# 5 0.0000 0.0000 0.0000 0.0000 22.1264 0.0000
# 6 0.0000 0.0000 0.0000 0.0000 0.0000 40.8906
#
#
#
# Elastic Compliance Matrix: (Units=1/GPa)
#
#
# Indices 1 2 3 4 5 6 
#
# 1 0.009416 -0.004531 -0.000347 0.000000 0.000000 0.000000
# 2 -0.004531 0.016829 -0.005388 0.000000 0.000000 0.000000
# 3 -0.000347 -0.005388 0.011602 0.000000 0.000000 0.000000
# 4 0.000000 0.000000 0.000000 0.013642 0.000000 0.000000
# 5 0.000000 0.000000 0.000000 0.000000 0.045195 0.000000
# 6 0.000000 0.000000 0.000000 0.000000 0.000000 0.024455
#
#
# Mechanical properties :
#
#
# Convention : Reuss Voigt Hill
#
# Bulk Modulus (GPa) = 57.74697 58.37693 58.06195
# Shear Modulus (GPa) = 33.91135 41.34598 37.62867
#
# Velocity S-wave (km/s) = 3.99914 4.41582 4.21264
# Velocity P-wave (km/s) = 6.96840 7.31647 7.14456
#
# Compressibility (1/GPa) = 0.01731693
#
# Stress axis : x y z
#
# Youngs Moduli (GPa) = 106.20143 59.41980 86.18857
#
# Poissons Ratio (x) = 0.26921 0.02991
# Poissons Ratio (y) = 0.48117 0.46437
# Poissons Ratio (z) = 0.03685 0.32014
#
# Static dielectric constant tensor:
#      x y z
#    x 4.018470 0.000000 0.000000 
#    y 0.000000 3.558920 0.000000 
#    z 0.000000 0.000000 3.871250 
# 
# 
# High freq. dielectric constant tensor:
#      x y z
#    x 1.844570 0.000000 0.000000 
#    y 0.000000 1.814110 0.000000 
#    z 0.000000 0.000000 1.846370 
# 
# From -- ./inp_files/21749.got.cif
#   From: 2010.06.25/outbox.cif.g09.slc.cpg/sg43_11_cif.got.tgz:21749.got - 2010.06.26 16:48:59.
