data_PCOD8187019
_publ_section_title
;
Structure prediction by ZEFSAII (Michael W. Deem and Ramdas Pophale) SiO2 
 PCOD8187019
Probable space group: F D D 2
;
_chemical_formula_sum "Si O2"
_cell_formula_units_Z 72
_cell_length_a 15.463234
_cell_length_b 24.916753
_cell_length_c 9.126073
_cell_angle_alpha 90.000000
_cell_angle_beta 90.000000
_cell_angle_gamma 90.000000
_cell_volume 3516.217357
_symmetry_space_group_name_H-M "F D D 2"
_symmetry_group_IT_number 43
_symmetry_cell_setting 'orthorhombic'
loop_
_space_group_symop_operation_xyz
x,y,z
-x,-y,z
1/4-x,1/4+y,1/4+z
1/4+x,1/4-y,1/4+z
x,1/2+y,1/2+z
-x,1/2-y,1/2+z
1/4-x,3/4+y,3/4+z
1/4+x,3/4-y,3/4+z
1/2+x,y,1/2+z
1/2-x,-y,1/2+z
3/4-x,1/4+y,3/4+z
3/4+x,1/4-y,3/4+z
1/2+x,1/2+y,z
1/2-x,1/2-y,z
3/4-x,3/4+y,1/4+z
3/4+x,3/4-y,1/4+z
loop_
_atom_site_type_symbol
_atom_site_label
_atom_site_fract_x
_atom_site_fract_y
_atom_site_fract_z
Si Si1 0.543405 0.091363 0.971020
Si Si2 0.918861 0.293319 0.919577
Si Si3 0.250000 0.250000 0.527034
Si Si4 0.276069 0.450022 0.961455
Si Si5 0.389807 0.881378 0.275489
O O1 0.568791 0.144338 0.876359
O O2 0.560637 0.039166 0.873845
O O3 0.597439 0.087067 0.121627
O O4 0.441690 0.091866 0.008986
O O5 0.958914 0.254038 0.799682
O O6 0.816286 0.283291 0.927969
O O7 0.966512 0.284869 0.073961
O O8 0.367401 0.424283 0.904369
O O9 0.224329 0.405342 0.059168
#
# Coordination Sequence:
#
# PCOD8187019 Si02
#       5
#    16  16   8  16  16
#     4  10  19  38  63  94 116 170 211 255 306 391
#     4  10  24  39  64  92 130 160 216 258 318 372
#     4  12  22  40  64  90 128 168 210 256 324 374
#     4  10  20  42  61  94 126 170 207 264 311 379
#     4   8  18  37  63  89 125 157 219 247 312 376
#
# _framework density 20.47655
#
# number of rings (size 3 to 8) (size 9 to 14) (size 15 to 20)
#    0.000    2.667    4.444    0.000    6.222    0.000 
#    8.000    3.333    0.000    0.000    0.000    0.000 
#    0.000    0.000    0.000    0.000    0.000    0.000 
#
# Total GULP energy -223070.091172 kJ/mol
# GULP energy per Si atom -12392.782843 kJ/mol
# Density = 2.042994 g / cm^3
# Si number density = 20.476550 Si / 1000 Ang^3
#
#
#
# Elastic Constant Matrix: (Units=GPa)
#
#
# Indices 1 2 3 4 5 6 
#
# 1 79.9288 36.4941 30.2485 0.0000 0.0000 0.0000
# 2 36.4941 140.4660 37.5240 0.0000 0.0000 0.0000
# 3 30.2485 37.5240 41.7146 0.0000 0.0000 0.0000
# 4 0.0000 0.0000 0.0000 37.2205 0.0000 0.0000
# 5 0.0000 0.0000 0.0000 0.0000 28.5239 0.0000
# 6 0.0000 0.0000 0.0000 0.0000 0.0000 20.3159
#
#
#
# Elastic Compliance Matrix: (Units=1/GPa)
#
#
# Indices 1 2 3 4 5 6 
#
# 1 0.017487 -0.001521 -0.011311 0.000000 0.000000 0.000000
# 2 -0.001521 0.009503 -0.007446 0.000000 0.000000 0.000000
# 3 -0.011311 -0.007446 0.038872 0.000000 0.000000 0.000000
# 4 0.000000 0.000000 0.000000 0.026867 0.000000 0.000000
# 5 0.000000 0.000000 0.000000 0.000000 0.035058 0.000000
# 6 0.000000 0.000000 0.000000 0.000000 0.000000 0.049223
#
#
# Mechanical properties :
#
#
# Convention : Reuss Voigt Hill
#
# Bulk Modulus (GPa) = 39.51714 52.29364 45.90539
# Shear Modulus (GPa) = 22.12370 27.73491 24.92931
#
# Velocity S-wave (km/s) = 3.29057 3.68431 3.49299
# Velocity P-wave (km/s) = 5.81187 6.61004 6.22376
#
# Compressibility (1/GPa) = 0.02530548
#
# Stress axis : x y z
#
# Youngs Moduli (GPa) = 57.18691 105.22527 25.72529
#
# Poissons Ratio (x) = 0.16009 0.29099
# Poissons Ratio (y) = 0.08700 0.19154
# Poissons Ratio (z) = 0.64687 0.78346
#
# Static dielectric constant tensor:
#      x y z
#    x 3.827960 0.000000 0.000000 
#    y 0.000000 3.853130 0.000000 
#    z 0.000000 0.000000 3.504500 
# 
# 
# High freq. dielectric constant tensor:
#      x y z
#    x 1.803870 0.000000 0.000000 
#    y 0.000000 1.802320 0.000000 
#    z 0.000000 0.000000 1.763900 
# 
# From -- ./inp_files/2324.got.cif
#   From: 2010.06.25/outbox.cif.g09.slc.cpg/sg43_2_cif.got.tgz:2324.got - 2010.06.26 16:48:59.
