data_PCOD8187499
_publ_section_title
;
Structure prediction by ZEFSAII (Michael W. Deem and Ramdas Pophale) SiO2 
 PCOD8187499
Probable space group: F D D 2
;
_chemical_formula_sum "Si O2"
_cell_formula_units_Z 88
_cell_length_a 16.155042
_cell_length_b 29.261686
_cell_length_c 8.817052
_cell_angle_alpha 90.000000
_cell_angle_beta 90.000000
_cell_angle_gamma 90.000000
_cell_volume 4168.030029
_symmetry_space_group_name_H-M "F D D 2"
_symmetry_group_IT_number 43
_symmetry_cell_setting 'orthorhombic'
loop_
_space_group_symop_operation_xyz
x,y,z
-x,-y,z
1/4-x,1/4+y,1/4+z
1/4+x,1/4-y,1/4+z
x,1/2+y,1/2+z
-x,1/2-y,1/2+z
1/4-x,3/4+y,3/4+z
1/4+x,3/4-y,3/4+z
1/2+x,y,1/2+z
1/2-x,-y,1/2+z
3/4-x,1/4+y,3/4+z
3/4+x,1/4-y,3/4+z
1/2+x,1/2+y,z
1/2-x,1/2-y,z
3/4-x,3/4+y,1/4+z
3/4+x,3/4-y,1/4+z
loop_
_atom_site_type_symbol
_atom_site_label
_atom_site_fract_x
_atom_site_fract_y
_atom_site_fract_z
Si Si1 0.522108 0.666205 0.683410
Si Si2 0.876569 0.975630 0.034602
Si Si3 0.302721 0.326018 0.833418
Si Si4 0.750000 0.250000 0.544671
Si Si5 0.107321 0.172689 0.376003
Si Si6 0.219313 0.833765 0.021299
O O1 0.461868 0.703671 0.754333
O O2 0.605127 0.663255 0.780175
O O3 0.477617 0.617454 0.688216
O O4 0.541495 0.679845 0.510640
O O5 0.915486 0.955935 0.190683
O O6 0.863990 0.029884 0.038829
O O7 0.940689 0.967607 0.896727
O O8 0.238549 0.318304 0.693836
O O9 0.305933 0.281476 0.937309
O O10 0.078089 0.132200 0.264741
O O11 0.195836 0.157090 0.435670
#
# Coordination Sequence:
#
# PCOD8187499 Si02
#       6
#    16  16  16   8  16  16
#     4  10  24  43  69  96 137 169 235 277 347 411
#     4  12  25  42  68 104 136 177 233 291 333 419
#     4  10  24  46  67  96 132 189 216 287 350 412
#     4  12  26  40  66  98 140 172 236 278 348 406
#     4  10  23  44  66  99 129 184 224 273 346 413
#     4  10  23  45  69  92 137 176 226 279 340 410
#
# _framework density 21.113091000000001
#
# number of rings (size 3 to 8) (size 9 to 14) (size 15 to 20)
#    0.000    1.455    1.818    1.091   10.182    4.364 
#    0.000    0.000    0.000    0.000    0.000    0.000 
#    0.000    0.000    0.000    0.000    0.000    0.000 
#
# Total GULP energy -272901.919784 kJ/mol
# GULP energy per Si atom -12404.632717 kJ/mol
# Density = 2.106504 g / cm^3
# Si number density = 21.113091 Si / 1000 Ang^3
#
#
#
# Elastic Constant Matrix: (Units=GPa)
#
#
# Indices 1 2 3 4 5 6 
#
# 1 98.4303 42.6767 35.0652 0.0000 -0.0001 0.0000
# 2 42.6767 120.0395 53.0155 0.0000 0.0000 0.0000
# 3 35.0652 53.0155 81.7295 0.0000 -0.0003 0.0000
# 4 0.0000 0.0000 0.0000 38.1945 0.0000 0.0000
# 5 -0.0001 0.0000 -0.0003 0.0000 34.1987 0.0000
# 6 0.0000 0.0000 0.0000 0.0000 0.0000 38.3384
#
#
#
# Elastic Compliance Matrix: (Units=1/GPa)
#
#
# Indices 1 2 3 4 5 6 
#
# 1 0.012699 -0.002955 -0.003531 0.000000 0.000000 0.000000
# 2 -0.002955 0.012363 -0.006752 0.000000 0.000000 0.000000
# 3 -0.003531 -0.006752 0.018130 0.000000 0.000000 0.000000
# 4 0.000000 0.000000 0.000000 0.026182 0.000000 0.000000
# 5 0.000000 0.000000 0.000000 0.000000 0.029241 0.000000
# 6 0.000000 0.000000 0.000000 0.000000 0.000000 0.026084
#
#
# Mechanical properties :
#
#
# Convention : Reuss Voigt Hill
#
# Bulk Modulus (GPa) = 59.82400 62.41266 61.11833
# Shear Modulus (GPa) = 31.89864 33.44244 32.67054
#
# Velocity S-wave (km/s) = 3.89118 3.98423 3.93798
# Velocity P-wave (km/s) = 6.97029 7.12676 7.04896
#
# Compressibility (1/GPa) = 0.01671570
#
# Stress axis : x y z
#
# Youngs Moduli (GPa) = 78.74800 80.88610 55.15648
#
# Poissons Ratio (x) = 0.23902 0.19478
# Poissons Ratio (y) = 0.23270 0.37240
# Poissons Ratio (z) = 0.27809 0.54612
#
# Static dielectric constant tensor:
#      x y z
#    x 3.885820 0.000000 0.000000 
#    y 0.000000 3.779630 0.000000 
#    z 0.000000 0.000000 3.903310 
# 
# 
# High freq. dielectric constant tensor:
#      x y z
#    x 1.835770 0.000000 0.000000 
#    y 0.000000 1.828690 0.000000 
#    z 0.000000 0.000000 1.827630 
# 
# From -- ./inp_files/2903.got.cif
#   From: 2010.06.25/outbox.cif.g09.slc.cpg/sg43_2_cif.got.tgz:2903.got - 2010.06.26 16:48:59.
