data_PCOD8187849
_publ_section_title
;
Structure prediction by ZEFSAII (Michael W. Deem and Ramdas Pophale) SiO2 
 PCOD8187849
Probable space group: F D D 2
;
_chemical_formula_sum "Si O2"
_cell_formula_units_Z 64
_cell_length_a 15.509885
_cell_length_b 14.575163
_cell_length_c 12.081623
_cell_angle_alpha 90.000000
_cell_angle_beta 90.000000
_cell_angle_gamma 90.000000
_cell_volume 2731.160846
_symmetry_space_group_name_H-M "F D D 2"
_symmetry_group_IT_number 43
_symmetry_cell_setting 'orthorhombic'
loop_
_space_group_symop_operation_xyz
x,y,z
-x,-y,z
1/4-x,1/4+y,1/4+z
1/4+x,1/4-y,1/4+z
x,1/2+y,1/2+z
-x,1/2-y,1/2+z
1/4-x,3/4+y,3/4+z
1/4+x,3/4-y,3/4+z
1/2+x,y,1/2+z
1/2-x,-y,1/2+z
3/4-x,1/4+y,3/4+z
3/4+x,1/4-y,3/4+z
1/2+x,1/2+y,z
1/2-x,1/2-y,z
3/4-x,3/4+y,1/4+z
3/4+x,3/4-y,1/4+z
loop_
_atom_site_type_symbol
_atom_site_label
_atom_site_fract_x
_atom_site_fract_y
_atom_site_fract_z
Si Si1 0.463693 0.402277 0.614770
Si Si2 0.887393 0.946233 0.847826
Si Si3 0.571663 0.439996 0.219098
Si Si4 0.330608 0.142202 0.335468
O O1 0.500000 0.500000 0.574245
O O2 0.536343 0.326828 0.596601
O O3 0.435584 0.405265 0.742039
O O4 0.381585 0.374008 0.541623
O O5 0.894731 0.056562 0.850415
O O6 0.933746 0.905809 0.954860
O O7 0.500000 0.500000 0.290620
O O8 0.622216 0.515488 0.142060
O O9 0.514895 0.374387 0.137499
#
# Coordination Sequence:
#
# PCOD8187849 Si02
#       4
#    16  16  16  16
#     4  12  28  48  75 118 158 198 262 336 399 460
#     4  12  26  47  75 113 150 203 258 331 391 471
#     4   8  24  49  76 106 149 207 258 312 389 478
#     4   9  24  48  77 105 152 205 263 309 397 475
#
# _framework density 23.433260000000001
#
# number of rings (size 3 to 8) (size 9 to 14) (size 15 to 20)
#    1.500    0.000    2.500    0.000    7.000    9.000 
#    0.000    0.000    0.000    0.000    0.000    0.000 
#    0.000    0.000    0.000    0.000    0.000    0.000 
#
# Total GULP energy -198223.880937 kJ/mol
# GULP energy per Si atom -12388.992559 kJ/mol
# Density = 2.337992 g / cm^3
# Si number density = 23.433260 Si / 1000 Ang^3
#
#
#
# Elastic Constant Matrix: (Units=GPa)
#
#
# Indices 1 2 3 4 5 6 
#
# 1 108.3759 25.5998 57.7414 0.0000 0.0000 0.0000
# 2 25.5998 76.8130 35.0755 0.0000 0.0000 0.0000
# 3 57.7414 35.0755 110.0543 0.0000 0.0000 0.0000
# 4 0.0000 0.0000 0.0000 31.8335 0.0000 0.0000
# 5 0.0000 0.0000 0.0000 0.0000 40.9549 0.0000
# 6 0.0000 0.0000 0.0000 0.0000 0.0000 39.6027
#
#
#
# Elastic Compliance Matrix: (Units=1/GPa)
#
#
# Indices 1 2 3 4 5 6 
#
# 1 0.012938 -0.001419 -0.006336 0.000000 0.000000 0.000000
# 2 -0.001419 0.015392 -0.004161 0.000000 0.000000 0.000000
# 3 -0.006336 -0.004161 0.013737 0.000000 0.000000 0.000000
# 4 0.000000 0.000000 0.000000 0.031413 0.000000 0.000000
# 5 0.000000 0.000000 0.000000 0.000000 0.024417 0.000000
# 6 0.000000 0.000000 0.000000 0.000000 0.000000 0.025251
#
#
# Mechanical properties :
#
#
# Convention : Reuss Voigt Hill
#
# Bulk Modulus (GPa) = 54.83988 59.11961 56.97975
# Shear Modulus (GPa) = 32.66747 34.26665 33.46706
#
# Velocity S-wave (km/s) = 3.73777 3.82816 3.78324
# Velocity P-wave (km/s) = 6.48701 6.69503 6.59184
#
# Compressibility (1/GPa) = 0.01823490
#
# Stress axis : x y z
#
# Youngs Moduli (GPa) = 77.29191 64.97068 72.79692
#
# Poissons Ratio (x) = 0.09217 0.46124
# Poissons Ratio (y) = 0.10965 0.30292
# Poissons Ratio (z) = 0.48972 0.27035
#
# Static dielectric constant tensor:
#      x y z
#    x 4.018100 0.000000 0.000000 
#    y 0.000000 4.443770 0.000000 
#    z 0.000000 0.000000 4.057290 
# 
# 
# High freq. dielectric constant tensor:
#      x y z
#    x 1.920410 0.000000 0.000000 
#    y 0.000000 1.928180 0.000000 
#    z 0.000000 0.000000 1.921830 
# 
# From -- ./inp_files/5950.got.cif
#   From: 2010.06.25/outbox.cif.g09.slc.cpg/sg43_3_cif.got.tgz:5950.got - 2010.06.26 16:48:59.
