data_PCOD8187246
_publ_section_title
;
Structure prediction by ZEFSAII (Michael W. Deem and Ramdas Pophale) SiO2 
 PCOD8187246
Probable space group: F D D 2
;
_chemical_formula_sum "Si O2"
_cell_formula_units_Z 120
_cell_length_a 11.988943
_cell_length_b 20.083308
_cell_length_c 22.670645
_cell_angle_alpha 90.000000
_cell_angle_beta 90.000000
_cell_angle_gamma 90.000000
_cell_volume 5458.584284
_symmetry_space_group_name_H-M "F D D 2"
_symmetry_group_IT_number 43
_symmetry_cell_setting 'orthorhombic'
loop_
_space_group_symop_operation_xyz
x,y,z
-x,-y,z
1/4-x,1/4+y,1/4+z
1/4+x,1/4-y,1/4+z
x,1/2+y,1/2+z
-x,1/2-y,1/2+z
1/4-x,3/4+y,3/4+z
1/4+x,3/4-y,3/4+z
1/2+x,y,1/2+z
1/2-x,-y,1/2+z
3/4-x,1/4+y,3/4+z
3/4+x,1/4-y,3/4+z
1/2+x,1/2+y,z
1/2-x,1/2-y,z
3/4-x,3/4+y,1/4+z
3/4+x,3/4-y,1/4+z
loop_
_atom_site_type_symbol
_atom_site_label
_atom_site_fract_x
_atom_site_fract_y
_atom_site_fract_z
Si Si1 0.367423 0.173344 0.364510
Si Si2 0.041350 0.605031 0.960233
Si Si3 0.002555 0.280031 0.051612
Si Si4 0.172819 0.603434 0.743551
Si Si5 0.892683 0.819916 0.347746
Si Si6 0.325753 0.520204 0.436264
Si Si7 0.582108 0.866932 0.246185
Si Si8 0.250000 0.250000 0.016821
O O1 0.366716 0.148901 0.430513
O O2 0.238857 0.173876 0.350365
O O3 0.427716 0.243255 0.350704
O O4 0.429183 0.124920 0.317963
O O5 0.041546 0.648687 0.901601
O O6 0.149373 0.555694 0.957338
O O7 0.930201 0.562949 0.956271
O O8 0.034804 0.651082 0.019045
O O9 0.951365 0.277423 0.117057
O O10 0.137310 0.269426 0.053636
O O11 0.943488 0.220814 0.016512
O O12 0.083972 0.642416 0.785568
O O13 0.288455 0.641355 0.731057
O O14 0.221196 0.549842 0.471381
O O15 0.527839 0.936686 0.223804
#
# Coordination Sequence:
#
# PCOD8187246 Si02
#       8
#    16  16  16  16  16  16  16   8
#     4  10  22  39  64  93 129 167 216 280 338 407
#     4  11  23  43  63  94 140 177 227 284 334 417
#     4  11  22  43  69  99 128 186 223 287 350 402
#     4  10  21  40  66  93 126 169 223 275 346 398
#     4  10  21  41  59  93 130 165 222 273 334 407
#     4  11  25  42  66  99 137 175 234 279 341 417
#     4  10  23  41  62  97 126 170 221 278 336 409
#     4  10  22  44  68  88 134 164 232 282 338 412
#
# _framework density 21.983722
#
# number of rings (size 3 to 8) (size 9 to 14) (size 15 to 20)
#    0.000    1.600    4.000    0.000    1.867    3.200 
#    0.000    1.333    0.000    0.000    0.000    0.000 
#    0.000    0.000    0.000    0.000    0.000    0.000 
#
# Total GULP energy -371656.812776 kJ/mol
# GULP energy per Si atom -12388.560426 kJ/mol
# Density = 2.193369 g / cm^3
# Si number density = 21.983722 Si / 1000 Ang^3
#
#
#
# Elastic Constant Matrix: (Units=GPa)
#
#
# Indices 1 2 3 4 5 6 
#
# 1 18.3069 27.5885 -1.9568 0.0000 0.0000 0.0000
# 2 27.5885 92.6389 45.0501 0.0000 0.0000 0.0000
# 3 -1.9568 45.0501 111.9496 0.0000 0.0000 0.0000
# 4 0.0000 0.0000 0.0000 34.5387 0.0000 0.0000
# 5 0.0000 0.0000 0.0000 0.0000 25.9821 0.0000
# 6 0.0000 0.0000 0.0000 0.0000 0.0000 32.7034
#
#
#
# Elastic Compliance Matrix: (Units=1/GPa)
#
#
# Indices 1 2 3 4 5 6 
#
# 1 0.133937 -0.051008 0.022867 0.000000 0.000000 0.000000
# 2 -0.051008 0.032846 -0.014109 0.000000 0.000000 0.000000
# 3 0.022867 -0.014109 0.015010 0.000000 0.000000 0.000000
# 4 0.000000 0.000000 0.000000 0.028953 0.000000 0.000000
# 5 0.000000 0.000000 0.000000 0.000000 0.038488 0.000000
# 6 0.000000 0.000000 0.000000 0.000000 0.000000 0.030578
#
#
# Mechanical properties :
#
#
# Convention : Reuss Voigt Hill
#
# Bulk Modulus (GPa) = 10.27813 40.47323 25.37568
# Shear Modulus (GPa) = 12.60261 28.79240 20.69750
#
# Velocity S-wave (km/s) = 2.39690 3.62292 3.07170
# Velocity P-wave (km/s) = 3.51364 5.99594 4.91411
#
# Compressibility (1/GPa) = 0.09729392
#
# Stress axis : x y z
#
# Youngs Moduli (GPa) = 7.46620 30.44479 66.62183
#
# Poissons Ratio (x) = 1.55291 -1.52346
# Poissons Ratio (y) = 0.38083 0.93999
# Poissons Ratio (z) = -0.17073 0.42956
#
# Static dielectric constant tensor:
#      x y z
#    x 3.863400 0.000000 0.000000 
#    y 0.000000 4.689460 0.000000 
#    z 0.000000 0.000000 4.009170 
# 
# 
# High freq. dielectric constant tensor:
#      x y z
#    x 1.857180 0.000000 0.000000 
#    y 0.000000 1.882580 0.000000 
#    z 0.000000 0.000000 1.854130 
# 
# From -- ./inp_files/18391.got.cif
#   From: 2010.06.25/outbox.cif.g09.slc.cpg/sg43_10_cif.got.tgz:18391.got - 2010.06.26 16:48:59.
