data_PCOD8187276
_publ_section_title
;
Structure prediction by ZEFSAII (Michael W. Deem and Ramdas Pophale) SiO2 
 PCOD8187276
Probable space group: F D D 2
;
_chemical_formula_sum "Si O2"
_cell_formula_units_Z 120
_cell_length_a 27.848946
_cell_length_b 15.291730
_cell_length_c 12.425563
_cell_angle_alpha 90.000000
_cell_angle_beta 90.000000
_cell_angle_gamma 90.000000
_cell_volume 5291.532404
_symmetry_space_group_name_H-M "F D D 2"
_symmetry_group_IT_number 43
_symmetry_cell_setting 'orthorhombic'
loop_
_space_group_symop_operation_xyz
x,y,z
-x,-y,z
1/4-x,1/4+y,1/4+z
1/4+x,1/4-y,1/4+z
x,1/2+y,1/2+z
-x,1/2-y,1/2+z
1/4-x,3/4+y,3/4+z
1/4+x,3/4-y,3/4+z
1/2+x,y,1/2+z
1/2-x,-y,1/2+z
3/4-x,1/4+y,3/4+z
3/4+x,1/4-y,3/4+z
1/2+x,1/2+y,z
1/2-x,1/2-y,z
3/4-x,3/4+y,1/4+z
3/4+x,3/4-y,1/4+z
loop_
_atom_site_type_symbol
_atom_site_label
_atom_site_fract_x
_atom_site_fract_y
_atom_site_fract_z
Si Si1 0.981168 0.652109 0.504700
Si Si2 0.000000 0.000000 0.863188
Si Si3 0.271706 0.448637 0.618642
Si Si4 0.872107 0.683203 0.546965
Si Si5 0.800084 0.564411 0.438552
Si Si6 0.713336 0.622062 0.837666
Si Si7 0.861655 0.379768 0.029786
Si Si8 0.441571 0.443196 0.669713
O O1 0.929508 0.692872 0.531496
O O2 0.970873 0.564487 0.439678
O O3 0.015585 0.710660 0.430310
O O4 0.013074 0.634368 0.610884
O O5 0.958211 0.951797 0.793762
O O6 0.222127 0.432237 0.557823
O O7 0.287180 0.377917 0.708514
O O8 0.315183 0.443523 0.532974
O O9 0.850116 0.616457 0.456952
O O10 0.847804 0.777498 0.527408
O O11 0.860631 0.652263 0.669062
O O12 0.808490 0.464929 0.395429
O O13 0.769245 0.630470 0.865953
O O14 0.685827 0.708228 0.875171
O O15 0.891628 0.397317 0.140673
#
# Coordination Sequence:
#
# PCOD8187276 Si02
#       8
#    16   8  16  16  16  16  16  16
#     4  11  25  45  67 102 142 191 234 290 365 424
#     4  10  24  40  70  94 140 190 232 292 346 436
#     4  11  22  42  68  97 137 182 228 294 352 418
#     4  12  27  46  71 106 145 189 239 300 358 441
#     4  11  23  43  70  97 146 187 229 294 359 424
#     4   9  20  40  66  99 132 183 231 283 356 416
#     4  12  26  42  71 106 137 183 242 296 357 430
#     4  10  21  42  70  99 135 177 238 295 348 420
#
# _framework density 22.677741000000001
#
# number of rings (size 3 to 8) (size 9 to 14) (size 15 to 20)
#    0.000    1.333    1.333    5.600    3.733    3.733 
#    2.400    0.000    0.000    0.000    0.000    0.000 
#    0.000    0.000    0.000    0.000    0.000    0.000 
#
# Total GULP energy -371752.674588 kJ/mol
# GULP energy per Si atom -12391.755820 kJ/mol
# Density = 2.262613 g / cm^3
# Si number density = 22.677741 Si / 1000 Ang^3
#
#
#
# Elastic Constant Matrix: (Units=GPa)
#
#
# Indices 1 2 3 4 5 6 
#
# 1 72.9818 36.3876 18.3712 0.0000 0.0000 0.0000
# 2 36.3876 90.1538 33.1864 0.0000 0.0000 0.0000
# 3 18.3712 33.1864 110.3767 0.0000 0.0000 0.0000
# 4 0.0000 0.0000 0.0000 32.8328 0.0000 0.0000
# 5 0.0000 0.0000 0.0000 0.0000 26.3053 0.0000
# 6 0.0000 0.0000 0.0000 0.0000 0.0000 31.1887
#
#
#
# Elastic Compliance Matrix: (Units=1/GPa)
#
#
# Indices 1 2 3 4 5 6 
#
# 1 0.017229 -0.006632 -0.000873 0.000000 0.000000 0.000000
# 2 -0.006632 0.015026 -0.003414 0.000000 0.000000 0.000000
# 3 -0.000873 -0.003414 0.010232 0.000000 0.000000 0.000000
# 4 0.000000 0.000000 0.000000 0.030457 0.000000 0.000000
# 5 0.000000 0.000000 0.000000 0.000000 0.038015 0.000000
# 6 0.000000 0.000000 0.000000 0.000000 0.000000 0.032063
#
#
# Mechanical properties :
#
#
# Convention : Reuss Voigt Hill
#
# Bulk Modulus (GPa) = 48.43329 49.93364 49.18346
# Shear Modulus (GPa) = 29.11331 30.43651 29.77491
#
# Velocity S-wave (km/s) = 3.58688 3.66749 3.62741
# Velocity P-wave (km/s) = 6.20950 6.32460 6.26731
#
# Compressibility (1/GPa) = 0.02064696
#
# Stress axis : x y z
#
# Youngs Moduli (GPa) = 58.04281 66.55264 97.73560
#
# Poissons Ratio (x) = 0.44139 0.08537
# Poissons Ratio (y) = 0.38495 0.33365
# Poissons Ratio (z) = 0.05070 0.22720
#
# Static dielectric constant tensor:
#      x y z
#    x 3.761230 0.000000 0.000000 
#    y 0.000000 3.999220 0.000000 
#    z 0.000000 0.000000 4.396070 
# 
# 
# High freq. dielectric constant tensor:
#      x y z
#    x 1.874480 0.000000 0.000000 
#    y 0.000000 1.893300 0.000000 
#    z 0.000000 0.000000 1.907470 
# 
# From -- ./inp_files/7980.got.cif
#   From: 2010.06.25/outbox.cif.g09.slc.cpg/sg43_4_cif.got.tgz:7980.got - 2010.06.26 16:48:59.
