data_PCOD8187501
_publ_section_title
;
Structure prediction by ZEFSAII (Michael W. Deem and Ramdas Pophale) SiO2 
 PCOD8187501
Probable space group: F D D 2
;
_chemical_formula_sum "Si O2"
_cell_formula_units_Z 104
_cell_length_a 24.835402
_cell_length_b 11.434624
_cell_length_c 16.161239
_cell_angle_alpha 90.000000
_cell_angle_beta 90.000000
_cell_angle_gamma 90.000000
_cell_volume 4589.524953
_symmetry_space_group_name_H-M "F D D 2"
_symmetry_group_IT_number 43
_symmetry_cell_setting 'orthorhombic'
loop_
_space_group_symop_operation_xyz
x,y,z
-x,-y,z
1/4-x,1/4+y,1/4+z
1/4+x,1/4-y,1/4+z
x,1/2+y,1/2+z
-x,1/2-y,1/2+z
1/4-x,3/4+y,3/4+z
1/4+x,3/4-y,3/4+z
1/2+x,y,1/2+z
1/2-x,-y,1/2+z
3/4-x,1/4+y,3/4+z
3/4+x,1/4-y,3/4+z
1/2+x,1/2+y,z
1/2-x,1/2-y,z
3/4-x,3/4+y,1/4+z
3/4+x,3/4-y,1/4+z
loop_
_atom_site_type_symbol
_atom_site_label
_atom_site_fract_x
_atom_site_fract_y
_atom_site_fract_z
Si Si1 0.395752 0.655551 0.847000
Si Si2 0.250000 0.250000 0.602898
Si Si3 0.464035 0.146323 0.004804
Si Si4 0.683600 0.416818 0.984773
Si Si5 0.487958 0.872347 0.170170
Si Si6 0.009413 0.630684 0.424763
Si Si7 0.653462 0.346134 0.536709
O O1 0.346141 0.648946 0.910150
O O2 0.386827 0.766832 0.786925
O O3 0.453267 0.680402 0.890461
O O4 0.399991 0.543668 0.788274
O O5 0.280008 0.340519 0.663959
O O6 0.289618 0.180500 0.542562
O O7 0.469480 0.287024 0.998344
O O8 0.510025 0.110767 0.070828
O O9 0.407352 0.106636 0.045411
O O10 0.724523 0.516050 0.950975
O O11 0.426618 0.851679 0.200109
O O12 0.500000 0.000000 0.212914
O O13 0.057057 0.639810 0.358080
O O14 0.000000 0.500000 0.458682
#
# Coordination Sequence:
#
# PCOD8187501 Si02
#       7
#    16   8  16  16  16  16  16
#     4  11  23  45  76 101 144 193 247 306 366 447
#     4  12  28  54  64 106 168 188 236 330 378 448
#     4  12  26  43  75 106 147 197 246 302 387 447
#     4  12  26  51  74 108 149 199 249 313 381 445
#     4  12  23  44  74 106 146 187 252 307 365 449
#     4  10  23  44  68 101 146 188 244 312 366 441
#     4  11  23  41  74 106 139 190 250 308 360 439
#
# _framework density 22.660297
#
# number of rings (size 3 to 8) (size 9 to 14) (size 15 to 20)
#    0.000    0.615    6.923    0.462    6.462    1.231 
#    9.692    0.000    0.000    0.000    0.000    0.000 
#    0.000    0.000    0.000    0.000    0.000    0.000 
#
# Total GULP energy -322208.716021 kJ/mol
# GULP energy per Si atom -12392.642924 kJ/mol
# Density = 2.260872 g / cm^3
# Si number density = 22.660297 Si / 1000 Ang^3
#
#
#
# Elastic Constant Matrix: (Units=GPa)
#
#
# Indices 1 2 3 4 5 6 
#
# 1 100.7982 25.5879 50.7858 0.0000 0.0000 0.0000
# 2 25.5879 93.6393 52.1216 0.0000 0.0000 0.0000
# 3 50.7858 52.1216 123.4614 0.0000 0.0000 0.0000
# 4 0.0000 0.0000 0.0000 37.5441 0.0000 0.0000
# 5 0.0000 0.0000 0.0000 0.0000 45.2006 0.0000
# 6 0.0000 0.0000 0.0000 0.0000 0.0000 24.7023
#
#
#
# Elastic Compliance Matrix: (Units=1/GPa)
#
#
# Indices 1 2 3 4 5 6 
#
# 1 0.012552 -0.000727 -0.004857 0.000000 0.000000 0.000000
# 2 -0.000727 0.014002 -0.005612 0.000000 0.000000 0.000000
# 3 -0.004857 -0.005612 0.012467 0.000000 0.000000 0.000000
# 4 0.000000 0.000000 0.000000 0.026635 0.000000 0.000000
# 5 0.000000 0.000000 0.000000 0.000000 0.022124 0.000000
# 6 0.000000 0.000000 0.000000 0.000000 0.000000 0.040482
#
#
# Mechanical properties :
#
#
# Convention : Reuss Voigt Hill
#
# Bulk Modulus (GPa) = 60.13324 63.87663 62.00493
# Shear Modulus (GPa) = 32.01113 34.11631 33.06372
#
# Velocity S-wave (km/s) = 3.76260 3.88436 3.82397
# Velocity P-wave (km/s) = 6.74320 6.95468 6.84976
#
# Compressibility (1/GPa) = 0.01662974
#
# Stress axis : x y z
#
# Youngs Moduli (GPa) = 79.66739 71.41989 80.21375
#
# Poissons Ratio (x) = 0.05191 0.38956
# Poissons Ratio (y) = 0.05790 0.45017
# Poissons Ratio (z) = 0.38691 0.40082
#
# Static dielectric constant tensor:
#      x y z
#    x 4.174410 0.000000 0.000000 
#    y 0.000000 4.138140 0.000000 
#    z 0.000000 0.000000 4.083620 
# 
# 
# High freq. dielectric constant tensor:
#      x y z
#    x 1.887070 0.000000 0.000000 
#    y 0.000000 1.890430 0.000000 
#    z 0.000000 0.000000 1.893280 
# 
# From -- ./inp_files/15051.got.cif
#   From: 2010.06.25/outbox.cif.g09.slc.cpg/sg43_8_cif.got.tgz:15051.got - 2010.06.26 16:48:59.
