data_PCOD8187510
_publ_section_title
;
Structure prediction by ZEFSAII (Michael W. Deem and Ramdas Pophale) SiO2 
 PCOD8187510
Probable space group: F D D 2
;
_chemical_formula_sum "Si O2"
_cell_formula_units_Z 72
_cell_length_a 26.556867
_cell_length_b 17.386380
_cell_length_c 6.888784
_cell_angle_alpha 90.000000
_cell_angle_beta 90.000000
_cell_angle_gamma 90.000000
_cell_volume 3180.742952
_symmetry_space_group_name_H-M "F D D 2"
_symmetry_group_IT_number 43
_symmetry_cell_setting 'orthorhombic'
loop_
_space_group_symop_operation_xyz
x,y,z
-x,-y,z
1/4-x,1/4+y,1/4+z
1/4+x,1/4-y,1/4+z
x,1/2+y,1/2+z
-x,1/2-y,1/2+z
1/4-x,3/4+y,3/4+z
1/4+x,3/4-y,3/4+z
1/2+x,y,1/2+z
1/2-x,-y,1/2+z
3/4-x,1/4+y,3/4+z
3/4+x,1/4-y,3/4+z
1/2+x,1/2+y,z
1/2-x,1/2-y,z
3/4-x,3/4+y,1/4+z
3/4+x,3/4-y,1/4+z
loop_
_atom_site_type_symbol
_atom_site_label
_atom_site_fract_x
_atom_site_fract_y
_atom_site_fract_z
Si Si1 0.741202 0.585201 0.202140
Si Si2 0.750000 0.750000 0.090072
Si Si3 0.594919 0.735031 0.550237
Si Si4 0.594083 0.060348 0.117244
Si Si5 0.179634 0.513815 0.388755
O O1 0.796751 0.554455 0.257613
O O2 0.740920 0.676907 0.229647
O O3 0.893537 0.688128 0.001118
O O4 0.724956 0.565888 0.978561
O O5 0.701509 0.762527 0.955936
O O6 0.578167 0.649106 0.605951
O O7 0.643371 0.768494 0.662640
O O8 0.549021 0.794566 0.596571
O O9 0.604548 0.731604 0.317150
#
# Coordination Sequence:
#
# PCOD8187510 Si02
#       5
#    16   8  16  16  16
#     4  10  23  46  71 103 140 183 228 290 359 409
#     4  12  26  40  74 106 140 188 234 302 338 428
#     4  10  27  43  73 102 137 191 227 294 352 425
#     4  12  24  48  69 102 144 184 241 288 356 412
#     4  10  23  45  73 100 141 183 235 292 347 431
#
# _framework density 22.636220000000002
#
# number of rings (size 3 to 8) (size 9 to 14) (size 15 to 20)
#    1.333    0.000    0.000    5.333    3.111    1.778 
#    0.000    1.111    0.000    0.000    0.000    0.000 
#    0.000    0.000    0.000    0.000    0.000    0.000 
#
# Total GULP energy -223083.840377 kJ/mol
# GULP energy per Si atom -12393.546688 kJ/mol
# Density = 2.258470 g / cm^3
# Si number density = 22.636220 Si / 1000 Ang^3
#
#
#
# Elastic Constant Matrix: (Units=GPa)
#
#
# Indices 1 2 3 4 5 6 
#
# 1 96.6242 55.2735 45.6055 -0.0001 -0.0001 0.0000
# 2 55.2735 178.3671 39.0182 -0.0001 0.0000 0.0000
# 3 45.6055 39.0182 101.4253 -0.0010 -0.0011 0.0003
# 4 -0.0001 -0.0001 -0.0010 28.6571 -0.0003 0.0001
# 5 -0.0001 0.0000 -0.0011 -0.0003 34.2630 0.0001
# 6 0.0000 0.0000 0.0003 0.0001 0.0001 36.9956
#
#
#
# Elastic Compliance Matrix: (Units=1/GPa)
#
#
# Indices 1 2 3 4 5 6 
#
# 1 0.014836 -0.003427 -0.005353 0.000000 0.000000 0.000000
# 2 -0.003427 0.006913 -0.001119 0.000000 0.000000 0.000000
# 3 -0.005353 -0.001119 0.012697 0.000000 0.000000 0.000000
# 4 0.000000 0.000000 0.000000 0.034895 0.000000 0.000000
# 5 0.000000 0.000000 0.000000 0.000000 0.029186 0.000000
# 6 0.000000 0.000000 0.000000 0.000000 0.000000 0.027030
#
#
# Mechanical properties :
#
#
# Convention : Reuss Voigt Hill
#
# Bulk Modulus (GPa) = 68.26094 72.91232 70.58663
# Shear Modulus (GPa) = 33.28090 35.75110 34.51600
#
# Velocity S-wave (km/s) = 3.83854 3.97845 3.90912
# Velocity P-wave (km/s) = 7.06166 7.30647 7.18510
#
# Compressibility (1/GPa) = 0.01464967
#
# Stress axis : x y z
#
# Youngs Moduli (GPa) = 67.40395 144.65585 78.76083
#
# Poissons Ratio (x) = 0.49567 0.42159
# Poissons Ratio (y) = 0.23096 0.08811
# Poissons Ratio (z) = 0.36080 0.16182
#
# Static dielectric constant tensor:
#      x y z
#    x 3.865120 0.000000 0.000000 
#    y 0.000000 3.906360 0.000000 
#    z 0.000000 0.000000 3.955290 
# 
# 
# High freq. dielectric constant tensor:
#      x y z
#    x 1.887880 0.000000 0.000000 
#    y 0.000000 1.890710 0.000000 
#    z 0.000000 0.000000 1.884890 
# 
# From -- ./inp_files/4119.got.cif
#   From: 2010.06.25/outbox.cif.g09.slc.cpg/sg43_3_cif.got.tgz:4119.got - 2010.06.26 16:48:59.
