data_PCOD8187868
_publ_section_title
;
Structure prediction by ZEFSAII (Michael W. Deem and Ramdas Pophale) SiO2 
 PCOD8187868
Probable space group: I M M 2
;
_chemical_formula_sum "Si O2"
_cell_formula_units_Z 40
_cell_length_a 26.235013
_cell_length_b 9.220698
_cell_length_c 9.641279
_cell_angle_alpha 90.000000
_cell_angle_beta 90.000000
_cell_angle_gamma 90.000000
_cell_volume 2332.274868
_symmetry_space_group_name_H-M "I M M 2"
_symmetry_group_IT_number 44
_symmetry_cell_setting 'orthorhombic'
loop_
_space_group_symop_operation_xyz
x,y,z
-x,-y,z
-x,y,z
x,-y,z
1/2+x,1/2+y,1/2+z
1/2-x,1/2-y,1/2+z
1/2-x,1/2+y,1/2+z
1/2+x,1/2-y,1/2+z
loop_
_atom_site_type_symbol
_atom_site_label
_atom_site_fract_x
_atom_site_fract_y
_atom_site_fract_z
Si Si1 0.891808 0.840171 0.626750
Si Si2 0.000000 0.328927 0.314684
Si Si3 0.292623 0.329822 0.813516
Si Si4 0.204985 0.329623 0.600442
Si Si5 0.403909 0.339064 0.797220
Si Si6 0.500000 0.330830 0.101101
O O1 0.848309 0.725638 0.667483
O O2 0.901082 0.839131 0.462875
O O3 0.948087 0.802150 0.690854
O O4 0.873945 0.000000 0.676089
O O5 0.948446 0.267348 0.242068
O O6 0.000000 0.500000 0.301438
O O7 0.000000 0.279450 0.473196
O O8 0.291650 0.500000 0.850054
O O9 0.249713 0.285583 0.704632
O O10 0.347668 0.288494 0.746129
O O11 0.282610 0.244019 0.954725
O O12 0.200917 0.500000 0.577892
O O13 0.416482 0.500000 0.741497
O O14 0.500000 0.500000 0.049129
#
# Coordination Sequence:
#
# PCOD8187868 Si02
#       6
#     8   4   8   8   8   4
#     4   8  14  25  40  58  83 114 144 176 215 258
#     4  10  16  20  32  58  85 104 133 178 218 252
#     4   9  19  33  46  64  91 120 150 182 217 262
#     4  10  19  30  46  68  91 116 149 186 221 259
#     4   8  14  26  40  53  78 115 144 168 208 260
#     4   8  14  24  36  52  79 114 143 166 206 262
#
# _framework density 17.150635999999999
#
# number of rings (size 3 to 8) (size 9 to 14) (size 15 to 20)
#    0.000    3.200    0.000    3.900    0.000    8.800 
#    0.000    0.000    0.000    0.000    0.000    1.400 
#    0.000    3.200    0.000    0.000    0.000    0.000 
#
# Total GULP energy -247769.924894 kJ/mol
# GULP energy per Si atom -12388.496245 kJ/mol
# Density = 1.711160 g / cm^3
# Si number density = 17.150636 Si / 1000 Ang^3
#
#
#
# Elastic Constant Matrix: (Units=GPa)
#
#
# Indices 1 2 3 4 5 6 
#
# 1 198.5428 80.1944 44.5396 0.0000 0.0000 0.0000
# 2 80.1944 96.0252 31.6977 0.0000 0.0000 0.0000
# 3 44.5396 31.6977 28.8680 0.0000 0.0000 0.0000
# 4 0.0000 0.0000 0.0000 12.9752 0.0000 0.0000
# 5 0.0000 0.0000 0.0000 0.0000 18.6404 0.0000
# 6 0.0000 0.0000 0.0000 0.0000 0.0000 32.5441
#
#
#
# Elastic Compliance Matrix: (Units=1/GPa)
#
#
# Indices 1 2 3 4 5 6 
#
# 1 0.008785 -0.004490 -0.008624 0.000000 0.000000 0.000000
# 2 -0.004490 0.018629 -0.013528 0.000000 0.000000 0.000000
# 3 -0.008624 -0.013528 0.062800 0.000000 0.000000 0.000000
# 4 0.000000 0.000000 0.000000 0.077070 0.000000 0.000000
# 5 0.000000 0.000000 0.000000 0.000000 0.053647 0.000000
# 6 0.000000 0.000000 0.000000 0.000000 0.000000 0.030728
#
#
# Mechanical properties :
#
#
# Convention : Reuss Voigt Hill
#
# Bulk Modulus (GPa) = 27.07786 70.69993 48.88889
# Shear Modulus (GPa) = 15.76036 23.96557 19.86296
#
# Velocity S-wave (km/s) = 3.03469 3.74218 3.40685
# Velocity P-wave (km/s) = 5.30110 7.74495 6.63649
#
# Compressibility (1/GPa) = 0.03693054
#
# Stress axis : x y z
#
# Youngs Moduli (GPa) = 113.83255 53.67957 15.92358
#
# Poissons Ratio (x) = 0.24101 0.13732
# Poissons Ratio (y) = 0.51109 0.21541
# Poissons Ratio (z) = 0.98169 0.72617
#
# Static dielectric constant tensor:
#      x y z
#    x 4.212530 0.000000 0.000000 
#    y 0.000000 3.148420 0.000000 
#    z 0.000000 0.000000 2.495660 
# 
# 
# High freq. dielectric constant tensor:
#      x y z
#    x 1.695920 0.000000 0.000000 
#    y 0.000000 1.658620 0.000000 
#    z 0.000000 0.000000 1.573350 
# 
# From -- ./inp_files/9626.got.cif
#   From: 2010.03.12/outbox.cif.g09.slc.cpg/sg44_5_cif.got.tgz:9626.got - 2010.04.14 02:36:11.
