data_PCOD8187005
_publ_section_title
;
Structure prediction by ZEFSAII (Michael W. Deem and Ramdas Pophale) SiO2 
 PCOD8187005
Probable space group: F D D 2
;
_chemical_formula_sum "Si O2"
_cell_formula_units_Z 96
_cell_length_a 19.197275
_cell_length_b 8.144030
_cell_length_c 28.517535
_cell_angle_alpha 90.000000
_cell_angle_beta 90.000000
_cell_angle_gamma 90.000000
_cell_volume 4458.522208
_symmetry_space_group_name_H-M "F D D 2"
_symmetry_group_IT_number 43
_symmetry_cell_setting 'orthorhombic'
loop_
_space_group_symop_operation_xyz
x,y,z
-x,-y,z
1/4-x,1/4+y,1/4+z
1/4+x,1/4-y,1/4+z
x,1/2+y,1/2+z
-x,1/2-y,1/2+z
1/4-x,3/4+y,3/4+z
1/4+x,3/4-y,3/4+z
1/2+x,y,1/2+z
1/2-x,-y,1/2+z
3/4-x,1/4+y,3/4+z
3/4+x,1/4-y,3/4+z
1/2+x,1/2+y,z
1/2-x,1/2-y,z
3/4-x,3/4+y,1/4+z
3/4+x,3/4-y,1/4+z
loop_
_atom_site_type_symbol
_atom_site_label
_atom_site_fract_x
_atom_site_fract_y
_atom_site_fract_z
Si Si1 0.326314 0.674924 0.520750
Si Si2 0.778282 0.926405 0.878292
Si Si3 0.153720 0.510263 0.924995
Si Si4 0.525936 0.687088 0.437583
Si Si5 0.835854 0.530514 0.120918
Si Si6 0.780461 0.575053 0.281857
O O1 0.250000 0.750000 0.513495
O O2 0.349847 0.572164 0.475818
O O3 0.324652 0.551462 0.565258
O O4 0.385130 0.818775 0.525162
O O5 0.750000 0.750000 0.894104
O O6 0.733564 0.053718 0.910265
O O7 0.861572 0.927087 0.888348
O O8 0.762047 0.951558 0.823682
O O9 0.108790 0.678807 0.926864
O O10 0.120577 0.394191 0.884053
O O11 0.500000 0.500000 0.438788
O O12 0.488141 0.794747 0.397242
O O13 0.512182 0.771744 0.486629
O O14 0.750000 0.750000 0.296905
#
# Coordination Sequence:
#
# PCOD8187005 Si02
#       6
#    16  16  16  16  16  16
#     4  11  22  38  64  96 126 172 222 267 322 396
#     4   9  19  36  63  87 116 166 210 261 312 387
#     4  10  20  36  67  90 122 163 225 270 316 387
#     4  10  19  37  62  92 118 166 218 263 314 394
#     4   9  19  34  58  93 120 158 210 265 314 378
#     4  11  23  38  61  93 129 166 209 265 330 388
#
# _framework density 21.531798999999999
#
# number of rings (size 3 to 8) (size 9 to 14) (size 15 to 20)
#    0.000    2.000    3.333    2.000    4.667    2.000 
#    0.000    1.667    0.000    0.000    0.000    0.000 
#    0.000    0.000    0.000    0.000    0.000    0.000 
#
# Total GULP energy -297324.195305 kJ/mol
# GULP energy per Si atom -12388.508138 kJ/mol
# Density = 2.148279 g / cm^3
# Si number density = 21.531799 Si / 1000 Ang^3
#
#
#
# Elastic Constant Matrix: (Units=GPa)
#
#
# Indices 1 2 3 4 5 6 
#
# 1 168.3236 40.3922 49.0758 0.0000 0.0000 0.0000
# 2 40.3922 40.7428 25.3579 0.0000 0.0000 -0.0001
# 3 49.0758 25.3579 104.6709 0.0000 0.0000 0.0000
# 4 0.0000 0.0000 0.0000 13.4362 0.0000 0.0000
# 5 0.0000 0.0000 0.0000 0.0000 33.0306 0.0000
# 6 0.0000 -0.0001 0.0000 0.0000 0.0000 25.5155
#
#
#
# Elastic Compliance Matrix: (Units=1/GPa)
#
#
# Indices 1 2 3 4 5 6 
#
# 1 0.008208 -0.006762 -0.002210 0.000000 0.000000 0.000000
# 2 -0.006762 0.034472 -0.005181 0.000000 0.000000 0.000000
# 3 -0.002210 -0.005181 0.011845 0.000000 0.000000 0.000000
# 4 0.000000 0.000000 0.000000 0.074426 0.000000 0.000000
# 5 0.000000 0.000000 0.000000 0.000000 0.030275 0.000000
# 6 0.000000 0.000000 0.000000 0.000000 0.000000 0.039192
#
#
# Mechanical properties :
#
#
# Convention : Reuss Voigt Hill
#
# Bulk Modulus (GPa) = 38.13960 60.37657 49.25808
# Shear Modulus (GPa) = 21.23465 27.65722 24.44594
#
# Velocity S-wave (km/s) = 3.14379 3.58786 3.37314
# Velocity P-wave (km/s) = 5.56143 6.72794 6.17230
#
# Compressibility (1/GPa) = 0.02621947
#
# Stress axis : x y z
#
# Youngs Moduli (GPa) = 121.83345 29.00874 84.42208
#
# Poissons Ratio (x) = 0.19615 0.18659
# Poissons Ratio (y) = 0.82380 0.43740
# Poissons Ratio (z) = 0.26928 0.15030
#
# Static dielectric constant tensor:
#      x y z
#    x 4.945490 0.000000 0.000000 
#    y 0.000000 3.636780 0.000000 
#    z 0.000000 0.000000 3.905930 
# 
# 
# High freq. dielectric constant tensor:
#      x y z
#    x 1.864830 0.000000 0.000000 
#    y 0.000000 1.795130 0.000000 
#    z 0.000000 0.000000 1.852170 
# 
# From -- ./inp_files/24237.got.cif
#   From: 2010.06.25/outbox.cif.g09.slc.cpg/sg43_13_cif.got.tgz:24237.got - 2010.06.26 16:48:59.
