data_PCOD8187247
_publ_section_title
;
Structure prediction by ZEFSAII (Michael W. Deem and Ramdas Pophale) SiO2 
 PCOD8187247
Probable space group: F D D 2
;
_chemical_formula_sum "Si O2"
_cell_formula_units_Z 120
_cell_length_a 17.311603
_cell_length_b 27.577677
_cell_length_c 11.629310
_cell_angle_alpha 90.000000
_cell_angle_beta 90.000000
_cell_angle_gamma 90.000000
_cell_volume 5551.993031
_symmetry_space_group_name_H-M "F D D 2"
_symmetry_group_IT_number 43
_symmetry_cell_setting 'orthorhombic'
loop_
_space_group_symop_operation_xyz
x,y,z
-x,-y,z
1/4-x,1/4+y,1/4+z
1/4+x,1/4-y,1/4+z
x,1/2+y,1/2+z
-x,1/2-y,1/2+z
1/4-x,3/4+y,3/4+z
1/4+x,3/4-y,3/4+z
1/2+x,y,1/2+z
1/2-x,-y,1/2+z
3/4-x,1/4+y,3/4+z
3/4+x,1/4-y,3/4+z
1/2+x,1/2+y,z
1/2-x,1/2-y,z
3/4-x,3/4+y,1/4+z
3/4+x,3/4-y,1/4+z
loop_
_atom_site_type_symbol
_atom_site_label
_atom_site_fract_x
_atom_site_fract_y
_atom_site_fract_z
Si Si1 0.357306 0.529694 0.512340
Si Si2 0.457995 0.837716 0.472585
Si Si3 0.414996 0.585381 0.915904
Si Si4 0.194043 0.145179 0.628751
Si Si5 0.000000 0.000000 0.825189
Si Si6 0.883288 0.450173 0.185912
Si Si7 0.762460 0.509774 0.797732
Si Si8 0.348596 0.089503 0.664214
O O1 0.336506 0.565598 0.614701
O O2 0.427746 0.553271 0.439802
O O3 0.379922 0.477118 0.562225
O O4 0.284586 0.522077 0.428241
O O5 0.507848 0.882619 0.427216
O O6 0.392924 0.853985 0.565588
O O7 0.517316 0.798119 0.526567
O O8 0.437627 0.528950 0.899845
O O9 0.369673 0.585174 0.033488
O O10 0.131436 0.106636 0.675227
O O11 0.280381 0.129981 0.664057
O O12 0.173948 0.147115 0.491720
O O13 0.033657 0.041943 0.742252
O O14 0.824733 0.473972 0.277016
O O15 0.816775 0.537899 0.707424
#
# Coordination Sequence:
#
# PCOD8187247 Si02
#       8
#    16  16  16  16   8  16  16  16
#     4  10  21  40  66  94 127 170 227 268 329 402
#     4  11  25  42  66 100 133 178 218 281 337 403
#     4  12  26  42  67  97 138 172 225 270 346 401
#     4  10  22  40  65  93 129 172 221 279 329 404
#     4  12  24  42  62  96 130 172 214 276 324 392
#     4  10  22  37  64  93 127 166 215 275 330 386
#     4   9  21  41  65  91 122 174 220 261 332 394
#     4  10  23  41  64  94 129 177 218 273 334 402
#
# _framework density 21.613859999999999
#
# number of rings (size 3 to 8) (size 9 to 14) (size 15 to 20)
#    0.000    1.600    2.667    1.600    9.333    5.333 
#    0.000    0.000    0.000    0.000    0.000    0.000 
#    0.000    0.000    0.000    0.000    0.000    0.000 
#
# Total GULP energy -371892.466137 kJ/mol
# GULP energy per Si atom -12396.415538 kJ/mol
# Density = 2.156467 g / cm^3
# Si number density = 21.613860 Si / 1000 Ang^3
#
#
#
# Elastic Constant Matrix: (Units=GPa)
#
#
# Indices 1 2 3 4 5 6 
#
# 1 50.5466 6.0092 21.0459 0.0000 0.0000 0.0000
# 2 6.0092 55.6770 7.2168 0.0000 0.0000 0.0000
# 3 21.0459 7.2168 118.3690 0.0000 0.0000 0.0000
# 4 0.0000 0.0000 0.0000 31.3004 0.0000 0.0000
# 5 0.0000 0.0000 0.0000 0.0000 30.7114 0.0000
# 6 0.0000 0.0000 0.0000 0.0000 0.0000 28.0087
#
#
#
# Elastic Compliance Matrix: (Units=1/GPa)
#
#
# Indices 1 2 3 4 5 6 
#
# 1 0.021552 -0.001844 -0.003719 0.000000 0.000000 0.000000
# 2 -0.001844 0.018262 -0.000786 0.000000 0.000000 0.000000
# 3 -0.003719 -0.000786 0.009157 0.000000 0.000000 0.000000
# 4 0.000000 0.000000 0.000000 0.031949 0.000000 0.000000
# 5 0.000000 0.000000 0.000000 0.000000 0.032561 0.000000
# 6 0.000000 0.000000 0.000000 0.000000 0.000000 0.035703
#
#
# Mechanical properties :
#
#
# Convention : Reuss Voigt Hill
#
# Bulk Modulus (GPa) = 27.56896 32.57073 30.06985
# Shear Modulus (GPa) = 28.74021 30.69212 29.71617
#
# Velocity S-wave (km/s) = 3.65048 3.77240 3.71194
# Velocity P-wave (km/s) = 5.52729 5.83753 5.68453
#
# Compressibility (1/GPa) = 0.03627268
#
# Stress axis : x y z
#
# Youngs Moduli (GPa) = 46.40024 54.75981 109.20170
#
# Poissons Ratio (x) = 0.10098 0.40617
# Poissons Ratio (y) = 0.08556 0.08578
# Poissons Ratio (z) = 0.17258 0.04302
#
# Static dielectric constant tensor:
#      x y z
#    x 3.764400 0.000000 0.000000 
#    y 0.000000 4.176550 0.000000 
#    z 0.000000 0.000000 3.997610 
# 
# 
# High freq. dielectric constant tensor:
#      x y z
#    x 1.839870 0.000000 0.000000 
#    y 0.000000 1.846060 0.000000 
#    z 0.000000 0.000000 1.858740 
# 
# From -- ./inp_files/6819.got.cif
#   From: 2010.06.25/outbox.cif.g09.slc.cpg/sg43_4_cif.got.tgz:6819.got - 2010.06.26 16:48:59.
