data_PCOD8187656
_publ_section_title
;
Structure prediction by ZEFSAII (Michael W. Deem and Ramdas Pophale) SiO2 
 PCOD8187656
Probable space group: F D D 2
;
_chemical_formula_sum "Si O2"
_cell_formula_units_Z 64
_cell_length_a 7.821651
_cell_length_b 14.009690
_cell_length_c 26.524290
_cell_angle_alpha 90.000000
_cell_angle_beta 90.000000
_cell_angle_gamma 90.000000
_cell_volume 2906.502675
_symmetry_space_group_name_H-M "F D D 2"
_symmetry_group_IT_number 43
_symmetry_cell_setting 'orthorhombic'
loop_
_space_group_symop_operation_xyz
x,y,z
-x,-y,z
1/4-x,1/4+y,1/4+z
1/4+x,1/4-y,1/4+z
x,1/2+y,1/2+z
-x,1/2-y,1/2+z
1/4-x,3/4+y,3/4+z
1/4+x,3/4-y,3/4+z
1/2+x,y,1/2+z
1/2-x,-y,1/2+z
3/4-x,1/4+y,3/4+z
3/4+x,1/4-y,3/4+z
1/2+x,1/2+y,z
1/2-x,1/2-y,z
3/4-x,3/4+y,1/4+z
3/4+x,3/4-y,1/4+z
loop_
_atom_site_type_symbol
_atom_site_label
_atom_site_fract_x
_atom_site_fract_y
_atom_site_fract_z
Si Si1 0.197913 0.858988 0.995850
Si Si2 0.808584 0.479703 0.087220
Si Si3 0.120015 0.668601 0.555063
Si Si4 0.887929 0.671483 0.645959
O O1 0.250000 0.750000 0.997776
O O2 0.232219 0.904631 0.941672
O O3 0.310113 0.915197 0.037107
O O4 0.995027 0.866329 0.007854
O O5 0.716815 0.579053 0.077598
O O6 0.707750 0.427232 0.132266
O O7 0.000000 0.500000 0.105257
O O8 0.250000 0.750000 0.536678
O O9 0.995041 0.710814 0.598292
O O10 0.750000 0.750000 0.662103
#
# Coordination Sequence:
#
# PCOD8187656 Si02
#       4
#    16  16  16  16
#     4  11  22  40  63  93 129 166 210 257 311 376
#     4  11  22  42  66  92 127 166 207 262 317 370
#     4  11  23  41  66  93 127 167 208 261 316 369
#     4  11  23  41  65  94 127 165 211 260 312 375
#
# _framework density 22.019590000000001
#
# number of rings (size 3 to 8) (size 9 to 14) (size 15 to 20)
#    0.000    1.000    0.000   11.250    0.000    2.000 
#    0.000   15.000    0.000    0.000    0.000    0.000 
#    0.000    0.000    0.000    0.000    0.000    0.000 
#
# Total GULP energy -198496.265575 kJ/mol
# GULP energy per Si atom -12406.016598 kJ/mol
# Density = 2.196947 g / cm^3
# Si number density = 22.019590 Si / 1000 Ang^3
#
#
#
# Elastic Constant Matrix: (Units=GPa)
#
#
# Indices 1 2 3 4 5 6 
#
# 1 162.3212 44.7444 58.9107 0.0000 0.0000 0.0000
# 2 44.7444 111.2079 23.4825 0.0000 0.0000 0.0000
# 3 58.9107 23.4825 120.1154 0.0000 0.0000 0.0000
# 4 0.0000 0.0000 0.0000 26.0859 0.0000 0.0000
# 5 0.0000 0.0000 0.0000 0.0000 -211.7725 0.0000
# 6 0.0000 0.0000 0.0000 0.0000 0.0000 45.3121
#
#
#
# Elastic Compliance Matrix: (Units=1/GPa)
#
#
# Indices 1 2 3 4 5 6 
#
# 1 0.008125 -0.002532 -0.003490 0.000000 0.000000 0.000000
# 2 -0.002532 0.010169 -0.000746 0.000000 0.000000 0.000000
# 3 -0.003490 -0.000746 0.010183 0.000000 0.000000 0.000000
# 4 0.000000 0.000000 0.000000 0.038335 0.000000 0.000000
# 5 0.000000 0.000000 0.000000 0.000000 -0.004722 0.000000
# 6 0.000000 0.000000 0.000000 0.000000 0.000000 0.022069
#
#
# Mechanical properties :
#
#
# Convention : Reuss Voigt Hill
#
# Bulk Modulus (GPa) = 66.93369 71.99108 69.46238
# Shear Modulus (GPa) = 48.69725 -10.30778 19.19473
#
# Velocity S-wave (km/s) = 4.70781 -2.16595 2.95568
# Velocity P-wave (km/s) = 7.74691 5.14878 6.57741
#
# Compressibility (1/GPa) = 0.01494016
#
# Stress axis : x y z
#
# Youngs Moduli (GPa) = 123.07311 98.34252 98.20447
#
# Poissons Ratio (x) = 0.24903 0.34273
# Poissons Ratio (y) = 0.31165 0.07326
# Poissons Ratio (z) = 0.42952 0.07336
#
# Static dielectric constant tensor:
#      x y z
#    x 9.421220 0.000000 0.000000 
#    y 0.000000 4.096690 0.000000 
#    z 0.000000 0.000000 3.888290 
# 
# 
# High freq. dielectric constant tensor:
#      x y z
#    x 1.875340 0.000000 0.000000 
#    y 0.000000 1.879400 0.000000 
#    z 0.000000 0.000000 1.851060 
# 
# From -- ./inp_files/19918.got.cif
#   From: 2010.06.25/outbox.cif.g09.slc.cpg/sg43_10_cif.got.tgz:19918.got - 2010.06.26 16:48:59.
