data_PCOD8187485
_publ_section_title
;
Structure prediction by ZEFSAII (Michael W. Deem and Ramdas Pophale) SiO2 
 PCOD8187485
Probable space group: F D D 2
;
_chemical_formula_sum "Si O2"
_cell_formula_units_Z 120
_cell_length_a 26.739275
_cell_length_b 8.969958
_cell_length_c 21.907621
_cell_angle_alpha 90.000000
_cell_angle_beta 90.000000
_cell_angle_gamma 90.000000
_cell_volume 5254.546702
_symmetry_space_group_name_H-M "F D D 2"
_symmetry_group_IT_number 43
_symmetry_cell_setting 'orthorhombic'
loop_
_space_group_symop_operation_xyz
x,y,z
-x,-y,z
1/4-x,1/4+y,1/4+z
1/4+x,1/4-y,1/4+z
x,1/2+y,1/2+z
-x,1/2-y,1/2+z
1/4-x,3/4+y,3/4+z
1/4+x,3/4-y,3/4+z
1/2+x,y,1/2+z
1/2-x,-y,1/2+z
3/4-x,1/4+y,3/4+z
3/4+x,1/4-y,3/4+z
1/2+x,1/2+y,z
1/2-x,1/2-y,z
3/4-x,3/4+y,1/4+z
3/4+x,3/4-y,1/4+z
loop_
_atom_site_type_symbol
_atom_site_label
_atom_site_fract_x
_atom_site_fract_y
_atom_site_fract_z
Si Si1 0.194685 0.483549 0.366480
Si Si2 0.594022 0.363440 0.823283
Si Si3 0.250000 0.750000 0.943728
Si Si4 0.523731 0.843280 0.991248
Si Si5 0.809437 0.257025 0.452743
Si Si6 0.426790 0.726698 0.947511
Si Si7 0.857659 0.306375 0.161199
Si Si8 0.161386 0.290652 0.532122
O O1 0.153927 0.375838 0.334174
O O2 0.237764 0.389070 0.400082
O O3 0.217958 0.583591 0.313214
O O4 0.170707 0.597005 0.416068
O O5 0.574449 0.482922 0.774274
O O6 0.572085 0.388595 0.891083
O O7 0.571646 0.202834 0.804553
O O8 0.202034 0.717404 0.986725
O O9 0.483263 0.721658 0.971337
O O10 0.573660 0.828604 0.950457
O O11 0.500000 0.000000 0.974373
O O12 0.750000 0.250000 0.444948
O O13 0.835326 0.108668 0.424695
O O14 0.402082 0.886860 0.930599
O O15 0.391069 0.669377 0.000681
O O16 0.846063 0.322474 0.088914
#
# Coordination Sequence:
#
# PCOD8187485 Si02
#       8
#    16  16   8  16  16  16  16  16
#     4  12  26  45  69  98 145 181 240 292 368 427
#     4  11  23  49  64  99 143 180 226 304 353 435
#     4  12  26  44  72 102 136 194 236 310 348 436
#     4  10  23  44  67  99 134 180 231 294 352 424
#     4  12  27  45  71 105 144 186 242 298 366 439
#     4  10  23  42  69  99 131 180 238 283 350 430
#     4  10  25  42  69 100 137 183 226 296 359 420
#     4  11  25  42  71 100 137 181 246 285 366 426
#
# _framework density 22.837365999999999
#
# number of rings (size 3 to 8) (size 9 to 14) (size 15 to 20)
#    0.000    1.067    4.000    0.400   14.000    0.000 
#    2.400    0.000    0.000    0.000    0.000    0.000 
#    0.000    0.000    0.000    0.000    0.000    0.000 
#
# Total GULP energy -371880.515609 kJ/mol
# GULP energy per Si atom -12396.017187 kJ/mol
# Density = 2.278539 g / cm^3
# Si number density = 22.837366 Si / 1000 Ang^3
#
#
#
# Elastic Constant Matrix: (Units=GPa)
#
#
# Indices 1 2 3 4 5 6 
#
# 1 106.0889 3.7654 36.8202 0.0000 0.0000 0.0000
# 2 3.7654 37.4539 16.7963 0.0000 0.0000 0.0001
# 3 36.8202 16.7963 158.1883 0.0000 0.0000 0.0000
# 4 0.0000 0.0000 0.0000 40.2994 0.0000 0.0000
# 5 0.0000 0.0000 0.0000 0.0000 36.8533 0.0000
# 6 0.0000 0.0001 0.0000 0.0000 0.0000 31.1207
#
#
#
# Elastic Compliance Matrix: (Units=1/GPa)
#
#
# Indices 1 2 3 4 5 6 
#
# 1 0.010255 0.000041 -0.002391 0.000000 0.000000 0.000000
# 2 0.000041 0.028035 -0.002986 0.000000 0.000000 0.000000
# 3 -0.002391 -0.002986 0.007195 0.000000 0.000000 0.000000
# 4 0.000000 0.000000 0.000000 0.024814 0.000000 0.000000
# 5 0.000000 0.000000 0.000000 0.000000 0.027135 0.000000
# 6 0.000000 0.000000 0.000000 0.000000 0.000000 0.032133
#
#
# Mechanical properties :
#
#
# Convention : Reuss Voigt Hill
#
# Bulk Modulus (GPa) = 28.72572 46.27720 37.50146
# Shear Modulus (GPa) = 32.92887 37.94463 35.43675
#
# Velocity S-wave (km/s) = 3.80134 4.08059 3.94344
# Velocity P-wave (km/s) = 5.64558 6.51993 6.09844
#
# Compressibility (1/GPa) = 0.03481201
#
# Stress axis : x y z
#
# Youngs Moduli (GPa) = 97.51803 35.67030 138.98036
#
# Poissons Ratio (x) = -0.00148 0.33234
# Poissons Ratio (y) = -0.00404 0.41504
# Poissons Ratio (z) = 0.23319 0.10652
#
# Static dielectric constant tensor:
#      x y z
#    x 4.140450 0.000000 0.000000 
#    y 0.000000 3.738880 0.000000 
#    z 0.000000 0.000000 4.464830 
# 
# 
# High freq. dielectric constant tensor:
#      x y z
#    x 1.898430 0.000000 0.000000 
#    y 0.000000 1.873500 0.000000 
#    z 0.000000 0.000000 1.924840 
# 
# From -- ./inp_files/22820.got.cif
#   From: 2010.06.25/outbox.cif.g09.slc.cpg/sg43_12_cif.got.tgz:22820.got - 2010.06.26 16:48:59.
