data_PCOD8187578
_publ_section_title
;
Structure prediction by ZEFSAII (Michael W. Deem and Ramdas Pophale) SiO2 
 PCOD8187578
Probable space group: F D D 2
;
_chemical_formula_sum "Si O2"
_cell_formula_units_Z 72
_cell_length_a 5.001460
_cell_length_b 20.518752
_cell_length_c 30.425743
_cell_angle_alpha 90.000000
_cell_angle_beta 90.000000
_cell_angle_gamma 90.000000
_cell_volume 3122.402851
_symmetry_space_group_name_H-M "F D D 2"
_symmetry_group_IT_number 43
_symmetry_cell_setting 'orthorhombic'
loop_
_space_group_symop_operation_xyz
x,y,z
-x,-y,z
1/4-x,1/4+y,1/4+z
1/4+x,1/4-y,1/4+z
x,1/2+y,1/2+z
-x,1/2-y,1/2+z
1/4-x,3/4+y,3/4+z
1/4+x,3/4-y,3/4+z
1/2+x,y,1/2+z
1/2-x,-y,1/2+z
3/4-x,1/4+y,3/4+z
3/4+x,1/4-y,3/4+z
1/2+x,1/2+y,z
1/2-x,1/2-y,z
3/4-x,3/4+y,1/4+z
3/4+x,3/4-y,1/4+z
loop_
_atom_site_type_symbol
_atom_site_label
_atom_site_fract_x
_atom_site_fract_y
_atom_site_fract_z
Si Si1 0.234538 0.675521 0.838780
Si Si2 0.788785 0.905422 0.816866
Si Si3 0.290713 0.678149 0.473486
Si Si4 0.041182 0.127139 0.181487
Si Si5 0.250000 0.750000 0.636710
O O1 0.250000 0.750000 0.824193
O O2 0.447773 0.637379 0.810220
O O3 0.328789 0.669203 0.889257
O O4 0.952016 0.643177 0.827241
O O5 0.801106 0.940396 0.769543
O O6 0.798906 0.959119 0.855429
O O7 0.250000 0.750000 0.452717
O O8 0.485938 0.631813 0.445755
O O9 0.001287 0.642606 0.470000
O O10 0.077487 0.202372 0.167418
#
# Coordination Sequence:
#
# PCOD8187578 Si02
#       5
#    16  16  16  16   8
#     4  11  23  43  67 100 132 182 235 291 346 430
#     4  11  24  43  71  95 141 189 236 284 357 423
#     4  12  24  45  67 103 137 185 234 302 350 421
#     4  11  25  42  71 100 138 180 233 294 359 412
#     4  10  24  48  68 106 140 194 236 290 352 454
#
# _framework density 23.059162000000001
#
# number of rings (size 3 to 8) (size 9 to 14) (size 15 to 20)
#    0.000    0.889    1.111    6.667    0.000    8.000 
#   12.000    0.000    0.000    0.000    0.000    0.000 
#    0.000    0.000    0.000    0.000    0.000    0.000 
#
# Total GULP energy -223102.168334 kJ/mol
# GULP energy per Si atom -12394.564907 kJ/mol
# Density = 2.300668 g / cm^3
# Si number density = 23.059162 Si / 1000 Ang^3
#
#
#
# Elastic Constant Matrix: (Units=GPa)
#
#
# Indices 1 2 3 4 5 6 
#
# 1 202.9496 110.3402 1.4134 0.0000 0.0000 0.0000
# 2 110.3402 205.5975 11.2297 0.0000 0.0000 0.0000
# 3 1.4134 11.2297 78.1785 0.0000 0.0000 0.0000
# 4 0.0000 0.0000 0.0000 44.0369 0.0000 0.0000
# 5 0.0000 0.0000 0.0000 0.0000 38.7756 0.0000
# 6 0.0000 0.0000 0.0000 0.0000 0.0000 49.5899
#
#
#
# Elastic Compliance Matrix: (Units=1/GPa)
#
#
# Indices 1 2 3 4 5 6 
#
# 1 0.006971 -0.003764 0.000415 0.000000 0.000000 0.000000
# 2 -0.003764 0.006934 -0.000928 0.000000 0.000000 0.000000
# 3 0.000415 -0.000928 0.012917 0.000000 0.000000 0.000000
# 4 0.000000 0.000000 0.000000 0.022708 0.000000 0.000000
# 5 0.000000 0.000000 0.000000 0.000000 0.025789 0.000000
# 6 0.000000 0.000000 0.000000 0.000000 0.000000 0.020165
#
#
# Mechanical properties :
#
#
# Convention : Reuss Voigt Hill
#
# Bulk Modulus (GPa) = 54.74061 81.41023 68.07542
# Shear Modulus (GPa) = 45.40138 50.72996 48.06567
#
# Velocity S-wave (km/s) = 4.44205 4.69550 4.57053
# Velocity P-wave (km/s) = 7.07812 8.04851 7.57886
#
# Compressibility (1/GPa) = 0.01826797
#
# Stress axis : x y z
#
# Youngs Moduli (GPa) = 143.45780 144.20748 77.41702
#
# Poissons Ratio (x) = 0.54275 -0.03210
# Poissons Ratio (y) = 0.53993 0.07185
# Poissons Ratio (z) = -0.05948 0.13383
#
# Static dielectric constant tensor:
#      x y z
#    x 4.082270 0.000000 0.000000 
#    y 0.000000 4.147880 0.000000 
#    z 0.000000 0.000000 4.075870 
# 
# 
# High freq. dielectric constant tensor:
#      x y z
#    x 1.919650 0.000000 0.000000 
#    y 0.000000 1.914890 0.000000 
#    z 0.000000 0.000000 1.904540 
# 
# From -- ./inp_files/23428.got.cif
#   From: 2010.06.25/outbox.cif.g09.slc.cpg/sg43_12_cif.got.tgz:23428.got - 2010.06.26 16:48:59.
