data_PCOD8187042
_publ_section_title
;
Structure prediction by ZEFSAII (Michael W. Deem and Ramdas Pophale) SiO2 
 PCOD8187042
Probable space group: F D D 2
;
_chemical_formula_sum "Si O2"
_cell_formula_units_Z 112
_cell_length_a 22.416255
_cell_length_b 14.980430
_cell_length_c 17.987248
_cell_angle_alpha 90.000000
_cell_angle_beta 90.000000
_cell_angle_gamma 90.000000
_cell_volume 6040.210313
_symmetry_space_group_name_H-M "F D D 2"
_symmetry_group_IT_number 43
_symmetry_cell_setting 'orthorhombic'
loop_
_space_group_symop_operation_xyz
x,y,z
-x,-y,z
1/4-x,1/4+y,1/4+z
1/4+x,1/4-y,1/4+z
x,1/2+y,1/2+z
-x,1/2-y,1/2+z
1/4-x,3/4+y,3/4+z
1/4+x,3/4-y,3/4+z
1/2+x,y,1/2+z
1/2-x,-y,1/2+z
3/4-x,1/4+y,3/4+z
3/4+x,1/4-y,3/4+z
1/2+x,1/2+y,z
1/2-x,1/2-y,z
3/4-x,3/4+y,1/4+z
3/4+x,3/4-y,1/4+z
loop_
_atom_site_type_symbol
_atom_site_label
_atom_site_fract_x
_atom_site_fract_y
_atom_site_fract_z
Si Si1 0.884930 0.452901 0.734460
Si Si2 0.844547 0.007441 0.007051
Si Si3 0.690379 0.423041 0.155424
Si Si4 0.878461 0.245588 0.145178
Si Si5 0.516428 0.266924 0.617856
Si Si6 0.785827 0.335048 0.245748
Si Si7 0.549263 0.067613 0.588113
O O1 0.870734 0.347591 0.734912
O O2 0.821438 0.496391 0.712507
O O3 0.903878 0.497750 0.813368
O O4 0.934869 0.468211 0.671055
O O5 0.800295 0.037304 0.073392
O O6 0.892563 0.935329 0.035166
O O7 0.805641 0.965771 0.941273
O O8 0.631899 0.358394 0.166506
O O9 0.750261 0.371950 0.174946
O O10 0.849154 0.308208 0.208964
O O11 0.946922 0.275937 0.138854
O O12 0.540160 0.340905 0.559862
O O13 0.526343 0.168473 0.585684
O O14 0.750000 0.250000 0.278972
O O15 0.500000 0.000000 0.556246
#
# Coordination Sequence:
#
# PCOD8187042 Si02
#       7
#    16  16  16  16  16  16  16
#     4   9  16  31  56  83 117 145 180 251 300 349
#     4   9  20  34  55  88 121 149 197 236 297 364
#     4   9  17  33  56  87 115 150 195 255 294 342
#     4  10  20  34  58  85 114 149 206 241 300 345
#     4  11  21  40  59  83 124 165 194 248 300 359
#     4  10  22  38  57  86 122 157 203 250 296 358
#     4  10  20  34  60  91 116 149 197 248 308 351
#
# _framework density 18.542400000000001
#
# number of rings (size 3 to 8) (size 9 to 14) (size 15 to 20)
#    0.000    2.286    1.429    2.571    0.000    5.143 
#    2.571    0.000    0.000    0.000    0.000    0.000 
#    0.000    0.000    0.000    0.000    0.000    0.000 
#
# Total GULP energy -346922.626615 kJ/mol
# GULP energy per Si atom -12390.093808 kJ/mol
# Density = 1.850020 g / cm^3
# Si number density = 18.542400 Si / 1000 Ang^3
#
#
#
# Elastic Constant Matrix: (Units=GPa)
#
#
# Indices 1 2 3 4 5 6 
#
# 1 95.9074 44.7497 54.6953 0.0000 0.0000 0.0000
# 2 44.7497 91.5736 59.7768 0.0000 0.0000 0.0000
# 3 54.6953 59.7768 116.0122 0.0000 0.0000 0.0000
# 4 0.0000 0.0000 0.0000 37.8027 0.0000 0.0000
# 5 0.0000 0.0000 0.0000 0.0000 19.3859 0.0000
# 6 0.0000 0.0000 0.0000 0.0000 0.0000 21.7552
#
#
#
# Elastic Compliance Matrix: (Units=1/GPa)
#
#
# Indices 1 2 3 4 5 6 
#
# 1 0.015243 -0.004155 -0.005045 0.000000 0.000000 0.000000
# 2 -0.004155 0.017588 -0.007103 0.000000 0.000000 0.000000
# 3 -0.005045 -0.007103 0.014658 0.000000 0.000000 0.000000
# 4 0.000000 0.000000 0.000000 0.026453 0.000000 0.000000
# 5 0.000000 0.000000 0.000000 0.000000 0.051584 0.000000
# 6 0.000000 0.000000 0.000000 0.000000 0.000000 0.045966
#
#
# Mechanical properties :
#
#
# Convention : Reuss Voigt Hill
#
# Bulk Modulus (GPa) = 67.19869 69.10410 68.15140
# Shear Modulus (GPa) = 23.91656 25.40683 24.66170
#
# Velocity S-wave (km/s) = 3.59532 3.70564 3.65090
# Velocity P-wave (km/s) = 7.31808 7.46043 7.38960
#
# Compressibility (1/GPa) = 0.01488124
#
# Stress axis : x y z
#
# Youngs Moduli (GPa) = 65.60420 56.85853 68.22003
#
# Poissons Ratio (x) = 0.23627 0.34419
# Poissons Ratio (y) = 0.27261 0.48457
# Poissons Ratio (z) = 0.33100 0.40387
#
# Static dielectric constant tensor:
#      x y z
#    x 3.179690 0.000000 0.000000 
#    y 0.000000 3.433840 0.000000 
#    z 0.000000 0.000000 3.487490 
# 
# 
# High freq. dielectric constant tensor:
#      x y z
#    x 1.698490 0.000000 0.000000 
#    y 0.000000 1.713040 0.000000 
#    z 0.000000 0.000000 1.719440 
# 
# From -- ./inp_files/14309.got.cif
#   From: 2010.06.25/outbox.cif.g09.slc.cpg/sg43_8_cif.got.tgz:14309.got - 2010.06.26 16:48:59.
