data_PCOD8187950
_publ_section_title
;
Structure prediction by ZEFSAII (Michael W. Deem and Ramdas Pophale) SiO2 
 PCOD8187950
Probable space group: I M M 2
;
_chemical_formula_sum "Si O2"
_cell_formula_units_Z 64
_cell_length_a 13.005342
_cell_length_b 24.625196
_cell_length_c 10.365926
_cell_angle_alpha 90.000000
_cell_angle_beta 90.000000
_cell_angle_gamma 90.000000
_cell_volume 3319.782088
_symmetry_space_group_name_H-M "I M M 2"
_symmetry_group_IT_number 44
_symmetry_cell_setting 'orthorhombic'
loop_
_space_group_symop_operation_xyz
x,y,z
-x,-y,z
-x,y,z
x,-y,z
1/2+x,1/2+y,1/2+z
1/2-x,1/2-y,1/2+z
1/2-x,1/2+y,1/2+z
1/2+x,1/2-y,1/2+z
loop_
_atom_site_type_symbol
_atom_site_label
_atom_site_fract_x
_atom_site_fract_y
_atom_site_fract_z
Si Si1 0.617715 0.937741 0.824040
Si Si2 0.108726 0.562698 0.626536
Si Si3 0.616752 0.557500 0.973445
Si Si4 0.616435 0.336944 0.546481
Si Si5 0.877088 0.170532 0.556765
Si Si6 0.255529 0.166660 0.795282
Si Si7 0.620867 0.728354 0.797566
Si Si8 0.172540 0.937608 0.186620
O O1 0.500000 0.928505 0.776176
O O2 0.696184 0.893034 0.764502
O O3 0.651629 0.000000 0.789629
O O4 0.624447 0.927908 0.975732
O O5 0.097259 0.500000 0.658410
O O6 0.209236 0.584558 0.700444
O O7 0.000000 0.591052 0.670199
O O8 0.500000 0.551404 0.016981
O O9 0.674847 0.500000 0.003544
O O10 0.616971 0.569436 0.821634
O O11 0.663010 0.608145 0.048438
O O12 0.500000 0.319271 0.509261
O O13 0.692107 0.329652 0.427110
O O14 0.660244 0.302523 0.668651
O O15 0.613477 0.400717 0.583495
O O16 0.820319 0.190101 0.684972
O O17 0.836303 0.200959 0.429044
O O18 0.000000 0.175863 0.571754
O O19 0.349180 0.208750 0.799897
O O20 0.500000 0.723254 0.799591
O O21 0.170259 0.000000 0.137066
#
# Coordination Sequence:
#
# PCOD8187950 Si02
#       8
#     8   8   8   8   8   8   8   8
#     4   9  18  33  52  76 108 143 179 219 266 324
#     4   8  14  26  45  72 107 140 172 216 264 308
#     4   9  17  31  53  78 105 145 189 216 250 324
#     4  11  22  36  55  83 115 142 176 226 276 318
#     4  10  21  38  56  79 113 145 177 222 273 323
#     4  12  22  35  58  85 109 139 179 227 281 324
#     4  10  22  41  60  77 103 144 190 225 260 324
#     4  10  17  29  53  82 109 144 185 219 260 318
#
# _framework density 19.278375
#
# number of rings (size 3 to 8) (size 9 to 14) (size 15 to 20)
#    0.000    2.125    2.500    2.625    0.000    1.250 
#    0.000    0.000    0.000    4.500    0.000    1.750 
#    0.000    0.000    0.000    0.000    0.000    0.000 
#
# Total GULP energy -396432.257894 kJ/mol
# GULP energy per Si atom -12388.508059 kJ/mol
# Density = 1.923450 g / cm^3
# Si number density = 19.278375 Si / 1000 Ang^3
#
#
#
# Elastic Constant Matrix: (Units=GPa)
#
#
# Indices 1 2 3 4 5 6 
#
# 1 55.2420 27.0255 21.5014 -0.0001 0.0001 0.0000
# 2 27.0255 90.5763 29.2050 0.0002 0.0001 0.0000
# 3 21.5014 29.2050 80.1110 0.0000 -0.0001 0.0001
# 4 -0.0001 0.0002 0.0000 17.7073 0.0000 0.0000
# 5 0.0001 0.0001 -0.0001 0.0000 18.4474 0.0000
# 6 0.0000 0.0000 0.0001 0.0000 0.0000 25.1812
#
#
#
# Elastic Compliance Matrix: (Units=1/GPa)
#
#
# Indices 1 2 3 4 5 6 
#
# 1 0.022289 -0.005350 -0.004032 0.000000 0.000000 0.000000
# 2 -0.005350 0.013795 -0.003593 0.000000 0.000000 0.000000
# 3 -0.004032 -0.003593 0.014875 0.000000 0.000000 0.000000
# 4 0.000000 0.000000 0.000000 0.056474 0.000000 0.000000
# 5 0.000000 0.000000 0.000000 0.000000 0.054208 0.000000
# 6 0.000000 0.000000 0.000000 0.000000 0.000000 0.039712
#
#
# Mechanical properties :
#
#
# Convention : Reuss Voigt Hill
#
# Bulk Modulus (GPa) = 39.98659 42.37702 41.18181
# Shear Modulus (GPa) = 21.21879 22.14700 21.68290
#
# Velocity S-wave (km/s) = 3.32121 3.39307 3.35733
# Velocity P-wave (km/s) = 5.95768 6.11391 6.03630
#
# Compressibility (1/GPa) = 0.02500838
#
# Stress axis : x y z
#
# Youngs Moduli (GPa) = 44.86524 72.48790 67.22832
#
# Poissons Ratio (x) = 0.38784 0.27105
# Poissons Ratio (y) = 0.24005 0.24156
# Poissons Ratio (z) = 0.18088 0.26046
#
# Static dielectric constant tensor:
#      x y z
#    x 3.583180 0.000000 0.000000 
#    y 0.000000 3.596040 0.000000 
#    z 0.000000 0.000000 3.301770 
# 
# 
# High freq. dielectric constant tensor:
#      x y z
#    x 1.745180 0.000000 0.000000 
#    y 0.000000 1.745890 0.000000 
#    z 0.000000 0.000000 1.723110 
# 
# From -- ./inp_files/7571.got.cif
#   From: 2010.03.12/outbox.cif.g09.slc.cpg/sg44_4_cif.got.tgz:7571.got - 2010.04.14 02:36:11.
