data_PCOD8187904
_publ_section_title
;
Structure prediction by ZEFSAII (Michael W. Deem and Ramdas Pophale) SiO2 
 PCOD8187904
Probable space group: I M M 2
;
_chemical_formula_sum "Si O2"
_cell_formula_units_Z 48
_cell_length_a 12.054790
_cell_length_b 9.215341
_cell_length_c 25.635991
_cell_angle_alpha 90.000000
_cell_angle_beta 90.000000
_cell_angle_gamma 90.000000
_cell_volume 2847.876618
_symmetry_space_group_name_H-M "I M M 2"
_symmetry_group_IT_number 44
_symmetry_cell_setting 'orthorhombic'
loop_
_space_group_symop_operation_xyz
x,y,z
-x,-y,z
-x,y,z
x,-y,z
1/2+x,1/2+y,1/2+z
1/2-x,1/2-y,1/2+z
1/2-x,1/2+y,1/2+z
1/2+x,1/2-y,1/2+z
loop_
_atom_site_type_symbol
_atom_site_label
_atom_site_fract_x
_atom_site_fract_y
_atom_site_fract_z
Si Si1 0.779030 0.671622 0.074670
Si Si2 0.628226 0.329287 0.667269
Si Si3 0.625581 0.672620 0.981601
Si Si4 0.877173 0.827840 0.284029
Si Si5 0.000000 0.327294 0.904237
Si Si6 0.740352 0.173233 0.380629
Si Si7 0.500000 0.171946 0.519527
O O1 0.776242 0.500000 0.083452
O O2 0.780977 0.749355 0.130857
O O3 0.891367 0.727890 0.048213
O O4 0.678386 0.722258 0.037065
O O5 0.500000 0.281386 0.656665
O O6 0.639798 0.500000 0.658851
O O7 0.662531 0.283890 0.726122
O O8 0.500000 0.733166 0.978135
O O9 0.625903 0.500000 0.979336
O O10 0.697638 0.732301 0.932729
O O11 0.797750 0.762845 0.328714
O O12 0.000000 0.765682 0.294369
O O13 0.880333 0.000000 0.288287
O O14 0.887053 0.271788 0.877054
O O15 0.000000 0.500000 0.905960
O O16 0.000000 0.261811 0.962063
O O17 0.744955 0.000000 0.381816
O O18 0.500000 0.000000 0.516447
#
# Coordination Sequence:
#
# PCOD8187904 Si02
#       7
#     8   8   8   8   4   8   4
#     4  10  17  26  43  64  87 111 136 171 211 249
#     4   9  17  28  42  61  85 112 142 175 208 243
#     4   9  16  24  37  60  86 110 137 170 209 252
#     4   8  14  24  37  53  75 105 137 168 203 241
#     4   9  14  20  32  55  85 111 129 156 209 258
#     4   9  14  21  35  55  81 108 133 165 207 253
#     4   9  14  22  35  59  89 109 125 158 211 252
#
# _framework density 16.854662999999999
#
# number of rings (size 3 to 8) (size 9 to 14) (size 15 to 20)
#    0.000    3.000    2.500    1.500    0.000    2.000 
#    0.000    0.000    1.833    0.500    0.000    1.167 
#    0.000    2.667    0.000    0.000    0.000    0.000 
#
# Total GULP energy -297368.010379 kJ/mol
# GULP energy per Si atom -12390.333766 kJ/mol
# Density = 1.681630 g / cm^3
# Si number density = 16.854663 Si / 1000 Ang^3
#
#
#
# Elastic Constant Matrix: (Units=GPa)
#
#
# Indices 1 2 3 4 5 6 
#
# 1 132.8375 12.5853 78.8093 0.0000 0.0000 0.0000
# 2 12.5853 11.4688 20.3116 0.0000 0.0000 0.0000
# 3 78.8093 20.3116 153.2330 0.0000 0.0000 0.0000
# 4 0.0000 0.0000 0.0000 18.0595 0.0000 0.0000
# 5 0.0000 0.0000 0.0000 0.0000 29.5849 0.0000
# 6 0.0000 0.0000 0.0000 0.0000 0.0000 8.8347
#
#
#
# Elastic Compliance Matrix: (Units=1/GPa)
#
#
# Indices 1 2 3 4 5 6 
#
# 1 0.010895 -0.002655 -0.005252 0.000000 0.000000 0.000000
# 2 -0.002655 0.114589 -0.013824 0.000000 0.000000 0.000000
# 3 -0.005252 -0.013824 0.011059 0.000000 0.000000 0.000000
# 4 0.000000 0.000000 0.000000 0.055372 0.000000 0.000000
# 5 0.000000 0.000000 0.000000 0.000000 0.033801 0.000000
# 6 0.000000 0.000000 0.000000 0.000000 0.000000 0.113190
#
#
# Mechanical properties :
#
#
# Convention : Reuss Voigt Hill
#
# Bulk Modulus (GPa) = 10.74311 57.88351 34.31331
# Shear Modulus (GPa) = 12.09496 23.68469 17.88982
#
# Velocity S-wave (km/s) = 2.68172 3.75271 3.26147
# Velocity P-wave (km/s) = 3.99708 7.29345 5.88094
#
# Compressibility (1/GPa) = 0.09308292
#
# Stress axis : x y z
#
# Youngs Moduli (GPa) = 91.78386 8.72683 90.42159
#
# Poissons Ratio (x) = 0.02317 0.47485
# Poissons Ratio (y) = 0.24370 1.24995
# Poissons Ratio (z) = 0.48201 0.12064
#
# Static dielectric constant tensor:
#      x y z
#    x 3.350260 0.000000 0.000000 
#    y 0.000000 2.452890 0.000000 
#    z 0.000000 0.000000 3.389260 
# 
# 
# High freq. dielectric constant tensor:
#      x y z
#    x 1.641490 0.000000 0.000000 
#    y 0.000000 1.572690 0.000000 
#    z 0.000000 0.000000 1.659270 
# 
# From -- ./inp_files/23722.got.cif
#   From: 2010.03.12/outbox.cif.g09.slc.cpg/sg44_12_cif.got.tgz:23722.got - 2010.04.14 02:36:11.
