data_PCOD8187773
_publ_section_title
;
Structure prediction by ZEFSAII (Michael W. Deem and Ramdas Pophale) SiO2 
 PCOD8187773
Probable space group: F D D 2
;
_chemical_formula_sum "Si O2"
_cell_formula_units_Z 88
_cell_length_a 26.823150
_cell_length_b 16.138137
_cell_length_c 7.717865
_cell_angle_alpha 90.000000
_cell_angle_beta 90.000000
_cell_angle_gamma 90.000000
_cell_volume 3340.875979
_symmetry_space_group_name_H-M "F D D 2"
_symmetry_group_IT_number 43
_symmetry_cell_setting 'orthorhombic'
loop_
_space_group_symop_operation_xyz
x,y,z
-x,-y,z
1/4-x,1/4+y,1/4+z
1/4+x,1/4-y,1/4+z
x,1/2+y,1/2+z
-x,1/2-y,1/2+z
1/4-x,3/4+y,3/4+z
1/4+x,3/4-y,3/4+z
1/2+x,y,1/2+z
1/2-x,-y,1/2+z
3/4-x,1/4+y,3/4+z
3/4+x,1/4-y,3/4+z
1/2+x,1/2+y,z
1/2-x,1/2-y,z
3/4-x,3/4+y,1/4+z
3/4+x,3/4-y,1/4+z
loop_
_atom_site_type_symbol
_atom_site_label
_atom_site_fract_x
_atom_site_fract_y
_atom_site_fract_z
Si Si1 0.157289 0.540858 0.054270
Si Si2 0.588818 0.896109 0.455041
Si Si3 0.250000 0.750000 0.837483
Si Si4 0.212165 0.577976 0.391935
Si Si5 0.799897 0.591113 0.501643
Si Si6 0.813929 0.122203 0.389666
O O1 0.194455 0.583909 0.192452
O O2 0.100316 0.548984 0.128044
O O3 0.162260 0.591018 0.877598
O O4 0.164103 0.443372 0.027587
O O5 0.580414 0.842566 0.282451
O O6 0.645157 0.926377 0.420556
O O7 0.546862 0.967976 0.472793
O O8 0.226118 0.821863 0.956776
O O9 0.233637 0.483889 0.423909
O O10 0.256684 0.643438 0.438321
O O11 0.806908 0.578257 0.704820
#
# Coordination Sequence:
#
# PCOD8187773 Si02
#       6
#    16  16   8  16  16  16
#     4  11  27  47  73 111 148 199 251 320 370 465
#     4  11  26  49  74 112 151 205 256 319 383 463
#     4  12  26  46  80 114 156 198 270 318 384 458
#     4  12  25  48  76 107 151 202 249 313 389 452
#     4  11  26  48  78 108 154 208 250 319 388 460
#     4  11  25  49  72 108 151 192 254 309 388 450
#
# _framework density 26.340395999999998
#
# number of rings (size 3 to 8) (size 9 to 14) (size 15 to 20)
#    0.000    0.727    1.818    4.364   12.727    1.455 
#    0.000    0.000    0.000    0.000    0.000    0.000 
#    0.000    0.000    0.000    0.000    0.000    0.000 
#
# Total GULP energy -272681.277597 kJ/mol
# GULP energy per Si atom -12394.603527 kJ/mol
# Density = 2.628044 g / cm^3
# Si number density = 26.340396 Si / 1000 Ang^3
#
#
#
# Elastic Constant Matrix: (Units=GPa)
#
#
# Indices 1 2 3 4 5 6 
#
# 1 131.6362 21.2340 12.8690 0.0000 0.0000 0.0000
# 2 21.2340 46.9203 22.0355 0.0000 0.0000 0.0000
# 3 12.8690 22.0355 94.8592 0.0000 0.0000 0.0000
# 4 0.0000 0.0000 0.0000 29.1149 0.0000 0.0000
# 5 0.0000 0.0000 0.0000 0.0000 40.1392 0.0000
# 6 0.0000 0.0000 0.0000 0.0000 0.0000 47.0245
#
#
#
# Elastic Compliance Matrix: (Units=1/GPa)
#
#
# Indices 1 2 3 4 5 6 
#
# 1 0.008202 -0.003580 -0.000281 0.000000 0.000000 0.000000
# 2 -0.003580 0.025485 -0.005434 0.000000 0.000000 0.000000
# 3 -0.000281 -0.005434 0.011842 0.000000 0.000000 0.000000
# 4 0.000000 0.000000 0.000000 0.034347 0.000000 0.000000
# 5 0.000000 0.000000 0.000000 0.000000 0.024913 0.000000
# 6 0.000000 0.000000 0.000000 0.000000 0.000000 0.021265
#
#
# Mechanical properties :
#
#
# Convention : Reuss Voigt Hill
#
# Bulk Modulus (GPa) = 37.12146 42.85474 39.98810
# Shear Modulus (GPa) = 32.54690 37.74088 35.14389
#
# Velocity S-wave (km/s) = 3.51896 3.78936 3.65666
# Velocity P-wave (km/s) = 5.53483 5.95404 5.74826
#
# Compressibility (1/GPa) = 0.02693860
#
# Stress axis : x y z
#
# Youngs Moduli (GPa) = 121.92734 39.23886 84.44175
#
# Poissons Ratio (x) = 0.14046 0.02374
# Poissons Ratio (y) = 0.43646 0.45889
# Poissons Ratio (z) = 0.03428 0.21324
#
# Static dielectric constant tensor:
#      x y z
#    x 5.443130 0.000000 0.000000 
#    y 0.000000 4.372630 0.000000 
#    z 0.000000 0.000000 4.682280 
# 
# 
# High freq. dielectric constant tensor:
#      x y z
#    x 2.081650 0.000000 0.000000 
#    y 0.000000 2.030790 0.000000 
#    z 0.000000 0.000000 2.070020 
# 
# From -- ./inp_files/4691.got.cif
#   From: 2010.06.25/outbox.cif.g09.slc.cpg/sg43_3_cif.got.tgz:4691.got - 2010.06.26 16:48:59.
