data_PCOD8187565
_publ_section_title
;
Structure prediction by ZEFSAII (Michael W. Deem and Ramdas Pophale) SiO2 
 PCOD8187565
Probable space group: F D D 2
;
_chemical_formula_sum "Si O2"
_cell_formula_units_Z 120
_cell_length_a 16.135930
_cell_length_b 12.184788
_cell_length_c 27.054661
_cell_angle_alpha 90.000000
_cell_angle_beta 90.000000
_cell_angle_gamma 90.000000
_cell_volume 5319.294985
_symmetry_space_group_name_H-M "F D D 2"
_symmetry_group_IT_number 43
_symmetry_cell_setting 'orthorhombic'
loop_
_space_group_symop_operation_xyz
x,y,z
-x,-y,z
1/4-x,1/4+y,1/4+z
1/4+x,1/4-y,1/4+z
x,1/2+y,1/2+z
-x,1/2-y,1/2+z
1/4-x,3/4+y,3/4+z
1/4+x,3/4-y,3/4+z
1/2+x,y,1/2+z
1/2-x,-y,1/2+z
3/4-x,1/4+y,3/4+z
3/4+x,1/4-y,3/4+z
1/2+x,1/2+y,z
1/2-x,1/2-y,z
3/4-x,3/4+y,1/4+z
3/4+x,3/4-y,1/4+z
loop_
_atom_site_type_symbol
_atom_site_label
_atom_site_fract_x
_atom_site_fract_y
_atom_site_fract_z
Si Si1 0.000000 0.500000 0.507190
Si Si2 0.187826 0.832606 0.526658
Si Si3 0.754255 0.514705 0.581523
Si Si4 0.517971 0.240261 0.531018
Si Si5 0.575319 0.241689 0.192864
Si Si6 0.180350 0.845515 0.349209
Si Si7 0.584062 0.160905 0.730973
Si Si8 0.075608 0.208998 0.438751
O O1 0.005752 0.610057 0.540497
O O2 0.083174 0.486147 0.474234
O O3 0.250000 0.750000 0.497558
O O4 0.109605 0.769522 0.548986
O O5 0.245767 0.885428 0.569173
O O6 0.154793 0.932797 0.494173
O O7 0.660538 0.556541 0.585146
O O8 0.802720 0.582539 0.538271
O O9 0.804955 0.515881 0.632157
O O10 0.450713 0.305850 0.562133
O O11 0.505865 0.272987 0.472962
O O12 0.577120 0.146713 0.152941
O O13 0.483861 0.293900 0.193179
O O14 0.645415 0.333347 0.187660
O O15 0.250000 0.750000 0.346787
O O16 0.603692 0.036686 0.713326
#
# Coordination Sequence:
#
# PCOD8187565 Si02
#       8
#     8  16  16  16  16  16  16  16
#     4  10  24  44  72 108 140 198 236 310 372 442
#     4  11  23  45  70 100 143 188 240 302 367 437
#     4  11  25  47  71 109 145 196 253 304 371 444
#     4  11  23  45  71 100 149 191 242 307 369 442
#     4  11  25  43  71 107 140 193 242 303 365 441
#     4  12  26  45  72 109 147 193 253 311 369 447
#     4  10  24  48  74 104 153 192 245 307 367 450
#     4  11  26  45  72 108 148 201 244 307 370 443
#
# _framework density 22.559381999999999
#
# number of rings (size 3 to 8) (size 9 to 14) (size 15 to 20)
#    0.000    1.067    1.333    4.800    3.733    6.933 
#    7.200    0.000    0.000    0.000    0.000    0.000 
#    0.000    0.000    0.000    0.000    0.000    0.000 
#
# Total GULP energy -371845.537929 kJ/mol
# GULP energy per Si atom -12394.851264 kJ/mol
# Density = 2.250804 g / cm^3
# Si number density = 22.559382 Si / 1000 Ang^3
#
#
#
# Elastic Constant Matrix: (Units=GPa)
#
#
# Indices 1 2 3 4 5 6 
#
# 1 116.8829 49.7346 34.2896 0.0000 0.0000 0.0000
# 2 49.7346 154.3418 44.5569 0.0000 0.0000 0.0000
# 3 34.2896 44.5569 104.2219 0.0000 0.0000 0.0000
# 4 0.0000 0.0000 0.0000 36.0233 0.0000 0.0000
# 5 0.0000 0.0000 0.0000 0.0000 32.7683 0.0000
# 6 0.0000 0.0000 0.0000 0.0000 0.0000 45.4184
#
#
#
# Elastic Compliance Matrix: (Units=1/GPa)
#
#
# Indices 1 2 3 4 5 6 
#
# 1 0.010362 -0.002686 -0.002261 0.000000 0.000000 0.000000
# 2 -0.002686 0.008088 -0.002574 0.000000 0.000000 0.000000
# 3 -0.002261 -0.002574 0.011439 0.000000 0.000000 0.000000
# 4 0.000000 0.000000 0.000000 0.027760 0.000000 0.000000
# 5 0.000000 0.000000 0.000000 0.000000 0.030517 0.000000
# 6 0.000000 0.000000 0.000000 0.000000 0.000000 0.022018
#
#
# Mechanical properties :
#
#
# Convention : Reuss Voigt Hill
#
# Bulk Modulus (GPa) = 67.35373 70.28989 68.82181
# Shear Modulus (GPa) = 38.41011 39.29968 38.85489
#
# Velocity S-wave (km/s) = 4.13076 4.17832 4.15461
# Velocity P-wave (km/s) = 7.25754 7.38263 7.32035
#
# Compressibility (1/GPa) = 0.01484699
#
# Stress axis : x y z
#
# Youngs Moduli (GPa) = 96.50801 123.64272 87.41970
#
# Poissons Ratio (x) = 0.33215 0.19762
# Poissons Ratio (y) = 0.25925 0.22501
# Poissons Ratio (z) = 0.21817 0.31824
#
# Static dielectric constant tensor:
#      x y z
#    x 4.253120 0.000000 0.000000 
#    y 0.000000 4.412740 0.000000 
#    z 0.000000 0.000000 4.021210 
# 
# 
# High freq. dielectric constant tensor:
#      x y z
#    x 1.906270 0.000000 0.000000 
#    y 0.000000 1.906470 0.000000 
#    z 0.000000 0.000000 1.870000 
# 
# From -- ./inp_files/26081.got.cif
#   From: 2010.06.25/outbox.cif.g09.slc.cpg/sg43_14_cif.got.tgz:26081.got - 2010.06.26 16:48:59.
