data_PCOD8187895
_publ_section_title
;
Structure prediction by ZEFSAII (Michael W. Deem and Ramdas Pophale) SiO2 
 PCOD8187895
Probable space group: I M M 2
;
_chemical_formula_sum "Si O2"
_cell_formula_units_Z 64
_cell_length_a 24.195286
_cell_length_b 31.287365
_cell_length_c 5.186426
_cell_angle_alpha 90.000000
_cell_angle_beta 90.000000
_cell_angle_gamma 90.000000
_cell_volume 3926.159461
_symmetry_space_group_name_H-M "I M M 2"
_symmetry_group_IT_number 44
_symmetry_cell_setting 'orthorhombic'
loop_
_space_group_symop_operation_xyz
x,y,z
-x,-y,z
-x,y,z
x,-y,z
1/2+x,1/2+y,1/2+z
1/2-x,1/2-y,1/2+z
1/2-x,1/2+y,1/2+z
1/2+x,1/2-y,1/2+z
loop_
_atom_site_type_symbol
_atom_site_label
_atom_site_fract_x
_atom_site_fract_y
_atom_site_fract_z
Si Si1 0.561009 0.769103 0.388450
Si Si2 0.939685 0.677946 0.388688
Si Si3 0.890025 0.591840 0.472758
Si Si4 0.763682 0.595469 0.474143
Si Si5 0.107459 0.548138 0.972379
Si Si6 0.820831 0.738345 0.988239
Si Si7 0.776507 0.695970 0.489477
Si Si8 0.239552 0.450893 0.974074
O O1 0.500000 0.746336 0.425346
O O2 0.565084 0.807923 0.591857
O O3 0.616644 0.742158 0.454618
O O4 0.566671 0.783548 0.092290
O O5 0.893613 0.642951 0.451668
O O6 0.000000 0.656889 0.430500
O O7 0.826314 0.579548 0.477934
O O8 0.917878 0.574381 0.732859
O O9 0.918353 0.569118 0.228497
O O10 0.759530 0.646674 0.468126
O O11 0.735814 0.574809 0.728164
O O12 0.735833 0.574197 0.222097
O O13 0.086430 0.500000 0.951269
O O14 0.173502 0.550866 0.976594
O O15 0.807852 0.705208 0.757014
O O16 0.780982 0.778649 0.980092
O O17 0.815612 0.711468 0.254082
O O18 0.260289 0.500000 0.971678
#
# Coordination Sequence:
#
# PCOD8187895 Si02
#       8
#     8   8   8   8   8   8   8   8
#     4  10  19  31  47  64  83 108 138 173 208 244
#     4  10  20  31  44  62  79  97 128 171 215 250
#     4  10  17  26  42  55  71  96 120 161 202 239
#     4  10  17  26  41  60  78 102 138 163 199 250
#     4   9  17  27  39  55  71  92 123 156 197 245
#     4  10  19  32  45  63  91 116 146 177 212 252
#     4  10  20  30  45  65  89 120 143 175 212 254
#     4   9  17  27  39  57  80 102 129 169 204 239
#
# _framework density 16.300916000000001
#
# number of rings (size 3 to 8) (size 9 to 14) (size 15 to 20)
#    0.000    2.250    0.000    4.500    0.000    5.000 
#    0.000    0.000    0.000    2.250    0.000    0.000 
#    0.000    0.000    0.000    0.000    0.000    3.750 
#
# Total GULP energy -396546.144114 kJ/mol
# GULP energy per Si atom -12392.067004 kJ/mol
# Density = 1.626381 g / cm^3
# Si number density = 16.300916 Si / 1000 Ang^3
#
#
#
# Elastic Constant Matrix: (Units=GPa)
#
#
# Indices 1 2 3 4 5 6 
#
# 1 48.8928 4.3181 5.9210 0.0000 0.0000 0.0000
# 2 4.3181 64.5429 32.2120 0.0000 0.0000 0.0000
# 3 5.9210 32.2120 127.8204 0.0000 0.0000 0.0000
# 4 0.0000 0.0000 0.0000 23.3382 0.0000 0.0000
# 5 0.0000 0.0000 0.0000 0.0000 10.8214 0.0000
# 6 0.0000 0.0000 0.0000 0.0000 0.0000 10.0365
#
#
#
# Elastic Compliance Matrix: (Units=1/GPa)
#
#
# Indices 1 2 3 4 5 6 
#
# 1 0.020628 -0.001033 -0.000695 0.000000 0.000000 0.000000
# 2 -0.001033 0.017774 -0.004431 0.000000 0.000000 0.000000
# 3 -0.000695 -0.004431 0.008972 0.000000 0.000000 0.000000
# 4 0.000000 0.000000 0.000000 0.042848 0.000000 0.000000
# 5 0.000000 0.000000 0.000000 0.000000 0.092410 0.000000
# 6 0.000000 0.000000 0.000000 0.000000 0.000000 0.099637
#
#
# Mechanical properties :
#
#
# Convention : Reuss Voigt Hill
#
# Bulk Modulus (GPa) = 28.52613 36.23979 32.38296
# Shear Modulus (GPa) = 16.32521 22.09287 19.20904
#
# Velocity S-wave (km/s) = 3.16807 3.68545 3.43651
# Velocity P-wave (km/s) = 5.56057 6.35532 5.97118
#
# Compressibility (1/GPa) = 0.03505558
#
# Stress axis : x y z
#
# Youngs Moduli (GPa) = 48.47699 56.26088 111.45233
#
# Poissons Ratio (x) = 0.05813 0.07748
# Poissons Ratio (y) = 0.05008 0.49389
# Poissons Ratio (z) = 0.03370 0.24932
#
# Static dielectric constant tensor:
#      x y z
#    x 2.856310 0.000000 0.000000 
#    y 0.000000 2.794460 0.000000 
#    z 0.000000 0.000000 3.544930 
# 
# 
# High freq. dielectric constant tensor:
#      x y z
#    x 1.571960 0.000000 0.000000 
#    y 0.000000 1.595050 0.000000 
#    z 0.000000 0.000000 1.659960 
# 
# From -- ./inp_files/2870.got.cif
#   From: 2010.03.12/outbox.cif.g09.slc.cpg/sg44_2_cif.got.tgz:2870.got - 2010.04.14 02:36:11.
