data_PCOD8187370
_publ_section_title
;
Structure prediction by ZEFSAII (Michael W. Deem and Ramdas Pophale) SiO2 
 PCOD8187370
Probable space group: F D D 2
;
_chemical_formula_sum "Si O2"
_cell_formula_units_Z 64
_cell_length_a 13.314016
_cell_length_b 35.719623
_cell_length_c 7.537942
_cell_angle_alpha 90.000000
_cell_angle_beta 90.000000
_cell_angle_gamma 90.000000
_cell_volume 3584.831380
_symmetry_space_group_name_H-M "F D D 2"
_symmetry_group_IT_number 43
_symmetry_cell_setting 'orthorhombic'
loop_
_space_group_symop_operation_xyz
x,y,z
-x,-y,z
1/4-x,1/4+y,1/4+z
1/4+x,1/4-y,1/4+z
x,1/2+y,1/2+z
-x,1/2-y,1/2+z
1/4-x,3/4+y,3/4+z
1/4+x,3/4-y,3/4+z
1/2+x,y,1/2+z
1/2-x,-y,1/2+z
3/4-x,1/4+y,3/4+z
3/4+x,1/4-y,3/4+z
1/2+x,1/2+y,z
1/2-x,1/2-y,z
3/4-x,3/4+y,1/4+z
3/4+x,3/4-y,1/4+z
loop_
_atom_site_type_symbol
_atom_site_label
_atom_site_fract_x
_atom_site_fract_y
_atom_site_fract_z
Si Si1 0.939589 0.212023 0.487380
Si Si2 0.207755 0.586322 0.553072
Si Si3 0.304845 0.045174 0.372740
Si Si4 0.984049 0.918148 0.862075
O O1 0.000570 0.190059 0.643878
O O2 0.929556 0.255236 0.534515
O O3 0.827523 0.194042 0.471676
O O4 0.996307 0.207597 0.304834
O O5 0.240795 0.571437 0.743469
O O6 0.248385 0.628040 0.521433
O O7 0.085416 0.586218 0.539343
O O8 0.412410 0.062790 0.416295
#
# Coordination Sequence:
#
# PCOD8187370 Si02
#       4
#    16  16  16  16
#     4  10  23  37  64  89 114 161 198 239 298 352
#     4  10  22  41  60  89 120 156 198 245 296 352
#     4  12  20  43  61  86 125 154 198 249 293 349
#     4  10  22  42  59  88 123 154 196 247 293 351
#
# _framework density 17.853000999999999
#
# number of rings (size 3 to 8) (size 9 to 14) (size 15 to 20)
#    1.500    0.000    5.000    0.750    0.000    2.000 
#    4.500    0.000    0.000    0.000    0.000    0.000 
#    0.000    0.000    0.000    0.000    0.000    0.000 
#
# Total GULP energy -198267.412885 kJ/mol
# GULP energy per Si atom -12391.713305 kJ/mol
# Density = 1.781237 g / cm^3
# Si number density = 17.853001 Si / 1000 Ang^3
#
#
#
# Elastic Constant Matrix: (Units=GPa)
#
#
# Indices 1 2 3 4 5 6 
#
# 1 119.0993 60.9715 45.2236 0.0000 0.0000 0.0000
# 2 60.9715 119.4457 48.4036 0.0000 0.0000 0.0000
# 3 45.2236 48.4036 91.5119 0.0000 0.0000 0.0000
# 4 0.0000 0.0000 0.0000 22.8655 0.0000 0.0000
# 5 0.0000 0.0000 0.0000 0.0000 30.2794 0.0000
# 6 0.0000 0.0000 0.0000 0.0000 0.0000 25.7878
#
#
#
# Elastic Compliance Matrix: (Units=1/GPa)
#
#
# Indices 1 2 3 4 5 6 
#
# 1 0.012177 -0.004808 -0.003475 0.000000 0.000000 0.000000
# 2 -0.004808 0.012554 -0.004264 0.000000 0.000000 0.000000
# 3 -0.003475 -0.004264 0.014900 0.000000 0.000000 0.000000
# 4 0.000000 0.000000 0.000000 0.043734 0.000000 0.000000
# 5 0.000000 0.000000 0.000000 0.000000 0.033026 0.000000
# 6 0.000000 0.000000 0.000000 0.000000 0.000000 0.038778
#
#
# Mechanical properties :
#
#
# Convention : Reuss Voigt Hill
#
# Bulk Modulus (GPa) = 68.78632 71.02824 69.90728
# Shear Modulus (GPa) = 27.01112 27.48376 27.24744
#
# Velocity S-wave (km/s) = 3.89392 3.92784 3.91091
# Velocity P-wave (km/s) = 7.67005 7.77444 7.72242
#
# Compressibility (1/GPa) = 0.01453777
#
# Stress axis : x y z
#
# Youngs Moduli (GPa) = 82.12204 79.65453 67.11279
#
# Poissons Ratio (x) = 0.38296 0.23320
# Poissons Ratio (y) = 0.39482 0.28620
# Poissons Ratio (z) = 0.28535 0.33968
#
# Static dielectric constant tensor:
#      x y z
#    x 3.281100 0.000000 0.000000 
#    y 0.000000 3.586400 0.000000 
#    z 0.000000 0.000000 3.074300 
# 
# 
# High freq. dielectric constant tensor:
#      x y z
#    x 1.685070 0.000000 0.000000 
#    y 0.000000 1.717400 0.000000 
#    z 0.000000 0.000000 1.668830 
# 
# From -- ./inp_files/2368.got.cif
#   From: 2010.06.25/outbox.cif.g09.slc.cpg/sg43_2_cif.got.tgz:2368.got - 2010.06.26 16:48:59.
