data_PCOD8187576
_publ_section_title
;
Structure prediction by ZEFSAII (Michael W. Deem and Ramdas Pophale) SiO2 
 PCOD8187576
Probable space group: F D D 2
;
_chemical_formula_sum "Si O2"
_cell_formula_units_Z 56
_cell_length_a 12.874749
_cell_length_b 16.224857
_cell_length_c 8.706109
_cell_angle_alpha 90.000000
_cell_angle_beta 90.000000
_cell_angle_gamma 90.000000
_cell_volume 1818.627479
_symmetry_space_group_name_H-M "F D D 2"
_symmetry_group_IT_number 43
_symmetry_cell_setting 'orthorhombic'
loop_
_space_group_symop_operation_xyz
x,y,z
-x,-y,z
1/4-x,1/4+y,1/4+z
1/4+x,1/4-y,1/4+z
x,1/2+y,1/2+z
-x,1/2-y,1/2+z
1/4-x,3/4+y,3/4+z
1/4+x,3/4-y,3/4+z
1/2+x,y,1/2+z
1/2-x,-y,1/2+z
3/4-x,1/4+y,3/4+z
3/4+x,1/4-y,3/4+z
1/2+x,1/2+y,z
1/2-x,1/2-y,z
3/4-x,3/4+y,1/4+z
3/4+x,3/4-y,1/4+z
loop_
_atom_site_type_symbol
_atom_site_label
_atom_site_fract_x
_atom_site_fract_y
_atom_site_fract_z
Si Si1 0.564099 0.615437 0.100130
Si Si2 0.250000 0.750000 0.283487
Si Si3 0.375930 0.797051 0.004967
Si Si4 0.107149 0.798115 0.547316
O O1 0.628187 0.548856 0.200914
O O2 0.441682 0.602356 0.137407
O O3 0.599124 0.709084 0.132632
O O4 0.584799 0.606034 0.918495
O O5 0.326484 0.804481 0.176203
O O6 0.175593 0.804280 0.392934
O O7 0.492564 0.830890 0.003861
#
# Coordination Sequence:
#
# PCOD8187576 Si02
#       4
#    16   8  16  16
#     4  10  26  47  77 109 151 198 257 302 400 450
#     4  10  24  46  72 112 142 194 258 304 390 446
#     4  10  25  50  67 109 151 200 239 324 372 467
#     4  12  25  49  77 112 149 200 249 323 377 470
#
# _framework density 30.792451
#
# number of rings (size 3 to 8) (size 9 to 14) (size 15 to 20)
#    0.000    1.714    0.000    3.429   12.000    2.286 
#   15.429    0.000    0.000    0.000    0.000    0.000 
#    0.000    0.000    0.000    0.000    0.000    0.000 
#
# Total GULP energy -173696.974951 kJ/mol
# GULP energy per Si atom -12406.926782 kJ/mol
# Density = 3.072237 g / cm^3
# Si number density = 30.792451 Si / 1000 Ang^3
#
#
#
# Elastic Constant Matrix: (Units=GPa)
#
#
# Indices 1 2 3 4 5 6 
#
# 1 234.1902 11.9570 104.5387 0.0000 0.0000 0.0000
# 2 11.9570 112.9800 17.6297 0.0000 0.0000 0.0000
# 3 104.5387 17.6297 156.0901 0.0000 0.0000 0.0000
# 4 0.0000 0.0000 0.0000 12.6623 0.0000 0.0000
# 5 0.0000 0.0000 0.0000 0.0000 71.8684 0.0000
# 6 0.0000 0.0000 0.0000 0.0000 0.0000 28.1455
#
#
#
# Elastic Compliance Matrix: (Units=1/GPa)
#
#
# Indices 1 2 3 4 5 6 
#
# 1 0.006091 -0.000008 -0.004078 0.000000 0.000000 0.000000
# 2 -0.000008 0.009010 -0.001012 0.000000 0.000000 0.000000
# 3 -0.004078 -0.001012 0.009252 0.000000 0.000000 0.000000
# 4 0.000000 0.000000 0.000000 0.078975 0.000000 0.000000
# 5 0.000000 0.000000 0.000000 0.000000 0.013914 0.000000
# 6 0.000000 0.000000 0.000000 0.000000 0.000000 0.035530
#
#
# Mechanical properties :
#
#
# Convention : Reuss Voigt Hill
#
# Bulk Modulus (GPa) = 70.64279 85.72346 78.18312
# Shear Modulus (GPa) = 29.81729 47.14424 38.48077
#
# Velocity S-wave (km/s) = 3.11518 3.91709 3.53892
# Velocity P-wave (km/s) = 5.99421 6.95397 6.49185
#
# Compressibility (1/GPa) = 0.01415573
#
# Stress axis : x y z
#
# Youngs Moduli (GPa) = 164.17695 110.98864 108.08103
#
# Poissons Ratio (x) = 0.00091 0.44080
# Poissons Ratio (y) = 0.00135 0.10939
# Poissons Ratio (z) = 0.66958 0.11233
#
# Static dielectric constant tensor:
#      x y z
#    x 5.716690 0.000000 0.000000 
#    y 0.000000 5.455410 0.000000 
#    z 0.000000 0.000000 5.568620 
# 
# 
# High freq. dielectric constant tensor:
#      x y z
#    x 2.265680 0.000000 0.000000 
#    y 0.000000 2.297410 0.000000 
#    z 0.000000 0.000000 2.279330 
# 
# From -- ./inp_files/2153.got.cif
#   From: 2010.06.25/outbox.cif.g09.slc.cpg/sg43_2_cif.got.tgz:2153.got - 2010.06.26 16:48:59.
