data_PCOD8187679
_publ_section_title
;
Structure prediction by ZEFSAII (Michael W. Deem and Ramdas Pophale) SiO2 
 PCOD8187679
Probable space group: F D D 2
;
_chemical_formula_sum "Si O2"
_cell_formula_units_Z 72
_cell_length_a 19.445180
_cell_length_b 5.145332
_cell_length_c 31.264310
_cell_angle_alpha 90.000000
_cell_angle_beta 90.000000
_cell_angle_gamma 90.000000
_cell_volume 3128.053833
_symmetry_space_group_name_H-M "F D D 2"
_symmetry_group_IT_number 43
_symmetry_cell_setting 'orthorhombic'
loop_
_space_group_symop_operation_xyz
x,y,z
-x,-y,z
1/4-x,1/4+y,1/4+z
1/4+x,1/4-y,1/4+z
x,1/2+y,1/2+z
-x,1/2-y,1/2+z
1/4-x,3/4+y,3/4+z
1/4+x,3/4-y,3/4+z
1/2+x,y,1/2+z
1/2-x,-y,1/2+z
3/4-x,1/4+y,3/4+z
3/4+x,1/4-y,3/4+z
1/2+x,1/2+y,z
1/2-x,1/2-y,z
3/4-x,3/4+y,1/4+z
3/4+x,3/4-y,1/4+z
loop_
_atom_site_type_symbol
_atom_site_label
_atom_site_fract_x
_atom_site_fract_y
_atom_site_fract_z
Si Si1 0.500000 0.500000 0.540120
Si Si2 0.091537 0.695917 0.969083
Si Si3 0.040895 0.750264 0.877177
Si Si4 0.563871 0.679974 0.112788
Si Si5 0.924576 0.568305 0.201299
O O1 0.544957 0.694992 0.511348
O O2 0.550571 0.326206 0.568616
O O3 0.043085 0.757402 0.928717
O O4 0.124250 0.414577 0.962362
O O5 0.149322 0.917881 0.974333
O O6 0.118200 0.751701 0.857953
O O7 0.000000 0.500000 0.860095
O O8 0.000000 0.000000 0.860303
O O9 0.500000 0.500000 0.126536
O O10 0.575616 0.892422 0.149975
O O11 0.000000 0.500000 0.218645
#
# Coordination Sequence:
#
# PCOD8187679 Si02
#       5
#     8  16  16  16  16
#     4  12  28  44  72 112 148 194 244 324 370 438
#     4  11  25  41  73 105 145 186 244 296 367 436
#     4  11  23  43  74 106 139 189 248 296 351 442
#     4  11  26  43  77 106 150 190 250 301 376 442
#     4  11  22  45  73 106 136 195 243 295 353 458
#
# _framework density 23.017505
#
# number of rings (size 3 to 8) (size 9 to 14) (size 15 to 20)
#    0.000    0.889    2.222    6.000    6.222    0.000 
#    0.000    1.111    4.889    0.000    0.000    0.000 
#    0.000    0.000    0.000    0.000    0.000    0.000 
#
# Total GULP energy -223315.007790 kJ/mol
# GULP energy per Si atom -12406.389322 kJ/mol
# Density = 2.296512 g / cm^3
# Si number density = 23.017505 Si / 1000 Ang^3
#
#
#
# Elastic Constant Matrix: (Units=GPa)
#
#
# Indices 1 2 3 4 5 6 
#
# 1 172.8768 76.7829 49.7635 0.0000 0.0001 0.0000
# 2 76.7829 162.7903 40.9444 0.0000 -0.0006 0.0003
# 3 49.7635 40.9444 111.2541 -0.0004 -0.0001 -0.0001
# 4 0.0000 0.0000 -0.0004 18.4271 0.0008 0.0003
# 5 0.0001 -0.0006 -0.0001 0.0008 36.3056 -0.0002
# 6 0.0000 0.0003 -0.0001 0.0003 -0.0002 58.1653
#
#
#
# Elastic Compliance Matrix: (Units=1/GPa)
#
#
# Indices 1 2 3 4 5 6 
#
# 1 0.007845 -0.003105 -0.002366 0.000000 0.000000 0.000000
# 2 -0.003105 0.007998 -0.001555 0.000000 0.000000 0.000000
# 3 -0.002366 -0.001555 0.010619 0.000000 0.000000 0.000000
# 4 0.000000 0.000000 0.000000 0.054268 -0.000001 0.000000
# 5 0.000000 0.000000 0.000000 -0.000001 0.027544 0.000000
# 6 0.000000 0.000000 0.000000 0.000000 0.000000 0.017192
#
#
# Mechanical properties :
#
#
# Convention : Reuss Voigt Hill
#
# Bulk Modulus (GPa) = 80.57853 86.87810 83.72832
# Shear Modulus (GPa) = 34.80565 41.20829 38.00697
#
# Velocity S-wave (km/s) = 3.89284 4.23579 4.06793
# Velocity P-wave (km/s) = 7.43566 7.85804 7.64977
#
# Compressibility (1/GPa) = 0.01241025
#
# Stress axis : x y z
#
# Youngs Moduli (GPa) = 127.47575 125.02460 94.17064
#
# Poissons Ratio (x) = 0.38819 0.22282
# Poissons Ratio (y) = 0.39580 0.14642
# Poissons Ratio (z) = 0.30163 0.19439
#
# Static dielectric constant tensor:
#      x y z
#    x 4.482610 0.000000 0.000000 
#    y 0.000000 4.344350 0.000000 
#    z 0.000000 0.000000 3.831430 
# 
# 
# High freq. dielectric constant tensor:
#      x y z
#    x 1.925340 0.000000 0.000000 
#    y 0.000000 1.924830 0.000000 
#    z 0.000000 0.000000 1.873940 
# 
# From -- ./inp_files/26213.got.cif
#   From: 2010.06.25/outbox.cif.g09.slc.cpg/sg43_14_cif.got.tgz:26213.got - 2010.06.26 16:48:59.
