data_PCOD8187346
_publ_section_title
;
Structure prediction by ZEFSAII (Michael W. Deem and Ramdas Pophale) SiO2 
 PCOD8187346
Probable space group: F D D 2
;
_chemical_formula_sum "Si O2"
_cell_formula_units_Z 80
_cell_length_a 16.913214
_cell_length_b 22.728291
_cell_length_c 9.853339
_cell_angle_alpha 90.000000
_cell_angle_beta 90.000000
_cell_angle_gamma 90.000000
_cell_volume 3787.706768
_symmetry_space_group_name_H-M "F D D 2"
_symmetry_group_IT_number 43
_symmetry_cell_setting 'orthorhombic'
loop_
_space_group_symop_operation_xyz
x,y,z
-x,-y,z
1/4-x,1/4+y,1/4+z
1/4+x,1/4-y,1/4+z
x,1/2+y,1/2+z
-x,1/2-y,1/2+z
1/4-x,3/4+y,3/4+z
1/4+x,3/4-y,3/4+z
1/2+x,y,1/2+z
1/2-x,-y,1/2+z
3/4-x,1/4+y,3/4+z
3/4+x,1/4-y,3/4+z
1/2+x,1/2+y,z
1/2-x,1/2-y,z
3/4-x,3/4+y,1/4+z
3/4+x,3/4-y,1/4+z
loop_
_atom_site_type_symbol
_atom_site_label
_atom_site_fract_x
_atom_site_fract_y
_atom_site_fract_z
Si Si1 0.250000 0.250000 0.732180
Si Si2 0.589707 0.292310 0.344493
Si Si3 0.918055 0.577899 0.776050
Si Si4 0.500000 0.000000 0.552171
Si Si5 0.467208 0.820274 0.224347
Si Si6 0.881221 0.421364 0.379177
O O1 0.320355 0.227351 0.823733
O O2 0.273657 0.305944 0.642945
O O3 0.568840 0.352144 0.262608
O O4 0.528485 0.244672 0.288398
O O5 0.586424 0.295410 0.506597
O O6 0.941753 0.542503 0.639701
O O7 0.827382 0.567182 0.827063
O O8 0.555410 0.039546 0.457980
O O9 0.556333 0.845104 0.223036
O O10 0.419599 0.861774 0.326543
#
# Coordination Sequence:
#
# PCOD8187346 Si02
#       6
#     8  16  16   8  16  16
#     4   9  19  40  62  96 127 169 218 274 334 393
#     4  10  22  39  71  91 131 178 225 275 330 407
#     4   9  22  41  66  93 129 172 222 273 332 407
#     4  11  25  46  66 104 137 167 228 290 342 387
#     4  10  25  44  65  98 131 182 226 266 344 408
#     4  11  26  42  67  97 138 174 221 282 338 408
#
# _framework density 21.12096
#
# number of rings (size 3 to 8) (size 9 to 14) (size 15 to 20)
#    0.000    2.000    0.000    0.600   22.400    1.600 
#    7.200    0.000    0.000    0.000    0.000    0.000 
#    0.000    0.000    0.000    0.000    0.000    0.000 
#
# Total GULP energy -247893.394418 kJ/mol
# GULP energy per Si atom -12394.669721 kJ/mol
# Density = 2.107289 g / cm^3
# Si number density = 21.120960 Si / 1000 Ang^3
#
#
#
# Elastic Constant Matrix: (Units=GPa)
#
#
# Indices 1 2 3 4 5 6 
#
# 1 113.7159 54.1027 16.6185 0.0000 0.0000 0.0000
# 2 54.1027 155.1375 52.2611 0.0000 0.0000 0.0000
# 3 16.6185 52.2611 67.4489 0.0000 0.0000 0.0000
# 4 0.0000 0.0000 0.0000 88.9087 0.0000 0.0000
# 5 0.0000 0.0000 0.0000 0.0000 8.3506 0.0000
# 6 0.0000 0.0000 0.0000 0.0000 0.0000 30.9728
#
#
#
# Elastic Compliance Matrix: (Units=1/GPa)
#
#
# Indices 1 2 3 4 5 6 
#
# 1 0.010549 -0.003793 0.000340 0.000000 0.000000 0.000000
# 2 -0.003793 0.010087 -0.006881 0.000000 0.000000 0.000000
# 3 0.000340 -0.006881 0.020074 0.000000 0.000000 0.000000
# 4 0.000000 0.000000 0.000000 0.011247 0.000000 0.000000
# 5 0.000000 0.000000 0.000000 0.000000 0.119752 0.000000
# 6 0.000000 0.000000 0.000000 0.000000 0.000000 0.032286
#
#
# Mechanical properties :
#
#
# Convention : Reuss Voigt Hill
#
# Bulk Modulus (GPa) = 49.89738 64.69632 57.29685
# Shear Modulus (GPa) = 21.61286 39.86775 30.74031
#
# Velocity S-wave (km/s) = 3.20236 4.34936 3.81916
# Velocity P-wave (km/s) = 6.11141 7.47799 6.82897
#
# Compressibility (1/GPa) = 0.02004113
#
# Stress axis : x y z
#
# Youngs Moduli (GPa) = 94.79627 99.13993 49.81644
#
# Poissons Ratio (x) = 0.37608 -0.01694
# Poissons Ratio (y) = 0.35960 0.34278
# Poissons Ratio (z) = -0.03224 0.68217
#
# Static dielectric constant tensor:
#      x y z
#    x 4.038740 0.000000 0.000000 
#    y 0.000000 -0.235900 0.000000 
#    z 0.000000 0.000000 3.826010 
# 
# 
# High freq. dielectric constant tensor:
#      x y z
#    x 1.834060 0.000000 0.000000 
#    y 0.000000 1.837990 0.000000 
#    z 0.000000 0.000000 1.813500 
# 
# From -- ./inp_files/2837.got.cif
#   From: 2010.06.25/outbox.cif.g09.slc.cpg/sg43_2_cif.got.tgz:2837.got - 2010.06.26 16:48:59.
