data_PCOD8187952
_publ_section_title
;
Structure prediction by ZEFSAII (Michael W. Deem and Ramdas Pophale) SiO2 
 PCOD8187952
Probable space group: I M M 2
;
_chemical_formula_sum "Si O2"
_cell_formula_units_Z 52
_cell_length_a 13.740385
_cell_length_b 18.824621
_cell_length_c 11.609176
_cell_angle_alpha 90.000000
_cell_angle_beta 90.000000
_cell_angle_gamma 90.000000
_cell_volume 3002.800906
_symmetry_space_group_name_H-M "I M M 2"
_symmetry_group_IT_number 44
_symmetry_cell_setting 'orthorhombic'
loop_
_space_group_symop_operation_xyz
x,y,z
-x,-y,z
-x,y,z
x,-y,z
1/2+x,1/2+y,1/2+z
1/2-x,1/2-y,1/2+z
1/2-x,1/2+y,1/2+z
1/2+x,1/2-y,1/2+z
loop_
_atom_site_type_symbol
_atom_site_label
_atom_site_fract_x
_atom_site_fract_y
_atom_site_fract_z
Si Si1 0.711187 0.785518 0.285100
Si Si2 0.108367 0.500000 0.560107
Si Si3 0.111309 0.785977 0.131914
Si Si4 0.111342 0.645651 0.991330
Si Si5 0.887319 0.500000 0.119856
Si Si6 0.256184 0.000000 0.844554
Si Si7 0.389115 0.152654 0.077454
Si Si8 0.788749 0.852132 0.922729
O O1 0.822672 0.798020 0.245330
O O2 0.683828 0.841937 0.384231
O O3 0.641240 0.792369 0.174942
O O4 0.689426 0.706353 0.327050
O O5 0.167511 0.500000 0.444911
O O6 0.127288 0.427341 0.631141
O O7 0.000000 0.500000 0.513007
O O8 0.000000 0.799188 0.167661
O O9 0.128862 0.705777 0.087743
O O10 0.140158 0.842418 0.032407
O O11 0.000000 0.649698 0.946673
O O12 0.134923 0.569168 0.043853
O O13 0.812402 0.500000 0.224508
O O14 0.000000 0.500000 0.162052
O O15 0.192157 0.071542 0.862159
O O16 0.500000 0.166622 0.039877
O O17 0.323021 0.159883 0.963556
#
# Coordination Sequence:
#
# PCOD8187952 Si02
#       8
#     8   4   8   8   4   4   8   8
#     4  10  18  30  47  68  95 127 157 187 226 275
#     4   8  15  27  44  70  97 116 141 179 225 280
#     4   9  18  33  50  68  92 123 162 202 231 262
#     4   9  18  31  47  71 101 126 149 183 230 288
#     4  10  19  29  46  75 104 127 147 172 228 306
#     4  10  17  30  49  67  91 123 152 191 235 268
#     4   9  17  29  47  71  97 122 148 183 229 280
#     4   9  19  31  47  71  96 120 155 194 233 275
#
# _framework density 17.317166
#
# number of rings (size 3 to 8) (size 9 to 14) (size 15 to 20)
#    0.000    2.769    0.000    1.615    0.000    2.462 
#    0.000    3.462    0.000    0.000    0.000    1.077 
#    0.000    0.000    0.000    0.000    0.000    0.000 
#
# Total GULP energy -322253.511167 kJ/mol
# GULP energy per Si atom -12394.365814 kJ/mol
# Density = 1.727775 g / cm^3
# Si number density = 17.317166 Si / 1000 Ang^3
#
#
#
# Elastic Constant Matrix: (Units=GPa)
#
#
# Indices 1 2 3 4 5 6 
#
# 1 84.5617 29.2448 32.7015 0.0000 0.0000 0.0000
# 2 29.2448 116.1535 37.9056 0.0000 0.0000 0.0000
# 3 32.7015 37.9056 63.1498 0.0001 0.0000 0.0000
# 4 0.0000 0.0000 0.0001 22.3351 -0.0001 0.0000
# 5 0.0000 0.0000 0.0000 -0.0001 -72.6410 0.0000
# 6 0.0000 0.0000 0.0000 0.0000 0.0000 22.9251
#
#
#
# Elastic Compliance Matrix: (Units=1/GPa)
#
#
# Indices 1 2 3 4 5 6 
#
# 1 0.015007 -0.001545 -0.006844 0.000000 0.000000 0.000000
# 2 -0.001545 0.010866 -0.005722 0.000000 0.000000 0.000000
# 3 -0.006844 -0.005722 0.022814 0.000000 0.000000 0.000000
# 4 0.000000 0.000000 0.000000 0.044773 0.000000 0.000000
# 5 0.000000 0.000000 0.000000 0.000000 -0.013766 0.000000
# 6 0.000000 0.000000 0.000000 0.000000 0.000000 0.043620
#
#
# Mechanical properties :
#
#
# Convention : Reuss Voigt Hill
#
# Bulk Modulus (GPa) = 48.86432 51.50766 50.18599
# Shear Modulus (GPa) = 31.57455 5.45805 18.51630
#
# Velocity S-wave (km/s) = 4.27466 1.77726 3.27348
# Velocity P-wave (km/s) = 7.25549 5.83265 6.58263
#
# Compressibility (1/GPa) = 0.02046483
#
# Stress axis : x y z
#
# Youngs Moduli (GPa) = 66.63764 92.03351 43.83291
#
# Poissons Ratio (x) = 0.14219 0.29998
# Poissons Ratio (y) = 0.10295 0.25081
# Poissons Ratio (z) = 0.45604 0.52662
#
# Static dielectric constant tensor:
#      x y z
#    x 3.267730 0.000000 0.000000 
#    y 0.000000 3.624630 0.000000 
#    z 0.000000 0.000000 3.077820 
# 
# 
# High freq. dielectric constant tensor:
#      x y z
#    x 1.654280 0.000000 0.000000 
#    y 0.000000 1.671920 0.000000 
#    z 0.000000 0.000000 1.654540 
# 
# From -- ./inp_files/13367.got.cif
#   From: 2010.03.12/outbox.cif.g09.slc.cpg/sg44_7_cif.got.tgz:13367.got - 2010.04.14 02:36:11.
