data_PCOD8187968
_publ_section_title
;
Structure prediction by ZEFSAII (Michael W. Deem and Ramdas Pophale) SiO2 
 PCOD8187968
Probable space group: I M M 2
;
_chemical_formula_sum "Si O2"
_cell_formula_units_Z 48
_cell_length_a 7.701524
_cell_length_b 18.208262
_cell_length_c 18.312333
_cell_angle_alpha 90.000000
_cell_angle_beta 90.000000
_cell_angle_gamma 90.000000
_cell_volume 2567.963486
_symmetry_space_group_name_H-M "I M M 2"
_symmetry_group_IT_number 44
_symmetry_cell_setting 'orthorhombic'
loop_
_space_group_symop_operation_xyz
x,y,z
-x,-y,z
-x,y,z
x,-y,z
1/2+x,1/2+y,1/2+z
1/2-x,1/2-y,1/2+z
1/2-x,1/2+y,1/2+z
1/2+x,1/2-y,1/2+z
loop_
_atom_site_type_symbol
_atom_site_label
_atom_site_fract_x
_atom_site_fract_y
_atom_site_fract_z
Si Si1 0.702806 0.715676 0.531680
Si Si2 0.294278 0.581934 0.625182
Si Si3 0.000000 0.418894 0.161152
Si Si4 0.696597 0.674126 0.922298
Si Si5 0.805191 0.185304 0.665461
Si Si6 0.796640 0.816368 0.254923
Si Si7 0.500000 0.918758 0.488881
O O1 0.500000 0.709322 0.517077
O O2 0.776167 0.637213 0.561506
O O3 0.791847 0.742878 0.456154
O O4 0.737545 0.778130 0.591290
O O5 0.500000 0.577951 0.618935
O O6 0.214012 0.500000 0.615711
O O7 0.242594 0.613560 0.705034
O O8 0.825125 0.379235 0.188771
O O9 0.000000 0.500000 0.195865
O O10 0.000000 0.423617 0.074799
O O11 0.500000 0.644980 0.930164
O O12 0.754625 0.670751 0.838335
O O13 0.825117 0.621760 0.965545
O O14 0.808810 0.245525 0.729243
O O15 0.000000 0.153999 0.654924
O O16 0.000000 0.799903 0.244802
O O17 0.500000 0.000000 0.454084
#
# Coordination Sequence:
#
# PCOD8187968 Si02
#       7
#     8   8   4   8   8   8   4
#     4  10  17  32  54  76 110 143 182 233 270 314
#     4   8  15  29  52  80 108 142 177 217 275 330
#     4  11  22  38  56  78 112 145 177 230 287 324
#     4  11  21  35  56  82 110 148 190 222 268 326
#     4  11  19  33  57  80 105 140 186 231 267 322
#     4   9  19  33  54  81 111 144 183 223 273 324
#     4  11  24  38  54  80 116 149 181 224 275 330
#
# _framework density 18.691853999999999
#
# number of rings (size 3 to 8) (size 9 to 14) (size 15 to 20)
#    0.000    2.000    4.167    1.500    1.167    1.333 
#    0.000    3.333    0.000   10.000    0.000    2.333 
#    0.000    0.000    0.000    0.000    0.000    0.000 
#
# Total GULP energy -297478.045470 kJ/mol
# GULP energy per Si atom -12394.918561 kJ/mol
# Density = 1.864931 g / cm^3
# Si number density = 18.691854 Si / 1000 Ang^3
#
#
#
# Elastic Constant Matrix: (Units=GPa)
#
#
# Indices 1 2 3 4 5 6 
#
# 1 62.0274 27.5442 6.1507 0.0000 0.0000 0.0000
# 2 27.5442 141.4086 34.9372 0.0000 0.0000 0.0000
# 3 6.1507 34.9372 63.2237 0.0000 0.0000 0.0000
# 4 0.0000 0.0000 0.0000 17.9970 0.0000 0.0000
# 5 0.0000 0.0000 0.0000 0.0000 16.3946 0.0000
# 6 0.0000 0.0000 0.0000 0.0000 0.0000 4.1723
#
#
#
# Elastic Compliance Matrix: (Units=1/GPa)
#
#
# Indices 1 2 3 4 5 6 
#
# 1 0.017651 -0.003490 0.000212 0.000000 0.000000 0.000000
# 2 -0.003490 0.008880 -0.004568 0.000000 0.000000 0.000000
# 3 0.000212 -0.004568 0.018320 0.000000 0.000000 0.000000
# 4 0.000000 0.000000 0.000000 0.055565 0.000000 0.000000
# 5 0.000000 0.000000 0.000000 0.000000 0.060996 0.000000
# 6 0.000000 0.000000 0.000000 0.000000 0.000000 0.239673
#
#
# Mechanical properties :
#
#
# Convention : Reuss Voigt Hill
#
# Bulk Modulus (GPa) = 34.29519 44.88044 39.58781
# Shear Modulus (GPa) = 11.72340 20.91462 16.31901
#
# Velocity S-wave (km/s) = 2.50710 3.34865 2.95796
# Velocity P-wave (km/s) = 5.17380 6.24613 5.73508
#
# Compressibility (1/GPa) = 0.02915860
#
# Stress axis : x y z
#
# Youngs Moduli (GPa) = 56.65439 112.61176 54.58434
#
# Poissons Ratio (x) = 0.39306 -0.01155
# Poissons Ratio (y) = 0.19775 0.24932
# Poissons Ratio (z) = -0.01199 0.51436
#
# Static dielectric constant tensor:
#      x y z
#    x 3.346380 0.000000 0.000000 
#    y 0.000000 3.810370 0.000000 
#    z 0.000000 0.000000 3.434990 
# 
# 
# High freq. dielectric constant tensor:
#      x y z
#    x 1.725610 0.000000 0.000000 
#    y 0.000000 1.710970 0.000000 
#    z 0.000000 0.000000 1.704340 
# 
# From -- ./inp_files/23179.got.cif
#   From: 2010.03.12/outbox.cif.g09.slc.cpg/sg44_12_cif.got.tgz:23179.got - 2010.04.14 02:36:11.
