data_PCOD8187520
_publ_section_title
;
Structure prediction by ZEFSAII (Michael W. Deem and Ramdas Pophale) SiO2 
 PCOD8187520
Probable space group: F D D 2
;
_chemical_formula_sum "Si O2"
_cell_formula_units_Z 96
_cell_length_a 21.600762
_cell_length_b 13.195202
_cell_length_c 15.575222
_cell_angle_alpha 90.000000
_cell_angle_beta 90.000000
_cell_angle_gamma 90.000000
_cell_volume 4439.349735
_symmetry_space_group_name_H-M "F D D 2"
_symmetry_group_IT_number 43
_symmetry_cell_setting 'orthorhombic'
loop_
_space_group_symop_operation_xyz
x,y,z
-x,-y,z
1/4-x,1/4+y,1/4+z
1/4+x,1/4-y,1/4+z
x,1/2+y,1/2+z
-x,1/2-y,1/2+z
1/4-x,3/4+y,3/4+z
1/4+x,3/4-y,3/4+z
1/2+x,y,1/2+z
1/2-x,-y,1/2+z
3/4-x,1/4+y,3/4+z
3/4+x,1/4-y,3/4+z
1/2+x,1/2+y,z
1/2-x,1/2-y,z
3/4-x,3/4+y,1/4+z
3/4+x,3/4-y,1/4+z
loop_
_atom_site_type_symbol
_atom_site_label
_atom_site_fract_x
_atom_site_fract_y
_atom_site_fract_z
Si Si1 0.043768 0.085815 0.440810
Si Si2 0.617541 0.952611 0.309538
Si Si3 0.750000 0.250000 0.448060
Si Si4 0.824230 0.257418 0.746122
Si Si5 0.824076 0.883830 0.406714
Si Si6 0.500000 0.000000 0.778513
Si Si7 0.242290 0.052816 0.834653
O O1 0.116700 0.058792 0.447866
O O2 0.029789 0.188272 0.494125
O O3 0.025290 0.091399 0.339762
O O4 0.000000 0.000000 0.485290
O O5 0.561015 0.997526 0.256091
O O6 0.595374 0.940312 0.407656
O O7 0.671093 0.037039 0.310473
O O8 0.643325 0.850588 0.265072
O O9 0.746109 0.349081 0.390910
O O10 0.750000 0.250000 0.749329
O O11 0.847462 0.332824 0.819451
O O12 0.804080 0.794736 0.470595
O O13 0.767079 0.958453 0.389898
#
# Coordination Sequence:
#
# PCOD8187520 Si02
#       7
#    16  16   8  16  16   8  16
#     4  10  26  44  67 102 138 187 235 288 361 428
#     4  12  27  47  74 108 147 194 248 305 373 451
#     4  12  27  45  74 102 150 200 248 299 387 448
#     4  12  26  48  73 110 145 191 248 303 377 436
#     4  12  25  44  76 103 145 185 243 304 361 433
#     4  10  23  47  66 110 132 186 238 293 363 422
#     4  12  26  48  70 108 146 196 241 312 359 452
#
# _framework density 21.624790000000001
#
# number of rings (size 3 to 8) (size 9 to 14) (size 15 to 20)
#    0.500    0.000    5.833    1.000    9.333    0.000 
#    3.000    0.000    0.000    0.000    0.000    0.000 
#    0.000    0.000    0.000    0.000    0.000    0.000 
#
# Total GULP energy -297502.432413 kJ/mol
# GULP energy per Si atom -12395.934684 kJ/mol
# Density = 2.157557 g / cm^3
# Si number density = 21.624790 Si / 1000 Ang^3
#
#
#
# Elastic Constant Matrix: (Units=GPa)
#
#
# Indices 1 2 3 4 5 6 
#
# 1 173.9145 44.3491 49.4967 0.0000 0.0000 0.0000
# 2 44.3491 87.6741 44.6641 0.0000 0.0000 0.0000
# 3 49.4967 44.6641 136.6710 0.0000 0.0000 0.0000
# 4 0.0000 0.0000 0.0000 13.5967 0.0000 0.0000
# 5 0.0000 0.0000 0.0000 0.0000 23.6621 0.0000
# 6 0.0000 0.0000 0.0000 0.0000 0.0000 39.2146
#
#
#
# Elastic Compliance Matrix: (Units=1/GPa)
#
#
# Indices 1 2 3 4 5 6 
#
# 1 0.006891 -0.002656 -0.001627 0.000000 0.000000 0.000000
# 2 -0.002656 0.014708 -0.003845 0.000000 0.000000 0.000000
# 3 -0.001627 -0.003845 0.009163 0.000000 0.000000 0.000000
# 4 0.000000 0.000000 0.000000 0.073547 0.000000 0.000000
# 5 0.000000 0.000000 0.000000 0.000000 0.042262 0.000000
# 6 0.000000 0.000000 0.000000 0.000000 0.000000 0.025501
#
#
# Mechanical properties :
#
#
# Convention : Reuss Voigt Hill
#
# Bulk Modulus (GPa) = 68.94391 75.03105 71.98748
# Shear Modulus (GPa) = 25.88493 32.61132 29.24812
#
# Velocity S-wave (km/s) = 3.46353 3.88758 3.68166
# Velocity P-wave (km/s) = 6.92429 7.41101 7.17178
#
# Compressibility (1/GPa) = 0.01450455
#
# Stress axis : x y z
#
# Youngs Moduli (GPa) = 145.12710 67.98932 109.13941
#
# Poissons Ratio (x) = 0.18061 0.17761
# Poissons Ratio (y) = 0.38553 0.41959
# Poissons Ratio (z) = 0.23617 0.26139
#
# Static dielectric constant tensor:
#      x y z
#    x 4.011160 0.000000 0.000000 
#    y 0.000000 3.781360 0.000000 
#    z 0.000000 0.000000 4.113650 
# 
# 
# High freq. dielectric constant tensor:
#      x y z
#    x 1.865170 0.000000 0.000000 
#    y 0.000000 1.833970 0.000000 
#    z 0.000000 0.000000 1.864730 
# 
# From -- ./inp_files/14844.got.cif
#   From: 2010.06.25/outbox.cif.g09.slc.cpg/sg43_8_cif.got.tgz:14844.got - 2010.06.26 16:48:59.
