data_PCOD8187859
_publ_section_title
;
Structure prediction by ZEFSAII (Michael W. Deem and Ramdas Pophale) SiO2 
 PCOD8187859
Probable space group: F D D 2
;
_chemical_formula_sum "Si O2"
_cell_formula_units_Z 72
_cell_length_a 15.939848
_cell_length_b 18.613171
_cell_length_c 9.373878
_cell_angle_alpha 90.000000
_cell_angle_beta 90.000000
_cell_angle_gamma 90.000000
_cell_volume 2781.146330
_symmetry_space_group_name_H-M "F D D 2"
_symmetry_group_IT_number 43
_symmetry_cell_setting 'orthorhombic'
loop_
_space_group_symop_operation_xyz
x,y,z
-x,-y,z
1/4-x,1/4+y,1/4+z
1/4+x,1/4-y,1/4+z
x,1/2+y,1/2+z
-x,1/2-y,1/2+z
1/4-x,3/4+y,3/4+z
1/4+x,3/4-y,3/4+z
1/2+x,y,1/2+z
1/2-x,-y,1/2+z
3/4-x,1/4+y,3/4+z
3/4+x,1/4-y,3/4+z
1/2+x,1/2+y,z
1/2-x,1/2-y,z
3/4-x,3/4+y,1/4+z
3/4+x,3/4-y,1/4+z
loop_
_atom_site_type_symbol
_atom_site_label
_atom_site_fract_x
_atom_site_fract_y
_atom_site_fract_z
Si Si1 0.124474 0.988916 0.401990
Si Si2 0.000000 0.000000 0.154166
Si Si3 0.292432 0.538365 0.807890
Si Si4 0.708786 0.649386 0.148255
Si Si5 0.659202 0.822111 0.925375
O O1 0.080643 0.014042 0.254951
O O2 0.125570 0.902738 0.404511
O O3 0.218541 0.020020 0.417408
O O4 0.074946 0.027475 0.530666
O O5 0.016921 0.932879 0.051364
O O6 0.247888 0.569467 0.664035
O O7 0.358995 0.595224 0.874769
O O8 0.337946 0.464125 0.772385
O O9 0.753160 0.684119 0.010794
#
# Coordination Sequence:
#
# PCOD8187859 Si02
#       5
#    16   8  16  16  16
#     4  12  31  50  85 122 173 214 285 352 430 508
#     4  12  28  50  78 122 170 218 278 354 428 516
#     4  12  28  50  85 120 164 218 280 342 428 510
#     4  12  27  51  84 115 169 222 282 343 432 511
#     4  12  28  52  83 120 164 219 280 345 425 510
#
# _framework density 25.888607
#
# number of rings (size 3 to 8) (size 9 to 14) (size 15 to 20)
#    0.000    0.000    4.444    2.667   12.444    0.000 
#    0.000    0.000    0.000    0.000    0.000    0.000 
#    0.000    0.000    0.000    0.000    0.000    0.000 
#
# Total GULP energy -223176.654762 kJ/mol
# GULP energy per Si atom -12398.703042 kJ/mol
# Density = 2.582968 g / cm^3
# Si number density = 25.888607 Si / 1000 Ang^3
#
#
#
# Elastic Constant Matrix: (Units=GPa)
#
#
# Indices 1 2 3 4 5 6 
#
# 1 178.5280 42.2321 43.1059 0.0000 0.0000 0.0000
# 2 42.2321 100.4970 18.2936 0.0000 0.0000 0.0000
# 3 43.1059 18.2936 141.5686 0.0000 0.0000 0.0000
# 4 0.0000 0.0000 0.0000 42.4573 0.0000 0.0000
# 5 0.0000 0.0000 0.0000 0.0000 32.8831 0.0000
# 6 0.0000 0.0000 0.0000 0.0000 0.0000 35.5752
#
#
#
# Elastic Compliance Matrix: (Units=1/GPa)
#
#
# Indices 1 2 3 4 5 6 
#
# 1 0.006592 -0.002463 -0.001689 0.000000 0.000000 0.000000
# 2 -0.002463 0.011110 -0.000686 0.000000 0.000000 0.000000
# 3 -0.001689 -0.000686 0.007667 0.000000 0.000000 0.000000
# 4 0.000000 0.000000 0.000000 0.023553 0.000000 0.000000
# 5 0.000000 0.000000 0.000000 0.000000 0.030411 0.000000
# 6 0.000000 0.000000 0.000000 0.000000 0.000000 0.028109
#
#
# Mechanical properties :
#
#
# Convention : Reuss Voigt Hill
#
# Bulk Modulus (GPa) = 63.71913 69.76190 66.74052
# Shear Modulus (GPa) = 40.86711 43.31392 42.09052
#
# Velocity S-wave (km/s) = 3.97744 4.09478 4.03653
# Velocity P-wave (km/s) = 6.76458 7.02579 6.89642
#
# Compressibility (1/GPa) = 0.01569387
#
# Stress axis : x y z
#
# Youngs Moduli (GPa) = 151.70610 90.00691 130.43632
#
# Poissons Ratio (x) = 0.22165 0.22029
# Poissons Ratio (y) = 0.37359 0.08946
# Poissons Ratio (z) = 0.25621 0.06173
#
# Static dielectric constant tensor:
#      x y z
#    x 4.740640 0.000000 0.000000 
#    y 0.000000 4.720010 0.000000 
#    z 0.000000 0.000000 4.578970 
# 
# 
# High freq. dielectric constant tensor:
#      x y z
#    x 2.049970 0.000000 0.000000 
#    y 0.000000 2.048380 0.000000 
#    z 0.000000 0.000000 2.033510 
# 
# From -- ./inp_files/2667.got.cif
#   From: 2010.06.25/outbox.cif.g09.slc.cpg/sg43_2_cif.got.tgz:2667.got - 2010.06.26 16:48:59.
