data_PCOD8187044
_publ_section_title
;
Structure prediction by ZEFSAII (Michael W. Deem and Ramdas Pophale) SiO2 
 PCOD8187044
Probable space group: F D D 2
;
_chemical_formula_sum "Si O2"
_cell_formula_units_Z 112
_cell_length_a 19.030265
_cell_length_b 13.769592
_cell_length_c 21.582290
_cell_angle_alpha 90.000000
_cell_angle_beta 90.000000
_cell_angle_gamma 90.000000
_cell_volume 5655.401359
_symmetry_space_group_name_H-M "F D D 2"
_symmetry_group_IT_number 43
_symmetry_cell_setting 'orthorhombic'
loop_
_space_group_symop_operation_xyz
x,y,z
-x,-y,z
1/4-x,1/4+y,1/4+z
1/4+x,1/4-y,1/4+z
x,1/2+y,1/2+z
-x,1/2-y,1/2+z
1/4-x,3/4+y,3/4+z
1/4+x,3/4-y,3/4+z
1/2+x,y,1/2+z
1/2-x,-y,1/2+z
3/4-x,1/4+y,3/4+z
3/4+x,1/4-y,3/4+z
1/2+x,1/2+y,z
1/2-x,1/2-y,z
3/4-x,3/4+y,1/4+z
3/4+x,3/4-y,1/4+z
loop_
_atom_site_type_symbol
_atom_site_label
_atom_site_fract_x
_atom_site_fract_y
_atom_site_fract_z
Si Si1 0.009285 0.750000 0.376810
Si Si2 0.822563 0.198955 0.662745
Si Si3 0.577762 0.654852 0.130144
Si Si4 0.172237 0.095148 0.373477
Si Si5 0.380075 0.750859 0.962773
Si Si6 0.072563 0.948955 0.340875
Si Si7 0.130074 0.000859 0.040847
O O1 0.960322 0.761211 0.437737
O O2 0.960321 0.738788 0.315884
O O3 0.060713 0.658622 0.386900
O O4 0.060713 0.841378 0.366720
O O5 0.750000 0.250000 0.680578
O O6 0.865339 0.261793 0.611741
O O7 0.875205 0.208412 0.721434
O O8 0.500000 0.699890 0.126810
O O9 0.599870 0.608633 0.198277
O O10 0.579672 0.570962 0.079788
O O11 0.170327 0.179038 0.423832
O O12 0.150130 0.141367 0.305343
O O13 0.115339 0.011793 0.391879
O O14 0.375205 0.791588 0.032186
O O15 0.000000 0.000000 0.323042
#
# Coordination Sequence:
#
# PCOD8187044 Si02
#       7
#    16  16  16  16  16  16  16
#     4  10  24  40  56  98 118 150 212 240 292 378
#     4  12  21  38  64  84 125 161 192 250 306 348
#     4  10  20  35  57  93 120 144 203 248 295 361
#     4  10  20  35  57  93 120 144 203 248 295 361
#     4  10  20  35  62  90 117 148 193 258 300 339
#     4  12  21  38  64  84 125 161 192 250 306 348
#     4  10  20  35  62  90 117 148 193 258 300 339
#
# _framework density 19.804076999999999
#
# number of rings (size 3 to 8) (size 9 to 14) (size 15 to 20)
#    0.000    1.714    5.714    4.286    4.000    0.000 
#    0.000    2.143    6.286    0.000    0.000    0.000 
#    0.000    0.000    0.000    0.000    0.000    0.000 
#
# Total GULP energy -346965.277174 kJ/mol
# GULP energy per Si atom -12391.617042 kJ/mol
# Density = 1.975900 g / cm^3
# Si number density = 19.804077 Si / 1000 Ang^3
#
#
#
# Elastic Constant Matrix: (Units=GPa)
#
#
# Indices 1 2 3 4 5 6 
#
# 1 117.1901 71.3235 18.6483 0.0000 0.0000 0.0000
# 2 71.3235 144.5841 26.7938 0.0000 0.0000 0.0000
# 3 18.6483 26.7938 34.3187 0.0000 0.0000 0.0000
# 4 0.0000 0.0000 0.0000 5.9287 0.0000 0.0000
# 5 0.0000 0.0000 0.0000 0.0000 18.5873 0.0000
# 6 0.0000 0.0000 0.0000 0.0000 0.0000 35.9045
#
#
#
# Elastic Compliance Matrix: (Units=1/GPa)
#
#
# Indices 1 2 3 4 5 6 
#
# 1 0.012345 -0.005667 -0.002284 0.000000 0.000000 0.000000
# 2 -0.005667 0.010687 -0.005265 0.000000 0.000000 0.000000
# 3 -0.002284 -0.005265 0.034490 0.000000 0.000000 0.000000
# 4 0.000000 0.000000 0.000000 0.168670 0.000000 0.000000
# 5 0.000000 0.000000 0.000000 0.000000 0.053800 0.000000
# 6 0.000000 0.000000 0.000000 0.000000 0.000000 0.027852
#
#
# Mechanical properties :
#
#
# Convention : Reuss Voigt Hill
#
# Bulk Modulus (GPa) = 32.16292 58.84712 45.50502
# Shear Modulus (GPa) = 14.50787 24.03926 19.27356
#
# Velocity S-wave (km/s) = 2.70954 3.48782 3.12302
# Velocity P-wave (km/s) = 5.10535 6.78226 6.00265
#
# Compressibility (1/GPa) = 0.03109171
#
# Stress axis : x y z
#
# Youngs Moduli (GPa) = 81.00131 93.56760 28.99377
#
# Poissons Ratio (x) = 0.53022 0.06623
# Poissons Ratio (y) = 0.45901 0.15265
# Poissons Ratio (z) = 0.18502 0.49262
#
# Static dielectric constant tensor:
#      x y z
#    x 3.491360 0.000000 0.000000 
#    y 0.000000 3.703370 0.000000 
#    z 0.000000 0.000000 3.461100 
# 
# 
# High freq. dielectric constant tensor:
#      x y z
#    x 1.764190 0.000000 0.000000 
#    y 0.000000 1.767870 0.000000 
#    z 0.000000 0.000000 1.743600 
# 
# From -- ./inp_files/22425.got.cif
#   From: 2010.06.25/outbox.cif.g09.slc.cpg/sg43_12_cif.got.tgz:22425.got - 2010.06.26 16:48:59.
