data_PCOD8187575
_publ_section_title
;
Structure prediction by ZEFSAII (Michael W. Deem and Ramdas Pophale) SiO2 
 PCOD8187575
Probable space group: F D D 2
;
_chemical_formula_sum "Si O2"
_cell_formula_units_Z 88
_cell_length_a 24.867262
_cell_length_b 20.256717
_cell_length_c 8.269471
_cell_angle_alpha 90.000000
_cell_angle_beta 90.000000
_cell_angle_gamma 90.000000
_cell_volume 4165.573093
_symmetry_space_group_name_H-M "F D D 2"
_symmetry_group_IT_number 43
_symmetry_cell_setting 'orthorhombic'
loop_
_space_group_symop_operation_xyz
x,y,z
-x,-y,z
1/4-x,1/4+y,1/4+z
1/4+x,1/4-y,1/4+z
x,1/2+y,1/2+z
-x,1/2-y,1/2+z
1/4-x,3/4+y,3/4+z
1/4+x,3/4-y,3/4+z
1/2+x,y,1/2+z
1/2-x,-y,1/2+z
3/4-x,1/4+y,3/4+z
3/4+x,1/4-y,3/4+z
1/2+x,1/2+y,z
1/2-x,1/2-y,z
3/4-x,3/4+y,1/4+z
3/4+x,3/4-y,1/4+z
loop_
_atom_site_type_symbol
_atom_site_label
_atom_site_fract_x
_atom_site_fract_y
_atom_site_fract_z
Si Si1 0.213599 0.462950 0.871460
Si Si2 0.000000 0.500000 0.279128
Si Si3 0.070068 0.262393 0.955120
Si Si4 0.601184 0.453542 0.948889
Si Si5 0.332572 0.173458 0.810378
Si Si6 0.128596 0.050713 0.241425
O O1 0.275851 0.455659 0.823301
O O2 0.179102 0.403674 0.796065
O O3 0.188197 0.526951 0.787420
O O4 0.208598 0.469557 0.064782
O O5 0.960596 0.543482 0.390697
O O6 0.964877 0.452403 0.168272
O O7 0.108010 0.320965 0.889412
O O8 0.108148 0.213438 0.051807
O O9 0.615339 0.379528 0.995594
O O10 0.608488 0.511882 0.082660
O O11 0.335224 0.211156 0.636738
#
# Coordination Sequence:
#
# PCOD8187575 Si02
#       6
#    16   8  16  16  16  16
#     4  11  23  43  69 103 133 190 233 293 360 429
#     4  10  26  44  68  98 138 190 228 292 356 424
#     4  10  25  41  68  99 139 182 239 290 355 427
#     4  11  25  44  70 103 139 185 238 300 353 431
#     4  10  24  46  67 101 142 182 236 294 359 424
#     4  11  24  45  70 102 142 180 238 297 359 427
#
# _framework density 21.125544000000001
#
# number of rings (size 3 to 8) (size 9 to 14) (size 15 to 20)
#    0.000    1.455    1.818    1.091   10.182    3.636 
#    3.273    0.000    0.000    0.000    0.000    0.000 
#    0.000    0.000    0.000    0.000    0.000    0.000 
#
# Total GULP energy -272673.991091 kJ/mol
# GULP energy per Si atom -12394.272322 kJ/mol
# Density = 2.107746 g / cm^3
# Si number density = 21.125544 Si / 1000 Ang^3
#
#
#
# Elastic Constant Matrix: (Units=GPa)
#
#
# Indices 1 2 3 4 5 6 
#
# 1 148.2037 39.5042 64.8790 -0.0001 0.0000 0.0000
# 2 39.5042 103.6978 30.1953 -0.0002 -0.0002 0.0002
# 3 64.8790 30.1953 124.4099 -0.0002 -0.0006 0.0001
# 4 -0.0001 -0.0002 -0.0002 25.7840 0.0001 0.0000
# 5 0.0000 -0.0002 -0.0006 0.0001 28.1221 -0.0001
# 6 0.0000 0.0002 0.0001 0.0000 -0.0001 17.8766
#
#
#
# Elastic Compliance Matrix: (Units=1/GPa)
#
#
# Indices 1 2 3 4 5 6 
#
# 1 0.009216 -0.002272 -0.004254 0.000000 0.000000 0.000000
# 2 -0.002272 0.010937 -0.001470 0.000000 0.000000 0.000000
# 3 -0.004254 -0.001470 0.010613 0.000000 0.000000 0.000000
# 4 0.000000 0.000000 0.000000 0.038784 0.000000 0.000000
# 5 0.000000 0.000000 0.000000 0.000000 0.035559 0.000000
# 6 0.000000 0.000000 0.000000 0.000000 0.000000 0.055939
#
#
# Mechanical properties :
#
#
# Convention : Reuss Voigt Hill
#
# Bulk Modulus (GPa) = 67.68797 71.71872 69.70334
# Shear Modulus (GPa) = 27.47790 30.47204 28.97497
#
# Velocity S-wave (km/s) = 3.61043 3.80205 3.70748
# Velocity P-wave (km/s) = 7.03496 7.30045 7.16893
#
# Compressibility (1/GPa) = 0.01477367
#
# Stress axis : x y z
#
# Youngs Moduli (GPa) = 108.51281 91.43405 94.22129
#
# Poissons Ratio (x) = 0.20773 0.40086
# Poissons Ratio (y) = 0.24653 0.13848
# Poissons Ratio (z) = 0.46166 0.13438
#
# Static dielectric constant tensor:
#      x y z
#    x 3.857210 0.000000 0.000000 
#    y 0.000000 3.664550 0.000000 
#    z 0.000000 0.000000 4.089130 
# 
# 
# High freq. dielectric constant tensor:
#      x y z
#    x 1.834190 0.000000 0.000000 
#    y 0.000000 1.820720 0.000000 
#    z 0.000000 0.000000 1.843060 
# 
# From -- ./inp_files/3203.got.cif
#   From: 2010.06.25/outbox.cif.g09.slc.cpg/sg43_2_cif.got.tgz:3203.got - 2010.06.26 16:48:59.
