data_PCOD8187187
_publ_section_title
;
Structure prediction by ZEFSAII (Michael W. Deem and Ramdas Pophale) SiO2 
 PCOD8187187
Probable space group: F D D 2
;
_chemical_formula_sum "Si O2"
_cell_formula_units_Z 112
_cell_length_a 20.405678
_cell_length_b 23.559552
_cell_length_c 11.680722
_cell_angle_alpha 90.000000
_cell_angle_beta 90.000000
_cell_angle_gamma 90.000000
_cell_volume 5615.491122
_symmetry_space_group_name_H-M "F D D 2"
_symmetry_group_IT_number 43
_symmetry_cell_setting 'orthorhombic'
loop_
_space_group_symop_operation_xyz
x,y,z
-x,-y,z
1/4-x,1/4+y,1/4+z
1/4+x,1/4-y,1/4+z
x,1/2+y,1/2+z
-x,1/2-y,1/2+z
1/4-x,3/4+y,3/4+z
1/4+x,3/4-y,3/4+z
1/2+x,y,1/2+z
1/2-x,-y,1/2+z
3/4-x,1/4+y,3/4+z
3/4+x,1/4-y,3/4+z
1/2+x,1/2+y,z
1/2-x,1/2-y,z
3/4-x,3/4+y,1/4+z
3/4+x,3/4-y,1/4+z
loop_
_atom_site_type_symbol
_atom_site_label
_atom_site_fract_x
_atom_site_fract_y
_atom_site_fract_z
Si Si1 0.560410 0.662721 0.492080
Si Si2 0.644757 0.943953 0.982533
Si Si3 0.187999 0.287041 0.646703
Si Si4 0.230761 0.594241 0.592523
Si Si5 0.927759 0.151912 0.594545
Si Si6 0.549442 0.546711 0.919440
Si Si7 0.116729 0.018586 0.156537
O O1 0.595976 0.659236 0.614225
O O2 0.558382 0.602085 0.431551
O O3 0.485278 0.681721 0.520306
O O4 0.599616 0.706252 0.410363
O O5 0.625010 0.008863 0.957890
O O6 0.709519 0.947569 0.060238
O O7 0.587452 0.909849 0.044906
O O8 0.250000 0.250000 0.686161
O O9 0.181748 0.281574 0.510287
O O10 0.198221 0.613664 0.473744
O O11 0.257993 0.645167 0.671120
O O12 0.176567 0.562558 0.666963
O O13 0.864249 0.193761 0.591214
O O14 0.500000 0.500000 0.866463
O O15 0.572831 0.525967 0.043893
#
# Coordination Sequence:
#
# PCOD8187187 Si02
#       7
#    16  16  16  16  16  16  16
#     4  10  21  37  60  86 122 160 201 251 303 356
#     4   9  19  38  58  87 118 152 203 252 298 362
#     4  11  21  38  62  89 119 162 204 250 306 358
#     4   9  20  40  60  86 121 158 196 255 303 362
#     4   9  18  40  59  84 123 150 202 252 296 361
#     4  10  21  40  63  90 121 157 200 249 304 363
#     4  10  23  40  59  90 125 158 203 250 300 370
#
# _framework density 19.944827
#
# number of rings (size 3 to 8) (size 9 to 14) (size 15 to 20)
#    0.000    2.286    1.429    0.429    2.000    1.143 
#   15.429    1.429    0.000    0.000    0.000    0.000 
#    0.000    0.000    0.000    0.000    0.000    0.000 
#
# Total GULP energy -347045.886978 kJ/mol
# GULP energy per Si atom -12394.495963 kJ/mol
# Density = 1.989943 g / cm^3
# Si number density = 19.944827 Si / 1000 Ang^3
#
#
#
# Elastic Constant Matrix: (Units=GPa)
#
#
# Indices 1 2 3 4 5 6 
#
# 1 102.3231 57.3445 32.0747 0.0000 0.0000 0.0000
# 2 57.3445 125.2689 43.2301 0.0000 0.0000 0.0000
# 3 32.0747 43.2301 49.0053 0.0000 0.0000 0.0000
# 4 0.0000 0.0000 0.0000 28.2693 0.0000 0.0000
# 5 0.0000 0.0000 0.0000 0.0000 23.9257 0.0000
# 6 0.0000 0.0000 0.0000 0.0000 0.0000 37.1545
#
#
#
# Elastic Compliance Matrix: (Units=1/GPa)
#
#
# Indices 1 2 3 4 5 6 
#
# 1 0.013958 -0.004653 -0.005031 0.000000 0.000000 0.000000
# 2 -0.004653 0.013028 -0.008447 0.000000 0.000000 0.000000
# 3 -0.005031 -0.008447 0.031150 0.000000 0.000000 0.000000
# 4 0.000000 0.000000 0.000000 0.035374 0.000000 0.000000
# 5 0.000000 0.000000 0.000000 0.000000 0.041796 0.000000
# 6 0.000000 0.000000 0.000000 0.000000 0.000000 0.026915
#
#
# Mechanical properties :
#
#
# Convention : Reuss Voigt Hill
#
# Bulk Modulus (GPa) = 45.71646 60.21066 52.96356
# Shear Modulus (GPa) = 24.29851 27.46643 25.88247
#
# Velocity S-wave (km/s) = 3.49418 3.71498 3.60627
# Velocity P-wave (km/s) = 6.26501 6.97536 6.62970
#
# Compressibility (1/GPa) = 0.02187396
#
# Stress axis : x y z
#
# Youngs Moduli (GPa) = 71.64479 76.75728 32.10267
#
# Poissons Ratio (x) = 0.35718 0.16149
# Poissons Ratio (y) = 0.33339 0.27117
# Poissons Ratio (z) = 0.36041 0.64837
#
# Static dielectric constant tensor:
#      x y z
#    x 3.983200 0.000000 0.000000 
#    y 0.000000 3.445070 0.000000 
#    z 0.000000 0.000000 3.480530 
# 
# 
# High freq. dielectric constant tensor:
#      x y z
#    x 1.799940 0.000000 0.000000 
#    y 0.000000 1.760770 0.000000 
#    z 0.000000 0.000000 1.766490 
# 
# From -- ./inp_files/7155.got.cif
#   From: 2010.06.25/outbox.cif.g09.slc.cpg/sg43_4_cif.got.tgz:7155.got - 2010.06.26 16:48:59.
