data_PCOD8187476
_publ_section_title
;
Structure prediction by ZEFSAII (Michael W. Deem and Ramdas Pophale) SiO2 
 PCOD8187476
Probable space group: F D D 2
;
_chemical_formula_sum "Si O2"
_cell_formula_units_Z 112
_cell_length_a 24.513994
_cell_length_b 14.310603
_cell_length_c 14.002114
_cell_angle_alpha 90.000000
_cell_angle_beta 90.000000
_cell_angle_gamma 90.000000
_cell_volume 4912.082118
_symmetry_space_group_name_H-M "F D D 2"
_symmetry_group_IT_number 43
_symmetry_cell_setting 'orthorhombic'
loop_
_space_group_symop_operation_xyz
x,y,z
-x,-y,z
1/4-x,1/4+y,1/4+z
1/4+x,1/4-y,1/4+z
x,1/2+y,1/2+z
-x,1/2-y,1/2+z
1/4-x,3/4+y,3/4+z
1/4+x,3/4-y,3/4+z
1/2+x,y,1/2+z
1/2-x,-y,1/2+z
3/4-x,1/4+y,3/4+z
3/4+x,1/4-y,3/4+z
1/2+x,1/2+y,z
1/2-x,1/2-y,z
3/4-x,3/4+y,1/4+z
3/4+x,3/4-y,1/4+z
loop_
_atom_site_type_symbol
_atom_site_label
_atom_site_fract_x
_atom_site_fract_y
_atom_site_fract_z
Si Si1 0.596200 0.846841 0.506780
Si Si2 0.813270 0.731367 0.376324
Si Si3 0.385025 0.266461 0.817114
Si Si4 0.713606 0.112502 0.375223
Si Si5 0.050765 0.930227 0.823603
Si Si6 0.080622 0.163689 0.612920
Si Si7 0.331026 0.052838 0.267927
O O1 0.656524 0.822100 0.464621
O O2 0.554013 0.878973 0.424987
O O3 0.572589 0.750996 0.544817
O O4 0.595717 0.925282 0.591091
O O5 0.750000 0.750000 0.404273
O O6 0.816700 0.660567 0.287436
O O7 0.326390 0.314946 0.825343
O O8 0.378312 0.153841 0.824513
O O9 0.410881 0.296469 0.718564
O O10 0.425198 0.294609 0.903680
O O11 0.703143 0.103603 0.488999
O O12 0.775462 0.147504 0.361242
O O13 0.710234 0.010878 0.327128
O O14 0.108486 0.982420 0.802160
O O15 0.000000 0.000000 0.820944
#
# Coordination Sequence:
#
# PCOD8187476 Si02
#       7
#    16  16  16  16  16  16  16
#     4  11  26  45  69 104 145 194 240 296 362 441
#     4  11  25  46  74 105 147 190 243 306 363 437
#     4  11  24  45  70  99 141 185 236 305 355 428
#     4  11  23  42  70 107 135 186 232 300 365 429
#     4  10  23  40  71 104 138 181 238 302 360 415
#     4  12  25  45  68  98 146 188 242 287 363 441
#     4  10  23  41  74 104 142 180 241 306 359 427
#
# _framework density 22.800920999999999
#
# number of rings (size 3 to 8) (size 9 to 14) (size 15 to 20)
#    0.000    1.143    1.429    4.286   12.000    2.286 
#    0.000    2.857    0.000    0.000    0.000    0.000 
#    0.000    0.000    0.000    0.000    0.000    0.000 
#
# Total GULP energy -347109.821499 kJ/mol
# GULP energy per Si atom -12396.779339 kJ/mol
# Density = 2.274903 g / cm^3
# Si number density = 22.800921 Si / 1000 Ang^3
#
#
#
# Elastic Constant Matrix: (Units=GPa)
#
#
# Indices 1 2 3 4 5 6 
#
# 1 118.1615 23.1061 38.4355 0.0000 0.0000 0.0000
# 2 23.1061 93.7023 25.2994 0.0000 0.0000 0.0000
# 3 38.4355 25.2994 103.8471 0.0000 0.0000 0.0000
# 4 0.0000 0.0000 0.0000 32.3714 0.0000 0.0000
# 5 0.0000 0.0000 0.0000 0.0000 21.8811 0.0000
# 6 0.0000 0.0000 0.0000 0.0000 0.0000 33.8723
#
#
#
# Elastic Compliance Matrix: (Units=1/GPa)
#
#
# Indices 1 2 3 4 5 6 
#
# 1 0.009825 -0.001542 -0.003261 0.000000 0.000000 0.000000
# 2 -0.001542 0.011666 -0.002271 0.000000 0.000000 0.000000
# 3 -0.003261 -0.002271 0.011390 0.000000 0.000000 0.000000
# 4 0.000000 0.000000 0.000000 0.030892 0.000000 0.000000
# 5 0.000000 0.000000 0.000000 0.000000 0.045702 0.000000
# 6 0.000000 0.000000 0.000000 0.000000 0.000000 0.029523
#
#
# Mechanical properties :
#
#
# Convention : Reuss Voigt Hill
#
# Bulk Modulus (GPa) = 53.38448 54.37698 53.88073
# Shear Modulus (GPa) = 31.36981 32.88294 32.12638
#
# Velocity S-wave (km/s) = 3.71322 3.80172 3.75773
# Velocity P-wave (km/s) = 6.46901 6.57047 6.51994
#
# Compressibility (1/GPa) = 0.01873204
#
# Stress axis : x y z
#
# Youngs Moduli (GPa) = 101.77851 85.72185 87.79881
#
# Poissons Ratio (x) = 0.13222 0.28629
# Poissons Ratio (y) = 0.15699 0.19940
# Poissons Ratio (z) = 0.33187 0.19468
#
# Static dielectric constant tensor:
#      x y z
#    x 4.178020 0.000000 0.000000 
#    y 0.000000 4.119600 0.000000 
#    z 0.000000 0.000000 4.216460 
# 
# 
# High freq. dielectric constant tensor:
#      x y z
#    x 1.896230 0.000000 0.000000 
#    y 0.000000 1.904760 0.000000 
#    z 0.000000 0.000000 1.898030 
# 
# From -- ./inp_files/11257.got.cif
#   From: 2010.06.25/outbox.cif.g09.slc.cpg/sg43_6_cif.got.tgz:11257.got - 2010.06.26 16:48:59.
