data_PCOD8187879
_publ_section_title
;
Structure prediction by ZEFSAII (Michael W. Deem and Ramdas Pophale) SiO2 
 PCOD8187879
Probable space group: I M M 2
;
_chemical_formula_sum "Si O2"
_cell_formula_units_Z 52
_cell_length_a 11.840593
_cell_length_b 9.307209
_cell_length_c 24.699915
_cell_angle_alpha 90.000000
_cell_angle_beta 90.000000
_cell_angle_gamma 90.000000
_cell_volume 2722.001614
_symmetry_space_group_name_H-M "I M M 2"
_symmetry_group_IT_number 44
_symmetry_cell_setting 'orthorhombic'
loop_
_space_group_symop_operation_xyz
x,y,z
-x,-y,z
-x,y,z
x,-y,z
1/2+x,1/2+y,1/2+z
1/2-x,1/2-y,1/2+z
1/2-x,1/2+y,1/2+z
1/2+x,1/2-y,1/2+z
loop_
_atom_site_type_symbol
_atom_site_label
_atom_site_fract_x
_atom_site_fract_y
_atom_site_fract_z
Si Si1 0.868189 0.666410 0.812880
Si Si2 0.753281 0.839490 0.420790
Si Si3 0.369078 0.667325 0.634499
Si Si4 0.500000 0.839256 0.791116
Si Si5 0.779712 0.671881 0.233209
Si Si6 0.000000 0.749533 0.410247
Si Si7 0.743571 0.830619 0.026475
Si Si8 0.000000 0.343420 0.526149
O O1 0.838399 0.500000 0.801663
O O2 0.805276 0.722924 0.866826
O O3 0.830247 0.761413 0.761574
O O4 0.000000 0.690146 0.821360
O O5 0.714328 0.742602 0.471311
O O6 0.888215 0.846872 0.412600
O O7 0.708925 0.000000 0.431802
O O8 0.500000 0.708746 0.641131
O O9 0.348005 0.500000 0.647728
O O10 0.292065 0.765833 0.672862
O O11 0.332751 0.703177 0.573229
O O12 0.612791 0.767234 0.767148
O O13 0.500000 0.841434 0.855535
O O14 0.500000 0.000000 0.768747
O O15 0.768898 0.500000 0.231653
O O16 0.000000 0.641158 0.460729
O O17 0.618269 0.767333 0.043374
O O18 0.732082 0.000000 0.015161
O O19 0.000000 0.500000 0.553120
#
# Coordination Sequence:
#
# PCOD8187879 Si02
#       8
#     8   8   8   4   8   4   8   4
#     4  10  22  40  58  80 114 154 191 226 272 337
#     4  10  20  33  53  83 113 143 182 229 279 328
#     4  10  21  38  58  81 110 145 187 233 278 332
#     4  10  19  31  53  86 115 142 176 225 281 333
#     4  11  22  38  59  85 114 144 184 233 284 336
#     4  10  16  30  52  80 111 146 175 224 271 332
#     4   9  19  35  55  78 106 145 187 227 274 328
#     4   8  15  29  51  76 103 136 178 221 265 321
#
# _framework density 19.103588999999999
#
# number of rings (size 3 to 8) (size 9 to 14) (size 15 to 20)
#    0.000    2.154    2.308    0.923    0.000    2.769 
#    1.385    0.000    0.000    0.000    0.000    0.000 
#    0.000    0.000    0.000    0.000    0.000    0.000 
#
# Total GULP energy -322310.118746 kJ/mol
# GULP energy per Si atom -12396.543029 kJ/mol
# Density = 1.906011 g / cm^3
# Si number density = 19.103589 Si / 1000 Ang^3
#
#
#
# Elastic Constant Matrix: (Units=GPa)
#
#
# Indices 1 2 3 4 5 6 
#
# 1 83.2412 33.4366 47.7886 0.0000 0.0000 0.0000
# 2 33.4366 71.8221 50.3280 0.0000 0.0000 0.0000
# 3 47.7886 50.3280 117.4385 0.0000 0.0000 0.0000
# 4 0.0000 0.0000 0.0000 33.2140 0.0000 0.0000
# 5 0.0000 0.0000 0.0000 0.0000 34.1752 0.0000
# 6 0.0000 0.0000 0.0000 0.0000 0.0000 21.2738
#
#
#
# Elastic Compliance Matrix: (Units=1/GPa)
#
#
# Indices 1 2 3 4 5 6 
#
# 1 0.016541 -0.004265 -0.004903 0.000000 0.000000 0.000000
# 2 -0.004265 0.020998 -0.007263 0.000000 0.000000 0.000000
# 3 -0.004903 -0.007263 0.013623 0.000000 0.000000 0.000000
# 4 0.000000 0.000000 0.000000 0.030108 0.000000 0.000000
# 5 0.000000 0.000000 0.000000 0.000000 0.029261 0.000000
# 6 0.000000 0.000000 0.000000 0.000000 0.000000 0.047006
#
#
# Mechanical properties :
#
#
# Convention : Reuss Voigt Hill
#
# Bulk Modulus (GPa) = 54.64560 59.51201 57.07881
# Shear Modulus (GPa) = 25.44516 27.12919 26.28718
#
# Velocity S-wave (km/s) = 3.65356 3.77252 3.71352
# Velocity P-wave (km/s) = 6.81652 7.08490 6.95201
#
# Compressibility (1/GPa) = 0.01829973
#
# Stress axis : x y z
#
# Youngs Moduli (GPa) = 60.45424 47.62255 73.40460
#
# Poissons Ratio (x) = 0.20310 0.35993
# Poissons Ratio (y) = 0.25783 0.53317
# Poissons Ratio (z) = 0.29643 0.34590
#
# Static dielectric constant tensor:
#      x y z
#    x 3.562080 0.000000 0.000000 
#    y 0.000000 3.226990 0.000000 
#    z 0.000000 0.000000 3.365870 
# 
# 
# High freq. dielectric constant tensor:
#      x y z
#    x 1.742610 0.000000 0.000000 
#    y 0.000000 1.722260 0.000000 
#    z 0.000000 0.000000 1.737910 
# 
# From -- ./inp_files/26377.got.cif
#   From: 2010.03.12/outbox.cif.g09.slc.cpg/sg44_14_cif.got.tgz:26377.got - 2010.04.14 02:36:11.
