data_PCOD8187979
_publ_section_title
;
Structure prediction by ZEFSAII (Michael W. Deem and Ramdas Pophale) SiO2 
 PCOD8187979
Probable space group: I M M 2
;
_chemical_formula_sum "Si O2"
_cell_formula_units_Z 56
_cell_length_a 8.440220
_cell_length_b 29.720481
_cell_length_c 13.699774
_cell_angle_alpha 90.000000
_cell_angle_beta 90.000000
_cell_angle_gamma 90.000000
_cell_volume 3436.552663
_symmetry_space_group_name_H-M "I M M 2"
_symmetry_group_IT_number 44
_symmetry_cell_setting 'orthorhombic'
loop_
_space_group_symop_operation_xyz
x,y,z
-x,-y,z
-x,y,z
x,-y,z
1/2+x,1/2+y,1/2+z
1/2-x,1/2-y,1/2+z
1/2-x,1/2+y,1/2+z
1/2+x,1/2-y,1/2+z
loop_
_atom_site_type_symbol
_atom_site_label
_atom_site_fract_x
_atom_site_fract_y
_atom_site_fract_z
Si Si1 0.185934 0.684390 0.045310
Si Si2 0.188682 0.596094 0.940134
Si Si3 0.815773 0.000000 0.234429
Si Si4 0.316854 0.000000 0.444931
Si Si5 0.188059 0.408528 0.716911
Si Si6 0.815413 0.733343 0.435646
Si Si7 0.185633 0.769079 0.728170
Si Si8 0.813536 0.319004 0.620549
O O1 0.276527 0.693932 0.145991
O O2 0.000000 0.681939 0.066013
O O3 0.254141 0.637016 0.004870
O O4 0.218546 0.721982 0.963332
O O5 0.254738 0.547804 0.983362
O O6 0.243022 0.601399 0.827940
O O7 0.000000 0.596400 0.942664
O O8 0.770204 0.045700 0.176242
O O9 0.703050 0.000000 0.328610
O O10 0.000000 0.000000 0.262223
O O11 0.500000 0.000000 0.471102
O O12 0.256241 0.367300 0.651674
O O13 0.000000 0.413254 0.707339
O O14 0.775761 0.717619 0.326866
O O15 0.767025 0.692747 0.508982
O O16 0.000000 0.744453 0.448036
O O17 0.250185 0.720724 0.691155
O O18 0.000000 0.768407 0.749101
O O19 0.000000 0.320620 0.634344
#
# Coordination Sequence:
#
# PCOD8187979 Si02
#       8
#     8   8   4   4   8   8   8   8
#     4  10  18  29  45  67  90 115 145 181 220 259
#     4   8  14  24  43  65  85 111 146 178 209 250
#     4  10  18  26  36  60  91 112 133 172 215 252
#     4   8  14  28  44  58  79 114 149 172 201 252
#     4   9  15  28  46  61  80 114 148 173 204 251
#     4  10  19  31  45  65  90 117 146 181 218 257
#     4  10  19  32  46  63  88 119 149 181 215 254
#     4   8  16  29  46  64  83 109 148 184 210 245
#
# _framework density 16.295400000000001
#
# number of rings (size 3 to 8) (size 9 to 14) (size 15 to 20)
#    0.000    2.857    0.000    4.500    0.000    2.286 
#    0.000   12.857    0.000    0.000    0.000    1.000 
#    0.000    4.571    0.000    0.000    0.000    0.000 
#
# Total GULP energy -346971.795721 kJ/mol
# GULP energy per Si atom -12391.849847 kJ/mol
# Density = 1.625831 g / cm^3
# Si number density = 16.295400 Si / 1000 Ang^3
#
#
#
# Elastic Constant Matrix: (Units=GPa)
#
#
# Indices 1 2 3 4 5 6 
#
# 1 26.1816 16.3630 10.4480 0.0000 0.0000 0.0000
# 2 16.3630 162.7716 60.5541 0.0000 0.0000 0.0000
# 3 10.4480 60.5541 91.7778 -0.0008 0.0001 0.0000
# 4 0.0000 0.0000 -0.0008 24.1555 0.0000 0.0000
# 5 0.0000 0.0000 0.0001 0.0000 19.2262 -0.0001
# 6 0.0000 0.0000 0.0000 0.0000 -0.0001 18.3528
#
#
#
# Elastic Compliance Matrix: (Units=1/GPa)
#
#
# Indices 1 2 3 4 5 6 
#
# 1 0.041217 -0.003178 -0.002595 0.000000 0.000000 0.000000
# 2 -0.003178 0.008387 -0.005172 0.000000 0.000000 0.000000
# 3 -0.002595 -0.005172 0.014604 0.000000 0.000000 0.000000
# 4 0.000000 0.000000 0.000000 0.041398 0.000000 0.000000
# 5 0.000000 0.000000 0.000000 0.000000 0.052012 0.000000
# 6 0.000000 0.000000 0.000000 0.000000 0.000000 0.054488
#
#
# Mechanical properties :
#
#
# Convention : Reuss Voigt Hill
#
# Bulk Modulus (GPa) = 23.63117 50.60680 37.11898
# Shear Modulus (GPa) = 20.15302 25.23797 22.69550
#
# Velocity S-wave (km/s) = 3.52053 3.93972 3.73601
# Velocity P-wave (km/s) = 5.57304 7.19851 6.43729
#
# Compressibility (1/GPa) = 0.04231700
#
# Stress axis : x y z
#
# Youngs Moduli (GPa) = 24.26208 119.23062 68.47558
#
# Poissons Ratio (x) = 0.37890 0.17772
# Poissons Ratio (y) = 0.07710 0.35415
# Poissons Ratio (z) = 0.06297 0.61666
#
# Static dielectric constant tensor:
#      x y z
#    x 2.827330 0.000000 0.000000 
#    y 0.000000 3.582270 0.000000 
#    z 0.000000 0.000000 2.900600 
# 
# 
# High freq. dielectric constant tensor:
#      x y z
#    x 1.610020 0.000000 0.000000 
#    y 0.000000 1.631450 0.000000 
#    z 0.000000 0.000000 1.590700 
# 
# From -- ./inp_files/17046.got.cif
#   From: 2010.03.12/outbox.cif.g09.slc.cpg/sg44_9_cif.got.tgz:17046.got - 2010.04.14 02:36:11.
