data_PCOD8187938
_publ_section_title
;
Structure prediction by ZEFSAII (Michael W. Deem and Ramdas Pophale) SiO2 
 PCOD8187938
Probable space group: I M M 2
;
_chemical_formula_sum "Si O2"
_cell_formula_units_Z 64
_cell_length_a 9.034466
_cell_length_b 30.523059
_cell_length_c 14.296865
_cell_angle_alpha 90.000000
_cell_angle_beta 90.000000
_cell_angle_gamma 90.000000
_cell_volume 3942.496898
_symmetry_space_group_name_H-M "I M M 2"
_symmetry_group_IT_number 44
_symmetry_cell_setting 'orthorhombic'
loop_
_space_group_symop_operation_xyz
x,y,z
-x,-y,z
-x,y,z
x,-y,z
1/2+x,1/2+y,1/2+z
1/2-x,1/2-y,1/2+z
1/2-x,1/2+y,1/2+z
1/2+x,1/2-y,1/2+z
loop_
_atom_site_type_symbol
_atom_site_label
_atom_site_fract_x
_atom_site_fract_y
_atom_site_fract_z
Si Si1 0.323781 0.285023 0.995910
Si Si2 0.175686 0.548137 0.370152
Si Si3 0.826571 0.549197 0.157652
Si Si4 0.325923 0.299205 0.589939
Si Si5 0.167006 0.367457 0.471558
Si Si6 0.667080 0.175797 0.775141
Si Si7 0.673415 0.728220 0.789376
Si Si8 0.326010 0.631979 0.115042
O O1 0.500000 0.279581 0.003331
O O2 0.266333 0.289756 0.888499
O O3 0.252273 0.242647 0.043821
O O4 0.270123 0.329753 0.045596
O O5 0.222632 0.500000 0.407802
O O6 0.233117 0.554346 0.264228
O O7 0.236328 0.585465 0.440659
O O8 0.000000 0.552924 0.366067
O O9 0.791436 0.500000 0.121665
O O10 0.744390 0.584459 0.090790
O O11 0.000000 0.558662 0.153380
O O12 0.500000 0.294426 0.572268
O O13 0.268946 0.345322 0.549854
O O14 0.288514 0.302442 0.701019
O O15 0.166101 0.335493 0.383585
O O16 0.000000 0.372842 0.510736
O O17 0.500000 0.172806 0.734183
O O18 0.738596 0.223904 0.765906
O O19 0.772253 0.143029 0.719417
O O20 0.500000 0.734768 0.801971
O O21 0.500000 0.627249 0.110911
#
# Coordination Sequence:
#
# PCOD8187938 Si02
#       8
#     8   8   8   8   8   8   8   8
#     4  10  20  35  49  64  90 127 162 187 226 282
#     4   8  14  26  46  69  89 118 160 190 212 265
#     4   9  17  31  50  68  91 126 162 189 222 284
#     4  11  21  31  47  70  92 118 157 201 233 267
#     4  10  18  30  48  67  92 127 156 188 227 275
#     4  10  17  29  48  65  90 130 164 184 219 280
#     4   9  18  33  48  61  87 127 163 190 222 270
#     4  11  21  29  45  72  99 123 153 201 241 267
#
# _framework density 16.233367000000001
#
# number of rings (size 3 to 8) (size 9 to 14) (size 15 to 20)
#    0.000    2.250    3.750    1.500    0.000    1.250 
#    0.000    1.250    0.000    0.375    0.000    0.875 
#    0.000    5.000    0.000    0.000    0.000    0.000 
#
# Total GULP energy -396590.433264 kJ/mol
# GULP energy per Si atom -12393.451040 kJ/mol
# Density = 1.619642 g / cm^3
# Si number density = 16.233367 Si / 1000 Ang^3
#
#
#
# Elastic Constant Matrix: (Units=GPa)
#
#
# Indices 1 2 3 4 5 6 
#
# 1 36.7016 28.5937 20.5513 -0.0003 0.0000 0.0000
# 2 28.5937 118.0467 33.8433 -0.0004 0.0000 0.0000
# 3 20.5513 33.8433 69.1497 -0.0009 -0.0001 -0.0001
# 4 -0.0003 -0.0004 -0.0009 26.2144 0.0000 0.0000
# 5 0.0000 0.0000 -0.0001 0.0000 17.7619 -0.0001
# 6 0.0000 0.0000 -0.0001 0.0000 -0.0001 25.1276
#
#
#
# Elastic Compliance Matrix: (Units=1/GPa)
#
#
# Indices 1 2 3 4 5 6 
#
# 1 0.036753 -0.006713 -0.007638 0.000000 0.000000 0.000000
# 2 -0.006713 0.011080 -0.003428 0.000000 0.000000 0.000000
# 3 -0.007638 -0.003428 0.018409 0.000000 0.000000 0.000000
# 4 0.000000 0.000000 0.000000 0.038147 0.000000 0.000000
# 5 0.000000 0.000000 0.000000 0.000000 0.056300 0.000000
# 6 0.000000 0.000000 0.000000 0.000000 0.000000 0.039797
#
#
# Mechanical properties :
#
#
# Convention : Reuss Voigt Hill
#
# Bulk Modulus (GPa) = 32.58841 43.31939 37.95390
# Shear Modulus (GPa) = 20.30281 23.21478 21.75879
#
# Velocity S-wave (km/s) = 3.54034 3.78572 3.66508
# Velocity P-wave (km/s) = 6.06882 6.77143 6.42973
#
# Compressibility (1/GPa) = 0.03068575
#
# Stress axis : x y z
#
# Youngs Moduli (GPa) = 27.20833 90.25324 54.32154
#
# Poissons Ratio (x) = 0.60586 0.41489
# Poissons Ratio (y) = 0.18265 0.18620
# Poissons Ratio (z) = 0.20781 0.30936
#
# Static dielectric constant tensor:
#      x y z
#    x 2.867530 0.000000 0.000000 
#    y 0.000000 3.315260 0.000000 
#    z 0.000000 0.000000 3.009640 
# 
# 
# High freq. dielectric constant tensor:
#      x y z
#    x 1.601550 0.000000 0.000000 
#    y 0.000000 1.626660 0.000000 
#    z 0.000000 0.000000 1.593920 
# 
# From -- ./inp_files/17073.got.cif
#   From: 2010.03.12/outbox.cif.g09.slc.cpg/sg44_9_cif.got.tgz:17073.got - 2010.04.14 02:36:11.
