data_PCOD8187354
_publ_section_title
;
Structure prediction by ZEFSAII (Michael W. Deem and Ramdas Pophale) SiO2 
 PCOD8187354
Probable space group: F D D 2
;
_chemical_formula_sum "Si O2"
_cell_formula_units_Z 104
_cell_length_a 9.595422
_cell_length_b 18.525490
_cell_length_c 27.370447
_cell_angle_alpha 90.000000
_cell_angle_beta 90.000000
_cell_angle_gamma 90.000000
_cell_volume 4865.367766
_symmetry_space_group_name_H-M "F D D 2"
_symmetry_group_IT_number 43
_symmetry_cell_setting 'orthorhombic'
loop_
_space_group_symop_operation_xyz
x,y,z
-x,-y,z
1/4-x,1/4+y,1/4+z
1/4+x,1/4-y,1/4+z
x,1/2+y,1/2+z
-x,1/2-y,1/2+z
1/4-x,3/4+y,3/4+z
1/4+x,3/4-y,3/4+z
1/2+x,y,1/2+z
1/2-x,-y,1/2+z
3/4-x,1/4+y,3/4+z
3/4+x,1/4-y,3/4+z
1/2+x,1/2+y,z
1/2-x,1/2-y,z
3/4-x,3/4+y,1/4+z
3/4+x,3/4-y,1/4+z
loop_
_atom_site_type_symbol
_atom_site_label
_atom_site_fract_x
_atom_site_fract_y
_atom_site_fract_z
Si Si1 0.006096 0.863460 0.727580
Si Si2 0.210019 0.557184 0.968836
Si Si3 0.643607 0.371060 0.119306
Si Si4 0.276825 0.330166 0.275837
Si Si5 0.017680 0.148031 0.526331
Si Si6 0.750000 0.250000 0.047756
Si Si7 0.552238 0.579060 0.626489
O O1 0.145047 0.877820 0.759219
O O2 0.973579 0.778828 0.720188
O O3 0.886460 0.909412 0.755078
O O4 0.030239 0.897566 0.674645
O O5 0.192512 0.588080 0.914160
O O6 0.334535 0.601993 0.995502
O O7 0.073370 0.575954 0.999839
O O8 0.545167 0.420139 0.084782
O O9 0.682616 0.308349 0.082489
O O10 0.780362 0.416014 0.136241
O O11 0.250000 0.250000 0.257927
O O12 0.122716 0.215723 0.515605
O O13 0.009168 0.134668 0.584225
O O14 0.500000 0.500000 0.611180
#
# Coordination Sequence:
#
# PCOD8187354 Si02
#       7
#    16  16  16  16  16   8  16
#     4  11  24  41  67  96 132 176 219 280 332 394
#     4  11  20  42  68  92 125 183 225 259 337 403
#     4  11  22  42  66  94 130 177 216 278 330 399
#     4  10  24  43  61  95 135 170 223 274 329 401
#     4  11  22  39  69  93 126 175 221 272 330 393
#     4  10  22  40  64 100 128 158 234 282 314 404
#     4  11  23  39  63 103 129 161 228 277 325 398
#
# _framework density 21.375567
#
# number of rings (size 3 to 8) (size 9 to 14) (size 15 to 20)
#    0.000    1.231    4.615    3.231    2.154    2.462 
#    1.385    1.538    0.000    0.000    0.000    0.000 
#    0.000    0.000    0.000    0.000    0.000    0.000 
#
# Total GULP energy -322280.431468 kJ/mol
# GULP energy per Si atom -12395.401210 kJ/mol
# Density = 2.132692 g / cm^3
# Si number density = 21.375567 Si / 1000 Ang^3
#
#
#
# Elastic Constant Matrix: (Units=GPa)
#
#
# Indices 1 2 3 4 5 6 
#
# 1 106.1753 18.6103 36.6046 0.0000 0.0000 0.0000
# 2 18.6103 53.4340 1.3236 0.0000 0.0000 0.0000
# 3 36.6046 1.3236 113.3141 0.0000 0.0000 0.0000
# 4 0.0000 0.0000 0.0000 32.1134 0.0000 0.0000
# 5 0.0000 0.0000 0.0000 0.0000 40.1761 0.0000
# 6 0.0000 0.0000 0.0000 0.0000 0.0000 28.1553
#
#
#
# Elastic Compliance Matrix: (Units=1/GPa)
#
#
# Indices 1 2 3 4 5 6 
#
# 1 0.011343 -0.003861 -0.003619 0.000000 0.000000 0.000000
# 2 -0.003861 0.020034 0.001013 0.000000 0.000000 0.000000
# 3 -0.003619 0.001013 0.009982 0.000000 0.000000 0.000000
# 4 0.000000 0.000000 0.000000 0.031140 0.000000 0.000000
# 5 0.000000 0.000000 0.000000 0.000000 0.024890 0.000000
# 6 0.000000 0.000000 0.000000 0.000000 0.000000 0.035517
#
#
# Mechanical properties :
#
#
# Convention : Reuss Voigt Hill
#
# Bulk Modulus (GPa) = 35.17921 42.88892 39.03406
# Shear Modulus (GPa) = 32.19254 34.51462 33.35358
#
# Velocity S-wave (km/s) = 3.88499 4.02266 3.95442
# Velocity P-wave (km/s) = 6.05125 6.45630 6.25705
#
# Compressibility (1/GPa) = 0.02842588
#
# Stress axis : x y z
#
# Youngs Moduli (GPa) = 88.16162 49.91445 100.17753
#
# Poissons Ratio (x) = 0.19271 0.36255
# Poissons Ratio (y) = 0.34038 -0.10150
# Poissons Ratio (z) = 0.31906 -0.05057
#
# Static dielectric constant tensor:
#      x y z
#    x 3.984700 0.000000 0.000000 
#    y 0.000000 3.605830 0.000000 
#    z 0.000000 0.000000 3.870330 
# 
# 
# High freq. dielectric constant tensor:
#      x y z
#    x 1.838910 0.000000 0.000000 
#    y 0.000000 1.828410 0.000000 
#    z 0.000000 0.000000 1.841360 
# 
# From -- ./inp_files/24310.got.cif
#   From: 2010.06.25/outbox.cif.g09.slc.cpg/sg43_13_cif.got.tgz:24310.got - 2010.06.26 16:48:59.
