data_PCOD8187550
_publ_section_title
;
Structure prediction by ZEFSAII (Michael W. Deem and Ramdas Pophale) SiO2 
 PCOD8187550
Probable space group: F D D 2
;
_chemical_formula_sum "Si O2"
_cell_formula_units_Z 120
_cell_length_a 23.383077
_cell_length_b 19.057477
_cell_length_c 12.291645
_cell_angle_alpha 90.000000
_cell_angle_beta 90.000000
_cell_angle_gamma 90.000000
_cell_volume 5477.432985
_symmetry_space_group_name_H-M "F D D 2"
_symmetry_group_IT_number 43
_symmetry_cell_setting 'orthorhombic'
loop_
_space_group_symop_operation_xyz
x,y,z
-x,-y,z
1/4-x,1/4+y,1/4+z
1/4+x,1/4-y,1/4+z
x,1/2+y,1/2+z
-x,1/2-y,1/2+z
1/4-x,3/4+y,3/4+z
1/4+x,3/4-y,3/4+z
1/2+x,y,1/2+z
1/2-x,-y,1/2+z
3/4-x,1/4+y,3/4+z
3/4+x,1/4-y,3/4+z
1/2+x,1/2+y,z
1/2-x,1/2-y,z
3/4-x,3/4+y,1/4+z
3/4+x,3/4-y,1/4+z
loop_
_atom_site_type_symbol
_atom_site_label
_atom_site_fract_x
_atom_site_fract_y
_atom_site_fract_z
Si Si1 0.972662 0.850841 0.591680
Si Si2 0.250000 0.750000 0.603204
Si Si3 0.918162 0.771118 0.779576
Si Si4 0.670828 0.173636 0.443364
Si Si5 0.633881 0.355000 0.190722
Si Si6 0.005811 0.282741 0.464873
Si Si7 0.562118 0.095742 0.523358
Si Si8 0.134235 0.773245 0.964909
O O1 0.924055 0.817834 0.670878
O O2 0.941323 0.905228 0.511645
O O3 0.002575 0.792035 0.519002
O O4 0.021283 0.887412 0.658323
O O5 0.306209 0.772810 0.534767
O O6 0.223704 0.810797 0.676767
O O7 0.859198 0.787265 0.842608
O O8 0.917425 0.689442 0.744629
O O9 0.973304 0.785986 0.851133
O O10 0.626194 0.117257 0.489592
O O11 0.616681 0.437843 0.200489
O O12 0.648962 0.314785 0.076976
O O13 0.071024 0.301487 0.437340
O O14 0.976525 0.336350 0.550717
O O15 0.567943 0.047088 0.628741
#
# Coordination Sequence:
#
# PCOD8187550 Si02
#       8
#    16   8  16  16  16  16  16  16
#     4  11  24  44  70 103 140 187 242 295 364 448
#     4  12  26  46  66 110 134 180 246 300 350 450
#     4  11  23  43  71 101 140 189 239 300 364 439
#     4  11  25  43  72  98 142 181 239 299 359 422
#     4  11  24  46  69 103 144 189 236 298 365 444
#     4  10  24  43  69 101 133 192 234 291 355 447
#     4  11  26  42  74  98 139 183 238 293 365 426
#     4  11  25  47  72 101 149 188 235 304 367 443
#
# _framework density 21.908073000000002
#
# number of rings (size 3 to 8) (size 9 to 14) (size 15 to 20)
#    0.000    1.067    2.667    4.000    9.333    2.133 
#    0.000    2.667    0.000    0.000    0.000    0.000 
#    0.000    0.000    0.000    0.000    0.000    0.000 
#
# Total GULP energy -371675.600678 kJ/mol
# GULP energy per Si atom -12389.186689 kJ/mol
# Density = 2.185821 g / cm^3
# Si number density = 21.908073 Si / 1000 Ang^3
#
#
#
# Elastic Constant Matrix: (Units=GPa)
#
#
# Indices 1 2 3 4 5 6 
#
# 1 105.1513 43.5977 28.6381 0.0000 0.0000 0.0000
# 2 43.5977 90.1137 65.3766 0.0000 0.0000 0.0000
# 3 28.6381 65.3766 82.8158 0.0000 0.0000 0.0000
# 4 0.0000 0.0000 0.0000 33.2017 0.0000 0.0000
# 5 0.0000 0.0000 0.0000 0.0000 16.7118 0.0000
# 6 0.0000 0.0000 0.0000 0.0000 0.0000 43.6502
#
#
#
# Elastic Compliance Matrix: (Units=1/GPa)
#
#
# Indices 1 2 3 4 5 6 
#
# 1 0.011932 -0.006505 0.001009 0.000000 0.000000 0.000000
# 2 -0.006505 0.029517 -0.021052 0.000000 0.000000 0.000000
# 3 0.001009 -0.021052 0.028345 0.000000 0.000000 0.000000
# 4 0.000000 0.000000 0.000000 0.030119 0.000000 0.000000
# 5 0.000000 0.000000 0.000000 0.000000 0.059838 0.000000
# 6 0.000000 0.000000 0.000000 0.000000 0.000000 0.022909
#
#
# Mechanical properties :
#
#
# Convention : Reuss Voigt Hill
#
# Bulk Modulus (GPa) = 59.88595 61.47839 60.68217
# Shear Modulus (GPa) = 20.71897 28.07728 24.39813
#
# Velocity S-wave (km/s) = 3.07860 3.58382 3.34077
# Velocity P-wave (km/s) = 6.32704 6.72666 6.52991
#
# Compressibility (1/GPa) = 0.01669841
#
# Stress axis : x y z
#
# Youngs Moduli (GPa) = 83.80542 33.87822 35.27918
#
# Poissons Ratio (x) = 0.22037 -0.03559
# Poissons Ratio (y) = 0.54514 0.74271
# Poissons Ratio (z) = -0.08454 0.71322
#
# Static dielectric constant tensor:
#      x y z
#    x 4.003080 0.000000 0.000000 
#    y 0.000000 4.189670 0.000000 
#    z 0.000000 0.000000 4.154190 
# 
# 
# High freq. dielectric constant tensor:
#      x y z
#    x 1.860810 0.000000 0.000000 
#    y 0.000000 1.872500 0.000000 
#    z 0.000000 0.000000 1.869580 
# 
# From -- ./inp_files/6822.got.cif
#   From: 2010.06.25/outbox.cif.g09.slc.cpg/sg43_4_cif.got.tgz:6822.got - 2010.06.26 16:48:59.
