data_PCOD8187616
_publ_section_title
;
Structure prediction by ZEFSAII (Michael W. Deem and Ramdas Pophale) SiO2 
 PCOD8187616
Probable space group: F D D 2
;
_chemical_formula_sum "Si O2"
_cell_formula_units_Z 88
_cell_length_a 25.068612
_cell_length_b 12.979416
_cell_length_c 13.807618
_cell_angle_alpha 90.000000
_cell_angle_beta 90.000000
_cell_angle_gamma 90.000000
_cell_volume 4492.666737
_symmetry_space_group_name_H-M "F D D 2"
_symmetry_group_IT_number 43
_symmetry_cell_setting 'orthorhombic'
loop_
_space_group_symop_operation_xyz
x,y,z
-x,-y,z
1/4-x,1/4+y,1/4+z
1/4+x,1/4-y,1/4+z
x,1/2+y,1/2+z
-x,1/2-y,1/2+z
1/4-x,3/4+y,3/4+z
1/4+x,3/4-y,3/4+z
1/2+x,y,1/2+z
1/2-x,-y,1/2+z
3/4-x,1/4+y,3/4+z
3/4+x,1/4-y,3/4+z
1/2+x,1/2+y,z
1/2-x,1/2-y,z
3/4-x,3/4+y,1/4+z
3/4+x,3/4-y,1/4+z
loop_
_atom_site_type_symbol
_atom_site_label
_atom_site_fract_x
_atom_site_fract_y
_atom_site_fract_z
Si Si1 0.496849 0.115642 0.359750
Si Si2 0.386059 0.699846 0.913691
Si Si3 0.109937 0.570526 0.879632
Si Si4 0.000000 0.000000 0.345034
Si Si5 0.279430 0.642000 0.816849
Si Si6 0.282279 0.951695 0.975108
O O1 0.437074 0.128805 0.398807
O O2 0.535266 0.132032 0.452754
O O3 0.513582 0.195042 0.277468
O O4 0.500000 0.000000 0.317295
O O5 0.395255 0.808057 0.860915
O O6 0.337244 0.640826 0.864652
O O7 0.375572 0.726105 0.025776
O O8 0.051999 0.524614 0.910963
O O9 0.153591 0.543211 0.961530
O O10 0.013003 0.900800 0.279720
O O11 0.250000 0.750000 0.833130
O O12 0.244486 0.552760 0.868630
#
# Coordination Sequence:
#
# PCOD8187616 Si02
#       6
#    16  16  16   8  16  16
#     4  11  25  41  62  95 135 173 205 262 329 389
#     4  12  20  38  70  92 119 162 223 269 304 363
#     4  12  21  37  68  97 119 163 215 276 308 369
#     4  12  22  38  68 100 116 164 220 268 320 364
#     4  11  19  39  70  99 117 164 231 266 298 371
#     4  12  21  40  68  97 131 161 219 273 316 381
#
# _framework density 19.587475999999999
#
# number of rings (size 3 to 8) (size 9 to 14) (size 15 to 20)
#    0.000    0.364   10.000    1.091    0.000    0.000 
#    3.273    0.000   12.000    0.000    0.000    0.000 
#    0.000    0.000    0.000    0.000    0.000    0.000 
#
# Total GULP energy -272819.849184 kJ/mol
# GULP energy per Si atom -12400.902236 kJ/mol
# Density = 1.954289 g / cm^3
# Si number density = 19.587476 Si / 1000 Ang^3
#
#
#
# Elastic Constant Matrix: (Units=GPa)
#
#
# Indices 1 2 3 4 5 6 
#
# 1 140.4544 38.0783 25.2984 0.0000 0.0000 0.0000
# 2 38.0783 111.7137 49.2456 0.0000 0.0000 0.0000
# 3 25.2984 49.2456 75.9638 0.0000 0.0000 0.0000
# 4 0.0000 0.0000 0.0000 29.8937 0.0000 0.0000
# 5 0.0000 0.0000 0.0000 0.0000 31.5514 0.0000
# 6 0.0000 0.0000 0.0000 0.0000 0.0000 32.3062
#
#
#
# Elastic Compliance Matrix: (Units=1/GPa)
#
#
# Indices 1 2 3 4 5 6 
#
# 1 0.007928 -0.002154 -0.001244 0.000000 0.000000 0.000000
# 2 -0.002154 0.013118 -0.007787 0.000000 0.000000 0.000000
# 3 -0.001244 -0.007787 0.018627 0.000000 0.000000 0.000000
# 4 0.000000 0.000000 0.000000 0.033452 0.000000 0.000000
# 5 0.000000 0.000000 0.000000 0.000000 0.031694 0.000000
# 6 0.000000 0.000000 0.000000 0.000000 0.000000 0.030954
#
#
# Mechanical properties :
#
#
# Convention : Reuss Voigt Hill
#
# Bulk Modulus (GPa) = 57.79319 61.48627 59.63973
# Shear Modulus (GPa) = 30.50462 33.11758 31.81110
#
# Velocity S-wave (km/s) = 3.95061 4.11634 4.03433
# Velocity P-wave (km/s) = 7.09782 7.35194 7.22600
#
# Compressibility (1/GPa) = 0.01730308
#
# Stress axis : x y z
#
# Youngs Moduli (GPa) = 126.13954 76.22957 53.68693
#
# Poissons Ratio (x) = 0.16419 0.06678
# Poissons Ratio (y) = 0.27169 0.41806
# Poissons Ratio (z) = 0.15690 0.59360
#
# Static dielectric constant tensor:
#      x y z
#    x 3.846640 0.000000 0.000000 
#    y 0.000000 3.482500 0.000000 
#    z 0.000000 0.000000 3.474360 
# 
# 
# High freq. dielectric constant tensor:
#      x y z
#    x 1.778930 0.000000 0.000000 
#    y 0.000000 1.749440 0.000000 
#    z 0.000000 0.000000 1.741500 
# 
# From -- ./inp_files/6205.got.cif
#   From: 2010.06.25/outbox.cif.g09.slc.cpg/sg43_4_cif.got.tgz:6205.got - 2010.06.26 16:48:59.
