data_PCOD8187082
_publ_section_title
;
Structure prediction by ZEFSAII (Michael W. Deem and Ramdas Pophale) SiO2 
 PCOD8187082
Probable space group: F D D 2
;
_chemical_formula_sum "Si O2"
_cell_formula_units_Z 120
_cell_length_a 21.149225
_cell_length_b 16.232691
_cell_length_c 17.573499
_cell_angle_alpha 90.000000
_cell_angle_beta 90.000000
_cell_angle_gamma 90.000000
_cell_volume 6033.137457
_symmetry_space_group_name_H-M "F D D 2"
_symmetry_group_IT_number 43
_symmetry_cell_setting 'orthorhombic'
loop_
_space_group_symop_operation_xyz
x,y,z
-x,-y,z
1/4-x,1/4+y,1/4+z
1/4+x,1/4-y,1/4+z
x,1/2+y,1/2+z
-x,1/2-y,1/2+z
1/4-x,3/4+y,3/4+z
1/4+x,3/4-y,3/4+z
1/2+x,y,1/2+z
1/2-x,-y,1/2+z
3/4-x,1/4+y,3/4+z
3/4+x,1/4-y,3/4+z
1/2+x,1/2+y,z
1/2-x,1/2-y,z
3/4-x,3/4+y,1/4+z
3/4+x,3/4-y,1/4+z
loop_
_atom_site_type_symbol
_atom_site_label
_atom_site_fract_x
_atom_site_fract_y
_atom_site_fract_z
Si Si1 0.500000 0.000000 0.696090
Si Si2 0.299070 0.504315 0.637274
Si Si3 0.969162 0.378087 0.252163
Si Si4 0.086292 0.878805 0.272873
Si Si5 0.398814 0.538086 0.759222
Si Si6 0.408624 0.871490 0.657667
Si Si7 0.314522 0.982734 0.745669
Si Si8 0.973054 0.728905 0.659767
O O1 0.526229 0.935271 0.756498
O O2 0.449104 0.955264 0.640607
O O3 0.277284 0.565109 0.571410
O O4 0.328117 0.419624 0.602948
O O5 0.350176 0.550379 0.690154
O O6 0.235887 0.485592 0.684489
O O7 0.910684 0.439748 0.268593
O O8 0.962904 0.326087 0.174030
O O9 0.034307 0.424434 0.239185
O O10 0.086102 0.813633 0.203184
O O11 0.147542 0.935966 0.270844
O O12 0.373561 0.582581 0.834208
O O13 0.355139 0.903435 0.717113
O O14 0.457811 0.802909 0.691011
O O15 0.278314 0.953480 0.821406
#
# Coordination Sequence:
#
# PCOD8187082 Si02
#       8
#     8  16  16  16  16  16  16  16
#     4   8  18  38  58  86 128 156 208 252 324 352
#     4  11  22  39  62  90 122 163 207 255 311 376
#     4  10  24  41  59  88 126 162 205 256 315 368
#     4   9  21  37  59  88 123 159 204 261 306 371
#     4  11  22  40  60  86 126 161 205 254 310 374
#     4  10  20  38  60  92 123 162 204 263 307 379
#     4  11  21  38  64  91 123 162 211 252 320 374
#     4  10  21  40  60  88 124 163 205 260 313 366
#
# _framework density 19.890146999999999
#
# number of rings (size 3 to 8) (size 9 to 14) (size 15 to 20)
#    0.000    1.867    2.667    0.800    1.867    4.267 
#    2.400    1.333    0.000    3.200    0.000    0.000 
#    0.000    0.000    0.000    0.000    0.000    0.000 
#
# Total GULP energy -371668.404953 kJ/mol
# GULP energy per Si atom -12388.946832 kJ/mol
# Density = 1.984488 g / cm^3
# Si number density = 19.890147 Si / 1000 Ang^3
#
#
#
# Elastic Constant Matrix: (Units=GPa)
#
#
# Indices 1 2 3 4 5 6 
#
# 1 89.4965 33.1861 39.4312 0.0000 0.0000 0.0000
# 2 33.1861 104.2647 47.0780 0.0000 0.0000 0.0000
# 3 39.4312 47.0780 110.6735 0.0000 0.0000 0.0000
# 4 0.0000 0.0000 0.0000 35.4487 0.0000 0.0000
# 5 0.0000 0.0000 0.0000 0.0000 25.8854 0.0000
# 6 0.0000 0.0000 0.0000 0.0000 0.0000 27.8441
#
#
#
# Elastic Compliance Matrix: (Units=1/GPa)
#
#
# Indices 1 2 3 4 5 6 
#
# 1 0.013841 -0.002697 -0.003784 0.000000 0.000000 0.000000
# 2 -0.002697 0.012396 -0.004312 0.000000 0.000000 0.000000
# 3 -0.003784 -0.004312 0.012218 0.000000 0.000000 0.000000
# 4 0.000000 0.000000 0.000000 0.028210 0.000000 0.000000
# 5 0.000000 0.000000 0.000000 0.000000 0.038632 0.000000
# 6 0.000000 0.000000 0.000000 0.000000 0.000000 0.035914
#
#
# Mechanical properties :
#
#
# Convention : Reuss Voigt Hill
#
# Bulk Modulus (GPa) = 59.28029 60.42503 59.85266
# Shear Modulus (GPa) = 29.68755 30.15161 29.91958
#
# Velocity S-wave (km/s) = 3.86758 3.89769 3.88266
# Velocity P-wave (km/s) = 7.05782 7.12048 7.08922
#
# Compressibility (1/GPa) = 0.01686901
#
# Stress axis : x y z
#
# Youngs Moduli (GPa) = 72.24990 80.66831 81.84515
#
# Poissons Ratio (x) = 0.21754 0.30971
# Poissons Ratio (y) = 0.19484 0.35295
# Poissons Ratio (z) = 0.27340 0.34787
#
# Static dielectric constant tensor:
#      x y z
#    x 3.762360 0.000000 0.000000 
#    y 0.000000 3.948630 0.000000 
#    z 0.000000 0.000000 3.504850 
# 
# 
# High freq. dielectric constant tensor:
#      x y z
#    x 1.778730 0.000000 0.000000 
#    y 0.000000 1.783860 0.000000 
#    z 0.000000 0.000000 1.762350 
# 
# From -- ./inp_files/14658.got.cif
#   From: 2010.06.25/outbox.cif.g09.slc.cpg/sg43_8_cif.got.tgz:14658.got - 2010.06.26 16:48:59.
