data_PCOD8187133
_publ_section_title
;
Structure prediction by ZEFSAII (Michael W. Deem and Ramdas Pophale) SiO2 
 PCOD8187133
Probable space group: F D D 2
;
_chemical_formula_sum "Si O2"
_cell_formula_units_Z 112
_cell_length_a 32.419815
_cell_length_b 15.097181
_cell_length_c 10.502327
_cell_angle_alpha 90.000000
_cell_angle_beta 90.000000
_cell_angle_gamma 90.000000
_cell_volume 5140.341003
_symmetry_space_group_name_H-M "F D D 2"
_symmetry_group_IT_number 43
_symmetry_cell_setting 'orthorhombic'
loop_
_space_group_symop_operation_xyz
x,y,z
-x,-y,z
1/4-x,1/4+y,1/4+z
1/4+x,1/4-y,1/4+z
x,1/2+y,1/2+z
-x,1/2-y,1/2+z
1/4-x,3/4+y,3/4+z
1/4+x,3/4-y,3/4+z
1/2+x,y,1/2+z
1/2-x,-y,1/2+z
3/4-x,1/4+y,3/4+z
3/4+x,1/4-y,3/4+z
1/2+x,1/2+y,z
1/2-x,1/2-y,z
3/4-x,3/4+y,1/4+z
3/4+x,3/4-y,1/4+z
loop_
_atom_site_type_symbol
_atom_site_label
_atom_site_fract_x
_atom_site_fract_y
_atom_site_fract_z
Si Si1 0.767574 0.939986 0.898280
Si Si2 0.000000 0.000000 0.134896
Si Si3 0.250000 0.250000 0.974926
Si Si4 0.034548 0.250289 0.884146
Si Si5 0.649963 0.509683 0.012098
Si Si6 0.189694 0.311552 0.176941
Si Si7 0.626070 0.071781 0.778672
Si Si8 0.927498 0.597609 0.756676
O O1 0.757380 0.985023 0.762254
O O2 0.816578 0.945806 0.921341
O O3 0.753617 0.837541 0.888992
O O4 0.745570 0.991724 0.013125
O O5 0.026858 0.934667 0.220842
O O6 0.968207 0.943324 0.051318
O O7 0.209390 0.254292 0.063194
O O8 0.063319 0.164261 0.890985
O O9 0.065843 0.332638 0.870111
O O10 0.604772 0.522912 0.954080
O O11 0.656334 0.402922 0.013251
O O12 0.652664 0.553966 0.151406
O O13 0.657520 0.098611 0.889555
O O14 0.600654 0.982305 0.809279
#
# Coordination Sequence:
#
# PCOD8187133 Si02
#       8
#    16   8   8  16  16  16  16  16
#     4  11  25  43  67  96 136 172 224 273 340 402
#     4  11  20  41  70  98 130 180 230 274 320 422
#     4   9  22  41  62  98 136 172 206 286 344 386
#     4  11  26  43  67 102 133 178 223 278 341 408
#     4  11  21  39  69  98 128 176 232 269 323 403
#     4  10  20  40  68  98 132 174 229 271 329 397
#     4  10  22  41  63 101 129 176 221 288 320 397
#     4  11  25  42  66  96 138 175 229 274 350 386
#
# _framework density 21.788437999999999
#
# number of rings (size 3 to 8) (size 9 to 14) (size 15 to 20)
#    0.000    1.429    2.857    2.571    8.000    1.714 
#    0.000    2.857    0.000    0.000    0.000    0.000 
#    0.000    0.000    0.000    0.000    0.000    0.000 
#
# Total GULP energy -347221.266226 kJ/mol
# GULP energy per Si atom -12400.759508 kJ/mol
# Density = 2.173885 g / cm^3
# Si number density = 21.788438 Si / 1000 Ang^3
#
#
#
# Elastic Constant Matrix: (Units=GPa)
#
#
# Indices 1 2 3 4 5 6 
#
# 1 96.3016 33.6052 20.1765 0.0000 0.0000 0.0000
# 2 33.6052 131.3870 46.4509 0.0000 0.0000 0.0000
# 3 20.1765 46.4509 102.4809 0.0000 0.0000 0.0000
# 4 0.0000 0.0000 0.0000 36.6053 0.0000 0.0000
# 5 0.0000 0.0000 0.0000 0.0000 20.4787 0.0000
# 6 0.0000 0.0000 0.0000 0.0000 0.0000 24.0675
#
#
#
# Elastic Compliance Matrix: (Units=1/GPa)
#
#
# Indices 1 2 3 4 5 6 
#
# 1 0.011507 -0.002551 -0.001109 0.000000 0.000000 0.000000
# 2 -0.002551 0.009629 -0.003862 0.000000 0.000000 0.000000
# 3 -0.001109 -0.003862 0.011727 0.000000 0.000000 0.000000
# 4 0.000000 0.000000 0.000000 0.027318 0.000000 0.000000
# 5 0.000000 0.000000 0.000000 0.000000 0.048831 0.000000
# 6 0.000000 0.000000 0.000000 0.000000 0.000000 0.041550
#
#
# Mechanical properties :
#
#
# Convention : Reuss Voigt Hill
#
# Bulk Modulus (GPa) = 56.12364 58.95940 57.54152
# Shear Modulus (GPa) = 29.14669 31.55942 30.35306
#
# Velocity S-wave (km/s) = 3.66144 3.80998 3.73645
# Velocity P-wave (km/s) = 6.60979 6.81713 6.71426
#
# Compressibility (1/GPa) = 0.01781780
#
# Stress axis : x y z
#
# Youngs Moduli (GPa) = 86.90663 103.85256 85.27390
#
# Poissons Ratio (x) = 0.26492 0.09458
# Poissons Ratio (y) = 0.22169 0.32935
# Poissons Ratio (z) = 0.09640 0.40111
#
# Static dielectric constant tensor:
#      x y z
#    x 3.838340 0.000000 0.000000 
#    y 0.000000 4.183850 0.000000 
#    z 0.000000 0.000000 3.864850 
# 
# 
# High freq. dielectric constant tensor:
#      x y z
#    x 1.844040 0.000000 0.000000 
#    y 0.000000 1.877230 0.000000 
#    z 0.000000 0.000000 1.844490 
# 
# From -- ./inp_files/8326.got.cif
#   From: 2010.06.25/outbox.cif.g09.slc.cpg/sg43_5_cif.got.tgz:8326.got - 2010.06.26 16:48:59.
