data_PCOD8187587
_publ_section_title
;
Structure prediction by ZEFSAII (Michael W. Deem and Ramdas Pophale) SiO2 
 PCOD8187587
Probable space group: F D D 2
;
_chemical_formula_sum "Si O2"
_cell_formula_units_Z 56
_cell_length_a 13.911892
_cell_length_b 11.015639
_cell_length_c 17.270744
_cell_angle_alpha 90.000000
_cell_angle_beta 90.000000
_cell_angle_gamma 90.000000
_cell_volume 2646.713541
_symmetry_space_group_name_H-M "F D D 2"
_symmetry_group_IT_number 43
_symmetry_cell_setting 'orthorhombic'
loop_
_space_group_symop_operation_xyz
x,y,z
-x,-y,z
1/4-x,1/4+y,1/4+z
1/4+x,1/4-y,1/4+z
x,1/2+y,1/2+z
-x,1/2-y,1/2+z
1/4-x,3/4+y,3/4+z
1/4+x,3/4-y,3/4+z
1/2+x,y,1/2+z
1/2-x,-y,1/2+z
3/4-x,1/4+y,3/4+z
3/4+x,1/4-y,3/4+z
1/2+x,1/2+y,z
1/2-x,1/2-y,z
3/4-x,3/4+y,1/4+z
3/4+x,3/4-y,1/4+z
loop_
_atom_site_type_symbol
_atom_site_label
_atom_site_fract_x
_atom_site_fract_y
_atom_site_fract_z
Si Si1 0.410338 0.928176 0.851010
Si Si2 0.500000 0.000000 0.998367
Si Si3 0.893325 0.955370 0.005416
Si Si4 0.950909 0.720671 0.089783
O O1 0.405837 0.792535 0.818461
O O2 0.500000 0.000000 0.811132
O O3 0.313348 0.000828 0.835565
O O4 0.428912 0.920232 0.943644
O O5 0.564613 0.910018 0.050117
O O6 0.890960 0.821520 0.042685
O O7 0.832824 0.959595 0.927481
O O8 0.000000 0.000000 0.986339
#
# Coordination Sequence:
#
# PCOD8187587 Si02
#       4
#    16   8  16  16
#     4   9  24  42  71  97 139 178 228 278 348 409
#     4  10  26  42  68 100 136 180 232 276 348 398
#     4  10  25  44  70 102 138 180 226 287 345 406
#     4  11  25  44  69 101 137 181 231 284 343 406
#
# _framework density 21.158315000000002
#
# number of rings (size 3 to 8) (size 9 to 14) (size 15 to 20)
#    0.857    1.143    0.000    0.000   16.000    3.429 
#    0.000    0.000    0.000    0.000    0.000    0.000 
#    0.000    0.000    0.000    0.000    0.000    0.000 
#
# Total GULP energy -173582.717894 kJ/mol
# GULP energy per Si atom -12398.765564 kJ/mol
# Density = 2.111016 g / cm^3
# Si number density = 21.158315 Si / 1000 Ang^3
#
#
#
# Elastic Constant Matrix: (Units=GPa)
#
#
# Indices 1 2 3 4 5 6 
#
# 1 88.3832 51.1534 46.6067 0.0000 0.0000 0.0000
# 2 51.1534 176.1852 93.2776 0.0000 0.0000 0.0000
# 3 46.6067 93.2776 157.2334 0.0000 0.0000 0.0000
# 4 0.0000 0.0000 0.0000 23.4600 0.0000 0.0000
# 5 0.0000 0.0000 0.0000 0.0000 23.2248 0.0000
# 6 0.0000 0.0000 0.0000 0.0000 0.0000 25.1956
#
#
#
# Elastic Compliance Matrix: (Units=1/GPa)
#
#
# Indices 1 2 3 4 5 6 
#
# 1 0.014286 -0.002779 -0.002586 0.000000 0.000000 0.000000
# 2 -0.002779 0.008815 -0.004406 0.000000 0.000000 0.000000
# 3 -0.002586 -0.004406 0.009740 0.000000 0.000000 0.000000
# 4 0.000000 0.000000 0.000000 0.042626 0.000000 0.000000
# 5 0.000000 0.000000 0.000000 0.000000 0.043057 0.000000
# 6 0.000000 0.000000 0.000000 0.000000 0.000000 0.039690
#
#
# Mechanical properties :
#
#
# Convention : Reuss Voigt Hill
#
# Bulk Modulus (GPa) = 75.18670 89.31969 82.25320
# Shear Modulus (GPa) = 27.44391 29.76036 28.60213
#
# Velocity S-wave (km/s) = 3.60540 3.75448 3.68069
# Velocity P-wave (km/s) = 7.27628 7.81674 7.55135
#
# Compressibility (1/GPa) = 0.01330022
#
# Stress axis : x y z
#
# Youngs Moduli (GPa) = 69.99676 113.44027 102.66525
#
# Poissons Ratio (x) = 0.31521 0.26553
# Poissons Ratio (y) = 0.19449 0.45234
# Poissons Ratio (z) = 0.18104 0.49981
#
# Static dielectric constant tensor:
#      x y z
#    x 3.741920 0.000000 0.000000 
#    y 0.000000 3.932370 0.000000 
#    z 0.000000 0.000000 3.724980 
# 
# 
# High freq. dielectric constant tensor:
#      x y z
#    x 1.824660 0.000000 0.000000 
#    y 0.000000 1.832210 0.000000 
#    z 0.000000 0.000000 1.834220 
# 
# From -- ./inp_files/9321.got.cif
#   From: 2010.06.25/outbox.cif.g09.slc.cpg/sg43_5_cif.got.tgz:9321.got - 2010.06.26 16:48:59.
