data_PCOD8187055
_publ_section_title
;
Structure prediction by ZEFSAII (Michael W. Deem and Ramdas Pophale) SiO2 
 PCOD8187055
Probable space group: F D D 2
;
_chemical_formula_sum "Si O2"
_cell_formula_units_Z 112
_cell_length_a 22.438593
_cell_length_b 11.893764
_cell_length_c 22.388674
_cell_angle_alpha 90.000000
_cell_angle_beta 90.000000
_cell_angle_gamma 90.000000
_cell_volume 5975.074309
_symmetry_space_group_name_H-M "F D D 2"
_symmetry_group_IT_number 43
_symmetry_cell_setting 'orthorhombic'
loop_
_space_group_symop_operation_xyz
x,y,z
-x,-y,z
1/4-x,1/4+y,1/4+z
1/4+x,1/4-y,1/4+z
x,1/2+y,1/2+z
-x,1/2-y,1/2+z
1/4-x,3/4+y,3/4+z
1/4+x,3/4-y,3/4+z
1/2+x,y,1/2+z
1/2-x,-y,1/2+z
3/4-x,1/4+y,3/4+z
3/4+x,1/4-y,3/4+z
1/2+x,1/2+y,z
1/2-x,1/2-y,z
3/4-x,3/4+y,1/4+z
3/4+x,3/4-y,1/4+z
loop_
_atom_site_type_symbol
_atom_site_label
_atom_site_fract_x
_atom_site_fract_y
_atom_site_fract_z
Si Si1 0.947583 0.760312 0.504840
Si Si2 0.897929 0.684497 0.731596
Si Si3 0.680733 0.598967 0.722383
Si Si4 0.035508 0.898828 0.897078
Si Si5 0.235244 0.616160 0.870562
Si Si6 0.604039 0.257970 0.590769
Si Si7 0.677361 0.967281 0.102148
O O1 0.885086 0.823076 0.503878
O O2 0.944997 0.686474 0.446470
O O3 0.950639 0.678138 0.562022
O O4 0.001428 0.851187 0.498103
O O5 0.848617 0.778945 0.716899
O O6 0.943537 0.659749 0.677582
O O7 0.933974 0.720655 0.789523
O O8 0.648999 0.511889 0.768395
O O9 0.675984 0.553429 0.656082
O O10 0.092543 0.927433 0.858137
O O11 0.988162 0.851624 0.850301
O O12 0.000000 0.000000 0.930019
O O13 0.250000 0.750000 0.866224
O O14 0.295386 0.540881 0.873618
O O15 0.618916 0.387085 0.609794
#
# Coordination Sequence:
#
# PCOD8187055 Si02
#       7
#    16  16  16  16  16  16  16
#     4  10  20  36  57  77 108 151 185 222 278 346
#     4  11  21  36  55  82 114 141 183 236 282 330
#     4   9  19  36  57  80 107 145 187 224 276 345
#     4   9  17  34  57  80 103 137 185 230 274 328
#     4  11  23  38  55  82 115 150 190 234 285 339
#     4   9  19  35  56  80 109 143 183 228 274 334
#     4   9  19  35  56  81 108 141 183 228 277 334
#
# _framework density 18.744537000000001
#
# number of rings (size 3 to 8) (size 9 to 14) (size 15 to 20)
#    0.000    2.286    0.000    2.571    0.000    2.286 
#    0.000   13.571    0.000    0.000    0.000    0.000 
#    0.000    0.000    0.000    0.000    0.000    0.000 
#
# Total GULP energy -346870.854616 kJ/mol
# GULP energy per Si atom -12388.244808 kJ/mol
# Density = 1.870187 g / cm^3
# Si number density = 18.744537 Si / 1000 Ang^3
#
#
#
# Elastic Constant Matrix: (Units=GPa)
#
#
# Indices 1 2 3 4 5 6 
#
# 1 99.2822 53.9678 54.3425 0.0000 0.0000 0.0000
# 2 53.9678 91.8014 36.6001 0.0000 0.0000 0.0000
# 3 54.3425 36.6001 92.5436 0.0000 0.0000 0.0000
# 4 0.0000 0.0000 0.0000 13.4946 0.0000 0.0000
# 5 0.0000 0.0000 0.0000 0.0000 32.4894 0.0000
# 6 0.0000 0.0000 0.0000 0.0000 0.0000 32.7530
#
#
#
# Elastic Compliance Matrix: (Units=1/GPa)
#
#
# Indices 1 2 3 4 5 6 
#
# 1 0.018611 -0.007816 -0.007837 0.000000 0.000000 0.000000
# 2 -0.007816 0.016215 -0.001823 0.000000 0.000000 0.000000
# 3 -0.007837 -0.001823 0.016129 0.000000 0.000000 0.000000
# 4 0.000000 0.000000 0.000000 0.074104 0.000000 0.000000
# 5 0.000000 0.000000 0.000000 0.000000 0.030779 0.000000
# 6 0.000000 0.000000 0.000000 0.000000 0.000000 0.030532
#
#
# Mechanical properties :
#
#
# Convention : Reuss Voigt Hill
#
# Bulk Modulus (GPa) = 62.49416 63.71644 63.10530
# Shear Modulus (GPa) = 22.05988 24.99519 23.52753
#
# Velocity S-wave (km/s) = 3.43428 3.65563 3.54668
# Velocity P-wave (km/s) = 7.00985 7.20305 7.10711
#
# Compressibility (1/GPa) = 0.01600150
#
# Stress axis : x y z
#
# Youngs Moduli (GPa) = 53.73235 61.67175 62.00087
#
# Poissons Ratio (x) = 0.48204 0.48591
# Poissons Ratio (y) = 0.41998 0.11303
# Poissons Ratio (z) = 0.42111 0.11243
#
# Static dielectric constant tensor:
#      x y z
#    x 3.611530 0.000000 0.000000 
#    y 0.000000 3.694200 0.000000 
#    z 0.000000 0.000000 3.396890 
# 
# 
# High freq. dielectric constant tensor:
#      x y z
#    x 1.729780 0.000000 0.000000 
#    y 0.000000 1.732270 0.000000 
#    z 0.000000 0.000000 1.728860 
# 
# From -- ./inp_files/17206.got.cif
#   From: 2010.06.25/outbox.cif.g09.slc.cpg/sg43_9_cif.got.tgz:17206.got - 2010.06.26 16:48:59.
