data_PCOD8187167
_publ_section_title
;
Structure prediction by ZEFSAII (Michael W. Deem and Ramdas Pophale) SiO2 
 PCOD8187167
Probable space group: F D D 2
;
_chemical_formula_sum "Si O2"
_cell_formula_units_Z 88
_cell_length_a 26.566729
_cell_length_b 12.321538
_cell_length_c 12.017439
_cell_angle_alpha 90.000000
_cell_angle_beta 90.000000
_cell_angle_gamma 90.000000
_cell_volume 3933.824065
_symmetry_space_group_name_H-M "F D D 2"
_symmetry_group_IT_number 43
_symmetry_cell_setting 'orthorhombic'
loop_
_space_group_symop_operation_xyz
x,y,z
-x,-y,z
1/4-x,1/4+y,1/4+z
1/4+x,1/4-y,1/4+z
x,1/2+y,1/2+z
-x,1/2-y,1/2+z
1/4-x,3/4+y,3/4+z
1/4+x,3/4-y,3/4+z
1/2+x,y,1/2+z
1/2-x,-y,1/2+z
3/4-x,1/4+y,3/4+z
3/4+x,1/4-y,3/4+z
1/2+x,1/2+y,z
1/2-x,1/2-y,z
3/4-x,3/4+y,1/4+z
3/4+x,3/4-y,1/4+z
loop_
_atom_site_type_symbol
_atom_site_label
_atom_site_fract_x
_atom_site_fract_y
_atom_site_fract_z
Si Si1 0.601703 0.257152 0.993550
Si Si2 0.597639 0.720048 0.157901
Si Si3 0.333381 0.582045 0.658708
Si Si4 0.640685 0.772641 0.720700
Si Si5 0.500000 0.500000 0.395428
Si Si6 0.733106 0.990144 0.587340
O O1 0.638770 0.351190 0.952847
O O2 0.619464 0.146944 0.933888
O O3 0.544152 0.272212 0.954169
O O4 0.606796 0.220686 0.122729
O O5 0.647944 0.793769 0.164246
O O6 0.553514 0.771103 0.234503
O O7 0.577572 0.716721 0.031984
O O8 0.374468 0.511386 0.593316
O O9 0.281744 0.567918 0.589309
O O10 0.699617 0.741387 0.718384
O O11 0.502299 0.612140 0.324199
#
# Coordination Sequence:
#
# PCOD8187167 Si02
#       6
#    16  16  16  16   8  16
#     4  11  21  45  71 101 140 186 237 301 351 437
#     4  12  24  49  69 105 153 181 240 306 370 435
#     4  12  27  45  70 107 146 190 235 304 374 434
#     4  11  23  43  72 104 141 187 244 295 362 440
#     4  10  20  44  74 104 130 186 246 290 342 440
#     4  11  25  43  73 103 141 191 244 290 367 435
#
# _framework density 22.370090999999999
#
# number of rings (size 3 to 8) (size 9 to 14) (size 15 to 20)
#    0.000    0.727    5.455    3.273    2.545    0.727 
#    3.273    0.000    0.000    0.000    0.000    0.000 
#    0.000    0.000    0.000    0.000    0.000    0.000 
#
# Total GULP energy -272611.213019 kJ/mol
# GULP energy per Si atom -12391.418774 kJ/mol
# Density = 2.231918 g / cm^3
# Si number density = 22.370091 Si / 1000 Ang^3
#
#
#
# Elastic Constant Matrix: (Units=GPa)
#
#
# Indices 1 2 3 4 5 6 
#
# 1 120.1385 52.9997 56.0016 0.0000 0.0000 0.0000
# 2 52.9997 79.1667 26.0156 0.0000 0.0000 0.0000
# 3 56.0016 26.0156 123.5248 0.0000 0.0000 0.0000
# 4 0.0000 0.0000 0.0000 22.0502 0.0000 0.0000
# 5 0.0000 0.0000 0.0000 0.0000 37.7473 0.0000
# 6 0.0000 0.0000 0.0000 0.0000 0.0000 35.8234
#
#
#
# Elastic Compliance Matrix: (Units=1/GPa)
#
#
# Indices 1 2 3 4 5 6 
#
# 1 0.013945 -0.007798 -0.004680 0.000000 0.000000 0.000000
# 2 -0.007798 0.017931 -0.000241 0.000000 0.000000 0.000000
# 3 -0.004680 -0.000241 0.010268 0.000000 0.000000 0.000000
# 4 0.000000 0.000000 0.000000 0.045351 0.000000 0.000000
# 5 0.000000 0.000000 0.000000 0.000000 0.026492 0.000000
# 6 0.000000 0.000000 0.000000 0.000000 0.000000 0.027915
#
#
# Mechanical properties :
#
#
# Convention : Reuss Voigt Hill
#
# Bulk Modulus (GPa) = 59.85730 65.87377 62.86554
# Shear Modulus (GPa) = 28.91676 31.64505 30.28091
#
# Velocity S-wave (km/s) = 3.59925 3.76522 3.68317
# Velocity P-wave (km/s) = 6.63993 6.95799 6.80082
#
# Compressibility (1/GPa) = 0.01670640
#
# Stress axis : x y z
#
# Youngs Moduli (GPa) = 71.70792 55.76795 97.38929
#
# Poissons Ratio (x) = 0.43489 0.45578
# Poissons Ratio (y) = 0.55919 0.02349
# Poissons Ratio (z) = 0.33559 0.01345
#
# Static dielectric constant tensor:
#      x y z
#    x 4.001200 0.000000 0.000000 
#    y 0.000000 4.105920 0.000000 
#    z 0.000000 0.000000 4.054360 
# 
# 
# High freq. dielectric constant tensor:
#      x y z
#    x 1.876280 0.000000 0.000000 
#    y 0.000000 1.885000 0.000000 
#    z 0.000000 0.000000 1.879960 
# 
# From -- ./inp_files/5765.got.cif
#   From: 2010.06.25/outbox.cif.g09.slc.cpg/sg43_3_cif.got.tgz:5765.got - 2010.06.26 16:48:59.
