data_PCOD8187724
_publ_section_title
;
Structure prediction by ZEFSAII (Michael W. Deem and Ramdas Pophale) SiO2 
 PCOD8187724
Probable space group: F D D 2
;
_chemical_formula_sum "Si O2"
_cell_formula_units_Z 120
_cell_length_a 25.963284
_cell_length_b 25.706203
_cell_length_c 8.394077
_cell_angle_alpha 90.000000
_cell_angle_beta 90.000000
_cell_angle_gamma 90.000000
_cell_volume 5602.353458
_symmetry_space_group_name_H-M "F D D 2"
_symmetry_group_IT_number 43
_symmetry_cell_setting 'orthorhombic'
loop_
_space_group_symop_operation_xyz
x,y,z
-x,-y,z
1/4-x,1/4+y,1/4+z
1/4+x,1/4-y,1/4+z
x,1/2+y,1/2+z
-x,1/2-y,1/2+z
1/4-x,3/4+y,3/4+z
1/4+x,3/4-y,3/4+z
1/2+x,y,1/2+z
1/2-x,-y,1/2+z
3/4-x,1/4+y,3/4+z
3/4+x,1/4-y,3/4+z
1/2+x,1/2+y,z
1/2-x,1/2-y,z
3/4-x,3/4+y,1/4+z
3/4+x,3/4-y,1/4+z
loop_
_atom_site_type_symbol
_atom_site_label
_atom_site_fract_x
_atom_site_fract_y
_atom_site_fract_z
Si Si1 0.839480 0.413419 0.792540
Si Si2 0.175002 0.174489 0.560618
Si Si3 0.323230 0.171314 0.275530
Si Si4 0.750000 0.750000 0.420460
Si Si5 0.907053 0.266059 0.236134
Si Si6 0.172816 0.763920 0.472668
Si Si7 0.238016 0.913697 0.603455
Si Si8 0.488378 0.579433 0.617004
O O1 0.884286 0.406942 0.659204
O O2 0.850475 0.465496 0.883454
O O3 0.783941 0.425259 0.721565
O O4 0.835616 0.364528 0.914186
O O5 0.199329 0.230301 0.512579
O O6 0.120598 0.185857 0.645056
O O7 0.215981 0.155345 0.693935
O O8 0.269740 0.198052 0.332033
O O9 0.307853 0.117212 0.192835
O O10 0.342738 0.212858 0.144386
O O11 0.881500 0.251726 0.402646
O O12 0.964934 0.283074 0.279901
O O13 0.203664 0.805483 0.360058
O O14 0.206109 0.710838 0.477290
O O15 0.262268 0.883399 0.456541
#
# Coordination Sequence:
#
# PCOD8187724 Si02
#       8
#    16  16  16   8  16  16  16  16
#     4  12  28  44  66 106 142 180 228 286 358 414
#     4  11  24  42  73 101 136 176 235 291 342 413
#     4  11  24  42  73 101 136 176 235 291 342 413
#     4  12  20  44  74 104 128 180 230 296 336 400
#     4  11  26  45  65  97 139 182 225 274 349 422
#     4   9  20  40  70  97 127 174 235 288 331 398
#     4  11  26  45  65  97 139 182 225 274 349 422
#     4   9  20  40  70  97 127 174 235 288 331 398
#
# _framework density 21.419571000000001
#
# number of rings (size 3 to 8) (size 9 to 14) (size 15 to 20)
#    0.000    1.333    2.667    3.200    7.467    2.133 
#    2.400    0.000    0.000    0.000    0.000    0.000 
#    0.000    0.000    0.000    0.000    0.000    0.000 
#
# Total GULP energy -371717.908902 kJ/mol
# GULP energy per Si atom -12390.596963 kJ/mol
# Density = 2.137082 g / cm^3
# Si number density = 21.419571 Si / 1000 Ang^3
#
#
#
# Elastic Constant Matrix: (Units=GPa)
#
#
# Indices 1 2 3 4 5 6 
#
# 1 72.6049 20.8092 30.8570 -0.2829 0.2930 0.0902
# 2 20.8092 50.6530 30.3113 -0.2581 0.2963 0.1272
# 3 30.8570 30.3113 67.1109 -0.5047 0.5371 0.2246
# 4 -0.2829 -0.2581 -0.5047 31.0608 0.3315 0.1700
# 5 0.2930 0.2963 0.5371 0.3315 43.4297 -0.1897
# 6 0.0902 0.1272 0.2246 0.1700 -0.1897 36.5683
#
#
#
# Elastic Compliance Matrix: (Units=1/GPa)
#
#
# Indices 1 2 3 4 5 6 
#
# 1 0.017501 -0.003254 -0.006577 0.000026 -0.000015 0.000008
# 2 -0.003254 0.027659 -0.010996 0.000022 -0.000031 -0.000021
# 3 -0.006577 -0.010996 0.022895 0.000223 -0.000166 -0.000088
# 4 0.000026 0.000022 0.000223 0.032203 -0.000250 -0.000153
# 5 -0.000015 -0.000031 -0.000166 -0.000250 0.023031 0.000122
# 6 0.000008 -0.000021 -0.000088 -0.000153 0.000122 0.027348
#
#
# Mechanical properties :
#
#
# Convention : Reuss Voigt Hill
#
# Bulk Modulus (GPa) = 37.87692 39.36930 38.62311
# Shear Modulus (GPa) = 24.86444 29.43784 27.15114
#
# Velocity S-wave (km/s) = 3.41079 3.71124 3.56418
# Velocity P-wave (km/s) = 5.76481 6.06501 5.91681
#
# Compressibility (1/GPa) = 0.02640130
#
# Stress axis : x y z
#
# Youngs Moduli (GPa) = 57.13925 36.15396 43.67855
#
# Poissons Ratio (x) = 0.11764 0.28727
# Poissons Ratio (y) = 0.18592 0.48029
# Poissons Ratio (z) = 0.37580 0.39755
#
# Static dielectric constant tensor:
#      x y z
#    x 3.800050 0.000060 0.000120 
#    y 0.000060 3.747440 0.000020 
#    z 0.000120 0.000020 4.049510 
# 
# 
# High freq. dielectric constant tensor:
#      x y z
#    x 1.837410 0.000000 0.000000 
#    y 0.000000 1.832790 0.000000 
#    z 0.000000 0.000000 1.845810 
# 
# From -- ./inp_files/4352.got.cif
#   From: 2010.06.25/outbox.cif.g09.slc.cpg/sg43_3_cif.got.tgz:4352.got - 2010.06.26 16:48:59.
