data_PCOD8187420
_publ_section_title
;
Structure prediction by ZEFSAII (Michael W. Deem and Ramdas Pophale) SiO2 
 PCOD8187420
Probable space group: F D D 2
;
_chemical_formula_sum "Si O2"
_cell_formula_units_Z 96
_cell_length_a 13.854848
_cell_length_b 21.209408
_cell_length_c 14.193836
_cell_angle_alpha 90.000000
_cell_angle_beta 90.000000
_cell_angle_gamma 90.000000
_cell_volume 4170.903050
_symmetry_space_group_name_H-M "F D D 2"
_symmetry_group_IT_number 43
_symmetry_cell_setting 'orthorhombic'
loop_
_space_group_symop_operation_xyz
x,y,z
-x,-y,z
1/4-x,1/4+y,1/4+z
1/4+x,1/4-y,1/4+z
x,1/2+y,1/2+z
-x,1/2-y,1/2+z
1/4-x,3/4+y,3/4+z
1/4+x,3/4-y,3/4+z
1/2+x,y,1/2+z
1/2-x,-y,1/2+z
3/4-x,1/4+y,3/4+z
3/4+x,1/4-y,3/4+z
1/2+x,1/2+y,z
1/2-x,1/2-y,z
3/4-x,3/4+y,1/4+z
3/4+x,3/4-y,1/4+z
loop_
_atom_site_type_symbol
_atom_site_label
_atom_site_fract_x
_atom_site_fract_y
_atom_site_fract_z
Si Si1 0.500000 0.500000 0.857410
Si Si2 0.019468 0.158795 0.186919
Si Si3 0.451173 0.783870 0.106296
Si Si4 0.736893 0.634947 0.229613
Si Si5 0.907487 0.914817 0.562674
Si Si6 0.250000 0.250000 0.670811
Si Si7 0.666257 0.989389 0.210575
O O1 0.588137 0.475992 0.793067
O O2 0.465229 0.444095 0.926557
O O3 0.010200 0.120752 0.089709
O O4 0.121778 0.139358 0.227739
O O5 0.010581 0.235802 0.174092
O O6 0.937902 0.137432 0.261216
O O7 0.452108 0.859186 0.129425
O O8 0.341683 0.759367 0.104167
O O9 0.495728 0.780846 0.001620
O O10 0.785497 0.575642 0.175747
O O11 0.985291 0.937954 0.485982
O O12 0.883263 0.976024 0.624203
#
# Coordination Sequence:
#
# PCOD8187420 Si02
#       7
#     8  16  16  16  16   8  16
#     4  12  25  48  73 108 152 204 256 327 383 476
#     4  10  25  46  72 107 149 196 251 309 386 454
#     4  10  22  43  68 105 140 187 236 307 364 446
#     4  11  24  51  69 109 151 196 263 309 387 475
#     4  11  24  43  71 107 149 193 245 306 374 455
#     4  10  23  42  65 106 136 188 242 291 367 428
#     4  11  26  45  73 111 145 200 251 309 390 451
#
# _framework density 23.016598999999999
#
# number of rings (size 3 to 8) (size 9 to 14) (size 15 to 20)
#    0.000    1.333    3.333    1.500    9.333    6.667 
#    3.000    0.000    0.000    0.000    0.000    0.000 
#    0.000    0.000    0.000    0.000    0.000    0.000 
#
# Total GULP energy -297430.256078 kJ/mol
# GULP energy per Si atom -12392.927337 kJ/mol
# Density = 2.296421 g / cm^3
# Si number density = 23.016599 Si / 1000 Ang^3
#
#
#
# Elastic Constant Matrix: (Units=GPa)
#
#
# Indices 1 2 3 4 5 6 
#
# 1 106.8314 30.8345 11.8408 0.0000 0.0000 0.0000
# 2 30.8345 151.4656 24.1613 0.0000 0.0000 0.0000
# 3 11.8408 24.1613 67.7133 0.0000 0.0000 0.0000
# 4 0.0000 0.0000 0.0000 31.1487 0.0000 0.0000
# 5 0.0000 0.0000 0.0000 0.0000 32.2325 0.0000
# 6 0.0000 0.0000 0.0000 0.0000 0.0000 42.3190
#
#
#
# Elastic Compliance Matrix: (Units=1/GPa)
#
#
# Indices 1 2 3 4 5 6 
#
# 1 0.010020 -0.001866 -0.001086 0.000000 0.000000 0.000000
# 2 -0.001866 0.007348 -0.002296 0.000000 0.000000 0.000000
# 3 -0.001086 -0.002296 0.015777 0.000000 0.000000 0.000000
# 4 0.000000 0.000000 0.000000 0.032104 0.000000 0.000000
# 5 0.000000 0.000000 0.000000 0.000000 0.031025 0.000000
# 6 0.000000 0.000000 0.000000 0.000000 0.000000 0.023630
#
#
# Mechanical properties :
#
#
# Convention : Reuss Voigt Hill
#
# Bulk Modulus (GPa) = 44.15263 51.07596 47.61429
# Shear Modulus (GPa) = 36.24506 38.41829 37.33168
#
# Velocity S-wave (km/s) = 3.97260 4.08996 4.03171
# Velocity P-wave (km/s) = 6.34560 6.67404 6.51189
#
# Compressibility (1/GPa) = 0.02264871
#
# Stress axis : x y z
#
# Youngs Moduli (GPa) = 99.80392 136.08552 63.38268
#
# Poissons Ratio (x) = 0.25400 0.06884
# Poissons Ratio (y) = 0.18628 0.14550
# Poissons Ratio (z) = 0.10840 0.31240
#
# Static dielectric constant tensor:
#      x y z
#    x 4.367810 0.000000 0.000000 
#    y 0.000000 4.226150 0.000000 
#    z 0.000000 0.000000 3.970200 
# 
# 
# High freq. dielectric constant tensor:
#      x y z
#    x 1.924210 0.000000 0.000000 
#    y 0.000000 1.911320 0.000000 
#    z 0.000000 0.000000 1.891270 
# 
# From -- ./inp_files/10102.got.cif
#   From: 2010.06.25/outbox.cif.g09.slc.cpg/sg43_6_cif.got.tgz:10102.got - 2010.06.26 16:48:59.
