data_PCOD8187068
_publ_section_title
;
Structure prediction by ZEFSAII (Michael W. Deem and Ramdas Pophale) SiO2 
 PCOD8187068
Probable space group: F D D 2
;
_chemical_formula_sum "Si O2"
_cell_formula_units_Z 120
_cell_length_a 23.503382
_cell_length_b 17.265228
_cell_length_c 13.495354
_cell_angle_alpha 90.000000
_cell_angle_beta 90.000000
_cell_angle_gamma 90.000000
_cell_volume 5476.296555
_symmetry_space_group_name_H-M "F D D 2"
_symmetry_group_IT_number 43
_symmetry_cell_setting 'orthorhombic'
loop_
_space_group_symop_operation_xyz
x,y,z
-x,-y,z
1/4-x,1/4+y,1/4+z
1/4+x,1/4-y,1/4+z
x,1/2+y,1/2+z
-x,1/2-y,1/2+z
1/4-x,3/4+y,3/4+z
1/4+x,3/4-y,3/4+z
1/2+x,y,1/2+z
1/2-x,-y,1/2+z
3/4-x,1/4+y,3/4+z
3/4+x,1/4-y,3/4+z
1/2+x,1/2+y,z
1/2-x,1/2-y,z
3/4-x,3/4+y,1/4+z
3/4+x,3/4-y,1/4+z
loop_
_atom_site_type_symbol
_atom_site_label
_atom_site_fract_x
_atom_site_fract_y
_atom_site_fract_z
Si Si1 0.750000 0.750000 0.046330
Si Si2 0.320107 0.336076 0.573434
Si Si3 0.167555 0.147276 0.357414
Si Si4 0.608658 0.077339 0.230575
Si Si5 0.542917 0.854135 0.402272
Si Si6 0.583716 0.069334 0.593806
Si Si7 0.078316 0.174376 0.913967
Si Si8 0.445599 0.408384 0.304678
O O1 0.707328 0.800586 0.976496
O O2 0.712813 0.693119 0.115000
O O3 0.318732 0.381113 0.468270
O O4 0.370827 0.369628 0.640037
O O5 0.330848 0.245042 0.562473
O O6 0.255542 0.349624 0.612611
O O7 0.195279 0.096087 0.270585
O O8 0.190382 0.233200 0.340096
O O9 0.098751 0.149066 0.354574
O O10 0.617231 0.131358 0.329518
O O11 0.644876 0.998101 0.219291
O O12 0.597568 0.819695 0.347066
O O13 0.485463 0.805762 0.372957
O O14 0.563081 0.109888 0.494616
O O15 0.552600 0.111087 0.686909
#
# Coordination Sequence:
#
# PCOD8187068 Si02
#       8
#     8  16  16  16  16  16  16  16
#     4  10  20  44  64  94 136 172 218 280 342 404
#     4  10  22  41  58  88 127 174 217 259 331 400
#     4  10  20  37  62  91 119 161 211 270 329 375
#     4  11  25  43  65  94 134 182 221 269 333 416
#     4  10  20  37  64  92 124 160 214 276 323 385
#     4  10  20  37  64  94 121 159 215 272 331 378
#     4  11  24  42  64  97 130 167 224 267 336 397
#     4   9  21  39  63  89 124 165 215 279 326 387
#
# _framework density 21.912618999999999
#
# number of rings (size 3 to 8) (size 9 to 14) (size 15 to 20)
#    0.000    1.867    1.333    2.400    5.600    2.133 
#    2.400    0.000    0.000    0.000    0.000    0.000 
#    0.000    0.000    0.000    0.000    0.000    0.000 
#
# Total GULP energy -371642.133461 kJ/mol
# GULP energy per Si atom -12388.071115 kJ/mol
# Density = 2.186275 g / cm^3
# Si number density = 21.912619 Si / 1000 Ang^3
#
#
#
# Elastic Constant Matrix: (Units=GPa)
#
#
# Indices 1 2 3 4 5 6 
#
# 1 83.7401 -2.8913 32.1335 0.0000 0.0000 0.0000
# 2 -2.8913 38.1054 25.8882 0.0000 0.0000 0.0000
# 3 32.1335 25.8882 87.9592 0.0000 0.0000 0.0000
# 4 0.0000 0.0000 0.0000 29.5539 0.0000 0.0000
# 5 0.0000 0.0000 0.0000 0.0000 21.0103 0.0000
# 6 0.0000 0.0000 0.0000 0.0000 0.0000 30.3855
#
#
#
# Elastic Compliance Matrix: (Units=1/GPa)
#
#
# Indices 1 2 3 4 5 6 
#
# 1 0.014926 0.006046 -0.007232 0.000000 0.000000 0.000000
# 2 0.006046 0.035251 -0.012584 0.000000 0.000000 0.000000
# 3 -0.007232 -0.012584 0.017715 0.000000 0.000000 0.000000
# 4 0.000000 0.000000 0.000000 0.033836 0.000000 0.000000
# 5 0.000000 0.000000 0.000000 0.000000 0.047596 0.000000
# 6 0.000000 0.000000 0.000000 0.000000 0.000000 0.032910
#
#
# Mechanical properties :
#
#
# Convention : Reuss Voigt Hill
#
# Bulk Modulus (GPa) = 24.78237 35.56282 30.17260
# Shear Modulus (GPa) = 22.39898 26.50156 24.45027
#
# Velocity S-wave (km/s) = 3.20065 3.48144 3.34399
# Velocity P-wave (km/s) = 4.99931 5.69431 5.35809
#
# Compressibility (1/GPa) = 0.04035126
#
# Stress axis : x y z
#
# Youngs Moduli (GPa) = 66.99885 28.36797 56.45051
#
# Poissons Ratio (x) = -0.17151 0.40826
# Poissons Ratio (y) = -0.40507 0.71036
# Poissons Ratio (z) = 0.48454 0.35698
#
# Static dielectric constant tensor:
#      x y z
#    x 4.131260 0.000000 0.000000 
#    y 0.000000 3.776730 0.000000 
#    z 0.000000 0.000000 3.877710 
# 
# 
# High freq. dielectric constant tensor:
#      x y z
#    x 1.875140 0.000000 0.000000 
#    y 0.000000 1.843790 0.000000 
#    z 0.000000 0.000000 1.844210 
# 
# From -- ./inp_files/7205.got.cif
#   From: 2010.06.25/outbox.cif.g09.slc.cpg/sg43_4_cif.got.tgz:7205.got - 2010.06.26 16:48:59.
