data_PCOD8187942
_publ_section_title
;
Structure prediction by ZEFSAII (Michael W. Deem and Ramdas Pophale) SiO2 
 PCOD8187942
Probable space group: I M M 2
;
_chemical_formula_sum "Si O2"
_cell_formula_units_Z 64
_cell_length_a 9.228798
_cell_length_b 19.802643
_cell_length_c 21.003985
_cell_angle_alpha 90.000000
_cell_angle_beta 90.000000
_cell_angle_gamma 90.000000
_cell_volume 3838.574711
_symmetry_space_group_name_H-M "I M M 2"
_symmetry_group_IT_number 44
_symmetry_cell_setting 'orthorhombic'
loop_
_space_group_symop_operation_xyz
x,y,z
-x,-y,z
-x,y,z
x,-y,z
1/2+x,1/2+y,1/2+z
1/2-x,1/2-y,1/2+z
1/2-x,1/2+y,1/2+z
1/2+x,1/2-y,1/2+z
loop_
_atom_site_type_symbol
_atom_site_label
_atom_site_fract_x
_atom_site_fract_y
_atom_site_fract_z
Si Si1 0.668789 0.215995 0.570020
Si Si2 0.331954 0.923460 0.998073
Si Si3 0.671135 0.291996 0.308795
Si Si4 0.170256 0.074357 0.745678
Si Si5 0.333813 0.925491 0.616380
Si Si6 0.327189 0.214027 0.186901
Si Si7 0.828411 0.427244 0.642022
Si Si8 0.171435 0.799121 0.948584
O O1 0.500000 0.232748 0.580676
O O2 0.695248 0.134811 0.565860
O O3 0.757949 0.246281 0.628313
O O4 0.724594 0.247962 0.503589
O O5 0.500000 0.903489 0.993374
O O6 0.273921 0.915539 0.070143
O O7 0.306778 0.000000 0.974075
O O8 0.239892 0.873007 0.955136
O O9 0.500000 0.287674 0.304815
O O10 0.722870 0.369017 0.295511
O O11 0.733405 0.242756 0.253877
O O12 0.722766 0.270384 0.379515
O O13 0.239378 0.089982 0.677866
O O14 0.000000 0.078764 0.734698
O O15 0.216360 0.000000 0.770907
O O16 0.500000 0.924065 0.638423
O O17 0.295674 0.000000 0.587303
O O18 0.500000 0.221293 0.180503
O O19 0.277263 0.135404 0.185310
O O20 0.768463 0.500000 0.667724
O O21 0.000000 0.431144 0.640161
O O22 0.000000 0.808153 0.949973
#
# Coordination Sequence:
#
# PCOD8187942 Si02
#       8
#     8   8   8   8   8   8   8   8
#     4  10  19  30  46  68  92 118 150 191 229 268
#     4   9  17  30  47  68  94 122 155 191 224 266
#     4   9  18  30  44  66  92 121 153 185 225 269
#     4   9  16  27  44  65  88 114 147 184 218 259
#     4   9  17  29  45  65  89 117 147 181 226 271
#     4  10  17  29  51  70  87 117 155 191 226 270
#     4   8  14  25  44  69  92 113 142 186 232 266
#     4  10  20  32  45  65  96 127 154 187 230 277
#
# _framework density 16.672855999999999
#
# number of rings (size 3 to 8) (size 9 to 14) (size 15 to 20)
#    0.000    2.750    2.500    0.750    0.000    0.750 
#    0.000    2.500    0.000    2.625    0.000    5.250 
#    0.000    0.000    0.000    2.250    0.000    2.500 
#
# Total GULP energy -396509.723463 kJ/mol
# GULP energy per Si atom -12390.928858 kJ/mol
# Density = 1.663491 g / cm^3
# Si number density = 16.672856 Si / 1000 Ang^3
#
#
#
# Elastic Constant Matrix: (Units=GPa)
#
#
# Indices 1 2 3 4 5 6 
#
# 1 17.8685 20.2847 18.9891 0.0000 0.0000 0.0000
# 2 20.2847 130.1280 75.8927 0.0000 0.0000 0.0000
# 3 18.9891 75.8927 121.0163 0.0000 0.0000 0.0000
# 4 0.0000 0.0000 0.0000 23.6916 0.0000 0.0000
# 5 0.0000 0.0000 0.0000 0.0000 15.7926 0.0000
# 6 0.0000 0.0000 0.0000 0.0000 0.0000 18.7940
#
#
#
# Elastic Compliance Matrix: (Units=1/GPa)
#
#
# Indices 1 2 3 4 5 6 
#
# 1 0.071231 -0.007229 -0.006644 0.000000 0.000000 0.000000
# 2 -0.007229 0.012850 -0.006924 0.000000 0.000000 0.000000
# 3 -0.006644 -0.006924 0.013648 0.000000 0.000000 0.000000
# 4 0.000000 0.000000 0.000000 0.042209 0.000000 0.000000
# 5 0.000000 0.000000 0.000000 0.000000 0.063321 0.000000
# 6 0.000000 0.000000 0.000000 0.000000 0.000000 0.053208
#
#
# Mechanical properties :
#
#
# Convention : Reuss Voigt Hill
#
# Bulk Modulus (GPa) = 17.81404 55.48288 36.64846
# Shear Modulus (GPa) = 15.78417 21.91207 18.84812
#
# Velocity S-wave (km/s) = 3.08019 3.62917 3.36589
# Velocity P-wave (km/s) = 4.83298 7.13518 6.09379
#
# Compressibility (1/GPa) = 0.05613550
#
# Stress axis : x y z
#
# Youngs Moduli (GPa) = 14.03881 77.82129 73.26972
#
# Poissons Ratio (x) = 0.56258 0.48677
# Poissons Ratio (y) = 0.10149 0.50734
# Poissons Ratio (z) = 0.09327 0.53885
#
# Static dielectric constant tensor:
#      x y z
#    x 2.878350 0.000000 0.000000 
#    y 0.000000 3.686520 0.000000 
#    z 0.000000 0.000000 3.163730 
# 
# 
# High freq. dielectric constant tensor:
#      x y z
#    x 1.614690 0.000000 0.000000 
#    y 0.000000 1.654190 0.000000 
#    z 0.000000 0.000000 1.615280 
# 
# From -- ./inp_files/20797.got.cif
#   From: 2010.03.12/outbox.cif.g09.slc.cpg/sg44_11_cif.got.tgz:20797.got - 2010.04.14 02:36:11.
