data_PCOD8187640
_publ_section_title
;
Structure prediction by ZEFSAII (Michael W. Deem and Ramdas Pophale) SiO2 
 PCOD8187640
Probable space group: F D D 2
;
_chemical_formula_sum "Si O2"
_cell_formula_units_Z 80
_cell_length_a 36.217417
_cell_length_b 8.824969
_cell_length_c 12.044597
_cell_angle_alpha 90.000000
_cell_angle_beta 90.000000
_cell_angle_gamma 90.000000
_cell_volume 3849.664973
_symmetry_space_group_name_H-M "F D D 2"
_symmetry_group_IT_number 43
_symmetry_cell_setting 'orthorhombic'
loop_
_space_group_symop_operation_xyz
x,y,z
-x,-y,z
1/4-x,1/4+y,1/4+z
1/4+x,1/4-y,1/4+z
x,1/2+y,1/2+z
-x,1/2-y,1/2+z
1/4-x,3/4+y,3/4+z
1/4+x,3/4-y,3/4+z
1/2+x,y,1/2+z
1/2-x,-y,1/2+z
3/4-x,1/4+y,3/4+z
3/4+x,1/4-y,3/4+z
1/2+x,1/2+y,z
1/2-x,1/2-y,z
3/4-x,3/4+y,1/4+z
3/4+x,3/4-y,1/4+z
loop_
_atom_site_type_symbol
_atom_site_label
_atom_site_fract_x
_atom_site_fract_y
_atom_site_fract_z
Si Si1 0.960059 0.950421 0.923390
Si Si2 0.981769 0.835948 0.143074
Si Si3 0.694183 0.992017 0.976115
Si Si4 0.420963 0.930816 0.793397
Si Si5 0.089263 0.270671 0.498501
O O1 0.937260 0.885115 0.819410
O O2 0.966131 0.819534 0.017468
O O3 0.000000 0.000000 0.879313
O O4 0.938051 0.089855 0.977113
O O5 0.947771 0.815677 0.227680
O O6 0.014347 0.720702 0.176292
O O7 0.000000 0.000000 0.149997
O O8 0.687901 0.151602 0.038160
O O9 0.665586 0.966179 0.875787
O O10 0.381312 0.925953 0.732980
O O11 0.419014 0.871666 0.919359
#
# Coordination Sequence:
#
# PCOD8187640 Si02
#       5
#    16  16  16  16  16
#     4  11  21  43  68  93 130 167 216 267 317 388
#     4   9  18  39  66  87 122 168 201 258 324 368
#     4  11  23  43  66  95 127 168 218 264 321 389
#     4  11  22  43  67  88 133 172 207 269 330 376
#     4  12  22  44  63  93 132 170 213 267 326 383
#
# _framework density 20.781030999999999
#
# number of rings (size 3 to 8) (size 9 to 14) (size 15 to 20)
#    0.000    1.200    8.000    1.200    0.000    0.000 
#   14.400    0.000    0.000    0.000    0.000    0.000 
#    0.000    0.000    0.000    0.000    0.000    0.000 
#
# Total GULP energy -247945.845269 kJ/mol
# GULP energy per Si atom -12397.292263 kJ/mol
# Density = 2.073373 g / cm^3
# Si number density = 20.781031 Si / 1000 Ang^3
#
#
#
# Elastic Constant Matrix: (Units=GPa)
#
#
# Indices 1 2 3 4 5 6 
#
# 1 106.4751 7.8990 24.9334 0.0000 0.0000 0.0000
# 2 7.8990 40.4803 38.3370 0.0000 0.0000 0.0000
# 3 24.9334 38.3370 132.2161 0.0000 0.0000 0.0000
# 4 0.0000 0.0000 0.0000 32.0657 0.0000 0.0000
# 5 0.0000 0.0000 0.0000 0.0000 33.3721 0.0000
# 6 0.0000 0.0000 0.0000 0.0000 0.0000 14.3800
#
#
#
# Elastic Compliance Matrix: (Units=1/GPa)
#
#
# Indices 1 2 3 4 5 6 
#
# 1 0.009827 -0.000224 -0.001788 0.000000 0.000000 0.000000
# 2 -0.000224 0.034060 -0.009834 0.000000 0.000000 0.000000
# 3 -0.001788 -0.009834 0.010752 0.000000 0.000000 0.000000
# 4 0.000000 0.000000 0.000000 0.031186 0.000000 0.000000
# 5 0.000000 0.000000 0.000000 0.000000 0.029965 0.000000
# 6 0.000000 0.000000 0.000000 0.000000 0.000000 0.069541
#
#
# Mechanical properties :
#
#
# Convention : Reuss Voigt Hill
#
# Bulk Modulus (GPa) = 32.31300 46.83447 39.57374
# Shear Modulus (GPa) = 22.79571 29.83035 26.31303
#
# Velocity S-wave (km/s) = 3.31561 3.79286 3.56224
# Velocity P-wave (km/s) = 5.49916 6.46275 6.00033
#
# Compressibility (1/GPa) = 0.03094730
#
# Stress axis : x y z
#
# Youngs Moduli (GPa) = 101.75787 29.35982 93.00621
#
# Poissons Ratio (x) = 0.00658 0.16632
# Poissons Ratio (y) = 0.02280 0.91460
# Poissons Ratio (z) = 0.18197 0.28872
#
# Static dielectric constant tensor:
#      x y z
#    x 4.034030 0.000000 0.000000 
#    y 0.000000 3.314150 0.000000 
#    z 0.000000 0.000000 4.061560 
# 
# 
# High freq. dielectric constant tensor:
#      x y z
#    x 1.823970 0.000000 0.000000 
#    y 0.000000 1.766820 0.000000 
#    z 0.000000 0.000000 1.824390 
# 
# From -- ./inp_files/8194.got.cif
#   From: 2010.06.25/outbox.cif.g09.slc.cpg/sg43_5_cif.got.tgz:8194.got - 2010.06.26 16:48:59.
