data_PCOD8187034
_publ_section_title
;
Structure prediction by ZEFSAII (Michael W. Deem and Ramdas Pophale) SiO2 
 PCOD8187034
Probable space group: F D D 2
;
_chemical_formula_sum "Si O2"
_cell_formula_units_Z 72
_cell_length_a 16.505146
_cell_length_b 28.411226
_cell_length_c 7.460623
_cell_angle_alpha 90.000000
_cell_angle_beta 90.000000
_cell_angle_gamma 90.000000
_cell_volume 3498.520636
_symmetry_space_group_name_H-M "F D D 2"
_symmetry_group_IT_number 43
_symmetry_cell_setting 'orthorhombic'
loop_
_space_group_symop_operation_xyz
x,y,z
-x,-y,z
1/4-x,1/4+y,1/4+z
1/4+x,1/4-y,1/4+z
x,1/2+y,1/2+z
-x,1/2-y,1/2+z
1/4-x,3/4+y,3/4+z
1/4+x,3/4-y,3/4+z
1/2+x,y,1/2+z
1/2-x,-y,1/2+z
3/4-x,1/4+y,3/4+z
3/4+x,1/4-y,3/4+z
1/2+x,1/2+y,z
1/2-x,1/2-y,z
3/4-x,3/4+y,1/4+z
3/4+x,3/4-y,1/4+z
loop_
_atom_site_type_symbol
_atom_site_label
_atom_site_fract_x
_atom_site_fract_y
_atom_site_fract_z
Si Si1 0.523833 0.652497 0.738600
Si Si2 0.304725 0.524732 0.788776
Si Si3 0.661822 0.463025 0.199686
Si Si4 0.500000 0.000000 0.633175
Si Si5 0.853211 0.187224 0.627279
O O1 0.562793 0.665219 0.547139
O O2 0.427077 0.660386 0.728981
O O3 0.547096 0.598350 0.766165
O O4 0.566043 0.684225 0.893585
O O5 0.212437 0.506850 0.778893
O O6 0.361866 0.479017 0.749521
O O7 0.324280 0.543822 0.987158
O O8 0.568235 0.473488 0.248919
O O9 0.544215 0.040178 0.520682
#
# Coordination Sequence:
#
# PCOD8187034 Si02
#       5
#    16  16  16   8  16
#     4  11  23  46  62 101 127 177 215 274 323 397
#     4  10  19  43  69  85 131 177 203 273 320 387
#     4  10  20  40  66  90 128 167 221 255 331 379
#     4  10  20  44  62 102 126 176 214 270 322 394
#     4  10  24  40  68  94 135 167 223 260 336 385
#
# _framework density 20.580127000000001
#
# number of rings (size 3 to 8) (size 9 to 14) (size 15 to 20)
#    0.000    1.778    6.667    0.000    6.222    0.000 
#   12.000    2.222    0.000    0.000    0.000    0.000 
#    0.000    0.000    0.000    0.000    0.000    0.000 
#
# Total GULP energy -223085.904288 kJ/mol
# GULP energy per Si atom -12393.661349 kJ/mol
# Density = 2.053329 g / cm^3
# Si number density = 20.580127 Si / 1000 Ang^3
#
#
#
# Elastic Constant Matrix: (Units=GPa)
#
#
# Indices 1 2 3 4 5 6 
#
# 1 134.9729 38.5278 22.9144 -0.0002 0.0003 0.0000
# 2 38.5278 92.4180 26.9950 0.0000 0.0001 0.0000
# 3 22.9144 26.9950 72.1141 -0.0005 0.0009 -0.0001
# 4 -0.0002 0.0000 -0.0005 22.0723 0.0002 0.0000
# 5 0.0003 0.0001 0.0009 0.0002 29.1875 0.0000
# 6 0.0000 0.0000 -0.0001 0.0000 0.0000 28.1124
#
#
#
# Elastic Compliance Matrix: (Units=1/GPa)
#
#
# Indices 1 2 3 4 5 6 
#
# 1 0.008562 -0.003115 -0.001554 0.000000 0.000000 0.000000
# 2 -0.003115 0.013282 -0.003982 0.000000 0.000000 0.000000
# 3 -0.001554 -0.003982 0.015851 0.000000 0.000000 0.000000
# 4 0.000000 0.000000 0.000000 0.045306 0.000000 0.000000
# 5 0.000000 0.000000 0.000000 0.000000 0.034261 0.000000
# 6 0.000000 0.000000 0.000000 0.000000 0.000000 0.035571
#
#
# Mechanical properties :
#
#
# Convention : Reuss Voigt Hill
#
# Bulk Modulus (GPa) = 49.03881 52.93105 50.98493
# Shear Modulus (GPa) = 28.25887 29.94561 29.10224
#
# Velocity S-wave (km/s) = 3.70958 3.81868 3.76452
# Velocity P-wave (km/s) = 6.49830 6.72447 6.61235
#
# Compressibility (1/GPa) = 0.02039201
#
# Stress axis : x y z
#
# Youngs Moduli (GPa) = 116.79424 75.28792 63.08552
#
# Poissons Ratio (x) = 0.23455 0.09806
# Poissons Ratio (y) = 0.36386 0.25122
# Poissons Ratio (z) = 0.18155 0.29981
#
# Static dielectric constant tensor:
#      x y z
#    x 4.148360 0.000000 0.000000 
#    y 0.000000 3.688090 0.000000 
#    z 0.000000 0.000000 3.689490 
# 
# 
# High freq. dielectric constant tensor:
#      x y z
#    x 1.818790 0.000000 0.000000 
#    y 0.000000 1.794610 0.000000 
#    z 0.000000 0.000000 1.781990 
# 
# From -- ./inp_files/2345.got.cif
#   From: 2010.06.25/outbox.cif.g09.slc.cpg/sg43_2_cif.got.tgz:2345.got - 2010.06.26 16:48:59.
