data_PCOD8187504
_publ_section_title
;
Structure prediction by ZEFSAII (Michael W. Deem and Ramdas Pophale) SiO2 
 PCOD8187504
Probable space group: F D D 2
;
_chemical_formula_sum "Si O2"
_cell_formula_units_Z 88
_cell_length_a 19.874319
_cell_length_b 7.523969
_cell_length_c 27.181498
_cell_angle_alpha 90.000000
_cell_angle_beta 90.000000
_cell_angle_gamma 90.000000
_cell_volume 4064.551600
_symmetry_space_group_name_H-M "F D D 2"
_symmetry_group_IT_number 43
_symmetry_cell_setting 'orthorhombic'
loop_
_space_group_symop_operation_xyz
x,y,z
-x,-y,z
1/4-x,1/4+y,1/4+z
1/4+x,1/4-y,1/4+z
x,1/2+y,1/2+z
-x,1/2-y,1/2+z
1/4-x,3/4+y,3/4+z
1/4+x,3/4-y,3/4+z
1/2+x,y,1/2+z
1/2-x,-y,1/2+z
3/4-x,1/4+y,3/4+z
3/4+x,1/4-y,3/4+z
1/2+x,1/2+y,z
1/2-x,1/2-y,z
3/4-x,3/4+y,1/4+z
3/4+x,3/4-y,1/4+z
loop_
_atom_site_type_symbol
_atom_site_label
_atom_site_fract_x
_atom_site_fract_y
_atom_site_fract_z
Si Si1 0.197959 0.603784 0.743960
Si Si2 0.750000 0.750000 0.989100
Si Si3 0.041920 0.831479 0.175152
Si Si4 0.140699 0.588130 0.553510
Si Si5 0.309097 0.600255 0.150779
Si Si6 0.740416 0.053222 0.329063
O O1 0.250000 0.750000 0.761935
O O2 0.127859 0.689419 0.761965
O O3 0.210769 0.562303 0.686763
O O4 0.218177 0.435746 0.777751
O O5 0.764353 0.584104 0.954704
O O6 0.811365 0.777764 0.025666
O O7 0.123179 0.835133 0.179327
O O8 0.028768 0.824077 0.116960
O O9 0.000000 0.000000 0.196211
O O10 0.177675 0.480637 0.597292
O O11 0.084487 0.722974 0.574775
O O12 0.250000 0.750000 0.148429
O O13 0.750000 0.250000 0.351306
#
# Coordination Sequence:
#
# PCOD8187504 Si02
#       6
#    16   8  16  16  16  16
#     4  10  23  44  71 101 143 190 240 298 363 440
#     4  12  30  44  74 110 144 194 246 302 382 430
#     4  12  24  50  74 102 149 197 248 297 370 462
#     4  11  26  48  67 108 149 187 246 317 365 436
#     4  12  27  44  75 112 145 191 244 314 374 434
#     4  11  22  44  75 100 138 198 248 289 364 460
#
# _framework density 21.650606
#
# number of rings (size 3 to 8) (size 9 to 14) (size 15 to 20)
#    0.000    0.727    4.545    2.182    8.909    3.636 
#    0.000    0.000    0.000    0.000    0.000    0.000 
#    0.000    0.000    0.000    0.000    0.000    0.000 
#
# Total GULP energy -272542.748792 kJ/mol
# GULP energy per Si atom -12388.306763 kJ/mol
# Density = 2.160133 g / cm^3
# Si number density = 21.650606 Si / 1000 Ang^3
#
#
#
# Elastic Constant Matrix: (Units=GPa)
#
#
# Indices 1 2 3 4 5 6 
#
# 1 124.8820 51.0094 27.5977 0.0000 0.0000 -0.0005
# 2 51.0094 125.6871 41.4504 0.0000 0.0001 -0.0007
# 3 27.5977 41.4504 106.9571 0.0000 0.0000 0.0000
# 4 0.0000 0.0000 0.0000 31.8633 0.0000 0.0000
# 5 0.0000 0.0001 0.0000 0.0000 35.3261 0.0000
# 6 -0.0005 -0.0007 0.0000 0.0000 0.0000 29.5211
#
#
#
# Elastic Compliance Matrix: (Units=1/GPa)
#
#
# Indices 1 2 3 4 5 6 
#
# 1 0.009715 -0.003573 -0.001122 0.000000 0.000000 0.000000
# 2 -0.003573 0.010436 -0.003123 0.000000 0.000000 0.000000
# 3 -0.001122 -0.003123 0.010849 0.000000 0.000000 0.000000
# 4 0.000000 0.000000 0.000000 0.031384 0.000000 0.000000
# 5 0.000000 0.000000 0.000000 0.000000 0.028308 0.000000
# 6 0.000000 0.000000 0.000000 0.000000 0.000000 0.033874
#
#
# Mechanical properties :
#
#
# Convention : Reuss Voigt Hill
#
# Bulk Modulus (GPa) = 65.08141 66.40459 65.74300
# Shear Modulus (GPa) = 34.40627 35.17334 34.78980
#
# Velocity S-wave (km/s) = 3.99075 4.03499 4.01293
# Velocity P-wave (km/s) = 7.16658 7.24195 7.20436
#
# Compressibility (1/GPa) = 0.01536537
#
# Stress axis : x y z
#
# Youngs Moduli (GPa) = 102.93551 95.82220 92.17272
#
# Poissons Ratio (x) = 0.34234 0.10343
# Poissons Ratio (y) = 0.36775 0.28781
# Poissons Ratio (z) = 0.11551 0.29921
#
# Static dielectric constant tensor:
#      x y z
#    x 4.043910 0.000000 0.000000 
#    y 0.000000 3.889010 0.000000 
#    z 0.000000 0.000000 3.826340 
# 
# 
# High freq. dielectric constant tensor:
#      x y z
#    x 1.851840 0.000000 0.000000 
#    y 0.000000 1.855250 0.000000 
#    z 0.000000 0.000000 1.862490 
# 
# From -- ./inp_files/22349.got.cif
#   From: 2010.06.25/outbox.cif.g09.slc.cpg/sg43_12_cif.got.tgz:22349.got - 2010.06.26 16:48:59.
