data_PCOD8187132
_publ_section_title
;
Structure prediction by ZEFSAII (Michael W. Deem and Ramdas Pophale) SiO2 
 PCOD8187132
Probable space group: F D D 2
;
_chemical_formula_sum "Si O2"
_cell_formula_units_Z 120
_cell_length_a 8.701625
_cell_length_b 24.650934
_cell_length_c 27.000373
_cell_angle_alpha 90.000000
_cell_angle_beta 90.000000
_cell_angle_gamma 90.000000
_cell_volume 5791.665966
_symmetry_space_group_name_H-M "F D D 2"
_symmetry_group_IT_number 43
_symmetry_cell_setting 'orthorhombic'
loop_
_space_group_symop_operation_xyz
x,y,z
-x,-y,z
1/4-x,1/4+y,1/4+z
1/4+x,1/4-y,1/4+z
x,1/2+y,1/2+z
-x,1/2-y,1/2+z
1/4-x,3/4+y,3/4+z
1/4+x,3/4-y,3/4+z
1/2+x,y,1/2+z
1/2-x,-y,1/2+z
3/4-x,1/4+y,3/4+z
3/4+x,1/4-y,3/4+z
1/2+x,1/2+y,z
1/2-x,1/2-y,z
3/4-x,3/4+y,1/4+z
3/4+x,3/4-y,1/4+z
loop_
_atom_site_type_symbol
_atom_site_label
_atom_site_fract_x
_atom_site_fract_y
_atom_site_fract_z
Si Si1 0.062698 0.669743 0.952150
Si Si2 0.039662 0.159108 0.698147
Si Si3 0.318353 0.993502 0.777975
Si Si4 0.500000 0.500000 0.488048
Si Si5 0.313546 0.922834 0.343418
Si Si6 0.114187 0.392369 0.292484
Si Si7 0.701523 0.689339 0.347335
Si Si8 0.592139 0.845715 0.787441
O O1 0.161711 0.687495 0.905099
O O2 0.912467 0.637386 0.934854
O O3 0.000671 0.722957 0.981150
O O4 0.170973 0.633669 0.988496
O O5 0.133526 0.214786 0.705023
O O6 0.922993 0.167849 0.652569
O O7 0.939113 0.142340 0.745199
O O8 0.254335 0.932265 0.776973
O O9 0.500000 0.000000 0.772985
O O10 0.271610 0.021102 0.829913
O O11 0.600613 0.536653 0.523723
O O12 0.477150 0.926733 0.316389
O O13 0.217256 0.871646 0.323883
O O14 0.156979 0.350066 0.335690
O O15 0.750000 0.750000 0.332064
O O16 0.569161 0.663390 0.313524
#
# Coordination Sequence:
#
# PCOD8187132 Si02
#       8
#    16  16  16   8  16  16  16  16
#     4  10  22  43  68  97 129 178 225 277 335 419
#     4  11  23  41  68  99 138 179 231 281 343 399
#     4  11  24  43  71  97 139 176 223 279 345 404
#     4  10  20  40  68  96 136 182 226 278 336 410
#     4  11  23  41  67 101 132 180 227 276 340 403
#     4  12  25  46  67 103 142 172 226 291 335 404
#     4  12  26  41  67 100 134 176 227 280 345 403
#     4  10  21  43  66  92 137 176 227 272 342 404
#
# _framework density 20.719428000000001
#
# number of rings (size 3 to 8) (size 9 to 14) (size 15 to 20)
#    0.000    1.067    5.333    3.200    0.933    4.267 
#    0.000    2.667    0.000    0.000    0.000    0.000 
#    0.000    0.000    0.000    0.000    0.000    0.000 
#
# Total GULP energy -371968.858768 kJ/mol
# GULP energy per Si atom -12398.961959 kJ/mol
# Density = 2.067227 g / cm^3
# Si number density = 20.719428 Si / 1000 Ang^3
#
#
#
# Elastic Constant Matrix: (Units=GPa)
#
#
# Indices 1 2 3 4 5 6 
#
# 1 78.0292 32.8579 28.3517 0.0000 0.0000 0.0000
# 2 32.8579 127.0875 34.5192 0.0000 0.0000 0.0000
# 3 28.3517 34.5192 125.0697 0.0000 0.0000 0.0000
# 4 0.0000 0.0000 0.0000 19.0272 0.0000 0.0000
# 5 0.0000 0.0000 0.0000 0.0000 31.7444 0.0000
# 6 0.0000 0.0000 0.0000 0.0000 0.0000 37.4816
#
#
#
# Elastic Compliance Matrix: (Units=1/GPa)
#
#
# Indices 1 2 3 4 5 6 
#
# 1 0.015089 -0.003213 -0.002534 0.000000 0.000000 0.000000
# 2 -0.003213 0.009190 -0.001808 0.000000 0.000000 0.000000
# 3 -0.002534 -0.001808 0.009069 0.000000 0.000000 0.000000
# 4 0.000000 0.000000 0.000000 0.052556 0.000000 0.000000
# 5 0.000000 0.000000 0.000000 0.000000 0.031502 0.000000
# 6 0.000000 0.000000 0.000000 0.000000 0.000000 0.026680
#
#
# Mechanical properties :
#
#
# Convention : Reuss Voigt Hill
#
# Bulk Modulus (GPa) = 54.82838 57.96045 56.39442
# Shear Modulus (GPa) = 30.25240 33.28114 31.76677
#
# Velocity S-wave (km/s) = 3.82527 4.01219 3.91984
# Velocity P-wave (km/s) = 6.78454 7.03550 6.91116
#
# Compressibility (1/GPa) = 0.01823873
#
# Stress axis : x y z
#
# Youngs Moduli (GPa) = 66.27179 108.80844 110.26607
#
# Poissons Ratio (x) = 0.34961 0.27939
# Poissons Ratio (y) = 0.21294 0.19938
# Poissons Ratio (z) = 0.16792 0.19675
#
# Static dielectric constant tensor:
#      x y z
#    x 3.736330 0.000000 0.000000 
#    y 0.000000 3.820490 0.000000 
#    z 0.000000 0.000000 3.696040 
# 
# 
# High freq. dielectric constant tensor:
#      x y z
#    x 1.807210 0.000000 0.000000 
#    y 0.000000 1.821730 0.000000 
#    z 0.000000 0.000000 1.808530 
# 
# From -- ./inp_files/24459.got.cif
#   From: 2010.06.25/outbox.cif.g09.slc.cpg/sg43_13_cif.got.tgz:24459.got - 2010.06.26 16:48:59.
