data_PCOD8187987
_publ_section_title
;
Structure prediction by ZEFSAII (Michael W. Deem and Ramdas Pophale) SiO2 
 PCOD8187987
Probable space group: I M M 2
;
_chemical_formula_sum "Si O2"
_cell_formula_units_Z 56
_cell_length_a 22.459276
_cell_length_b 9.089047
_cell_length_c 17.623516
_cell_angle_alpha 90.000000
_cell_angle_beta 90.000000
_cell_angle_gamma 90.000000
_cell_volume 3597.548508
_symmetry_space_group_name_H-M "I M M 2"
_symmetry_group_IT_number 44
_symmetry_cell_setting 'orthorhombic'
loop_
_space_group_symop_operation_xyz
x,y,z
-x,-y,z
-x,y,z
x,-y,z
1/2+x,1/2+y,1/2+z
1/2-x,1/2-y,1/2+z
1/2-x,1/2+y,1/2+z
1/2+x,1/2-y,1/2+z
loop_
_atom_site_type_symbol
_atom_site_label
_atom_site_fract_x
_atom_site_fract_y
_atom_site_fract_z
Si Si1 0.283646 0.328601 0.612840
Si Si2 0.717909 0.166166 0.761813
Si Si3 0.151235 0.828709 0.825009
Si Si4 0.688375 0.173396 0.466952
Si Si5 0.804874 0.667464 0.423717
Si Si6 0.067173 0.174120 0.691814
Si Si7 0.147154 0.666525 0.577020
O O1 0.296768 0.500000 0.605438
O O2 0.303764 0.274379 0.695873
O O3 0.323150 0.244888 0.549625
O O4 0.213985 0.291016 0.602114
O O5 0.785035 0.203014 0.787106
O O6 0.674998 0.187933 0.835976
O O7 0.714078 0.000000 0.730744
O O8 0.143572 0.739625 0.903688
O O9 0.101279 0.769851 0.766810
O O10 0.142796 0.000000 0.843088
O O11 0.754963 0.212950 0.441753
O O12 0.679432 0.000000 0.472081
O O13 0.778174 0.500000 0.433153
O O14 0.857947 0.687047 0.485032
O O15 0.099215 0.229635 0.615896
O O16 0.000000 0.235006 0.694244
O O17 0.068581 0.000000 0.688381
O O18 0.132773 0.500000 0.601023
#
# Coordination Sequence:
#
# PCOD8187987 Si02
#       7
#     8   8   8   8   8   8   8
#     4  10  18  27  40  60  87 114 141 171 209 254
#     4   9  15  25  42  61  83 112 142 171 206 250
#     4   9  17  30  43  56  82 113 141 177 219 253
#     4  10  18  26  40  60  80 107 144 175 207 253
#     4   8  16  29  41  58  83 111 139 171 212 254
#     4  10  20  32  46  63  83 112 150 186 218 252
#     4   9  17  29  43  58  82 113 143 177 215 251
#
# _framework density 15.566153999999999
#
# number of rings (size 3 to 8) (size 9 to 14) (size 15 to 20)
#    0.000    2.714    1.429    3.429    0.000    5.429 
#    0.000    0.000    0.000    0.000    0.000    0.000 
#    0.000    1.143    0.000    8.286    0.000    4.286 
#
# Total GULP energy -347020.775760 kJ/mol
# GULP energy per Si atom -12393.599134 kJ/mol
# Density = 1.553073 g / cm^3
# Si number density = 15.566154 Si / 1000 Ang^3
#
#
#
# Elastic Constant Matrix: (Units=GPa)
#
#
# Indices 1 2 3 4 5 6 
#
# 1 45.5442 18.4954 39.1465 0.0000 0.0000 0.0000
# 2 18.4954 68.5909 56.1912 0.0000 0.0000 0.0000
# 3 39.1465 56.1912 150.9621 0.0000 0.0000 0.0000
# 4 0.0000 0.0000 0.0000 31.6066 0.0000 0.0000
# 5 0.0000 0.0000 0.0000 0.0000 13.8861 0.0000
# 6 0.0000 0.0000 0.0000 0.0000 0.0000 12.2780
#
#
#
# Elastic Compliance Matrix: (Units=1/GPa)
#
#
# Indices 1 2 3 4 5 6 
#
# 1 0.028514 -0.002347 -0.006521 0.000000 0.000000 0.000000
# 2 -0.002347 0.021168 -0.007271 0.000000 0.000000 0.000000
# 3 -0.006521 -0.007271 0.011021 0.000000 0.000000 0.000000
# 4 0.000000 0.000000 0.000000 0.031639 0.000000 0.000000
# 5 0.000000 0.000000 0.000000 0.000000 0.072014 0.000000
# 6 0.000000 0.000000 0.000000 0.000000 0.000000 0.081446
#
#
# Mechanical properties :
#
#
# Convention : Reuss Voigt Hill
#
# Bulk Modulus (GPa) = 35.17718 54.75151 44.96434
# Shear Modulus (GPa) = 17.38790 21.63841 19.51316
#
# Velocity S-wave (km/s) = 3.34583 3.73244 3.54441
# Velocity P-wave (km/s) = 6.12974 7.33653 6.76011
#
# Compressibility (1/GPa) = 0.02842752
#
# Stress axis : x y z
#
# Youngs Moduli (GPa) = 35.06996 47.24030 90.73313
#
# Poissons Ratio (x) = 0.11088 0.59163
# Poissons Ratio (y) = 0.08231 0.65969
# Poissons Ratio (z) = 0.22868 0.34347
#
# Static dielectric constant tensor:
#      x y z
#    x 2.535830 0.000000 0.000000 
#    y 0.000000 2.893880 0.000000 
#    z 0.000000 0.000000 3.370270 
# 
# 
# High freq. dielectric constant tensor:
#      x y z
#    x 1.518780 0.000000 0.000000 
#    y 0.000000 1.598640 0.000000 
#    z 0.000000 0.000000 1.616520 
# 
# From -- ./inp_files/20646.got.cif
#   From: 2010.03.12/outbox.cif.g09.slc.cpg/sg44_11_cif.got.tgz:20646.got - 2010.04.14 02:36:11.
