data_PCOD8187845
_publ_section_title
;
Structure prediction by ZEFSAII (Michael W. Deem and Ramdas Pophale) SiO2 
 PCOD8187845
Probable space group: F D D 2
;
_chemical_formula_sum "Si O2"
_cell_formula_units_Z 72
_cell_length_a 28.621299
_cell_length_b 14.128694
_cell_length_c 7.466948
_cell_angle_alpha 90.000000
_cell_angle_beta 90.000000
_cell_angle_gamma 90.000000
_cell_volume 3019.496196
_symmetry_space_group_name_H-M "F D D 2"
_symmetry_group_IT_number 43
_symmetry_cell_setting 'orthorhombic'
loop_
_space_group_symop_operation_xyz
x,y,z
-x,-y,z
1/4-x,1/4+y,1/4+z
1/4+x,1/4-y,1/4+z
x,1/2+y,1/2+z
-x,1/2-y,1/2+z
1/4-x,3/4+y,3/4+z
1/4+x,3/4-y,3/4+z
1/2+x,y,1/2+z
1/2-x,-y,1/2+z
3/4-x,1/4+y,3/4+z
3/4+x,1/4-y,3/4+z
1/2+x,1/2+y,z
1/2-x,1/2-y,z
3/4-x,3/4+y,1/4+z
3/4+x,3/4-y,1/4+z
loop_
_atom_site_type_symbol
_atom_site_label
_atom_site_fract_x
_atom_site_fract_y
_atom_site_fract_z
Si Si1 0.250000 0.750000 0.234610
Si Si2 0.777605 0.101081 0.532051
Si Si3 0.812978 0.897478 0.543303
Si Si4 0.632007 0.802248 0.105559
Si Si5 0.425528 0.135547 0.402379
O O1 0.225844 0.833732 0.353051
O O2 0.214754 0.696351 0.101632
O O3 0.824517 0.126277 0.642536
O O4 0.731523 0.116642 0.649552
O O5 0.779961 0.988154 0.498746
O O6 0.851353 0.912708 0.692502
O O7 0.840548 0.880618 0.357563
O O8 0.599610 0.783663 0.282800
O O9 0.656202 0.705324 0.046257
#
# Coordination Sequence:
#
# PCOD8187845 Si02
#       5
#     8  16  16  16  16
#     4  12  26  52  84 114 160 216 262 334 408 478
#     4  12  25  53  78 115 165 202 271 331 396 481
#     4  12  29  50  80 117 161 213 262 337 408 477
#     4  12  25  51  76 114 159 202 270 330 389 489
#     4  12  28  48  80 115 154 214 261 334 405 482
#
# _framework density 23.845036
#
# number of rings (size 3 to 8) (size 9 to 14) (size 15 to 20)
#    0.000    0.000    6.667    1.333    6.222    0.000 
#    0.000    0.000    0.000    0.000    0.000    0.000 
#    0.000    0.000    0.000    0.000    0.000    0.000 
#
# Total GULP energy -223088.041642 kJ/mol
# GULP energy per Si atom -12393.780091 kJ/mol
# Density = 2.379076 g / cm^3
# Si number density = 23.845036 Si / 1000 Ang^3
#
#
#
# Elastic Constant Matrix: (Units=GPa)
#
#
# Indices 1 2 3 4 5 6 
#
# 1 153.0528 41.9461 61.1379 0.0000 0.0000 0.0000
# 2 41.9461 116.1540 19.6475 0.0000 0.0000 0.0000
# 3 61.1379 19.6475 146.9077 0.0000 0.0000 0.0000
# 4 0.0000 0.0000 0.0000 31.3828 0.0000 0.0000
# 5 0.0000 0.0000 0.0000 0.0000 21.9469 0.0000
# 6 0.0000 0.0000 0.0000 0.0000 0.0000 43.1117
#
#
#
# Elastic Compliance Matrix: (Units=1/GPa)
#
#
# Indices 1 2 3 4 5 6 
#
# 1 0.008506 -0.002530 -0.003202 0.000000 0.000000 0.000000
# 2 -0.002530 0.009561 -0.000226 0.000000 0.000000 0.000000
# 3 -0.003202 -0.000226 0.008170 0.000000 0.000000 0.000000
# 4 0.000000 0.000000 0.000000 0.031865 0.000000 0.000000
# 5 0.000000 0.000000 0.000000 0.000000 0.045564 0.000000
# 6 0.000000 0.000000 0.000000 0.000000 0.000000 0.023196
#
#
# Mechanical properties :
#
#
# Convention : Reuss Voigt Hill
#
# Bulk Modulus (GPa) = 69.82354 73.50862 71.66608
# Shear Modulus (GPa) = 34.83106 38.84716 36.83911
#
# Velocity S-wave (km/s) = 3.82609 4.04065 3.93483
# Velocity P-wave (km/s) = 6.99031 7.25698 7.12489
#
# Compressibility (1/GPa) = 0.01432182
#
# Stress axis : x y z
#
# Youngs Moduli (GPa) = 117.56420 104.58988 122.40585
#
# Poissons Ratio (x) = 0.26463 0.39188
# Poissons Ratio (y) = 0.29746 0.02763
# Poissons Ratio (z) = 0.37638 0.02361
#
# Static dielectric constant tensor:
#      x y z
#    x 4.433240 0.000000 0.000000 
#    y 0.000000 4.587060 0.000000 
#    z 0.000000 0.000000 4.104810 
# 
# 
# High freq. dielectric constant tensor:
#      x y z
#    x 1.951840 0.000000 0.000000 
#    y 0.000000 1.956020 0.000000 
#    z 0.000000 0.000000 1.940140 
# 
# From -- ./inp_files/2347.got.cif
#   From: 2010.06.25/outbox.cif.g09.slc.cpg/sg43_2_cif.got.tgz:2347.got - 2010.06.26 16:48:59.
