data_PCOD8187182
_publ_section_title
;
Structure prediction by ZEFSAII (Michael W. Deem and Ramdas Pophale) SiO2 
 PCOD8187182
Probable space group: F D D 2
;
_chemical_formula_sum "Si O2"
_cell_formula_units_Z 120
_cell_length_a 27.390247
_cell_length_b 16.885201
_cell_length_c 12.220934
_cell_angle_alpha 90.000000
_cell_angle_beta 90.000000
_cell_angle_gamma 90.000000
_cell_volume 5652.057640
_symmetry_space_group_name_H-M "F D D 2"
_symmetry_group_IT_number 43
_symmetry_cell_setting 'orthorhombic'
loop_
_space_group_symop_operation_xyz
x,y,z
-x,-y,z
1/4-x,1/4+y,1/4+z
1/4+x,1/4-y,1/4+z
x,1/2+y,1/2+z
-x,1/2-y,1/2+z
1/4-x,3/4+y,3/4+z
1/4+x,3/4-y,3/4+z
1/2+x,y,1/2+z
1/2-x,-y,1/2+z
3/4-x,1/4+y,3/4+z
3/4+x,1/4-y,3/4+z
1/2+x,1/2+y,z
1/2-x,1/2-y,z
3/4-x,3/4+y,1/4+z
3/4+x,3/4-y,1/4+z
loop_
_atom_site_type_symbol
_atom_site_label
_atom_site_fract_x
_atom_site_fract_y
_atom_site_fract_z
Si Si1 0.144072 0.382756 0.517030
Si Si2 0.250000 0.750000 0.863762
Si Si3 0.147301 0.045324 0.475478
Si Si4 0.990394 0.122519 0.285947
Si Si5 0.348184 0.694818 0.788732
Si Si6 0.563888 0.068366 0.120849
Si Si7 0.882585 0.880403 0.811372
Si Si8 0.718946 0.650503 0.780456
O O1 0.117525 0.323942 0.603378
O O2 0.202363 0.391917 0.530584
O O3 0.132026 0.344968 0.399222
O O4 0.123711 0.471196 0.520275
O O5 0.289947 0.707308 0.789545
O O6 0.277357 0.810595 0.944447
O O7 0.204318 0.054604 0.508478
O O8 0.112104 0.097080 0.555009
O O9 0.137049 0.953468 0.498992
O O10 0.980278 0.085631 0.403917
O O11 0.356903 0.632802 0.690211
O O12 0.578373 0.063964 0.248935
O O13 0.518359 0.127757 0.093836
O O14 0.548194 0.982034 0.083901
O O15 0.826143 0.910555 0.795993
#
# Coordination Sequence:
#
# PCOD8187182 Si02
#       8
#    16   8  16  16  16  16  16  16
#     4  11  26  45  73 100 138 181 237 280 345 404
#     4  10  22  42  70  92 134 190 230 268 348 416
#     4  11  23  41  67 102 132 173 229 293 330 408
#     4  11  21  40  70 104 132 174 234 289 336 398
#     4  11  27  48  68 100 141 188 221 284 347 421
#     4  10  21  37  63  94 126 171 217 272 342 390
#     4  11  26  42  65  95 143 175 221 284 352 405
#     4  10  21  36  65 100 127 167 229 276 332 411
#
# _framework density 21.231206
#
# number of rings (size 3 to 8) (size 9 to 14) (size 15 to 20)
#    0.000    1.333    4.000    0.800   11.200    2.133 
#    2.400    1.333    0.000    0.000    0.000    0.000 
#    0.000    0.000    0.000    0.000    0.000    0.000 
#
# Total GULP energy -371694.011924 kJ/mol
# GULP energy per Si atom -12389.800397 kJ/mol
# Density = 2.118288 g / cm^3
# Si number density = 21.231206 Si / 1000 Ang^3
#
#
#
# Elastic Constant Matrix: (Units=GPa)
#
#
# Indices 1 2 3 4 5 6 
#
# 1 127.2246 27.9365 72.1371 0.0000 0.0000 0.0000
# 2 27.9365 68.9296 48.7646 0.0000 0.0000 0.0000
# 3 72.1371 48.7646 168.9672 0.0000 0.0000 0.0000
# 4 0.0000 0.0000 0.0000 30.5324 0.0000 0.0000
# 5 0.0000 0.0000 0.0000 0.0000 47.6397 0.0000
# 6 0.0000 0.0000 0.0000 0.0000 0.0000 25.8501
#
#
#
# Elastic Compliance Matrix: (Units=1/GPa)
#
#
# Indices 1 2 3 4 5 6 
#
# 1 0.010471 -0.001359 -0.004078 0.000000 0.000000 0.000000
# 2 -0.001359 0.018406 -0.004732 0.000000 0.000000 0.000000
# 3 -0.004078 -0.004732 0.009025 0.000000 0.000000 0.000000
# 4 0.000000 0.000000 0.000000 0.032752 0.000000 0.000000
# 5 0.000000 0.000000 0.000000 0.000000 0.020991 0.000000
# 6 0.000000 0.000000 0.000000 0.000000 0.000000 0.038685
#
#
# Mechanical properties :
#
#
# Convention : Reuss Voigt Hill
#
# Bulk Modulus (GPa) = 56.93399 73.64421 65.28910
# Shear Modulus (GPa) = 31.94450 35.22333 33.58391
#
# Velocity S-wave (km/s) = 3.88313 4.07754 3.98152
# Velocity P-wave (km/s) = 6.85414 7.54524 7.20798
#
# Compressibility (1/GPa) = 0.01756420
#
# Stress axis : x y z
#
# Youngs Moduli (GPa) = 95.50365 54.33064 110.80228
#
# Poissons Ratio (x) = 0.07381 0.45188
# Poissons Ratio (y) = 0.12975 0.52431
# Poissons Ratio (z) = 0.38948 0.25709
#
# Static dielectric constant tensor:
#      x y z
#    x 4.113350 0.000000 0.000000 
#    y 0.000000 3.517520 0.000000 
#    z 0.000000 0.000000 3.939660 
# 
# 
# High freq. dielectric constant tensor:
#      x y z
#    x 1.855990 0.000000 0.000000 
#    y 0.000000 1.800140 0.000000 
#    z 0.000000 0.000000 1.838140 
# 
# From -- ./inp_files/6889.got.cif
#   From: 2010.06.25/outbox.cif.g09.slc.cpg/sg43_4_cif.got.tgz:6889.got - 2010.06.26 16:48:59.
