data_PCOD8187006
_publ_section_title
;
Structure prediction by ZEFSAII (Michael W. Deem and Ramdas Pophale) SiO2 
 PCOD8187006
Probable space group: F D D 2
;
_chemical_formula_sum "Si O2"
_cell_formula_units_Z 112
_cell_length_a 34.098028
_cell_length_b 14.471185
_cell_length_c 10.624920
_cell_angle_alpha 90.000000
_cell_angle_beta 90.000000
_cell_angle_gamma 90.000000
_cell_volume 5242.748533
_symmetry_space_group_name_H-M "F D D 2"
_symmetry_group_IT_number 43
_symmetry_cell_setting 'orthorhombic'
loop_
_space_group_symop_operation_xyz
x,y,z
-x,-y,z
1/4-x,1/4+y,1/4+z
1/4+x,1/4-y,1/4+z
x,1/2+y,1/2+z
-x,1/2-y,1/2+z
1/4-x,3/4+y,3/4+z
1/4+x,3/4-y,3/4+z
1/2+x,y,1/2+z
1/2-x,-y,1/2+z
3/4-x,1/4+y,3/4+z
3/4+x,1/4-y,3/4+z
1/2+x,1/2+y,z
1/2-x,1/2-y,z
3/4-x,3/4+y,1/4+z
3/4+x,3/4-y,1/4+z
loop_
_atom_site_type_symbol
_atom_site_label
_atom_site_fract_x
_atom_site_fract_y
_atom_site_fract_z
Si Si1 0.345005 0.307437 0.793730
Si Si2 0.422089 0.661816 0.792592
Si Si3 0.226454 0.840096 0.001013
Si Si4 0.971373 0.921110 0.537131
Si Si5 0.100524 0.157509 0.165519
Si Si6 0.080401 0.254534 0.908585
Si Si7 0.506572 0.219981 0.249487
O O1 0.331010 0.339833 0.929997
O O2 0.321807 0.213105 0.766659
O O3 0.336870 0.386995 0.690727
O O4 0.390516 0.278497 0.797279
O O5 0.396033 0.626417 0.911351
O O6 0.401103 0.758155 0.761448
O O7 0.468521 0.673084 0.816966
O O8 0.250000 0.750000 0.954949
O O9 0.234373 0.860845 0.148588
O O10 0.180394 0.829292 0.963558
O O11 0.243336 0.933018 0.935183
O O12 0.973843 0.838357 0.636907
O O13 0.000000 0.000000 0.589336
O O14 0.087145 0.190212 0.028146
O O15 0.036919 0.237036 0.860912
#
# Coordination Sequence:
#
# PCOD8187006 Si02
#       7
#    16  16  16  16  16  16  16
#     4  10  19  37  62  92 128 168 210 270 318 389
#     4   9  19  38  62  84 127 163 212 257 321 381
#     4  10  23  41  64  87 131 172 208 272 331 387
#     4  11  21  39  66  92 126 166 217 265 326 387
#     4   9  20  40  60  89 123 172 202 263 331 377
#     4  10  20  36  64  94 132 164 217 270 321 386
#     4  11  22  38  65  95 123 174 216 269 323 390
#
# _framework density 21.362839999999998
#
# number of rings (size 3 to 8) (size 9 to 14) (size 15 to 20)
#    0.000    2.000    1.429    2.571    4.000    1.143 
#    2.571    8.571    0.000    0.000    0.000    0.000 
#    0.000    0.000    0.000    0.000    0.000    0.000 
#
# Total GULP energy -347035.656688 kJ/mol
# GULP energy per Si atom -12394.130596 kJ/mol
# Density = 2.131422 g / cm^3
# Si number density = 21.362840 Si / 1000 Ang^3
#
#
#
# Elastic Constant Matrix: (Units=GPa)
#
#
# Indices 1 2 3 4 5 6 
#
# 1 155.7914 49.8527 33.4672 0.0000 0.0000 0.0000
# 2 49.8527 101.4692 34.1113 0.0000 0.0000 0.0000
# 3 33.4672 34.1113 45.1388 0.0000 0.0000 0.0000
# 4 0.0000 0.0000 0.0000 27.8631 0.0000 0.0000
# 5 0.0000 0.0000 0.0000 0.0000 33.6140 0.0000
# 6 0.0000 0.0000 0.0000 0.0000 0.0000 40.3916
#
#
#
# Elastic Compliance Matrix: (Units=1/GPa)
#
#
# Indices 1 2 3 4 5 6 
#
# 1 0.008130 -0.002638 -0.004034 0.000000 0.000000 0.000000
# 2 -0.002638 0.014068 -0.008675 0.000000 0.000000 0.000000
# 3 -0.004034 -0.008675 0.031700 0.000000 0.000000 0.000000
# 4 0.000000 0.000000 0.000000 0.035890 0.000000 0.000000
# 5 0.000000 0.000000 0.000000 0.000000 0.029749 0.000000
# 6 0.000000 0.000000 0.000000 0.000000 0.000000 0.024758
#
#
# Mechanical properties :
#
#
# Convention : Reuss Voigt Hill
#
# Bulk Modulus (GPa) = 43.09648 59.69575 51.39612
# Shear Modulus (GPa) = 27.36384 32.70497 30.03441
#
# Velocity S-wave (km/s) = 3.58286 3.91695 3.75363
# Velocity P-wave (km/s) = 6.11009 6.96140 6.54959
#
# Compressibility (1/GPa) = 0.02320375
#
# Stress axis : x y z
#
# Youngs Moduli (GPa) = 123.00780 71.08539 31.54531
#
# Poissons Ratio (x) = 0.18752 0.12725
# Poissons Ratio (y) = 0.32450 0.27365
# Poissons Ratio (z) = 0.49621 0.61666
#
# Static dielectric constant tensor:
#      x y z
#    x 4.190980 0.000000 0.000000 
#    y 0.000000 3.946980 0.000000 
#    z 0.000000 0.000000 3.545710 
# 
# 
# High freq. dielectric constant tensor:
#      x y z
#    x 1.851230 0.000000 0.000000 
#    y 0.000000 1.837880 0.000000 
#    z 0.000000 0.000000 1.802960 
# 
# From -- ./inp_files/8300.got.cif
#   From: 2010.06.25/outbox.cif.g09.slc.cpg/sg43_5_cif.got.tgz:8300.got - 2010.06.26 16:48:59.
