data_PCOD8187075
_publ_section_title
;
Structure prediction by ZEFSAII (Michael W. Deem and Ramdas Pophale) SiO2 
 PCOD8187075
Probable space group: F D D 2
;
_chemical_formula_sum "Si O2"
_cell_formula_units_Z 96
_cell_length_a 11.989467
_cell_length_b 19.978723
_cell_length_c 17.654769
_cell_angle_alpha 90.000000
_cell_angle_beta 90.000000
_cell_angle_gamma 90.000000
_cell_volume 4228.921677
_symmetry_space_group_name_H-M "F D D 2"
_symmetry_group_IT_number 43
_symmetry_cell_setting 'orthorhombic'
loop_
_space_group_symop_operation_xyz
x,y,z
-x,-y,z
1/4-x,1/4+y,1/4+z
1/4+x,1/4-y,1/4+z
x,1/2+y,1/2+z
-x,1/2-y,1/2+z
1/4-x,3/4+y,3/4+z
1/4+x,3/4-y,3/4+z
1/2+x,y,1/2+z
1/2-x,-y,1/2+z
3/4-x,1/4+y,3/4+z
3/4+x,1/4-y,3/4+z
1/2+x,1/2+y,z
1/2-x,1/2-y,z
3/4-x,3/4+y,1/4+z
3/4+x,3/4-y,1/4+z
loop_
_atom_site_type_symbol
_atom_site_label
_atom_site_fract_x
_atom_site_fract_y
_atom_site_fract_z
Si Si1 0.615930 0.026763 0.407820
Si Si2 0.415874 0.579775 0.631367
Si Si3 0.331687 0.404904 0.669745
Si Si4 0.166288 0.979440 0.488795
Si Si5 0.673393 0.810440 0.603269
Si Si6 0.962758 0.780122 0.016408
O O1 0.623277 0.096068 0.359152
O O2 0.701738 0.029819 0.477821
O O3 0.500000 0.000000 0.441563
O O4 0.649611 0.972543 0.345854
O O5 0.549839 0.570679 0.634759
O O6 0.362385 0.519657 0.578945
O O7 0.364523 0.576077 0.715152
O O8 0.349161 0.336593 0.715303
O O9 0.241263 0.381298 0.605536
O O10 0.273083 0.458658 0.724317
O O11 0.124124 0.041936 0.438163
O O12 0.750000 0.750000 0.574980
O O13 0.580364 0.815135 0.537152
#
# Coordination Sequence:
#
# PCOD8187075 Si02
#       6
#    16  16  16  16  16  16
#     4  10  21  40  65  90 133 169 208 272 331 381
#     4  11  22  39  68 100 121 168 232 269 313 398
#     4  10  20  37  66  94 122 169 216 270 317 387
#     4   9  20  39  62  97 125 161 218 266 314 391
#     4   9  21  41  60  91 137 171 203 267 335 379
#     4  11  22  40  66  95 129 170 216 271 326 386
#
# _framework density 22.700823
#
# number of rings (size 3 to 8) (size 9 to 14) (size 15 to 20)
#    0.000    2.000    1.667    2.500    2.333    4.000 
#    3.000    2.500    0.000    0.000    0.000    0.000 
#    0.000    0.000    0.000    0.000    0.000    0.000 
#
# Total GULP energy -297318.519053 kJ/mol
# GULP energy per Si atom -12388.271627 kJ/mol
# Density = 2.264916 g / cm^3
# Si number density = 22.700823 Si / 1000 Ang^3
#
#
#
# Elastic Constant Matrix: (Units=GPa)
#
#
# Indices 1 2 3 4 5 6 
#
# 1 187.4463 60.8693 63.6728 0.0000 0.0000 0.0000
# 2 60.8693 32.9879 22.9765 0.0000 0.0000 0.0000
# 3 63.6728 22.9765 95.7505 0.0000 0.0000 0.0000
# 4 0.0000 0.0000 0.0000 27.3040 0.0000 0.0000
# 5 0.0000 0.0000 0.0000 0.0000 35.4474 0.0000
# 6 0.0000 0.0000 0.0000 0.0000 0.0000 43.0725
#
#
#
# Elastic Compliance Matrix: (Units=1/GPa)
#
#
# Indices 1 2 3 4 5 6 
#
# 1 0.014398 -0.023892 -0.003841 0.000000 0.000000 0.000000
# 2 -0.023892 0.076043 -0.002360 0.000000 0.000000 0.000000
# 3 -0.003841 -0.002360 0.013565 0.000000 0.000000 0.000000
# 4 0.000000 0.000000 0.000000 0.036625 0.000000 0.000000
# 5 0.000000 0.000000 0.000000 0.000000 0.028211 0.000000
# 6 0.000000 0.000000 0.000000 0.000000 0.000000 0.023217
#
#
# Mechanical properties :
#
#
# Convention : Reuss Voigt Hill
#
# Bulk Modulus (GPa) = 22.82079 67.91352 45.36716
# Shear Modulus (GPa) = 18.73714 32.40919 25.57317
#
# Velocity S-wave (km/s) = 2.87609 3.78255 3.36002
# Velocity P-wave (km/s) = 4.59389 7.00418 5.92294
#
# Compressibility (1/GPa) = 0.04381969
#
# Stress axis : x y z
#
# Youngs Moduli (GPa) = 69.45367 13.15050 73.72164
#
# Poissons Ratio (x) = 0.31419 0.28320
# Poissons Ratio (y) = 1.65937 0.17396
# Poissons Ratio (z) = 0.26680 0.03103
#
# Static dielectric constant tensor:
#      x y z
#    x 4.279400 0.000000 0.000000 
#    y 0.000000 4.016280 0.000000 
#    z 0.000000 0.000000 3.922070 
# 
# 
# High freq. dielectric constant tensor:
#      x y z
#    x 1.894130 0.000000 0.000000 
#    y 0.000000 1.888700 0.000000 
#    z 0.000000 0.000000 1.877690 
# 
# From -- ./inp_files/13316.got.cif
#   From: 2010.06.25/outbox.cif.g09.slc.cpg/sg43_7_cif.got.tgz:13316.got - 2010.06.26 16:48:59.
