data_PCOD8187779
_publ_section_title
;
Structure prediction by ZEFSAII (Michael W. Deem and Ramdas Pophale) SiO2 
 PCOD8187779
Probable space group: F D D 2
;
_chemical_formula_sum "Si O2"
_cell_formula_units_Z 64
_cell_length_a 14.178715
_cell_length_b 15.256922
_cell_length_c 11.869742
_cell_angle_alpha 90.000000
_cell_angle_beta 90.000000
_cell_angle_gamma 90.000000
_cell_volume 2567.704713
_symmetry_space_group_name_H-M "F D D 2"
_symmetry_group_IT_number 43
_symmetry_cell_setting 'orthorhombic'
loop_
_space_group_symop_operation_xyz
x,y,z
-x,-y,z
1/4-x,1/4+y,1/4+z
1/4+x,1/4-y,1/4+z
x,1/2+y,1/2+z
-x,1/2-y,1/2+z
1/4-x,3/4+y,3/4+z
1/4+x,3/4-y,3/4+z
1/2+x,y,1/2+z
1/2-x,-y,1/2+z
3/4-x,1/4+y,3/4+z
3/4+x,1/4-y,3/4+z
1/2+x,1/2+y,z
1/2-x,1/2-y,z
3/4-x,3/4+y,1/4+z
3/4+x,3/4-y,1/4+z
loop_
_atom_site_type_symbol
_atom_site_label
_atom_site_fract_x
_atom_site_fract_y
_atom_site_fract_z
Si Si1 0.404437 0.537032 0.802600
Si Si2 0.693070 0.117991 0.208839
Si Si3 0.143520 0.050510 0.474424
Si Si4 0.256319 0.843287 0.784894
O O1 0.500000 0.500000 0.738888
O O2 0.335477 0.453226 0.802970
O O3 0.346709 0.618171 0.746218
O O4 0.430563 0.570624 0.926568
O O5 0.702010 0.071012 0.087056
O O6 0.617251 0.196585 0.209064
O O7 0.794287 0.153088 0.240955
O O8 0.196435 0.085386 0.364267
O O9 0.250000 0.750000 0.851269
#
# Coordination Sequence:
#
# PCOD8187779 Si02
#       4
#    16  16  16  16
#     4  11  28  48  79 115 161 209 272 340 414 486
#     4  11  27  46  74 109 154 212 257 335 405 491
#     4  11  26  46  77 109 158 205 267 328 411 483
#     4  11  27  48  83 118 160 209 279 339 407 499
#
# _framework density 24.924983999999998
#
# number of rings (size 3 to 8) (size 9 to 14) (size 15 to 20)
#    0.000    1.000    0.000    3.000   21.000    4.000 
#    0.000    0.000    0.000    0.000    0.000    0.000 
#    0.000    0.000    0.000    0.000    0.000    0.000 
#
# Total GULP energy -198271.921355 kJ/mol
# GULP energy per Si atom -12391.995085 kJ/mol
# Density = 2.486825 g / cm^3
# Si number density = 24.924984 Si / 1000 Ang^3
#
#
#
# Elastic Constant Matrix: (Units=GPa)
#
#
# Indices 1 2 3 4 5 6 
#
# 1 90.9802 62.5187 25.7147 0.0000 0.0000 0.0000
# 2 62.5187 179.6852 35.3661 0.0000 0.0000 0.0000
# 3 25.7147 35.3661 119.5647 0.0000 0.0000 0.0000
# 4 0.0000 0.0000 0.0000 21.5966 0.0000 0.0000
# 5 0.0000 0.0000 0.0000 0.0000 23.4986 0.0000
# 6 0.0000 0.0000 0.0000 0.0000 0.0000 50.1590
#
#
#
# Elastic Compliance Matrix: (Units=1/GPa)
#
#
# Indices 1 2 3 4 5 6 
#
# 1 0.014786 -0.004798 -0.001761 0.000000 0.000000 0.000000
# 2 -0.004798 0.007466 -0.001177 0.000000 0.000000 0.000000
# 3 -0.001761 -0.001177 0.009090 0.000000 0.000000 0.000000
# 4 0.000000 0.000000 0.000000 0.046304 0.000000 0.000000
# 5 0.000000 0.000000 0.000000 0.000000 0.042556 0.000000
# 6 0.000000 0.000000 0.000000 0.000000 0.000000 0.019937
#
#
# Mechanical properties :
#
#
# Convention : Reuss Voigt Hill
#
# Bulk Modulus (GPa) = 63.00417 70.82548 66.91482
# Shear Modulus (GPa) = 31.07514 36.82619 33.95066
#
# Velocity S-wave (km/s) = 3.53476 3.84797 3.69469
# Velocity P-wave (km/s) = 6.48011 6.94404 6.71608
#
# Compressibility (1/GPa) = 0.01587197
#
# Stress axis : x y z
#
# Youngs Moduli (GPa) = 67.63082 133.93578 110.00632
#
# Poissons Ratio (x) = 0.64263 0.19370
# Poissons Ratio (y) = 0.32450 0.12943
# Poissons Ratio (z) = 0.11909 0.15758
#
# Static dielectric constant tensor:
#      x y z
#    x 4.819430 0.000000 0.000000 
#    y 0.000000 5.264200 0.000000 
#    z 0.000000 0.000000 4.049600 
# 
# 
# High freq. dielectric constant tensor:
#      x y z
#    x 1.998420 0.000000 0.000000 
#    y 0.000000 2.020300 0.000000 
#    z 0.000000 0.000000 1.974380 
# 
# From -- ./inp_files/5960.got.cif
#   From: 2010.06.25/outbox.cif.g09.slc.cpg/sg43_3_cif.got.tgz:5960.got - 2010.06.26 16:48:59.
