data_PCOD8187738
_publ_section_title
;
Structure prediction by ZEFSAII (Michael W. Deem and Ramdas Pophale) SiO2 
 PCOD8187738
Probable space group: F D D 2
;
_chemical_formula_sum "Si O2"
_cell_formula_units_Z 120
_cell_length_a 8.489804
_cell_length_b 25.363663
_cell_length_c 26.814300
_cell_angle_alpha 90.000000
_cell_angle_beta 90.000000
_cell_angle_gamma 90.000000
_cell_volume 5773.990995
_symmetry_space_group_name_H-M "F D D 2"
_symmetry_group_IT_number 43
_symmetry_cell_setting 'orthorhombic'
loop_
_space_group_symop_operation_xyz
x,y,z
-x,-y,z
1/4-x,1/4+y,1/4+z
1/4+x,1/4-y,1/4+z
x,1/2+y,1/2+z
-x,1/2-y,1/2+z
1/4-x,3/4+y,3/4+z
1/4+x,3/4-y,3/4+z
1/2+x,y,1/2+z
1/2-x,-y,1/2+z
3/4-x,1/4+y,3/4+z
3/4+x,1/4-y,3/4+z
1/2+x,1/2+y,z
1/2-x,1/2-y,z
3/4-x,3/4+y,1/4+z
3/4+x,3/4-y,1/4+z
loop_
_atom_site_type_symbol
_atom_site_label
_atom_site_fract_x
_atom_site_fract_y
_atom_site_fract_z
Si Si1 0.191593 0.126508 0.384210
Si Si2 0.562459 0.399013 0.698683
Si Si3 0.470765 0.211355 0.917088
Si Si4 0.808064 0.937637 0.483714
Si Si5 0.579743 0.193460 0.252719
Si Si6 0.498100 0.184454 0.364022
Si Si7 0.750000 0.250000 0.985083
Si Si8 0.404939 0.151580 0.525061
O O1 0.027664 0.157436 0.390697
O O2 0.205919 0.082587 0.427074
O O3 0.325724 0.171923 0.386694
O O4 0.209001 0.096532 0.332175
O O5 0.436812 0.447216 0.698150
O O6 0.482788 0.343525 0.709094
O O7 0.634672 0.394994 0.643051
O O8 0.696317 0.411262 0.739365
O O9 0.444706 0.255627 0.874672
O O10 0.596877 0.235714 0.954028
O O11 0.684079 0.903967 0.515842
O O12 0.983555 0.934661 0.506157
O O13 0.765423 0.999188 0.487248
O O14 0.503884 0.175179 0.305014
O O15 0.717398 0.300984 0.018708
#
# Coordination Sequence:
#
# PCOD8187738 Si02
#       8
#    16  16  16  16  16  16   8  16
#     4  12  23  44  69  95 140 180 223 277 350 416
#     4  12  24  42  67 101 138 169 226 294 342 400
#     4  12  22  42  71  99 132 178 224 295 335 409
#     4  11  24  46  66  98 138 179 232 283 340 418
#     4  11  26  43  69  99 134 181 229 288 346 410
#     4  12  24  42  70 104 131 174 236 282 345 414
#     4  12  22  44  68  98 136 176 220 278 348 404
#     4  12  25  43  68 100 139 185 222 287 349 421
#
# _framework density 20.782851999999998
#
# number of rings (size 3 to 8) (size 9 to 14) (size 15 to 20)
#    0.000    0.267    8.000    1.200    5.600    1.600 
#    0.000    0.000    2.933    0.000    0.000    0.000 
#    0.000    0.000    0.000    0.000    0.000    0.000 
#
# Total GULP energy -371993.960118 kJ/mol
# GULP energy per Si atom -12399.798671 kJ/mol
# Density = 2.073555 g / cm^3
# Si number density = 20.782852 Si / 1000 Ang^3
#
#
#
# Elastic Constant Matrix: (Units=GPa)
#
#
# Indices 1 2 3 4 5 6 
#
# 1 82.6077 25.5201 21.6435 0.0000 0.0000 0.0000
# 2 25.5201 91.0128 36.1553 0.0000 0.0000 0.0000
# 3 21.6435 36.1553 107.0967 0.0000 0.0000 0.0000
# 4 0.0000 0.0000 0.0000 32.8524 0.0000 0.0000
# 5 0.0000 0.0000 0.0000 0.0000 28.3664 0.0000
# 6 0.0000 0.0000 0.0000 0.0000 0.0000 36.3298
#
#
#
# Elastic Compliance Matrix: (Units=1/GPa)
#
#
# Indices 1 2 3 4 5 6 
#
# 1 0.013509 -0.003122 -0.001676 0.000000 0.000000 0.000000
# 2 -0.003122 0.013411 -0.003896 0.000000 0.000000 0.000000
# 3 -0.001676 -0.003896 0.010992 0.000000 0.000000 0.000000
# 4 0.000000 0.000000 0.000000 0.030439 0.000000 0.000000
# 5 0.000000 0.000000 0.000000 0.000000 0.035253 0.000000
# 6 0.000000 0.000000 0.000000 0.000000 0.000000 0.027526
#
#
# Mechanical properties :
#
#
# Convention : Reuss Voigt Hill
#
# Bulk Modulus (GPa) = 48.72806 49.70610 49.21708
# Shear Modulus (GPa) = 32.18350 32.66961 32.42656
#
# Velocity S-wave (km/s) = 3.93944 3.96908 3.95429
# Velocity P-wave (km/s) = 6.64752 6.70624 6.67694
#
# Compressibility (1/GPa) = 0.02052206
#
# Stress axis : x y z
#
# Youngs Moduli (GPa) = 74.02430 74.56672 90.97939
#
# Poissons Ratio (x) = 0.23281 0.15249
# Poissons Ratio (y) = 0.23111 0.35450
# Poissons Ratio (z) = 0.12407 0.29055
#
# Static dielectric constant tensor:
#      x y z
#    x 3.989520 0.000000 0.000000 
#    y 0.000000 4.025500 0.000000 
#    z 0.000000 0.000000 3.672290 
# 
# 
# High freq. dielectric constant tensor:
#      x y z
#    x 1.826860 0.000000 0.000000 
#    y 0.000000 1.814660 0.000000 
#    z 0.000000 0.000000 1.806570 
# 
# From -- ./inp_files/24475.got.cif
#   From: 2010.06.25/outbox.cif.g09.slc.cpg/sg43_13_cif.got.tgz:24475.got - 2010.06.26 16:48:59.
