data_PCOD8187797
_publ_section_title
;
Structure prediction by ZEFSAII (Michael W. Deem and Ramdas Pophale) SiO2 
 PCOD8187797
Probable space group: F D D 2
;
_chemical_formula_sum "Si O2"
_cell_formula_units_Z 120
_cell_length_a 13.159309
_cell_length_b 21.871401
_cell_length_c 19.184710
_cell_angle_alpha 90.000000
_cell_angle_beta 90.000000
_cell_angle_gamma 90.000000
_cell_volume 5521.599808
_symmetry_space_group_name_H-M "F D D 2"
_symmetry_group_IT_number 43
_symmetry_cell_setting 'orthorhombic'
loop_
_space_group_symop_operation_xyz
x,y,z
-x,-y,z
1/4-x,1/4+y,1/4+z
1/4+x,1/4-y,1/4+z
x,1/2+y,1/2+z
-x,1/2-y,1/2+z
1/4-x,3/4+y,3/4+z
1/4+x,3/4-y,3/4+z
1/2+x,y,1/2+z
1/2-x,-y,1/2+z
3/4-x,1/4+y,3/4+z
3/4+x,1/4-y,3/4+z
1/2+x,1/2+y,z
1/2-x,1/2-y,z
3/4-x,3/4+y,1/4+z
3/4+x,3/4-y,1/4+z
loop_
_atom_site_type_symbol
_atom_site_label
_atom_site_fract_x
_atom_site_fract_y
_atom_site_fract_z
Si Si1 0.365387 0.268437 0.270010
Si Si2 0.104691 0.891908 0.230940
Si Si3 0.964892 0.260278 0.913406
Si Si4 0.500000 0.500000 0.539987
Si Si5 0.856156 0.660346 0.874849
Si Si6 0.552340 0.206025 0.205404
Si Si7 0.150877 0.292685 0.620734
Si Si8 0.368330 0.649251 0.974162
O O1 0.250000 0.250000 0.272521
O O2 0.402675 0.284720 0.346993
O O3 0.443375 0.215568 0.242471
O O4 0.363472 0.326974 0.219342
O O5 0.169338 0.954253 0.230408
O O6 0.082944 0.873990 0.312027
O O7 0.166069 0.840551 0.186082
O O8 0.996237 0.908269 0.196364
O O9 0.948051 0.187468 0.925775
O O10 0.081015 0.281776 0.905306
O O11 0.491475 0.439715 0.588118
O O12 0.603215 0.486212 0.497741
O O13 0.821368 0.615020 0.936776
O O14 0.554907 0.247736 0.135934
O O15 0.250000 0.250000 0.611969
O O16 0.119981 0.329525 0.553194
#
# Coordination Sequence:
#
# PCOD8187797 Si02
#       8
#    16  16  16   8  16  16  16  16
#     4  12  26  46  65  98 141 185 228 277 345 426
#     4  12  20  39  62 102 134 168 223 294 343 410
#     4  12  23  41  68 102 135 177 229 287 351 407
#     4  12  22  44  68 100 132 170 236 282 344 416
#     4  12  24  40  70 100 138 175 230 292 349 409
#     4  12  24  42  71 100 137 179 219 292 354 404
#     4  12  20  35  64  99 135 162 216 290 348 401
#     4  12  24  39  66  96 137 177 227 282 346 409
#
# _framework density 21.732832999999999
#
# number of rings (size 3 to 8) (size 9 to 14) (size 15 to 20)
#    0.000    0.000    7.333    5.200    0.000    1.067 
#    0.000    0.000    0.000    0.000    0.000    0.000 
#    0.000    0.000    0.000    0.000    0.000    0.000 
#
# Total GULP energy -371746.366346 kJ/mol
# GULP energy per Si atom -12391.545545 kJ/mol
# Density = 2.168337 g / cm^3
# Si number density = 21.732833 Si / 1000 Ang^3
#
#
#
# Elastic Constant Matrix: (Units=GPa)
#
#
# Indices 1 2 3 4 5 6 
#
# 1 99.6695 32.5522 23.4315 0.0000 0.0000 0.0000
# 2 32.5522 117.8414 32.2939 0.0000 0.0000 0.0000
# 3 23.4315 32.2939 58.1878 0.0000 0.0000 0.0000
# 4 0.0000 0.0000 0.0000 39.4461 0.0000 0.0000
# 5 0.0000 0.0000 0.0000 0.0000 21.3257 0.0000
# 6 0.0000 0.0000 0.0000 0.0000 0.0000 36.9754
#
#
#
# Elastic Compliance Matrix: (Units=1/GPa)
#
#
# Indices 1 2 3 4 5 6 
#
# 1 0.011573 -0.002264 -0.003404 0.000000 0.000000 0.000000
# 2 -0.002264 0.010451 -0.004889 0.000000 0.000000 0.000000
# 3 -0.003404 -0.004889 0.021269 0.000000 0.000000 0.000000
# 4 0.000000 0.000000 0.000000 0.025351 0.000000 0.000000
# 5 0.000000 0.000000 0.000000 0.000000 0.046892 0.000000
# 6 0.000000 0.000000 0.000000 0.000000 0.000000 0.027045
#
#
# Mechanical properties :
#
#
# Convention : Reuss Voigt Hill
#
# Bulk Modulus (GPa) = 45.08421 50.25043 47.66732
# Shear Modulus (GPa) = 29.22485 32.04420 30.63453
#
# Velocity S-wave (km/s) = 3.67104 3.84404 3.75853
# Velocity P-wave (km/s) = 6.22563 6.54784 6.38877
#
# Compressibility (1/GPa) = 0.02218072
#
# Stress axis : x y z
#
# Youngs Moduli (GPa) = 86.40968 95.68375 47.01575
#
# Poissons Ratio (x) = 0.21664 0.16003
# Poissons Ratio (y) = 0.19564 0.22984
# Poissons Ratio (z) = 0.29411 0.46776
#
# Static dielectric constant tensor:
#      x y z
#    x 3.760950 0.000000 0.000000 
#    y 0.000000 4.154320 0.000000 
#    z 0.000000 0.000000 3.959360 
# 
# 
# High freq. dielectric constant tensor:
#      x y z
#    x 1.829200 0.000000 0.000000 
#    y 0.000000 1.864970 0.000000 
#    z 0.000000 0.000000 1.839270 
# 
# From -- ./inp_files/17290.got.cif
#   From: 2010.06.25/outbox.cif.g09.slc.cpg/sg43_9_cif.got.tgz:17290.got - 2010.06.26 16:48:59.
