data_PCOD8187329
_publ_section_title
;
Structure prediction by ZEFSAII (Michael W. Deem and Ramdas Pophale) SiO2 
 PCOD8187329
Probable space group: F D D 2
;
_chemical_formula_sum "Si O2"
_cell_formula_units_Z 72
_cell_length_a 9.021193
_cell_length_b 12.040685
_cell_length_c 27.751409
_cell_angle_alpha 90.000000
_cell_angle_beta 90.000000
_cell_angle_gamma 90.000000
_cell_volume 3014.395322
_symmetry_space_group_name_H-M "F D D 2"
_symmetry_group_IT_number 43
_symmetry_cell_setting 'orthorhombic'
loop_
_space_group_symop_operation_xyz
x,y,z
-x,-y,z
1/4-x,1/4+y,1/4+z
1/4+x,1/4-y,1/4+z
x,1/2+y,1/2+z
-x,1/2-y,1/2+z
1/4-x,3/4+y,3/4+z
1/4+x,3/4-y,3/4+z
1/2+x,y,1/2+z
1/2-x,-y,1/2+z
3/4-x,1/4+y,3/4+z
3/4+x,1/4-y,3/4+z
1/2+x,1/2+y,z
1/2-x,1/2-y,z
3/4-x,3/4+y,1/4+z
3/4+x,3/4-y,1/4+z
loop_
_atom_site_type_symbol
_atom_site_label
_atom_site_fract_x
_atom_site_fract_y
_atom_site_fract_z
Si Si1 0.643826 0.925787 0.231880
Si Si2 0.165553 0.485734 0.654722
Si Si3 0.012463 0.726501 0.299827
Si Si4 0.000000 0.000000 0.385563
Si Si5 0.786356 0.574246 0.805675
O O1 0.592197 0.807945 0.254546
O O2 0.500000 0.000000 0.225555
O O3 0.726572 0.922917 0.180171
O O4 0.766732 0.976702 0.267498
O O5 0.165918 0.501571 0.597280
O O6 0.222095 0.360039 0.667880
O O7 0.000000 0.500000 0.674097
O O8 0.098056 0.837043 0.283868
O O9 0.127247 0.629969 0.315254
O O10 0.851537 0.020886 0.354237
#
# Coordination Sequence:
#
# PCOD8187329 Si02
#       5
#    16  16  16   8  16
#     4  10  22  39  68  94 134 174 226 282 341 414
#     4  11  24  41  67 102 133 176 234 284 348 418
#     4   9  20  41  66  92 132 182 219 278 351 407
#     4  10  22  38  70  92 138 174 220 296 352 404
#     4   9  19  38  65  92 127 177 220 276 352 403
#
# _framework density 23.885387999999999
#
# number of rings (size 3 to 8) (size 9 to 14) (size 15 to 20)
#    0.000    2.222    0.000    1.333    7.778    3.556 
#    0.000    0.000   19.556    0.000    0.000    0.000 
#    0.000    0.000    0.000    0.000    0.000    0.000 
#
# Total GULP energy -223145.079378 kJ/mol
# GULP energy per Si atom -12396.948854 kJ/mol
# Density = 2.383102 g / cm^3
# Si number density = 23.885388 Si / 1000 Ang^3
#
#
#
# Elastic Constant Matrix: (Units=GPa)
#
#
# Indices 1 2 3 4 5 6 
#
# 1 119.1236 31.5322 38.8587 0.0000 0.0000 0.0000
# 2 31.5322 84.8406 22.8062 0.0000 0.0000 0.0000
# 3 38.8587 22.8062 59.3322 0.0000 0.0000 0.0000
# 4 0.0000 0.0000 0.0000 29.3398 0.0000 0.0000
# 5 0.0000 0.0000 0.0000 0.0000 25.4917 0.0000
# 6 0.0000 0.0000 0.0000 0.0000 0.0000 26.1245
#
#
#
# Elastic Compliance Matrix: (Units=1/GPa)
#
#
# Indices 1 2 3 4 5 6 
#
# 1 0.011105 -0.002422 -0.006342 0.000000 0.000000 0.000000
# 2 -0.002422 0.013674 -0.003669 0.000000 0.000000 0.000000
# 3 -0.006342 -0.003669 0.022418 0.000000 0.000000 0.000000
# 4 0.000000 0.000000 0.000000 0.034083 0.000000 0.000000
# 5 0.000000 0.000000 0.000000 0.000000 0.039228 0.000000
# 6 0.000000 0.000000 0.000000 0.000000 0.000000 0.038278
#
#
# Mechanical properties :
#
#
# Convention : Reuss Voigt Hill
#
# Bulk Modulus (GPa) = 44.78413 49.96562 47.37487
# Shear Modulus (GPa) = 26.16486 27.53114 26.84800
#
# Velocity S-wave (km/s) = 3.31332 3.39873 3.35630
# Velocity P-wave (km/s) = 5.78168 6.03044 5.90737
#
# Compressibility (1/GPa) = 0.02232934
#
# Stress axis : x y z
#
# Youngs Moduli (GPa) = 90.05340 73.13412 44.60704
#
# Poissons Ratio (x) = 0.17716 0.28288
# Poissons Ratio (y) = 0.21815 0.16368
# Poissons Ratio (z) = 0.57108 0.26835
#
# Static dielectric constant tensor:
#      x y z
#    x 4.359670 0.000000 0.000000 
#    y 0.000000 4.426320 0.000000 
#    z 0.000000 0.000000 4.064320 
# 
# 
# High freq. dielectric constant tensor:
#      x y z
#    x 1.960200 0.000000 0.000000 
#    y 0.000000 1.936910 0.000000 
#    z 0.000000 0.000000 1.919850 
# 
# From -- ./inp_files/23938.got.cif
#   From: 2010.06.25/outbox.cif.g09.slc.cpg/sg43_12_cif.got.tgz:23938.got - 2010.06.26 16:48:59.
