data_PCOD8187690
_publ_section_title
;
Structure prediction by ZEFSAII (Michael W. Deem and Ramdas Pophale) SiO2 
 PCOD8187690
Probable space group: F D D 2
;
_chemical_formula_sum "Si O2"
_cell_formula_units_Z 120
_cell_length_a 9.087968
_cell_length_b 21.514141
_cell_length_c 30.347549
_cell_angle_alpha 90.000000
_cell_angle_beta 90.000000
_cell_angle_gamma 90.000000
_cell_volume 5933.547468
_symmetry_space_group_name_H-M "F D D 2"
_symmetry_group_IT_number 43
_symmetry_cell_setting 'orthorhombic'
loop_
_space_group_symop_operation_xyz
x,y,z
-x,-y,z
1/4-x,1/4+y,1/4+z
1/4+x,1/4-y,1/4+z
x,1/2+y,1/2+z
-x,1/2-y,1/2+z
1/4-x,3/4+y,3/4+z
1/4+x,3/4-y,3/4+z
1/2+x,y,1/2+z
1/2-x,-y,1/2+z
3/4-x,1/4+y,3/4+z
3/4+x,1/4-y,3/4+z
1/2+x,1/2+y,z
1/2-x,1/2-y,z
3/4-x,3/4+y,1/4+z
3/4+x,3/4-y,1/4+z
loop_
_atom_site_type_symbol
_atom_site_label
_atom_site_fract_x
_atom_site_fract_y
_atom_site_fract_z
Si Si1 0.250000 0.750000 0.551240
Si Si2 0.188788 0.954689 0.727296
Si Si3 0.826384 0.496576 0.985851
Si Si4 0.236407 0.385958 0.931014
Si Si5 0.916288 0.238652 0.825668
Si Si6 0.747221 0.360990 0.618356
Si Si7 0.467244 0.309003 0.411394
Si Si8 0.942790 0.375028 0.698336
O O1 0.101311 0.742077 0.521791
O O2 0.264557 0.689930 0.580964
O O3 0.332233 0.910718 0.731962
O O4 0.045538 0.912676 0.717322
O O5 0.215609 0.000328 0.686635
O O6 0.757756 0.544908 0.950987
O O7 0.776729 0.427136 0.975283
O O8 0.000000 0.500000 0.984162
O O9 0.775411 0.511986 0.034797
O O10 0.333383 0.380102 0.886982
O O11 0.070013 0.369099 0.917774
O O12 0.750000 0.250000 0.809092
O O13 0.932366 0.172736 0.848943
O O14 0.959277 0.292881 0.859832
O O15 0.852180 0.341630 0.659082
O O16 0.305458 0.324168 0.429387
#
# Coordination Sequence:
#
# PCOD8187690 Si02
#       8
#     8  16  16  16  16  16  16  16
#     4  12  24  42  66 100 142 172 236 282 338 404
#     4  11  23  40  72  97 125 178 225 275 327 403
#     4  12  28  44  66 104 139 173 226 290 350 407
#     4  11  23  44  70  95 132 179 221 271 344 408
#     4  12  26  43  69 101 134 175 232 288 337 410
#     4  11  25  42  70  98 135 183 227 278 340 413
#     4  12  21  46  69  96 130 177 229 274 331 410
#     4  11  24  45  72  95 136 182 228 273 347 410
#
# _framework density 20.223990000000001
#
# number of rings (size 3 to 8) (size 9 to 14) (size 15 to 20)
#    0.000    0.533    6.667    2.000    7.467    0.000 
#    0.000    0.000    2.933    0.000    0.000    0.000 
#    0.000    0.000    0.000    0.000    0.000    0.000 
#
# Total GULP energy -372112.494141 kJ/mol
# GULP energy per Si atom -12403.749805 kJ/mol
# Density = 2.017796 g / cm^3
# Si number density = 20.223990 Si / 1000 Ang^3
#
#
#
# Elastic Constant Matrix: (Units=GPa)
#
#
# Indices 1 2 3 4 5 6 
#
# 1 125.5232 39.6540 40.1554 0.0000 0.0000 0.0000
# 2 39.6540 84.5040 34.9045 0.0000 0.0000 0.0000
# 3 40.1554 34.9045 82.9521 0.0000 0.0000 0.0000
# 4 0.0000 0.0000 0.0000 55.4907 0.0000 0.0000
# 5 0.0000 0.0000 0.0000 0.0000 15.6438 0.0000
# 6 0.0000 0.0000 0.0000 0.0000 0.0000 38.1299
#
#
#
# Elastic Compliance Matrix: (Units=1/GPa)
#
#
# Indices 1 2 3 4 5 6 
#
# 1 0.010135 -0.003304 -0.003516 0.000000 0.000000 0.000000
# 2 -0.003304 0.015400 -0.004881 0.000000 0.000000 0.000000
# 3 -0.003516 -0.004881 0.015811 0.000000 0.000000 0.000000
# 4 0.000000 0.000000 0.000000 0.018021 0.000000 0.000000
# 5 0.000000 0.000000 0.000000 0.000000 0.063923 0.000000
# 6 0.000000 0.000000 0.000000 0.000000 0.000000 0.026226
#
#
# Mechanical properties :
#
#
# Convention : Reuss Voigt Hill
#
# Bulk Modulus (GPa) = 55.72568 58.04524 56.88546
# Shear Modulus (GPa) = 27.94871 33.73723 30.84297
#
# Velocity S-wave (km/s) = 3.72150 4.08877 3.90945
# Velocity P-wave (km/s) = 6.78824 7.14522 6.96901
#
# Compressibility (1/GPa) = 0.01794505
#
# Stress axis : x y z
#
# Youngs Moduli (GPa) = 98.66677 64.93495 63.24724
#
# Poissons Ratio (x) = 0.21452 0.22238
# Poissons Ratio (y) = 0.32596 0.30870
# Poissons Ratio (z) = 0.34692 0.31693
#
# Static dielectric constant tensor:
#      x y z
#    x 3.922350 0.000000 0.000000 
#    y 0.000000 1.211750 0.000000 
#    z 0.000000 0.000000 3.640480 
# 
# 
# High freq. dielectric constant tensor:
#      x y z
#    x 1.800140 0.000000 0.000000 
#    y 0.000000 1.797400 0.000000 
#    z 0.000000 0.000000 1.783780 
# 
# From -- ./inp_files/28126.got.cif
#   From: 2010.06.25/outbox.cif.g09.slc.cpg/sg43_15_cif.got.tgz:28126.got - 2010.06.26 16:48:59.
