data_PCOD8187932
_publ_section_title
;
Structure prediction by ZEFSAII (Michael W. Deem and Ramdas Pophale) SiO2 
 PCOD8187932
Probable space group: I M M 2
;
_chemical_formula_sum "Si O2"
_cell_formula_units_Z 48
_cell_length_a 18.327030
_cell_length_b 16.833690
_cell_length_c 8.216169
_cell_angle_alpha 90.000000
_cell_angle_beta 90.000000
_cell_angle_gamma 90.000000
_cell_volume 2534.782965
_symmetry_space_group_name_H-M "I M M 2"
_symmetry_group_IT_number 44
_symmetry_cell_setting 'orthorhombic'
loop_
_space_group_symop_operation_xyz
x,y,z
-x,-y,z
-x,y,z
x,-y,z
1/2+x,1/2+y,1/2+z
1/2-x,1/2-y,1/2+z
1/2-x,1/2+y,1/2+z
1/2+x,1/2-y,1/2+z
loop_
_atom_site_type_symbol
_atom_site_label
_atom_site_fract_x
_atom_site_fract_y
_atom_site_fract_z
Si Si1 0.918131 0.352704 0.489860
Si Si2 0.221050 0.152863 0.463363
Si Si3 0.084226 0.252555 0.951622
Si Si4 0.822513 0.288906 0.233405
Si Si5 0.354161 0.087884 0.308319
Si Si6 0.919969 0.824534 0.621212
O O1 0.876237 0.353670 0.317200
O O2 0.869799 0.403134 0.616533
O O3 0.924542 0.262216 0.545215
O O4 0.000000 0.388822 0.473770
O O5 0.217404 0.236597 0.369668
O O6 0.261813 0.164065 0.634207
O O7 0.266769 0.093436 0.347920
O O8 0.139664 0.123976 0.518720
O O9 0.130790 0.231675 0.112171
O O10 0.000000 0.247994 0.996942
O O11 0.102583 0.343833 0.904106
O O12 0.102875 0.188965 0.810059
O O13 0.380335 0.000000 0.362511
O O14 0.000000 0.865783 0.608941
#
# Coordination Sequence:
#
# PCOD8187932 Si02
#       6
#     8   8   8   8   8   8
#     4   9  17  29  45  66  92 122 160 200 236 280
#     4  10  18  29  47  69  96 124 160 203 243 288
#     4   9  17  29  48  74 100 124 155 196 241 293
#     4  10  17  28  47  71  94 122 155 203 255 286
#     4  10  20  32  46  65  95 137 171 191 224 279
#     4   8  15  28  46  69  93 118 151 198 253 290
#
# _framework density 18.936532
#
# number of rings (size 3 to 8) (size 9 to 14) (size 15 to 20)
#    0.000    2.667    0.000    6.000    0.000    2.000 
#    0.000    3.333    0.000    4.500    0.000    0.000 
#    0.000    1.333    0.000    0.000    0.000    0.000 
#
# Total GULP energy -297328.658161 kJ/mol
# GULP energy per Si atom -12388.694090 kJ/mol
# Density = 1.889343 g / cm^3
# Si number density = 18.936532 Si / 1000 Ang^3
#
#
#
# Elastic Constant Matrix: (Units=GPa)
#
#
# Indices 1 2 3 4 5 6 
#
# 1 123.1943 9.9511 57.1195 0.0000 0.0000 0.0000
# 2 9.9511 24.3083 11.2783 0.0000 0.0000 0.0000
# 3 57.1195 11.2783 98.8974 0.0000 0.0000 0.0000
# 4 0.0000 0.0000 0.0000 6.1776 0.0000 0.0000
# 5 0.0000 0.0000 0.0000 0.0000 40.8502 0.0000
# 6 0.0000 0.0000 0.0000 0.0000 0.0000 5.4250
#
#
#
# Elastic Compliance Matrix: (Units=1/GPa)
#
#
# Indices 1 2 3 4 5 6 
#
# 1 0.011149 -0.001665 -0.006250 0.000000 0.000000 0.000000
# 2 -0.001665 0.043685 -0.004020 0.000000 0.000000 0.000000
# 3 -0.006250 -0.004020 0.014180 0.000000 0.000000 0.000000
# 4 0.000000 0.000000 0.000000 0.161874 0.000000 0.000000
# 5 0.000000 0.000000 0.000000 0.000000 0.024480 0.000000
# 6 0.000000 0.000000 0.000000 0.000000 0.000000 0.184330
#
#
# Mechanical properties :
#
#
# Convention : Reuss Voigt Hill
#
# Bulk Modulus (GPa) = 22.15103 44.78862 33.46983
# Shear Modulus (GPa) = 10.44680 21.69399 16.07040
#
# Velocity S-wave (km/s) = 2.35132 3.38837 2.91631
# Velocity P-wave (km/s) = 4.36973 6.24591 5.39008
#
# Compressibility (1/GPa) = 0.04514462
#
# Stress axis : x y z
#
# Youngs Moduli (GPa) = 89.69103 22.89114 70.52411
#
# Poissons Ratio (x) = 0.03810 0.44075
# Poissons Ratio (y) = 0.14930 0.28354
# Poissons Ratio (z) = 0.56054 0.09203
#
# Static dielectric constant tensor:
#      x y z
#    x 4.091930 0.000000 0.000000 
#    y 0.000000 2.763240 0.000000 
#    z 0.000000 0.000000 3.801920 
# 
# 
# High freq. dielectric constant tensor:
#      x y z
#    x 1.755720 0.000000 0.000000 
#    y 0.000000 1.648800 0.000000 
#    z 0.000000 0.000000 1.744730 
# 
# From -- ./inp_files/8225.got.cif
#   From: 2010.03.12/outbox.cif.g09.slc.cpg/sg44_5_cif.got.tgz:8225.got - 2010.04.14 02:36:11.
