data_PCOD8187290
_publ_section_title
;
Structure prediction by ZEFSAII (Michael W. Deem and Ramdas Pophale) SiO2 
 PCOD8187290
Probable space group: F D D 2
;
_chemical_formula_sum "Si O2"
_cell_formula_units_Z 112
_cell_length_a 11.639845
_cell_length_b 28.214421
_cell_length_c 14.782529
_cell_angle_alpha 90.000000
_cell_angle_beta 90.000000
_cell_angle_gamma 90.000000
_cell_volume 4854.752334
_symmetry_space_group_name_H-M "F D D 2"
_symmetry_group_IT_number 43
_symmetry_cell_setting 'orthorhombic'
loop_
_space_group_symop_operation_xyz
x,y,z
-x,-y,z
1/4-x,1/4+y,1/4+z
1/4+x,1/4-y,1/4+z
x,1/2+y,1/2+z
-x,1/2-y,1/2+z
1/4-x,3/4+y,3/4+z
1/4+x,3/4-y,3/4+z
1/2+x,y,1/2+z
1/2-x,-y,1/2+z
3/4-x,1/4+y,3/4+z
3/4+x,1/4-y,3/4+z
1/2+x,1/2+y,z
1/2-x,1/2-y,z
3/4-x,3/4+y,1/4+z
3/4+x,3/4-y,1/4+z
loop_
_atom_site_type_symbol
_atom_site_label
_atom_site_fract_x
_atom_site_fract_y
_atom_site_fract_z
Si Si1 0.167152 0.149311 0.063330
Si Si2 0.009526 0.187863 0.911058
Si Si3 0.383846 0.365898 0.490436
Si Si4 0.872263 0.275070 0.243826
Si Si5 0.706055 0.944718 0.467250
Si Si6 0.637839 0.224625 0.905173
Si Si7 0.367364 0.628487 0.436348
O O1 0.171635 0.096130 0.104890
O O2 0.147358 0.188025 0.143493
O O3 0.064562 0.156060 0.990823
O O4 0.289665 0.155722 0.010826
O O5 0.109465 0.209578 0.847989
O O6 0.943693 0.234346 0.946955
O O7 0.292097 0.401033 0.445778
O O8 0.330829 0.312615 0.485826
O O9 0.501041 0.356148 0.436498
O O10 0.425232 0.389432 0.584844
O O11 0.750000 0.250000 0.233537
O O12 0.883268 0.322010 0.186025
O O13 0.973814 0.242898 0.203137
O O14 0.659609 0.945016 0.569214
O O15 0.750000 0.250000 0.868041
#
# Coordination Sequence:
#
# PCOD8187290 Si02
#       7
#    16  16  16  16  16  16  16
#     4  11  25  45  72 105 143 195 237 294 375 433
#     4  10  25  44  72  99 148 186 234 299 364 436
#     4  12  24  45  75 103 138 190 241 294 357 433
#     4  10  21  43  71 103 138 179 241 296 350 415
#     4  11  25  43  73 102 145 194 238 292 373 428
#     4  11  26  47  69 108 149 184 245 311 360 430
#     4  11  24  44  73 105 142 184 241 299 352 438
#
# _framework density 23.070177999999999
#
# number of rings (size 3 to 8) (size 9 to 14) (size 15 to 20)
#    0.000    1.143    2.857    2.571    6.000    1.714 
#    2.571    0.714    0.000    0.000    0.000    0.000 
#    0.000    0.000    0.000    0.000    0.000    0.000 
#
# Total GULP energy -346899.988599 kJ/mol
# GULP energy per Si atom -12389.285307 kJ/mol
# Density = 2.301767 g / cm^3
# Si number density = 23.070178 Si / 1000 Ang^3
#
#
#
# Elastic Constant Matrix: (Units=GPa)
#
#
# Indices 1 2 3 4 5 6 
#
# 1 98.7032 40.8037 41.7910 0.0000 0.0000 0.0000
# 2 40.8037 96.3454 33.7864 0.0000 0.0000 0.0000
# 3 41.7910 33.7864 93.3933 0.0000 0.0000 0.0000
# 4 0.0000 0.0000 0.0000 31.6014 0.0000 0.0000
# 5 0.0000 0.0000 0.0000 0.0000 27.0731 0.0000
# 6 0.0000 0.0000 0.0000 0.0000 0.0000 40.0312
#
#
#
# Elastic Compliance Matrix: (Units=1/GPa)
#
#
# Indices 1 2 3 4 5 6 
#
# 1 0.013858 -0.004231 -0.004670 0.000000 0.000000 0.000000
# 2 -0.004231 0.013179 -0.002874 0.000000 0.000000 0.000000
# 3 -0.004670 -0.002874 0.013837 0.000000 0.000000 0.000000
# 4 0.000000 0.000000 0.000000 0.031644 0.000000 0.000000
# 5 0.000000 0.000000 0.000000 0.000000 0.036937 0.000000
# 6 0.000000 0.000000 0.000000 0.000000 0.000000 0.024981
#
#
# Mechanical properties :
#
#
# Convention : Reuss Voigt Hill
#
# Bulk Modulus (GPa) = 57.72891 57.91157 57.82024
# Shear Modulus (GPa) = 30.53202 31.21186 30.87194
#
# Velocity S-wave (km/s) = 3.64186 3.68218 3.66208
# Velocity P-wave (km/s) = 6.53924 6.57532 6.55730
#
# Compressibility (1/GPa) = 0.01732234
#
# Stress axis : x y z
#
# Youngs Moduli (GPa) = 72.16037 75.87634 72.26931
#
# Poissons Ratio (x) = 0.32105 0.33752
# Poissons Ratio (y) = 0.30533 0.20773
# Poissons Ratio (z) = 0.33702 0.21810
#
# Static dielectric constant tensor:
#      x y z
#    x 4.247890 0.000000 0.000000 
#    y 0.000000 4.284700 0.000000 
#    z 0.000000 0.000000 4.007770 
# 
# 
# High freq. dielectric constant tensor:
#      x y z
#    x 1.909840 0.000000 0.000000 
#    y 0.000000 1.917120 0.000000 
#    z 0.000000 0.000000 1.903120 
# 
# From -- ./inp_files/9774.got.cif
#   From: 2010.06.25/outbox.cif.g09.slc.cpg/sg43_5_cif.got.tgz:9774.got - 2010.06.26 16:48:59.
