data_PCOD8187843
_publ_section_title
;
Structure prediction by ZEFSAII (Michael W. Deem and Ramdas Pophale) SiO2 
 PCOD8187843
Probable space group: F D D 2
;
_chemical_formula_sum "Si O2"
_cell_formula_units_Z 96
_cell_length_a 13.901928
_cell_length_b 13.901899
_cell_length_c 19.621749
_cell_angle_alpha 90.000000
_cell_angle_beta 90.000000
_cell_angle_gamma 90.000000
_cell_volume 3792.161981
_symmetry_space_group_name_H-M "F D D 2"
_symmetry_group_IT_number 43
_symmetry_cell_setting 'orthorhombic'
loop_
_space_group_symop_operation_xyz
x,y,z
-x,-y,z
1/4-x,1/4+y,1/4+z
1/4+x,1/4-y,1/4+z
x,1/2+y,1/2+z
-x,1/2-y,1/2+z
1/4-x,3/4+y,3/4+z
1/4+x,3/4-y,3/4+z
1/2+x,y,1/2+z
1/2-x,-y,1/2+z
3/4-x,1/4+y,3/4+z
3/4+x,1/4-y,3/4+z
1/2+x,1/2+y,z
1/2-x,1/2-y,z
3/4-x,3/4+y,1/4+z
3/4+x,3/4-y,1/4+z
loop_
_atom_site_type_symbol
_atom_site_label
_atom_site_fract_x
_atom_site_fract_y
_atom_site_fract_z
Si Si1 0.297430 0.059284 0.713500
Si Si2 0.500000 0.000000 0.719072
Si Si3 0.549435 0.206022 0.736440
Si Si4 0.750000 0.250000 0.599445
Si Si5 0.000000 0.500000 0.034259
Si Si6 0.750000 0.750000 0.284259
Si Si7 0.293978 0.049435 0.332077
Si Si8 0.309284 0.047430 0.105018
O O1 0.399952 0.027578 0.679402
O O2 0.297548 0.171267 0.734140
O O3 0.282971 0.999309 0.782819
O O4 0.213590 0.036409 0.659259
O O5 0.521368 0.097730 0.761846
O O6 0.664698 0.215947 0.734872
O O7 0.519346 0.230654 0.659259
O O8 0.500692 0.282970 0.785699
O O9 0.847730 0.271368 0.556672
O O10 0.722422 0.350048 0.639115
O O11 0.921267 0.547547 0.084377
O O12 0.715947 0.835302 0.333646
#
# Coordination Sequence:
#
# PCOD8187843 Si02
#       8
#    16   8  16   8   8   8  16  16
#     4  12  29  50  80 116 161 207 264 329 398 476
#     4  12  25  49  77 118 154 205 268 318 393 473
#     4  12  27  45  75 113 155 203 257 319 385 462
#     4  12  25  49  77 118 154 205 268 318 393 473
#     4  12  28  58  74 116 158 212 272 322 416 482
#     4  12  26  44  78 112 152 198 260 326 382 456
#     4  12  27  45  75 113 155 203 257 319 385 462
#     4  12  29  50  80 116 161 207 264 329 398 476
#
# _framework density 25.315375
#
# number of rings (size 3 to 8) (size 9 to 14) (size 15 to 20)
#    0.000    0.000    6.667    2.000    4.667    2.667 
#    0.000    0.000    0.000    0.000    0.000    0.000 
#    0.000    0.000    0.000    0.000    0.000    0.000 
#
# Total GULP energy -297446.062192 kJ/mol
# GULP energy per Si atom -12393.585925 kJ/mol
# Density = 2.525776 g / cm^3
# Si number density = 25.315375 Si / 1000 Ang^3
#
#
#
# Elastic Constant Matrix: (Units=GPa)
#
#
# Indices 1 2 3 4 5 6 
#
# 1 142.1462 39.8359 29.5550 0.0000 0.0000 0.0000
# 2 39.8359 142.1457 29.5549 0.0000 0.0000 0.0000
# 3 29.5550 29.5549 126.5424 0.0000 0.0000 0.0000
# 4 0.0000 0.0000 0.0000 27.9067 0.0000 0.0000
# 5 0.0000 0.0000 0.0000 0.0000 27.9070 0.0000
# 6 0.0000 0.0000 0.0000 0.0000 0.0000 55.0403
#
#
#
# Elastic Compliance Matrix: (Units=1/GPa)
#
#
# Indices 1 2 3 4 5 6 
#
# 1 0.007860 -0.001914 -0.001389 0.000000 0.000000 0.000000
# 2 -0.001914 0.007860 -0.001389 0.000000 0.000000 0.000000
# 3 -0.001389 -0.001389 0.008551 0.000000 0.000000 0.000000
# 4 0.000000 0.000000 0.000000 0.035834 0.000000 0.000000
# 5 0.000000 0.000000 0.000000 0.000000 0.035833 0.000000
# 6 0.000000 0.000000 0.000000 0.000000 0.000000 0.018169
#
#
# Mechanical properties :
#
#
# Convention : Reuss Voigt Hill
#
# Bulk Modulus (GPa) = 67.16630 67.63622 67.40126
# Shear Modulus (GPa) = 38.92475 42.96336 40.94405
#
# Velocity S-wave (km/s) = 3.92547 4.12409 4.02600
# Velocity P-wave (km/s) = 6.86551 7.03228 6.94939
#
# Compressibility (1/GPa) = 0.01488842
#
# Stress axis : x y z
#
# Youngs Moduli (GPa) = 127.22379 127.22333 116.94259
#
# Poissons Ratio (x) = 0.24351 0.16241
# Poissons Ratio (y) = 0.24351 0.16241
# Poissons Ratio (z) = 0.17668 0.17668
#
# Static dielectric constant tensor:
#      x y z
#    x 4.862730 0.000000 0.000000 
#    y 0.000000 4.862700 0.000000 
#    z 0.000000 0.000000 3.913400 
# 
# 
# High freq. dielectric constant tensor:
#      x y z
#    x 2.029640 0.000000 0.000000 
#    y 0.000000 2.029640 0.000000 
#    z 0.000000 0.000000 1.978360 
# 
# From -- ./inp_files/17604.got.cif
#   From: 2010.06.25/outbox.cif.g09.slc.cpg/sg43_9_cif.got.tgz:17604.got - 2010.06.26 16:48:59.
