data_PCOD8187193
_publ_section_title
;
Structure prediction by ZEFSAII (Michael W. Deem and Ramdas Pophale) SiO2 
 PCOD8187193
Probable space group: F D D 2
;
_chemical_formula_sum "Si O2"
_cell_formula_units_Z 104
_cell_length_a 9.455487
_cell_length_b 25.604217
_cell_length_c 22.820292
_cell_angle_alpha 90.000000
_cell_angle_beta 90.000000
_cell_angle_gamma 90.000000
_cell_volume 5524.800475
_symmetry_space_group_name_H-M "F D D 2"
_symmetry_group_IT_number 43
_symmetry_cell_setting 'orthorhombic'
loop_
_space_group_symop_operation_xyz
x,y,z
-x,-y,z
1/4-x,1/4+y,1/4+z
1/4+x,1/4-y,1/4+z
x,1/2+y,1/2+z
-x,1/2-y,1/2+z
1/4-x,3/4+y,3/4+z
1/4+x,3/4-y,3/4+z
1/2+x,y,1/2+z
1/2-x,-y,1/2+z
3/4-x,1/4+y,3/4+z
3/4+x,1/4-y,3/4+z
1/2+x,1/2+y,z
1/2-x,1/2-y,z
3/4-x,3/4+y,1/4+z
3/4+x,3/4-y,1/4+z
loop_
_atom_site_type_symbol
_atom_site_label
_atom_site_fract_x
_atom_site_fract_y
_atom_site_fract_z
Si Si1 0.970234 0.275013 0.484620
Si Si2 0.182666 0.330114 0.976885
Si Si3 0.250000 0.750000 0.189672
Si Si4 0.930234 0.448788 0.827241
Si Si5 0.909373 0.153665 0.350753
Si Si6 0.838932 0.497133 0.613343
Si Si7 0.874365 0.567597 0.037177
O O1 0.917312 0.216647 0.499942
O O2 0.838862 0.309584 0.463796
O O3 0.034380 0.305606 0.541047
O O4 0.080105 0.271015 0.430966
O O5 0.130846 0.357891 0.917558
O O6 0.179910 0.374063 0.026176
O O7 0.341711 0.711143 0.146903
O O8 0.359208 0.783177 0.228447
O O9 0.000000 0.500000 0.796990
O O10 0.031380 0.398441 0.819248
O O11 0.777877 0.179680 0.317253
O O12 0.034341 0.195051 0.351579
O O13 0.746712 0.456682 0.576697
O O14 0.000000 0.500000 0.592394
#
# Coordination Sequence:
#
# PCOD8187193 Si02
#       7
#    16  16   8  16  16  16  16
#     4  10  21  41  60  93 128 154 211 262 311 371
#     4  10  21  37  66  90 119 171 204 255 314 373
#     4  10  22  38  62  86 122 168 204 248 306 376
#     4  10  21  38  59  92 125 155 207 254 311 366
#     4  11  21  39  64  89 121 170 210 250 311 377
#     4  11  24  38  63  94 123 163 210 266 307 360
#     4  12  21  41  64  89 122 167 213 253 309 382
#
# _framework density 18.824209
#
# number of rings (size 3 to 8) (size 9 to 14) (size 15 to 20)
#    0.462    0.923    4.615    1.385    2.154    1.231 
#    0.000    0.000    6.769    0.000    0.000    0.000 
#    0.000    0.000    0.000    0.000    0.000    0.000 
#
# Total GULP energy -322285.314682 kJ/mol
# GULP energy per Si atom -12395.589026 kJ/mol
# Density = 1.878136 g / cm^3
# Si number density = 18.824209 Si / 1000 Ang^3
#
#
#
# Elastic Constant Matrix: (Units=GPa)
#
#
# Indices 1 2 3 4 5 6 
#
# 1 121.8679 57.2182 52.0070 0.0000 0.0000 0.0000
# 2 57.2182 97.2579 47.8995 0.0000 0.0000 0.0000
# 3 52.0070 47.8995 89.4612 0.0000 0.0000 0.0000
# 4 0.0000 0.0000 0.0000 30.5798 0.0000 0.0000
# 5 0.0000 0.0000 0.0000 0.0000 32.9319 0.0000
# 6 0.0000 0.0000 0.0000 0.0000 0.0000 28.7185
#
#
#
# Elastic Compliance Matrix: (Units=1/GPa)
#
#
# Indices 1 2 3 4 5 6 
#
# 1 0.012565 -0.005154 -0.004545 0.000000 0.000000 0.000000
# 2 -0.005154 0.016078 -0.005613 0.000000 0.000000 0.000000
# 3 -0.004545 -0.005613 0.016825 0.000000 0.000000 0.000000
# 4 0.000000 0.000000 0.000000 0.032701 0.000000 0.000000
# 5 0.000000 0.000000 0.000000 0.000000 0.030366 0.000000
# 6 0.000000 0.000000 0.000000 0.000000 0.000000 0.034821
#
#
# Mechanical properties :
#
#
# Convention : Reuss Voigt Hill
#
# Bulk Modulus (GPa) = 67.35922 69.20405 68.28163
# Shear Modulus (GPa) = 27.94431 28.54352 28.24392
#
# Velocity S-wave (km/s) = 3.85709 3.89822 3.87771
# Velocity P-wave (km/s) = 7.46305 7.55676 7.51005
#
# Compressibility (1/GPa) = 0.01484578
#
# Stress axis : x y z
#
# Youngs Moduli (GPa) = 79.58676 62.19631 59.43419
#
# Poissons Ratio (x) = 0.32054 0.27013
# Poissons Ratio (y) = 0.41016 0.33358
# Poissons Ratio (z) = 0.36172 0.34908
#
# Static dielectric constant tensor:
#      x y z
#    x 3.248740 0.000000 0.000000 
#    y 0.000000 3.477980 0.000000 
#    z 0.000000 0.000000 3.390750 
# 
# 
# High freq. dielectric constant tensor:
#      x y z
#    x 1.717050 0.000000 0.000000 
#    y 0.000000 1.740270 0.000000 
#    z 0.000000 0.000000 1.727880 
# 
# From -- ./inp_files/20399.got.cif
#   From: 2010.06.25/outbox.cif.g09.slc.cpg/sg43_11_cif.got.tgz:20399.got - 2010.06.26 16:48:59.
