data_PCOD8187652
_publ_section_title
;
Structure prediction by ZEFSAII (Michael W. Deem and Ramdas Pophale) SiO2 
 PCOD8187652
Probable space group: F D D 2
;
_chemical_formula_sum "Si O2"
_cell_formula_units_Z 80
_cell_length_a 10.892926
_cell_length_b 14.836138
_cell_length_c 23.894511
_cell_angle_alpha 90.000000
_cell_angle_beta 90.000000
_cell_angle_gamma 90.000000
_cell_volume 3861.566914
_symmetry_space_group_name_H-M "F D D 2"
_symmetry_group_IT_number 43
_symmetry_cell_setting 'orthorhombic'
loop_
_space_group_symop_operation_xyz
x,y,z
-x,-y,z
1/4-x,1/4+y,1/4+z
1/4+x,1/4-y,1/4+z
x,1/2+y,1/2+z
-x,1/2-y,1/2+z
1/4-x,3/4+y,3/4+z
1/4+x,3/4-y,3/4+z
1/2+x,y,1/2+z
1/2-x,-y,1/2+z
3/4-x,1/4+y,3/4+z
3/4+x,1/4-y,3/4+z
1/2+x,1/2+y,z
1/2-x,1/2-y,z
3/4-x,3/4+y,1/4+z
3/4+x,3/4-y,1/4+z
loop_
_atom_site_type_symbol
_atom_site_label
_atom_site_fract_x
_atom_site_fract_y
_atom_site_fract_z
Si Si1 0.049363 0.402576 0.116460
Si Si2 0.359603 0.506917 0.185130
Si Si3 0.963715 0.723241 0.314049
Si Si4 0.838097 0.664040 0.764695
Si Si5 0.815425 0.158862 0.715117
O O1 0.181517 0.406493 0.086051
O O2 0.066439 0.347586 0.173748
O O3 0.000000 0.500000 0.134984
O O4 0.953019 0.360602 0.071925
O O5 0.500000 0.500000 0.204672
O O6 0.352190 0.516379 0.118185
O O7 0.315535 0.601133 0.211633
O O8 0.276814 0.425557 0.209238
O O9 0.864371 0.666152 0.278699
O O10 0.021662 0.801950 0.274319
O O11 0.750000 0.750000 0.758004
O O12 0.750000 0.250000 0.697002
#
# Coordination Sequence:
#
# PCOD8187652 Si02
#       5
#    16  16  16  16  16
#     4   8  19  37  60  88 115 145 192 243 291 349
#     4  11  23  39  59  85 118 155 194 240 294 345
#     4   9  20  39  59  85 119 150 192 244 289 348
#     4   9  20  40  62  87 115 149 193 241 291 351
#     4  11  22  37  58  85 119 157 194 238 289 347
#
# _framework density 20.716978999999998
#
# number of rings (size 3 to 8) (size 9 to 14) (size 15 to 20)
#    0.000    2.800    0.000    1.800    0.000   12.800 
#    0.000   10.000    0.000    0.000    0.000    0.000 
#    0.000    0.000    0.000    0.000    0.000    0.000 
#
# Total GULP energy -247819.456418 kJ/mol
# GULP energy per Si atom -12390.972821 kJ/mol
# Density = 2.066983 g / cm^3
# Si number density = 20.716979 Si / 1000 Ang^3
#
#
#
# Elastic Constant Matrix: (Units=GPa)
#
#
# Indices 1 2 3 4 5 6 
#
# 1 89.6528 39.7426 46.7472 0.0000 0.0000 0.0000
# 2 39.7426 95.6526 64.7947 0.0000 0.0000 0.0000
# 3 46.7472 64.7947 156.2094 0.0000 0.0000 0.0000
# 4 0.0000 0.0000 0.0000 34.5092 0.0000 0.0000
# 5 0.0000 0.0000 0.0000 0.0000 17.4564 0.0000
# 6 0.0000 0.0000 0.0000 0.0000 0.0000 22.7625
#
#
#
# Elastic Compliance Matrix: (Units=1/GPa)
#
#
# Indices 1 2 3 4 5 6 
#
# 1 0.014359 -0.004249 -0.002535 0.000000 0.000000 0.000000
# 2 -0.004249 0.015797 -0.005281 0.000000 0.000000 0.000000
# 3 -0.002535 -0.005281 0.009351 0.000000 0.000000 0.000000
# 4 0.000000 0.000000 0.000000 0.028978 0.000000 0.000000
# 5 0.000000 0.000000 0.000000 0.000000 0.057285 0.000000
# 6 0.000000 0.000000 0.000000 0.000000 0.000000 0.043932
#
#
# Mechanical properties :
#
#
# Convention : Reuss Voigt Hill
#
# Bulk Modulus (GPa) = 65.02923 71.56489 68.29706
# Shear Modulus (GPa) = 25.13088 27.62765 26.37926
#
# Velocity S-wave (km/s) = 3.48668 3.65578 3.57223
# Velocity P-wave (km/s) = 6.90411 7.24145 7.07479
#
# Compressibility (1/GPa) = 0.01537770
#
# Stress axis : x y z
#
# Youngs Moduli (GPa) = 69.64065 63.30175 106.94368
#
# Poissons Ratio (x) = 0.26898 0.27106
# Poissons Ratio (y) = 0.29592 0.56477
# Poissons Ratio (z) = 0.17651 0.33430
#
# Static dielectric constant tensor:
#      x y z
#    x 3.972100 0.000000 0.000000 
#    y 0.000000 3.438010 0.000000 
#    z 0.000000 0.000000 3.925290 
# 
# 
# High freq. dielectric constant tensor:
#      x y z
#    x 1.819210 0.000000 0.000000 
#    y 0.000000 1.774330 0.000000 
#    z 0.000000 0.000000 1.818260 
# 
# From -- ./inp_files/20916.got.cif
#   From: 2010.06.25/outbox.cif.g09.slc.cpg/sg43_11_cif.got.tgz:20916.got - 2010.06.26 16:48:59.
