data_PCOD8187201
_publ_section_title
;
Structure prediction by ZEFSAII (Michael W. Deem and Ramdas Pophale) SiO2 
 PCOD8187201
Probable space group: F D D 2
;
_chemical_formula_sum "Si O2"
_cell_formula_units_Z 80
_cell_length_a 26.322196
_cell_length_b 14.753098
_cell_length_c 9.750934
_cell_angle_alpha 90.000000
_cell_angle_beta 90.000000
_cell_angle_gamma 90.000000
_cell_volume 3786.618591
_symmetry_space_group_name_H-M "F D D 2"
_symmetry_group_IT_number 43
_symmetry_cell_setting 'orthorhombic'
loop_
_space_group_symop_operation_xyz
x,y,z
-x,-y,z
1/4-x,1/4+y,1/4+z
1/4+x,1/4-y,1/4+z
x,1/2+y,1/2+z
-x,1/2-y,1/2+z
1/4-x,3/4+y,3/4+z
1/4+x,3/4-y,3/4+z
1/2+x,y,1/2+z
1/2-x,-y,1/2+z
3/4-x,1/4+y,3/4+z
3/4+x,1/4-y,3/4+z
1/2+x,1/2+y,z
1/2-x,1/2-y,z
3/4-x,3/4+y,1/4+z
3/4+x,3/4-y,1/4+z
loop_
_atom_site_type_symbol
_atom_site_label
_atom_site_fract_x
_atom_site_fract_y
_atom_site_fract_z
Si Si1 0.021264 0.094243 0.019470
Si Si2 0.557599 0.509292 0.582162
Si Si3 0.823435 0.416843 0.885184
Si Si4 0.424281 0.473177 0.275265
Si Si5 0.346018 0.594435 0.541117
O O1 0.040377 0.081869 0.173955
O O2 0.975725 0.165825 0.036054
O O3 0.066903 0.129587 0.928398
O O4 0.000000 0.000000 0.957092
O O5 0.500000 0.500000 0.642075
O O6 0.551606 0.541240 0.425584
O O7 0.593716 0.418870 0.577571
O O8 0.588893 0.580405 0.673963
O O9 0.868927 0.427999 0.776803
O O10 0.829450 0.327163 0.977268
O O11 0.821930 0.501261 0.987629
#
# Coordination Sequence:
#
# PCOD8187201 Si02
#       5
#    16  16  16  16  16
#     4  10  23  41  61  89 123 159 202 254 306 357
#     4  11  23  41  63  89 125 162 200 253 303 358
#     4  10  21  38  61  88 120 158 203 247 300 364
#     4  10  21  39  62  85 119 164 204 244 302 368
#     4  11  24  39  62  93 120 157 206 250 304 363
#
# _framework density 21.127026999999998
#
# number of rings (size 3 to 8) (size 9 to 14) (size 15 to 20)
#    0.000    1.600    0.000    7.200    0.000   11.200 
#    0.000    0.000    0.000    0.000    0.000    0.000 
#    0.000    0.000    0.000    0.000    0.000    0.000 
#
# Total GULP energy -247878.263739 kJ/mol
# GULP energy per Si atom -12393.913187 kJ/mol
# Density = 2.107894 g / cm^3
# Si number density = 21.127027 Si / 1000 Ang^3
#
#
#
# Elastic Constant Matrix: (Units=GPa)
#
#
# Indices 1 2 3 4 5 6 
#
# 1 172.4416 52.3733 46.3864 0.0000 0.0000 0.0000
# 2 52.3733 73.3246 27.2575 0.0000 0.0000 0.0000
# 3 46.3864 27.2575 61.3739 0.0000 0.0000 0.0000
# 4 0.0000 0.0000 0.0000 21.3520 0.0000 0.0000
# 5 0.0000 0.0000 0.0000 0.0000 36.9953 0.0000
# 6 0.0000 0.0000 0.0000 0.0000 0.0000 40.9289
#
#
#
# Elastic Compliance Matrix: (Units=1/GPa)
#
#
# Indices 1 2 3 4 5 6 
#
# 1 0.008272 -0.004293 -0.004345 0.000000 0.000000 0.000000
# 2 -0.004293 0.018563 -0.005000 0.000000 0.000000 0.000000
# 3 -0.004345 -0.005000 0.021798 0.000000 0.000000 0.000000
# 4 0.000000 0.000000 0.000000 0.046834 0.000000 0.000000
# 5 0.000000 0.000000 0.000000 0.000000 0.027030 0.000000
# 6 0.000000 0.000000 0.000000 0.000000 0.000000 0.024433
#
#
# Mechanical properties :
#
#
# Convention : Reuss Voigt Hill
#
# Bulk Modulus (GPa) = 46.82250 62.13051 54.47650
# Shear Modulus (GPa) = 27.57493 31.93011 29.75252
#
# Velocity S-wave (km/s) = 3.61667 3.89181 3.75676
# Velocity P-wave (km/s) = 6.29689 7.04747 6.68273
#
# Compressibility (1/GPa) = 0.02135725
#
# Stress axis : x y z
#
# Youngs Moduli (GPa) = 120.89342 53.87113 45.87566
#
# Poissons Ratio (x) = 0.23127 0.19934
# Poissons Ratio (y) = 0.51899 0.22936
# Poissons Ratio (z) = 0.52530 0.26933
#
# Static dielectric constant tensor:
#      x y z
#    x 4.190170 0.000000 0.000000 
#    y 0.000000 3.821280 0.000000 
#    z 0.000000 0.000000 3.768910 
# 
# 
# High freq. dielectric constant tensor:
#      x y z
#    x 1.846740 0.000000 0.000000 
#    y 0.000000 1.811490 0.000000 
#    z 0.000000 0.000000 1.831270 
# 
# From -- ./inp_files/7890.got.cif
#   From: 2010.06.25/outbox.cif.g09.slc.cpg/sg43_4_cif.got.tgz:7890.got - 2010.06.26 16:48:59.
