data_PCOD8187503
_publ_section_title
;
Structure prediction by ZEFSAII (Michael W. Deem and Ramdas Pophale) SiO2 
 PCOD8187503
Probable space group: F D D 2
;
_chemical_formula_sum "Si O2"
_cell_formula_units_Z 112
_cell_length_a 10.729631
_cell_length_b 34.043630
_cell_length_c 13.152084
_cell_angle_alpha 90.000000
_cell_angle_beta 90.000000
_cell_angle_gamma 90.000000
_cell_volume 4804.135214
_symmetry_space_group_name_H-M "F D D 2"
_symmetry_group_IT_number 43
_symmetry_cell_setting 'orthorhombic'
loop_
_space_group_symop_operation_xyz
x,y,z
-x,-y,z
1/4-x,1/4+y,1/4+z
1/4+x,1/4-y,1/4+z
x,1/2+y,1/2+z
-x,1/2-y,1/2+z
1/4-x,3/4+y,3/4+z
1/4+x,3/4-y,3/4+z
1/2+x,y,1/2+z
1/2-x,-y,1/2+z
3/4-x,1/4+y,3/4+z
3/4+x,1/4-y,3/4+z
1/2+x,1/2+y,z
1/2-x,1/2-y,z
3/4-x,3/4+y,1/4+z
3/4+x,3/4-y,1/4+z
loop_
_atom_site_type_symbol
_atom_site_label
_atom_site_fract_x
_atom_site_fract_y
_atom_site_fract_z
Si Si1 0.614638 0.975084 0.228370
Si Si2 0.942543 0.672443 0.735362
Si Si3 0.947052 0.905084 0.281156
Si Si4 0.319087 0.000000 0.439709
Si Si5 0.192544 0.922443 0.394057
Si Si6 0.635362 0.774916 0.401049
Si Si7 0.697052 0.655084 0.848262
O O1 0.602393 0.978435 0.351114
O O2 0.750000 0.990296 0.189709
O O3 0.596741 0.929696 0.196406
O O4 0.500000 0.000000 0.179606
O O5 0.895910 0.664548 0.621926
O O6 0.837162 0.667436 0.820097
O O7 0.054261 0.641514 0.757460
O O8 0.986862 0.717052 0.745476
O O9 0.903259 0.929696 0.183012
O O10 0.087162 0.917436 0.309321
O O11 0.236863 0.967052 0.383942
O O12 0.397607 0.978435 0.528305
O O13 0.304261 0.891514 0.371958
O O14 0.145910 0.914549 0.507492
O O15 0.750000 0.750000 0.449813
#
# Coordination Sequence:
#
# PCOD8187503 Si02
#       7
#    16  16  16  16  16  16  16
#     4  12  26  47  71 107 146 196 243 305 369 437
#     4  10  23  44  72 105 143 194 248 300 361 445
#     4  10  23  44  70 103 143 197 246 299 362 441
#     4  12  25  45  70 108 145 192 243 310 375 434
#     4  10  23  44  72 105 143 194 248 300 361 445
#     4  12  26  47  71 107 146 196 243 305 369 437
#     4  10  23  44  70 103 143 197 246 299 362 441
#
# _framework density 23.313248999999999
#
# number of rings (size 3 to 8) (size 9 to 14) (size 15 to 20)
#    0.000    1.143    2.857    2.143    4.000    2.286 
#    0.000    0.000    0.000    0.000    0.000    0.000 
#    0.000    0.000    0.000    0.000    0.000    0.000 
#
# Total GULP energy -347187.573906 kJ/mol
# GULP energy per Si atom -12399.556211 kJ/mol
# Density = 2.326019 g / cm^3
# Si number density = 23.313249 Si / 1000 Ang^3
#
#
#
# Elastic Constant Matrix: (Units=GPa)
#
#
# Indices 1 2 3 4 5 6 
#
# 1 89.1782 37.4112 21.9330 0.0000 0.0000 0.0000
# 2 37.4112 154.8622 41.2354 0.0000 0.0000 0.0000
# 3 21.9330 41.2354 126.6028 0.0000 0.0000 0.0000
# 4 0.0000 0.0000 0.0000 44.8656 0.0000 0.0000
# 5 0.0000 0.0000 0.0000 0.0000 22.1070 0.0000
# 6 0.0000 0.0000 0.0000 0.0000 0.0000 28.4242
#
#
#
# Elastic Compliance Matrix: (Units=1/GPa)
#
#
# Indices 1 2 3 4 5 6 
#
# 1 0.012674 -0.002712 -0.001312 0.000000 0.000000 0.000000
# 2 -0.002712 0.007651 -0.002022 0.000000 0.000000 0.000000
# 3 -0.001312 -0.002022 0.008785 0.000000 0.000000 0.000000
# 4 0.000000 0.000000 0.000000 0.022289 0.000000 0.000000
# 5 0.000000 0.000000 0.000000 0.000000 0.045235 0.000000
# 6 0.000000 0.000000 0.000000 0.000000 0.000000 0.035181
#
#
# Mechanical properties :
#
#
# Convention : Reuss Voigt Hill
#
# Bulk Modulus (GPa) = 58.76694 63.53360 61.15027
# Shear Modulus (GPa) = 33.42693 37.08360 35.25526
#
# Velocity S-wave (km/s) = 3.79069 3.99264 3.89297
# Velocity P-wave (km/s) = 6.66493 6.96895 6.81863
#
# Compressibility (1/GPa) = 0.01701637
#
# Stress axis : x y z
#
# Youngs Moduli (GPa) = 78.90095 130.70142 113.83468
#
# Poissons Ratio (x) = 0.35451 0.14938
# Poissons Ratio (y) = 0.21401 0.23018
# Poissons Ratio (z) = 0.10354 0.26429
#
# Static dielectric constant tensor:
#      x y z
#    x 4.181390 0.000000 0.000000 
#    y 0.000000 4.302810 0.000000 
#    z 0.000000 0.000000 4.070380 
# 
# 
# High freq. dielectric constant tensor:
#      x y z
#    x 1.913780 0.000000 0.000000 
#    y 0.000000 1.922650 0.000000 
#    z 0.000000 0.000000 1.922320 
# 
# From -- ./inp_files/9772.got.cif
#   From: 2010.06.25/outbox.cif.g09.slc.cpg/sg43_5_cif.got.tgz:9772.got - 2010.06.26 16:48:59.
