data_PCOD8187061
_publ_section_title
;
Structure prediction by ZEFSAII (Michael W. Deem and Ramdas Pophale) SiO2 
 PCOD8187061
Probable space group: F D D 2
;
_chemical_formula_sum "Si O2"
_cell_formula_units_Z 104
_cell_length_a 15.364843
_cell_length_b 22.493156
_cell_length_c 13.949854
_cell_angle_alpha 90.000000
_cell_angle_beta 90.000000
_cell_angle_gamma 90.000000
_cell_volume 4821.122699
_symmetry_space_group_name_H-M "F D D 2"
_symmetry_group_IT_number 43
_symmetry_cell_setting 'orthorhombic'
loop_
_space_group_symop_operation_xyz
x,y,z
-x,-y,z
1/4-x,1/4+y,1/4+z
1/4+x,1/4-y,1/4+z
x,1/2+y,1/2+z
-x,1/2-y,1/2+z
1/4-x,3/4+y,3/4+z
1/4+x,3/4-y,3/4+z
1/2+x,y,1/2+z
1/2-x,-y,1/2+z
3/4-x,1/4+y,3/4+z
3/4+x,1/4-y,3/4+z
1/2+x,1/2+y,z
1/2-x,1/2-y,z
3/4-x,3/4+y,1/4+z
3/4+x,3/4-y,1/4+z
loop_
_atom_site_type_symbol
_atom_site_label
_atom_site_fract_x
_atom_site_fract_y
_atom_site_fract_z
Si Si1 0.783983 0.373159 0.445780
Si Si2 0.817051 0.039395 0.739077
Si Si3 0.500000 0.500000 0.087692
Si Si4 0.413048 0.150444 0.989863
Si Si5 0.954568 0.624479 0.594704
Si Si6 0.486418 0.859989 0.800868
Si Si7 0.438042 0.227466 0.328731
O O1 0.837118 0.316031 0.481238
O O2 0.789280 0.371282 0.330707
O O3 0.687237 0.366759 0.484989
O O4 0.826162 0.433768 0.488082
O O5 0.768589 0.070585 0.827546
O O6 0.756938 0.054488 0.647590
O O7 0.824307 0.970083 0.753883
O O8 0.482484 0.563922 0.035261
O O9 0.595727 0.511405 0.136454
O O10 0.456992 0.125033 0.894305
O O11 0.856823 0.641601 0.565846
O O12 0.964702 0.611339 0.709077
O O13 0.476647 0.789126 0.789570
#
# Coordination Sequence:
#
# PCOD8187061 Si02
#       7
#    16  16   8  16  16  16  16
#     4  12  22  43  65  96 133 179 219 277 337 399
#     4  11  23  41  66 101 133 169 223 279 340 400
#     4  10  20  36  62  90 128 162 208 266 332 376
#     4  11  25  42  67  92 137 179 225 272 338 409
#     4  11  21  39  64  92 127 164 216 277 323 392
#     4  10  23  40  63  90 128 173 219 269 326 389
#     4  10  21  40  61  96 129 167 213 273 324 401
#
# _framework density 21.571739000000001
#
# number of rings (size 3 to 8) (size 9 to 14) (size 15 to 20)
#    0.000    1.231    3.077    3.231    0.000    0.000 
#    2.769    1.538    3.385    0.000    0.000    0.000 
#    0.000    0.000    0.000    0.000    0.000    0.000 
#
# Total GULP energy -322117.627888 kJ/mol
# GULP energy per Si atom -12389.139534 kJ/mol
# Density = 2.152264 g / cm^3
# Si number density = 21.571739 Si / 1000 Ang^3
#
#
#
# Elastic Constant Matrix: (Units=GPa)
#
#
# Indices 1 2 3 4 5 6 
#
# 1 109.8856 26.3285 20.2041 0.0000 0.0000 0.0000
# 2 26.3285 59.5326 13.8626 0.0000 0.0000 0.0000
# 3 20.2041 13.8626 91.8356 0.0000 0.0000 0.0000
# 4 0.0000 0.0000 0.0000 19.5593 0.0000 0.0000
# 5 0.0000 0.0000 0.0000 0.0000 32.3291 0.0000
# 6 0.0000 0.0000 0.0000 0.0000 0.0000 30.3909
#
#
#
# Elastic Compliance Matrix: (Units=1/GPa)
#
#
# Indices 1 2 3 4 5 6 
#
# 1 0.010416 -0.004221 -0.001654 0.000000 0.000000 0.000000
# 2 -0.004221 0.019120 -0.001957 0.000000 0.000000 0.000000
# 3 -0.001654 -0.001957 0.011548 0.000000 0.000000 0.000000
# 4 0.000000 0.000000 0.000000 0.051127 0.000000 0.000000
# 5 0.000000 0.000000 0.000000 0.000000 0.030932 0.000000
# 6 0.000000 0.000000 0.000000 0.000000 0.000000 0.032905
#
#
# Mechanical properties :
#
#
# Convention : Reuss Voigt Hill
#
# Bulk Modulus (GPa) = 39.34157 42.44935 40.89546
# Shear Modulus (GPa) = 27.74902 29.84646 28.79774
#
# Velocity S-wave (km/s) = 3.59048 3.72370 3.65769
# Velocity P-wave (km/s) = 5.95532 6.18133 6.06938
#
# Compressibility (1/GPa) = 0.02541841
#
# Stress axis : x y z
#
# Youngs Moduli (GPa) = 96.00644 52.30070 86.59158
#
# Poissons Ratio (x) = 0.22078 0.14325
# Poissons Ratio (y) = 0.40527 0.16950
# Poissons Ratio (z) = 0.15883 0.10238
#
# Static dielectric constant tensor:
#      x y z
#    x 4.047340 0.000000 0.000000 
#    y 0.000000 3.816690 0.000000 
#    z 0.000000 0.000000 3.730490 
# 
# 
# High freq. dielectric constant tensor:
#      x y z
#    x 1.865030 0.000000 0.000000 
#    y 0.000000 1.847790 0.000000 
#    z 0.000000 0.000000 1.822500 
# 
# From -- ./inp_files/10208.got.cif
#   From: 2010.06.25/outbox.cif.g09.slc.cpg/sg43_6_cif.got.tgz:10208.got - 2010.06.26 16:48:59.
