data_PCOD8187234
_publ_section_title
;
Structure prediction by ZEFSAII (Michael W. Deem and Ramdas Pophale) SiO2 
 PCOD8187234
Probable space group: F D D 2
;
_chemical_formula_sum "Si O2"
_cell_formula_units_Z 112
_cell_length_a 10.939500
_cell_length_b 16.358029
_cell_length_c 28.620743
_cell_angle_alpha 90.000000
_cell_angle_beta 90.000000
_cell_angle_gamma 90.000000
_cell_volume 5121.643558
_symmetry_space_group_name_H-M "F D D 2"
_symmetry_group_IT_number 43
_symmetry_cell_setting 'orthorhombic'
loop_
_space_group_symop_operation_xyz
x,y,z
-x,-y,z
1/4-x,1/4+y,1/4+z
1/4+x,1/4-y,1/4+z
x,1/2+y,1/2+z
-x,1/2-y,1/2+z
1/4-x,3/4+y,3/4+z
1/4+x,3/4-y,3/4+z
1/2+x,y,1/2+z
1/2-x,-y,1/2+z
3/4-x,1/4+y,3/4+z
3/4+x,1/4-y,3/4+z
1/2+x,1/2+y,z
1/2-x,1/2-y,z
3/4-x,3/4+y,1/4+z
3/4+x,3/4-y,1/4+z
loop_
_atom_site_type_symbol
_atom_site_label
_atom_site_fract_x
_atom_site_fract_y
_atom_site_fract_z
Si Si1 0.902502 0.567245 0.844030
Si Si2 0.830214 0.135885 0.250875
Si Si3 0.818624 0.075516 0.148790
Si Si4 0.622511 0.043636 0.453495
Si Si5 0.772485 0.056307 0.878006
Si Si6 0.578295 0.685643 0.772414
Si Si7 0.252986 0.099042 0.124529
O O1 0.910401 0.589770 0.789858
O O2 0.769371 0.527939 0.853034
O O3 0.000000 0.500000 0.858248
O O4 0.936565 0.642542 0.879074
O O5 0.854788 0.098026 0.201021
O O6 0.684815 0.122327 0.259024
O O7 0.872065 0.228513 0.254397
O O8 0.926620 0.119782 0.119412
O O9 0.820818 0.977825 0.145938
O O10 0.699152 0.083858 0.496370
O O11 0.591815 0.112561 0.414110
O O12 0.500000 0.000000 0.473366
O O13 0.706098 0.970910 0.431901
O O14 0.904075 0.083370 0.858026
O O15 0.571528 0.682557 0.828521
#
# Coordination Sequence:
#
# PCOD8187234 Si02
#       7
#    16  16  16  16  16  16  16
#     4  10  22  40  64  96 130 174 221 273 334 404
#     4  11  23  41  68  96 131 173 228 278 325 406
#     4  11  22  40  66  97 128 173 232 275 322 392
#     4  10  22  42  65  94 134 182 216 272 343 404
#     4  10  21  40  64  88 131 177 212 268 342 398
#     4  11  23  43  66  97 134 180 221 273 344 404
#     4  11  24  41  65 102 134 171 225 285 333 393
#
# _framework density 21.867978999999998
#
# number of rings (size 3 to 8) (size 9 to 14) (size 15 to 20)
#    0.000    1.429    2.857    2.143    4.000    3.429 
#    0.000    1.429    0.000    0.000    0.000    0.000 
#    0.000    0.000    0.000    0.000    0.000    0.000 
#
# Total GULP energy -346963.146522 kJ/mol
# GULP energy per Si atom -12391.540947 kJ/mol
# Density = 2.181821 g / cm^3
# Si number density = 21.867979 Si / 1000 Ang^3
#
#
#
# Elastic Constant Matrix: (Units=GPa)
#
#
# Indices 1 2 3 4 5 6 
#
# 1 72.9937 22.8268 21.2787 0.0000 0.0000 0.0000
# 2 22.8268 62.3576 12.8489 0.0000 0.0000 0.0000
# 3 21.2787 12.8489 104.4439 0.0000 0.0000 0.0000
# 4 0.0000 0.0000 0.0000 29.7028 0.0000 0.0000
# 5 0.0000 0.0000 0.0000 0.0000 23.4353 0.0000
# 6 0.0000 0.0000 0.0000 0.0000 0.0000 21.0642
#
#
#
# Elastic Compliance Matrix: (Units=1/GPa)
#
#
# Indices 1 2 3 4 5 6 
#
# 1 0.016145 -0.005368 -0.002629 0.000000 0.000000 0.000000
# 2 -0.005368 0.018239 -0.001150 0.000000 0.000000 0.000000
# 3 -0.002629 -0.001150 0.010252 0.000000 0.000000 0.000000
# 4 0.000000 0.000000 0.000000 0.033667 0.000000 0.000000
# 5 0.000000 0.000000 0.000000 0.000000 0.042671 0.000000
# 6 0.000000 0.000000 0.000000 0.000000 0.000000 0.047474
#
#
# Mechanical properties :
#
#
# Convention : Reuss Voigt Hill
#
# Bulk Modulus (GPa) = 37.96408 39.30044 38.63226
# Shear Modulus (GPa) = 25.57265 27.02985 26.30125
#
# Velocity S-wave (km/s) = 3.42337 3.51956 3.47180
# Velocity P-wave (km/s) = 5.74667 5.87598 5.81169
#
# Compressibility (1/GPa) = 0.02634069
#
# Stress axis : x y z
#
# Youngs Moduli (GPa) = 61.93876 54.82852 97.54597
#
# Poissons Ratio (x) = 0.29434 0.25643
# Poissons Ratio (y) = 0.33251 0.11218
# Poissons Ratio (z) = 0.16283 0.06306
#
# Static dielectric constant tensor:
#      x y z
#    x 4.165040 0.000000 0.000000 
#    y 0.000000 3.974370 0.000000 
#    z 0.000000 0.000000 3.681860 
# 
# 
# High freq. dielectric constant tensor:
#      x y z
#    x 1.866980 0.000000 0.000000 
#    y 0.000000 1.850280 0.000000 
#    z 0.000000 0.000000 1.844890 
# 
# From -- ./inp_files/28610.got.cif
#   From: 2010.06.25/outbox.cif.g09.slc.cpg/sg43_15_cif.got.tgz:28610.got - 2010.06.26 16:48:59.
