data_PCOD8187374
_publ_section_title
;
Structure prediction by ZEFSAII (Michael W. Deem and Ramdas Pophale) SiO2 
 PCOD8187374
Probable space group: F D D 2
;
_chemical_formula_sum "Si O2"
_cell_formula_units_Z 80
_cell_length_a 20.879084
_cell_length_b 19.046046
_cell_length_c 9.993461
_cell_angle_alpha 90.000000
_cell_angle_beta 90.000000
_cell_angle_gamma 90.000000
_cell_volume 3974.039618
_symmetry_space_group_name_H-M "F D D 2"
_symmetry_group_IT_number 43
_symmetry_cell_setting 'orthorhombic'
loop_
_space_group_symop_operation_xyz
x,y,z
-x,-y,z
1/4-x,1/4+y,1/4+z
1/4+x,1/4-y,1/4+z
x,1/2+y,1/2+z
-x,1/2-y,1/2+z
1/4-x,3/4+y,3/4+z
1/4+x,3/4-y,3/4+z
1/2+x,y,1/2+z
1/2-x,-y,1/2+z
3/4-x,1/4+y,3/4+z
3/4+x,1/4-y,3/4+z
1/2+x,1/2+y,z
1/2-x,1/2-y,z
3/4-x,3/4+y,1/4+z
3/4+x,3/4-y,1/4+z
loop_
_atom_site_type_symbol
_atom_site_label
_atom_site_fract_x
_atom_site_fract_y
_atom_site_fract_z
Si Si1 0.410589 0.823282 0.221960
Si Si2 0.695009 0.497459 0.204272
Si Si3 0.582249 0.790224 0.939146
Si Si4 0.752032 0.858140 0.158101
Si Si5 0.854968 0.243039 0.705866
O O1 0.387517 0.769876 0.340733
O O2 0.360339 0.882141 0.175173
O O3 0.477003 0.862842 0.263655
O O4 0.417605 0.776301 0.093381
O O5 0.756658 0.452694 0.157957
O O6 0.717860 0.576587 0.235918
O O7 0.639519 0.488854 0.093973
O O8 0.591610 0.767295 0.093084
O O9 0.807919 0.801786 0.146008
O O10 0.688622 0.826612 0.230768
#
# Coordination Sequence:
#
# PCOD8187374 Si02
#       5
#    16  16  16  16  16
#     4  10  23  40  64  96 129 172 213 279 331 394
#     4  11  23  39  66  96 130 166 221 276 322 387
#     4  10  22  41  64  92 129 172 217 267 339 396
#     4   9  22  42  65  93 128 174 220 263 336 398
#     4  10  22  42  70  92 124 174 224 266 327 412
#
# _framework density 20.130648999999998
#
# number of rings (size 3 to 8) (size 9 to 14) (size 15 to 20)
#    0.000    2.000    0.000    2.400   14.000    0.000 
#    0.000    0.000    0.000    0.000    0.000    0.000 
#    0.000    0.000    0.000    0.000    0.000    0.000 
#
# Total GULP energy -247821.013969 kJ/mol
# GULP energy per Si atom -12391.050698 kJ/mol
# Density = 2.008483 g / cm^3
# Si number density = 20.130649 Si / 1000 Ang^3
#
#
#
# Elastic Constant Matrix: (Units=GPa)
#
#
# Indices 1 2 3 4 5 6 
#
# 1 86.4207 28.7257 52.3234 0.0000 0.0000 0.0000
# 2 28.7257 99.8802 56.8795 0.0000 0.0000 0.0000
# 3 52.3234 56.8795 121.6474 0.0002 -0.0001 0.0000
# 4 0.0000 0.0000 0.0002 29.7920 0.0000 0.0000
# 5 0.0000 0.0000 -0.0001 0.0000 24.9191 0.0000
# 6 0.0000 0.0000 0.0000 0.0000 0.0000 33.8777
#
#
#
# Elastic Compliance Matrix: (Units=1/GPa)
#
#
# Indices 1 2 3 4 5 6 
#
# 1 0.015707 -0.000913 -0.006329 0.000000 0.000000 0.000000
# 2 -0.000913 0.013698 -0.006012 0.000000 0.000000 0.000000
# 3 -0.006329 -0.006012 0.013754 0.000000 0.000000 0.000000
# 4 0.000000 0.000000 0.000000 0.033566 0.000000 0.000000
# 5 0.000000 0.000000 0.000000 0.000000 0.040130 0.000000
# 6 0.000000 0.000000 0.000000 0.000000 0.000000 0.029518
#
#
# Mechanical properties :
#
#
# Convention : Reuss Voigt Hill
#
# Bulk Modulus (GPa) = 60.05857 64.86727 62.46292
# Shear Modulus (GPa) = 28.02194 29.05240 28.53717
#
# Velocity S-wave (km/s) = 3.73500 3.80306 3.76919
# Velocity P-wave (km/s) = 6.96416 7.18174 7.07379
#
# Compressibility (1/GPa) = 0.01665041
#
# Stress axis : x y z
#
# Youngs Moduli (GPa) = 63.66748 73.00071 72.70667
#
# Poissons Ratio (x) = 0.06666 0.46015
# Poissons Ratio (y) = 0.05814 0.43714
# Poissons Ratio (z) = 0.40294 0.43891
#
# Static dielectric constant tensor:
#      x y z
#    x 3.692670 0.000000 0.000000 
#    y 0.000000 4.005340 0.000000 
#    z 0.000000 0.000000 3.467660 
# 
# 
# High freq. dielectric constant tensor:
#      x y z
#    x 1.784390 0.000000 0.000000 
#    y 0.000000 1.798930 0.000000 
#    z 0.000000 0.000000 1.769190 
# 
# From -- ./inp_files/4144.got.cif
#   From: 2010.06.25/outbox.cif.g09.slc.cpg/sg43_3_cif.got.tgz:4144.got - 2010.06.26 16:48:59.
