data_PCOD8187356
_publ_section_title
;
Structure prediction by ZEFSAII (Michael W. Deem and Ramdas Pophale) SiO2 
 PCOD8187356
Probable space group: F D D 2
;
_chemical_formula_sum "Si O2"
_cell_formula_units_Z 96
_cell_length_a 21.242159
_cell_length_b 28.485334
_cell_length_c 7.375195
_cell_angle_alpha 90.000000
_cell_angle_beta 90.000000
_cell_angle_gamma 90.000000
_cell_volume 4462.656698
_symmetry_space_group_name_H-M "F D D 2"
_symmetry_group_IT_number 43
_symmetry_cell_setting 'orthorhombic'
loop_
_space_group_symop_operation_xyz
x,y,z
-x,-y,z
1/4-x,1/4+y,1/4+z
1/4+x,1/4-y,1/4+z
x,1/2+y,1/2+z
-x,1/2-y,1/2+z
1/4-x,3/4+y,3/4+z
1/4+x,3/4-y,3/4+z
1/2+x,y,1/2+z
1/2-x,-y,1/2+z
3/4-x,1/4+y,3/4+z
3/4+x,1/4-y,3/4+z
1/2+x,1/2+y,z
1/2-x,1/2-y,z
3/4-x,3/4+y,1/4+z
3/4+x,3/4-y,1/4+z
loop_
_atom_site_type_symbol
_atom_site_label
_atom_site_fract_x
_atom_site_fract_y
_atom_site_fract_z
Si Si1 0.176166 0.468611 0.929860
Si Si2 0.340130 0.281410 0.346514
Si Si3 0.539631 0.805132 0.920083
Si Si4 0.794207 0.685853 0.258252
Si Si5 0.841526 0.634407 0.948105
Si Si6 0.568512 0.639464 0.286191
O O1 0.119187 0.480409 0.792824
O O2 0.243252 0.462515 0.828665
O O3 0.158223 0.419012 0.023920
O O4 0.180013 0.509764 0.075389
O O5 0.270810 0.303552 0.360216
O O6 0.336070 0.232863 0.235557
O O7 0.382951 0.318798 0.243045
O O8 0.593679 0.839015 0.998013
O O9 0.500726 0.837074 0.776692
O O10 0.830815 0.649404 0.385994
O O11 0.787181 0.662948 0.058057
O O12 0.829063 0.634048 0.733629
#
# Coordination Sequence:
#
# PCOD8187356 Si02
#       6
#    16  16  16  16  16  16
#     4  10  23  41  65  94 131 171 222 281 328 400
#     4   9  22  41  57  96 125 160 224 262 321 400
#     4  10  22  40  64  93 130 165 225 272 328 393
#     4  11  22  39  67  84 129 177 205 264 341 394
#     4  10  23  38  58  97 124 160 221 265 324 397
#     4  10  22  41  61  91 128 169 212 276 325 385
#
# _framework density 21.511849999999999
#
# number of rings (size 3 to 8) (size 9 to 14) (size 15 to 20)
#    0.000    2.333    0.000    3.000    7.000    2.667 
#    0.000   10.000    0.000    0.000    0.000    0.000 
#    0.000    0.000    0.000    0.000    0.000    0.000 
#
# Total GULP energy -297477.352733 kJ/mol
# GULP energy per Si atom -12394.889697 kJ/mol
# Density = 2.146289 g / cm^3
# Si number density = 21.511850 Si / 1000 Ang^3
#
#
#
# Elastic Constant Matrix: (Units=GPa)
#
#
# Indices 1 2 3 4 5 6 
#
# 1 104.5087 57.5831 31.7059 -0.0283 0.0518 0.0291
# 2 57.5831 169.7700 59.6983 -0.0135 0.0121 0.0066
# 3 31.7059 59.6983 63.9054 -0.0396 0.0519 0.0355
# 4 -0.0283 -0.0135 -0.0396 40.3565 0.0223 0.0167
# 5 0.0518 0.0121 0.0519 0.0223 15.2389 -0.0257
# 6 0.0291 0.0066 0.0355 0.0167 -0.0257 36.9973
#
#
#
# Elastic Compliance Matrix: (Units=1/GPa)
#
#
# Indices 1 2 3 4 5 6 
#
# 1 0.012207 -0.002994 -0.003259 0.000004 -0.000028 -0.000006
# 2 -0.002994 0.009506 -0.007395 -0.000006 0.000028 0.000008
# 3 -0.003259 -0.007395 0.024173 0.000019 -0.000065 -0.000019
# 4 0.000004 -0.000006 0.000019 0.024779 -0.000036 -0.000011
# 5 -0.000028 0.000028 -0.000065 -0.000036 0.065622 0.000046
# 6 -0.000006 0.000008 -0.000019 -0.000011 0.000046 0.027029
#
#
# Mechanical properties :
#
#
# Convention : Reuss Voigt Hill
#
# Bulk Modulus (GPa) = 53.79267 70.68432 62.23849
# Shear Modulus (GPa) = 25.40514 31.13166 28.26840
#
# Velocity S-wave (km/s) = 3.44027 3.80832 3.62896
# Velocity P-wave (km/s) = 6.39069 7.22962 6.82306
#
# Compressibility (1/GPa) = 0.01858989
#
# Stress axis : x y z
#
# Youngs Moduli (GPa) = 81.91844 105.19303 41.36809
#
# Poissons Ratio (x) = 0.31499 0.13482
# Poissons Ratio (y) = 0.24530 0.30591
# Poissons Ratio (z) = 0.26698 0.77789
#
# Static dielectric constant tensor:
#      x y z
#    x 3.875180 0.000010 0.000000 
#    y 0.000010 4.226920 -0.000010 
#    z 0.000000 -0.000010 3.458790 
# 
# 
# High freq. dielectric constant tensor:
#      x y z
#    x 1.840000 0.000000 0.000000 
#    y 0.000000 1.869910 0.000000 
#    z 0.000000 0.000000 1.817220 
# 
# From -- ./inp_files/3280.got.cif
#   From: 2010.06.25/outbox.cif.g09.slc.cpg/sg43_2_cif.got.tgz:3280.got - 2010.06.26 16:48:59.
