data_PCOD8187728
_publ_section_title
;
Structure prediction by ZEFSAII (Michael W. Deem and Ramdas Pophale) SiO2 
 PCOD8187728
Probable space group: F D D 2
;
_chemical_formula_sum "Si O2"
_cell_formula_units_Z 88
_cell_length_a 10.062866
_cell_length_b 20.515989
_cell_length_c 19.496368
_cell_angle_alpha 90.000000
_cell_angle_beta 90.000000
_cell_angle_gamma 90.000000
_cell_volume 4025.018314
_symmetry_space_group_name_H-M "F D D 2"
_symmetry_group_IT_number 43
_symmetry_cell_setting 'orthorhombic'
loop_
_space_group_symop_operation_xyz
x,y,z
-x,-y,z
1/4-x,1/4+y,1/4+z
1/4+x,1/4-y,1/4+z
x,1/2+y,1/2+z
-x,1/2-y,1/2+z
1/4-x,3/4+y,3/4+z
1/4+x,3/4-y,3/4+z
1/2+x,y,1/2+z
1/2-x,-y,1/2+z
3/4-x,1/4+y,3/4+z
3/4+x,1/4-y,3/4+z
1/2+x,1/2+y,z
1/2-x,1/2-y,z
3/4-x,3/4+y,1/4+z
3/4+x,3/4-y,1/4+z
loop_
_atom_site_type_symbol
_atom_site_label
_atom_site_fract_x
_atom_site_fract_y
_atom_site_fract_z
Si Si1 0.408319 0.750336 0.399220
Si Si2 0.000000 0.500000 0.496580
Si Si3 0.355657 0.693051 0.267703
Si Si4 0.953440 0.292051 0.646649
Si Si5 0.684006 0.100451 0.575094
Si Si6 0.318248 0.430012 0.786393
O O1 0.250000 0.750000 0.404680
O O2 0.453662 0.707001 0.332548
O O3 0.474935 0.821412 0.386953
O O4 0.463187 0.723595 0.470316
O O5 0.920647 0.548859 0.447695
O O6 0.888009 0.458703 0.536316
O O7 0.250000 0.750000 0.271463
O O8 0.415059 0.698677 0.191683
O O9 0.295444 0.623419 0.284376
O O10 0.938241 0.354204 0.597698
O O11 0.950010 0.224024 0.604583
O O12 0.785686 0.146009 0.530867
#
# Coordination Sequence:
#
# PCOD8187728 Si02
#       6
#    16   8  16  16  16  16
#     4  11  24  44  71  99 135 186 235 294 346 434
#     4  12  26  44  68 102 144 182 238 304 366 424
#     4  11  25  46  72 101 147 187 241 301 361 430
#     4  12  27  46  73 107 139 193 238 307 358 440
#     4  12  26  46  71 103 144 188 241 305 369 430
#     4  12  26  46  75 105 138 195 247 290 370 447
#
# _framework density 21.863254999999999
#
# number of rings (size 3 to 8) (size 9 to 14) (size 15 to 20)
#    0.000    0.364    7.273    1.091   12.727    0.000 
#    0.000    0.000    0.000    0.000    0.000    0.000 
#    0.000    0.000    0.000    0.000    0.000    0.000 
#
# Total GULP energy -272585.372835 kJ/mol
# GULP energy per Si atom -12390.244220 kJ/mol
# Density = 2.181349 g / cm^3
# Si number density = 21.863255 Si / 1000 Ang^3
#
#
#
# Elastic Constant Matrix: (Units=GPa)
#
#
# Indices 1 2 3 4 5 6 
#
# 1 58.2180 41.2883 39.0897 0.0000 0.0000 0.0000
# 2 41.2883 123.9502 54.5447 0.0000 0.0000 0.0000
# 3 39.0897 54.5447 114.8015 0.0000 0.0000 0.0000
# 4 0.0000 0.0000 0.0000 32.5462 0.0000 0.0000
# 5 0.0000 0.0000 0.0000 0.0000 90.3859 0.0000
# 6 0.0000 0.0000 0.0000 0.0000 0.0000 39.6403
#
#
#
# Elastic Compliance Matrix: (Units=1/GPa)
#
#
# Indices 1 2 3 4 5 6 
#
# 1 0.025224 -0.005845 -0.005812 0.000000 0.000000 0.000000
# 2 -0.005845 0.011555 -0.003500 0.000000 0.000000 0.000000
# 3 -0.005812 -0.003500 0.012352 0.000000 0.000000 0.000000
# 4 0.000000 0.000000 0.000000 0.030726 0.000000 0.000000
# 5 0.000000 0.000000 0.000000 0.000000 0.011064 0.000000
# 6 0.000000 0.000000 0.000000 0.000000 0.000000 0.025227
#
#
# Mechanical properties :
#
#
# Convention : Reuss Voigt Hill
#
# Bulk Modulus (GPa) = 53.13879 62.97945 58.05912
# Shear Modulus (GPa) = 32.73687 43.31763 38.02725
#
# Velocity S-wave (km/s) = 3.87375 4.45601 4.17504
# Velocity P-wave (km/s) = 6.66077 7.43931 7.06077
#
# Compressibility (1/GPa) = 0.01881864
#
# Stress axis : x y z
#
# Youngs Moduli (GPa) = 39.64448 86.54443 80.95584
#
# Poissons Ratio (x) = 0.50583 0.47050
# Poissons Ratio (y) = 0.23171 0.28333
# Poissons Ratio (z) = 0.23041 0.30289
#
# Static dielectric constant tensor:
#      x y z
#    x 3.766620 0.000000 0.000000 
#    y 0.000000 4.024230 0.000000 
#    z 0.000000 0.000000 4.413660 
# 
# 
# High freq. dielectric constant tensor:
#      x y z
#    x 1.843270 0.000000 0.000000 
#    y 0.000000 1.868180 0.000000 
#    z 0.000000 0.000000 1.869560 
# 
# From -- ./inp_files/13269.got.cif
#   From: 2010.06.25/outbox.cif.g09.slc.cpg/sg43_7_cif.got.tgz:13269.got - 2010.06.26 16:48:59.
