data_PCOD8187219
_publ_section_title
;
Structure prediction by ZEFSAII (Michael W. Deem and Ramdas Pophale) SiO2 
 PCOD8187219
Probable space group: F D D 2
;
_chemical_formula_sum "Si O2"
_cell_formula_units_Z 128
_cell_length_a 11.228728
_cell_length_b 23.598215
_cell_length_c 22.069596
_cell_angle_alpha 90.000000
_cell_angle_beta 90.000000
_cell_angle_gamma 90.000000
_cell_volume 5847.956030
_symmetry_space_group_name_H-M "F D D 2"
_symmetry_group_IT_number 43
_symmetry_cell_setting 'orthorhombic'
loop_
_space_group_symop_operation_xyz
x,y,z
-x,-y,z
1/4-x,1/4+y,1/4+z
1/4+x,1/4-y,1/4+z
x,1/2+y,1/2+z
-x,1/2-y,1/2+z
1/4-x,3/4+y,3/4+z
1/4+x,3/4-y,3/4+z
1/2+x,y,1/2+z
1/2-x,-y,1/2+z
3/4-x,1/4+y,3/4+z
3/4+x,1/4-y,3/4+z
1/2+x,1/2+y,z
1/2-x,1/2-y,z
3/4-x,3/4+y,1/4+z
3/4+x,3/4-y,1/4+z
loop_
_atom_site_type_symbol
_atom_site_label
_atom_site_fract_x
_atom_site_fract_y
_atom_site_fract_z
Si Si1 0.756346 0.552551 0.021190
Si Si2 0.513779 0.563414 0.963007
Si Si3 0.431807 0.727165 0.095886
Si Si4 0.005074 0.819055 0.228875
Si Si5 0.886976 0.336374 0.396948
Si Si6 0.388886 0.249939 0.998565
Si Si7 0.041453 0.410906 0.821319
Si Si8 0.380507 0.390379 0.682925
O O1 0.807267 0.572087 0.083736
O O2 0.613667 0.564970 0.016745
O O3 0.781456 0.485960 0.018714
O O4 0.828955 0.584172 0.968390
O O5 0.500000 0.500000 0.937370
O O6 0.384655 0.585384 0.983553
O O7 0.565343 0.600615 0.908850
O O8 0.450897 0.698122 0.161550
O O9 0.335005 0.690333 0.059835
O O10 0.390345 0.792830 0.091437
O O11 0.555843 0.727132 0.060796
O O12 0.072428 0.872668 0.261143
O O13 0.934535 0.292848 0.447138
O O14 0.743911 0.333258 0.397122
O O15 0.250000 0.250000 0.009963
O O16 0.426363 0.186242 0.979116
O O17 0.032167 0.371967 0.881566
#
# Coordination Sequence:
#
# PCOD8187219 Si02
#       8
#    16  16  16  16  16  16  16  16
#     4  10  21  39  66 100 133 174 229 288 339 426
#     4   9  21  38  62  93 131 170 228 277 349 413
#     4  11  26  45  68  99 136 182 237 287 348 426
#     4  11  23  43  68  94 133 186 225 287 356 415
#     4  10  21  39  63  98 134 171 227 288 344 425
#     4  10  23  42  67 101 135 176 229 291 356 417
#     4  11  25  45  65  97 140 178 236 284 340 436
#     4  10  22  39  65  99 135 178 224 285 352 406
#
# _framework density 21.887989999999999
#
# number of rings (size 3 to 8) (size 9 to 14) (size 15 to 20)
#    0.000    1.750    1.250    1.500    3.500    5.500 
#    0.000    0.000    5.500    0.000    0.000    0.000 
#    0.000    0.000    0.000    0.000    0.000    0.000 
#
# Total GULP energy -396563.559953 kJ/mol
# GULP energy per Si atom -12392.611249 kJ/mol
# Density = 2.183817 g / cm^3
# Si number density = 21.887990 Si / 1000 Ang^3
#
#
#
# Elastic Constant Matrix: (Units=GPa)
#
#
# Indices 1 2 3 4 5 6 
#
# 1 67.8136 33.3705 51.5424 0.0000 0.0000 0.0000
# 2 33.3705 104.0788 58.2026 0.0000 0.0000 0.0000
# 3 51.5424 58.2026 144.7097 0.0000 0.0000 0.0000
# 4 0.0000 0.0000 0.0000 34.9976 0.0000 0.0000
# 5 0.0000 0.0000 0.0000 0.0000 29.3237 0.0000
# 6 0.0000 0.0000 0.0000 0.0000 0.0000 25.8307
#
#
#
# Elastic Compliance Matrix: (Units=1/GPa)
#
#
# Indices 1 2 3 4 5 6 
#
# 1 0.021064 -0.003300 -0.006175 0.000000 0.000000 0.000000
# 2 -0.003300 0.012913 -0.004018 0.000000 0.000000 0.000000
# 3 -0.006175 -0.004018 0.010726 0.000000 0.000000 0.000000
# 4 0.000000 0.000000 0.000000 0.028573 0.000000 0.000000
# 5 0.000000 0.000000 0.000000 0.000000 0.034102 0.000000
# 6 0.000000 0.000000 0.000000 0.000000 0.000000 0.038714
#
#
# Mechanical properties :
#
#
# Convention : Reuss Voigt Hill
#
# Bulk Modulus (GPa) = 56.44710 66.98146 61.71428
# Shear Modulus (GPa) = 27.93531 29.59617 28.76574
#
# Velocity S-wave (km/s) = 3.57639 3.68117 3.62916
# Velocity P-wave (km/s) = 6.54974 6.98114 6.76888
#
# Compressibility (1/GPa) = 0.01771570
#
# Stress axis : x y z
#
# Youngs Moduli (GPa) = 47.47480 77.43896 93.23186
#
# Poissons Ratio (x) = 0.25558 0.57571
# Poissons Ratio (y) = 0.15669 0.37463
# Poissons Ratio (z) = 0.29316 0.31117
#
# Static dielectric constant tensor:
#      x y z
#    x 3.959610 0.000000 0.000000 
#    y 0.000000 4.550370 0.000000 
#    z 0.000000 0.000000 3.723330 
# 
# 
# High freq. dielectric constant tensor:
#      x y z
#    x 1.852440 0.000000 0.000000 
#    y 0.000000 1.877840 0.000000 
#    z 0.000000 0.000000 1.846910 
# 
# From -- ./inp_files/21321.got.cif
#   From: 2010.06.25/outbox.cif.g09.slc.cpg/sg43_11_cif.got.tgz:21321.got - 2010.06.26 16:48:59.
