data_PCOD8187083
_publ_section_title
;
Structure prediction by ZEFSAII (Michael W. Deem and Ramdas Pophale) SiO2 
 PCOD8187083
Probable space group: F D D 2
;
_chemical_formula_sum "Si O2"
_cell_formula_units_Z 96
_cell_length_a 31.324146
_cell_length_b 10.136875
_cell_length_c 14.385358
_cell_angle_alpha 90.000000
_cell_angle_beta 90.000000
_cell_angle_gamma 90.000000
_cell_volume 4567.767657
_symmetry_space_group_name_H-M "F D D 2"
_symmetry_group_IT_number 43
_symmetry_cell_setting 'orthorhombic'
loop_
_space_group_symop_operation_xyz
x,y,z
-x,-y,z
1/4-x,1/4+y,1/4+z
1/4+x,1/4-y,1/4+z
x,1/2+y,1/2+z
-x,1/2-y,1/2+z
1/4-x,3/4+y,3/4+z
1/4+x,3/4-y,3/4+z
1/2+x,y,1/2+z
1/2-x,-y,1/2+z
3/4-x,1/4+y,3/4+z
3/4+x,1/4-y,3/4+z
1/2+x,1/2+y,z
1/2-x,1/2-y,z
3/4-x,3/4+y,1/4+z
3/4+x,3/4-y,1/4+z
loop_
_atom_site_type_symbol
_atom_site_label
_atom_site_fract_x
_atom_site_fract_y
_atom_site_fract_z
Si Si1 0.158792 0.774571 0.733200
Si Si2 0.750000 0.750000 0.564157
Si Si3 0.830201 0.247945 0.193986
Si Si4 0.841274 0.009681 0.322765
Si Si5 0.250000 0.750000 0.744331
Si Si6 0.256092 0.455953 0.405297
Si Si7 0.668997 0.533848 0.849116
O O1 0.149978 0.639063 0.787654
O O2 0.206177 0.763460 0.683914
O O3 0.122590 0.815942 0.660570
O O4 0.161244 0.888002 0.810256
O O5 0.789845 0.724614 0.629227
O O6 0.739588 0.625642 0.499575
O O7 0.868961 0.303273 0.134236
O O8 0.822309 0.356772 0.272113
O O9 0.840311 0.104783 0.234745
O O10 0.799968 0.036011 0.389221
O O11 0.254103 0.875532 0.809856
O O12 0.212111 0.538879 0.412100
#
# Coordination Sequence:
#
# PCOD8187083 Si02
#       7
#    16   8  16  16   8  16  16
#     4  10  20  38  61  83 115 160 200 239 291 354
#     4  11  22  40  64  89 116 162 206 241 292 358
#     4  12  24  38  60  92 125 156 194 248 304 352
#     4  11  22  40  62  89 119 158 202 246 295 360
#     4   7  16  34  58  83 108 142 192 243 284 336
#     4   9  19  37  61  85 113 150 199 245 287 346
#     4  11  22  39  59  88 122 154 192 247 299 349
#
# _framework density 21.016829999999999
#
# number of rings (size 3 to 8) (size 9 to 14) (size 15 to 20)
#    0.000    1.667    0.000    6.000    0.000    0.000 
#    0.000    1.667    0.000    2.000    0.000    0.000 
#    0.000    0.000    0.000    0.000    0.000    0.000 
#
# Total GULP energy -297474.037939 kJ/mol
# GULP energy per Si atom -12394.751581 kJ/mol
# Density = 2.096900 g / cm^3
# Si number density = 21.016830 Si / 1000 Ang^3
#
#
#
# Elastic Constant Matrix: (Units=GPa)
#
#
# Indices 1 2 3 4 5 6 
#
# 1 166.4119 -6.1428 46.1311 0.0000 0.0000 0.0000
# 2 -6.1428 73.0002 20.4152 0.0000 0.0000 0.0000
# 3 46.1311 20.4152 84.6333 0.0000 0.0000 0.0000
# 4 0.0000 0.0000 0.0000 80.8823 0.0000 0.0000
# 5 0.0000 0.0000 0.0000 0.0000 50.8275 0.0000
# 6 0.0000 0.0000 0.0000 0.0000 0.0000 23.9644
#
#
#
# Elastic Compliance Matrix: (Units=1/GPa)
#
#
# Indices 1 2 3 4 5 6 
#
# 1 0.007305 0.001853 -0.004429 0.000000 0.000000 0.000000
# 2 0.001853 0.015160 -0.004667 0.000000 0.000000 0.000000
# 3 -0.004429 -0.004667 0.015356 0.000000 0.000000 0.000000
# 4 0.000000 0.000000 0.000000 0.012364 0.000000 0.000000
# 5 0.000000 0.000000 0.000000 0.000000 0.019674 0.000000
# 6 0.000000 0.000000 0.000000 0.000000 0.000000 0.041729
#
#
# Mechanical properties :
#
#
# Convention : Reuss Voigt Hill
#
# Bulk Modulus (GPa) = 42.85351 49.42803 46.14077
# Shear Modulus (GPa) = 37.35496 48.71098 43.03297
#
# Velocity S-wave (km/s) = 4.22048 4.81949 4.52989
# Velocity P-wave (km/s) = 6.64712 7.38507 7.02579
#
# Compressibility (1/GPa) = 0.02333531
#
# Stress axis : x y z
#
# Youngs Moduli (GPa) = 136.88573 65.96428 65.12291
#
# Poissons Ratio (x) = -0.12225 0.28843
# Poissons Ratio (y) = -0.25370 0.30393
# Poissons Ratio (z) = 0.60627 0.30786
#
# Static dielectric constant tensor:
#      x y z
#    x 4.379730 0.000000 0.000000 
#    y 0.000000 3.650760 0.000000 
#    z 0.000000 0.000000 3.512590 
# 
# 
# High freq. dielectric constant tensor:
#      x y z
#    x 1.855870 0.000000 0.000000 
#    y 0.000000 1.812900 0.000000 
#    z 0.000000 0.000000 1.799850 
# 
# From -- ./inp_files/9755.got.cif
#   From: 2010.06.25/outbox.cif.g09.slc.cpg/sg43_5_cif.got.tgz:9755.got - 2010.06.26 16:48:59.
