data_PCOD8187604
_publ_section_title
;
Structure prediction by ZEFSAII (Michael W. Deem and Ramdas Pophale) SiO2 
 PCOD8187604
Probable space group: F D D 2
;
_chemical_formula_sum "Si O2"
_cell_formula_units_Z 72
_cell_length_a 30.162360
_cell_length_b 19.945963
_cell_length_c 4.906057
_cell_angle_alpha 90.000000
_cell_angle_beta 90.000000
_cell_angle_gamma 90.000000
_cell_volume 2951.568847
_symmetry_space_group_name_H-M "F D D 2"
_symmetry_group_IT_number 43
_symmetry_cell_setting 'orthorhombic'
loop_
_space_group_symop_operation_xyz
x,y,z
-x,-y,z
1/4-x,1/4+y,1/4+z
1/4+x,1/4-y,1/4+z
x,1/2+y,1/2+z
-x,1/2-y,1/2+z
1/4-x,3/4+y,3/4+z
1/4+x,3/4-y,3/4+z
1/2+x,y,1/2+z
1/2-x,-y,1/2+z
3/4-x,1/4+y,3/4+z
3/4+x,1/4-y,3/4+z
1/2+x,1/2+y,z
1/2-x,1/2-y,z
3/4-x,3/4+y,1/4+z
3/4+x,3/4-y,1/4+z
loop_
_atom_site_type_symbol
_atom_site_label
_atom_site_fract_x
_atom_site_fract_y
_atom_site_fract_z
Si Si1 0.500000 0.000000 0.921061
Si Si2 0.087246 0.322498 0.685363
Si Si3 0.799080 0.572066 0.924548
Si Si4 0.178656 0.345800 0.439716
Si Si5 0.044824 0.879058 0.682524
O O1 0.470009 0.953866 0.727668
O O2 0.530220 0.954817 0.119599
O O3 0.062314 0.253101 0.738358
O O4 0.134460 0.307878 0.543947
O O5 0.061394 0.374850 0.491729
O O6 0.085447 0.357922 0.981290
O O7 0.817325 0.588371 0.625766
O O8 0.746023 0.577289 0.913345
O O9 0.820778 0.627073 0.130848
#
# Coordination Sequence:
#
# PCOD8187604 Si02
#       5
#     8  16  16  16  16
#     4  10  26  48  70 106 150 196 238 296 380 452
#     4  12  25  42  73 103 141 187 243 307 355 432
#     4  11  24  47  65 104 138 186 242 298 362 438
#     4  11  26  42  71 102 145 190 241 302 362 436
#     4  11  24  45  72 102 139 191 235 298 369 436
#
# _framework density 24.393806000000001
#
# number of rings (size 3 to 8) (size 9 to 14) (size 15 to 20)
#    0.000    0.889    0.000    6.667    6.222    8.000 
#    0.000    0.000    0.000    0.000    0.000    0.000 
#    0.000    0.000    0.000    0.000    0.000    0.000 
#
# Total GULP energy -223190.843277 kJ/mol
# GULP energy per Si atom -12399.491293 kJ/mol
# Density = 2.433828 g / cm^3
# Si number density = 24.393806 Si / 1000 Ang^3
#
#
#
# Elastic Constant Matrix: (Units=GPa)
#
#
# Indices 1 2 3 4 5 6 
#
# 1 87.1677 12.5190 17.0873 -0.0012 -0.0012 -0.0006
# 2 12.5190 112.4544 21.9648 0.0062 0.0008 0.0003
# 3 17.0873 21.9648 84.3079 0.0199 0.0041 -0.0018
# 4 -0.0012 0.0062 0.0199 29.2705 0.0024 -0.0002
# 5 -0.0012 0.0008 0.0041 0.0024 39.9114 -0.0007
# 6 -0.0006 0.0003 -0.0018 -0.0002 -0.0007 19.4659
#
#
#
# Elastic Compliance Matrix: (Units=1/GPa)
#
#
# Indices 1 2 3 4 5 6 
#
# 1 0.012034 -0.000910 -0.002202 0.000002 0.000001 0.000000
# 2 -0.000910 0.009438 -0.002275 0.000000 0.000000 0.000000
# 3 -0.002202 -0.002275 0.012900 -0.000008 -0.000001 0.000001
# 4 0.000002 0.000000 -0.000008 0.034164 -0.000002 0.000000
# 5 0.000001 0.000000 -0.000001 -0.000002 0.025055 0.000001
# 6 0.000000 0.000000 0.000001 0.000000 0.000001 0.051372
#
#
# Mechanical properties :
#
#
# Convention : Reuss Voigt Hill
#
# Bulk Modulus (GPa) = 42.37269 43.00803 42.69036
# Shear Modulus (GPa) = 30.56170 33.22016 31.89093
#
# Velocity S-wave (km/s) = 3.54340 3.69430 3.61963
# Velocity P-wave (km/s) = 5.84370 5.98883 5.91671
#
# Compressibility (1/GPa) = 0.02360011
#
# Stress axis : x y z
#
# Youngs Moduli (GPa) = 83.09478 105.95441 77.51818
#
# Poissons Ratio (x) = 0.09638 0.17070
# Poissons Ratio (y) = 0.07558 0.17632
# Poissons Ratio (z) = 0.18299 0.24100
#
# Static dielectric constant tensor:
#      x y z
#    x 4.578850 -0.000020 -0.000010 
#    y -0.000020 4.087050 -0.000020 
#    z -0.000010 -0.000020 4.425340 
# 
# 
# High freq. dielectric constant tensor:
#      x y z
#    x 1.971540 0.000000 0.000000 
#    y 0.000000 1.961460 0.000000 
#    z 0.000000 0.000000 1.980490 
# 
# From -- ./inp_files/1336.got.cif
#   From: 2010.06.25/outbox.cif.g09.slc.cpg/sg43_1_cif.got.tgz:1336.got - 2010.06.26 16:48:59.
