data_PCOD8187199
_publ_section_title
;
Structure prediction by ZEFSAII (Michael W. Deem and Ramdas Pophale) SiO2 
 PCOD8187199
Probable space group: F D D 2
;
_chemical_formula_sum "Si O2"
_cell_formula_units_Z 48
_cell_length_a 13.434886
_cell_length_b 11.989849
_cell_length_c 11.988735
_cell_angle_alpha 90.000000
_cell_angle_beta 90.000000
_cell_angle_gamma 90.000000
_cell_volume 1931.172462
_symmetry_space_group_name_H-M "F D D 2"
_symmetry_group_IT_number 43
_symmetry_cell_setting 'orthorhombic'
loop_
_space_group_symop_operation_xyz
x,y,z
-x,-y,z
1/4-x,1/4+y,1/4+z
1/4+x,1/4-y,1/4+z
x,1/2+y,1/2+z
-x,1/2-y,1/2+z
1/4-x,3/4+y,3/4+z
1/4+x,3/4-y,3/4+z
1/2+x,y,1/2+z
1/2-x,-y,1/2+z
3/4-x,1/4+y,3/4+z
3/4+x,1/4-y,3/4+z
1/2+x,1/2+y,z
1/2-x,1/2-y,z
3/4-x,3/4+y,1/4+z
3/4+x,3/4-y,1/4+z
loop_
_atom_site_type_symbol
_atom_site_label
_atom_site_fract_x
_atom_site_fract_y
_atom_site_fract_z
Si Si1 0.822440 0.481373 0.002000
Si Si2 0.000000 0.500000 0.415317
Si Si3 0.104479 0.907763 0.722279
Si Si4 0.250000 0.750000 0.085027
O O1 0.884581 0.513482 0.114399
O O2 0.770090 0.360796 0.012254
O O3 0.740454 0.575049 0.971557
O O4 0.902289 0.472394 0.905134
O O5 0.904950 0.518843 0.333885
O O6 0.961555 0.400962 0.492881
#
# Coordination Sequence:
#
# PCOD8187199 Si02
#       4
#    16   8  16   8
#     4  11  24  43  66  94 130 173 220 270 327 388
#     4  10  21  38  61  88 118 156 204 256 313 372
#     4  10  22  40  64  88 122 168 214 264 319 380
#     4  12  25  42  65  98 134 172 216 272 329 388
#
# _framework density 24.855367999999999
#
# number of rings (size 3 to 8) (size 9 to 14) (size 15 to 20)
#    0.000    1.333    0.000    7.000    0.000    8.000 
#    0.000    0.000    0.000    0.000    0.000    0.000 
#    0.000    0.000    0.000    0.000    0.000    0.000 
#
# Total GULP energy -148673.919587 kJ/mol
# GULP energy per Si atom -12389.493299 kJ/mol
# Density = 2.479880 g / cm^3
# Si number density = 24.855368 Si / 1000 Ang^3
#
#
#
# Elastic Constant Matrix: (Units=GPa)
#
#
# Indices 1 2 3 4 5 6 
#
# 1 68.1299 18.3544 18.7073 0.0000 0.0000 0.0000
# 2 18.3544 120.3705 9.3728 0.0000 0.0000 0.0000
# 3 18.7073 9.3728 38.4205 0.0000 0.0000 0.0000
# 4 0.0000 0.0000 0.0000 12.5134 0.0000 0.0000
# 5 0.0000 0.0000 0.0000 0.0000 14.0475 0.0000
# 6 0.0000 0.0000 0.0000 0.0000 0.0000 60.9506
#
#
#
# Elastic Compliance Matrix: (Units=1/GPa)
#
#
# Indices 1 2 3 4 5 6 
#
# 1 0.017418 -0.002034 -0.007985 0.000000 0.000000 0.000000
# 2 -0.002034 0.008706 -0.001133 0.000000 0.000000 0.000000
# 3 -0.007985 -0.001133 0.030192 0.000000 0.000000 0.000000
# 4 0.000000 0.000000 0.000000 0.079914 0.000000 0.000000
# 5 0.000000 0.000000 0.000000 0.000000 0.071187 0.000000
# 6 0.000000 0.000000 0.000000 0.000000 0.000000 0.016407
#
#
# Mechanical properties :
#
#
# Convention : Reuss Voigt Hill
#
# Bulk Modulus (GPa) = 29.40175 35.53222 32.46699
# Shear Modulus (GPa) = 19.41998 29.53474 24.47736
#
# Velocity S-wave (km/s) = 2.79824 3.45086 3.14154
# Velocity P-wave (km/s) = 4.72176 5.49587 5.12345
#
# Compressibility (1/GPa) = 0.03401158
#
# Stress axis : x y z
#
# Youngs Moduli (GPa) = 57.41050 114.86163 33.12113
#
# Poissons Ratio (x) = 0.23366 0.26447
# Poissons Ratio (y) = 0.11679 0.03754
# Poissons Ratio (z) = 0.45842 0.13018
#
# Static dielectric constant tensor:
#      x y z
#    x 4.753270 0.000000 0.000000 
#    y 0.000000 5.052820 0.000000 
#    z 0.000000 0.000000 4.368950 
# 
# 
# High freq. dielectric constant tensor:
#      x y z
#    x 2.007000 0.000000 0.000000 
#    y 0.000000 2.009750 0.000000 
#    z 0.000000 0.000000 1.975800 
# 
# From -- ./inp_files/2473.got.cif
#   From: 2010.06.25/outbox.cif.g09.slc.cpg/sg43_2_cif.got.tgz:2473.got - 2010.06.26 16:48:59.
