data_PCOD8187457
_publ_section_title
;
Structure prediction by ZEFSAII (Michael W. Deem and Ramdas Pophale) SiO2 
 PCOD8187457
Probable space group: F D D 2
;
_chemical_formula_sum "Si O2"
_cell_formula_units_Z 96
_cell_length_a 21.903932
_cell_length_b 9.165322
_cell_length_c 22.135222
_cell_angle_alpha 90.000000
_cell_angle_beta 90.000000
_cell_angle_gamma 90.000000
_cell_volume 4443.791684
_symmetry_space_group_name_H-M "F D D 2"
_symmetry_group_IT_number 43
_symmetry_cell_setting 'orthorhombic'
loop_
_space_group_symop_operation_xyz
x,y,z
-x,-y,z
1/4-x,1/4+y,1/4+z
1/4+x,1/4-y,1/4+z
x,1/2+y,1/2+z
-x,1/2-y,1/2+z
1/4-x,3/4+y,3/4+z
1/4+x,3/4-y,3/4+z
1/2+x,y,1/2+z
1/2-x,-y,1/2+z
3/4-x,1/4+y,3/4+z
3/4+x,1/4-y,3/4+z
1/2+x,1/2+y,z
1/2-x,1/2-y,z
3/4-x,3/4+y,1/4+z
3/4+x,3/4-y,1/4+z
loop_
_atom_site_type_symbol
_atom_site_label
_atom_site_fract_x
_atom_site_fract_y
_atom_site_fract_z
Si Si1 0.573755 0.302917 0.867570
Si Si2 0.225692 0.094712 0.548332
Si Si3 0.018063 0.157982 0.973419
Si Si4 0.144518 0.379608 0.123930
Si Si5 0.803180 0.358475 0.908744
Si Si6 0.013358 0.341512 0.089650
O O1 0.537799 0.248936 0.807516
O O2 0.531816 0.280601 0.926638
O O3 0.581923 0.472235 0.851431
O O4 0.634620 0.211272 0.883094
O O5 0.250000 0.250000 0.574773
O O6 0.200404 0.116374 0.480564
O O7 0.169537 0.014475 0.582967
O O8 0.083681 0.154054 0.941932
O O9 0.029409 0.256047 0.030162
O O10 0.000000 0.000000 0.997994
O O11 0.072399 0.364598 0.131151
O O12 0.750000 0.250000 0.887976
O O13 0.791407 0.515052 0.876936
O O14 0.000000 0.500000 0.064947
#
# Coordination Sequence:
#
# PCOD8187457 Si02
#       6
#    16  16  16  16  16  16
#     4  10  22  45  74  93 141 186 233 277 343 424
#     4  10  24  42  71  99 136 180 229 282 349 406
#     4   9  22  44  71  96 130 186 231 272 347 415
#     4  10  23  46  67 100 132 184 232 277 344 419
#     4  11  24  44  66 105 138 185 227 287 352 415
#     4  12  27  40  63 104 140 172 230 288 345 398
#
# _framework density 21.603173000000002
#
# number of rings (size 3 to 8) (size 9 to 14) (size 15 to 20)
#    0.000    1.667    1.667    2.000    4.667    8.000 
#    0.000    0.000    0.000    0.000    0.000    0.000 
#    0.000    0.000    0.000    0.000    0.000    0.000 
#
# Total GULP energy -297324.008608 kJ/mol
# GULP energy per Si atom -12388.500359 kJ/mol
# Density = 2.155400 g / cm^3
# Si number density = 21.603173 Si / 1000 Ang^3
#
#
#
# Elastic Constant Matrix: (Units=GPa)
#
#
# Indices 1 2 3 4 5 6 
#
# 1 108.6510 26.2114 18.7832 0.0000 0.0000 0.0000
# 2 26.2114 129.6891 47.2387 0.0000 0.0000 0.0000
# 3 18.7832 47.2387 63.5158 0.0000 0.0000 0.0000
# 4 0.0000 0.0000 0.0000 40.8906 0.0000 0.0000
# 5 0.0000 0.0000 0.0000 0.0000 77.6308 0.0000
# 6 0.0000 0.0000 0.0000 0.0000 0.0000 40.3837
#
#
#
# Elastic Compliance Matrix: (Units=1/GPa)
#
#
# Indices 1 2 3 4 5 6 
#
# 1 0.009851 -0.001275 -0.001965 0.000000 0.000000 0.000000
# 2 -0.001275 0.010741 -0.007611 0.000000 0.000000 0.000000
# 3 -0.001965 -0.007611 0.021986 0.000000 0.000000 0.000000
# 4 0.000000 0.000000 0.000000 0.024455 0.000000 0.000000
# 5 0.000000 0.000000 0.000000 0.000000 0.012881 0.000000
# 6 0.000000 0.000000 0.000000 0.000000 0.000000 0.024762
#
#
# Mechanical properties :
#
#
# Convention : Reuss Voigt Hill
#
# Bulk Modulus (GPa) = 47.90347 54.03586 50.96966
# Shear Modulus (GPa) = 37.49866 45.75585 41.62726
#
# Velocity S-wave (km/s) = 4.17081 4.60718 4.39441
# Velocity P-wave (km/s) = 6.73918 7.30539 7.02799
#
# Compressibility (1/GPa) = 0.02087531
#
# Stress axis : x y z
#
# Youngs Moduli (GPa) = 101.51143 93.10249 45.48389
#
# Poissons Ratio (x) = 0.11874 0.08936
# Poissons Ratio (y) = 0.12947 0.34619
# Poissons Ratio (z) = 0.19944 0.70862
#
# Static dielectric constant tensor:
#      x y z
#    x 2.549350 0.000000 0.000000 
#    y 0.000000 4.288460 0.000000 
#    z 0.000000 0.000000 3.701540 
# 
# 
# High freq. dielectric constant tensor:
#      x y z
#    x 1.852860 0.000000 0.000000 
#    y 0.000000 1.866330 0.000000 
#    z 0.000000 0.000000 1.836170 
# 
# From -- ./inp_files/20282.got.cif
#   From: 2010.06.25/outbox.cif.g09.slc.cpg/sg43_11_cif.got.tgz:20282.got - 2010.06.26 16:48:59.
