data_PCOD8187442
_publ_section_title
;
Structure prediction by ZEFSAII (Michael W. Deem and Ramdas Pophale) SiO2 
 PCOD8187442
Probable space group: F D D 2
;
_chemical_formula_sum "Si O2"
_cell_formula_units_Z 104
_cell_length_a 22.461058
_cell_length_b 16.444949
_cell_length_c 13.619943
_cell_angle_alpha 90.000000
_cell_angle_beta 90.000000
_cell_angle_gamma 90.000000
_cell_volume 5030.811330
_symmetry_space_group_name_H-M "F D D 2"
_symmetry_group_IT_number 43
_symmetry_cell_setting 'orthorhombic'
loop_
_space_group_symop_operation_xyz
x,y,z
-x,-y,z
1/4-x,1/4+y,1/4+z
1/4+x,1/4-y,1/4+z
x,1/2+y,1/2+z
-x,1/2-y,1/2+z
1/4-x,3/4+y,3/4+z
1/4+x,3/4-y,3/4+z
1/2+x,y,1/2+z
1/2-x,-y,1/2+z
3/4-x,1/4+y,3/4+z
3/4+x,1/4-y,3/4+z
1/2+x,1/2+y,z
1/2-x,1/2-y,z
3/4-x,3/4+y,1/4+z
3/4+x,3/4-y,1/4+z
loop_
_atom_site_type_symbol
_atom_site_label
_atom_site_fract_x
_atom_site_fract_y
_atom_site_fract_z
Si Si1 0.750000 0.250000 0.413890
Si Si2 0.322920 0.159810 0.746212
Si Si3 0.040273 0.342247 0.753716
Si Si4 0.459727 0.842247 0.574065
Si Si5 0.677080 0.659810 0.081569
Si Si6 0.750000 0.750000 0.242734
Si Si7 0.750000 0.250000 0.085047
Si Si8 0.971307 0.750000 0.413890
O O1 0.709150 0.308715 0.346002
O O2 0.709151 0.191285 0.481779
O O3 0.391702 0.184808 0.744793
O O4 0.297619 0.203972 0.651292
O O5 0.317284 0.061822 0.731782
O O6 1.000000 0.310953 0.663890
O O7 0.035938 0.439408 0.764349
O O8 0.015438 0.303704 0.851372
O O9 0.391702 0.815192 0.582988
O O10 0.484562 0.803703 0.476408
O O11 0.464062 0.939408 0.563432
O O12 0.702381 0.703972 0.176489
O O13 0.682716 0.561822 0.095999
#
# Coordination Sequence:
#
# PCOD8187442 Si02
#       8
#     8  16  16  16  16   8   8  16
#     4  10  22  44  70  92 122 176 206 270 326 364
#     4  10  23  41  65  90 129 161 213 264 311 380
#     4  11  24  39  65  90 126 169 205 258 319 374
#     4  11  24  39  65  90 126 169 205 258 319 374
#     4  10  23  41  65  90 129 161 213 264 311 380
#     4   9  23  41  57  96 120 162 212 252 316 372
#     4   9  23  41  57  96 120 162 212 252 316 372
#     4  10  25  40  59 101 120 159 220 256 314 376
#
# _framework density 20.672611
#
# number of rings (size 3 to 8) (size 9 to 14) (size 15 to 20)
#    0.000    1.846    0.000    1.385   10.769    2.462 
#    0.000    9.231    0.000    0.000    0.000    0.000 
#    0.000    0.000    0.000    0.000    0.000    0.000 
#
# Total GULP energy -322331.981622 kJ/mol
# GULP energy per Si atom -12397.383909 kJ/mol
# Density = 2.062556 g / cm^3
# Si number density = 20.672611 Si / 1000 Ang^3
#
#
#
# Elastic Constant Matrix: (Units=GPa)
#
#
# Indices 1 2 3 4 5 6 
#
# 1 152.4083 21.6289 45.6950 0.0000 0.0000 0.0000
# 2 21.6289 86.1685 29.6196 0.0000 0.0000 0.0000
# 3 45.6950 29.6196 83.1979 0.0000 0.0000 0.0000
# 4 0.0000 0.0000 0.0000 28.4920 0.0000 0.0000
# 5 0.0000 0.0000 0.0000 0.0000 21.7991 0.0000
# 6 0.0000 0.0000 0.0000 0.0000 0.0000 20.9513
#
#
#
# Elastic Compliance Matrix: (Units=1/GPa)
#
#
# Indices 1 2 3 4 5 6 
#
# 1 0.007878 -0.000558 -0.004128 0.000000 0.000000 0.000000
# 2 -0.000558 0.013263 -0.004415 0.000000 0.000000 0.000000
# 3 -0.004128 -0.004415 0.015859 0.000000 0.000000 0.000000
# 4 0.000000 0.000000 0.000000 0.035098 0.000000 0.000000
# 5 0.000000 0.000000 0.000000 0.000000 0.045873 0.000000
# 6 0.000000 0.000000 0.000000 0.000000 0.000000 0.047730
#
#
# Mechanical properties :
#
#
# Convention : Reuss Voigt Hill
#
# Bulk Modulus (GPa) = 53.20141 57.29574 55.24857
# Shear Modulus (GPa) = 26.29229 29.23721 27.76475
#
# Velocity S-wave (km/s) = 3.57016 3.76479 3.66877
# Velocity P-wave (km/s) = 6.54108 6.83185 6.68805
#
# Compressibility (1/GPa) = 0.01879650
#
# Stress axis : x y z
#
# Youngs Moduli (GPa) = 126.93105 75.39776 63.05681
#
# Poissons Ratio (x) = 0.04211 0.26031
# Poissons Ratio (y) = 0.07089 0.27840
# Poissons Ratio (z) = 0.52400 0.33289
#
# Static dielectric constant tensor:
#      x y z
#    x 3.643140 0.000000 0.000000 
#    y 0.000000 4.091910 0.000000 
#    z 0.000000 0.000000 3.765190 
# 
# 
# High freq. dielectric constant tensor:
#      x y z
#    x 1.808220 0.000000 0.000000 
#    y 0.000000 1.817410 0.000000 
#    z 0.000000 0.000000 1.816830 
# 
# From -- ./inp_files/10648.got.cif
#   From: 2010.06.25/outbox.cif.g09.slc.cpg/sg43_6_cif.got.tgz:10648.got - 2010.06.26 16:48:59.
