data_PCOD8187747
_publ_section_title
;
Structure prediction by ZEFSAII (Michael W. Deem and Ramdas Pophale) SiO2 
 PCOD8187747
Probable space group: F D D 2
;
_chemical_formula_sum "Si O2"
_cell_formula_units_Z 88
_cell_length_a 16.841524
_cell_length_b 30.093655
_cell_length_c 7.587285
_cell_angle_alpha 90.000000
_cell_angle_beta 90.000000
_cell_angle_gamma 90.000000
_cell_volume 3845.410644
_symmetry_space_group_name_H-M "F D D 2"
_symmetry_group_IT_number 43
_symmetry_cell_setting 'orthorhombic'
loop_
_space_group_symop_operation_xyz
x,y,z
-x,-y,z
1/4-x,1/4+y,1/4+z
1/4+x,1/4-y,1/4+z
x,1/2+y,1/2+z
-x,1/2-y,1/2+z
1/4-x,3/4+y,3/4+z
1/4+x,3/4-y,3/4+z
1/2+x,y,1/2+z
1/2-x,-y,1/2+z
3/4-x,1/4+y,3/4+z
3/4+x,1/4-y,3/4+z
1/2+x,1/2+y,z
1/2-x,1/2-y,z
3/4-x,3/4+y,1/4+z
3/4+x,3/4-y,1/4+z
loop_
_atom_site_type_symbol
_atom_site_label
_atom_site_fract_x
_atom_site_fract_y
_atom_site_fract_z
Si Si1 0.988623 0.086241 0.563030
Si Si2 0.399135 0.719659 0.894415
Si Si3 0.750000 0.750000 0.626403
Si Si4 0.339576 0.867534 0.641666
Si Si5 0.917259 0.643043 0.776000
Si Si6 0.965188 0.792435 0.157338
O O1 0.981160 0.098767 0.768169
O O2 0.926680 0.114958 0.450684
O O3 0.966249 0.036251 0.512632
O O4 0.076926 0.094039 0.496098
O O5 0.388313 0.668291 0.836903
O O6 0.409192 0.752980 0.729359
O O7 0.322418 0.733954 0.004972
O O8 0.482981 0.725481 0.995069
O O9 0.412295 0.834653 0.600663
O O10 0.310905 0.865820 0.845886
O O11 0.970921 0.687347 0.796490
#
# Coordination Sequence:
#
# PCOD8187747 Si02
#       6
#    16  16   8  16  16  16
#     4  12  27  45  81 103 151 196 245 302 381 435
#     4  11  27  47  76 105 150 199 241 312 379 439
#     4  12  24  50  70 112 148 192 248 314 368 442
#     4  11  26  48  74 109 148 193 251 302 376 447
#     4  11  24  48  69 110 146 195 241 310 365 444
#     4  11  24  47  72 108 146 189 253 301 369 454
#
# _framework density 22.884423000000002
#
# number of rings (size 3 to 8) (size 9 to 14) (size 15 to 20)
#    0.000    0.727    5.455    1.091   10.182    1.455 
#    0.000    0.909    0.000    0.000    0.000    0.000 
#    0.000    0.000    0.000    0.000    0.000    0.000 
#
# Total GULP energy -272680.205233 kJ/mol
# GULP energy per Si atom -12394.554783 kJ/mol
# Density = 2.283234 g / cm^3
# Si number density = 22.884423 Si / 1000 Ang^3
#
#
#
# Elastic Constant Matrix: (Units=GPa)
#
#
# Indices 1 2 3 4 5 6 
#
# 1 84.0735 50.7402 37.5229 0.0002 -0.0011 0.0000
# 2 50.7402 136.7455 28.1020 -0.0002 0.0000 0.0000
# 3 37.5229 28.1020 78.8780 0.0001 -0.0019 0.0001
# 4 0.0002 -0.0002 0.0001 23.6214 -0.0002 -0.0001
# 5 -0.0011 0.0000 -0.0019 -0.0002 28.1170 -0.0001
# 6 0.0000 0.0000 0.0001 -0.0001 -0.0001 40.1248
#
#
#
# Elastic Compliance Matrix: (Units=1/GPa)
#
#
# Indices 1 2 3 4 5 6 
#
# 1 0.018115 -0.005342 -0.006714 0.000000 0.000000 0.000000
# 2 -0.005342 0.009466 -0.000831 0.000000 0.000000 0.000000
# 3 -0.006714 -0.000831 0.016168 0.000000 0.000001 0.000000
# 4 0.000000 0.000000 0.000000 0.042335 0.000000 0.000000
# 5 0.000000 0.000000 0.000001 0.000000 0.035566 0.000000
# 6 0.000000 0.000000 0.000000 0.000000 0.000000 0.024922
#
#
# Mechanical properties :
#
#
# Convention : Reuss Voigt Hill
#
# Bulk Modulus (GPa) = 55.63588 59.15858 57.39723
# Shear Modulus (GPa) = 28.03678 30.59476 29.31577
#
# Velocity S-wave (km/s) = 3.50401 3.66037 3.58304
# Velocity P-wave (km/s) = 6.38241 6.61600 6.50026
#
# Compressibility (1/GPa) = 0.01797401
#
# Stress axis : x y z
#
# Youngs Moduli (GPa) = 55.20312 105.64353 61.85060
#
# Poissons Ratio (x) = 0.56433 0.41528
# Poissons Ratio (y) = 0.29488 0.05141
# Poissons Ratio (z) = 0.37065 0.08782
#
# Static dielectric constant tensor:
#      x y z
#    x 4.162350 0.000000 0.000000 
#    y 0.000000 4.819030 0.000000 
#    z 0.000000 0.000000 3.817960 
# 
# 
# High freq. dielectric constant tensor:
#      x y z
#    x 1.910970 0.000000 0.000000 
#    y 0.000000 1.913210 0.000000 
#    z 0.000000 0.000000 1.888070 
# 
# From -- ./inp_files/2909.got.cif
#   From: 2010.06.25/outbox.cif.g09.slc.cpg/sg43_2_cif.got.tgz:2909.got - 2010.06.26 16:48:59.
