data_PCOD8187951
_publ_section_title
;
Structure prediction by ZEFSAII (Michael W. Deem and Ramdas Pophale) SiO2 
 PCOD8187951
Probable space group: I M M 2
;
_chemical_formula_sum "Si O2"
_cell_formula_units_Z 64
_cell_length_a 9.110811
_cell_length_b 23.247139
_cell_length_c 19.105099
_cell_angle_alpha 90.000000
_cell_angle_beta 90.000000
_cell_angle_gamma 90.000000
_cell_volume 4046.465503
_symmetry_space_group_name_H-M "I M M 2"
_symmetry_group_IT_number 44
_symmetry_cell_setting 'orthorhombic'
loop_
_space_group_symop_operation_xyz
x,y,z
-x,-y,z
-x,y,z
x,-y,z
1/2+x,1/2+y,1/2+z
1/2-x,1/2-y,1/2+z
1/2-x,1/2+y,1/2+z
1/2+x,1/2-y,1/2+z
loop_
_atom_site_type_symbol
_atom_site_label
_atom_site_fract_x
_atom_site_fract_y
_atom_site_fract_z
Si Si1 0.669469 0.280263 0.852760
Si Si2 0.670797 0.727647 0.553997
Si Si3 0.330477 0.566782 0.060703
Si Si4 0.325625 0.063902 0.845200
Si Si5 0.168448 0.665311 0.439094
Si Si6 0.174899 0.611224 0.197216
Si Si7 0.326120 0.241230 0.704735
Si Si8 0.672414 0.157792 0.470465
O O1 0.500000 0.299748 0.856040
O O2 0.689730 0.217486 0.885667
O O3 0.729307 0.275916 0.772996
O O4 0.767172 0.326954 0.893346
O O5 0.500000 0.715679 0.547146
O O6 0.750617 0.677038 0.512082
O O7 0.723688 0.725365 0.634630
O O8 0.709866 0.790296 0.523384
O O9 0.500000 0.585368 0.066427
O O10 0.314786 0.500000 0.042009
O O11 0.250321 0.578971 0.133398
O O12 0.253781 0.601358 0.997894
O O13 0.500000 0.068488 0.846017
O O14 0.262608 0.108710 0.902345
O O15 0.272452 0.079263 0.767379
O O16 0.270623 0.000000 0.864770
O O17 0.000000 0.655484 0.457947
O O18 0.234557 0.676366 0.202073
O O19 0.000000 0.608813 0.186051
O O20 0.500000 0.236379 0.709199
O O21 0.500000 0.145831 0.465906
#
# Coordination Sequence:
#
# PCOD8187951 Si02
#       8
#     8   8   8   8   8   8   8   8
#     4   9  16  28  47  67  92 120 148 185 235 283
#     4   9  17  29  45  65  91 119 152 189 228 271
#     4  11  23  35  46  65  95 128 161 195 233 276
#     4   9  16  26  44  68  91 120 159 195 223 261
#     4   9  16  27  43  64  89 117 151 188 227 272
#     4  10  17  30  48  68  93 124 163 195 222 265
#     4   9  15  27  47  69  93 123 152 184 227 278
#     4  10  19  32  49  68  91 120 157 196 231 273
#
# _framework density 15.816273000000001
#
# number of rings (size 3 to 8) (size 9 to 14) (size 15 to 20)
#    0.000    2.500    2.500    1.125    0.000    2.000 
#    0.000    1.875    0.000    1.125    0.000    0.875 
#    0.000    5.000    0.000    0.000    0.000    0.000 
#
# Total GULP energy -396749.359442 kJ/mol
# GULP energy per Si atom -12398.417483 kJ/mol
# Density = 1.578027 g / cm^3
# Si number density = 15.816273 Si / 1000 Ang^3
#
#
#
# Elastic Constant Matrix: (Units=GPa)
#
#
# Indices 1 2 3 4 5 6 
#
# 1 51.2368 37.1981 40.3960 0.0000 0.0000 0.0000
# 2 37.1981 90.2458 60.9151 0.0000 0.0000 0.0000
# 3 40.3960 60.9151 128.3133 0.0000 0.0000 0.0000
# 4 0.0000 0.0000 0.0000 25.4188 0.0000 0.0000
# 5 0.0000 0.0000 0.0000 0.0000 24.0614 0.0000
# 6 0.0000 0.0000 0.0000 0.0000 0.0000 16.8694
#
#
#
# Elastic Compliance Matrix: (Units=1/GPa)
#
#
# Indices 1 2 3 4 5 6 
#
# 1 0.030099 -0.008844 -0.005277 0.000000 0.000000 0.000000
# 2 -0.008844 0.018905 -0.006190 0.000000 0.000000 0.000000
# 3 -0.005277 -0.006190 0.012394 0.000000 0.000000 0.000000
# 4 0.000000 0.000000 0.000000 0.039341 0.000000 0.000000
# 5 0.000000 0.000000 0.000000 0.000000 0.041560 0.000000
# 6 0.000000 0.000000 0.000000 0.000000 0.000000 0.059279
#
#
# Mechanical properties :
#
#
# Convention : Reuss Voigt Hill
#
# Bulk Modulus (GPa) = 48.13813 60.75715 54.44764
# Shear Modulus (GPa) = 20.07020 22.02237 21.04628
#
# Velocity S-wave (km/s) = 3.56611 3.73552 3.65180
# Velocity P-wave (km/s) = 6.88898 7.55666 7.23053
#
# Compressibility (1/GPa) = 0.02077355
#
# Stress axis : x y z
#
# Youngs Moduli (GPa) = 33.22397 52.89658 80.68693
#
# Poissons Ratio (x) = 0.46783 0.42579
# Poissons Ratio (y) = 0.29384 0.49949
# Poissons Ratio (z) = 0.17533 0.32745
#
# Static dielectric constant tensor:
#      x y z
#    x 2.833920 0.000000 0.000000 
#    y 0.000000 2.930890 0.000000 
#    z 0.000000 0.000000 3.157360 
# 
# 
# High freq. dielectric constant tensor:
#      x y z
#    x 1.586660 0.000000 0.000000 
#    y 0.000000 1.584170 0.000000 
#    z 0.000000 0.000000 1.606500 
# 
# From -- ./inp_files/20805.got.cif
#   From: 2010.03.12/outbox.cif.g09.slc.cpg/sg44_11_cif.got.tgz:20805.got - 2010.04.14 02:36:11.
