data_PCOD8187393
_publ_section_title
;
Structure prediction by ZEFSAII (Michael W. Deem and Ramdas Pophale) SiO2 
 PCOD8187393
Probable space group: F D D 2
;
_chemical_formula_sum "Si O2"
_cell_formula_units_Z 112
_cell_length_a 30.377004
_cell_length_b 13.626825
_cell_length_c 13.608431
_cell_angle_alpha 90.000000
_cell_angle_beta 90.000000
_cell_angle_gamma 90.000000
_cell_volume 5633.102744
_symmetry_space_group_name_H-M "F D D 2"
_symmetry_group_IT_number 43
_symmetry_cell_setting 'orthorhombic'
loop_
_space_group_symop_operation_xyz
x,y,z
-x,-y,z
1/4-x,1/4+y,1/4+z
1/4+x,1/4-y,1/4+z
x,1/2+y,1/2+z
-x,1/2-y,1/2+z
1/4-x,3/4+y,3/4+z
1/4+x,3/4-y,3/4+z
1/2+x,y,1/2+z
1/2-x,-y,1/2+z
3/4-x,1/4+y,3/4+z
3/4+x,1/4-y,3/4+z
1/2+x,1/2+y,z
1/2-x,1/2-y,z
3/4-x,3/4+y,1/4+z
3/4+x,3/4-y,1/4+z
loop_
_atom_site_type_symbol
_atom_site_label
_atom_site_fract_x
_atom_site_fract_y
_atom_site_fract_z
Si Si1 0.072474 0.440892 0.513530
Si Si2 0.923152 0.299242 0.726076
Si Si3 0.473169 0.094870 0.924388
Si Si4 0.596739 0.292739 0.530274
Si Si5 0.703106 0.736147 0.467442
Si Si6 0.821652 0.625981 0.142195
Si Si7 0.230174 0.039952 0.137895
O O1 0.121664 0.433384 0.477704
O O2 0.076512 0.438800 0.632419
O O3 0.055389 0.545131 0.473016
O O4 0.042379 0.352871 0.473934
O O5 0.931903 0.255720 0.618052
O O6 0.941486 0.405159 0.751854
O O7 0.944081 0.221240 0.801765
O O8 0.455595 0.083255 0.812536
O O9 0.506714 0.185590 0.933706
O O10 0.500000 0.000000 0.960599
O O11 0.430520 0.112564 0.992533
O O12 0.646165 0.326336 0.560110
O O13 0.599243 0.211580 0.443826
O O14 0.750000 0.750000 0.415179
O O15 0.775583 0.587925 0.095494
#
# Coordination Sequence:
#
# PCOD8187393 Si02
#       7
#    16  16  16  16  16  16  16
#     4  11  23  38  67 101 123 162 219 272 315 387
#     4  11  22  41  65  95 126 166 212 272 324 374
#     4  10  22  43  63  86 135 170 209 267 325 387
#     4  10  23  42  65  90 131 171 209 269 326 376
#     4  11  20  40  65  88 123 165 209 267 324 372
#     4  10  22  42  66  93 133 168 215 269 321 390
#     4  11  22  40  66  96 128 169 215 265 325 387
#
# _framework density 19.882470999999999
#
# number of rings (size 3 to 8) (size 9 to 14) (size 15 to 20)
#    0.000    1.429    4.286    2.143    8.000    0.000 
#    7.714    0.000    3.143    0.000    0.000    0.000 
#    0.000    0.000    0.000    0.000    0.000    0.000 
#
# Total GULP energy -347028.303911 kJ/mol
# GULP energy per Si atom -12393.867997 kJ/mol
# Density = 1.983722 g / cm^3
# Si number density = 19.882471 Si / 1000 Ang^3
#
#
#
# Elastic Constant Matrix: (Units=GPa)
#
#
# Indices 1 2 3 4 5 6 
#
# 1 94.7177 49.6224 37.7503 0.0000 0.0000 0.0000
# 2 49.6224 123.1054 38.3746 0.0000 0.0000 0.0000
# 3 37.7503 38.3746 84.1038 0.0000 0.0000 0.0000
# 4 0.0000 0.0000 0.0000 33.0572 0.0000 0.0000
# 5 0.0000 0.0000 0.0000 0.0000 43.1904 0.0000
# 6 0.0000 0.0000 0.0000 0.0000 0.0000 35.5359
#
#
#
# Elastic Compliance Matrix: (Units=1/GPa)
#
#
# Indices 1 2 3 4 5 6 
#
# 1 0.014742 -0.004523 -0.004553 0.000000 0.000000 0.000000
# 2 -0.004523 0.010858 -0.002924 0.000000 0.000000 0.000000
# 3 -0.004553 -0.002924 0.015268 0.000000 0.000000 0.000000
# 4 0.000000 0.000000 0.000000 0.030251 0.000000 0.000000
# 5 0.000000 0.000000 0.000000 0.000000 0.023153 0.000000
# 6 0.000000 0.000000 0.000000 0.000000 0.000000 0.028141
#
#
# Mechanical properties :
#
#
# Convention : Reuss Voigt Hill
#
# Bulk Modulus (GPa) = 59.28646 61.49125 60.38886
# Shear Modulus (GPa) = 32.88716 34.10202 33.49459
#
# Velocity S-wave (km/s) = 4.07145 4.14597 4.10888
# Velocity P-wave (km/s) = 7.21009 7.34256 7.27663
#
# Compressibility (1/GPa) = 0.01686726
#
# Stress axis : x y z
#
# Youngs Moduli (GPa) = 67.83338 92.10016 65.49663
#
# Poissons Ratio (x) = 0.41657 0.29822
# Poissons Ratio (y) = 0.30681 0.19151
# Poissons Ratio (z) = 0.30886 0.26930
#
# Static dielectric constant tensor:
#      x y z
#    x 3.456690 0.000000 0.000000 
#    y 0.000000 3.279710 0.000000 
#    z 0.000000 0.000000 3.585280 
# 
# 
# High freq. dielectric constant tensor:
#      x y z
#    x 1.780870 0.000000 0.000000 
#    y 0.000000 1.783010 0.000000 
#    z 0.000000 0.000000 1.759170 
# 
# From -- ./inp_files/11717.got.cif
#   From: 2010.06.25/outbox.cif.g09.slc.cpg/sg43_6_cif.got.tgz:11717.got - 2010.06.26 16:48:59.
