data_PCOD8187162
_publ_section_title
;
Structure prediction by ZEFSAII (Michael W. Deem and Ramdas Pophale) SiO2 
 PCOD8187162
Probable space group: F D D 2
;
_chemical_formula_sum "Si O2"
_cell_formula_units_Z 72
_cell_length_a 26.128818
_cell_length_b 6.379327
_cell_length_c 18.938063
_cell_angle_alpha 90.000000
_cell_angle_beta 90.000000
_cell_angle_gamma 90.000000
_cell_volume 3156.677285
_symmetry_space_group_name_H-M "F D D 2"
_symmetry_group_IT_number 43
_symmetry_cell_setting 'orthorhombic'
loop_
_space_group_symop_operation_xyz
x,y,z
-x,-y,z
1/4-x,1/4+y,1/4+z
1/4+x,1/4-y,1/4+z
x,1/2+y,1/2+z
-x,1/2-y,1/2+z
1/4-x,3/4+y,3/4+z
1/4+x,3/4-y,3/4+z
1/2+x,y,1/2+z
1/2-x,-y,1/2+z
3/4-x,1/4+y,3/4+z
3/4+x,1/4-y,3/4+z
1/2+x,1/2+y,z
1/2-x,1/2-y,z
3/4-x,3/4+y,1/4+z
3/4+x,3/4-y,1/4+z
loop_
_atom_site_type_symbol
_atom_site_label
_atom_site_fract_x
_atom_site_fract_y
_atom_site_fract_z
Si Si1 0.217110 0.431056 0.579170
Si Si2 0.944153 0.043802 0.066632
Si Si3 0.118069 0.386610 0.871577
Si Si4 0.639890 0.249646 0.527279
Si Si5 0.500000 0.500000 0.932200
O O1 0.250000 0.250000 0.538320
O O2 0.173130 0.321804 0.625838
O O3 0.190551 0.600543 0.527457
O O4 0.256838 0.546057 0.632528
O O5 0.922263 0.261470 0.096855
O O6 0.904504 0.852627 0.076396
O O7 0.000000 0.000000 0.102286
O O8 0.950745 0.049495 0.981006
O O9 0.098732 0.222286 0.812717
O O10 0.123908 0.277319 0.946675
#
# Coordination Sequence:
#
# PCOD8187162 Si02
#       5
#    16  16  16  16   8
#     4  11  22  38  65 100 131 178 226 275 337 412
#     4   9  22  40  67  98 131 175 229 276 333 405
#     4  11  24  43  67  98 138 177 224 288 346 404
#     4  11  23  42  65  98 136 178 227 287 341 409
#     4  10  20  42  70  98 122 174 228 272 324 420
#
# _framework density 22.808793000000001
#
# number of rings (size 3 to 8) (size 9 to 14) (size 15 to 20)
#    0.667    0.889    0.000    5.333    0.000    6.222 
#    0.000   11.111    0.000    0.000    0.000    0.000 
#    0.000    0.000    0.000    0.000    0.000    0.000 
#
# Total GULP energy -223013.625972 kJ/mol
# GULP energy per Si atom -12389.645887 kJ/mol
# Density = 2.275688 g / cm^3
# Si number density = 22.808793 Si / 1000 Ang^3
#
#
#
# Elastic Constant Matrix: (Units=GPa)
#
#
# Indices 1 2 3 4 5 6 
#
# 1 95.9747 43.4804 9.0009 -0.0003 0.0004 0.0009
# 2 43.4804 124.2714 27.4895 -0.0008 0.0004 0.0013
# 3 9.0009 27.4895 65.8369 -0.0001 0.0001 0.0003
# 4 -0.0003 -0.0008 -0.0001 31.3239 0.0001 0.0003
# 5 0.0004 0.0004 0.0001 0.0001 33.4263 -0.0003
# 6 0.0009 0.0013 0.0003 0.0003 -0.0003 53.5471
#
#
#
# Elastic Compliance Matrix: (Units=1/GPa)
#
#
# Indices 1 2 3 4 5 6 
#
# 1 0.012383 -0.004361 0.000128 0.000000 0.000000 0.000000
# 2 -0.004361 0.010402 -0.003747 0.000000 0.000000 0.000000
# 3 0.000128 -0.003747 0.016736 0.000000 0.000000 0.000000
# 4 0.000000 0.000000 0.000000 0.031925 0.000000 0.000000
# 5 0.000000 0.000000 0.000000 0.000000 0.029917 0.000000
# 6 0.000000 0.000000 0.000000 0.000000 0.000000 0.018675
#
#
# Mechanical properties :
#
#
# Convention : Reuss Voigt Hill
#
# Bulk Modulus (GPa) = 42.44319 49.55830 46.00075
# Shear Modulus (GPa) = 34.75835 37.40025 36.07930
#
# Velocity S-wave (km/s) = 3.90795 4.05375 3.98152
# Velocity P-wave (km/s) = 6.24591 6.60949 6.43027
#
# Compressibility (1/GPa) = 0.02356091
#
# Stress axis : x y z
#
# Youngs Moduli (GPa) = 80.75526 96.13959 59.75133
#
# Poissons Ratio (x) = 0.41926 -0.00764
# Poissons Ratio (y) = 0.35217 0.22388
# Poissons Ratio (z) = -0.01033 0.36022
#
# Static dielectric constant tensor:
#      x y z
#    x 4.178460 0.000000 0.000000 
#    y 0.000000 4.222700 0.000000 
#    z 0.000000 0.000000 3.602970 
# 
# 
# High freq. dielectric constant tensor:
#      x y z
#    x 1.911490 0.000000 0.000000 
#    y 0.000000 1.913590 0.000000 
#    z 0.000000 0.000000 1.860290 
# 
# From -- ./inp_files/15658.got.cif
#   From: 2010.06.25/outbox.cif.g09.slc.cpg/sg43_8_cif.got.tgz:15658.got - 2010.06.26 16:48:59.
