data_PCOD8187452
_publ_section_title
;
Structure prediction by ZEFSAII (Michael W. Deem and Ramdas Pophale) SiO2 
 PCOD8187452
Probable space group: F D D 2
;
_chemical_formula_sum "Si O2"
_cell_formula_units_Z 72
_cell_length_a 7.388093
_cell_length_b 21.339710
_cell_length_c 18.099686
_cell_angle_alpha 90.000000
_cell_angle_beta 90.000000
_cell_angle_gamma 90.000000
_cell_volume 2853.592188
_symmetry_space_group_name_H-M "F D D 2"
_symmetry_group_IT_number 43
_symmetry_cell_setting 'orthorhombic'
loop_
_space_group_symop_operation_xyz
x,y,z
-x,-y,z
1/4-x,1/4+y,1/4+z
1/4+x,1/4-y,1/4+z
x,1/2+y,1/2+z
-x,1/2-y,1/2+z
1/4-x,3/4+y,3/4+z
1/4+x,3/4-y,3/4+z
1/2+x,y,1/2+z
1/2-x,-y,1/2+z
3/4-x,1/4+y,3/4+z
3/4+x,1/4-y,3/4+z
1/2+x,1/2+y,z
1/2-x,1/2-y,z
3/4-x,3/4+y,1/4+z
3/4+x,3/4-y,1/4+z
loop_
_atom_site_type_symbol
_atom_site_label
_atom_site_fract_x
_atom_site_fract_y
_atom_site_fract_z
Si Si1 0.753027 0.881995 0.818900
Si Si2 0.000000 0.500000 0.991518
Si Si3 0.152612 0.105599 0.303088
Si Si4 0.451243 0.065799 0.211774
Si Si5 0.652640 0.453221 0.933266
O O1 0.741606 0.812032 0.789715
O O2 0.554899 0.914484 0.815865
O O3 0.808005 0.874001 0.904914
O O4 0.899666 0.922079 0.775378
O O5 0.820838 0.500740 0.941536
O O6 0.253410 0.057565 0.247958
O O7 0.273515 0.102938 0.378731
O O8 0.160968 0.173824 0.262325
O O9 0.500000 0.000000 0.172659
O O10 0.500000 0.500000 0.899818
#
# Coordination Sequence:
#
# PCOD8187452 Si02
#       5
#    16   8  16  16  16
#     4  11  24  47  71 107 146 190 243 298 369 442
#     4  10  22  44  76  98 140 192 230 296 364 432
#     4  11  25  44  69 105 141 187 244 298 357 436
#     4  12  26  45  73 107 149 193 243 304 373 442
#     4  11  24  45  72 104 144 189 235 295 362 428
#
# _framework density 25.231355000000001
#
# number of rings (size 3 to 8) (size 9 to 14) (size 15 to 20)
#    0.000    0.889    1.111    6.000    0.000    6.222 
#    0.000    0.000    0.000    0.000    0.000    0.000 
#    0.000    0.000    0.000    0.000    0.000    0.000 
#
# Total GULP energy -223039.863699 kJ/mol
# GULP energy per Si atom -12391.103539 kJ/mol
# Density = 2.517393 g / cm^3
# Si number density = 25.231355 Si / 1000 Ang^3
#
#
#
# Elastic Constant Matrix: (Units=GPa)
#
#
# Indices 1 2 3 4 5 6 
#
# 1 152.1484 29.2165 66.4652 0.0000 0.0000 0.0000
# 2 29.2165 77.8744 25.4752 0.0000 0.0000 0.0000
# 3 66.4652 25.4752 126.1381 0.0000 0.0000 0.0000
# 4 0.0000 0.0000 0.0000 32.0194 0.0000 0.0000
# 5 0.0000 0.0000 0.0000 0.0000 39.0751 0.0000
# 6 0.0000 0.0000 0.0000 0.0000 0.0000 38.5965
#
#
#
# Elastic Compliance Matrix: (Units=1/GPa)
#
#
# Indices 1 2 3 4 5 6 
#
# 1 0.008795 -0.001910 -0.004249 0.000000 0.000000 0.000000
# 2 -0.001910 0.014164 -0.001854 0.000000 0.000000 0.000000
# 3 -0.004249 -0.001854 0.010541 0.000000 0.000000 0.000000
# 4 0.000000 0.000000 0.000000 0.031231 0.000000 0.000000
# 5 0.000000 0.000000 0.000000 0.000000 0.025592 0.000000
# 6 0.000000 0.000000 0.000000 0.000000 0.000000 0.025909
#
#
# Mechanical properties :
#
#
# Convention : Reuss Voigt Hill
#
# Bulk Modulus (GPa) = 57.22501 66.49719 61.86110
# Shear Modulus (GPa) = 36.20997 37.60511 36.90754
#
# Velocity S-wave (km/s) = 3.79240 3.86477 3.82876
# Velocity P-wave (km/s) = 6.47347 6.80643 6.64204
#
# Compressibility (1/GPa) = 0.01747488
#
# Stress axis : x y z
#
# Youngs Moduli (GPa) = 113.69680 70.59985 94.86685
#
# Poissons Ratio (x) = 0.13484 0.40307
# Poissons Ratio (y) = 0.21715 0.17591
# Poissons Ratio (z) = 0.48307 0.13091
#
# Static dielectric constant tensor:
#      x y z
#    x 5.049770 0.000000 0.000000 
#    y 0.000000 4.258210 0.000000 
#    z 0.000000 0.000000 4.660010 
# 
# 
# High freq. dielectric constant tensor:
#      x y z
#    x 2.025980 0.000000 0.000000 
#    y 0.000000 1.989800 0.000000 
#    z 0.000000 0.000000 2.008910 
# 
# From -- ./inp_files/16258.got.cif
#   From: 2010.06.25/outbox.cif.g09.slc.cpg/sg43_9_cif.got.tgz:16258.got - 2010.06.26 16:48:59.
