data_PCOD8187560
_publ_section_title
;
Structure prediction by ZEFSAII (Michael W. Deem and Ramdas Pophale) SiO2 
 PCOD8187560
Probable space group: F D D 2
;
_chemical_formula_sum "Si O2"
_cell_formula_units_Z 88
_cell_length_a 19.862350
_cell_length_b 7.812192
_cell_length_c 26.457507
_cell_angle_alpha 90.000000
_cell_angle_beta 90.000000
_cell_angle_gamma 90.000000
_cell_volume 4105.371457
_symmetry_space_group_name_H-M "F D D 2"
_symmetry_group_IT_number 43
_symmetry_cell_setting 'orthorhombic'
loop_
_space_group_symop_operation_xyz
x,y,z
-x,-y,z
1/4-x,1/4+y,1/4+z
1/4+x,1/4-y,1/4+z
x,1/2+y,1/2+z
-x,1/2-y,1/2+z
1/4-x,3/4+y,3/4+z
1/4+x,3/4-y,3/4+z
1/2+x,y,1/2+z
1/2-x,-y,1/2+z
3/4-x,1/4+y,3/4+z
3/4+x,1/4-y,3/4+z
1/2+x,1/2+y,z
1/2-x,1/2-y,z
3/4-x,3/4+y,1/4+z
3/4+x,3/4-y,1/4+z
loop_
_atom_site_type_symbol
_atom_site_label
_atom_site_fract_x
_atom_site_fract_y
_atom_site_fract_z
Si Si1 0.051980 0.684511 0.662260
Si Si2 0.339539 0.042755 0.188308
Si Si3 0.065252 0.346041 0.602384
Si Si4 0.808056 0.381675 0.089661
Si Si5 0.955601 0.336233 0.240618
Si Si6 0.250000 0.250000 0.261423
O O1 0.118413 0.794546 0.668914
O O2 0.073868 0.490751 0.646905
O O3 0.004869 0.752709 0.615833
O O4 0.003343 0.699824 0.711656
O O5 0.284921 0.100488 0.229362
O O6 0.293280 0.983180 0.141303
O O7 0.389622 0.894227 0.208739
O O8 0.124293 0.214992 0.602850
O O9 0.059622 0.424340 0.546326
O O10 0.750000 0.250000 0.076155
O O11 0.820092 0.506200 0.042755
O O12 0.000000 0.500000 0.254397
#
# Coordination Sequence:
#
# PCOD8187560 Si02
#       6
#    16  16  16  16  16   8
#     4   9  21  45  73  88 132 178 228 268 333 409
#     4  11  25  45  69 100 134 179 223 282 337 404
#     4  10  24  44  70 100 130 181 224 276 340 409
#     4  12  29  39  67 105 136 175 223 286 340 404
#     4  10  24  44  69  98 132 182 227 273 340 409
#     4  10  26  42  70 100 134 178 216 286 344 384
#
# _framework density 21.435333
#
# number of rings (size 3 to 8) (size 9 to 14) (size 15 to 20)
#    0.000    1.818    1.818    0.000   16.545    1.455 
#    0.000    0.000    0.000    0.000    0.000    0.000 
#    0.000    0.000    0.000    0.000    0.000    0.000 
#
# Total GULP energy -272623.303506 kJ/mol
# GULP energy per Si atom -12391.968341 kJ/mol
# Density = 2.138655 g / cm^3
# Si number density = 21.435333 Si / 1000 Ang^3
#
#
#
# Elastic Constant Matrix: (Units=GPa)
#
#
# Indices 1 2 3 4 5 6 
#
# 1 47.4061 26.2128 21.2432 0.0000 0.0000 -0.0002
# 2 26.2128 85.3869 63.8408 0.0000 0.0000 -0.0004
# 3 21.2432 63.8408 144.4633 0.0000 0.0000 0.0000
# 4 0.0000 0.0000 0.0000 29.3317 0.0000 0.0000
# 5 0.0000 0.0000 0.0000 0.0000 28.9280 0.0000
# 6 -0.0002 -0.0004 0.0000 0.0000 0.0000 36.5915
#
#
#
# Elastic Compliance Matrix: (Units=1/GPa)
#
#
# Indices 1 2 3 4 5 6 
#
# 1 0.025425 -0.007482 -0.000432 0.000000 0.000000 0.000000
# 2 -0.007482 0.019692 -0.007602 0.000000 0.000000 0.000000
# 3 -0.000432 -0.007602 0.010345 0.000000 0.000000 0.000000
# 4 0.000000 0.000000 0.000000 0.034093 0.000000 0.000000
# 5 0.000000 0.000000 0.000000 0.000000 0.034569 0.000000
# 6 0.000000 0.000000 0.000000 0.000000 0.000000 0.027329
#
#
# Mechanical properties :
#
#
# Convention : Reuss Voigt Hill
#
# Bulk Modulus (GPa) = 40.93371 55.53886 48.23629
# Shear Modulus (GPa) = 26.22903 30.03422 28.13162
#
# Velocity S-wave (km/s) = 3.50184 3.74726 3.62663
# Velocity P-wave (km/s) = 5.95721 6.68497 6.33156
#
# Compressibility (1/GPa) = 0.02442974
#
# Stress axis : x y z
#
# Youngs Moduli (GPa) = 39.33110 50.78192 96.66303
#
# Poissons Ratio (x) = 0.37995 0.04179
# Poissons Ratio (y) = 0.29427 0.73484
# Poissons Ratio (z) = 0.01700 0.38605
#
# Static dielectric constant tensor:
#      x y z
#    x 3.603490 0.000000 0.000000 
#    y 0.000000 3.880990 0.000000 
#    z 0.000000 0.000000 4.086220 
# 
# 
# High freq. dielectric constant tensor:
#      x y z
#    x 1.833860 0.000000 0.000000 
#    y 0.000000 1.835800 0.000000 
#    z 0.000000 0.000000 1.854130 
# 
# From -- ./inp_files/22348.got.cif
#   From: 2010.06.25/outbox.cif.g09.slc.cpg/sg43_12_cif.got.tgz:22348.got - 2010.06.26 16:48:59.
