data_PCOD8187954
_publ_section_title
;
Structure prediction by ZEFSAII (Michael W. Deem and Ramdas Pophale) SiO2 
 PCOD8187954
Probable space group: I M M 2
;
_chemical_formula_sum "Si O2"
_cell_formula_units_Z 64
_cell_length_a 8.891668
_cell_length_b 19.790206
_cell_length_c 20.971669
_cell_angle_alpha 90.000000
_cell_angle_beta 90.000000
_cell_angle_gamma 90.000000
_cell_volume 3690.341422
_symmetry_space_group_name_H-M "I M M 2"
_symmetry_group_IT_number 44
_symmetry_cell_setting 'orthorhombic'
loop_
_space_group_symop_operation_xyz
x,y,z
-x,-y,z
-x,y,z
x,-y,z
1/2+x,1/2+y,1/2+z
1/2-x,1/2-y,1/2+z
1/2-x,1/2+y,1/2+z
1/2+x,1/2-y,1/2+z
loop_
_atom_site_type_symbol
_atom_site_label
_atom_site_fract_x
_atom_site_fract_y
_atom_site_fract_z
Si Si1 0.178529 0.791840 0.854930
Si Si2 0.820886 0.214026 0.236826
Si Si3 0.678589 0.926785 0.673456
Si Si4 0.321366 0.208466 0.614242
Si Si5 0.175933 0.423651 0.319157
Si Si6 0.174904 0.924089 0.426881
Si Si7 0.177557 0.705183 0.974137
Si Si8 0.178368 0.927199 0.282674
O O1 0.249114 0.758056 0.792634
O O2 0.231341 0.869623 0.860994
O O3 0.240134 0.753109 0.918008
O O4 0.000000 0.788090 0.850546
O O5 0.763150 0.239658 0.168068
O O6 0.765129 0.136087 0.240915
O O7 0.000000 0.220305 0.244005
O O8 0.500000 0.928034 0.671284
O O9 0.743647 0.866544 0.629810
O O10 0.728235 0.914391 0.746240
O O11 0.740851 0.000000 0.649928
O O12 0.500000 0.205474 0.617375
O O13 0.268035 0.231896 0.543875
O O14 0.212627 0.500000 0.342538
O O15 0.000000 0.408338 0.326747
O O16 0.265817 0.871486 0.469285
O O17 0.235407 0.917276 0.354720
O O18 0.000000 0.905807 0.430351
O O19 0.204896 0.000000 0.452307
O O20 0.000000 0.703594 0.970963
O O21 0.000000 0.929470 0.283499
O O22 0.238514 0.000000 0.256044
#
# Coordination Sequence:
#
# PCOD8187954 Si02
#       8
#     8   8   8   8   8   8   8   8
#     4  11  21  31  46  71 104 132 155 192 241 293
#     4  10  17  30  54  73  89 122 168 210 239 275
#     4   8  13  23  43  70  93 113 147 196 236 266
#     4   9  17  29  46  69  94 124 163 202 237 274
#     4   9  17  31  53  77  95 117 161 209 239 274
#     4   9  17  30  48  70  97 127 161 201 239 278
#     4  10  21  33  45  68 102 135 163 192 233 290
#     4   8  14  25  45  73  96 114 147 201 252 281
#
# _framework density 17.342569000000001
#
# number of rings (size 3 to 8) (size 9 to 14) (size 15 to 20)
#    0.000    2.750    2.500    1.875    0.000    1.500 
#    0.000    1.875    0.000    1.125    0.000    3.500 
#    0.000    0.000    0.000    0.000    0.000    0.000 
#
# Total GULP energy -396542.730288 kJ/mol
# GULP energy per Si atom -12391.960321 kJ/mol
# Density = 1.730310 g / cm^3
# Si number density = 17.342569 Si / 1000 Ang^3
#
#
#
# Elastic Constant Matrix: (Units=GPa)
#
#
# Indices 1 2 3 4 5 6 
#
# 1 17.7592 19.3468 18.6591 0.0000 0.0000 0.0000
# 2 19.3468 133.0162 68.6140 0.0000 0.0000 0.0000
# 3 18.6591 68.6140 116.3334 0.0000 0.0000 0.0000
# 4 0.0000 0.0000 0.0000 24.1291 0.0000 0.0000
# 5 0.0000 0.0000 0.0000 0.0000 14.4249 0.0000
# 6 0.0000 0.0000 0.0000 0.0000 0.0000 18.0828
#
#
#
# Elastic Compliance Matrix: (Units=1/GPa)
#
#
# Indices 1 2 3 4 5 6 
#
# 1 0.071354 -0.006431 -0.007652 0.000000 0.000000 0.000000
# 2 -0.006431 0.011385 -0.005683 0.000000 0.000000 0.000000
# 3 -0.007652 -0.005683 0.013175 0.000000 0.000000 0.000000
# 4 0.000000 0.000000 0.000000 0.041444 0.000000 0.000000
# 5 0.000000 0.000000 0.000000 0.000000 0.069324 0.000000
# 6 0.000000 0.000000 0.000000 0.000000 0.000000 0.055301
#
#
# Mechanical properties :
#
#
# Convention : Reuss Voigt Hill
#
# Bulk Modulus (GPa) = 17.73611 53.37208 35.55410
# Shear Modulus (GPa) = 15.60985 22.02662 18.81824
#
# Velocity S-wave (km/s) = 3.00340 3.56770 3.29764
# Velocity P-wave (km/s) = 4.71978 6.91472 5.91987
#
# Compressibility (1/GPa) = 0.05638213
#
# Stress axis : x y z
#
# Youngs Moduli (GPa) = 14.01455 87.83516 75.89956
#
# Poissons Ratio (x) = 0.56490 0.58075
# Poissons Ratio (y) = 0.09013 0.43136
# Poissons Ratio (z) = 0.10723 0.49920
#
# Static dielectric constant tensor:
#      x y z
#    x 2.796550 0.000000 0.000000 
#    y 0.000000 3.764430 0.000000 
#    z 0.000000 0.000000 3.300520 
# 
# 
# High freq. dielectric constant tensor:
#      x y z
#    x 1.627840 0.000000 0.000000 
#    y 0.000000 1.681100 0.000000 
#    z 0.000000 0.000000 1.645950 
# 
# From -- ./inp_files/23432.got.cif
#   From: 2010.03.12/outbox.cif.g09.slc.cpg/sg44_12_cif.got.tgz:23432.got - 2010.04.14 02:36:11.
