data_PCOD8187891
_publ_section_title
;
Structure prediction by ZEFSAII (Michael W. Deem and Ramdas Pophale) SiO2 
 PCOD8187891
Probable space group: I M M 2
;
_chemical_formula_sum "Si O2"
_cell_formula_units_Z 64
_cell_length_a 9.138774
_cell_length_b 14.739194
_cell_length_c 28.457908
_cell_angle_alpha 90.000000
_cell_angle_beta 90.000000
_cell_angle_gamma 90.000000
_cell_volume 3833.227928
_symmetry_space_group_name_H-M "I M M 2"
_symmetry_group_IT_number 44
_symmetry_cell_setting 'orthorhombic'
loop_
_space_group_symop_operation_xyz
x,y,z
-x,-y,z
-x,y,z
x,-y,z
1/2+x,1/2+y,1/2+z
1/2-x,1/2-y,1/2+z
1/2-x,1/2+y,1/2+z
1/2+x,1/2-y,1/2+z
loop_
_atom_site_type_symbol
_atom_site_label
_atom_site_fract_x
_atom_site_fract_y
_atom_site_fract_z
Si Si1 0.174021 0.101949 0.004990
Si Si2 0.825979 0.898051 0.109114
Si Si3 0.326283 0.901200 0.379874
Si Si4 0.173878 0.215724 0.195640
Si Si5 0.326122 0.715724 0.418464
Si Si6 0.666777 0.895060 0.273939
Si Si7 0.673717 0.098800 0.734230
Si Si8 0.333223 0.104940 0.840165
O O1 0.229780 0.130356 0.057052
O O2 0.000000 0.103697 0.004133
O O3 0.228622 0.000000 0.993052
O O4 0.237772 0.172270 0.966556
O O5 0.762228 0.827730 0.147548
O O6 0.000000 0.896303 0.109971
O O7 0.771378 0.000000 0.121052
O O8 0.500000 0.906474 0.378860
O O9 0.273222 0.820824 0.414627
O O10 0.273987 0.880118 0.326860
O O11 0.264746 0.000000 0.396600
O O12 0.229546 0.161416 0.240299
O O13 0.226778 0.320824 0.199477
O O14 0.000000 0.209688 0.196090
O O15 0.500000 0.709688 0.418014
O O16 0.270454 0.661416 0.373805
O O17 0.500000 0.860896 0.268757
O O18 0.678022 0.000000 0.259879
O O19 0.500000 0.093526 0.735244
O O20 0.726013 0.119882 0.787244
O O21 0.735254 0.000000 0.717504
O O22 0.500000 0.139104 0.845347
O O23 0.321978 0.000000 0.854225
#
# Coordination Sequence:
#
# PCOD8187891 Si02
#       8
#     8   8   8   8   8   8   8   8
#     4   8  14  24  37  56  82 104 122 155 204 244
#     4   8  14  24  37  56  82 104 122 155 204 244
#     4   8  15  27  40  56  81 110 134 158 196 240
#     4  10  17  25  43  64  77  99 139 174 191 220
#     4  10  17  25  43  64  77  99 139 174 191 220
#     4   9  17  28  40  56  83 113 131 151 196 248
#     4   8  15  27  40  56  81 110 134 158 196 240
#     4   9  17  28  40  56  83 113 131 151 196 248
#
# _framework density 16.696111999999999
#
# number of rings (size 3 to 8) (size 9 to 14) (size 15 to 20)
#    0.000    3.250    0.000    3.750    0.000    1.500 
#    0.000    0.000    0.000    3.750    0.000    8.750 
#    0.000    0.000    0.000    2.250    0.000    2.750 
#
# Total GULP energy -396508.226391 kJ/mol
# GULP energy per Si atom -12390.882075 kJ/mol
# Density = 1.665811 g / cm^3
# Si number density = 16.696112 Si / 1000 Ang^3
#
#
#
# Elastic Constant Matrix: (Units=GPa)
#
#
# Indices 1 2 3 4 5 6 
#
# 1 8.4316 13.4461 8.8707 0.0000 0.0000 0.0000
# 2 13.4461 140.6934 97.5998 0.0000 0.0000 0.0000
# 3 8.8707 97.5998 112.6657 0.0000 0.0000 0.0000
# 4 0.0000 0.0000 0.0000 31.4432 0.0000 0.0000
# 5 0.0000 0.0000 0.0000 0.0000 13.4274 0.0000
# 6 0.0000 0.0000 0.0000 0.0000 0.0000 12.7996
#
#
#
# Elastic Compliance Matrix: (Units=1/GPa)
#
#
# Indices 1 2 3 4 5 6 
#
# 1 0.140018 -0.014369 0.001423 0.000000 0.000000 0.000000
# 2 -0.014369 0.019286 -0.015575 0.000000 0.000000 0.000000
# 3 0.001423 -0.015575 0.022256 0.000000 0.000000 0.000000
# 4 0.000000 0.000000 0.000000 0.031803 0.000000 0.000000
# 5 0.000000 0.000000 0.000000 0.000000 0.074475 0.000000
# 6 0.000000 0.000000 0.000000 0.000000 0.000000 0.078128
#
#
# Mechanical properties :
#
#
# Convention : Reuss Voigt Hill
#
# Bulk Modulus (GPa) = 8.03096 55.73598 31.88347
# Shear Modulus (GPa) = 10.76394 20.99231 15.87812
#
# Velocity S-wave (km/s) = 2.54184 3.54971 3.08719
# Velocity P-wave (km/s) = 3.66540 7.08913 5.64317
#
# Compressibility (1/GPa) = 0.12451815
#
# Stress axis : x y z
#
# Youngs Moduli (GPa) = 7.14192 51.85236 44.93104
#
# Poissons Ratio (x) = 0.74504 -0.06393
# Poissons Ratio (y) = 0.10262 0.69981
# Poissons Ratio (z) = -0.01016 0.80762
#
# Static dielectric constant tensor:
#      x y z
#    x 2.633720 0.000000 0.000000 
#    y 0.000000 3.617440 0.000000 
#    z 0.000000 0.000000 3.297720 
# 
# 
# High freq. dielectric constant tensor:
#      x y z
#    x 1.589920 0.000000 0.000000 
#    y 0.000000 1.649760 0.000000 
#    z 0.000000 0.000000 1.628430 
# 
# From -- ./inp_files/7713.got.cif
#   From: 2010.03.12/outbox.cif.g09.slc.cpg/sg44_4_cif.got.tgz:7713.got - 2010.04.14 02:36:11.
