data_PCOD8187156
_publ_section_title
;
Structure prediction by ZEFSAII (Michael W. Deem and Ramdas Pophale) SiO2 
 PCOD8187156
Probable space group: F D D 2
;
_chemical_formula_sum "Si O2"
_cell_formula_units_Z 88
_cell_length_a 5.321212
_cell_length_b 29.219638
_cell_length_c 22.695698
_cell_angle_alpha 90.000000
_cell_angle_beta 90.000000
_cell_angle_gamma 90.000000
_cell_volume 3528.815374
_symmetry_space_group_name_H-M "F D D 2"
_symmetry_group_IT_number 43
_symmetry_cell_setting 'orthorhombic'
loop_
_space_group_symop_operation_xyz
x,y,z
-x,-y,z
1/4-x,1/4+y,1/4+z
1/4+x,1/4-y,1/4+z
x,1/2+y,1/2+z
-x,1/2-y,1/2+z
1/4-x,3/4+y,3/4+z
1/4+x,3/4-y,3/4+z
1/2+x,y,1/2+z
1/2-x,-y,1/2+z
3/4-x,1/4+y,3/4+z
3/4+x,1/4-y,3/4+z
1/2+x,1/2+y,z
1/2-x,1/2-y,z
3/4-x,3/4+y,1/4+z
3/4+x,3/4-y,1/4+z
loop_
_atom_site_type_symbol
_atom_site_label
_atom_site_fract_x
_atom_site_fract_y
_atom_site_fract_z
Si Si1 0.000000 0.500000 0.325230
Si Si2 0.877478 0.955412 0.413875
Si Si3 0.953083 0.096446 0.645588
Si Si4 0.436716 0.331650 0.561409
Si Si5 0.316815 0.860125 0.745436
Si Si6 0.473138 0.552979 0.110453
O O1 0.821126 0.529553 0.365474
O O2 0.846594 0.461971 0.286308
O O3 0.760975 0.920154 0.458600
O O4 0.089619 0.929801 0.377235
O O5 0.000000 0.000000 0.446294
O O6 0.930543 0.125931 0.706992
O O7 0.708622 0.064345 0.652226
O O8 0.906220 0.123920 0.583255
O O9 0.213527 0.068031 0.642838
O O10 0.216732 0.344088 0.515954
O O11 0.236056 0.829585 0.799830
O O12 0.500000 0.500000 0.095852
#
# Coordination Sequence:
#
# PCOD8187156 Si02
#       6
#     8  16  16  16  16  16
#     4  10  20  42  66  96 148 178 234 304 364 412
#     4  10  22  42  66 102 143 180 236 308 362 423
#     4  11  24  46  71 105 151 190 240 307 371 436
#     4  10  23  41  69 104 143 192 235 305 367 432
#     4  11  23  41  74 106 139 196 256 292 374 449
#     4  11  27  47  74 108 149 196 243 310 371 441
#
# _framework density 24.937548
#
# number of rings (size 3 to 8) (size 9 to 14) (size 15 to 20)
#    0.000    1.455    1.818    2.727    1.273    8.727 
#    0.000    2.727    0.000    0.000    0.000    0.000 
#    0.000    0.000    0.000    0.000    0.000    0.000 
#
# Total GULP energy -272591.001087 kJ/mol
# GULP energy per Si atom -12390.500049 kJ/mol
# Density = 2.488079 g / cm^3
# Si number density = 24.937548 Si / 1000 Ang^3
#
#
#
# Elastic Constant Matrix: (Units=GPa)
#
#
# Indices 1 2 3 4 5 6 
#
# 1 148.8818 66.4362 39.4754 0.0000 0.0000 0.0000
# 2 66.4362 133.7917 38.6633 0.0000 0.0000 0.0000
# 3 39.4754 38.6633 78.3718 0.0000 0.0000 0.0000
# 4 0.0000 0.0000 0.0000 29.0923 0.0000 0.0000
# 5 0.0000 0.0000 0.0000 0.0000 32.7381 0.0000
# 6 0.0000 0.0000 0.0000 0.0000 0.0000 46.4397
#
#
#
# Elastic Compliance Matrix: (Units=1/GPa)
#
#
# Indices 1 2 3 4 5 6 
#
# 1 0.009110 -0.003729 -0.002749 0.000000 0.000000 0.000000
# 2 -0.003729 0.010244 -0.003175 0.000000 0.000000 0.000000
# 3 -0.002749 -0.003175 0.015711 0.000000 0.000000 0.000000
# 4 0.000000 0.000000 0.000000 0.034373 0.000000 0.000000
# 5 0.000000 0.000000 0.000000 0.000000 0.030545 0.000000
# 6 0.000000 0.000000 0.000000 0.000000 0.000000 0.021533
#
#
# Mechanical properties :
#
#
# Convention : Reuss Voigt Hill
#
# Bulk Modulus (GPa) = 63.46087 72.24391 67.85239
# Shear Modulus (GPa) = 34.22904 36.08537 35.15720
#
# Velocity S-wave (km/s) = 3.70887 3.80811 3.75882
# Velocity P-wave (km/s) = 6.62149 6.95474 6.79016
#
# Compressibility (1/GPa) = 0.01575774
#
# Stress axis : x y z
#
# Youngs Moduli (GPa) = 109.77367 97.62150 63.65124
#
# Poissons Ratio (x) = 0.36405 0.17496
# Poissons Ratio (y) = 0.40937 0.20210
# Poissons Ratio (z) = 0.30174 0.30996
#
# Static dielectric constant tensor:
#      x y z
#    x 4.452220 0.000000 0.000000 
#    y 0.000000 4.936360 0.000000 
#    z 0.000000 0.000000 4.219750 
# 
# 
# High freq. dielectric constant tensor:
#      x y z
#    x 2.006130 0.000000 0.000000 
#    y 0.000000 2.003510 0.000000 
#    z 0.000000 0.000000 1.972090 
# 
# From -- ./inp_files/19545.got.cif
#   From: 2010.06.25/outbox.cif.g09.slc.cpg/sg43_10_cif.got.tgz:19545.got - 2010.06.26 16:48:59.
