data_PCOD8187641
_publ_section_title
;
Structure prediction by ZEFSAII (Michael W. Deem and Ramdas Pophale) SiO2 
 PCOD8187641
Probable space group: F D D 2
;
_chemical_formula_sum "Si O2"
_cell_formula_units_Z 96
_cell_length_a 25.362831
_cell_length_b 14.731716
_cell_length_c 12.760423
_cell_angle_alpha 90.000000
_cell_angle_beta 90.000000
_cell_angle_gamma 90.000000
_cell_volume 4767.779226
_symmetry_space_group_name_H-M "F D D 2"
_symmetry_group_IT_number 43
_symmetry_cell_setting 'orthorhombic'
loop_
_space_group_symop_operation_xyz
x,y,z
-x,-y,z
1/4-x,1/4+y,1/4+z
1/4+x,1/4-y,1/4+z
x,1/2+y,1/2+z
-x,1/2-y,1/2+z
1/4-x,3/4+y,3/4+z
1/4+x,3/4-y,3/4+z
1/2+x,y,1/2+z
1/2-x,-y,1/2+z
3/4-x,1/4+y,3/4+z
3/4+x,1/4-y,3/4+z
1/2+x,1/2+y,z
1/2-x,1/2-y,z
3/4-x,3/4+y,1/4+z
3/4+x,3/4-y,1/4+z
loop_
_atom_site_type_symbol
_atom_site_label
_atom_site_fract_x
_atom_site_fract_y
_atom_site_fract_z
Si Si1 0.576958 0.424628 0.863110
Si Si2 0.670270 0.816174 0.292542
Si Si3 0.500000 0.000000 0.045937
Si Si4 0.415713 0.420117 0.694332
Si Si5 0.449294 0.123037 0.877081
Si Si6 0.031530 0.678695 0.366699
Si Si7 0.750000 0.750000 0.456107
O O1 0.615361 0.338728 0.850216
O O2 0.589695 0.493293 0.769578
O O3 0.517827 0.388358 0.854901
O O4 0.584997 0.473350 0.975571
O O5 0.686446 0.900295 0.219736
O O6 0.713130 0.810589 0.383519
O O7 0.462008 0.936309 0.112312
O O8 0.536372 0.933430 0.979184
O O9 0.362292 0.398991 0.631346
O O10 0.431373 0.333450 0.764779
O O11 0.483728 0.215692 0.874937
O O12 0.462611 0.065065 0.774455
#
# Coordination Sequence:
#
# PCOD8187641 Si02
#       7
#    16  16   8  16  16  16   8
#     4  11  23  39  70  99 125 173 218 274 333 387
#     4  11  23  44  67  94 133 166 219 273 326 398
#     4  11  24  43  66  96 134 169 218 273 322 394
#     4  11  21  43  68  97 129 167 223 272 321 393
#     4  11  26  41  65  94 134 177 214 267 340 389
#     4  11  22  42  68  98 126 170 222 270 330 389
#     4  11  26  49  58  94 146 167 214 285 328 398
#
# _framework density 20.135161
#
# number of rings (size 3 to 8) (size 9 to 14) (size 15 to 20)
#    0.000    1.000    5.000    2.000    4.667    2.667 
#    6.000    0.000    0.000    0.000    0.000    0.000 
#    0.000    0.000    0.000    0.000    0.000    0.000 
#
# Total GULP energy -297670.063690 kJ/mol
# GULP energy per Si atom -12402.919320 kJ/mol
# Density = 2.008933 g / cm^3
# Si number density = 20.135161 Si / 1000 Ang^3
#
#
#
# Elastic Constant Matrix: (Units=GPa)
#
#
# Indices 1 2 3 4 5 6 
#
# 1 101.6060 18.8474 38.1379 0.0000 0.0000 0.0000
# 2 18.8474 86.8996 31.0588 0.0000 0.0000 0.0000
# 3 38.1379 31.0588 117.6210 0.0000 0.0000 0.0000
# 4 0.0000 0.0000 0.0000 -9.7050 0.0000 0.0000
# 5 0.0000 0.0000 0.0000 0.0000 28.5410 0.0000
# 6 0.0000 0.0000 0.0000 0.0000 0.0000 35.6684
#
#
#
# Elastic Compliance Matrix: (Units=1/GPa)
#
#
# Indices 1 2 3 4 5 6 
#
# 1 0.011330 -0.001264 -0.003340 0.000000 0.000000 0.000000
# 2 -0.001264 0.012848 -0.002983 0.000000 0.000000 0.000000
# 3 -0.003340 -0.002983 0.010373 0.000000 0.000000 0.000000
# 4 0.000000 0.000000 0.000000 -0.103040 0.000000 0.000000
# 5 0.000000 0.000000 0.000000 0.000000 0.035037 0.000000
# 6 0.000000 0.000000 0.000000 0.000000 0.000000 0.028036
#
#
# Mechanical properties :
#
#
# Convention : Reuss Voigt Hill
#
# Bulk Modulus (GPa) = 51.60669 53.57941 52.59305
# Shear Modulus (GPa) = 308.33680 25.43970 166.88825
#
# Velocity S-wave (km/s) = 12.38814 3.55836 9.11394
# Velocity P-wave (km/s) = 15.17587 6.59925 11.70165
#
# Compressibility (1/GPa) = 0.01937733
#
# Stress axis : x y z
#
# Youngs Moduli (GPa) = 88.26125 77.83507 96.40867
#
# Poissons Ratio (x) = 0.09835 0.32201
# Poissons Ratio (y) = 0.11152 0.28757
# Poissons Ratio (z) = 0.29480 0.23217
#
# Static dielectric constant tensor:
#      x y z
#    x 3.701130 0.000000 0.000000 
#    y 0.000000 3.641020 0.000000 
#    z 0.000000 0.000000 3.733730 
# 
# 
# High freq. dielectric constant tensor:
#      x y z
#    x 1.793560 0.000000 0.000000 
#    y 0.000000 1.782480 0.000000 
#    z 0.000000 0.000000 1.791110 
# 
# From -- ./inp_files/6702.got.cif
#   From: 2010.06.25/outbox.cif.g09.slc.cpg/sg43_4_cif.got.tgz:6702.got - 2010.06.26 16:48:59.
