data_PCOD8187206
_publ_section_title
;
Structure prediction by ZEFSAII (Michael W. Deem and Ramdas Pophale) SiO2 
 PCOD8187206
Probable space group: F D D 2
;
_chemical_formula_sum "Si O2"
_cell_formula_units_Z 64
_cell_length_a 7.220036
_cell_length_b 12.253792
_cell_length_c 30.901153
_cell_angle_alpha 90.000000
_cell_angle_beta 90.000000
_cell_angle_gamma 90.000000
_cell_volume 2733.912128
_symmetry_space_group_name_H-M "F D D 2"
_symmetry_group_IT_number 43
_symmetry_cell_setting 'orthorhombic'
loop_
_space_group_symop_operation_xyz
x,y,z
-x,-y,z
1/4-x,1/4+y,1/4+z
1/4+x,1/4-y,1/4+z
x,1/2+y,1/2+z
-x,1/2-y,1/2+z
1/4-x,3/4+y,3/4+z
1/4+x,3/4-y,3/4+z
1/2+x,y,1/2+z
1/2-x,-y,1/2+z
3/4-x,1/4+y,3/4+z
3/4+x,1/4-y,3/4+z
1/2+x,1/2+y,z
1/2-x,1/2-y,z
3/4-x,3/4+y,1/4+z
3/4+x,3/4-y,1/4+z
loop_
_atom_site_type_symbol
_atom_site_label
_atom_site_fract_x
_atom_site_fract_y
_atom_site_fract_z
Si Si1 0.500000 0.500000 0.202050
Si Si2 0.382703 0.841596 0.486808
Si Si3 0.669890 0.633931 0.888600
Si Si4 0.489808 0.651419 0.125901
Si Si5 0.500000 0.500000 0.053326
O O1 0.657780 0.546538 0.233294
O O2 0.415850 0.595691 0.170448
O O3 0.250000 0.750000 0.506063
O O4 0.316109 0.880408 0.440081
O O5 0.358585 0.939853 0.520841
O O6 0.750000 0.750000 0.872709
O O7 0.796688 0.531676 0.872316
O O8 0.460533 0.622279 0.872896
O O9 0.400503 0.590513 0.084259
#
# Coordination Sequence:
#
# PCOD8187206 Si02
#       5
#     8  16  16  16   8
#     4   9  18  40  62  90 114 168 216 248 300 382
#     4  10  21  38  62  90 125 164 206 256 314 368
#     4   9  18  38  65  88 115 169 218 249 304 376
#     4   9  19  36  62  87 127 160 204 263 308 366
#     4  11  22  38  56  94 130 162 196 260 332 358
#
# _framework density 23.409679000000001
#
# number of rings (size 3 to 8) (size 9 to 14) (size 15 to 20)
#    0.000    2.500    0.000    3.000    3.500    0.000 
#    4.500   27.500    0.000    0.000    0.000    0.000 
#    0.000    0.000    0.000    0.000    0.000    0.000 
#
# Total GULP energy -198262.589451 kJ/mol
# GULP energy per Si atom -12391.411841 kJ/mol
# Density = 2.335640 g / cm^3
# Si number density = 23.409679 Si / 1000 Ang^3
#
#
#
# Elastic Constant Matrix: (Units=GPa)
#
#
# Indices 1 2 3 4 5 6 
#
# 1 30.4584 28.2804 25.9083 0.0000 0.0000 0.0000
# 2 28.2804 221.8278 67.3497 0.0000 0.0000 0.0000
# 3 25.9083 67.3497 93.9990 0.0000 0.0000 0.0000
# 4 0.0000 0.0000 0.0000 29.9645 0.0000 0.0000
# 5 0.0000 0.0000 0.0000 0.0000 7.6505 0.0000
# 6 0.0000 0.0000 0.0000 0.0000 0.0000 34.7946
#
#
#
# Elastic Compliance Matrix: (Units=1/GPa)
#
#
# Indices 1 2 3 4 5 6 
#
# 1 0.043911 -0.002458 -0.010341 0.000000 0.000000 0.000000
# 2 -0.002458 0.005899 -0.003549 0.000000 0.000000 0.000000
# 3 -0.010341 -0.003549 0.016032 0.000000 0.000000 0.000000
# 4 0.000000 0.000000 0.000000 0.033373 0.000000 0.000000
# 5 0.000000 0.000000 0.000000 0.000000 0.130711 0.000000
# 6 0.000000 0.000000 0.000000 0.000000 0.000000 0.028740
#
#
# Mechanical properties :
#
#
# Convention : Reuss Voigt Hill
#
# Bulk Modulus (GPa) = 30.17162 65.48467 47.82814
# Shear Modulus (GPa) = 16.53384 29.46504 22.99944
#
# Velocity S-wave (km/s) = 2.66048 3.55162 3.13785
# Velocity P-wave (km/s) = 4.72801 6.69722 5.79684
#
# Compressibility (1/GPa) = 0.03314373
#
# Stress axis : x y z
#
# Youngs Moduli (GPa) = 22.77349 169.52268 62.37687
#
# Poissons Ratio (x) = 0.41674 0.64507
# Poissons Ratio (y) = 0.05598 0.22137
# Poissons Ratio (z) = 0.23551 0.60163
#
# Static dielectric constant tensor:
#      x y z
#    x 3.881060 0.000000 0.000000 
#    y 0.000000 4.854040 0.000000 
#    z 0.000000 0.000000 4.073600 
# 
# 
# High freq. dielectric constant tensor:
#      x y z
#    x 1.885210 0.000000 0.000000 
#    y 0.000000 1.948210 0.000000 
#    z 0.000000 0.000000 1.908200 
# 
# From -- ./inp_files/27685.got.cif
#   From: 2010.06.25/outbox.cif.g09.slc.cpg/sg43_14_cif.got.tgz:27685.got - 2010.06.26 16:48:59.
