data_PCOD8187343
_publ_section_title
;
Structure prediction by ZEFSAII (Michael W. Deem and Ramdas Pophale) SiO2 
 PCOD8187343
Probable space group: F D D 2
;
_chemical_formula_sum "Si O2"
_cell_formula_units_Z 120
_cell_length_a 17.637113
_cell_length_b 24.389930
_cell_length_c 11.758142
_cell_angle_alpha 90.000000
_cell_angle_beta 90.000000
_cell_angle_gamma 90.000000
_cell_volume 5057.975857
_symmetry_space_group_name_H-M "F D D 2"
_symmetry_group_IT_number 43
_symmetry_cell_setting 'orthorhombic'
loop_
_space_group_symop_operation_xyz
x,y,z
-x,-y,z
1/4-x,1/4+y,1/4+z
1/4+x,1/4-y,1/4+z
x,1/2+y,1/2+z
-x,1/2-y,1/2+z
1/4-x,3/4+y,3/4+z
1/4+x,3/4-y,3/4+z
1/2+x,y,1/2+z
1/2-x,-y,1/2+z
3/4-x,1/4+y,3/4+z
3/4+x,1/4-y,3/4+z
1/2+x,1/2+y,z
1/2-x,1/2-y,z
3/4-x,3/4+y,1/4+z
3/4+x,3/4-y,1/4+z
loop_
_atom_site_type_symbol
_atom_site_label
_atom_site_fract_x
_atom_site_fract_y
_atom_site_fract_z
Si Si1 0.483870 0.580030 0.430550
Si Si2 0.290591 0.463123 0.117656
Si Si3 0.750000 0.250000 0.983901
Si Si4 0.641881 0.195066 0.811899
Si Si5 0.792085 0.418258 0.855597
Si Si6 0.116790 0.899656 0.828319
Si Si7 0.122030 0.832346 0.319284
Si Si8 0.118438 0.467185 0.112643
O O1 0.518207 0.551843 0.316173
O O2 0.421590 0.624344 0.395319
O O3 0.550691 0.605103 0.509512
O O4 0.435279 0.536622 0.502653
O O5 0.310677 0.523441 0.065231
O O6 0.303541 0.461957 0.254828
O O7 0.338523 0.412524 0.067599
O O8 0.204411 0.450085 0.085394
O O9 0.683703 0.237422 0.895519
O O10 0.647610 0.133229 0.858280
O O11 0.669055 0.186756 0.680782
O O12 0.706859 0.395180 0.850498
O O13 0.814528 0.444844 0.975395
O O14 0.089725 0.928792 0.713960
O O15 0.139157 0.780664 0.401454
#
# Coordination Sequence:
#
# PCOD8187343 Si02
#       8
#    16  16   8  16  16  16  16  16
#     4  12  28  47  74 107 147 194 240 308 356 441
#     4  10  23  40  71  99 142 186 241 296 354 434
#     4  12  22  46  70 106 142 184 236 300 364 420
#     4  11  22  41  71 102 135 184 231 295 369 415
#     4  10  22  39  67 104 145 178 234 302 354 425
#     4  10  24  45  67 105 144 185 240 293 363 429
#     4  12  26  46  76 105 147 189 249 293 373 431
#     4  11  26  48  67 104 145 194 238 297 357 439
#
# _framework density 23.724906000000001
#
# number of rings (size 3 to 8) (size 9 to 14) (size 15 to 20)
#    0.000    1.067    2.667    2.400    7.467    1.067 
#    4.800    0.000    0.000    0.000    0.000    0.000 
#    0.000    0.000    0.000    0.000    0.000    0.000 
#
# Total GULP energy -371645.705023 kJ/mol
# GULP energy per Si atom -12388.190167 kJ/mol
# Density = 2.367091 g / cm^3
# Si number density = 23.724906 Si / 1000 Ang^3
#
#
#
# Elastic Constant Matrix: (Units=GPa)
#
#
# Indices 1 2 3 4 5 6 
#
# 1 85.8663 29.1684 26.1040 0.0000 0.0000 0.0000
# 2 29.1684 101.6907 32.4903 0.0000 0.0000 0.0000
# 3 26.1040 32.4903 73.3008 0.0000 0.0000 0.0000
# 4 0.0000 0.0000 0.0000 30.5578 0.0000 0.0000
# 5 0.0000 0.0000 0.0000 0.0000 36.1783 0.0000
# 6 0.0000 0.0000 0.0000 0.0000 0.0000 34.3061
#
#
#
# Elastic Compliance Matrix: (Units=1/GPa)
#
#
# Indices 1 2 3 4 5 6 
#
# 1 0.013694 -0.002761 -0.003653 0.000000 0.000000 0.000000
# 2 -0.002761 0.012013 -0.004341 0.000000 0.000000 0.000000
# 3 -0.003653 -0.004341 0.016868 0.000000 0.000000 0.000000
# 4 0.000000 0.000000 0.000000 0.032725 0.000000 0.000000
# 5 0.000000 0.000000 0.000000 0.000000 0.027641 0.000000
# 6 0.000000 0.000000 0.000000 0.000000 0.000000 0.029149
#
#
# Mechanical properties :
#
#
# Convention : Reuss Voigt Hill
#
# Bulk Modulus (GPa) = 47.47420 48.48700 47.98060
# Shear Modulus (GPa) = 31.12897 31.74812 31.43855
#
# Velocity S-wave (km/s) = 3.62619 3.66208 3.64418
# Velocity P-wave (km/s) = 6.13075 6.19376 6.16233
#
# Compressibility (1/GPa) = 0.02106407
#
# Stress axis : x y z
#
# Youngs Moduli (GPa) = 73.02225 83.24507 59.28497
#
# Poissons Ratio (x) = 0.22983 0.21658
# Poissons Ratio (y) = 0.20160 0.25738
# Poissons Ratio (z) = 0.26676 0.36140
#
# Static dielectric constant tensor:
#      x y z
#    x 4.361350 0.000000 0.000000 
#    y 0.000000 4.058900 0.000000 
#    z 0.000000 0.000000 4.444190 
# 
# 
# High freq. dielectric constant tensor:
#      x y z
#    x 1.947850 0.000000 0.000000 
#    y 0.000000 1.934420 0.000000 
#    z 0.000000 0.000000 1.936410 
# 
# From -- ./inp_files/6813.got.cif
#   From: 2010.06.25/outbox.cif.g09.slc.cpg/sg43_4_cif.got.tgz:6813.got - 2010.06.26 16:48:59.
