data_PCOD8187036
_publ_section_title
;
Structure prediction by ZEFSAII (Michael W. Deem and Ramdas Pophale) SiO2 
 PCOD8187036
Probable space group: F D D 2
;
_chemical_formula_sum "Si O2"
_cell_formula_units_Z 112
_cell_length_a 31.106176
_cell_length_b 11.929381
_cell_length_c 15.332535
_cell_angle_alpha 90.000000
_cell_angle_beta 90.000000
_cell_angle_gamma 90.000000
_cell_volume 5689.557606
_symmetry_space_group_name_H-M "F D D 2"
_symmetry_group_IT_number 43
_symmetry_cell_setting 'orthorhombic'
loop_
_space_group_symop_operation_xyz
x,y,z
-x,-y,z
1/4-x,1/4+y,1/4+z
1/4+x,1/4-y,1/4+z
x,1/2+y,1/2+z
-x,1/2-y,1/2+z
1/4-x,3/4+y,3/4+z
1/4+x,3/4-y,3/4+z
1/2+x,y,1/2+z
1/2-x,-y,1/2+z
3/4-x,1/4+y,3/4+z
3/4+x,1/4-y,3/4+z
1/2+x,1/2+y,z
1/2-x,1/2-y,z
3/4-x,3/4+y,1/4+z
3/4+x,3/4-y,1/4+z
loop_
_atom_site_type_symbol
_atom_site_label
_atom_site_fract_x
_atom_site_fract_y
_atom_site_fract_z
Si Si1 0.577916 0.751861 0.591610
Si Si2 0.250738 0.378863 0.263106
Si Si3 0.836491 0.243705 0.613030
Si Si4 0.138655 0.428512 0.657325
Si Si5 0.341678 0.136911 0.301485
Si Si6 0.776417 0.640087 0.974253
Si Si7 0.282435 0.965620 0.600576
O O1 0.543070 0.848202 0.570234
O O2 0.599745 0.696905 0.507750
O O3 0.616057 0.807842 0.647961
O O4 0.553615 0.653866 0.643327
O O5 0.250000 0.250000 0.229195
O O6 0.207651 0.398245 0.319384
O O7 0.248897 0.466789 0.181542
O O8 0.880423 0.273857 0.562152
O O9 0.847941 0.185929 0.704413
O O10 0.808316 0.161211 0.554327
O O11 0.810771 0.357891 0.628820
O O12 0.106019 0.523177 0.623674
O O13 0.183636 0.431210 0.600787
O O14 0.750000 0.750000 0.944931
O O15 0.741795 0.546944 0.008327
#
# Coordination Sequence:
#
# PCOD8187036 Si02
#       7
#    16  16  16  16  16  16  16
#     4  11  24  38  59  87 129 170 196 251 314 381
#     4  11  17  34  59  86 113 152 205 256 303 349
#     4  10  20  32  57  90 116 154 192 265 302 358
#     4  10  21  37  58  90 121 161 198 257 312 364
#     4  11  19  33  59  89 118 146 210 259 311 352
#     4  10  21  40  62  86 120 161 206 247 308 368
#     4   9  17  35  61  81 114 148 203 258 304 341
#
# _framework density 19.685186000000002
#
# number of rings (size 3 to 8) (size 9 to 14) (size 15 to 20)
#    0.000    1.714    4.286    2.143    0.000    5.714 
#    0.000    0.000    3.143    0.000    0.000    0.000 
#    0.000    0.000    0.000    0.000    0.000    0.000 
#
# Total GULP energy -347032.060576 kJ/mol
# GULP energy per Si atom -12394.002163 kJ/mol
# Density = 1.964038 g / cm^3
# Si number density = 19.685186 Si / 1000 Ang^3
#
#
#
# Elastic Constant Matrix: (Units=GPa)
#
#
# Indices 1 2 3 4 5 6 
#
# 1 126.2306 44.1555 64.9982 0.0000 0.0000 0.0000
# 2 44.1555 56.5793 42.7690 0.0000 0.0000 0.0000
# 3 64.9982 42.7690 121.2425 0.0000 0.0000 0.0000
# 4 0.0000 0.0000 0.0000 12.3687 0.0000 0.0000
# 5 0.0000 0.0000 0.0000 0.0000 40.2367 0.0000
# 6 0.0000 0.0000 0.0000 0.0000 0.0000 34.1908
#
#
#
# Elastic Compliance Matrix: (Units=1/GPa)
#
#
# Indices 1 2 3 4 5 6 
#
# 1 0.012418 -0.006353 -0.004416 0.000000 0.000000 0.000000
# 2 -0.006353 0.027351 -0.006242 0.000000 0.000000 0.000000
# 3 -0.004416 -0.006242 0.012818 0.000000 0.000000 0.000000
# 4 0.000000 0.000000 0.000000 0.080850 0.000000 0.000000
# 5 0.000000 0.000000 0.000000 0.000000 0.024853 0.000000
# 6 0.000000 0.000000 0.000000 0.000000 0.000000 0.029248
#
#
# Mechanical properties :
#
#
# Convention : Reuss Voigt Hill
#
# Bulk Modulus (GPa) = 53.86968 67.54419 60.70694
# Shear Modulus (GPa) = 21.95402 27.50122 24.72762
#
# Velocity S-wave (km/s) = 3.34317 3.74177 3.54807
# Velocity P-wave (km/s) = 6.50595 7.28385 6.90586
#
# Compressibility (1/GPa) = 0.01856332
#
# Stress axis : x y z
#
# Youngs Moduli (GPa) = 80.52547 36.56164 78.01775
#
# Poissons Ratio (x) = 0.23228 0.34456
# Poissons Ratio (y) = 0.51159 0.48701
# Poissons Ratio (z) = 0.35563 0.22823
#
# Static dielectric constant tensor:
#      x y z
#    x 4.226290 0.000000 0.000000 
#    y 0.000000 3.300150 0.000000 
#    z 0.000000 0.000000 3.481770 
# 
# 
# High freq. dielectric constant tensor:
#      x y z
#    x 1.787950 0.000000 0.000000 
#    y 0.000000 1.719740 0.000000 
#    z 0.000000 0.000000 1.758830 
# 
# From -- ./inp_files/10341.got.cif
#   From: 2010.06.25/outbox.cif.g09.slc.cpg/sg43_6_cif.got.tgz:10341.got - 2010.06.26 16:48:59.
