data_PCOD8187986
_publ_section_title
;
Structure prediction by ZEFSAII (Michael W. Deem and Ramdas Pophale) SiO2 
 PCOD8187986
Probable space group: I M M 2
;
_chemical_formula_sum "Si O2"
_cell_formula_units_Z 64
_cell_length_a 8.805449
_cell_length_b 26.325442
_cell_length_c 18.569684
_cell_angle_alpha 90.000000
_cell_angle_beta 90.000000
_cell_angle_gamma 90.000000
_cell_volume 4304.588996
_symmetry_space_group_name_H-M "I M M 2"
_symmetry_group_IT_number 44
_symmetry_cell_setting 'orthorhombic'
loop_
_space_group_symop_operation_xyz
x,y,z
-x,-y,z
-x,y,z
x,-y,z
1/2+x,1/2+y,1/2+z
1/2-x,1/2-y,1/2+z
1/2-x,1/2+y,1/2+z
1/2+x,1/2-y,1/2+z
loop_
_atom_site_type_symbol
_atom_site_label
_atom_site_fract_x
_atom_site_fract_y
_atom_site_fract_z
Si Si1 0.834035 0.302885 0.763970
Si Si2 0.823250 0.941476 0.645414
Si Si3 0.831702 0.199177 0.851007
Si Si4 0.180314 0.350181 0.901080
Si Si5 0.319366 0.259245 0.137685
Si Si6 0.178592 0.754772 0.473522
Si Si7 0.675327 0.057326 0.495575
Si Si8 0.179154 0.350544 0.220979
O O1 0.844633 0.252244 0.810980
O O2 0.755248 0.343856 0.818205
O O3 0.752776 0.286768 0.688906
O O4 0.000000 0.324026 0.743843
O O5 0.776832 0.928320 0.563841
O O6 0.728459 0.907465 0.700756
O O7 0.000000 0.929405 0.654472
O O8 0.785092 0.000000 0.662785
O O9 0.748503 0.208609 0.927253
O O10 0.738293 0.160109 0.801616
O O11 0.000000 0.176875 0.865329
O O12 0.256484 0.309689 0.953650
O O13 0.000000 0.339779 0.900564
O O14 0.220372 0.406233 0.929267
O O15 0.500000 0.264513 0.149870
O O16 0.246390 0.312446 0.161112
O O17 0.277593 0.245089 0.056529
O O18 0.000000 0.755414 0.461028
O O19 0.500000 0.064966 0.517781
O O20 0.707032 0.000000 0.469502
O O21 0.000000 0.345387 0.220363
#
# Coordination Sequence:
#
# PCOD8187986 Si02
#       8
#     8   8   8   8   8   8   8   8
#     4   7  12  24  39  53  71 100 134 162 193 238
#     4  10  20  32  44  58  79 109 142 172 205 247
#     4   9  17  30  44  57  79 108 135 165 204 248
#     4   9  16  26  40  55  75 108 141 166 204 253
#     4   9  17  28  41  58  83 112 140 171 206 245
#     4  10  18  26  39  60  82 104 136 174 205 238
#     4   9  17  28  41  59  82 106 138 181 218 245
#     4  11  20  29  44  63  83 108 140 174 207 244
#
# _framework density 14.867855
#
# number of rings (size 3 to 8) (size 9 to 14) (size 15 to 20)
#    0.000    2.750    0.000    4.500    0.000    4.250 
#    0.000    0.000    0.000    0.000    0.000    0.000 
#    0.000    1.000    0.000    7.000    0.000    0.625 
#
# Total GULP energy -396536.387153 kJ/mol
# GULP energy per Si atom -12391.762099 kJ/mol
# Density = 1.483401 g / cm^3
# Si number density = 14.867855 Si / 1000 Ang^3
#
#
#
# Elastic Constant Matrix: (Units=GPa)
#
#
# Indices 1 2 3 4 5 6 
#
# 1 64.5337 28.1377 41.2963 0.0000 0.0000 0.0000
# 2 28.1377 73.0901 57.5814 0.0000 0.0000 0.0000
# 3 41.2963 57.5814 120.3644 0.0002 0.0000 0.0000
# 4 0.0000 0.0000 0.0002 27.0585 0.0000 0.0000
# 5 0.0000 0.0000 0.0000 0.0000 20.3964 0.0000
# 6 0.0000 0.0000 0.0000 0.0000 0.0000 17.3869
#
#
#
# Elastic Compliance Matrix: (Units=1/GPa)
#
#
# Indices 1 2 3 4 5 6 
#
# 1 0.020482 -0.003770 -0.005224 0.000000 0.000000 0.000000
# 2 -0.003770 0.022651 -0.009543 0.000000 0.000000 0.000000
# 3 -0.005224 -0.009543 0.014666 0.000000 0.000000 0.000000
# 4 0.000000 0.000000 0.000000 0.036957 0.000000 0.000000
# 5 0.000000 0.000000 0.000000 0.000000 0.049028 0.000000
# 6 0.000000 0.000000 0.000000 0.000000 0.000000 0.057514
#
#
# Mechanical properties :
#
#
# Convention : Reuss Voigt Hill
#
# Bulk Modulus (GPa) = 48.24815 56.89098 52.56957
# Shear Modulus (GPa) = 20.38492 21.69989 21.04241
#
# Velocity S-wave (km/s) = 3.70682 3.82451 3.76612
# Velocity P-wave (km/s) = 7.13039 7.60592 7.37199
#
# Compressibility (1/GPa) = 0.02072618
#
# Stress axis : x y z
#
# Youngs Moduli (GPa) = 48.82256 44.14872 68.18705
#
# Poissons Ratio (x) = 0.16642 0.35621
# Poissons Ratio (y) = 0.18404 0.65068
# Poissons Ratio (z) = 0.25505 0.42129
#
# Static dielectric constant tensor:
#      x y z
#    x 2.882150 0.000000 0.000000 
#    y 0.000000 2.795870 0.000000 
#    z 0.000000 0.000000 3.104130 
# 
# 
# High freq. dielectric constant tensor:
#      x y z
#    x 1.567950 0.000000 0.000000 
#    y 0.000000 1.535040 0.000000 
#    z 0.000000 0.000000 1.562900 
# 
# From -- ./inp_files/20910.got.cif
#   From: 2010.03.12/outbox.cif.g09.slc.cpg/sg44_11_cif.got.tgz:20910.got - 2010.04.14 02:36:11.
