data_PCOD8187144
_publ_section_title
;
Structure prediction by ZEFSAII (Michael W. Deem and Ramdas Pophale) SiO2 
 PCOD8187144
Probable space group: F D D 2
;
_chemical_formula_sum "Si O2"
_cell_formula_units_Z 120
_cell_length_a 25.066009
_cell_length_b 8.593996
_cell_length_c 26.951592
_cell_angle_alpha 90.000000
_cell_angle_beta 90.000000
_cell_angle_gamma 90.000000
_cell_volume 5805.835974
_symmetry_space_group_name_H-M "F D D 2"
_symmetry_group_IT_number 43
_symmetry_cell_setting 'orthorhombic'
loop_
_space_group_symop_operation_xyz
x,y,z
-x,-y,z
1/4-x,1/4+y,1/4+z
1/4+x,1/4-y,1/4+z
x,1/2+y,1/2+z
-x,1/2-y,1/2+z
1/4-x,3/4+y,3/4+z
1/4+x,3/4-y,3/4+z
1/2+x,y,1/2+z
1/2-x,-y,1/2+z
3/4-x,1/4+y,3/4+z
3/4+x,1/4-y,3/4+z
1/2+x,1/2+y,z
1/2-x,1/2-y,z
3/4-x,3/4+y,1/4+z
3/4+x,3/4-y,1/4+z
loop_
_atom_site_type_symbol
_atom_site_label
_atom_site_fract_x
_atom_site_fract_y
_atom_site_fract_z
Si Si1 0.326971 0.468929 0.058980
Si Si2 0.754763 0.565269 0.136824
Si Si3 0.660938 0.029155 0.306890
Si Si4 0.846261 0.571825 0.966962
Si Si5 0.368096 0.955355 0.113886
Si Si6 0.492211 0.681658 0.997430
Si Si7 0.000000 0.000000 0.748312
Si Si8 0.377607 0.016536 0.767103
O O1 0.297193 0.513885 0.110667
O O2 0.384264 0.387670 0.070084
O O3 0.287835 0.349549 0.032921
O O4 0.335104 0.614708 0.022182
O O5 0.750000 0.750000 0.135364
O O6 0.807532 0.513728 0.107721
O O7 0.760846 0.508161 0.193449
O O8 0.722698 0.012765 0.290648
O O9 0.629223 0.102094 0.261128
O O10 0.656514 0.144142 0.354530
O O11 0.872827 0.619964 0.915555
O O12 0.785631 0.634607 0.964893
O O13 0.846521 0.385615 0.977116
O O14 0.379231 0.830542 0.072069
O O15 0.500000 0.500000 0.003137
O O16 0.430729 0.721916 0.999593
#
# Coordination Sequence:
#
# PCOD8187144 Si02
#       8
#    16  16  16  16  16  16   8  16
#     4  11  20  41  65  98 130 172 223 290 339 408
#     4  11  21  38  71 100 122 171 240 283 339 418
#     4  10  20  41  68  92 134 174 228 279 338 406
#     4  10  23  42  61  97 129 177 226 278 342 414
#     4  11  23  42  65  97 133 176 227 285 340 419
#     4  11  23  41  67  98 134 183 226 288 354 411
#     4  10  22  40  68  86 130 172 226 278 342 414
#     4  11  26  40  63  96 143 172 222 295 351 405
#
# _framework density 20.668858
#
# number of rings (size 3 to 8) (size 9 to 14) (size 15 to 20)
#    0.000    1.333    4.667    1.600    1.867    5.333 
#    0.000    0.000    2.933    0.000    0.000    0.000 
#    0.000    0.000    0.000    0.000    0.000    0.000 
#
# Total GULP energy -371944.123140 kJ/mol
# GULP energy per Si atom -12398.137438 kJ/mol
# Density = 2.062181 g / cm^3
# Si number density = 20.668858 Si / 1000 Ang^3
#
#
#
# Elastic Constant Matrix: (Units=GPa)
#
#
# Indices 1 2 3 4 5 6 
#
# 1 102.9884 43.7187 21.6103 0.0000 0.0000 0.0002
# 2 43.7187 117.8649 38.0129 -0.0002 0.0000 0.0002
# 3 21.6103 38.0129 75.9399 0.0000 0.0000 0.0000
# 4 0.0000 -0.0002 0.0000 63.1267 -0.0001 0.0001
# 5 0.0000 0.0000 0.0000 -0.0001 34.8790 0.0000
# 6 0.0002 0.0002 0.0000 0.0001 0.0000 31.5320
#
#
#
# Elastic Compliance Matrix: (Units=1/GPa)
#
#
# Indices 1 2 3 4 5 6 
#
# 1 0.011643 -0.003876 -0.001373 0.000000 0.000000 0.000000
# 2 -0.003876 0.011408 -0.004607 0.000000 0.000000 0.000000
# 3 -0.001373 -0.004607 0.015865 0.000000 0.000000 0.000000
# 4 0.000000 0.000000 0.000000 0.015841 0.000000 0.000000
# 5 0.000000 0.000000 0.000000 0.000000 0.028671 0.000000
# 6 0.000000 0.000000 0.000000 0.000000 0.000000 0.031714
#
#
# Mechanical properties :
#
#
# Convention : Reuss Voigt Hill
#
# Bulk Modulus (GPa) = 52.07371 55.94187 54.00779
# Shear Modulus (GPa) = 35.39663 38.80429 37.10046
#
# Velocity S-wave (km/s) = 4.14280 4.33763 4.24133
# Velocity P-wave (km/s) = 6.93777 7.22573 7.08322
#
# Compressibility (1/GPa) = 0.01920355
#
# Stress axis : x y z
#
# Youngs Moduli (GPa) = 85.88640 87.65861 63.03017
#
# Poissons Ratio (x) = 0.33975 0.08655
# Poissons Ratio (y) = 0.33288 0.29041
# Poissons Ratio (z) = 0.11794 0.40388
#
# Static dielectric constant tensor:
#      x y z
#    x 3.799770 0.000000 0.000000 
#    y 0.000000 3.922170 0.000000 
#    z 0.000000 0.000000 3.795980 
# 
# 
# High freq. dielectric constant tensor:
#      x y z
#    x 1.808220 0.000000 0.000000 
#    y 0.000000 1.810200 0.000000 
#    z 0.000000 0.000000 1.796910 
# 
# From -- ./inp_files/22826.got.cif
#   From: 2010.06.25/outbox.cif.g09.slc.cpg/sg43_12_cif.got.tgz:22826.got - 2010.06.26 16:48:59.
