data_PCOD8187030
_publ_section_title
;
Structure prediction by ZEFSAII (Michael W. Deem and Ramdas Pophale) SiO2 
 PCOD8187030
Probable space group: F D D 2
;
_chemical_formula_sum "Si O2"
_cell_formula_units_Z 80
_cell_length_a 9.264984
_cell_length_b 24.008641
_cell_length_c 15.955509
_cell_angle_alpha 90.000000
_cell_angle_beta 90.000000
_cell_angle_gamma 90.000000
_cell_volume 3549.138232
_symmetry_space_group_name_H-M "F D D 2"
_symmetry_group_IT_number 43
_symmetry_cell_setting 'orthorhombic'
loop_
_space_group_symop_operation_xyz
x,y,z
-x,-y,z
1/4-x,1/4+y,1/4+z
1/4+x,1/4-y,1/4+z
x,1/2+y,1/2+z
-x,1/2-y,1/2+z
1/4-x,3/4+y,3/4+z
1/4+x,3/4-y,3/4+z
1/2+x,y,1/2+z
1/2-x,-y,1/2+z
3/4-x,1/4+y,3/4+z
3/4+x,1/4-y,3/4+z
1/2+x,1/2+y,z
1/2-x,1/2-y,z
3/4-x,3/4+y,1/4+z
3/4+x,3/4-y,1/4+z
loop_
_atom_site_type_symbol
_atom_site_label
_atom_site_fract_x
_atom_site_fract_y
_atom_site_fract_z
Si Si1 0.403293 0.451857 0.026930
Si Si2 0.835291 0.800995 0.785997
Si Si3 0.156061 0.905234 0.253324
Si Si4 0.979286 0.260616 0.130753
Si Si5 0.106626 0.860130 0.081728
O O1 0.500000 0.500000 0.071409
O O2 0.485127 0.392997 0.029027
O O3 0.247886 0.444848 0.074058
O O4 0.375432 0.472971 0.930903
O O5 0.750000 0.750000 0.829964
O O6 0.742962 0.856318 0.801120
O O7 0.847806 0.787690 0.685492
O O8 0.223528 0.962777 0.287837
O O9 0.172987 0.900198 0.153775
O O10 0.984828 0.904233 0.268942
O O11 0.965747 0.194114 0.123917
#
# Coordination Sequence:
#
# PCOD8187030 Si02
#       5
#    16  16  16  16  16
#     4  10  23  42  67 101 137 180 228 291 340 405
#     4  10  19  42  65  94 131 181 214 273 344 403
#     4  12  22  41  73  98 135 189 231 275 351 419
#     4  10  23  44  69  96 140 183 219 285 351 404
#     4  12  23  43  70 101 137 185 234 286 342 417
#
# _framework density 22.540682
#
# number of rings (size 3 to 8) (size 9 to 14) (size 15 to 20)
#    1.200    0.000    4.000    3.000    0.000    4.800 
#    0.000    2.000    0.000    0.000    0.000    0.000 
#    0.000    0.000    0.000    0.000    0.000    0.000 
#
# Total GULP energy -247844.942908 kJ/mol
# GULP energy per Si atom -12392.247145 kJ/mol
# Density = 2.248938 g / cm^3
# Si number density = 22.540682 Si / 1000 Ang^3
#
#
#
# Elastic Constant Matrix: (Units=GPa)
#
#
# Indices 1 2 3 4 5 6 
#
# 1 124.3037 37.0179 -0.8377 0.0000 0.0000 0.0000
# 2 37.0179 113.8605 15.3195 0.0000 0.0000 0.0000
# 3 -0.8377 15.3195 33.1407 0.0000 0.0000 0.0000
# 4 0.0000 0.0000 0.0000 36.5288 0.0000 0.0000
# 5 0.0000 0.0000 0.0000 0.0000 25.0368 0.0000
# 6 0.0000 0.0000 0.0000 0.0000 0.0000 35.9716
#
#
#
# Elastic Compliance Matrix: (Units=1/GPa)
#
#
# Indices 1 2 3 4 5 6 
#
# 1 0.008994 -0.003151 0.001684 0.000000 0.000000 0.000000
# 2 -0.003151 0.010469 -0.004919 0.000000 0.000000 0.000000
# 3 0.001684 -0.004919 0.032491 0.000000 0.000000 0.000000
# 4 0.000000 0.000000 0.000000 0.027376 0.000000 0.000000
# 5 0.000000 0.000000 0.000000 0.000000 0.039941 0.000000
# 6 0.000000 0.000000 0.000000 0.000000 0.000000 0.027800
#
#
# Mechanical properties :
#
#
# Convention : Reuss Voigt Hill
#
# Bulk Modulus (GPa) = 25.52177 41.58937 33.55557
# Shear Modulus (GPa) = 28.91789 34.16111 31.53950
#
# Velocity S-wave (km/s) = 3.58567 3.89721 3.74468
# Velocity P-wave (km/s) = 5.33759 6.22429 5.79792
#
# Compressibility (1/GPa) = 0.03918224
#
# Stress axis : x y z
#
# Youngs Moduli (GPa) = 111.17939 95.52114 30.77801
#
# Poissons Ratio (x) = 0.30097 -0.05183
# Poissons Ratio (y) = 0.35030 0.15140
# Poissons Ratio (z) = -0.18721 0.46986
#
# Static dielectric constant tensor:
#      x y z
#    x 4.049660 0.000000 0.000000 
#    y 0.000000 3.905180 0.000000 
#    z 0.000000 0.000000 3.461760 
# 
# 
# High freq. dielectric constant tensor:
#      x y z
#    x 1.896360 0.000000 0.000000 
#    y 0.000000 1.890460 0.000000 
#    z 0.000000 0.000000 1.839040 
# 
# From -- ./inp_files/12765.got.cif
#   From: 2010.06.25/outbox.cif.g09.slc.cpg/sg43_7_cif.got.tgz:12765.got - 2010.06.26 16:48:59.
