data_PCOD8187832
_publ_section_title
;
Structure prediction by ZEFSAII (Michael W. Deem and Ramdas Pophale) SiO2 
 PCOD8187832
Probable space group: F D D 2
;
_chemical_formula_sum "Si O2"
_cell_formula_units_Z 56
_cell_length_a 19.642779
_cell_length_b 19.262159
_cell_length_c 6.628507
_cell_angle_alpha 90.000000
_cell_angle_beta 90.000000
_cell_angle_gamma 90.000000
_cell_volume 2507.977368
_symmetry_space_group_name_H-M "F D D 2"
_symmetry_group_IT_number 43
_symmetry_cell_setting 'orthorhombic'
loop_
_space_group_symop_operation_xyz
x,y,z
-x,-y,z
1/4-x,1/4+y,1/4+z
1/4+x,1/4-y,1/4+z
x,1/2+y,1/2+z
-x,1/2-y,1/2+z
1/4-x,3/4+y,3/4+z
1/4+x,3/4-y,3/4+z
1/2+x,y,1/2+z
1/2-x,-y,1/2+z
3/4-x,1/4+y,3/4+z
3/4+x,1/4-y,3/4+z
1/2+x,1/2+y,z
1/2-x,1/2-y,z
3/4-x,3/4+y,1/4+z
3/4+x,3/4-y,1/4+z
loop_
_atom_site_type_symbol
_atom_site_label
_atom_site_fract_x
_atom_site_fract_y
_atom_site_fract_z
Si Si1 0.889373 0.634382 0.173330
Si Si2 0.386476 0.536608 0.044662
Si Si3 0.209240 0.876454 0.302485
Si Si4 0.500000 0.000000 0.821189
O O1 0.869298 0.703750 0.289899
O O2 0.896526 0.569534 0.324752
O O3 0.962080 0.646567 0.072065
O O4 0.831370 0.617263 0.011045
O O5 0.319632 0.568525 0.143944
O O6 0.452744 0.550307 0.184120
O O7 0.203071 0.798511 0.213562
#
# Coordination Sequence:
#
# PCOD8187832 Si02
#       4
#    16  16  16   8
#     4  12  28  46  74 110 150 198 254 316 382 454
#     4  12  27  47  76 108 149 198 253 313 382 455
#     4  12  27  47  76 108 149 198 253 313 382 455
#     4  12  24  54  76 108 158 196 252 322 388 448
#
# _framework density 22.328748999999998
#
# number of rings (size 3 to 8) (size 9 to 14) (size 15 to 20)
#    0.000    0.000    5.714    3.429    4.000    0.000 
#    0.000    0.000    0.000    0.000    0.000    0.000 
#    0.000    0.000    0.000    0.000    0.000    0.000 
#
# Total GULP energy -173702.827134 kJ/mol
# GULP energy per Si atom -12407.344795 kJ/mol
# Density = 2.227793 g / cm^3
# Si number density = 22.328749 Si / 1000 Ang^3
#
#
#
# Elastic Constant Matrix: (Units=GPa)
#
#
# Indices 1 2 3 4 5 6 
#
# 1 101.9602 7.6847 28.5891 -0.0086 0.0061 0.0034
# 2 7.6847 66.6004 15.3214 -0.0103 0.0060 0.0048
# 3 28.5891 15.3214 94.3072 -0.0256 0.0188 0.0111
# 4 -0.0086 -0.0103 -0.0256 49.0187 0.0094 0.0059
# 5 0.0061 0.0060 0.0188 0.0094 45.7913 -0.0045
# 6 0.0034 0.0048 0.0111 0.0059 -0.0045 40.2027
#
#
#
# Elastic Compliance Matrix: (Units=1/GPa)
#
#
# Indices 1 2 3 4 5 6 
#
# 1 0.010735 -0.000509 -0.003172 0.000000 0.000000 0.000000
# 2 -0.000509 0.015622 -0.002384 0.000002 -0.000001 -0.000001
# 3 -0.003172 -0.002384 0.011952 0.000005 -0.000004 -0.000003
# 4 0.000000 0.000002 0.000005 0.020400 -0.000004 -0.000003
# 5 0.000000 -0.000001 -0.000004 -0.000004 0.021838 0.000002
# 6 0.000000 -0.000001 -0.000003 -0.000003 0.000002 0.024874
#
#
# Mechanical properties :
#
#
# Convention : Reuss Voigt Hill
#
# Bulk Modulus (GPa) = 38.19569 40.67312 39.43441
# Shear Modulus (GPa) = 39.59508 41.08739 40.34124
#
# Velocity S-wave (km/s) = 4.21560 4.29431 4.25513
# Velocity P-wave (km/s) = 6.39048 6.54547 6.46844
#
# Compressibility (1/GPa) = 0.02618096
#
# Stress axis : x y z
#
# Youngs Moduli (GPa) = 93.14934 64.01223 83.66514
#
# Poissons Ratio (x) = 0.03259 0.26536
# Poissons Ratio (y) = 0.04742 0.19943
# Poissons Ratio (z) = 0.29544 0.15258
#
# Static dielectric constant tensor:
#      x y z
#    x 4.034790 0.000000 0.000000 
#    y 0.000000 3.940670 0.000000 
#    z 0.000000 0.000000 4.164560 
# 
# 
# High freq. dielectric constant tensor:
#      x y z
#    x 1.889570 0.000000 0.000000 
#    y 0.000000 1.878060 0.000000 
#    z 0.000000 0.000000 1.896170 
# 
# From -- ./inp_files/460.got.cif
#   From: 2010.06.25/outbox.cif.g09.slc.cpg/sg43_1_cif.got.tgz:460.got - 2010.06.26 16:48:59.
