data_PCOD8187089
_publ_section_title
;
Structure prediction by ZEFSAII (Michael W. Deem and Ramdas Pophale) SiO2 
 PCOD8187089
Probable space group: F D D 2
;
_chemical_formula_sum "Si O2"
_cell_formula_units_Z 112
_cell_length_a 16.060769
_cell_length_b 11.711207
_cell_length_c 26.816835
_cell_angle_alpha 90.000000
_cell_angle_beta 90.000000
_cell_angle_gamma 90.000000
_cell_volume 5044.005053
_symmetry_space_group_name_H-M "F D D 2"
_symmetry_group_IT_number 43
_symmetry_cell_setting 'orthorhombic'
loop_
_space_group_symop_operation_xyz
x,y,z
-x,-y,z
1/4-x,1/4+y,1/4+z
1/4+x,1/4-y,1/4+z
x,1/2+y,1/2+z
-x,1/2-y,1/2+z
1/4-x,3/4+y,3/4+z
1/4+x,3/4-y,3/4+z
1/2+x,y,1/2+z
1/2-x,-y,1/2+z
3/4-x,1/4+y,3/4+z
3/4+x,1/4-y,3/4+z
1/2+x,1/2+y,z
1/2-x,1/2-y,z
3/4-x,3/4+y,1/4+z
3/4+x,3/4-y,1/4+z
loop_
_atom_site_type_symbol
_atom_site_label
_atom_site_fract_x
_atom_site_fract_y
_atom_site_fract_z
Si Si1 0.654059 0.280671 0.415000
Si Si2 0.636549 0.483431 0.559081
Si Si3 0.907641 0.960482 0.941657
Si Si4 0.344602 0.236272 0.702307
Si Si5 0.829949 0.468506 0.543068
Si Si6 0.313672 0.851126 0.870168
Si Si7 0.083424 0.739359 0.588409
O O1 0.750000 0.250000 0.420504
O O2 0.630497 0.310647 0.357694
O O3 0.596829 0.176388 0.434256
O O4 0.639667 0.391805 0.448010
O O5 0.601543 0.548812 0.510512
O O6 0.733355 0.456796 0.553736
O O7 0.585943 0.365887 0.566606
O O8 0.880532 0.023141 0.891198
O O9 0.846531 0.003026 0.985733
O O10 0.000000 0.000000 0.956149
O O11 0.250000 0.250000 0.684708
O O12 0.388425 0.138722 0.669911
O O13 0.869059 0.562037 0.579665
O O14 0.872848 0.345597 0.549914
O O15 0.250000 0.750000 0.884133
O O16 0.263119 0.957123 0.846694
#
# Coordination Sequence:
#
# PCOD8187089 Si02
#       7
#    16  16  16  16  16  16  16
#     4  11  23  42  65  92 123 160 206 261 311 366
#     4  11  22  39  62  90 122 163 204 247 306 373
#     4  11  22  38  64  95 122 158 209 262 311 365
#     4  12  25  42  61  90 129 168 203 248 311 378
#     4  11  21  38  62  92 124 159 202 257 310 359
#     4  10  23  43  64  89 125 165 208 258 308 367
#     4  10  20  38  64  92 121 155 203 259 306 360
#
# _framework density 22.204577
#
# number of rings (size 3 to 8) (size 9 to 14) (size 15 to 20)
#    0.000    1.143    0.000    9.000    0.000    1.143 
#    0.000    6.429    0.000    0.000    0.000    0.000 
#    0.000    0.000    0.000    0.000    0.000    0.000 
#
# Total GULP energy -347369.544805 kJ/mol
# GULP energy per Si atom -12406.055172 kJ/mol
# Density = 2.215404 g / cm^3
# Si number density = 22.204577 Si / 1000 Ang^3
#
#
#
# Elastic Constant Matrix: (Units=GPa)
#
#
# Indices 1 2 3 4 5 6 
#
# 1 90.6659 22.3401 35.0320 0.0000 0.0000 0.0000
# 2 22.3401 50.0709 33.3854 0.0000 0.0000 0.0000
# 3 35.0320 33.3854 113.6658 0.0000 0.0000 0.0000
# 4 0.0000 0.0000 0.0000 20.2964 0.0000 0.0000
# 5 0.0000 0.0000 0.0000 0.0000 35.4527 0.0000
# 6 0.0000 0.0000 0.0000 0.0000 0.0000 31.6799
#
#
#
# Elastic Compliance Matrix: (Units=1/GPa)
#
#
# Indices 1 2 3 4 5 6 
#
# 1 0.013113 -0.003924 -0.002889 0.000000 0.000000 0.000000
# 2 -0.003924 0.026010 -0.006430 0.000000 0.000000 0.000000
# 3 -0.002889 -0.006430 0.011577 0.000000 0.000000 0.000000
# 4 0.000000 0.000000 0.000000 0.049270 0.000000 0.000000
# 5 0.000000 0.000000 0.000000 0.000000 0.028207 0.000000
# 6 0.000000 0.000000 0.000000 0.000000 0.000000 0.031566
#
#
# Mechanical properties :
#
#
# Convention : Reuss Voigt Hill
#
# Bulk Modulus (GPa) = 41.30017 48.43531 44.86774
# Shear Modulus (GPa) = 25.73361 28.39548 27.06455
#
# Velocity S-wave (km/s) = 3.40800 3.57993 3.49502
# Velocity P-wave (km/s) = 5.84176 6.24087 6.04461
#
# Compressibility (1/GPa) = 0.02421297
#
# Stress axis : x y z
#
# Youngs Moduli (GPa) = 76.26242 38.44690 86.38104
#
# Poissons Ratio (x) = 0.15088 0.24953
# Poissons Ratio (y) = 0.29928 0.55543
# Poissons Ratio (z) = 0.22030 0.24721
#
# Static dielectric constant tensor:
#      x y z
#    x 4.035620 0.000000 0.000000 
#    y 0.000000 3.885740 0.000000 
#    z 0.000000 0.000000 4.182180 
# 
# 
# High freq. dielectric constant tensor:
#      x y z
#    x 1.884860 0.000000 0.000000 
#    y 0.000000 1.856320 0.000000 
#    z 0.000000 0.000000 1.888550 
# 
# From -- ./inp_files/29092.got.cif
#   From: 2010.06.25/outbox.cif.g09.slc.cpg/sg43_15_cif.got.tgz:29092.got - 2010.06.26 16:48:59.
