data_PCOD8187253
_publ_section_title
;
Structure prediction by ZEFSAII (Michael W. Deem and Ramdas Pophale) SiO2 
 PCOD8187253
Probable space group: F D D 2
;
_chemical_formula_sum "Si O2"
_cell_formula_units_Z 80
_cell_length_a 20.358798
_cell_length_b 11.502950
_cell_length_c 14.364772
_cell_angle_alpha 90.000000
_cell_angle_beta 90.000000
_cell_angle_gamma 90.000000
_cell_volume 3364.031878
_symmetry_space_group_name_H-M "F D D 2"
_symmetry_group_IT_number 43
_symmetry_cell_setting 'orthorhombic'
loop_
_space_group_symop_operation_xyz
x,y,z
-x,-y,z
1/4-x,1/4+y,1/4+z
1/4+x,1/4-y,1/4+z
x,1/2+y,1/2+z
-x,1/2-y,1/2+z
1/4-x,3/4+y,3/4+z
1/4+x,3/4-y,3/4+z
1/2+x,y,1/2+z
1/2-x,-y,1/2+z
3/4-x,1/4+y,3/4+z
3/4+x,1/4-y,3/4+z
1/2+x,1/2+y,z
1/2-x,1/2-y,z
3/4-x,3/4+y,1/4+z
3/4+x,3/4-y,1/4+z
loop_
_atom_site_type_symbol
_atom_site_label
_atom_site_fract_x
_atom_site_fract_y
_atom_site_fract_z
Si Si1 0.947101 0.779975 0.142300
Si Si2 0.093877 0.985928 0.392064
Si Si3 0.838361 0.434123 0.582350
Si Si4 0.747329 0.062210 0.207407
Si Si5 0.315519 0.833509 0.937245
O O1 0.875269 0.812236 0.101310
O O2 0.936453 0.691238 0.226574
O O3 0.985074 0.901708 0.176627
O O4 0.993179 0.720541 0.065449
O O5 0.088774 0.984144 0.279825
O O6 0.075161 0.855320 0.425157
O O7 0.045002 0.080506 0.437694
O O8 0.164255 0.027680 0.432476
O O9 0.774724 0.451546 0.649205
O O10 0.894036 0.532820 0.599391
#
# Coordination Sequence:
#
# PCOD8187253 Si02
#       5
#    16  16  16  16  16
#     4  12  24  41  66  97 140 175 221 282 340 412
#     4  10  21  40  70 100 131 171 236 287 344 408
#     4  11  23  40  66 100 130 178 227 272 345 406
#     4  10  22  42  65  97 136 174 227 282 341 412
#     4  11  21  38  70 102 127 178 231 290 333 410
#
# _framework density 23.780987
#
# number of rings (size 3 to 8) (size 9 to 14) (size 15 to 20)
#    0.000    1.200    2.000    6.600    2.800    1.600 
#    0.000    0.000    0.000    0.000    0.000    0.000 
#    0.000    0.000    0.000    0.000    0.000    0.000 
#
# Total GULP energy -247811.084197 kJ/mol
# GULP energy per Si atom -12390.554210 kJ/mol
# Density = 2.372686 g / cm^3
# Si number density = 23.780987 Si / 1000 Ang^3
#
#
#
# Elastic Constant Matrix: (Units=GPa)
#
#
# Indices 1 2 3 4 5 6 
#
# 1 64.3657 21.9037 57.3887 0.0000 0.0000 0.0000
# 2 21.9037 39.0680 43.4165 0.0000 0.0000 0.0000
# 3 57.3887 43.4165 196.8768 0.0000 0.0000 0.0000
# 4 0.0000 0.0000 0.0000 38.5161 0.0000 0.0000
# 5 0.0000 0.0000 0.0000 0.0000 44.5528 0.0000
# 6 0.0000 0.0000 0.0000 0.0000 0.0000 43.2162
#
#
#
# Elastic Compliance Matrix: (Units=1/GPa)
#
#
# Indices 1 2 3 4 5 6 
#
# 1 0.022353 -0.007009 -0.004970 0.000000 0.000000 0.000000
# 2 -0.007009 0.036103 -0.005919 0.000000 0.000000 0.000000
# 3 -0.004970 -0.005919 0.007833 0.000000 0.000000 0.000000
# 4 0.000000 0.000000 0.000000 0.025963 0.000000 0.000000
# 5 0.000000 0.000000 0.000000 0.000000 0.022445 0.000000
# 6 0.000000 0.000000 0.000000 0.000000 0.000000 0.023139
#
#
# Mechanical properties :
#
#
# Convention : Reuss Voigt Hill
#
# Bulk Modulus (GPa) = 32.79318 60.63646 46.71482
# Shear Modulus (GPa) = 27.20386 37.09711 32.15049
#
# Velocity S-wave (km/s) = 3.38588 3.95390 3.68086
# Velocity P-wave (km/s) = 5.39492 6.81158 6.14422
#
# Compressibility (1/GPa) = 0.03049414
#
# Stress axis : x y z
#
# Youngs Moduli (GPa) = 44.73734 27.69818 127.66017
#
# Poissons Ratio (x) = 0.19413 0.63448
# Poissons Ratio (y) = 0.31356 0.75558
# Poissons Ratio (z) = 0.22235 0.16394
#
# Static dielectric constant tensor:
#      x y z
#    x 5.526810 0.000000 0.000000 
#    y 0.000000 4.738030 0.000000 
#    z 0.000000 0.000000 4.074890 
# 
# 
# High freq. dielectric constant tensor:
#      x y z
#    x 1.953440 0.000000 0.000000 
#    y 0.000000 1.914890 0.000000 
#    z 0.000000 0.000000 1.937270 
# 
# From -- ./inp_files/11185.got.cif
#   From: 2010.06.25/outbox.cif.g09.slc.cpg/sg43_6_cif.got.tgz:11185.got - 2010.06.26 16:48:59.
