data_PCOD8187127
_publ_section_title
;
Structure prediction by ZEFSAII (Michael W. Deem and Ramdas Pophale) SiO2 
 PCOD8187127
Probable space group: F D D 2
;
_chemical_formula_sum "Si O2"
_cell_formula_units_Z 120
_cell_length_a 8.923917
_cell_length_b 28.508103
_cell_length_c 22.380605
_cell_angle_alpha 90.000000
_cell_angle_beta 90.000000
_cell_angle_gamma 90.000000
_cell_volume 5693.714203
_symmetry_space_group_name_H-M "F D D 2"
_symmetry_group_IT_number 43
_symmetry_cell_setting 'orthorhombic'
loop_
_space_group_symop_operation_xyz
x,y,z
-x,-y,z
1/4-x,1/4+y,1/4+z
1/4+x,1/4-y,1/4+z
x,1/2+y,1/2+z
-x,1/2-y,1/2+z
1/4-x,3/4+y,3/4+z
1/4+x,3/4-y,3/4+z
1/2+x,y,1/2+z
1/2-x,-y,1/2+z
3/4-x,1/4+y,3/4+z
3/4+x,1/4-y,3/4+z
1/2+x,1/2+y,z
1/2-x,1/2-y,z
3/4-x,3/4+y,1/4+z
3/4+x,3/4-y,1/4+z
loop_
_atom_site_type_symbol
_atom_site_label
_atom_site_fract_x
_atom_site_fract_y
_atom_site_fract_z
Si Si1 0.489028 0.808492 0.029650
Si Si2 0.942829 0.796641 0.887521
Si Si3 0.342017 0.024723 0.908864
Si Si4 0.385161 0.784539 0.844255
Si Si5 0.072138 0.914303 0.517242
Si Si6 0.500000 0.500000 0.723789
Si Si7 0.753496 0.439455 0.976989
Si Si8 0.254015 0.665030 0.940985
O O1 0.464228 0.801417 0.100120
O O2 0.559733 0.858497 0.012394
O O3 0.606262 0.767973 0.011152
O O4 0.325055 0.807605 0.996917
O O5 0.905593 0.827899 0.830030
O O6 0.804694 0.793870 0.933360
O O7 0.965975 0.743561 0.862874
O O8 0.083949 0.814568 0.925721
O O9 0.500000 0.000000 0.896558
O O10 0.237447 0.980968 0.928452
O O11 0.336871 0.063841 0.961397
O O12 0.250000 0.750000 0.857569
O O13 0.377651 0.801505 0.776424
O O14 0.362424 0.829815 0.886022
O O15 0.910294 0.939434 0.513631
O O16 0.723296 0.390082 0.947126
#
# Coordination Sequence:
#
# PCOD8187127 Si02
#       8
#    16  16  16  16  16   8  16  16
#     4  11  26  43  66  97 140 171 219 276 340 392
#     4  11  22  43  71  93 133 167 227 270 327 398
#     4  10  23  42  68  92 130 177 220 269 330 405
#     4  10  20  40  66  93 128 174 220 273 320 390
#     4  10  23  42  69  99 123 179 224 275 322 398
#     4  12  26  40  66  98 134 172 208 284 342 388
#     4  10  21  42  67  95 130 175 229 265 333 397
#     4  10  24  42  65 100 128 180 220 270 335 400
#
# _framework density 21.075873000000001
#
# number of rings (size 3 to 8) (size 9 to 14) (size 15 to 20)
#    0.000    1.600    2.667    0.800    4.667    6.400 
#    8.400    0.000    0.000    0.000    0.000    0.000 
#    0.000    0.000    0.000    0.000    0.000    0.000 
#
# Total GULP energy -371782.840674 kJ/mol
# GULP energy per Si atom -12392.761356 kJ/mol
# Density = 2.102790 g / cm^3
# Si number density = 21.075873 Si / 1000 Ang^3
#
#
#
# Elastic Constant Matrix: (Units=GPa)
#
#
# Indices 1 2 3 4 5 6 
#
# 1 61.2439 19.7683 39.1831 0.0000 0.0000 0.0000
# 2 19.7683 110.6372 56.6410 0.0000 0.0000 0.0000
# 3 39.1831 56.6410 145.8701 0.0000 0.0000 0.0000
# 4 0.0000 0.0000 0.0000 38.6283 0.0000 0.0000
# 5 0.0000 0.0000 0.0000 0.0000 36.5519 0.0000
# 6 0.0000 0.0000 0.0000 0.0000 0.0000 19.5167
#
#
#
# Elastic Compliance Matrix: (Units=1/GPa)
#
#
# Indices 1 2 3 4 5 6 
#
# 1 0.019808 -0.001018 -0.004926 0.000000 0.000000 0.000000
# 2 -0.001018 0.011333 -0.004127 0.000000 0.000000 0.000000
# 3 -0.004926 -0.004127 0.009781 0.000000 0.000000 0.000000
# 4 0.000000 0.000000 0.000000 0.025888 0.000000 0.000000
# 5 0.000000 0.000000 0.000000 0.000000 0.027358 0.000000
# 6 0.000000 0.000000 0.000000 0.000000 0.000000 0.051238
#
#
# Mechanical properties :
#
#
# Convention : Reuss Voigt Hill
#
# Bulk Modulus (GPa) = 48.11996 60.99290 54.55643
# Shear Modulus (GPa) = 28.98967 32.41660 30.70314
#
# Velocity S-wave (km/s) = 3.71278 3.92610 3.82093
# Velocity P-wave (km/s) = 6.42348 7.03952 6.73854
#
# Compressibility (1/GPa) = 0.02078140
#
# Stress axis : x y z
#
# Youngs Moduli (GPa) = 50.48472 88.23475 102.23704
#
# Poissons Ratio (x) = 0.08978 0.50358
# Poissons Ratio (y) = 0.05137 0.42197
# Poissons Ratio (z) = 0.24867 0.36418
#
# Static dielectric constant tensor:
#      x y z
#    x 3.740090 0.000000 0.000000 
#    y 0.000000 3.852470 0.000000 
#    z 0.000000 0.000000 3.819200 
# 
# 
# High freq. dielectric constant tensor:
#      x y z
#    x 1.813670 0.000000 0.000000 
#    y 0.000000 1.825840 0.000000 
#    z 0.000000 0.000000 1.831530 
# 
# From -- ./inp_files/20457.got.cif
#   From: 2010.06.25/outbox.cif.g09.slc.cpg/sg43_11_cif.got.tgz:20457.got - 2010.06.26 16:48:59.
