data_PCOD8187638
_publ_section_title
;
Structure prediction by ZEFSAII (Michael W. Deem and Ramdas Pophale) SiO2 
 PCOD8187638
Probable space group: F D D 2
;
_chemical_formula_sum "Si O2"
_cell_formula_units_Z 88
_cell_length_a 28.266315
_cell_length_b 15.544954
_cell_length_c 9.888340
_cell_angle_alpha 90.000000
_cell_angle_beta 90.000000
_cell_angle_gamma 90.000000
_cell_volume 4344.922420
_symmetry_space_group_name_H-M "F D D 2"
_symmetry_group_IT_number 43
_symmetry_cell_setting 'orthorhombic'
loop_
_space_group_symop_operation_xyz
x,y,z
-x,-y,z
1/4-x,1/4+y,1/4+z
1/4+x,1/4-y,1/4+z
x,1/2+y,1/2+z
-x,1/2-y,1/2+z
1/4-x,3/4+y,3/4+z
1/4+x,3/4-y,3/4+z
1/2+x,y,1/2+z
1/2-x,-y,1/2+z
3/4-x,1/4+y,3/4+z
3/4+x,1/4-y,3/4+z
1/2+x,1/2+y,z
1/2-x,1/2-y,z
3/4-x,3/4+y,1/4+z
3/4+x,3/4-y,1/4+z
loop_
_atom_site_type_symbol
_atom_site_label
_atom_site_fract_x
_atom_site_fract_y
_atom_site_fract_z
Si Si1 0.142122 0.190070 0.488010
Si Si2 0.725499 0.607176 0.617316
Si Si3 0.250000 0.750000 0.316588
Si Si4 0.079798 0.134227 0.255833
Si Si5 0.833189 0.545709 0.207505
Si Si6 0.914869 0.411487 0.201115
O O1 0.188487 0.128533 0.496225
O O2 0.119182 0.187541 0.338974
O O3 0.158049 0.285172 0.524632
O O4 0.102804 0.160444 0.596110
O O5 0.719685 0.684558 0.724775
O O6 0.778160 0.597586 0.564355
O O7 0.711476 0.517163 0.686628
O O8 0.283281 0.692559 0.410556
O O9 0.079877 0.160694 0.101909
O O10 0.881701 0.494194 0.197654
O O11 0.832802 0.622180 0.099805
#
# Coordination Sequence:
#
# PCOD8187638 Si02
#       6
#    16  16   8  16  16  16
#     4  11  21  42  71  92 135 175 229 275 344 405
#     4  11  23  43  68 100 132 183 231 279 341 424
#     4  12  22  44  70  96 132 180 234 280 336 418
#     4  12  24  42  67 103 134 177 227 291 343 407
#     4  11  26  43  66  99 141 168 230 280 351 404
#     4  11  23  46  68  96 129 189 217 281 339 424
#
# _framework density 20.253526999999998
#
# number of rings (size 3 to 8) (size 9 to 14) (size 15 to 20)
#    0.000    0.727    3.636    5.455    2.545    1.455 
#    6.545    0.000    0.000    0.000    0.000    0.000 
#    0.000    0.000    0.000    0.000    0.000    0.000 
#
# Total GULP energy -272918.517199 kJ/mol
# GULP energy per Si atom -12405.387145 kJ/mol
# Density = 2.020743 g / cm^3
# Si number density = 20.253527 Si / 1000 Ang^3
#
#
#
# Elastic Constant Matrix: (Units=GPa)
#
#
# Indices 1 2 3 4 5 6 
#
# 1 132.0719 46.9242 56.3062 0.0000 0.0000 0.0000
# 2 46.9242 60.4198 40.6376 0.0000 0.0000 0.0000
# 3 56.3062 40.6376 140.6850 0.0000 0.0000 0.0000
# 4 0.0000 0.0000 0.0000 32.9742 0.0000 0.0000
# 5 0.0000 0.0000 0.0000 0.0000 40.4184 0.0000
# 6 0.0000 0.0000 0.0000 0.0000 0.0000 31.9600
#
#
#
# Elastic Compliance Matrix: (Units=1/GPa)
#
#
# Indices 1 2 3 4 5 6 
#
# 1 0.011083 -0.006980 -0.002420 0.000000 0.000000 0.000000
# 2 -0.006980 0.024938 -0.004410 0.000000 0.000000 0.000000
# 3 -0.002420 -0.004410 0.009350 0.000000 0.000000 0.000000
# 4 0.000000 0.000000 0.000000 0.030327 0.000000 0.000000
# 5 0.000000 0.000000 0.000000 0.000000 0.024741 0.000000
# 6 0.000000 0.000000 0.000000 0.000000 0.000000 0.031289
#
#
# Mechanical properties :
#
#
# Convention : Reuss Voigt Hill
#
# Bulk Modulus (GPa) = 56.33086 68.99031 62.66059
# Shear Modulus (GPa) = 30.25445 33.69109 31.97277
#
# Velocity S-wave (km/s) = 3.86915 4.08299 3.97750
# Velocity P-wave (km/s) = 6.91619 7.50766 7.21799
#
# Compressibility (1/GPa) = 0.01775226
#
# Stress axis : x y z
#
# Youngs Moduli (GPa) = 90.22674 40.09955 106.94931
#
# Poissons Ratio (x) = 0.27991 0.25877
# Poissons Ratio (y) = 0.62981 0.47162
# Poissons Ratio (z) = 0.21831 0.17683
#
# Static dielectric constant tensor:
#      x y z
#    x 3.734230 0.000000 0.000000 
#    y 0.000000 3.784160 0.000000 
#    z 0.000000 0.000000 3.754470 
# 
# 
# High freq. dielectric constant tensor:
#      x y z
#    x 1.800260 0.000000 0.000000 
#    y 0.000000 1.799400 0.000000 
#    z 0.000000 0.000000 1.790510 
# 
# From -- ./inp_files/2902.got.cif
#   From: 2010.06.25/outbox.cif.g09.slc.cpg/sg43_2_cif.got.tgz:2902.got - 2010.06.26 16:48:59.
