data_PCOD8187212
_publ_section_title
;
Structure prediction by ZEFSAII (Michael W. Deem and Ramdas Pophale) SiO2 
 PCOD8187212
Probable space group: F D D 2
;
_chemical_formula_sum "Si O2"
_cell_formula_units_Z 120
_cell_length_a 11.655252
_cell_length_b 22.504942
_cell_length_c 20.097606
_cell_angle_alpha 90.000000
_cell_angle_beta 90.000000
_cell_angle_gamma 90.000000
_cell_volume 5271.617534
_symmetry_space_group_name_H-M "F D D 2"
_symmetry_group_IT_number 43
_symmetry_cell_setting 'orthorhombic'
loop_
_space_group_symop_operation_xyz
x,y,z
-x,-y,z
1/4-x,1/4+y,1/4+z
1/4+x,1/4-y,1/4+z
x,1/2+y,1/2+z
-x,1/2-y,1/2+z
1/4-x,3/4+y,3/4+z
1/4+x,3/4-y,3/4+z
1/2+x,y,1/2+z
1/2-x,-y,1/2+z
3/4-x,1/4+y,3/4+z
3/4+x,1/4-y,3/4+z
1/2+x,1/2+y,z
1/2-x,1/2-y,z
3/4-x,3/4+y,1/4+z
3/4+x,3/4-y,1/4+z
loop_
_atom_site_type_symbol
_atom_site_label
_atom_site_fract_x
_atom_site_fract_y
_atom_site_fract_z
Si Si1 0.618151 0.909563 0.296820
Si Si2 0.550517 0.602978 0.380986
Si Si3 0.000000 0.000000 0.895144
Si Si4 0.539127 0.812591 0.205613
Si Si5 0.691950 0.694256 0.762394
Si Si6 0.427833 0.342066 0.572187
Si Si7 0.658345 0.030570 0.767135
Si Si8 0.511611 0.065874 0.640899
O O1 0.535529 0.945575 0.346951
O O2 0.560217 0.879736 0.231975
O O3 0.708026 0.953669 0.262152
O O4 0.672842 0.855333 0.337455
O O5 0.506988 0.565406 0.442929
O O6 0.439289 0.627953 0.340284
O O7 0.617126 0.555257 0.337339
O O8 0.635238 0.656089 0.403600
O O9 0.901095 0.978845 0.946745
O O10 0.443088 0.789292 0.257834
O O11 0.476974 0.808748 0.135527
O O12 0.750000 0.750000 0.799285
O O13 0.716881 0.634264 0.802513
O O14 0.396740 0.291216 0.517177
O O15 0.584861 0.060572 0.708626
O O16 0.500000 0.000000 0.610028
#
# Coordination Sequence:
#
# PCOD8187212 Si02
#       8
#    16  16   8  16  16  16  16  16
#     4  11  26  44  72 101 139 191 241 302 381 438
#     4  10  21  38  67  97 136 186 228 285 359 426
#     4  12  24  50  74 100 146 190 242 308 380 456
#     4  11  25  45  71  99 135 184 243 295 368 455
#     4  11  24  40  64  99 134 177 231 291 354 431
#     4  11  22  44  68  97 140 188 233 293 365 439
#     4  11  21  42  69  98 138 189 239 289 359 447
#     4  11  24  41  65 106 141 177 242 301 356 436
#
# _framework density 22.763411999999999
#
# number of rings (size 3 to 8) (size 9 to 14) (size 15 to 20)
#    0.000    1.067    1.333    6.000    2.800    1.067 
#    3.600    0.000    0.000    0.000    0.000    0.000 
#    0.000    0.000    0.000    0.000    0.000    0.000 
#
# Total GULP energy -371757.688552 kJ/mol
# GULP energy per Si atom -12391.922952 kJ/mol
# Density = 2.271160 g / cm^3
# Si number density = 22.763412 Si / 1000 Ang^3
#
#
#
# Elastic Constant Matrix: (Units=GPa)
#
#
# Indices 1 2 3 4 5 6 
#
# 1 147.3794 50.0483 16.5873 0.0000 0.0000 0.0000
# 2 50.0483 118.4781 22.6662 0.0000 0.0000 0.0000
# 3 16.5873 22.6662 45.5664 0.0000 0.0000 0.0000
# 4 0.0000 0.0000 0.0000 39.1914 0.0000 0.0000
# 5 0.0000 0.0000 0.0000 0.0000 29.6348 0.0000
# 6 0.0000 0.0000 0.0000 0.0000 0.0000 47.8782
#
#
#
# Elastic Compliance Matrix: (Units=1/GPa)
#
#
# Indices 1 2 3 4 5 6 
#
# 1 0.007997 -0.003118 -0.001360 0.000000 0.000000 0.000000
# 2 -0.003118 0.010544 -0.004110 0.000000 0.000000 0.000000
# 3 -0.001360 -0.004110 0.024485 0.000000 0.000000 0.000000
# 4 0.000000 0.000000 0.000000 0.025516 0.000000 0.000000
# 5 0.000000 0.000000 0.000000 0.000000 0.033744 0.000000
# 6 0.000000 0.000000 0.000000 0.000000 0.000000 0.020886
#
#
# Mechanical properties :
#
#
# Convention : Reuss Voigt Hill
#
# Bulk Modulus (GPa) = 38.68399 54.44750 46.56575
# Shear Modulus (GPa) = 33.56488 38.14902 35.85695
#
# Velocity S-wave (km/s) = 3.84410 4.09821 3.97319
# Velocity P-wave (km/s) = 6.06083 6.80915 6.44586
#
# Compressibility (1/GPa) = 0.02585049
#
# Stress axis : x y z
#
# Youngs Moduli (GPa) = 125.04491 94.84297 40.84057
#
# Poissons Ratio (x) = 0.29572 0.05555
# Poissons Ratio (y) = 0.38989 0.16785
# Poissons Ratio (z) = 0.17008 0.38978
#
# Static dielectric constant tensor:
#      x y z
#    x 4.688700 0.000000 0.000000 
#    y 0.000000 4.119400 0.000000 
#    z 0.000000 0.000000 3.965140 
# 
# 
# High freq. dielectric constant tensor:
#      x y z
#    x 1.917330 0.000000 0.000000 
#    y 0.000000 1.889330 0.000000 
#    z 0.000000 0.000000 1.888830 
# 
# From -- ./inp_files/17263.got.cif
#   From: 2010.06.25/outbox.cif.g09.slc.cpg/sg43_9_cif.got.tgz:17263.got - 2010.06.26 16:48:59.
