data_PCOD8187741
_publ_section_title
;
Structure prediction by ZEFSAII (Michael W. Deem and Ramdas Pophale) SiO2 
 PCOD8187741
Probable space group: F D D 2
;
_chemical_formula_sum "Si O2"
_cell_formula_units_Z 64
_cell_length_a 25.845014
_cell_length_b 7.583626
_cell_length_c 13.252596
_cell_angle_alpha 90.000000
_cell_angle_beta 90.000000
_cell_angle_gamma 90.000000
_cell_volume 2597.494505
_symmetry_space_group_name_H-M "F D D 2"
_symmetry_group_IT_number 43
_symmetry_cell_setting 'orthorhombic'
loop_
_space_group_symop_operation_xyz
x,y,z
-x,-y,z
1/4-x,1/4+y,1/4+z
1/4+x,1/4-y,1/4+z
x,1/2+y,1/2+z
-x,1/2-y,1/2+z
1/4-x,3/4+y,3/4+z
1/4+x,3/4-y,3/4+z
1/2+x,y,1/2+z
1/2-x,-y,1/2+z
3/4-x,1/4+y,3/4+z
3/4+x,1/4-y,3/4+z
1/2+x,1/2+y,z
1/2-x,1/2-y,z
3/4-x,3/4+y,1/4+z
3/4+x,3/4-y,1/4+z
loop_
_atom_site_type_symbol
_atom_site_label
_atom_site_fract_x
_atom_site_fract_y
_atom_site_fract_z
Si Si1 0.411672 0.306978 0.571860
Si Si2 0.442321 0.017358 0.727158
Si Si3 0.443251 0.566463 0.904488
Si Si4 0.160154 0.096288 0.932053
O O1 0.436582 0.192276 0.660758
O O2 0.349384 0.274236 0.568128
O O3 0.435310 0.251361 0.463972
O O4 0.423927 0.511837 0.595366
O O5 0.500000 0.000000 0.773060
O O6 0.432232 0.847511 0.654454
O O7 0.500000 0.500000 0.928863
O O8 0.435581 0.594728 0.786383
O O9 0.402087 0.420397 0.943298
#
# Coordination Sequence:
#
# PCOD8187741 Si02
#       4
#    16  16  16  16
#     4  11  24  46  71 106 153 194 246 310 374 441
#     4  11  25  45  74 108 148 193 252 308 371 458
#     4  11  25  47  76 111 151 194 254 311 372 459
#     4  11  25  45  74 108 147 195 252 307 369 457
#
# _framework density 24.639130000000002
#
# number of rings (size 3 to 8) (size 9 to 14) (size 15 to 20)
#    0.000    1.000    0.000    8.250    7.000    0.000 
#    0.000    5.000    5.500    0.000    0.000    0.000 
#    0.000    0.000    0.000    0.000    0.000    0.000 
#
# Total GULP energy -198356.117102 kJ/mol
# GULP energy per Si atom -12397.257319 kJ/mol
# Density = 2.458305 g / cm^3
# Si number density = 24.639130 Si / 1000 Ang^3
#
#
#
# Elastic Constant Matrix: (Units=GPa)
#
#
# Indices 1 2 3 4 5 6 
#
# 1 125.3647 8.8407 -7.2289 0.0000 0.0000 0.0000
# 2 8.8407 158.5211 13.5043 0.0000 0.0000 0.0000
# 3 -7.2289 13.5043 58.7084 0.0000 0.0000 0.0000
# 4 0.0000 0.0000 0.0000 46.0534 0.0000 0.0000
# 5 0.0000 0.0000 0.0000 0.0000 25.9635 0.0000
# 6 0.0000 0.0000 0.0000 0.0000 0.0000 20.2017
#
#
#
# Elastic Compliance Matrix: (Units=1/GPa)
#
#
# Indices 1 2 3 4 5 6 
#
# 1 0.008080 -0.000546 0.001120 0.000000 0.000000 0.000000
# 2 -0.000546 0.006471 -0.001556 0.000000 0.000000 0.000000
# 3 0.001120 -0.001556 0.017529 0.000000 0.000000 0.000000
# 4 0.000000 0.000000 0.000000 0.021714 0.000000 0.000000
# 5 0.000000 0.000000 0.000000 0.000000 0.038516 0.000000
# 6 0.000000 0.000000 0.000000 0.000000 0.000000 0.049501
#
#
# Mechanical properties :
#
#
# Convention : Reuss Voigt Hill
#
# Bulk Modulus (GPa) = 33.20318 41.42516 37.31417
# Shear Modulus (GPa) = 32.50712 40.27561 36.39137
#
# Velocity S-wave (km/s) = 3.63620 4.04743 3.84731
# Velocity P-wave (km/s) = 5.57981 6.22025 5.90871
#
# Compressibility (1/GPa) = 0.03011760
#
# Stress axis : x y z
#
# Youngs Moduli (GPa) = 123.76474 154.52850 57.04780
#
# Poissons Ratio (x) = 0.08438 -0.06392
# Poissons Ratio (y) = 0.06758 0.08875
# Poissons Ratio (z) = -0.13868 0.24041
#
# Static dielectric constant tensor:
#      x y z
#    x 4.620280 0.000000 0.000000 
#    y 0.000000 4.700760 0.000000 
#    z 0.000000 0.000000 4.127250 
# 
# 
# High freq. dielectric constant tensor:
#      x y z
#    x 1.980850 0.000000 0.000000 
#    y 0.000000 1.985720 0.000000 
#    z 0.000000 0.000000 1.960980 
# 
# From -- ./inp_files/11122.got.cif
#   From: 2010.06.25/outbox.cif.g09.slc.cpg/sg43_6_cif.got.tgz:11122.got - 2010.06.26 16:48:59.
