data_PCOD8187328
_publ_section_title
;
Structure prediction by ZEFSAII (Michael W. Deem and Ramdas Pophale) SiO2 
 PCOD8187328
Probable space group: F D D 2
;
_chemical_formula_sum "Si O2"
_cell_formula_units_Z 120
_cell_length_a 27.855270
_cell_length_b 12.051153
_cell_length_c 16.401361
_cell_angle_alpha 90.000000
_cell_angle_beta 90.000000
_cell_angle_gamma 90.000000
_cell_volume 5505.742050
_symmetry_space_group_name_H-M "F D D 2"
_symmetry_group_IT_number 43
_symmetry_cell_setting 'orthorhombic'
loop_
_space_group_symop_operation_xyz
x,y,z
-x,-y,z
1/4-x,1/4+y,1/4+z
1/4+x,1/4-y,1/4+z
x,1/2+y,1/2+z
-x,1/2-y,1/2+z
1/4-x,3/4+y,3/4+z
1/4+x,3/4-y,3/4+z
1/2+x,y,1/2+z
1/2-x,-y,1/2+z
3/4-x,1/4+y,3/4+z
3/4+x,1/4-y,3/4+z
1/2+x,1/2+y,z
1/2-x,1/2-y,z
3/4-x,3/4+y,1/4+z
3/4+x,3/4-y,1/4+z
loop_
_atom_site_type_symbol
_atom_site_label
_atom_site_fract_x
_atom_site_fract_y
_atom_site_fract_z
Si Si1 0.697059 0.753782 0.407760
Si Si2 0.986736 0.333919 0.994614
Si Si3 0.343121 0.373268 0.724171
Si Si4 0.401784 0.580251 0.666203
Si Si5 0.715893 0.162669 0.731574
Si Si6 0.113492 0.181661 0.222214
Si Si7 0.000000 0.500000 0.133014
Si Si8 0.639319 0.356768 0.156566
O O1 0.750000 0.750000 0.450284
O O2 0.701453 0.728059 0.313182
O O3 0.677702 0.879261 0.415714
O O4 0.656719 0.670839 0.446628
O O5 0.940128 0.354532 0.941075
O O6 0.035965 0.379893 0.954931
O O7 0.992268 0.201404 0.004918
O O8 0.979780 0.396530 0.080148
O O9 0.363692 0.487581 0.690462
O O10 0.352354 0.360481 0.820691
O O11 0.368226 0.273128 0.675389
O O12 0.391833 0.686337 0.722335
O O13 0.455571 0.539151 0.688231
O O14 0.750000 0.250000 0.682547
O O15 0.665548 0.145933 0.684239
O O16 0.108450 0.128483 0.311051
#
# Coordination Sequence:
#
# PCOD8187328 Si02
#       8
#    16  16  16  16  16  16   8  16
#     4  10  24  38  63  97 133 171 223 283 344 397
#     4  11  20  44  68  96 130 184 230 275 334 428
#     4  11  26  43  74  99 139 182 239 277 354 420
#     4  11  26  45  69 100 140 182 228 287 348 420
#     4  10  22  38  69  94 127 175 231 268 340 412
#     4  11  25  41  67  96 139 169 226 294 342 401
#     4  10  24  42  70  92 136 190 228 274 352 424
#     4  11  23  43  66  97 135 180 232 281 340 414
#
# _framework density 21.795428000000001
#
# number of rings (size 3 to 8) (size 9 to 14) (size 15 to 20)
#    0.000    1.333    4.000    0.800   16.800    1.067 
#    2.400    0.000    1.467    0.000    0.000    0.000 
#    0.000    0.000    0.000    0.000    0.000    0.000 
#
# Total GULP energy -371866.877281 kJ/mol
# GULP energy per Si atom -12395.562576 kJ/mol
# Density = 2.174582 g / cm^3
# Si number density = 21.795428 Si / 1000 Ang^3
#
#
#
# Elastic Constant Matrix: (Units=GPa)
#
#
# Indices 1 2 3 4 5 6 
#
# 1 167.4817 43.3993 20.3840 0.0000 0.0000 0.0000
# 2 43.3993 152.9521 21.9984 0.0000 0.0000 0.0000
# 3 20.3840 21.9984 47.4699 0.0000 0.0000 0.0000
# 4 0.0000 0.0000 0.0000 26.7291 0.0000 0.0000
# 5 0.0000 0.0000 0.0000 0.0000 16.8944 0.0000
# 6 0.0000 0.0000 0.0000 0.0000 0.0000 48.7149
#
#
#
# Elastic Compliance Matrix: (Units=1/GPa)
#
#
# Indices 1 2 3 4 5 6 
#
# 1 0.006638 -0.001579 -0.002119 0.000000 0.000000 0.000000
# 2 -0.001579 0.007380 -0.002742 0.000000 0.000000 0.000000
# 3 -0.002119 -0.002742 0.023247 0.000000 0.000000 0.000000
# 4 0.000000 0.000000 0.000000 0.037412 0.000000 0.000000
# 5 0.000000 0.000000 0.000000 0.000000 0.059191 0.000000
# 6 0.000000 0.000000 0.000000 0.000000 0.000000 0.020528
#
#
# Mechanical properties :
#
#
# Convention : Reuss Voigt Hill
#
# Bulk Modulus (GPa) = 41.00828 59.94079 50.47454
# Shear Modulus (GPa) = 28.50568 37.27582 32.89075
#
# Velocity S-wave (km/s) = 3.62038 4.14001 3.88888
# Velocity P-wave (km/s) = 6.02761 7.10030 6.58583
#
# Compressibility (1/GPa) = 0.02438532
#
# Stress axis : x y z
#
# Youngs Moduli (GPa) = 150.65336 135.49488 43.01706
#
# Poissons Ratio (x) = 0.21391 0.09114
# Poissons Ratio (y) = 0.23784 0.11796
# Poissons Ratio (z) = 0.31919 0.37156
#
# Static dielectric constant tensor:
#      x y z
#    x 5.047830 0.000000 0.000000 
#    y 0.000000 4.343570 0.000000 
#    z 0.000000 0.000000 3.466560 
# 
# 
# High freq. dielectric constant tensor:
#      x y z
#    x 1.881250 0.000000 0.000000 
#    y 0.000000 1.878240 0.000000 
#    z 0.000000 0.000000 1.809120 
# 
# From -- ./inp_files/15080.got.cif
#   From: 2010.06.25/outbox.cif.g09.slc.cpg/sg43_8_cif.got.tgz:15080.got - 2010.06.26 16:48:59.
