data_PCOD8187406
_publ_section_title
;
Structure prediction by ZEFSAII (Michael W. Deem and Ramdas Pophale) SiO2 
 PCOD8187406
Probable space group: F D D 2
;
_chemical_formula_sum "Si O2"
_cell_formula_units_Z 80
_cell_length_a 24.766295
_cell_length_b 18.726285
_cell_length_c 7.806594
_cell_angle_alpha 90.000000
_cell_angle_beta 90.000000
_cell_angle_gamma 90.000000
_cell_volume 3620.547619
_symmetry_space_group_name_H-M "F D D 2"
_symmetry_group_IT_number 43
_symmetry_cell_setting 'orthorhombic'
loop_
_space_group_symop_operation_xyz
x,y,z
-x,-y,z
1/4-x,1/4+y,1/4+z
1/4+x,1/4-y,1/4+z
x,1/2+y,1/2+z
-x,1/2-y,1/2+z
1/4-x,3/4+y,3/4+z
1/4+x,3/4-y,3/4+z
1/2+x,y,1/2+z
1/2-x,-y,1/2+z
3/4-x,1/4+y,3/4+z
3/4+x,1/4-y,3/4+z
1/2+x,1/2+y,z
1/2-x,1/2-y,z
3/4-x,3/4+y,1/4+z
3/4+x,3/4-y,1/4+z
loop_
_atom_site_type_symbol
_atom_site_label
_atom_site_fract_x
_atom_site_fract_y
_atom_site_fract_z
Si Si1 0.858235 0.928530 0.766530
Si Si2 0.217448 0.821400 0.683189
Si Si3 0.288032 0.185584 0.566622
Si Si4 0.489482 0.330076 0.618686
Si Si5 0.632991 0.982055 0.937393
O O1 0.903065 0.938551 0.912986
O O2 0.799588 0.948490 0.840904
O O3 0.859531 0.848780 0.687333
O O4 0.873449 0.986947 0.626488
O O5 0.250000 0.750000 0.643403
O O6 0.238853 0.879370 0.549721
O O7 0.227307 0.845623 0.879751
O O8 0.250000 0.250000 0.623221
O O9 0.281384 0.125902 0.709138
O O10 0.348800 0.217698 0.560063
O O11 0.446001 0.265721 0.631020
#
# Coordination Sequence:
#
# PCOD8187406 Si02
#       5
#    16  16  16  16  16
#     4  11  23  44  70  98 142 185 225 296 355 408
#     4  10  22  42  69  98 128 184 235 274 350 431
#     4  11  21  42  71  96 131 191 230 284 356 432
#     4  11  23  44  66  99 145 174 230 301 345 410
#     4  11  22  43  69  97 137 187 227 286 361 413
#
# _framework density 22.096104
#
# number of rings (size 3 to 8) (size 9 to 14) (size 15 to 20)
#    0.000    1.200    6.000    1.800    0.000    1.600 
#   25.200    0.000    0.000    0.000    0.000    0.000 
#    0.000    0.000    0.000    0.000    0.000    0.000 
#
# Total GULP energy -247972.661890 kJ/mol
# GULP energy per Si atom -12398.633094 kJ/mol
# Density = 2.204581 g / cm^3
# Si number density = 22.096104 Si / 1000 Ang^3
#
#
#
# Elastic Constant Matrix: (Units=GPa)
#
#
# Indices 1 2 3 4 5 6 
#
# 1 117.3092 6.8137 -1.7646 0.0002 -0.0004 0.0000
# 2 6.8137 44.4762 26.9124 0.0014 -0.0007 -0.0001
# 3 -1.7646 26.9124 103.7276 0.0017 -0.0013 -0.0002
# 4 0.0002 0.0014 0.0017 14.5712 -0.0011 -0.0002
# 5 -0.0004 -0.0007 -0.0013 -0.0011 25.7164 0.0001
# 6 0.0000 -0.0001 -0.0002 -0.0002 0.0001 41.8934
#
#
#
# Elastic Compliance Matrix: (Units=1/GPa)
#
#
# Indices 1 2 3 4 5 6 
#
# 1 0.008630 -0.001674 0.000581 0.000000 0.000000 0.000000
# 2 -0.001674 0.026996 -0.007033 -0.000002 0.000000 0.000000
# 3 0.000581 -0.007033 0.011475 -0.000001 0.000000 0.000000
# 4 0.000000 -0.000002 -0.000001 0.068628 0.000003 0.000000
# 5 0.000000 0.000000 0.000000 0.000003 0.038886 0.000000
# 6 0.000000 0.000000 0.000000 0.000000 0.000000 0.023870
#
#
# Mechanical properties :
#
#
# Convention : Reuss Voigt Hill
#
# Bulk Modulus (GPa) = 32.41412 36.60399 34.50906
# Shear Modulus (GPa) = 24.38791 32.00631 28.19711
#
# Velocity S-wave (km/s) = 3.32583 3.81005 3.57615
# Velocity P-wave (km/s) = 5.42675 5.99642 5.71869
#
# Compressibility (1/GPa) = 0.03085075
#
# Stress axis : x y z
#
# Youngs Moduli (GPa) = 115.86896 37.04291 87.14494
#
# Poissons Ratio (x) = 0.06200 -0.05064
# Poissons Ratio (y) = 0.19394 0.61285
# Poissons Ratio (z) = -0.06733 0.26051
#
# Static dielectric constant tensor:
#      x y z
#    x 4.541260 0.000000 0.000000 
#    y 0.000000 3.753920 0.000000 
#    z 0.000000 0.000000 3.900910 
# 
# 
# High freq. dielectric constant tensor:
#      x y z
#    x 1.887930 0.000000 0.000000 
#    y 0.000000 1.847460 0.000000 
#    z 0.000000 0.000000 1.869910 
# 
# From -- ./inp_files/4158.got.cif
#   From: 2010.06.25/outbox.cif.g09.slc.cpg/sg43_3_cif.got.tgz:4158.got - 2010.06.26 16:48:59.
