data_PCOD8187507
_publ_section_title
;
Structure prediction by ZEFSAII (Michael W. Deem and Ramdas Pophale) SiO2 
 PCOD8187507
Probable space group: F D D 2
;
_chemical_formula_sum "Si O2"
_cell_formula_units_Z 120
_cell_length_a 12.624375
_cell_length_b 25.590551
_cell_length_c 16.374879
_cell_angle_alpha 90.000000
_cell_angle_beta 90.000000
_cell_angle_gamma 90.000000
_cell_volume 5290.145573
_symmetry_space_group_name_H-M "F D D 2"
_symmetry_group_IT_number 43
_symmetry_cell_setting 'orthorhombic'
loop_
_space_group_symop_operation_xyz
x,y,z
-x,-y,z
1/4-x,1/4+y,1/4+z
1/4+x,1/4-y,1/4+z
x,1/2+y,1/2+z
-x,1/2-y,1/2+z
1/4-x,3/4+y,3/4+z
1/4+x,3/4-y,3/4+z
1/2+x,y,1/2+z
1/2-x,-y,1/2+z
3/4-x,1/4+y,3/4+z
3/4+x,1/4-y,3/4+z
1/2+x,1/2+y,z
1/2-x,1/2-y,z
3/4-x,3/4+y,1/4+z
3/4+x,3/4-y,1/4+z
loop_
_atom_site_type_symbol
_atom_site_label
_atom_site_fract_x
_atom_site_fract_y
_atom_site_fract_z
Si Si1 0.114774 0.501627 0.601650
Si Si2 0.190781 0.826697 0.536659
Si Si3 0.072801 0.697421 0.282287
Si Si4 0.500000 0.000000 0.145618
Si Si5 0.903551 0.468258 0.782701
Si Si6 0.617578 0.660231 0.146278
Si Si7 0.481166 0.236026 0.129379
Si Si8 0.916667 0.111251 0.071098
O O1 0.203392 0.537631 0.560333
O O2 0.088689 0.531675 0.685383
O O3 0.145236 0.439513 0.607771
O O4 0.000000 0.500000 0.553368
O O5 0.153839 0.886147 0.530292
O O6 0.194634 0.794765 0.451358
O O7 0.310100 0.825264 0.569522
O O8 0.111588 0.802661 0.603136
O O9 0.159590 0.726098 0.337526
O O10 0.072966 0.712535 0.187170
O O11 0.790035 0.495125 0.797866
O O12 0.908624 0.412081 0.828581
O O13 0.000000 0.500000 0.822169
O O14 0.565125 0.714016 0.177655
O O15 0.528250 0.618739 0.117385
O O16 0.686280 0.640147 0.222712
#
# Coordination Sequence:
#
# PCOD8187507 Si02
#       8
#    16  16  16   8  16  16  16  16
#     4  11  23  43  72 106 138 181 243 304 360 427
#     4  12  25  47  72 103 142 197 238 297 366 433
#     4  12  27  46  72 106 147 189 247 298 364 440
#     4  12  28  50  72 110 154 192 240 306 368 448
#     4  10  23  45  67  98 138 179 232 294 360 435
#     4  11  23  40  71 104 145 177 245 299 362 424
#     4  11  24  45  68 101 138 186 235 297 345 435
#     4  11  23  42  69 108 138 189 233 307 370 418
#
# _framework density 22.683686000000002
#
# number of rings (size 3 to 8) (size 9 to 14) (size 15 to 20)
#    0.000    0.800    2.667    4.800    8.400    0.000 
#    7.200    0.000    0.000    0.000    0.000    0.000 
#    0.000    0.000    0.000    0.000    0.000    0.000 
#
# Total GULP energy -371776.391829 kJ/mol
# GULP energy per Si atom -12392.546394 kJ/mol
# Density = 2.263206 g / cm^3
# Si number density = 22.683686 Si / 1000 Ang^3
#
#
#
# Elastic Constant Matrix: (Units=GPa)
#
#
# Indices 1 2 3 4 5 6 
#
# 1 78.8791 48.7834 28.8917 0.0000 0.0000 0.0000
# 2 48.7834 140.6087 42.6390 0.0000 0.0000 0.0000
# 3 28.8917 42.6390 82.3824 0.0000 0.0000 0.0000
# 4 0.0000 0.0000 0.0000 23.9041 0.0000 0.0000
# 5 0.0000 0.0000 0.0000 0.0000 36.6278 0.0000
# 6 0.0000 0.0000 0.0000 0.0000 0.0000 39.1091
#
#
#
# Elastic Compliance Matrix: (Units=1/GPa)
#
#
# Indices 1 2 3 4 5 6 
#
# 1 0.016923 -0.004830 -0.003435 0.000000 0.000000 0.000000
# 2 -0.004830 0.009814 -0.003386 0.000000 0.000000 0.000000
# 3 -0.003435 -0.003386 0.015096 0.000000 0.000000 0.000000
# 4 0.000000 0.000000 0.000000 0.041834 0.000000 0.000000
# 5 0.000000 0.000000 0.000000 0.000000 0.027302 0.000000
# 6 0.000000 0.000000 0.000000 0.000000 0.000000 0.025570
#
#
# Mechanical properties :
#
#
# Convention : Reuss Voigt Hill
#
# Bulk Modulus (GPa) = 53.96230 60.27760 57.11995
# Shear Modulus (GPa) = 30.11756 32.03194 31.07475
#
# Velocity S-wave (km/s) = 3.64774 3.76189 3.70525
# Velocity P-wave (km/s) = 6.44841 6.74536 6.59856
#
# Compressibility (1/GPa) = 0.01853146
#
# Stress axis : x y z
#
# Youngs Moduli (GPa) = 59.09207 101.89245 66.24409
#
# Poissons Ratio (x) = 0.49209 0.22756
# Poissons Ratio (y) = 0.28539 0.22429
# Poissons Ratio (z) = 0.20299 0.34500
#
# Static dielectric constant tensor:
#      x y z
#    x 4.045740 0.000000 0.000000 
#    y 0.000000 4.473150 0.000000 
#    z 0.000000 0.000000 3.916730 
# 
# 
# High freq. dielectric constant tensor:
#      x y z
#    x 1.883110 0.000000 0.000000 
#    y 0.000000 1.919910 0.000000 
#    z 0.000000 0.000000 1.886400 
# 
# From -- ./inp_files/13460.got.cif
#   From: 2010.06.25/outbox.cif.g09.slc.cpg/sg43_7_cif.got.tgz:13460.got - 2010.06.26 16:48:59.
