data_PCOD8187327
_publ_section_title
;
Structure prediction by ZEFSAII (Michael W. Deem and Ramdas Pophale) SiO2 
 PCOD8187327
Probable space group: F D D 2
;
_chemical_formula_sum "Si O2"
_cell_formula_units_Z 120
_cell_length_a 29.098004
_cell_length_b 22.359301
_cell_length_c 8.483329
_cell_angle_alpha 90.000000
_cell_angle_beta 90.000000
_cell_angle_gamma 90.000000
_cell_volume 5519.347418
_symmetry_space_group_name_H-M "F D D 2"
_symmetry_group_IT_number 43
_symmetry_cell_setting 'orthorhombic'
loop_
_space_group_symop_operation_xyz
x,y,z
-x,-y,z
1/4-x,1/4+y,1/4+z
1/4+x,1/4-y,1/4+z
x,1/2+y,1/2+z
-x,1/2-y,1/2+z
1/4-x,3/4+y,3/4+z
1/4+x,3/4-y,3/4+z
1/2+x,y,1/2+z
1/2-x,-y,1/2+z
3/4-x,1/4+y,3/4+z
3/4+x,1/4-y,3/4+z
1/2+x,1/2+y,z
1/2-x,1/2-y,z
3/4-x,3/4+y,1/4+z
3/4+x,3/4-y,1/4+z
loop_
_atom_site_type_symbol
_atom_site_label
_atom_site_fract_x
_atom_site_fract_y
_atom_site_fract_z
Si Si1 0.596916 0.926354 0.537840
Si Si2 0.782549 0.854907 0.017115
Si Si3 0.536294 0.322835 0.470018
Si Si4 0.827472 0.244773 0.086108
Si Si5 0.831270 0.448230 0.918423
Si Si6 0.803428 0.607857 0.541575
Si Si7 0.742329 0.945189 0.259180
Si Si8 0.250000 0.750000 0.331981
O O1 0.570055 0.933951 0.369274
O O2 0.591968 0.855736 0.552062
O O3 0.652154 0.937146 0.543738
O O4 0.573272 0.966404 0.675189
O O5 0.805153 0.892590 0.873079
O O6 0.745462 0.807927 0.944795
O O7 0.755243 0.906768 0.107465
O O8 0.574028 0.335533 0.335358
O O9 0.483838 0.341176 0.425644
O O10 0.540748 0.250573 0.474436
O O11 0.878615 0.247882 0.161241
O O12 0.792919 0.267551 0.220232
O O13 0.816268 0.176396 0.054415
O O14 0.784555 0.477234 0.852265
O O15 0.781301 0.602864 0.370974
#
# Coordination Sequence:
#
# PCOD8187327 Si02
#       8
#    16  16  16  16  16  16  16   8
#     4  10  23  40  65  90 131 170 216 281 332 405
#     4  11  24  40  59 102 134 169 220 282 339 389
#     4  11  20  42  66  92 131 164 226 278 333 395
#     4  11  23  42  65  89 127 179 225 267 332 419
#     4   9  21  41  61  92 118 170 223 261 333 396
#     4  10  22  41  63  95 117 175 225 260 337 406
#     4  10  22  38  67  91 125 170 216 279 330 393
#     4  12  26  40  62  94 136 180 218 274 338 410
#
# _framework density 21.741702
#
# number of rings (size 3 to 8) (size 9 to 14) (size 15 to 20)
#    0.000    1.600    1.333    3.200    5.600    3.200 
#    2.400    0.000    0.000    0.000    0.000    0.000 
#    0.000    0.000    0.000    0.000    0.000    0.000 
#
# Total GULP energy -371641.832502 kJ/mol
# GULP energy per Si atom -12388.061083 kJ/mol
# Density = 2.169222 g / cm^3
# Si number density = 21.741702 Si / 1000 Ang^3
#
#
#
# Elastic Constant Matrix: (Units=GPa)
#
#
# Indices 1 2 3 4 5 6 
#
# 1 80.3186 3.5396 36.5051 -0.0007 -0.0010 0.0001
# 2 3.5396 73.6870 29.2504 -0.0028 0.0003 -0.0013
# 3 36.5051 29.2504 133.8584 -0.0025 0.0007 -0.0036
# 4 -0.0007 -0.0028 -0.0025 41.2760 0.0005 -0.0021
# 5 -0.0010 0.0003 0.0007 0.0005 20.4530 -0.0001
# 6 0.0001 -0.0013 -0.0036 -0.0021 -0.0001 21.6527
#
#
#
# Elastic Compliance Matrix: (Units=1/GPa)
#
#
# Indices 1 2 3 4 5 6 
#
# 1 0.014271 0.000941 -0.004098 0.000000 0.000001 -0.000001
# 2 0.000941 0.014922 -0.003517 0.000001 0.000000 0.000000
# 3 -0.004098 -0.003517 0.009357 0.000000 0.000000 0.000001
# 4 0.000000 0.000001 0.000000 0.024227 -0.000001 0.000002
# 5 0.000001 0.000000 0.000000 -0.000001 0.048893 0.000000
# 6 -0.000001 0.000000 0.000001 0.000002 0.000000 0.046184
#
#
# Mechanical properties :
#
#
# Convention : Reuss Voigt Hill
#
# Bulk Modulus (GPa) = 39.67928 47.38381 43.53154
# Shear Modulus (GPa) = 27.83935 31.24759 29.54347
#
# Velocity S-wave (km/s) = 3.58223 3.79518 3.69024
# Velocity P-wave (km/s) = 5.94977 6.40670 6.18246
#
# Compressibility (1/GPa) = 0.02520207
#
# Stress axis : x y z
#
# Youngs Moduli (GPa) = 70.07057 67.01539 106.87578
#
# Poissons Ratio (x) = -0.06306 0.43794
# Poissons Ratio (y) = -0.06594 0.37592
# Poissons Ratio (z) = 0.28712 0.23572
#
# Static dielectric constant tensor:
#      x y z
#    x 4.490270 0.000000 0.000000 
#    y 0.000000 3.729710 0.000000 
#    z 0.000000 0.000000 4.106970 
# 
# 
# High freq. dielectric constant tensor:
#      x y z
#    x 1.839330 0.000000 0.000000 
#    y 0.000000 1.853120 0.000000 
#    z 0.000000 0.000000 1.861390 
# 
# From -- ./inp_files/4807.got.cif
#   From: 2010.06.25/outbox.cif.g09.slc.cpg/sg43_3_cif.got.tgz:4807.got - 2010.06.26 16:48:59.
