data_PCOD8187538
_publ_section_title
;
Structure prediction by ZEFSAII (Michael W. Deem and Ramdas Pophale) SiO2 
 PCOD8187538
Probable space group: F D D 2
;
_chemical_formula_sum "Si O2"
_cell_formula_units_Z 96
_cell_length_a 15.042127
_cell_length_b 20.966033
_cell_length_c 14.632777
_cell_angle_alpha 90.000000
_cell_angle_beta 90.000000
_cell_angle_gamma 90.000000
_cell_volume 4614.793478
_symmetry_space_group_name_H-M "F D D 2"
_symmetry_group_IT_number 43
_symmetry_cell_setting 'orthorhombic'
loop_
_space_group_symop_operation_xyz
x,y,z
-x,-y,z
1/4-x,1/4+y,1/4+z
1/4+x,1/4-y,1/4+z
x,1/2+y,1/2+z
-x,1/2-y,1/2+z
1/4-x,3/4+y,3/4+z
1/4+x,3/4-y,3/4+z
1/2+x,y,1/2+z
1/2-x,-y,1/2+z
3/4-x,1/4+y,3/4+z
3/4+x,1/4-y,3/4+z
1/2+x,1/2+y,z
1/2-x,1/2-y,z
3/4-x,3/4+y,1/4+z
3/4+x,3/4-y,1/4+z
loop_
_atom_site_type_symbol
_atom_site_label
_atom_site_fract_x
_atom_site_fract_y
_atom_site_fract_z
Si Si1 0.372352 0.401827 0.827730
Si Si2 0.059878 0.718003 0.538712
Si Si3 0.763860 0.993305 0.588377
Si Si4 0.482925 0.104978 0.905843
Si Si5 0.680975 0.607404 0.029801
Si Si6 0.637349 0.508671 0.403906
O O1 0.376540 0.478411 0.825590
O O2 0.302462 0.377525 0.753149
O O3 0.472307 0.378474 0.815625
O O4 0.325869 0.382120 0.921954
O O5 0.101999 0.650607 0.571232
O O6 0.054824 0.726011 0.429428
O O7 0.963151 0.723953 0.582419
O O8 0.750764 0.917126 0.592348
O O9 0.829603 0.009929 0.504808
O O10 0.672783 0.033077 0.563283
O O11 0.576823 0.070655 0.916458
O O12 0.413910 0.053434 0.863278
#
# Coordination Sequence:
#
# PCOD8187538 Si02
#       6
#    16  16  16  16  16  16
#     4  11  22  41  68  98 132 167 230 286 339 399
#     4  11  24  40  67  95 136 175 220 277 342 416
#     4  11  24  41  68  99 128 177 227 280 339 408
#     4  10  24  41  71  97 133 172 231 286 342 402
#     4  12  22  44  64 100 134 179 223 284 342 409
#     4  11  23  45  67  98 134 179 223 284 344 414
#
# _framework density 20.802665999999999
#
# number of rings (size 3 to 8) (size 9 to 14) (size 15 to 20)
#    0.000    1.000    5.000    0.500    9.333    1.333 
#    0.000    0.833    0.000    0.000    0.000    0.000 
#    0.000    0.000    0.000    0.000    0.000    0.000 
#
# Total GULP energy -297418.226639 kJ/mol
# GULP energy per Si atom -12392.426110 kJ/mol
# Density = 2.075532 g / cm^3
# Si number density = 20.802666 Si / 1000 Ang^3
#
#
#
# Elastic Constant Matrix: (Units=GPa)
#
#
# Indices 1 2 3 4 5 6 
#
# 1 96.1984 68.5920 40.4500 0.0000 0.0000 0.0000
# 2 68.5920 175.9279 34.7900 0.0000 0.0000 0.0000
# 3 40.4500 34.7900 66.9726 0.0000 0.0000 0.0000
# 4 0.0000 0.0000 0.0000 32.7437 0.0000 0.0000
# 5 0.0000 0.0000 0.0000 0.0000 30.0578 0.0000
# 6 0.0000 0.0000 0.0000 0.0000 0.0000 42.8985
#
#
#
# Elastic Compliance Matrix: (Units=1/GPa)
#
#
# Indices 1 2 3 4 5 6 
#
# 1 0.017414 -0.005249 -0.007791 0.000000 0.000000 0.000000
# 2 -0.005249 0.007917 -0.000942 0.000000 0.000000 0.000000
# 3 -0.007791 -0.000942 0.020127 0.000000 0.000000 0.000000
# 4 0.000000 0.000000 0.000000 0.030540 0.000000 0.000000
# 5 0.000000 0.000000 0.000000 0.000000 0.033269 0.000000
# 6 0.000000 0.000000 0.000000 0.000000 0.000000 0.023311
#
#
# Mechanical properties :
#
#
# Convention : Reuss Voigt Hill
#
# Bulk Modulus (GPa) = 57.16585 69.64032 63.40309
# Shear Modulus (GPa) = 30.05302 34.15778 32.10540
#
# Velocity S-wave (km/s) = 3.80501 4.05654 3.93279
# Velocity P-wave (km/s) = 6.84425 7.44916 7.15311
#
# Compressibility (1/GPa) = 0.01749296
#
# Stress axis : x y z
#
# Youngs Moduli (GPa) = 57.42637 126.31179 49.68548
#
# Poissons Ratio (x) = 0.66297 0.38710
# Poissons Ratio (y) = 0.30141 0.04683
# Poissons Ratio (z) = 0.44740 0.11905
#
# Static dielectric constant tensor:
#      x y z
#    x 3.600290 0.000000 0.000000 
#    y 0.000000 4.442870 0.000000 
#    z 0.000000 0.000000 3.704390 
# 
# 
# High freq. dielectric constant tensor:
#      x y z
#    x 1.794140 0.000000 0.000000 
#    y 0.000000 1.842180 0.000000 
#    z 0.000000 0.000000 1.804860 
# 
# From -- ./inp_files/10075.got.cif
#   From: 2010.06.25/outbox.cif.g09.slc.cpg/sg43_6_cif.got.tgz:10075.got - 2010.06.26 16:48:59.
