data_PCOD8187447
_publ_section_title
;
Structure prediction by ZEFSAII (Michael W. Deem and Ramdas Pophale) SiO2 
 PCOD8187447
Probable space group: F D D 2
;
_chemical_formula_sum "Si O2"
_cell_formula_units_Z 88
_cell_length_a 20.381539
_cell_length_b 17.636429
_cell_length_c 10.101292
_cell_angle_alpha 90.000000
_cell_angle_beta 90.000000
_cell_angle_gamma 90.000000
_cell_volume 3630.985831
_symmetry_space_group_name_H-M "F D D 2"
_symmetry_group_IT_number 43
_symmetry_cell_setting 'orthorhombic'
loop_
_space_group_symop_operation_xyz
x,y,z
-x,-y,z
1/4-x,1/4+y,1/4+z
1/4+x,1/4-y,1/4+z
x,1/2+y,1/2+z
-x,1/2-y,1/2+z
1/4-x,3/4+y,3/4+z
1/4+x,3/4-y,3/4+z
1/2+x,y,1/2+z
1/2-x,-y,1/2+z
3/4-x,1/4+y,3/4+z
3/4+x,1/4-y,3/4+z
1/2+x,1/2+y,z
1/2-x,1/2-y,z
3/4-x,3/4+y,1/4+z
3/4+x,3/4-y,1/4+z
loop_
_atom_site_type_symbol
_atom_site_label
_atom_site_fract_x
_atom_site_fract_y
_atom_site_fract_z
Si Si1 0.127010 0.357904 0.011130
Si Si2 0.750000 0.250000 0.843489
Si Si3 0.597611 0.272471 0.244996
Si Si4 0.997907 0.138326 0.910545
Si Si5 0.545175 0.235999 0.643757
Si Si6 0.862988 0.161880 0.970921
O O1 0.204670 0.353725 0.048112
O O2 0.085654 0.313840 0.123348
O O3 0.112761 0.326284 0.866989
O O4 0.107888 0.447054 0.009331
O O5 0.773358 0.320559 0.757776
O O6 0.810516 0.225241 0.934375
O O7 0.520570 0.245905 0.230387
O O8 0.613105 0.321892 0.118110
O O9 0.925306 0.168510 0.867216
O O10 0.034238 0.204114 0.994380
O O11 0.584765 0.172827 0.723602
#
# Coordination Sequence:
#
# PCOD8187447 Si02
#       6
#    16   8  16  16  16  16
#     4  12  25  52  72 116 155 204 259 332 401 454
#     4  10  22  44  74 104 144 206 266 306 384 480
#     4  11  28  48  77 113 155 201 264 331 387 474
#     4  10  22  44  73 106 148 201 257 317 384 473
#     4  10  24  50  72 105 158 201 255 320 398 467
#     4  10  24  46  76 111 148 209 263 315 389 474
#
# _framework density 24.235842999999999
#
# number of rings (size 3 to 8) (size 9 to 14) (size 15 to 20)
#    0.000    1.455    1.818    1.091    7.636    5.818 
#    6.545    0.000    0.000    0.000    0.000    0.000 
#    0.000    0.000    0.000    0.000    0.000    0.000 
#
# Total GULP energy -272758.965804 kJ/mol
# GULP energy per Si atom -12398.134809 kJ/mol
# Density = 2.418068 g / cm^3
# Si number density = 24.235843 Si / 1000 Ang^3
#
#
#
# Elastic Constant Matrix: (Units=GPa)
#
#
# Indices 1 2 3 4 5 6 
#
# 1 176.4223 46.6526 62.1611 0.0000 0.0000 0.0000
# 2 46.6526 114.9751 19.0356 0.0000 0.0000 0.0000
# 3 62.1611 19.0356 94.4862 0.0000 0.0000 0.0000
# 4 0.0000 0.0000 0.0000 13.3942 0.0000 0.0000
# 5 0.0000 0.0000 0.0000 0.0000 29.9066 0.0000
# 6 0.0000 0.0000 0.0000 0.0000 0.0000 47.4887
#
#
#
# Elastic Compliance Matrix: (Units=1/GPa)
#
#
# Indices 1 2 3 4 5 6 
#
# 1 0.007997 -0.002456 -0.004766 0.000000 0.000000 0.000000
# 2 -0.002456 0.009752 -0.000349 0.000000 0.000000 0.000000
# 3 -0.004766 -0.000349 0.013790 0.000000 0.000000 0.000000
# 4 0.000000 0.000000 0.000000 0.074659 0.000000 0.000000
# 5 0.000000 0.000000 0.000000 0.000000 0.033437 0.000000
# 6 0.000000 0.000000 0.000000 0.000000 0.000000 0.021058
#
#
# Mechanical properties :
#
#
# Convention : Reuss Voigt Hill
#
# Bulk Modulus (GPa) = 60.99023 71.28693 66.13858
# Shear Modulus (GPa) = 27.57856 35.36017 31.46937
#
# Velocity S-wave (km/s) = 3.37697 3.82383 3.60733
# Velocity P-wave (km/s) = 6.35808 6.99809 6.68575
#
# Compressibility (1/GPa) = 0.01639607
#
# Stress axis : x y z
#
# Youngs Moduli (GPa) = 125.04683 102.54545 72.51846
#
# Poissons Ratio (x) = 0.25183 0.34565
# Poissons Ratio (y) = 0.30708 0.02531
# Poissons Ratio (z) = 0.59602 0.03579
#
# Static dielectric constant tensor:
#      x y z
#    x 4.596670 0.000000 0.000000 
#    y 0.000000 4.651220 0.000000 
#    z 0.000000 0.000000 4.217940 
# 
# 
# High freq. dielectric constant tensor:
#      x y z
#    x 1.965740 0.000000 0.000000 
#    y 0.000000 1.983250 0.000000 
#    z 0.000000 0.000000 1.967860 
# 
# From -- ./inp_files/7055.got.cif
#   From: 2010.06.25/outbox.cif.g09.slc.cpg/sg43_4_cif.got.tgz:7055.got - 2010.06.26 16:48:59.
