data_PCOD8187827
_publ_section_title
;
Structure prediction by ZEFSAII (Michael W. Deem and Ramdas Pophale) SiO2 
 PCOD8187827
Probable space group: F D D 2
;
_chemical_formula_sum "Si O2"
_cell_formula_units_Z 88
_cell_length_a 26.663875
_cell_length_b 16.988634
_cell_length_c 8.720756
_cell_angle_alpha 90.000000
_cell_angle_beta 90.000000
_cell_angle_gamma 90.000000
_cell_volume 3950.352588
_symmetry_space_group_name_H-M "F D D 2"
_symmetry_group_IT_number 43
_symmetry_cell_setting 'orthorhombic'
loop_
_space_group_symop_operation_xyz
x,y,z
-x,-y,z
1/4-x,1/4+y,1/4+z
1/4+x,1/4-y,1/4+z
x,1/2+y,1/2+z
-x,1/2-y,1/2+z
1/4-x,3/4+y,3/4+z
1/4+x,3/4-y,3/4+z
1/2+x,y,1/2+z
1/2-x,-y,1/2+z
3/4-x,1/4+y,3/4+z
3/4+x,1/4-y,3/4+z
1/2+x,1/2+y,z
1/2-x,1/2-y,z
3/4-x,3/4+y,1/4+z
3/4+x,3/4-y,1/4+z
loop_
_atom_site_type_symbol
_atom_site_label
_atom_site_fract_x
_atom_site_fract_y
_atom_site_fract_z
Si Si1 0.849104 0.950424 0.058290
Si Si2 0.842496 0.329458 0.972654
Si Si3 0.500000 0.000000 0.239499
Si Si4 0.090964 0.701892 0.522401
Si Si5 0.517316 0.366150 0.982946
Si Si6 0.405436 0.481081 0.523115
O O1 0.868382 0.861429 0.078160
O O2 0.799631 0.956680 0.164665
O O3 0.891025 0.009176 0.114514
O O4 0.837273 0.972445 0.883046
O O5 0.830911 0.292861 0.139186
O O6 0.886690 0.395291 0.967067
O O7 0.790538 0.358699 0.897067
O O8 0.481558 0.069097 0.349289
O O9 0.546615 0.027758 0.134139
O O10 0.106723 0.733959 0.357516
O O11 0.038349 0.659544 0.515085
#
# Coordination Sequence:
#
# PCOD8187827 Si02
#       6
#    16  16   8  16  16  16
#     4  12  24  49  70 104 143 196 239 300 365 444
#     4  12  25  46  72 108 148 184 246 307 365 434
#     4  12  26  48  74 106 148 200 244 298 382 442
#     4  12  26  47  75 101 148 192 248 301 371 438
#     4  12  26  45  77 108 147 199 247 298 379 439
#     4  12  26  46  73 109 146 189 245 310 367 438
#
# _framework density 22.276492999999999
#
# number of rings (size 3 to 8) (size 9 to 14) (size 15 to 20)
#    0.000    0.000    5.455    4.364    2.545    5.091 
#    0.000    0.000    0.000    0.000    0.000    0.000 
#    0.000    0.000    0.000    0.000    0.000    0.000 
#
# Total GULP energy -272829.441123 kJ/mol
# GULP energy per Si atom -12401.338233 kJ/mol
# Density = 2.222579 g / cm^3
# Si number density = 22.276493 Si / 1000 Ang^3
#
#
#
# Elastic Constant Matrix: (Units=GPa)
#
#
# Indices 1 2 3 4 5 6 
#
# 1 104.6910 16.3235 41.8517 0.0000 0.0000 0.0000
# 2 16.3235 72.0765 30.1923 0.0000 0.0000 0.0000
# 3 41.8517 30.1923 142.1069 0.0000 0.0000 0.0000
# 4 0.0000 0.0000 0.0000 37.3546 0.0000 0.0000
# 5 0.0000 0.0000 0.0000 0.0000 37.4105 0.0000
# 6 0.0000 0.0000 0.0000 0.0000 0.0000 30.6239
#
#
#
# Elastic Compliance Matrix: (Units=1/GPa)
#
#
# Indices 1 2 3 4 5 6 
#
# 1 0.010926 -0.001237 -0.002955 0.000000 0.000000 0.000000
# 2 -0.001237 0.015370 -0.002901 0.000000 0.000000 0.000000
# 3 -0.002955 -0.002901 0.008524 0.000000 0.000000 0.000000
# 4 0.000000 0.000000 0.000000 0.026770 0.000000 0.000000
# 5 0.000000 0.000000 0.000000 0.000000 0.026730 0.000000
# 6 0.000000 0.000000 0.000000 0.000000 0.000000 0.032654
#
#
# Mechanical properties :
#
#
# Convention : Reuss Voigt Hill
#
# Bulk Modulus (GPa) = 48.46521 55.06771 51.76646
# Shear Modulus (GPa) = 35.20183 36.44493 35.82338
#
# Velocity S-wave (km/s) = 3.97951 4.04917 4.01449
# Velocity P-wave (km/s) = 6.55125 6.82897 6.69155
#
# Compressibility (1/GPa) = 0.02063336
#
# Stress axis : x y z
#
# Youngs Moduli (GPa) = 91.52423 65.06380 117.32052
#
# Poissons Ratio (x) = 0.08046 0.34669
# Poissons Ratio (y) = 0.11318 0.34038
# Poissons Ratio (z) = 0.27046 0.18877
#
# Static dielectric constant tensor:
#      x y z
#    x 4.056300 0.000000 0.000000 
#    y 0.000000 4.252670 0.000000 
#    z 0.000000 0.000000 4.317690 
# 
# 
# High freq. dielectric constant tensor:
#      x y z
#    x 1.883400 0.000000 0.000000 
#    y 0.000000 1.880220 0.000000 
#    z 0.000000 0.000000 1.892370 
# 
# From -- ./inp_files/4700.got.cif
#   From: 2010.06.25/outbox.cif.g09.slc.cpg/sg43_3_cif.got.tgz:4700.got - 2010.06.26 16:48:59.
