data_PCOD8187617
_publ_section_title
;
Structure prediction by ZEFSAII (Michael W. Deem and Ramdas Pophale) SiO2 
 PCOD8187617
Probable space group: F D D 2
;
_chemical_formula_sum "Si O2"
_cell_formula_units_Z 104
_cell_length_a 14.868903
_cell_length_b 23.670291
_cell_length_c 14.882372
_cell_angle_alpha 90.000000
_cell_angle_beta 90.000000
_cell_angle_gamma 90.000000
_cell_volume 5237.869590
_symmetry_space_group_name_H-M "F D D 2"
_symmetry_group_IT_number 43
_symmetry_cell_setting 'orthorhombic'
loop_
_space_group_symop_operation_xyz
x,y,z
-x,-y,z
1/4-x,1/4+y,1/4+z
1/4+x,1/4-y,1/4+z
x,1/2+y,1/2+z
-x,1/2-y,1/2+z
1/4-x,3/4+y,3/4+z
1/4+x,3/4-y,3/4+z
1/2+x,y,1/2+z
1/2-x,-y,1/2+z
3/4-x,1/4+y,3/4+z
3/4+x,1/4-y,3/4+z
1/2+x,1/2+y,z
1/2-x,1/2-y,z
3/4-x,3/4+y,1/4+z
3/4+x,3/4-y,1/4+z
loop_
_atom_site_type_symbol
_atom_site_label
_atom_site_fract_x
_atom_site_fract_y
_atom_site_fract_z
Si Si1 0.500000 0.000000 0.058270
Si Si2 0.479008 0.624997 0.329415
Si Si3 0.321012 0.450501 0.737345
Si Si4 0.321017 0.049499 0.879195
Si Si5 0.380943 0.818393 0.439001
Si Si6 0.020992 0.124995 0.787123
Si Si7 0.130934 0.568395 0.927540
O O1 0.439899 0.041944 0.118324
O O2 0.560080 0.041956 0.998216
O O3 0.453955 0.679312 0.388708
O O4 0.419759 0.570544 0.353957
O O5 0.457304 0.643430 0.227056
O O6 0.581469 0.606704 0.351341
O O7 0.249995 0.425407 0.808267
O O8 0.318179 0.518135 0.739953
O O9 0.419754 0.429457 0.762588
O O10 0.318190 0.981866 0.876595
O O11 0.296041 0.070691 0.977829
O O12 0.331469 0.856701 0.515195
O O13 0.457309 0.856569 0.389483
#
# Coordination Sequence:
#
# PCOD8187617 Si02
#       7
#     8  16  16  16  16  16  16
#     4  12  16  28  52  80 104 136 168 236 292 332
#     4  11  20  34  55  84 118 151 196 245 302 347
#     4  11  20  33  54  85 117 151 193 247 299 347
#     4  11  20  33  54  85 117 151 193 247 299 347
#     4  12  21  34  56  85 118 147 194 245 301 354
#     4  11  20  34  55  84 118 151 196 245 302 347
#     4  12  21  34  56  85 118 147 194 245 301 354
#
# _framework density 19.855399999999999
#
# number of rings (size 3 to 8) (size 9 to 14) (size 15 to 20)
#    0.000    0.615    9.231    1.846    0.000    0.000 
#    0.000    1.538    0.000    0.000    0.000    0.000 
#    0.000    0.000    0.000    0.000    0.000    0.000 
#
# Total GULP energy -322350.848633 kJ/mol
# GULP energy per Si atom -12398.109563 kJ/mol
# Density = 1.981021 g / cm^3
# Si number density = 19.855400 Si / 1000 Ang^3
#
#
#
# Elastic Constant Matrix: (Units=GPa)
#
#
# Indices 1 2 3 4 5 6 
#
# 1 51.9591 28.2693 49.0434 0.0000 0.0000 0.0000
# 2 28.2693 106.1733 28.7919 0.0000 0.0000 0.0000
# 3 49.0434 28.7919 52.7075 0.0000 0.0000 0.0000
# 4 0.0000 0.0000 0.0000 -80.6774 0.0000 0.0000
# 5 0.0000 0.0000 0.0000 0.0000 45.5670 0.0000
# 6 0.0000 0.0000 0.0000 0.0000 0.0000 -79.8743
#
#
#
# Elastic Compliance Matrix: (Units=1/GPa)
#
#
# Indices 1 2 3 4 5 6 
#
# 1 0.158707 -0.002595 -0.146257 0.000000 0.000000 0.000000
# 2 -0.002595 0.011099 -0.003648 0.000000 0.000000 0.000000
# 3 -0.146257 -0.003648 0.157055 0.000000 0.000000 0.000000
# 4 0.000000 0.000000 0.000000 -0.012395 0.000000 0.000000
# 5 0.000000 0.000000 0.000000 0.000000 0.021946 0.000000
# 6 0.000000 0.000000 0.000000 0.000000 0.000000 -0.012520
#
#
# Mechanical properties :
#
#
# Convention : Reuss Voigt Hill
#
# Bulk Modulus (GPa) = 45.74365 47.00543 46.37454
# Shear Modulus (GPa) = 7.85943 -16.01458 -4.07757
#
# Velocity S-wave (km/s) = 1.99171 -2.84308 -1.43461
# Velocity P-wave (km/s) = 5.32707 3.59830 4.54563
#
# Compressibility (1/GPa) = 0.02186096
#
# Stress axis : x y z
#
# Youngs Moduli (GPa) = 6.30091 90.09976 6.36721
#
# Poissons Ratio (x) = 0.23382 0.93125
# Poissons Ratio (y) = 0.01635 0.02323
# Poissons Ratio (z) = 0.92155 0.32869
#
# Static dielectric constant tensor:
#      x y z
#    x 3.420870 0.000000 0.000000 
#    y 0.000000 3.570750 0.000000 
#    z 0.000000 0.000000 3.423850 
# 
# 
# High freq. dielectric constant tensor:
#      x y z
#    x 1.746300 0.000000 0.000000 
#    y 0.000000 1.777550 0.000000 
#    z 0.000000 0.000000 1.746590 
# 
# From -- ./inp_files/10682.got.cif
#   From: 2010.06.25/outbox.cif.g09.slc.cpg/sg43_6_cif.got.tgz:10682.got - 2010.06.26 16:48:59.
