data_PCOD8187626
_publ_section_title
;
Structure prediction by ZEFSAII (Michael W. Deem and Ramdas Pophale) SiO2 
 PCOD8187626
Probable space group: F D D 2
;
_chemical_formula_sum "Si O2"
_cell_formula_units_Z 64
_cell_length_a 11.374421
_cell_length_b 11.600691
_cell_length_c 17.110701
_cell_angle_alpha 90.000000
_cell_angle_beta 90.000000
_cell_angle_gamma 90.000000
_cell_volume 2257.776560
_symmetry_space_group_name_H-M "F D D 2"
_symmetry_group_IT_number 43
_symmetry_cell_setting 'orthorhombic'
loop_
_space_group_symop_operation_xyz
x,y,z
-x,-y,z
1/4-x,1/4+y,1/4+z
1/4+x,1/4-y,1/4+z
x,1/2+y,1/2+z
-x,1/2-y,1/2+z
1/4-x,3/4+y,3/4+z
1/4+x,3/4-y,3/4+z
1/2+x,y,1/2+z
1/2-x,-y,1/2+z
3/4-x,1/4+y,3/4+z
3/4+x,1/4-y,3/4+z
1/2+x,1/2+y,z
1/2-x,1/2-y,z
3/4-x,3/4+y,1/4+z
3/4+x,3/4-y,1/4+z
loop_
_atom_site_type_symbol
_atom_site_label
_atom_site_fract_x
_atom_site_fract_y
_atom_site_fract_z
Si Si1 0.111886 0.365264 0.772110
Si Si2 0.424267 0.863987 0.196131
Si Si3 0.901556 0.818384 0.174488
Si Si4 0.044545 0.191682 0.998902
O O1 0.139163 0.228924 0.753891
O O2 0.108173 0.391087 0.863595
O O3 0.208945 0.448165 0.734929
O O4 0.982797 0.392318 0.734436
O O5 0.563160 0.818969 0.188456
O O6 0.582090 0.002659 0.224946
O O7 0.764402 0.842642 0.193984
O O8 0.938151 0.855077 0.086850
#
# Coordination Sequence:
#
# PCOD8187626 Si02
#       4
#    16  16  16  16
#     4   9  20  38  64 102 136 194 248 307 386 468
#     4   9  21  38  70 101 143 195 252 311 396 469
#     4   9  23  37  68 107 135 199 258 309 392 476
#     4  11  20  41  69 102 149 194 253 321 388 472
#
# _framework density 28.346471999999999
#
# number of rings (size 3 to 8) (size 9 to 14) (size 15 to 20)
#    1.500    1.000    0.000    1.500    3.500    2.000 
#    0.000    2.500    5.500    6.000    0.000    0.000 
#    0.000    0.000    0.000    0.000    0.000    0.000 
#
# Total GULP energy -198214.992420 kJ/mol
# GULP energy per Si atom -12388.437026 kJ/mol
# Density = 2.828195 g / cm^3
# Si number density = 28.346472 Si / 1000 Ang^3
#
#
#
# Elastic Constant Matrix: (Units=GPa)
#
#
# Indices 1 2 3 4 5 6 
#
# 1 189.0069 60.0093 67.2915 0.0000 0.0000 0.0000
# 2 60.0093 151.9483 36.2625 0.0000 0.0000 0.0000
# 3 67.2915 36.2625 158.6526 0.0000 0.0000 0.0000
# 4 0.0000 0.0000 0.0000 17.2535 0.0000 0.0000
# 5 0.0000 0.0000 0.0000 0.0000 -7.1746 0.0000
# 6 0.0000 0.0000 0.0000 0.0000 0.0000 31.0876
#
#
#
# Elastic Compliance Matrix: (Units=1/GPa)
#
#
# Indices 1 2 3 4 5 6 
#
# 1 0.006821 -0.002119 -0.002409 0.000000 0.000000 0.000000
# 2 -0.002119 0.007619 -0.000843 0.000000 0.000000 0.000000
# 3 -0.002409 -0.000843 0.007517 0.000000 0.000000 0.000000
# 4 0.000000 0.000000 0.000000 0.057959 0.000000 0.000000
# 5 0.000000 0.000000 0.000000 0.000000 -0.139381 0.000000
# 6 0.000000 0.000000 0.000000 0.000000 0.000000 0.032167
#
#
# Mechanical properties :
#
#
# Convention : Reuss Voigt Hill
#
# Bulk Modulus (GPa) = 89.15348 91.85938 90.50643
# Shear Modulus (GPa) = -390.11565 30.63627 -179.73969
#
# Velocity S-wave (km/s) = -11.74405 3.29109 -7.97156
# Velocity P-wave (km/s) = 12.34413 6.84967 7.26153
#
# Compressibility (1/GPa) = 0.01121661
#
# Stress axis : x y z
#
# Youngs Moduli (GPa) = 146.60144 131.24776 133.02496
#
# Poissons Ratio (x) = 0.27812 0.32044
# Poissons Ratio (y) = 0.31066 0.11210
# Poissons Ratio (z) = 0.35314 0.11060
#
# Static dielectric constant tensor:
#      x y z
#    x 5.727130 0.000000 0.000000 
#    y 0.000000 5.540200 0.000000 
#    z 0.000000 0.000000 4.559460 
# 
# 
# High freq. dielectric constant tensor:
#      x y z
#    x 2.196810 0.000000 0.000000 
#    y 0.000000 2.186480 0.000000 
#    z 0.000000 0.000000 2.109600 
# 
# From -- ./inp_files/13121.got.cif
#   From: 2010.06.25/outbox.cif.g09.slc.cpg/sg43_7_cif.got.tgz:13121.got - 2010.06.26 16:48:59.
