data_PCOD8187540
_publ_section_title
;
Structure prediction by ZEFSAII (Michael W. Deem and Ramdas Pophale) SiO2 
 PCOD8187540
Probable space group: F D D 2
;
_chemical_formula_sum "Si O2"
_cell_formula_units_Z 112
_cell_length_a 15.583491
_cell_length_b 11.341614
_cell_length_c 30.470650
_cell_angle_alpha 90.000000
_cell_angle_beta 90.000000
_cell_angle_gamma 90.000000
_cell_volume 5385.441785
_symmetry_space_group_name_H-M "F D D 2"
_symmetry_group_IT_number 43
_symmetry_cell_setting 'orthorhombic'
loop_
_space_group_symop_operation_xyz
x,y,z
-x,-y,z
1/4-x,1/4+y,1/4+z
1/4+x,1/4-y,1/4+z
x,1/2+y,1/2+z
-x,1/2-y,1/2+z
1/4-x,3/4+y,3/4+z
1/4+x,3/4-y,3/4+z
1/2+x,y,1/2+z
1/2-x,-y,1/2+z
3/4-x,1/4+y,3/4+z
3/4+x,1/4-y,3/4+z
1/2+x,1/2+y,z
1/2-x,1/2-y,z
3/4-x,3/4+y,1/4+z
3/4+x,3/4-y,1/4+z
loop_
_atom_site_type_symbol
_atom_site_label
_atom_site_fract_x
_atom_site_fract_y
_atom_site_fract_z
Si Si1 0.250000 0.750000 0.574860
Si Si2 0.156543 0.803070 0.203867
Si Si3 0.647588 0.364501 0.864665
Si Si4 0.815337 0.501325 0.864997
Si Si5 0.750000 0.750000 0.843119
Si Si6 0.335470 0.101407 0.555958
Si Si7 0.670161 0.473487 0.539440
Si Si8 0.154785 0.297229 0.465417
O O1 0.174465 0.711512 0.606887
O O2 0.277796 0.646535 0.542809
O O3 0.250000 0.750000 0.197204
O O4 0.102433 0.795381 0.160044
O O5 0.100327 0.732745 0.238579
O O6 0.163365 0.939450 0.218973
O O7 0.737653 0.418138 0.850078
O O8 0.633122 0.248509 0.835033
O O9 0.646739 0.348595 0.916951
O O10 0.783546 0.636902 0.870601
O O11 0.889090 0.478075 0.827907
O O12 0.669751 0.712809 0.814043
O O13 0.364910 0.107627 0.504368
O O14 0.232456 0.077787 0.557653
O O15 0.250000 0.250000 0.474278
#
# Coordination Sequence:
#
# PCOD8187540 Si02
#       8
#     8  16  16  16   8  16  16  16
#     4  10  24  41  74  98 142 188 224 287 360 436
#     4  12  26  42  69 105 142 182 234 300 350 418
#     4  11  22  48  70 104 138 186 232 301 353 420
#     4  12  25  44  69 101 140 183 240 288 356 420
#     4  12  26  39  68  96 146 184 220 293 356 418
#     4  11  24  40  77  99 132 185 242 284 355 424
#     4  11  23  45  66 101 137 183 229 285 355 416
#     4  12  22  43  69 101 137 181 235 300 346 414
#
# _framework density 20.796809
#
# number of rings (size 3 to 8) (size 9 to 14) (size 15 to 20)
#    0.000    0.571    6.429    1.286    2.000    0.571 
#    2.571    0.000    0.000    0.000    0.000    0.000 
#    0.000    0.000    0.000    0.000    0.000    0.000 
#
# Total GULP energy -347017.198359 kJ/mol
# GULP energy per Si atom -12393.471370 kJ/mol
# Density = 2.074947 g / cm^3
# Si number density = 20.796809 Si / 1000 Ang^3
#
#
#
# Elastic Constant Matrix: (Units=GPa)
#
#
# Indices 1 2 3 4 5 6 
#
# 1 119.9458 43.1490 23.1464 0.0000 0.0000 0.0000
# 2 43.1490 81.1594 42.3209 0.0000 0.0000 0.0000
# 3 23.1464 42.3209 126.2324 0.0000 0.0000 0.0000
# 4 0.0000 0.0000 0.0000 -8.2555 0.0000 0.0000
# 5 0.0000 0.0000 0.0000 0.0000 24.0156 0.0000
# 6 0.0000 0.0000 0.0000 0.0000 0.0000 37.8899
#
#
#
# Elastic Compliance Matrix: (Units=1/GPa)
#
#
# Indices 1 2 3 4 5 6 
#
# 1 0.010309 -0.005448 -0.000064 0.000000 0.000000 0.000000
# 2 -0.005448 0.017810 -0.004972 0.000000 0.000000 0.000000
# 3 -0.000064 -0.004972 0.009601 0.000000 0.000000 0.000000
# 4 0.000000 0.000000 0.000000 -0.121131 0.000000 0.000000
# 5 0.000000 0.000000 0.000000 0.000000 0.041640 0.000000
# 6 0.000000 0.000000 0.000000 0.000000 0.000000 0.026392
#
#
# Mechanical properties :
#
#
# Convention : Reuss Voigt Hill
#
# Bulk Modulus (GPa) = 59.69213 60.50781 60.09997
# Shear Modulus (GPa) = 447.51001 25.31140 236.41071
#
# Velocity S-wave (km/s) = 14.68500 3.49245 10.67348
# Velocity P-wave (km/s) = 17.78474 6.73950 13.44838
#
# Compressibility (1/GPa) = 0.01675263
#
# Stress axis : x y z
#
# Youngs Moduli (GPa) = 97.00124 56.14666 104.15970
#
# Poissons Ratio (x) = 0.30586 0.00666
# Poissons Ratio (y) = 0.52842 0.51791
# Poissons Ratio (z) = 0.00620 0.27918
#
# Static dielectric constant tensor:
#      x y z
#    x 4.072080 0.000000 0.000000 
#    y 0.000000 4.128230 0.000000 
#    z 0.000000 0.000000 3.781790 
# 
# 
# High freq. dielectric constant tensor:
#      x y z
#    x 1.825010 0.000000 0.000000 
#    y 0.000000 1.817360 0.000000 
#    z 0.000000 0.000000 1.813300 
# 
# From -- ./inp_files/28660.got.cif
#   From: 2010.06.25/outbox.cif.g09.slc.cpg/sg43_15_cif.got.tgz:28660.got - 2010.06.26 16:48:59.
