data_PCOD8187301
_publ_section_title
;
Structure prediction by ZEFSAII (Michael W. Deem and Ramdas Pophale) SiO2 
 PCOD8187301
Probable space group: F D D 2
;
_chemical_formula_sum "Si O2"
_cell_formula_units_Z 88
_cell_length_a 10.256684
_cell_length_b 20.652480
_cell_length_c 17.748257
_cell_angle_alpha 90.000000
_cell_angle_beta 90.000000
_cell_angle_gamma 90.000000
_cell_volume 3759.541598
_symmetry_space_group_name_H-M "F D D 2"
_symmetry_group_IT_number 43
_symmetry_cell_setting 'orthorhombic'
loop_
_space_group_symop_operation_xyz
x,y,z
-x,-y,z
1/4-x,1/4+y,1/4+z
1/4+x,1/4-y,1/4+z
x,1/2+y,1/2+z
-x,1/2-y,1/2+z
1/4-x,3/4+y,3/4+z
1/4+x,3/4-y,3/4+z
1/2+x,y,1/2+z
1/2-x,-y,1/2+z
3/4-x,1/4+y,3/4+z
3/4+x,1/4-y,3/4+z
1/2+x,1/2+y,z
1/2-x,1/2-y,z
3/4-x,3/4+y,1/4+z
3/4+x,3/4-y,1/4+z
loop_
_atom_site_type_symbol
_atom_site_label
_atom_site_fract_x
_atom_site_fract_y
_atom_site_fract_z
Si Si1 0.500000 0.000000 0.648650
Si Si2 0.015145 0.822672 0.833058
Si Si3 0.563224 0.791865 0.587332
Si Si4 0.870020 0.963661 0.497128
Si Si5 0.173041 0.171173 0.531496
Si Si6 0.087027 0.936579 0.727014
O O1 0.584310 0.054204 0.603295
O O2 0.401357 0.041831 0.701346
O O3 0.006455 0.877790 0.767474
O O4 0.968098 0.755219 0.800565
O O5 0.921415 0.838866 0.905045
O O6 0.539940 0.811465 0.674013
O O7 0.671481 0.837376 0.546996
O O8 0.612239 0.717507 0.594521
O O9 0.428970 0.791539 0.544320
O O10 0.902502 0.896551 0.539966
O O11 0.000000 0.000000 0.473377
O O12 0.000000 0.000000 0.704494
#
# Coordination Sequence:
#
# PCOD8187301 Si02
#       6
#     8  16  16  16  16  16
#     4  10  22  46  76 108 144 192 252 308 374 470
#     4  12  29  47  75 113 151 207 256 318 401 466
#     4  10  23  46  71 103 134 194 242 306 371 448
#     4  12  27  41  73 108 142 191 248 306 377 457
#     4  10  21  44  75  96 142 178 243 301 361 441
#     4  12  29  51  75 108 160 200 261 328 403 470
#
# _framework density 23.407108999999998
#
# number of rings (size 3 to 8) (size 9 to 14) (size 15 to 20)
#    0.000    1.091    5.455    1.636   10.182    1.455 
#    0.000    0.000    0.000    0.000    0.000    0.000 
#    0.000    0.000    0.000    0.000    0.000    0.000 
#
# Total GULP energy -272601.112918 kJ/mol
# GULP energy per Si atom -12390.959678 kJ/mol
# Density = 2.335383 g / cm^3
# Si number density = 23.407109 Si / 1000 Ang^3
#
#
#
# Elastic Constant Matrix: (Units=GPa)
#
#
# Indices 1 2 3 4 5 6 
#
# 1 53.6050 11.9709 13.2922 0.0000 0.0000 0.0000
# 2 11.9709 142.8280 22.8268 0.0000 0.0000 0.0000
# 3 13.2922 22.8268 91.1194 0.0000 0.0000 0.0000
# 4 0.0000 0.0000 0.0000 -1.1039 0.0000 0.0000
# 5 0.0000 0.0000 0.0000 0.0000 25.6627 0.0000
# 6 0.0000 0.0000 0.0000 0.0000 0.0000 27.3789
#
#
#
# Elastic Compliance Matrix: (Units=1/GPa)
#
#
# Indices 1 2 3 4 5 6 
#
# 1 0.019561 -0.001233 -0.002545 0.000000 0.000000 0.000000
# 2 -0.001233 0.007371 -0.001667 0.000000 0.000000 0.000000
# 3 -0.002545 -0.001667 0.011763 0.000000 0.000000 0.000000
# 4 0.000000 0.000000 0.000000 -0.905866 0.000000 0.000000
# 5 0.000000 0.000000 0.000000 0.000000 0.038967 0.000000
# 6 0.000000 0.000000 0.000000 0.000000 0.000000 0.036524
#
#
# Mechanical properties :
#
#
# Convention : Reuss Voigt Hill
#
# Bulk Modulus (GPa) = 35.96179 42.63690 39.29935
# Shear Modulus (GPa) = -6.48071 26.35172 9.93551
#
# Velocity S-wave (km/s) = -1.66574 3.35893 2.06249
# Velocity P-wave (km/s) = 3.42014 5.77046 4.74318
#
# Compressibility (1/GPa) = 0.02780729
#
# Stress axis : x y z
#
# Youngs Moduli (GPa) = 51.12142 135.66439 85.00971
#
# Poissons Ratio (x) = 0.16725 0.21632
# Poissons Ratio (y) = 0.06302 0.14169
# Poissons Ratio (z) = 0.13009 0.22612
#
# Static dielectric constant tensor:
#      x y z
#    x 4.297830 0.000000 0.000000 
#    y 0.000000 4.278580 0.000000 
#    z 0.000000 0.000000 4.219890 
# 
# 
# High freq. dielectric constant tensor:
#      x y z
#    x 1.907570 0.000000 0.000000 
#    y 0.000000 1.929370 0.000000 
#    z 0.000000 0.000000 1.931850 
# 
# From -- ./inp_files/9596.got.cif
#   From: 2010.06.25/outbox.cif.g09.slc.cpg/sg43_5_cif.got.tgz:9596.got - 2010.06.26 16:48:59.
