data_PCOD8187610
_publ_section_title
;
Structure prediction by ZEFSAII (Michael W. Deem and Ramdas Pophale) SiO2 
 PCOD8187610
Probable space group: F D D 2
;
_chemical_formula_sum "Si O2"
_cell_formula_units_Z 40
_cell_length_a 11.267671
_cell_length_b 10.522495
_cell_length_c 11.177883
_cell_angle_alpha 90.000000
_cell_angle_beta 90.000000
_cell_angle_gamma 90.000000
_cell_volume 1325.294651
_symmetry_space_group_name_H-M "F D D 2"
_symmetry_group_IT_number 43
_symmetry_cell_setting 'orthorhombic'
loop_
_space_group_symop_operation_xyz
x,y,z
-x,-y,z
1/4-x,1/4+y,1/4+z
1/4+x,1/4-y,1/4+z
x,1/2+y,1/2+z
-x,1/2-y,1/2+z
1/4-x,3/4+y,3/4+z
1/4+x,3/4-y,3/4+z
1/2+x,y,1/2+z
1/2-x,-y,1/2+z
3/4-x,1/4+y,3/4+z
3/4+x,1/4-y,3/4+z
1/2+x,1/2+y,z
1/2-x,1/2-y,z
3/4-x,3/4+y,1/4+z
3/4+x,3/4-y,1/4+z
loop_
_atom_site_type_symbol
_atom_site_label
_atom_site_fract_x
_atom_site_fract_y
_atom_site_fract_z
Si Si1 0.250000 0.250000 0.816190
Si Si2 0.334649 0.359934 0.045778
Si Si3 0.978520 0.139936 0.234867
O O1 0.331224 0.340178 0.901210
O O2 0.162495 0.330948 0.731873
O O3 0.250000 0.250000 0.105509
O O4 0.290254 0.504212 0.070561
O O5 0.466962 0.350615 0.100448
O O6 0.000000 0.000000 0.289717
#
# Coordination Sequence:
#
# PCOD8187610 Si02
#       3
#     8  16  16
#     4  10  28  56  88 122 182 234 284 376 432 532
#     4  10  27  55  85 125 181 227 293 372 434 533
#     4  12  28  54  92 128 175 238 293 364 453 522
#
# _framework density 30.181967
#
# number of rings (size 3 to 8) (size 9 to 14) (size 15 to 20)
#    1.200    0.000    0.000    2.400    5.600    8.000 
#    0.000    6.000    4.400    0.000    0.000    0.000 
#    0.000    0.000    0.000    0.000    0.000    0.000 
#
# Total GULP energy -123886.972189 kJ/mol
# GULP energy per Si atom -12388.697219 kJ/mol
# Density = 3.011327 g / cm^3
# Si number density = 30.181967 Si / 1000 Ang^3
#
#
#
# Elastic Constant Matrix: (Units=GPa)
#
#
# Indices 1 2 3 4 5 6 
#
# 1 236.1767 108.3842 106.8215 0.0000 0.0000 0.0000
# 2 108.3842 294.7711 62.9926 0.0000 0.0000 0.0000
# 3 106.8215 62.9926 113.9547 0.0000 0.0000 0.0000
# 4 0.0000 0.0000 0.0000 25.3762 0.0000 0.0000
# 5 0.0000 0.0000 0.0000 0.0000 47.6158 0.0000
# 6 0.0000 0.0000 0.0000 0.0000 0.0000 41.0794
#
#
#
# Elastic Compliance Matrix: (Units=1/GPa)
#
#
# Indices 1 2 3 4 5 6 
#
# 1 0.007894 -0.001498 -0.006572 0.000000 0.000000 0.000000
# 2 -0.001498 0.004131 -0.000879 0.000000 0.000000 0.000000
# 3 -0.006572 -0.000879 0.015422 0.000000 0.000000 0.000000
# 4 0.000000 0.000000 0.000000 0.039407 0.000000 0.000000
# 5 0.000000 0.000000 0.000000 0.000000 0.021001 0.000000
# 6 0.000000 0.000000 0.000000 0.000000 0.000000 0.024343
#
#
# Mechanical properties :
#
#
# Convention : Reuss Voigt Hill
#
# Bulk Modulus (GPa) = 104.72613 133.47769 119.10191
# Shear Modulus (GPa) = 37.51509 47.26123 42.38816
#
# Velocity S-wave (km/s) = 3.52939 3.96141 3.75162
# Velocity P-wave (km/s) = 7.16815 8.07738 7.63631
#
# Compressibility (1/GPa) = 0.00954872
#
# Stress axis : x y z
#
# Youngs Moduli (GPa) = 126.67888 242.05870 64.84331
#
# Poissons Ratio (x) = 0.36264 0.42613
# Poissons Ratio (y) = 0.18979 0.05702
# Poissons Ratio (z) = 0.83249 0.21284
#
# Static dielectric constant tensor:
#      x y z
#    x 5.199710 0.000000 0.000000 
#    y 0.000000 6.080030 0.000000 
#    z 0.000000 0.000000 4.657830 
# 
# 
# High freq. dielectric constant tensor:
#      x y z
#    x 2.225100 0.000000 0.000000 
#    y 0.000000 2.262780 0.000000 
#    z 0.000000 0.000000 2.203700 
# 
# From -- ./inp_files/9275.got.cif
#   From: 2010.06.25/outbox.cif.g09.slc.cpg/sg43_5_cif.got.tgz:9275.got - 2010.06.26 16:48:59.
