data_PCOD8187622
_publ_section_title
;
Structure prediction by ZEFSAII (Michael W. Deem and Ramdas Pophale) SiO2 
 PCOD8187622
Probable space group: F D D 2
;
_chemical_formula_sum "Si O2"
_cell_formula_units_Z 112
_cell_length_a 11.708666
_cell_length_b 29.304190
_cell_length_c 15.526652
_cell_angle_alpha 90.000000
_cell_angle_beta 90.000000
_cell_angle_gamma 90.000000
_cell_volume 5327.395730
_symmetry_space_group_name_H-M "F D D 2"
_symmetry_group_IT_number 43
_symmetry_cell_setting 'orthorhombic'
loop_
_space_group_symop_operation_xyz
x,y,z
-x,-y,z
1/4-x,1/4+y,1/4+z
1/4+x,1/4-y,1/4+z
x,1/2+y,1/2+z
-x,1/2-y,1/2+z
1/4-x,3/4+y,3/4+z
1/4+x,3/4-y,3/4+z
1/2+x,y,1/2+z
1/2-x,-y,1/2+z
3/4-x,1/4+y,3/4+z
3/4+x,1/4-y,3/4+z
1/2+x,1/2+y,z
1/2-x,1/2-y,z
3/4-x,3/4+y,1/4+z
3/4+x,3/4-y,1/4+z
loop_
_atom_site_type_symbol
_atom_site_label
_atom_site_fract_x
_atom_site_fract_y
_atom_site_fract_z
Si Si1 0.833627 0.853316 0.197790
Si Si2 0.389068 0.098633 0.146620
Si Si3 0.684351 0.292416 0.803169
Si Si4 0.391199 0.530398 0.801553
Si Si5 0.206108 0.927042 0.474877
Si Si6 0.090777 0.735081 0.069032
Si Si7 0.030708 0.562616 0.740551
O O1 0.742142 0.884181 0.148108
O O2 0.763807 0.835442 0.280083
O O3 0.880397 0.816061 0.129909
O O4 0.937736 0.883707 0.236245
O O5 0.403895 0.055799 0.210245
O O6 0.392641 0.086003 0.044727
O O7 0.487695 0.134787 0.171443
O O8 0.750000 0.250000 0.760836
O O9 0.558326 0.294483 0.766753
O O10 0.674367 0.288172 0.904838
O O11 0.500000 0.500000 0.822760
O O12 0.290281 0.493588 0.794920
O O13 0.144609 0.962506 0.412269
O O14 0.155148 0.784288 0.066512
O O15 0.145797 0.697268 0.003219
#
# Coordination Sequence:
#
# PCOD8187622 Si02
#       7
#    16  16  16  16  16  16  16
#     4  11  20  40  69  99 130 177 239 284 337 416
#     4  11  21  41  68  97 134 179 232 287 341 410
#     4  11  20  38  67 100 126 169 235 282 328 405
#     4  12  23  42  72 107 142 181 239 303 351 413
#     4  11  23  41  66  95 136 180 232 282 345 420
#     4  11  24  43  64  95 147 178 220 297 362 410
#     4  11  23  44  65  95 141 185 214 288 354 417
#
# _framework density 21.023405
#
# number of rings (size 3 to 8) (size 9 to 14) (size 15 to 20)
#    0.000    0.857    5.714    3.857    0.000    0.000 
#    5.143    0.000    0.000    0.000    0.000    0.000 
#    0.000    0.000    0.000    0.000    0.000    0.000 
#
# Total GULP energy -346987.081008 kJ/mol
# GULP energy per Si atom -12392.395750 kJ/mol
# Density = 2.097556 g / cm^3
# Si number density = 21.023405 Si / 1000 Ang^3
#
#
#
# Elastic Constant Matrix: (Units=GPa)
#
#
# Indices 1 2 3 4 5 6 
#
# 1 86.3980 44.7653 35.8625 0.0000 0.0000 0.0000
# 2 44.7653 103.7024 55.6649 0.0000 0.0000 0.0000
# 3 35.8625 55.6649 125.6535 0.0000 0.0000 0.0000
# 4 0.0000 0.0000 0.0000 44.7959 0.0000 0.0000
# 5 0.0000 0.0000 0.0000 0.0000 23.6194 0.0000
# 6 0.0000 0.0000 0.0000 0.0000 0.0000 42.2533
#
#
#
# Elastic Compliance Matrix: (Units=1/GPa)
#
#
# Indices 1 2 3 4 5 6 
#
# 1 0.015241 -0.005568 -0.001883 0.000000 0.000000 0.000000
# 2 -0.005568 0.014686 -0.004917 0.000000 0.000000 0.000000
# 3 -0.001883 -0.004917 0.010674 0.000000 0.000000 0.000000
# 4 0.000000 0.000000 0.000000 0.022323 0.000000 0.000000
# 5 0.000000 0.000000 0.000000 0.000000 0.042338 0.000000
# 6 0.000000 0.000000 0.000000 0.000000 0.000000 0.023667
#
#
# Mechanical properties :
#
#
# Convention : Reuss Voigt Hill
#
# Bulk Modulus (GPa) = 63.03312 65.37102 64.20207
# Shear Modulus (GPa) = 31.45572 34.09778 32.77675
#
# Velocity S-wave (km/s) = 3.87230 4.03165 3.95278
# Velocity P-wave (km/s) = 7.07392 7.26871 7.17198
#
# Compressibility (1/GPa) = 0.01586468
#
# Stress axis : x y z
#
# Youngs Moduli (GPa) = 65.61207 68.09313 93.68613
#
# Poissons Ratio (x) = 0.37916 0.17643
# Poissons Ratio (y) = 0.36535 0.46062
# Poissons Ratio (z) = 0.12356 0.33479
#
# Static dielectric constant tensor:
#      x y z
#    x 3.743770 0.000000 0.000000 
#    y 0.000000 4.019460 0.000000 
#    z 0.000000 0.000000 3.876020 
# 
# 
# High freq. dielectric constant tensor:
#      x y z
#    x 1.806340 0.000000 0.000000 
#    y 0.000000 1.824630 0.000000 
#    z 0.000000 0.000000 1.823310 
# 
# From -- ./inp_files/9764.got.cif
#   From: 2010.06.25/outbox.cif.g09.slc.cpg/sg43_5_cif.got.tgz:9764.got - 2010.06.26 16:48:59.
