data_PCOD8187925
_publ_section_title
;
Structure prediction by ZEFSAII (Michael W. Deem and Ramdas Pophale) SiO2 
 PCOD8187925
Probable space group: I M M 2
;
_chemical_formula_sum "Si O2"
_cell_formula_units_Z 64
_cell_length_a 14.547507
_cell_length_b 9.139539
_cell_length_c 28.286541
_cell_angle_alpha 90.000000
_cell_angle_beta 90.000000
_cell_angle_gamma 90.000000
_cell_volume 3760.907989
_symmetry_space_group_name_H-M "I M M 2"
_symmetry_group_IT_number 44
_symmetry_cell_setting 'orthorhombic'
loop_
_space_group_symop_operation_xyz
x,y,z
-x,-y,z
-x,y,z
x,-y,z
1/2+x,1/2+y,1/2+z
1/2-x,1/2-y,1/2+z
1/2-x,1/2+y,1/2+z
1/2+x,1/2-y,1/2+z
loop_
_atom_site_type_symbol
_atom_site_label
_atom_site_fract_x
_atom_site_fract_y
_atom_site_fract_z
Si Si1 0.286003 0.827195 0.639500
Si Si2 0.101910 0.826451 0.952750
Si Si3 0.393189 0.166786 0.731807
Si Si4 0.600969 0.326300 0.182095
Si Si5 0.104931 0.171483 0.059230
Si Si6 0.894131 0.171694 0.327448
Si Si7 0.101969 0.173576 0.787525
Si Si8 0.732574 0.325697 0.370059
O O1 0.340433 0.774039 0.685903
O O2 0.179626 0.776327 0.645440
O O3 0.324958 0.753541 0.592972
O O4 0.295770 0.000000 0.633604
O O5 0.179335 0.768627 0.916727
O O6 0.000000 0.765854 0.939324
O O7 0.097448 0.000000 0.950043
O O8 0.127692 0.777541 0.005852
O O9 0.500000 0.178058 0.719839
O O10 0.366201 0.265391 0.776322
O O11 0.363918 0.000000 0.743673
O O12 0.500000 0.266404 0.166533
O O13 0.597665 0.500000 0.184156
O O14 0.626497 0.269843 0.234826
O O15 0.000000 0.213123 0.072031
O O16 0.120465 0.000000 0.065209
O O17 0.832304 0.249274 0.367645
O O18 0.000000 0.208847 0.339042
O O19 0.875818 0.000000 0.327439
O O20 0.175293 0.233274 0.824994
O O21 0.000000 0.228966 0.801576
O O22 0.103635 0.000000 0.789253
O O23 0.745040 0.500000 0.370518
#
# Coordination Sequence:
#
# PCOD8187925 Si02
#       8
#     8   8   8   8   8   8   8   8
#     4  10  18  28  46  70  92 117 154 197 233 264
#     4   8  15  29  49  73  97 118 144 181 225 275
#     4   9  17  29  45  66  91 117 150 193 233 269
#     4   8  14  24  38  60  91 120 144 176 219 263
#     4   9  18  32  48  67  94 124 149 178 224 281
#     4  10  21  34  45  61  91 128 159 187 223 268
#     4   8  13  22  40  68  95 114 137 174 220 268
#     4  10  17  27  49  74  91 113 149 189 225 263
#
# _framework density 17.017167000000001
#
# number of rings (size 3 to 8) (size 9 to 14) (size 15 to 20)
#    0.000    3.000    0.000    3.375    0.000    5.500 
#    0.000    1.875    0.000    3.375    0.000    5.250 
#    0.000    0.000    0.000    0.000    0.000    0.000 
#
# Total GULP energy -396637.083585 kJ/mol
# GULP energy per Si atom -12394.908862 kJ/mol
# Density = 1.697844 g / cm^3
# Si number density = 17.017167 Si / 1000 Ang^3
#
#
#
# Elastic Constant Matrix: (Units=GPa)
#
#
# Indices 1 2 3 4 5 6 
#
# 1 122.7524 35.9939 86.7980 0.0000 0.0000 0.0000
# 2 35.9939 33.2561 33.8023 0.0000 0.0000 0.0000
# 3 86.7980 33.8023 114.5432 0.0000 0.0000 0.0000
# 4 0.0000 0.0000 0.0000 21.1409 0.0000 0.0000
# 5 0.0000 0.0000 0.0000 0.0000 32.0840 0.0000
# 6 0.0000 0.0000 0.0000 0.0000 0.0000 17.5834
#
#
#
# Elastic Compliance Matrix: (Units=1/GPa)
#
#
# Indices 1 2 3 4 5 6 
#
# 1 0.019102 -0.008516 -0.011962 0.000000 0.000000 0.000000
# 2 -0.008516 0.046751 -0.007343 0.000000 0.000000 0.000000
# 3 -0.011962 -0.007343 0.019961 0.000000 0.000000 0.000000
# 4 0.000000 0.000000 0.000000 0.047302 0.000000 0.000000
# 5 0.000000 0.000000 0.000000 0.000000 0.031168 0.000000
# 6 0.000000 0.000000 0.000000 0.000000 0.000000 0.056872
#
#
# Mechanical properties :
#
#
# Convention : Reuss Voigt Hill
#
# Bulk Modulus (GPa) = 33.14313 64.86001 49.00157
# Shear Modulus (GPa) = 17.43047 21.75883 19.59465
#
# Velocity S-wave (km/s) = 3.20392 3.57969 3.39700
# Velocity P-wave (km/s) = 5.76241 7.43524 6.65162
#
# Compressibility (1/GPa) = 0.03017216
#
# Stress axis : x y z
#
# Youngs Moduli (GPa) = 52.35157 21.39014 50.09649
#
# Poissons Ratio (x) = 0.18216 0.59923
# Poissons Ratio (y) = 0.44583 0.36786
# Poissons Ratio (z) = 0.62621 0.15707
#
# Static dielectric constant tensor:
#      x y z
#    x 3.477480 0.000000 0.000000 
#    y 0.000000 2.751590 0.000000 
#    z 0.000000 0.000000 3.203200 
# 
# 
# High freq. dielectric constant tensor:
#      x y z
#    x 1.664720 0.000000 0.000000 
#    y 0.000000 1.611380 0.000000 
#    z 0.000000 0.000000 1.640310 
# 
# From -- ./inp_files/27325.got.cif
#   From: 2010.03.12/outbox.cif.g09.slc.cpg/sg44_14_cif.got.tgz:27325.got - 2010.04.14 02:36:11.
