data_PCOD8187002
_publ_section_title
;
Structure prediction by ZEFSAII (Michael W. Deem and Ramdas Pophale) SiO2 
 PCOD8187002
Probable space group: F D D 2
;
_chemical_formula_sum "Si O2"
_cell_formula_units_Z 112
_cell_length_a 11.936170
_cell_length_b 29.051625
_cell_length_c 15.158859
_cell_angle_alpha 90.000000
_cell_angle_beta 90.000000
_cell_angle_gamma 90.000000
_cell_volume 5256.563784
_symmetry_space_group_name_H-M "F D D 2"
_symmetry_group_IT_number 43
_symmetry_cell_setting 'orthorhombic'
loop_
_space_group_symop_operation_xyz
x,y,z
-x,-y,z
1/4-x,1/4+y,1/4+z
1/4+x,1/4-y,1/4+z
x,1/2+y,1/2+z
-x,1/2-y,1/2+z
1/4-x,3/4+y,3/4+z
1/4+x,3/4-y,3/4+z
1/2+x,y,1/2+z
1/2-x,-y,1/2+z
3/4-x,1/4+y,3/4+z
3/4+x,1/4-y,3/4+z
1/2+x,1/2+y,z
1/2-x,1/2-y,z
3/4-x,3/4+y,1/4+z
3/4+x,3/4-y,1/4+z
loop_
_atom_site_type_symbol
_atom_site_label
_atom_site_fract_x
_atom_site_fract_y
_atom_site_fract_z
Si Si1 0.254083 0.864757 0.539050
Si Si2 0.390379 0.354447 0.619264
Si Si3 0.856093 0.455068 0.567946
Si Si4 0.360831 0.805517 0.824433
Si Si5 0.933665 0.810331 0.125606
Si Si6 0.153251 0.857317 0.181662
Si Si7 0.670524 0.042301 0.363469
O O1 0.227827 0.870801 0.435734
O O2 0.262421 0.915390 0.589064
O O3 0.378077 0.844464 0.554508
O O4 0.163204 0.828859 0.571503
O O5 0.369749 0.386972 0.534303
O O6 0.278539 0.337480 0.669815
O O7 0.453256 0.307911 0.590047
O O8 0.828980 0.506907 0.601761
O O9 0.862855 0.459216 0.463994
O O10 0.980135 0.442595 0.601780
O O11 0.374368 0.815712 0.720469
O O12 0.417855 0.843881 0.883735
O O13 0.914490 0.760370 0.081133
O O14 0.064888 0.823412 0.134770
#
# Coordination Sequence:
#
# PCOD8187002 Si02
#       7
#    16  16  16  16  16  16  16
#     4  11  20  39  69  99 131 176 221 278 346 396
#     4  11  25  43  67  91 141 181 213 273 345 408
#     4   9  19  34  62  99 127 170 211 281 329 393
#     4  10  19  37  61  97 134 167 220 276 331 393
#     4  11  22  38  71  97 129 173 233 278 335 404
#     4  12  23  43  67  95 135 183 219 272 343 404
#     4  10  21  40  66  95 134 169 221 280 339 394
#
# _framework density 21.306695000000001
#
# number of rings (size 3 to 8) (size 9 to 14) (size 15 to 20)
#    0.000    1.429    5.714    0.429    0.000    0.571 
#    0.000    7.143    6.286    0.000    0.000    0.000 
#    0.000    0.000    0.000    0.000    0.000    0.000 
#
# Total GULP energy -346869.556155 kJ/mol
# GULP energy per Si atom -12388.198434 kJ/mol
# Density = 2.125820 g / cm^3
# Si number density = 21.306695 Si / 1000 Ang^3
#
#
#
# Elastic Constant Matrix: (Units=GPa)
#
#
# Indices 1 2 3 4 5 6 
#
# 1 105.3936 38.9002 30.0404 0.0000 0.0000 0.0000
# 2 38.9002 151.5092 28.6666 0.0000 0.0000 0.0000
# 3 30.0404 28.6666 40.4825 0.0000 0.0000 0.0000
# 4 0.0000 0.0000 0.0000 39.8820 0.0000 0.0000
# 5 0.0000 0.0000 0.0000 0.0000 31.1412 0.0000
# 6 0.0000 0.0000 0.0000 0.0000 0.0000 30.4176
#
#
#
# Elastic Compliance Matrix: (Units=1/GPa)
#
#
# Indices 1 2 3 4 5 6 
#
# 1 0.012386 -0.001664 -0.008013 0.000000 0.000000 0.000000
# 2 -0.001664 0.007845 -0.004320 0.000000 0.000000 0.000000
# 3 -0.008013 -0.004320 0.033707 0.000000 0.000000 0.000000
# 4 0.000000 0.000000 0.000000 0.025074 0.000000 0.000000
# 5 0.000000 0.000000 0.000000 0.000000 0.032112 0.000000
# 6 0.000000 0.000000 0.000000 0.000000 0.000000 0.032876
#
#
# Mechanical properties :
#
#
# Convention : Reuss Voigt Hill
#
# Bulk Modulus (GPa) = 38.54472 54.73330 46.63901
# Shear Modulus (GPa) = 27.67886 33.60670 30.64278
#
# Velocity S-wave (km/s) = 3.60817 3.97581 3.79644
# Velocity P-wave (km/s) = 5.95720 6.84253 6.41515
#
# Compressibility (1/GPa) = 0.02594389
#
# Stress axis : x y z
#
# Youngs Moduli (GPa) = 80.73357 127.47044 29.66699
#
# Poissons Ratio (x) = 0.21212 0.23772
# Poissons Ratio (y) = 0.13435 0.12817
# Poissons Ratio (z) = 0.64692 0.55071
#
# Static dielectric constant tensor:
#      x y z
#    x 3.872400 0.000000 0.000000 
#    y 0.000000 -1.345200 0.000000 
#    z 0.000000 0.000000 3.619650 
# 
# 
# High freq. dielectric constant tensor:
#      x y z
#    x 1.836400 0.000000 0.000000 
#    y 0.000000 1.841020 0.000000 
#    z 0.000000 0.000000 1.808250 
# 
# From -- ./inp_files/9779.got.cif
#   From: 2010.06.25/outbox.cif.g09.slc.cpg/sg43_5_cif.got.tgz:9779.got - 2010.06.26 16:48:59.
