data_PCOD8187355
_publ_section_title
;
Structure prediction by ZEFSAII (Michael W. Deem and Ramdas Pophale) SiO2 
 PCOD8187355
Probable space group: F D D 2
;
_chemical_formula_sum "Si O2"
_cell_formula_units_Z 112
_cell_length_a 14.108563
_cell_length_b 30.674881
_cell_length_c 11.799344
_cell_angle_alpha 90.000000
_cell_angle_beta 90.000000
_cell_angle_gamma 90.000000
_cell_volume 5106.502292
_symmetry_space_group_name_H-M "F D D 2"
_symmetry_group_IT_number 43
_symmetry_cell_setting 'orthorhombic'
loop_
_space_group_symop_operation_xyz
x,y,z
-x,-y,z
1/4-x,1/4+y,1/4+z
1/4+x,1/4-y,1/4+z
x,1/2+y,1/2+z
-x,1/2-y,1/2+z
1/4-x,3/4+y,3/4+z
1/4+x,3/4-y,3/4+z
1/2+x,y,1/2+z
1/2-x,-y,1/2+z
3/4-x,1/4+y,3/4+z
3/4+x,1/4-y,3/4+z
1/2+x,1/2+y,z
1/2-x,1/2-y,z
3/4-x,3/4+y,1/4+z
3/4+x,3/4-y,1/4+z
loop_
_atom_site_type_symbol
_atom_site_label
_atom_site_fract_x
_atom_site_fract_y
_atom_site_fract_z
Si Si1 0.000000 0.500000 0.131400
Si Si2 0.364898 0.620145 0.570620
Si Si3 0.427956 0.282957 0.221078
Si Si4 0.500000 0.000000 0.597030
Si Si5 0.350513 0.027177 0.962411
Si Si6 0.292715 0.819283 0.019773
Si Si7 0.806988 0.327285 0.532367
Si Si8 0.778511 0.604337 0.653358
O O1 0.997850 0.541066 0.211794
O O2 0.906970 0.497743 0.052772
O O3 0.331604 0.575122 0.512609
O O4 0.274735 0.649346 0.603262
O O5 0.406365 0.612640 0.693988
O O6 0.439160 0.645709 0.489234
O O7 0.342270 0.254440 0.270015
O O8 0.504614 0.247823 0.179575
O O9 0.391063 0.310294 0.113012
O O10 0.475095 0.314194 0.315340
O O11 0.487672 0.955928 0.670574
O O12 0.411159 0.031858 0.848007
O O13 0.218486 0.849457 0.087316
O O14 0.374618 0.851561 0.973956
#
# Coordination Sequence:
#
# PCOD8187355 Si02
#       8
#     8  16  16   8  16  16  16  16
#     4  10  22  42  66  92 124 168 214 262 316 382
#     4  10  22  41  63  89 123 166 210 258 315 379
#     4  11  25  41  62  93 129 166 207 261 320 376
#     4  10  24  42  60  88 128 166 202 256 318 376
#     4  10  22  41  65  92 123 165 213 258 312 379
#     4  10  22  40  64  90 121 161 210 261 309 372
#     4  11  24  40  63  93 127 164 208 262 315 374
#     4  10  22  41  64  90 121 164 212 262 316 377
#
# _framework density 21.932821000000001
#
# number of rings (size 3 to 8) (size 9 to 14) (size 15 to 20)
#    0.000    1.714    0.000    3.429    0.000   16.000 
#    0.000    0.000    0.000    0.000    0.000    0.000 
#    0.000    0.000    0.000    0.000    0.000    0.000 
#
# Total GULP energy -347218.139073 kJ/mol
# GULP energy per Si atom -12400.647824 kJ/mol
# Density = 2.188290 g / cm^3
# Si number density = 21.932821 Si / 1000 Ang^3
#
#
#
# Elastic Constant Matrix: (Units=GPa)
#
#
# Indices 1 2 3 4 5 6 
#
# 1 103.9313 74.4032 48.4560 0.0000 0.0000 0.0000
# 2 74.4032 84.5447 48.2609 0.0000 0.0000 0.0000
# 3 48.4560 48.2609 108.8282 0.0000 0.0000 0.0000
# 4 0.0000 0.0000 0.0000 45.5863 0.0000 0.0000
# 5 0.0000 0.0000 0.0000 0.0000 121.1117 0.0000
# 6 0.0000 0.0000 0.0000 0.0000 0.0000 45.2583
#
#
#
# Elastic Compliance Matrix: (Units=1/GPa)
#
#
# Indices 1 2 3 4 5 6 
#
# 1 0.026307 -0.022046 -0.001937 0.000000 0.000000 0.000000
# 2 -0.022046 0.034312 -0.005400 0.000000 0.000000 0.000000
# 3 -0.001937 -0.005400 0.012446 0.000000 0.000000 0.000000
# 4 0.000000 0.000000 0.000000 0.021936 0.000000 0.000000
# 5 0.000000 0.000000 0.000000 0.000000 0.008257 0.000000
# 6 0.000000 0.000000 0.000000 0.000000 0.000000 0.022095
#
#
# Mechanical properties :
#
#
# Convention : Reuss Voigt Hill
#
# Bulk Modulus (GPa) = 69.93247 71.06049 70.49648
# Shear Modulus (GPa) = 26.47105 50.80353 38.63729
#
# Velocity S-wave (km/s) = 3.47784 4.81804 4.20172
# Velocity P-wave (km/s) = 6.93406 7.96372 7.46666
#
# Compressibility (1/GPa) = 0.01429951
#
# Stress axis : x y z
#
# Youngs Moduli (GPa) = 38.01242 29.14438 80.34803
#
# Poissons Ratio (x) = 0.64251 0.15562
# Poissons Ratio (y) = 0.83802 0.43388
# Poissons Ratio (z) = 0.07363 0.15738
#
# Static dielectric constant tensor:
#      x y z
#    x 3.531370 0.000000 0.000000 
#    y 0.000000 3.907890 0.000000 
#    z 0.000000 0.000000 4.083950 
# 
# 
# High freq. dielectric constant tensor:
#      x y z
#    x 1.854040 0.000000 0.000000 
#    y 0.000000 1.866540 0.000000 
#    z 0.000000 0.000000 1.871210 
# 
# From -- ./inp_files/6355.got.cif
#   From: 2010.06.25/outbox.cif.g09.slc.cpg/sg43_4_cif.got.tgz:6355.got - 2010.06.26 16:48:59.
