data_PCOD8187123
_publ_section_title
;
Structure prediction by ZEFSAII (Michael W. Deem and Ramdas Pophale) SiO2 
 PCOD8187123
Probable space group: F D D 2
;
_chemical_formula_sum "Si O2"
_cell_formula_units_Z 112
_cell_length_a 14.536300
_cell_length_b 13.734984
_cell_length_c 23.623881
_cell_angle_alpha 90.000000
_cell_angle_beta 90.000000
_cell_angle_gamma 90.000000
_cell_volume 4716.645992
_symmetry_space_group_name_H-M "F D D 2"
_symmetry_group_IT_number 43
_symmetry_cell_setting 'orthorhombic'
loop_
_space_group_symop_operation_xyz
x,y,z
-x,-y,z
1/4-x,1/4+y,1/4+z
1/4+x,1/4-y,1/4+z
x,1/2+y,1/2+z
-x,1/2-y,1/2+z
1/4-x,3/4+y,3/4+z
1/4+x,3/4-y,3/4+z
1/2+x,y,1/2+z
1/2-x,-y,1/2+z
3/4-x,1/4+y,3/4+z
3/4+x,1/4-y,3/4+z
1/2+x,1/2+y,z
1/2-x,1/2-y,z
3/4-x,3/4+y,1/4+z
3/4+x,3/4-y,1/4+z
loop_
_atom_site_type_symbol
_atom_site_label
_atom_site_fract_x
_atom_site_fract_y
_atom_site_fract_z
Si Si1 0.694496 0.533775 0.238580
Si Si2 0.253023 0.066444 0.017530
Si Si3 0.613405 0.705367 0.177880
Si Si4 0.760746 0.597314 0.596875
Si Si5 0.693166 0.655544 0.707998
Si Si6 0.250000 0.750000 0.588240
Si Si7 0.963996 0.104990 0.103592
Si Si8 0.000000 0.000000 0.255274
O O1 0.693902 0.630243 0.198771
O O2 0.769270 0.450885 0.225480
O O3 0.714177 0.566425 0.302921
O O4 0.595848 0.481676 0.223407
O O5 0.219794 0.165345 0.045735
O O6 0.278745 0.004063 0.073594
O O7 0.340157 0.083116 0.978125
O O8 0.169417 0.023500 0.979920
O O9 0.660030 0.768935 0.127864
O O10 0.524464 0.645487 0.155777
O O11 0.690956 0.652304 0.639262
O O12 0.860192 0.587973 0.626953
O O13 0.776222 0.655418 0.539891
O O14 0.750000 0.750000 0.729859
O O15 0.000000 0.000000 0.082419
#
# Coordination Sequence:
#
# PCOD8187123 Si02
#       8
#    16  16  16  16  16   8  16   8
#     4  11  25  42  72 108 146 199 250 318 373 451
#     4  12  27  51  72 113 150 200 255 315 380 466
#     4  12  27  46  81 105 146 207 253 313 388 456
#     4  11  23  43  70 104 145 190 247 319 362 454
#     4  12  25  43  73 107 158 200 248 306 402 449
#     4  12  30  50  72 107 161 186 258 310 388 464
#     4  11  23  42  74 109 144 184 261 315 373 436
#     4  10  20  40  64  97 141 174 252 314 358 418
#
# _framework density 23.745687
#
# number of rings (size 3 to 8) (size 9 to 14) (size 15 to 20)
#    0.000    0.571    3.571    5.143    6.000    2.286 
#    2.571    0.000    0.000    0.000    0.000    0.000 
#    0.000    0.000    0.000    0.000    0.000    0.000 
#
# Total GULP energy -346993.824846 kJ/mol
# GULP energy per Si atom -12392.636602 kJ/mol
# Density = 2.369164 g / cm^3
# Si number density = 23.745687 Si / 1000 Ang^3
#
#
#
# Elastic Constant Matrix: (Units=GPa)
#
#
# Indices 1 2 3 4 5 6 
#
# 1 89.6454 29.7429 37.9314 0.0000 0.0000 0.0000
# 2 29.7429 129.1196 41.5589 0.0000 0.0000 0.0000
# 3 37.9314 41.5589 102.5083 0.0000 0.0000 0.0000
# 4 0.0000 0.0000 0.0000 88.0944 0.0000 0.0000
# 5 0.0000 0.0000 0.0000 0.0000 40.3486 0.0000
# 6 0.0000 0.0000 0.0000 0.0000 0.0000 35.9564
#
#
#
# Elastic Compliance Matrix: (Units=1/GPa)
#
#
# Indices 1 2 3 4 5 6 
#
# 1 0.013555 -0.001734 -0.004313 0.000000 0.000000 0.000000
# 2 -0.001734 0.009129 -0.003059 0.000000 0.000000 0.000000
# 3 -0.004313 -0.003059 0.012591 0.000000 0.000000 0.000000
# 4 0.000000 0.000000 0.000000 0.011351 0.000000 0.000000
# 5 0.000000 0.000000 0.000000 0.000000 0.024784 0.000000
# 6 0.000000 0.000000 0.000000 0.000000 0.000000 0.027811
#
#
# Mechanical properties :
#
#
# Convention : Reuss Voigt Hill
#
# Bulk Modulus (GPa) = 58.60664 59.97107 59.28885
# Shear Modulus (GPa) = 40.60976 47.01590 43.81283
#
# Velocity S-wave (km/s) = 4.13994 4.45452 4.30011
# Velocity P-wave (km/s) = 6.89831 7.19496 7.04819
#
# Compressibility (1/GPa) = 0.01706291
#
# Stress axis : x y z
#
# Youngs Moduli (GPa) = 73.77165 109.54173 79.41892
#
# Poissons Ratio (x) = 0.18999 0.34251
# Poissons Ratio (y) = 0.12795 0.24296
# Poissons Ratio (z) = 0.31816 0.33512
#
# Static dielectric constant tensor:
#      x y z
#    x 3.863430 0.000000 0.000000 
#    y 0.000000 3.950660 0.000000 
#    z 0.000000 0.000000 4.350060 
# 
# 
# High freq. dielectric constant tensor:
#      x y z
#    x 1.929410 0.000000 0.000000 
#    y 0.000000 1.949360 0.000000 
#    z 0.000000 0.000000 1.953620 
# 
# From -- ./inp_files/21773.got.cif
#   From: 2010.06.25/outbox.cif.g09.slc.cpg/sg43_11_cif.got.tgz:21773.got - 2010.06.26 16:48:59.
