data_PCOD8187402
_publ_section_title
;
Structure prediction by ZEFSAII (Michael W. Deem and Ramdas Pophale) SiO2 
 PCOD8187402
Probable space group: F D D 2
;
_chemical_formula_sum "Si O2"
_cell_formula_units_Z 80
_cell_length_a 26.966766
_cell_length_b 17.494385
_cell_length_c 7.380779
_cell_angle_alpha 90.000000
_cell_angle_beta 90.000000
_cell_angle_gamma 90.000000
_cell_volume 3482.007868
_symmetry_space_group_name_H-M "F D D 2"
_symmetry_group_IT_number 43
_symmetry_cell_setting 'orthorhombic'
loop_
_space_group_symop_operation_xyz
x,y,z
-x,-y,z
1/4-x,1/4+y,1/4+z
1/4+x,1/4-y,1/4+z
x,1/2+y,1/2+z
-x,1/2-y,1/2+z
1/4-x,3/4+y,3/4+z
1/4+x,3/4-y,3/4+z
1/2+x,y,1/2+z
1/2-x,-y,1/2+z
3/4-x,1/4+y,3/4+z
3/4+x,1/4-y,3/4+z
1/2+x,1/2+y,z
1/2-x,1/2-y,z
3/4-x,3/4+y,1/4+z
3/4+x,3/4-y,1/4+z
loop_
_atom_site_type_symbol
_atom_site_label
_atom_site_fract_x
_atom_site_fract_y
_atom_site_fract_z
Si Si1 0.741763 0.124972 0.496560
Si Si2 0.349931 0.934349 0.019128
Si Si3 0.776836 0.000049 0.267803
Si Si4 0.578707 0.507698 0.803733
Si Si5 0.883234 0.516419 0.694485
O O1 0.740841 0.071884 0.314412
O O2 0.690641 0.172717 0.502053
O O3 0.788804 0.180089 0.493264
O O4 0.748506 0.072161 0.673639
O O5 0.344705 0.843481 0.031983
O O6 0.296716 0.972006 0.968155
O O7 0.388225 0.952421 0.851847
O O8 0.370073 0.973412 0.202471
O O9 0.824397 0.027053 0.147878
O O10 0.586857 0.510421 0.018823
#
# Coordination Sequence:
#
# PCOD8187402 Si02
#       5
#    16  16  16  16  16
#     4  11  24  42  64 103 130 174 210 291 332 378
#     4  10  22  42  68  97 124 177 221 261 316 418
#     4  10  24  41  64  96 136 162 226 262 342 379
#     4  11  22  45  72  91 136 172 226 267 334 383
#     4  10  22  42  68  97 124 177 221 261 316 418
#
# _framework density 22.975249999999999
#
# number of rings (size 3 to 8) (size 9 to 14) (size 15 to 20)
#    1.200    0.400    4.000    0.000    0.000   11.200 
#    0.000    2.000    0.000    0.000    0.000    0.000 
#    0.000    0.000    0.000    0.000    0.000    0.000 
#
# Total GULP energy -247869.580413 kJ/mol
# GULP energy per Si atom -12393.479021 kJ/mol
# Density = 2.292296 g / cm^3
# Si number density = 22.975250 Si / 1000 Ang^3
#
#
#
# Elastic Constant Matrix: (Units=GPa)
#
#
# Indices 1 2 3 4 5 6 
#
# 1 13.4306 -3.0307 -13.9945 0.0000 0.0000 0.0000
# 2 -3.0307 101.4064 20.3028 0.0000 0.0000 0.0000
# 3 -13.9945 20.3028 60.2203 0.0002 0.0000 -0.0001
# 4 0.0000 0.0000 0.0002 45.6445 0.0000 0.0000
# 5 0.0000 0.0000 0.0000 0.0000 30.6663 0.0000
# 6 0.0000 0.0000 -0.0001 0.0000 0.0000 18.3962
#
#
#
# Elastic Compliance Matrix: (Units=1/GPa)
#
#
# Indices 1 2 3 4 5 6 
#
# 1 0.098538 -0.001758 0.023492 0.000000 0.000000 0.000000
# 2 -0.001758 0.010607 -0.003985 0.000000 0.000000 0.000000
# 3 0.023492 -0.003985 0.023408 0.000000 0.000000 0.000000
# 4 0.000000 0.000000 0.000000 0.021908 0.000000 0.000000
# 5 0.000000 0.000000 0.000000 0.000000 0.032609 0.000000
# 6 0.000000 0.000000 0.000000 0.000000 0.000000 0.054359
#
#
# Mechanical properties :
#
#
# Convention : Reuss Voigt Hill
#
# Bulk Modulus (GPa) = 5.95059 20.17919 13.06489
# Shear Modulus (GPa) = 19.08773 30.39337 24.74055
#
# Velocity S-wave (km/s) = 2.88548 3.64108 3.28508
# Velocity P-wave (km/s) = 3.70094 5.14575 4.48194
#
# Compressibility (1/GPa) = 0.16805049
#
# Stress axis : x y z
#
# Youngs Moduli (GPa) = 10.14838 94.28174 42.71994
#
# Poissons Ratio (x) = 0.16579 -1.00357
# Poissons Ratio (y) = 0.01785 0.17022
# Poissons Ratio (z) = -0.23840 0.37567
#
# Static dielectric constant tensor:
#      x y z
#    x 3.841900 0.000000 0.000000 
#    y 0.000000 4.160320 0.000000 
#    z 0.000000 0.000000 3.843260 
# 
# 
# High freq. dielectric constant tensor:
#      x y z
#    x 1.885150 0.000000 0.000000 
#    y 0.000000 1.917380 0.000000 
#    z 0.000000 0.000000 1.900170 
# 
# From -- ./inp_files/4145.got.cif
#   From: 2010.06.25/outbox.cif.g09.slc.cpg/sg43_3_cif.got.tgz:4145.got - 2010.06.26 16:48:59.
