data_PCOD8187103
_publ_section_title
;
Structure prediction by ZEFSAII (Michael W. Deem and Ramdas Pophale) SiO2 
 PCOD8187103
Probable space group: F D D 2
;
_chemical_formula_sum "Si O2"
_cell_formula_units_Z 96
_cell_length_a 32.318054
_cell_length_b 11.670706
_cell_length_c 12.375389
_cell_angle_alpha 90.000000
_cell_angle_beta 90.000000
_cell_angle_gamma 90.000000
_cell_volume 4667.681242
_symmetry_space_group_name_H-M "F D D 2"
_symmetry_group_IT_number 43
_symmetry_cell_setting 'orthorhombic'
loop_
_space_group_symop_operation_xyz
x,y,z
-x,-y,z
1/4-x,1/4+y,1/4+z
1/4+x,1/4-y,1/4+z
x,1/2+y,1/2+z
-x,1/2-y,1/2+z
1/4-x,3/4+y,3/4+z
1/4+x,3/4-y,3/4+z
1/2+x,y,1/2+z
1/2-x,-y,1/2+z
3/4-x,1/4+y,3/4+z
3/4+x,1/4-y,3/4+z
1/2+x,1/2+y,z
1/2-x,1/2-y,z
3/4-x,3/4+y,1/4+z
3/4+x,3/4-y,1/4+z
loop_
_atom_site_type_symbol
_atom_site_label
_atom_site_fract_x
_atom_site_fract_y
_atom_site_fract_z
Si Si1 0.500000 0.500000 0.539950
Si Si2 0.850460 0.083246 0.609045
Si Si3 0.330171 0.669509 0.378061
Si Si4 0.914175 0.470340 0.576462
Si Si5 0.200145 0.147630 0.607301
Si Si6 0.874587 0.958385 0.290545
Si Si7 0.500000 0.000000 0.675468
O O1 0.531187 0.568219 0.616846
O O2 0.476210 0.590844 0.465885
O O3 0.840505 0.154311 0.503240
O O4 0.846205 0.165079 0.712208
O O5 0.897270 0.038054 0.595091
O O6 0.820583 0.974964 0.615454
O O7 0.344332 0.567485 0.298484
O O8 0.886289 0.413699 0.670382
O O9 0.900643 0.603408 0.591579
O O10 0.963157 0.453315 0.598915
O O11 0.167193 0.253387 0.600721
O O12 0.230632 0.151382 0.503104
#
# Coordination Sequence:
#
# PCOD8187103 Si02
#       7
#     8  16  16  16  16  16   8
#     4  11  22  37  62  88 112 147 202 247 288 344
#     4  11  23  39  60  86 123 157 195 245 302 358
#     4  11  22  40  61  86 118 161 199 241 298 367
#     4  11  22  38  61  90 118 153 200 253 297 351
#     4   9  20  40  61  86 116 156 198 244 296 360
#     4  10  20  39  63  83 114 160 200 234 297 371
#     4   9  20  37  58  84 118 155 202 245 296 362
#
# _framework density 20.566958
#
# number of rings (size 3 to 8) (size 9 to 14) (size 15 to 20)
#    0.000    1.667    0.000    7.000    0.000    3.333 
#    0.000    6.667    0.000    0.000    0.000    0.000 
#    0.000    0.000    0.000    0.000    0.000    0.000 
#
# Total GULP energy -297508.200261 kJ/mol
# GULP energy per Si atom -12396.175011 kJ/mol
# Density = 2.052015 g / cm^3
# Si number density = 20.566958 Si / 1000 Ang^3
#
#
#
# Elastic Constant Matrix: (Units=GPa)
#
#
# Indices 1 2 3 4 5 6 
#
# 1 146.7469 46.5548 45.6999 0.0000 0.0000 0.0000
# 2 46.5548 68.7387 24.0007 0.0000 0.0000 0.0000
# 3 45.6999 24.0007 107.1445 0.0000 0.0000 0.0000
# 4 0.0000 0.0000 0.0000 30.6366 0.0000 0.0000
# 5 0.0000 0.0000 0.0000 0.0000 33.4114 0.0000
# 6 0.0000 0.0000 0.0000 0.0000 0.0000 25.6254
#
#
#
# Elastic Compliance Matrix: (Units=1/GPa)
#
#
# Indices 1 2 3 4 5 6 
#
# 1 0.009395 -0.005385 -0.002801 0.000000 0.000000 0.000000
# 2 -0.005385 0.018869 -0.001930 0.000000 0.000000 0.000000
# 3 -0.002801 -0.001930 0.010960 0.000000 0.000000 0.000000
# 4 0.000000 0.000000 0.000000 0.032641 0.000000 0.000000
# 5 0.000000 0.000000 0.000000 0.000000 0.029930 0.000000
# 6 0.000000 0.000000 0.000000 0.000000 0.000000 0.039024
#
#
# Mechanical properties :
#
#
# Convention : Reuss Voigt Hill
#
# Bulk Modulus (GPa) = 52.65269 61.68232 57.16751
# Shear Modulus (GPa) = 29.87196 31.69299 30.78248
#
# Velocity S-wave (km/s) = 3.81520 3.92977 3.87291
# Velocity P-wave (km/s) = 6.71297 7.11666 6.91776
#
# Compressibility (1/GPa) = 0.01899238
#
# Stress axis : x y z
#
# Youngs Moduli (GPa) = 106.43814 52.99749 91.23952
#
# Poissons Ratio (x) = 0.28540 0.25556
# Poissons Ratio (y) = 0.57318 0.17607
# Poissons Ratio (z) = 0.29813 0.10227
#
# Static dielectric constant tensor:
#      x y z
#    x 3.960290 0.000000 0.000000 
#    y 0.000000 3.448310 0.000000 
#    z 0.000000 0.000000 3.768100 
# 
# 
# High freq. dielectric constant tensor:
#      x y z
#    x 1.812290 0.000000 0.000000 
#    y 0.000000 1.781090 0.000000 
#    z 0.000000 0.000000 1.817310 
# 
# From -- ./inp_files/11658.got.cif
#   From: 2010.06.25/outbox.cif.g09.slc.cpg/sg43_6_cif.got.tgz:11658.got - 2010.06.26 16:48:59.
