data_PCOD8187743
_publ_section_title
;
Structure prediction by ZEFSAII (Michael W. Deem and Ramdas Pophale) SiO2 
 PCOD8187743
Probable space group: F D D 2
;
_chemical_formula_sum "Si O2"
_cell_formula_units_Z 112
_cell_length_a 13.265802
_cell_length_b 13.265795
_cell_length_c 27.631845
_cell_angle_alpha 90.000000
_cell_angle_beta 90.000000
_cell_angle_gamma 90.000000
_cell_volume 4862.691040
_symmetry_space_group_name_H-M "F D D 2"
_symmetry_group_IT_number 43
_symmetry_cell_setting 'orthorhombic'
loop_
_space_group_symop_operation_xyz
x,y,z
-x,-y,z
1/4-x,1/4+y,1/4+z
1/4+x,1/4-y,1/4+z
x,1/2+y,1/2+z
-x,1/2-y,1/2+z
1/4-x,3/4+y,3/4+z
1/4+x,3/4-y,3/4+z
1/2+x,y,1/2+z
1/2-x,-y,1/2+z
3/4-x,1/4+y,3/4+z
3/4+x,1/4-y,3/4+z
1/2+x,1/2+y,z
1/2-x,1/2-y,z
3/4-x,3/4+y,1/4+z
3/4+x,3/4-y,1/4+z
loop_
_atom_site_type_symbol
_atom_site_label
_atom_site_fract_x
_atom_site_fract_y
_atom_site_fract_z
Si Si1 0.020733 0.751494 0.233300
Si Si2 0.902957 0.438819 0.069025
Si Si3 0.213180 0.036820 0.311165
Si Si4 0.065495 0.406463 0.472628
Si Si5 0.001494 0.270733 0.389030
Si Si6 0.593537 0.565495 0.399702
Si Si7 0.688819 0.652957 0.053305
O O1 0.065041 0.812015 0.279089
O O2 0.108679 0.749830 0.193167
O O3 0.925931 0.804714 0.206976
O O4 0.986330 0.640838 0.252993
O O5 0.859162 0.486330 0.119337
O O6 0.000000 0.500000 0.050967
O O7 0.942152 0.327096 0.076231
O O8 0.155062 0.076032 0.264010
O O9 0.173968 0.094938 0.358321
O O10 0.327096 0.057848 0.296099
O O11 0.000000 0.500000 0.493683
O O12 0.999830 0.358679 0.429163
O O13 0.054714 0.175931 0.415355
O O14 0.062015 0.315041 0.343241
O O15 0.500000 0.500000 0.378647
O O16 0.750000 0.750000 0.071363
#
# Coordination Sequence:
#
# PCOD8187743 Si02
#       7
#    16  16  16  16  16  16  16
#     4  11  25  45  72 105 149 193 253 310 378 453
#     4  11  24  46  74 108 148 196 243 314 383 459
#     4  12  24  44  74 100 146 192 246 310 376 448
#     4  12  26  46  72 107 145 197 255 314 379 458
#     4  11  25  45  72 105 149 193 253 310 378 453
#     4  12  26  46  72 107 145 197 255 314 379 458
#     4  11  24  46  74 108 148 196 243 314 383 459
#
# _framework density 23.032513000000002
#
# number of rings (size 3 to 8) (size 9 to 14) (size 15 to 20)
#    0.000    0.571    2.857    6.000    0.000    5.143 
#    0.000    0.000    0.000    0.000    0.000    0.000 
#    0.000    0.000    0.000    0.000    0.000    0.000 
#
# Total GULP energy -347065.936782 kJ/mol
# GULP energy per Si atom -12395.212028 kJ/mol
# Density = 2.298009 g / cm^3
# Si number density = 23.032513 Si / 1000 Ang^3
#
#
#
# Elastic Constant Matrix: (Units=GPa)
#
#
# Indices 1 2 3 4 5 6 
#
# 1 114.2820 49.5285 34.4941 0.0000 0.0000 0.0000
# 2 49.5285 114.2817 34.4940 0.0000 0.0000 0.0000
# 3 34.4941 34.4940 113.2169 0.0000 0.0000 0.0000
# 4 0.0000 0.0000 0.0000 34.8870 0.0000 0.0000
# 5 0.0000 0.0000 0.0000 0.0000 34.8870 0.0000
# 6 0.0000 0.0000 0.0000 0.0000 0.0000 48.0105
#
#
#
# Elastic Compliance Matrix: (Units=1/GPa)
#
#
# Indices 1 2 3 4 5 6 
#
# 1 0.011223 -0.004220 -0.002134 0.000000 0.000000 0.000000
# 2 -0.004220 0.011223 -0.002134 0.000000 0.000000 0.000000
# 3 -0.002134 -0.002134 0.010133 0.000000 0.000000 0.000000
# 4 0.000000 0.000000 0.000000 0.028664 0.000000 0.000000
# 5 0.000000 0.000000 0.000000 0.000000 0.028664 0.000000
# 6 0.000000 0.000000 0.000000 0.000000 0.000000 0.020829
#
#
# Mechanical properties :
#
#
# Convention : Reuss Voigt Hill
#
# Bulk Modulus (GPa) = 64.08431 64.31263 64.19847
# Shear Modulus (GPa) = 37.61885 38.44118 38.03001
#
# Velocity S-wave (km/s) = 4.04579 4.08977 4.06784
# Velocity P-wave (km/s) = 7.05041 7.09117 7.07082
#
# Compressibility (1/GPa) = 0.01560444
#
# Stress axis : x y z
#
# Youngs Moduli (GPa) = 89.10109 89.10088 98.68986
#
# Poissons Ratio (x) = 0.37601 0.21057
# Poissons Ratio (y) = 0.37601 0.21057
# Poissons Ratio (z) = 0.19011 0.19011
#
# Static dielectric constant tensor:
#      x y z
#    x 4.348400 0.000000 0.000000 
#    y 0.000000 4.348390 0.000000 
#    z 0.000000 0.000000 3.964450 
# 
# 
# High freq. dielectric constant tensor:
#      x y z
#    x 1.915770 0.000000 0.000000 
#    y 0.000000 1.915770 0.000000 
#    z 0.000000 0.000000 1.899240 
# 
# From -- ./inp_files/29097.got.cif
#   From: 2010.06.25/outbox.cif.g09.slc.cpg/sg43_15_cif.got.tgz:29097.got - 2010.06.26 16:48:59.
