data_PCOD8187220
_publ_section_title
;
Structure prediction by ZEFSAII (Michael W. Deem and Ramdas Pophale) SiO2 
 PCOD8187220
Probable space group: F D D 2
;
_chemical_formula_sum "Si O2"
_cell_formula_units_Z 120
_cell_length_a 30.298792
_cell_length_b 11.352133
_cell_length_c 17.942182
_cell_angle_alpha 90.000000
_cell_angle_beta 90.000000
_cell_angle_gamma 90.000000
_cell_volume 6171.319654
_symmetry_space_group_name_H-M "F D D 2"
_symmetry_group_IT_number 43
_symmetry_cell_setting 'orthorhombic'
loop_
_space_group_symop_operation_xyz
x,y,z
-x,-y,z
1/4-x,1/4+y,1/4+z
1/4+x,1/4-y,1/4+z
x,1/2+y,1/2+z
-x,1/2-y,1/2+z
1/4-x,3/4+y,3/4+z
1/4+x,3/4-y,3/4+z
1/2+x,y,1/2+z
1/2-x,-y,1/2+z
3/4-x,1/4+y,3/4+z
3/4+x,1/4-y,3/4+z
1/2+x,1/2+y,z
1/2-x,1/2-y,z
3/4-x,3/4+y,1/4+z
3/4+x,3/4-y,1/4+z
loop_
_atom_site_type_symbol
_atom_site_label
_atom_site_fract_x
_atom_site_fract_y
_atom_site_fract_z
Si Si1 0.328268 0.382011 0.123110
Si Si2 0.336910 0.295103 0.880743
Si Si3 0.929016 0.207574 0.322297
Si Si4 0.854437 0.016255 0.976110
Si Si5 0.795562 0.193879 0.513705
Si Si6 0.261847 0.081282 0.659933
Si Si7 0.795496 0.218077 0.021157
Si Si8 0.500000 0.000000 0.038112
O O1 0.353156 0.339999 0.198229
O O2 0.308861 0.262996 0.088188
O O3 0.287848 0.458770 0.153863
O O4 0.356973 0.453690 0.058737
O O5 0.380370 0.256834 0.836246
O O6 0.342390 0.426969 0.910635
O O7 0.292446 0.290674 0.833834
O O8 0.332891 0.208385 0.950939
O O9 0.957662 0.304315 0.276670
O O10 0.959309 0.186198 0.395009
O O11 0.924123 0.085530 0.276389
O O12 0.816837 0.114460 0.974764
O O13 0.750000 0.250000 0.483302
O O14 0.283674 0.174366 0.603939
O O15 0.266130 0.136992 0.741331
O O16 0.750000 0.250000 0.978903
#
# Coordination Sequence:
#
# PCOD8187220 Si02
#       8
#    16  16  16  16  16  16  16   8
#     4  10  21  40  64  90 121 165 209 255 316 376
#     4  11  26  38  61  91 126 164 202 264 316 370
#     4  11  21  38  63  92 115 162 210 251 307 376
#     4  10  22  42  62  88 127 161 209 259 320 369
#     4  11  21  40  61  88 118 160 209 248 309 379
#     4  10  21  39  64  85 128 163 205 257 308 371
#     4   9  20  39  62  88 117 165 206 249 306 374
#     4  12  24  40  56  96 134 160 208 264 322 362
#
# _framework density 19.444787000000002
#
# number of rings (size 3 to 8) (size 9 to 14) (size 15 to 20)
#    0.000    1.600    5.333    0.000    5.600    0.000 
#    2.400    1.333    0.000    0.000    0.000    0.000 
#    0.000    0.000    0.000    0.000    0.000    0.000 
#
# Total GULP energy -371729.918368 kJ/mol
# GULP energy per Si atom -12390.997279 kJ/mol
# Density = 1.940053 g / cm^3
# Si number density = 19.444787 Si / 1000 Ang^3
#
#
#
# Elastic Constant Matrix: (Units=GPa)
#
#
# Indices 1 2 3 4 5 6 
#
# 1 102.2174 36.9403 27.3757 0.0000 0.0000 0.0000
# 2 36.9403 117.0181 23.4264 0.0000 0.0000 0.0000
# 3 27.3757 23.4264 43.2649 0.0000 0.0000 0.0000
# 4 0.0000 0.0000 0.0000 12.7113 0.0000 0.0000
# 5 0.0000 0.0000 0.0000 0.0000 30.4031 0.0000
# 6 0.0000 0.0000 0.0000 0.0000 0.0000 35.9933
#
#
#
# Elastic Compliance Matrix: (Units=1/GPa)
#
#
# Indices 1 2 3 4 5 6 
#
# 1 0.012468 -0.002643 -0.006458 0.000000 0.000000 0.000000
# 2 -0.002643 0.010145 -0.003821 0.000000 0.000000 0.000000
# 3 -0.006458 -0.003821 0.029268 0.000000 0.000000 0.000000
# 4 0.000000 0.000000 0.000000 0.078670 0.000000 0.000000
# 5 0.000000 0.000000 0.000000 0.000000 0.032891 0.000000
# 6 0.000000 0.000000 0.000000 0.000000 0.000000 0.027783
#
#
# Mechanical properties :
#
#
# Convention : Reuss Voigt Hill
#
# Bulk Modulus (GPa) = 38.40556 48.66501 43.53528
# Shear Modulus (GPa) = 22.14858 27.47209 24.81033
#
# Velocity S-wave (km/s) = 3.37864 3.76283 3.57590
# Velocity P-wave (km/s) = 5.91728 6.63025 6.28389
#
# Compressibility (1/GPa) = 0.02603790
#
# Stress axis : x y z
#
# Youngs Moduli (GPa) = 80.20694 98.57146 34.16653
#
# Poissons Ratio (x) = 0.26052 0.22064
# Poissons Ratio (y) = 0.21199 0.13054
# Poissons Ratio (z) = 0.51796 0.37662
#
# Static dielectric constant tensor:
#      x y z
#    x 3.834450 0.000000 0.000000 
#    y 0.000000 3.834050 0.000000 
#    z 0.000000 0.000000 3.342320 
# 
# 
# High freq. dielectric constant tensor:
#      x y z
#    x 1.755120 0.000000 0.000000 
#    y 0.000000 1.778490 0.000000 
#    z 0.000000 0.000000 1.728660 
# 
# From -- ./inp_files/13541.got.cif
#   From: 2010.06.25/outbox.cif.g09.slc.cpg/sg43_7_cif.got.tgz:13541.got - 2010.06.26 16:48:59.
