data_PCOD8187238
_publ_section_title
;
Structure prediction by ZEFSAII (Michael W. Deem and Ramdas Pophale) SiO2 
 PCOD8187238
Probable space group: F D D 2
;
_chemical_formula_sum "Si O2"
_cell_formula_units_Z 112
_cell_length_a 24.484064
_cell_length_b 21.027926
_cell_length_c 10.578653
_cell_angle_alpha 90.000000
_cell_angle_beta 90.000000
_cell_angle_gamma 90.000000
_cell_volume 5446.409828
_symmetry_space_group_name_H-M "F D D 2"
_symmetry_group_IT_number 43
_symmetry_cell_setting 'orthorhombic'
loop_
_space_group_symop_operation_xyz
x,y,z
-x,-y,z
1/4-x,1/4+y,1/4+z
1/4+x,1/4-y,1/4+z
x,1/2+y,1/2+z
-x,1/2-y,1/2+z
1/4-x,3/4+y,3/4+z
1/4+x,3/4-y,3/4+z
1/2+x,y,1/2+z
1/2-x,-y,1/2+z
3/4-x,1/4+y,3/4+z
3/4+x,1/4-y,3/4+z
1/2+x,1/2+y,z
1/2-x,1/2-y,z
3/4-x,3/4+y,1/4+z
3/4+x,3/4-y,1/4+z
loop_
_atom_site_type_symbol
_atom_site_label
_atom_site_fract_x
_atom_site_fract_y
_atom_site_fract_z
Si Si1 0.439246 0.265022 0.088260
Si Si2 0.800841 0.924963 0.404400
Si Si3 0.269748 0.177786 0.537364
Si Si4 0.319497 0.374833 0.913169
Si Si5 0.374927 0.624778 0.934180
Si Si6 0.969331 0.935511 0.569683
Si Si7 0.118092 0.242610 0.839757
O O1 0.502111 0.282973 0.099175
O O2 0.424325 0.192473 0.102279
O O3 0.401153 0.303903 0.186873
O O4 0.425675 0.278174 0.942919
O O5 0.778645 0.871001 0.499198
O O6 0.832472 0.886983 0.295470
O O7 0.839233 0.979015 0.466170
O O8 0.250000 0.250000 0.525023
O O9 0.322738 0.171915 0.445465
O O10 0.287898 0.155961 0.678649
O O11 0.254381 0.358293 0.915291
O O12 0.348444 0.323491 0.819187
O O13 0.342819 0.379921 0.053355
O O14 0.911002 0.952167 0.633835
O O15 0.000000 0.000000 0.541337
#
# Coordination Sequence:
#
# PCOD8187238 Si02
#       7
#    16  16  16  16  16  16  16
#     4  10  24  41  61  94 130 167 217 267 327 403
#     4  11  23  41  66  93 131 170 219 272 331 394
#     4  10  21  40  64  95 124 166 224 272 326 397
#     4  10  22  41  64  93 130 166 215 273 332 394
#     4  10  23  43  61  92 132 169 213 275 333 392
#     4   9  18  38  64  91 122 159 213 267 315 381
#     4  10  21  42  65  93 127 169 220 268 330 389
#
# _framework density 20.564005999999999
#
# number of rings (size 3 to 8) (size 9 to 14) (size 15 to 20)
#    0.000    2.000    1.429    0.857    4.000    1.143 
#    7.714    0.714    0.000    0.000    0.000    0.000 
#    0.000    0.000    0.000    0.000    0.000    0.000 
#
# Total GULP energy -346890.194549 kJ/mol
# GULP energy per Si atom -12388.935520 kJ/mol
# Density = 2.051720 g / cm^3
# Si number density = 20.564006 Si / 1000 Ang^3
#
#
#
# Elastic Constant Matrix: (Units=GPa)
#
#
# Indices 1 2 3 4 5 6 
#
# 1 128.0549 50.3397 48.0379 -0.0002 0.0001 0.0000
# 2 50.3397 114.3431 28.9683 -0.0007 0.0003 0.0000
# 3 48.0379 28.9683 74.3071 -0.0016 0.0008 -0.0001
# 4 -0.0002 -0.0007 -0.0016 31.0615 0.0004 0.0000
# 5 0.0001 0.0003 0.0008 0.0004 43.7358 0.0000
# 6 0.0000 0.0000 -0.0001 0.0000 0.0000 20.8132
#
#
#
# Elastic Compliance Matrix: (Units=1/GPa)
#
#
# Indices 1 2 3 4 5 6 
#
# 1 0.011455 -0.003514 -0.006035 0.000000 0.000000 0.000000
# 2 -0.003514 0.010782 -0.001932 0.000000 0.000000 0.000000
# 3 -0.006035 -0.001932 0.018112 0.000001 0.000000 0.000000
# 4 0.000000 0.000000 0.000001 0.032194 0.000000 0.000000
# 5 0.000000 0.000000 0.000000 0.000000 0.022865 0.000000
# 6 0.000000 0.000000 0.000000 0.000000 0.000000 0.048046
#
#
# Mechanical properties :
#
#
# Convention : Reuss Voigt Hill
#
# Bulk Modulus (GPa) = 57.51317 63.48856 60.50086
# Shear Modulus (GPa) = 29.03411 31.74605 30.39008
#
# Velocity S-wave (km/s) = 3.76159 3.93334 3.84842
# Velocity P-wave (km/s) = 6.84797 7.18115 7.01654
#
# Compressibility (1/GPa) = 0.01738732
#
# Stress axis : x y z
#
# Youngs Moduli (GPa) = 87.30183 92.74741 55.21089
#
# Poissons Ratio (x) = 0.32590 0.33321
# Poissons Ratio (y) = 0.30677 0.10665
# Poissons Ratio (z) = 0.52689 0.17916
#
# Static dielectric constant tensor:
#      x y z
#    x 3.912920 0.000000 0.000000 
#    y 0.000000 3.802020 0.000000 
#    z 0.000000 0.000000 3.622040 
# 
# 
# High freq. dielectric constant tensor:
#      x y z
#    x 1.821400 0.000000 0.000000 
#    y 0.000000 1.805230 0.000000 
#    z 0.000000 0.000000 1.785400 
# 
# From -- ./inp_files/7578.got.cif
#   From: 2010.06.25/outbox.cif.g09.slc.cpg/sg43_4_cif.got.tgz:7578.got - 2010.06.26 16:48:59.
