data_PCOD8187918
_publ_section_title
;
Structure prediction by ZEFSAII (Michael W. Deem and Ramdas Pophale) SiO2 
 PCOD8187918
Probable space group: I M M 2
;
_chemical_formula_sum "Si O2"
_cell_formula_units_Z 56
_cell_length_a 19.387157
_cell_length_b 21.248819
_cell_length_c 8.105309
_cell_angle_alpha 90.000000
_cell_angle_beta 90.000000
_cell_angle_gamma 90.000000
_cell_volume 3339.016004
_symmetry_space_group_name_H-M "I M M 2"
_symmetry_group_IT_number 44
_symmetry_cell_setting 'orthorhombic'
loop_
_space_group_symop_operation_xyz
x,y,z
-x,-y,z
-x,y,z
x,-y,z
1/2+x,1/2+y,1/2+z
1/2-x,1/2-y,1/2+z
1/2-x,1/2+y,1/2+z
1/2+x,1/2-y,1/2+z
loop_
_atom_site_type_symbol
_atom_site_label
_atom_site_fract_x
_atom_site_fract_y
_atom_site_fract_z
Si Si1 0.842533 0.803475 0.913050
Si Si2 0.923103 0.572710 0.792258
Si Si3 0.305429 0.158605 0.419204
Si Si4 0.424086 0.155665 0.981991
Si Si5 0.832996 0.182504 0.274454
Si Si6 0.797546 0.327370 0.281576
Si Si7 0.420036 0.703646 0.084340
O O1 0.836433 0.728304 0.904841
O O2 0.768523 0.837778 0.897110
O O3 0.891512 0.822661 0.759573
O O4 0.868475 0.829058 0.093500
O O5 0.902527 0.500000 0.787910
O O6 0.866578 0.609398 0.896185
O O7 0.923281 0.598416 0.607425
O O8 0.000000 0.582247 0.868977
O O9 0.239933 0.145555 0.298782
O O10 0.277597 0.146744 0.602966
O O11 0.500000 0.161314 0.897980
O O12 0.406320 0.221279 0.074729
O O13 0.366175 0.138431 0.848185
O O14 0.812278 0.254300 0.275126
O O15 0.884805 0.168832 0.426732
O O16 0.500000 0.686761 0.077259
#
# Coordination Sequence:
#
# PCOD8187918 Si02
#       7
#     8   8   8   8   8   8   8
#     4  10  17  27  45  68  92 121 155 186 229 283
#     4  10  20  32  45  62  87 124 168 208 242 269
#     4  10  17  29  46  63  88 118 156 199 236 275
#     4   9  17  30  44  60  86 120 157 197 235 273
#     4   9  18  28  44  69  93 120 153 187 228 285
#     4   9  17  27  45  68  87 113 155 194 232 283
#     4  10  18  29  43  66  98 124 151 185 226 279
#
# _framework density 16.771408999999998
#
# number of rings (size 3 to 8) (size 9 to 14) (size 15 to 20)
#    0.000    2.429    2.857    0.857    4.000    1.143 
#    0.000    3.571    0.000    1.714    0.000    0.000 
#    0.000    0.571    0.000    0.571    0.000    1.571 
#
# Total GULP energy -346902.471760 kJ/mol
# GULP energy per Si atom -12389.373991 kJ/mol
# Density = 1.673324 g / cm^3
# Si number density = 16.771409 Si / 1000 Ang^3
#
#
#
# Elastic Constant Matrix: (Units=GPa)
#
#
# Indices 1 2 3 4 5 6 
#
# 1 107.2322 28.7744 53.8421 0.0000 0.0000 0.0000
# 2 28.7744 32.7785 7.7707 0.0000 0.0000 0.0000
# 3 53.8421 7.7707 123.2838 0.0000 0.0000 0.0000
# 4 0.0000 0.0000 0.0000 8.1636 0.0000 0.0000
# 5 0.0000 0.0000 0.0000 0.0000 30.2243 0.0000
# 6 0.0000 0.0000 0.0000 0.0000 0.0000 16.3781
#
#
#
# Elastic Compliance Matrix: (Units=1/GPa)
#
#
# Indices 1 2 3 4 5 6 
#
# 1 0.015682 -0.012327 -0.006072 0.000000 0.000000 0.000000
# 2 -0.012327 0.040660 0.002821 0.000000 0.000000 0.000000
# 3 -0.006072 0.002821 0.010585 0.000000 0.000000 0.000000
# 4 0.000000 0.000000 0.000000 0.122495 0.000000 0.000000
# 5 0.000000 0.000000 0.000000 0.000000 0.033086 0.000000
# 6 0.000000 0.000000 0.000000 0.000000 0.000000 0.061057
#
#
# Mechanical properties :
#
#
# Convention : Reuss Voigt Hill
#
# Bulk Modulus (GPa) = 27.95529 49.34100 38.64814
# Shear Modulus (GPa) = 15.30709 22.48034 18.89372
#
# Velocity S-wave (km/s) = 3.02435 3.66511 3.36004
# Velocity P-wave (km/s) = 5.37589 6.88435 6.17635
#
# Compressibility (1/GPa) = 0.03577141
#
# Stress axis : x y z
#
# Youngs Moduli (GPa) = 63.76698 24.59404 94.47002
#
# Poissons Ratio (x) = 0.30317 0.57361
# Poissons Ratio (y) = 0.78605 -0.26647
# Poissons Ratio (z) = 0.38719 -0.06937
#
# Static dielectric constant tensor:
#      x y z
#    x 3.396280 0.000000 0.000000 
#    y 0.000000 2.563040 0.000000 
#    z 0.000000 0.000000 3.412610 
# 
# 
# High freq. dielectric constant tensor:
#      x y z
#    x 1.653410 0.000000 0.000000 
#    y 0.000000 1.564840 0.000000 
#    z 0.000000 0.000000 1.655120 
# 
# From -- ./inp_files/8399.got.cif
#   From: 2010.03.12/outbox.cif.g09.slc.cpg/sg44_5_cif.got.tgz:8399.got - 2010.04.14 02:36:11.
