data_PCOD8187846
_publ_section_title
;
Structure prediction by ZEFSAII (Michael W. Deem and Ramdas Pophale) SiO2 
 PCOD8187846
Probable space group: F D D 2
;
_chemical_formula_sum "Si O2"
_cell_formula_units_Z 88
_cell_length_a 22.243551
_cell_length_b 26.497247
_cell_length_c 6.341590
_cell_angle_alpha 90.000000
_cell_angle_beta 90.000000
_cell_angle_gamma 90.000000
_cell_volume 3737.687899
_symmetry_space_group_name_H-M "F D D 2"
_symmetry_group_IT_number 43
_symmetry_cell_setting 'orthorhombic'
loop_
_space_group_symop_operation_xyz
x,y,z
-x,-y,z
1/4-x,1/4+y,1/4+z
1/4+x,1/4-y,1/4+z
x,1/2+y,1/2+z
-x,1/2-y,1/2+z
1/4-x,3/4+y,3/4+z
1/4+x,3/4-y,3/4+z
1/2+x,y,1/2+z
1/2-x,-y,1/2+z
3/4-x,1/4+y,3/4+z
3/4+x,1/4-y,3/4+z
1/2+x,1/2+y,z
1/2-x,1/2-y,z
3/4-x,3/4+y,1/4+z
3/4+x,3/4-y,1/4+z
loop_
_atom_site_type_symbol
_atom_site_label
_atom_site_fract_x
_atom_site_fract_y
_atom_site_fract_z
Si Si1 0.306291 0.313354 0.482790
Si Si2 0.534885 0.083619 0.372755
Si Si3 0.899647 0.167299 0.396303
Si Si4 0.000000 0.000000 0.581683
Si Si5 0.658172 0.504450 0.302567
Si Si6 0.491629 0.688609 0.725077
O O1 0.244959 0.316318 0.343887
O O2 0.335309 0.367615 0.512263
O O3 0.289873 0.289680 0.705716
O O4 0.358376 0.274012 0.403585
O O5 0.605897 0.097117 0.347684
O O6 0.496017 0.130103 0.289644
O O7 0.540197 0.034701 0.228092
O O8 0.876367 0.206386 0.215680
O O9 0.959425 0.190602 0.498188
O O10 0.693017 0.462930 0.443665
O O11 0.705185 0.532547 0.154277
#
# Coordination Sequence:
#
# PCOD8187846 Si02
#       6
#    16  16  16   8  16  16
#     4  12  27  47  76 109 154 210 251 323 392 453
#     4  12  27  47  74 112 149 203 264 319 390 464
#     4  12  26  48  74 109 155 201 258 321 383 459
#     4  12  26  46  68 110 154 192 254 318 386 442
#     4  12  26  48  76 110 153 203 261 316 388 464
#     4  12  26  47  75 109 150 206 258 318 386 468
#
# _framework density 23.543969000000001
#
# number of rings (size 3 to 8) (size 9 to 14) (size 15 to 20)
#    0.000    0.000    9.091    0.545    5.091    0.000 
#    6.545    0.000    0.000    0.000    0.000    0.000 
#    0.000    0.000    0.000    0.000    0.000    0.000 
#
# Total GULP energy -272566.734311 kJ/mol
# GULP energy per Si atom -12389.397014 kJ/mol
# Density = 2.349038 g / cm^3
# Si number density = 23.543969 Si / 1000 Ang^3
#
#
#
# Elastic Constant Matrix: (Units=GPa)
#
#
# Indices 1 2 3 4 5 6 
#
# 1 104.3316 32.9910 35.0780 0.0295 -0.1654 -0.0353
# 2 32.9910 126.0461 50.2510 -0.0738 -0.2728 0.0299
# 3 35.0780 50.2510 82.5579 -0.0379 -0.3458 -0.0490
# 4 0.0295 -0.0738 -0.0379 37.5527 -0.1889 0.0638
# 5 -0.1654 -0.2728 -0.3458 -0.1889 20.0675 0.1747
# 6 -0.0353 0.0299 -0.0490 0.0638 0.1747 39.6900
#
#
#
# Elastic Compliance Matrix: (Units=1/GPa)
#
#
# Indices 1 2 3 4 5 6 
#
# 1 0.011363 -0.001386 -0.003985 -0.000016 0.000006 0.000006
# 2 -0.001386 0.010645 -0.005890 0.000016 0.000032 -0.000017
# 3 -0.003985 -0.005890 0.017392 0.000010 0.000187 0.000022
# 4 -0.000016 0.000016 0.000010 0.026631 0.000251 -0.000044
# 5 0.000006 0.000032 0.000187 0.000251 0.049840 -0.000220
# 6 0.000006 -0.000017 0.000022 -0.000044 -0.000220 0.025196
#
#
# Mechanical properties :
#
#
# Convention : Reuss Voigt Hill
#
# Bulk Modulus (GPa) = 59.24745 61.06395 60.15570
# Shear Modulus (GPa) = 29.54865 32.43643 30.99254
#
# Velocity S-wave (km/s) = 3.54650 3.71576 3.63212
# Velocity P-wave (km/s) = 6.47993 6.66345 6.57233
#
# Compressibility (1/GPa) = 0.01687836
#
# Stress axis : x y z
#
# Youngs Moduli (GPa) = 88.00786 93.94416 57.49846
#
# Poissons Ratio (x) = 0.13016 0.22910
# Poissons Ratio (y) = 0.12194 0.33868
# Poissons Ratio (z) = 0.35067 0.55336
#
# Static dielectric constant tensor:
#      x y z
#    x 4.438750 -0.000030 0.000670 
#    y -0.000030 4.485060 -0.000490 
#    z 0.000670 -0.000490 3.919900 
# 
# 
# High freq. dielectric constant tensor:
#      x y z
#    x 1.938310 0.000010 0.000020 
#    y 0.000010 1.958220 -0.000020 
#    z 0.000020 -0.000020 1.911620 
# 
# From -- ./inp_files/1044.got.cif
#   From: 2010.06.25/outbox.cif.g09.slc.cpg/sg43_1_cif.got.tgz:1044.got - 2010.06.26 16:48:59.
