data_PCOD8187074
_publ_section_title
;
Structure prediction by ZEFSAII (Michael W. Deem and Ramdas Pophale) SiO2 
 PCOD8187074
Probable space group: F D D 2
;
_chemical_formula_sum "Si O2"
_cell_formula_units_Z 120
_cell_length_a 29.206861
_cell_length_b 8.576539
_cell_length_c 22.796464
_cell_angle_alpha 90.000000
_cell_angle_beta 90.000000
_cell_angle_gamma 90.000000
_cell_volume 5710.372493
_symmetry_space_group_name_H-M "F D D 2"
_symmetry_group_IT_number 43
_symmetry_cell_setting 'orthorhombic'
loop_
_space_group_symop_operation_xyz
x,y,z
-x,-y,z
1/4-x,1/4+y,1/4+z
1/4+x,1/4-y,1/4+z
x,1/2+y,1/2+z
-x,1/2-y,1/2+z
1/4-x,3/4+y,3/4+z
1/4+x,3/4-y,3/4+z
1/2+x,y,1/2+z
1/2-x,-y,1/2+z
3/4-x,1/4+y,3/4+z
3/4+x,1/4-y,3/4+z
1/2+x,1/2+y,z
1/2-x,1/2-y,z
3/4-x,3/4+y,1/4+z
3/4+x,3/4-y,1/4+z
loop_
_atom_site_type_symbol
_atom_site_label
_atom_site_fract_x
_atom_site_fract_y
_atom_site_fract_z
Si Si1 0.681969 0.793386 0.838110
Si Si2 0.080498 0.880156 0.324792
Si Si3 0.992032 0.165368 0.817607
Si Si4 0.750000 0.750000 0.745369
Si Si5 0.704757 0.570774 0.941504
Si Si6 0.060742 0.649959 0.908839
Si Si7 0.402020 0.471109 0.203267
Si Si8 0.278715 0.889759 0.871389
O O1 0.627808 0.783538 0.828409
O O2 0.707567 0.693809 0.787000
O O3 0.695632 0.722000 0.901163
O O4 0.701819 0.970476 0.830838
O O5 0.080194 0.991266 0.268318
O O6 0.038658 0.762774 0.316535
O O7 0.075796 0.979538 0.384717
O O8 0.970614 0.121984 0.754682
O O9 0.952532 0.252123 0.852485
O O10 0.000000 0.000000 0.849226
O O11 0.732352 0.887392 0.702899
O O12 0.658985 0.464248 0.943978
O O13 0.744672 0.458894 0.919208
O O14 0.099183 0.735618 0.946791
O O15 0.427578 0.570374 0.153916
O O16 0.250000 0.750000 0.837966
#
# Coordination Sequence:
#
# PCOD8187074 Si02
#       8
#    16  16  16   8  16  16  16  16
#     4  12  24  42  68 105 137 182 228 296 354 413
#     4  12  24  43  70  97 134 185 238 278 348 421
#     4  12  26  43  70 102 136 181 231 298 343 416
#     4  12  24  42  68  94 144 186 220 280 364 434
#     4  11  23  41  70 100 138 168 239 291 345 396
#     4  12  25  45  67  96 137 185 233 278 355 425
#     4  11  23  40  68 101 131 182 232 290 333 418
#     4  10  20  37  65  97 133 172 229 280 331 403
#
# _framework density 21.014389999999999
#
# number of rings (size 3 to 8) (size 9 to 14) (size 15 to 20)
#    0.000    0.533    8.000    0.800    1.867    0.000 
#    0.000    0.667    5.867    0.000    0.000    0.000 
#    0.000    0.000    0.000    0.000    0.000    0.000 
#
# Total GULP energy -371923.999755 kJ/mol
# GULP energy per Si atom -12397.466658 kJ/mol
# Density = 2.096656 g / cm^3
# Si number density = 21.014390 Si / 1000 Ang^3
#
#
#
# Elastic Constant Matrix: (Units=GPa)
#
#
# Indices 1 2 3 4 5 6 
#
# 1 80.7588 44.2133 23.2083 0.0000 0.0001 0.0001
# 2 44.2133 103.9753 28.1810 -0.0001 0.0001 0.0001
# 3 23.2083 28.1810 84.4161 0.0000 0.0000 0.0000
# 4 0.0000 -0.0001 0.0000 24.0210 0.0000 0.0000
# 5 0.0001 0.0001 0.0000 0.0000 25.2384 -0.0001
# 6 0.0001 0.0001 0.0000 0.0000 -0.0001 34.0868
#
#
#
# Elastic Compliance Matrix: (Units=1/GPa)
#
#
# Indices 1 2 3 4 5 6 
#
# 1 0.016579 -0.006393 -0.002424 0.000000 0.000000 0.000000
# 2 -0.006393 0.013040 -0.002595 0.000000 0.000000 0.000000
# 3 -0.002424 -0.002595 0.013379 0.000000 0.000000 0.000000
# 4 0.000000 0.000000 0.000000 0.041630 0.000000 0.000000
# 5 0.000000 0.000000 0.000000 0.000000 0.039622 0.000000
# 6 0.000000 0.000000 0.000000 0.000000 0.000000 0.029337
#
#
# Mechanical properties :
#
#
# Convention : Reuss Voigt Hill
#
# Bulk Modulus (GPa) = 49.57111 51.15062 50.36087
# Shear Modulus (GPa) = 27.30215 28.23908 27.77062
#
# Velocity S-wave (km/s) = 3.60837 3.66976 3.63919
# Velocity P-wave (km/s) = 6.40318 6.50767 6.45564
#
# Compressibility (1/GPa) = 0.02017304
#
# Stress axis : x y z
#
# Youngs Moduli (GPa) = 60.31690 76.68944 74.74445
#
# Poissons Ratio (x) = 0.49027 0.18117
# Poissons Ratio (y) = 0.38560 0.19400
# Poissons Ratio (z) = 0.14620 0.19904
#
# Static dielectric constant tensor:
#      x y z
#    x 3.895840 0.000000 0.000000 
#    y 0.000000 3.859140 0.000000 
#    z 0.000000 0.000000 3.739180 
# 
# 
# High freq. dielectric constant tensor:
#      x y z
#    x 1.832140 0.000000 0.000000 
#    y 0.000000 1.812310 0.000000 
#    z 0.000000 0.000000 1.817430 
# 
# From -- ./inp_files/22839.got.cif
#   From: 2010.06.25/outbox.cif.g09.slc.cpg/sg43_12_cif.got.tgz:22839.got - 2010.06.26 16:48:59.
