data_PCOD8187795
_publ_section_title
;
Structure prediction by ZEFSAII (Michael W. Deem and Ramdas Pophale) SiO2 
 PCOD8187795
Probable space group: F D D 2
;
_chemical_formula_sum "Si O2"
_cell_formula_units_Z 40
_cell_length_a 11.110399
_cell_length_b 11.048536
_cell_length_c 11.229971
_cell_angle_alpha 90.000000
_cell_angle_beta 90.000000
_cell_angle_gamma 90.000000
_cell_volume 1378.519855
_symmetry_space_group_name_H-M "F D D 2"
_symmetry_group_IT_number 43
_symmetry_cell_setting 'orthorhombic'
loop_
_space_group_symop_operation_xyz
x,y,z
-x,-y,z
1/4-x,1/4+y,1/4+z
1/4+x,1/4-y,1/4+z
x,1/2+y,1/2+z
-x,1/2-y,1/2+z
1/4-x,3/4+y,3/4+z
1/4+x,3/4-y,3/4+z
1/2+x,y,1/2+z
1/2-x,-y,1/2+z
3/4-x,1/4+y,3/4+z
3/4+x,1/4-y,3/4+z
1/2+x,1/2+y,z
1/2-x,1/2-y,z
3/4-x,3/4+y,1/4+z
3/4+x,3/4-y,1/4+z
loop_
_atom_site_type_symbol
_atom_site_label
_atom_site_fract_x
_atom_site_fract_y
_atom_site_fract_z
Si Si1 0.419529 0.400614 0.010240
Si Si2 0.000000 0.000000 0.593333
Si Si3 0.116611 0.726506 0.001835
O O1 0.500000 0.500000 0.935580
O O2 0.356758 0.478078 0.115033
O O3 0.325534 0.339664 0.924466
O O4 0.511873 0.302715 0.070099
O O5 0.913643 0.916679 0.512207
O O6 0.250000 0.750000 0.054654
#
# Coordination Sequence:
#
# PCOD8187795 Si02
#       3
#    16   8  16
#     4  11  28  55  85 126 175 221 291 358 420 517
#     4  12  30  56  92 120 176 232 278 362 436 496
#     4  11  29  54  88 128 173 226 289 355 429 513
#
# _framework density 29.016625999999999
#
# number of rings (size 3 to 8) (size 9 to 14) (size 15 to 20)
#    0.000    0.800    0.000    2.400   19.600    6.400 
#    0.000    0.000    0.000    0.000    0.000    0.000 
#    0.000    0.000    0.000    0.000    0.000    0.000 
#
# Total GULP energy -123972.523856 kJ/mol
# GULP energy per Si atom -12397.252386 kJ/mol
# Density = 2.895058 g / cm^3
# Si number density = 29.016626 Si / 1000 Ang^3
#
#
#
# Elastic Constant Matrix: (Units=GPa)
#
#
# Indices 1 2 3 4 5 6 
#
# 1 174.0820 96.0908 64.8011 0.0000 0.0000 0.0000
# 2 96.0908 235.3318 79.8589 0.0000 0.0000 0.0000
# 3 64.8011 79.8589 126.1043 0.0000 0.0000 0.0000
# 4 0.0000 0.0000 0.0000 56.4868 0.0000 0.0000
# 5 0.0000 0.0000 0.0000 0.0000 -19.1167 0.0000
# 6 0.0000 0.0000 0.0000 0.0000 0.0000 86.7433
#
#
#
# Elastic Compliance Matrix: (Units=1/GPa)
#
#
# Indices 1 2 3 4 5 6 
#
# 1 0.008040 -0.002396 -0.002614 0.000000 0.000000 0.000000
# 2 -0.002396 0.006126 -0.002649 0.000000 0.000000 0.000000
# 3 -0.002614 -0.002649 0.010951 0.000000 0.000000 0.000000
# 4 0.000000 0.000000 0.000000 0.017703 0.000000 0.000000
# 5 0.000000 0.000000 0.000000 0.000000 -0.052310 0.000000
# 6 0.000000 0.000000 0.000000 0.000000 0.000000 0.011528
#
#
# Mechanical properties :
#
#
# Convention : Reuss Voigt Hill
#
# Bulk Modulus (GPa) = 102.04405 113.00219 107.52312
# Shear Modulus (GPa) = 242.45926 44.47385 143.46655
#
# Velocity S-wave (km/s) = 9.15096 3.91922 7.03919
# Velocity P-wave (km/s) = 12.12012 7.71420 10.15889
#
# Compressibility (1/GPa) = 0.00979969
#
# Stress axis : x y z
#
# Youngs Moduli (GPa) = 124.37806 163.23004 91.31874
#
# Poissons Ratio (x) = 0.39105 0.23874
# Poissons Ratio (y) = 0.29798 0.24186
# Poissons Ratio (z) = 0.32517 0.43233
#
# Static dielectric constant tensor:
#      x y z
#    x 5.800200 0.000000 0.000000 
#    y 0.000000 6.557900 0.000000 
#    z 0.000000 0.000000 4.738280 
# 
# 
# High freq. dielectric constant tensor:
#      x y z
#    x 2.193030 0.000000 0.000000 
#    y 0.000000 2.213150 0.000000 
#    z 0.000000 0.000000 2.154670 
# 
# From -- ./inp_files/5811.got.cif
#   From: 2010.06.25/outbox.cif.g09.slc.cpg/sg43_3_cif.got.tgz:5811.got - 2010.06.26 16:48:59.
