data_PCOD8187719
_publ_section_title
;
Structure prediction by ZEFSAII (Michael W. Deem and Ramdas Pophale) SiO2 
 PCOD8187719
Probable space group: F D D 2
;
_chemical_formula_sum "Si O2"
_cell_formula_units_Z 80
_cell_length_a 11.590362
_cell_length_b 29.100553
_cell_length_c 9.797742
_cell_angle_alpha 90.000000
_cell_angle_beta 90.000000
_cell_angle_gamma 90.000000
_cell_volume 3304.640656
_symmetry_space_group_name_H-M "F D D 2"
_symmetry_group_IT_number 43
_symmetry_cell_setting 'orthorhombic'
loop_
_space_group_symop_operation_xyz
x,y,z
-x,-y,z
1/4-x,1/4+y,1/4+z
1/4+x,1/4-y,1/4+z
x,1/2+y,1/2+z
-x,1/2-y,1/2+z
1/4-x,3/4+y,3/4+z
1/4+x,3/4-y,3/4+z
1/2+x,y,1/2+z
1/2-x,-y,1/2+z
3/4-x,1/4+y,3/4+z
3/4+x,1/4-y,3/4+z
1/2+x,1/2+y,z
1/2-x,1/2-y,z
3/4-x,3/4+y,1/4+z
3/4+x,3/4-y,1/4+z
loop_
_atom_site_type_symbol
_atom_site_label
_atom_site_fract_x
_atom_site_fract_y
_atom_site_fract_z
Si Si1 0.528437 0.947425 0.157140
Si Si2 0.646908 0.661248 0.394986
Si Si3 0.793362 0.699648 0.186695
Si Si4 0.677791 0.063605 0.975154
Si Si5 0.562089 0.708703 0.664717
O O1 0.532661 0.926728 0.311152
O O2 0.419089 0.925611 0.086105
O O3 0.500000 0.000000 0.183645
O O4 0.642865 0.941664 0.064063
O O5 0.770022 0.674550 0.329640
O O6 0.651190 0.606188 0.376046
O O7 0.550020 0.683719 0.299385
O O8 0.633942 0.681622 0.548288
O O9 0.750000 0.750000 0.214898
O O10 0.928513 0.696613 0.149923
O O11 0.665638 0.013941 0.900867
#
# Coordination Sequence:
#
# PCOD8187719 Si02
#       5
#    16  16  16  16  16
#     4   9  21  45  73  99 141 192 238 298 367 437
#     4  12  26  47  74 111 153 192 257 312 375 455
#     4  11  23  45  74 107 141 189 252 308 366 450
#     4  11  24  48  70 111 153 195 249 314 372 453
#     4  11  24  50  78 101 151 203 238 311 382 437
#
# _framework density 24.208382
#
# number of rings (size 3 to 8) (size 9 to 14) (size 15 to 20)
#    0.000    1.200    4.000    1.200    0.000    4.000 
#   10.800    0.000    0.000    0.000    0.000    0.000 
#    0.000    0.000    0.000    0.000    0.000    0.000 
#
# Total GULP energy -247761.933195 kJ/mol
# GULP energy per Si atom -12388.096660 kJ/mol
# Density = 2.415328 g / cm^3
# Si number density = 24.208382 Si / 1000 Ang^3
#
#
#
# Elastic Constant Matrix: (Units=GPa)
#
#
# Indices 1 2 3 4 5 6 
#
# 1 85.2858 37.7733 63.9659 0.0000 0.0000 0.0000
# 2 37.7733 98.9965 50.4245 0.0000 0.0000 0.0000
# 3 63.9659 50.4245 139.6859 0.0000 0.0000 0.0000
# 4 0.0000 0.0000 0.0000 41.2199 0.0000 0.0000
# 5 0.0000 0.0000 0.0000 0.0000 33.4007 0.0000
# 6 0.0000 0.0000 0.0000 0.0000 0.0000 22.8118
#
#
#
# Elastic Compliance Matrix: (Units=1/GPa)
#
#
# Indices 1 2 3 4 5 6 
#
# 1 0.018753 -0.003408 -0.007357 0.000000 0.000000 0.000000
# 2 -0.003408 0.012996 -0.003131 0.000000 0.000000 0.000000
# 3 -0.007357 -0.003131 0.011658 0.000000 0.000000 0.000000
# 4 0.000000 0.000000 0.000000 0.024260 0.000000 0.000000
# 5 0.000000 0.000000 0.000000 0.000000 0.029940 0.000000
# 6 0.000000 0.000000 0.000000 0.000000 0.000000 0.043837
#
#
# Mechanical properties :
#
#
# Convention : Reuss Voigt Hill
#
# Bulk Modulus (GPa) = 64.03975 69.81062 66.92518
# Shear Modulus (GPa) = 28.66298 30.94009 29.80154
#
# Velocity S-wave (km/s) = 3.44468 3.57889 3.51243
# Velocity P-wave (km/s) = 6.50631 6.78070 6.64492
#
# Compressibility (1/GPa) = 0.01561530
#
# Stress axis : x y z
#
# Youngs Moduli (GPa) = 53.32587 76.94400 85.77668
#
# Poissons Ratio (x) = 0.26222 0.63107
# Poissons Ratio (y) = 0.18173 0.26856
# Poissons Ratio (z) = 0.39233 0.24091
#
# Static dielectric constant tensor:
#      x y z
#    x 4.442390 0.000000 0.000000 
#    y 0.000000 4.201990 0.000000 
#    z 0.000000 0.000000 4.693890 
# 
# 
# High freq. dielectric constant tensor:
#      x y z
#    x 1.962650 0.000000 0.000000 
#    y 0.000000 1.953110 0.000000 
#    z 0.000000 0.000000 1.965070 
# 
# From -- ./inp_files/5675.got.cif
#   From: 2010.06.25/outbox.cif.g09.slc.cpg/sg43_3_cif.got.tgz:5675.got - 2010.06.26 16:48:59.
