data_PCOD8187588
_publ_section_title
;
Structure prediction by ZEFSAII (Michael W. Deem and Ramdas Pophale) SiO2 
 PCOD8187588
Probable space group: F D D 2
;
_chemical_formula_sum "Si O2"
_cell_formula_units_Z 64
_cell_length_a 18.574844
_cell_length_b 18.427375
_cell_length_c 7.978446
_cell_angle_alpha 90.000000
_cell_angle_beta 90.000000
_cell_angle_gamma 90.000000
_cell_volume 2730.907303
_symmetry_space_group_name_H-M "F D D 2"
_symmetry_group_IT_number 43
_symmetry_cell_setting 'orthorhombic'
loop_
_space_group_symop_operation_xyz
x,y,z
-x,-y,z
1/4-x,1/4+y,1/4+z
1/4+x,1/4-y,1/4+z
x,1/2+y,1/2+z
-x,1/2-y,1/2+z
1/4-x,3/4+y,3/4+z
1/4+x,3/4-y,3/4+z
1/2+x,y,1/2+z
1/2-x,-y,1/2+z
3/4-x,1/4+y,3/4+z
3/4+x,1/4-y,3/4+z
1/2+x,1/2+y,z
1/2-x,1/2-y,z
3/4-x,3/4+y,1/4+z
3/4+x,3/4-y,1/4+z
loop_
_atom_site_type_symbol
_atom_site_label
_atom_site_fract_x
_atom_site_fract_y
_atom_site_fract_z
Si Si1 0.557152 0.684776 0.490140
Si Si2 0.206530 0.186836 0.616372
Si Si3 0.075523 0.970052 0.740018
Si Si4 0.183508 0.554497 0.477250
O O1 0.511643 0.628924 0.381394
O O2 0.637615 0.654916 0.520460
O O3 0.516208 0.694991 0.665820
O O4 0.568595 0.760265 0.396989
O O5 0.250000 0.250000 0.516178
O O6 0.178072 0.225245 0.787998
O O7 0.090819 0.885426 0.780429
O O8 0.136597 0.020242 0.824781
O O9 0.000000 0.000000 0.814048
#
# Coordination Sequence:
#
# PCOD8187588 Si02
#       4
#    16  16  16  16
#     4  11  26  43  72 102 141 192 240 307 365 439
#     4  10  25  44  71 100 145 186 242 297 371 438
#     4  10  25  45  70 103 141 192 235 303 364 444
#     4  11  26  42  75  99 149 182 255 291 382 425
#
# _framework density 23.435435999999999
#
# number of rings (size 3 to 8) (size 9 to 14) (size 15 to 20)
#    0.000    1.500    0.000    1.500   31.500    1.000 
#    0.000    0.000    0.000    0.000    0.000    0.000 
#    0.000    0.000    0.000    0.000    0.000    0.000 
#
# Total GULP energy -198311.130912 kJ/mol
# GULP energy per Si atom -12394.445682 kJ/mol
# Density = 2.338210 g / cm^3
# Si number density = 23.435436 Si / 1000 Ang^3
#
#
#
# Elastic Constant Matrix: (Units=GPa)
#
#
# Indices 1 2 3 4 5 6 
#
# 1 175.5614 66.2791 8.5825 -0.0002 0.0002 0.0001
# 2 66.2791 162.3776 24.3199 -0.0001 0.0001 0.0000
# 3 8.5825 24.3199 15.2910 -0.0009 0.0008 0.0003
# 4 -0.0002 -0.0001 -0.0009 37.1692 0.0004 0.0002
# 5 0.0002 0.0001 0.0008 0.0004 33.1413 -0.0002
# 6 0.0001 0.0000 0.0003 0.0002 -0.0002 31.4562
#
#
#
# Elastic Compliance Matrix: (Units=1/GPa)
#
#
# Indices 1 2 3 4 5 6 
#
# 1 0.006741 -0.002868 0.000778 0.000000 0.000000 0.000000
# 2 -0.002868 0.009304 -0.013189 0.000000 0.000000 0.000000
# 3 0.000778 -0.013189 0.085938 0.000002 -0.000002 -0.000001
# 4 0.000000 0.000000 0.000002 0.026904 0.000000 0.000000
# 5 0.000000 0.000000 -0.000002 0.000000 0.030174 0.000000
# 6 0.000000 0.000000 -0.000001 0.000000 0.000000 0.031790
#
#
# Mechanical properties :
#
#
# Convention : Reuss Voigt Hill
#
# Bulk Modulus (GPa) = 14.00062 61.28813 37.64438
# Shear Modulus (GPa) = 20.39010 37.28988 28.83999
#
# Velocity S-wave (km/s) = 2.95287 3.99328 3.51182
# Velocity P-wave (km/s) = 4.19678 6.88988 5.70453
#
# Compressibility (1/GPa) = 0.07142539
#
# Stress axis : x y z
#
# Youngs Moduli (GPa) = 148.35247 107.47544 11.63633
#
# Poissons Ratio (x) = 0.30823 -0.00905
# Poissons Ratio (y) = 0.42546 0.15347
# Poissons Ratio (z) = -0.11541 1.41747
#
# Static dielectric constant tensor:
#      x y z
#    x 4.592760 0.000000 0.000000 
#    y 0.000000 4.419790 0.000000 
#    z 0.000000 0.000000 3.767450 
# 
# 
# High freq. dielectric constant tensor:
#      x y z
#    x 1.943160 0.000000 0.000000 
#    y 0.000000 1.942380 0.000000 
#    z 0.000000 0.000000 1.892440 
# 
# From -- ./inp_files/2605.got.cif
#   From: 2010.06.25/outbox.cif.g09.slc.cpg/sg43_2_cif.got.tgz:2605.got - 2010.06.26 16:48:59.
