data_PCOD8187810
_publ_section_title
;
Structure prediction by ZEFSAII (Michael W. Deem and Ramdas Pophale) SiO2 
 PCOD8187810
Probable space group: F D D 2
;
_chemical_formula_sum "Si O2"
_cell_formula_units_Z 88
_cell_length_a 12.688147
_cell_length_b 21.359812
_cell_length_c 14.466120
_cell_angle_alpha 90.000000
_cell_angle_beta 90.000000
_cell_angle_gamma 90.000000
_cell_volume 3920.556264
_symmetry_space_group_name_H-M "F D D 2"
_symmetry_group_IT_number 43
_symmetry_cell_setting 'orthorhombic'
loop_
_space_group_symop_operation_xyz
x,y,z
-x,-y,z
1/4-x,1/4+y,1/4+z
1/4+x,1/4-y,1/4+z
x,1/2+y,1/2+z
-x,1/2-y,1/2+z
1/4-x,3/4+y,3/4+z
1/4+x,3/4-y,3/4+z
1/2+x,y,1/2+z
1/2-x,-y,1/2+z
3/4-x,1/4+y,3/4+z
3/4+x,1/4-y,3/4+z
1/2+x,1/2+y,z
1/2-x,1/2-y,z
3/4-x,3/4+y,1/4+z
3/4+x,3/4-y,1/4+z
loop_
_atom_site_type_symbol
_atom_site_label
_atom_site_fract_x
_atom_site_fract_y
_atom_site_fract_z
Si Si1 0.714277 0.983238 0.143980
Si Si2 0.256833 0.098441 0.516832
Si Si3 0.070348 0.302181 0.581322
Si Si4 0.250000 0.250000 0.981940
Si Si5 0.163132 0.416681 0.865558
Si Si6 0.895521 0.886949 0.806369
O O1 0.762122 0.981183 0.246001
O O2 0.591833 0.995273 0.157224
O O3 0.721936 0.915278 0.098936
O O4 0.768219 0.035694 0.079150
O O5 0.259595 0.081771 0.407299
O O6 0.349443 0.146168 0.543681
O O7 0.144957 0.133698 0.529474
O O8 0.120584 0.239742 0.627053
O O9 0.272734 0.193995 0.052449
O O10 0.289461 0.404518 0.862570
O O11 0.111056 0.382787 0.953661
#
# Coordination Sequence:
#
# PCOD8187810 Si02
#       6
#    16  16  16   8  16  16
#     4  12  25  46  71 106 141 189 251 298 374 444
#     4  12  26  46  72 106 150 193 244 309 371 454
#     4  12  27  44  71 106 152 193 242 301 383 443
#     4  12  24  44  74 102 134 186 250 306 362 436
#     4  12  23  44  71 105 133 189 244 300 364 433
#     4  12  24  42  75  99 136 180 246 309 355 429
#
# _framework density 22.445795
#
# number of rings (size 3 to 8) (size 9 to 14) (size 15 to 20)
#    0.000    0.000    7.273    2.727    2.545    0.000 
#    0.000    0.000    4.000    0.000    0.000    0.000 
#    0.000    0.000    0.000    0.000    0.000    0.000 
#
# Total GULP energy -272678.897360 kJ/mol
# GULP energy per Si atom -12394.495335 kJ/mol
# Density = 2.239471 g / cm^3
# Si number density = 22.445795 Si / 1000 Ang^3
#
#
#
# Elastic Constant Matrix: (Units=GPa)
#
#
# Indices 1 2 3 4 5 6 
#
# 1 62.3260 34.6858 34.8251 0.0000 0.0000 0.0000
# 2 34.6858 163.3677 39.9459 0.0000 0.0000 0.0000
# 3 34.8251 39.9459 103.0935 0.0000 0.0000 0.0000
# 4 0.0000 0.0000 0.0000 44.1359 0.0000 0.0000
# 5 0.0000 0.0000 0.0000 0.0000 28.0632 0.0000
# 6 0.0000 0.0000 0.0000 0.0000 0.0000 41.2172
#
#
#
# Elastic Compliance Matrix: (Units=1/GPa)
#
#
# Indices 1 2 3 4 5 6 
#
# 1 0.021041 -0.003015 -0.005940 0.000000 0.000000 0.000000
# 2 -0.003015 0.007194 -0.001769 0.000000 0.000000 0.000000
# 3 -0.005940 -0.001769 0.012392 0.000000 0.000000 0.000000
# 4 0.000000 0.000000 0.000000 0.022657 0.000000 0.000000
# 5 0.000000 0.000000 0.000000 0.000000 0.035634 0.000000
# 6 0.000000 0.000000 0.000000 0.000000 0.000000 0.024262
#
#
# Mechanical properties :
#
#
# Convention : Reuss Voigt Hill
#
# Bulk Modulus (GPa) = 52.13812 60.85564 56.49688
# Shear Modulus (GPa) = 33.10816 37.30532 35.20674
#
# Velocity S-wave (km/s) = 3.84478 4.08121 3.96475
# Velocity P-wave (km/s) = 6.55657 7.02705 6.79588
#
# Compressibility (1/GPa) = 0.01917983
#
# Stress axis : x y z
#
# Youngs Moduli (GPa) = 47.52533 139.00762 80.69915
#
# Poissons Ratio (x) = 0.41913 0.47931
# Poissons Ratio (y) = 0.14330 0.14275
# Poissons Ratio (z) = 0.28228 0.24589
#
# Static dielectric constant tensor:
#      x y z
#    x 3.666210 0.000000 0.000000 
#    y 0.000000 4.757550 0.000000 
#    z 0.000000 0.000000 4.113540 
# 
# 
# High freq. dielectric constant tensor:
#      x y z
#    x 1.859090 0.000000 0.000000 
#    y 0.000000 1.917500 0.000000 
#    z 0.000000 0.000000 1.887060 
# 
# From -- ./inp_files/9584.got.cif
#   From: 2010.06.25/outbox.cif.g09.slc.cpg/sg43_5_cif.got.tgz:9584.got - 2010.06.26 16:48:59.
