data_PCOD8187887
_publ_section_title
;
Structure prediction by ZEFSAII (Michael W. Deem and Ramdas Pophale) SiO2 
 PCOD8187887
Probable space group: I M M 2
;
_chemical_formula_sum "Si O2"
_cell_formula_units_Z 64
_cell_length_a 9.181161
_cell_length_b 26.144879
_cell_length_c 18.311988
_cell_angle_alpha 90.000000
_cell_angle_beta 90.000000
_cell_angle_gamma 90.000000
_cell_volume 4395.615888
_symmetry_space_group_name_H-M "I M M 2"
_symmetry_group_IT_number 44
_symmetry_cell_setting 'orthorhombic'
loop_
_space_group_symop_operation_xyz
x,y,z
-x,-y,z
-x,y,z
x,-y,z
1/2+x,1/2+y,1/2+z
1/2-x,1/2-y,1/2+z
1/2-x,1/2+y,1/2+z
1/2+x,1/2-y,1/2+z
loop_
_atom_site_type_symbol
_atom_site_label
_atom_site_fract_x
_atom_site_fract_y
_atom_site_fract_z
Si Si1 0.170093 0.643889 0.371230
Si Si2 0.163812 0.300352 0.835268
Si Si3 0.332479 0.440734 0.456413
Si Si4 0.670041 0.759438 0.121981
Si Si5 0.673339 0.653236 0.708193
Si Si6 0.660764 0.306077 0.251146
Si Si7 0.672678 0.556084 0.619616
Si Si8 0.330486 0.246552 0.954226
O O1 0.240792 0.592040 0.399450
O O2 0.226315 0.655488 0.289049
O O3 0.213100 0.690378 0.425000
O O4 0.000000 0.635337 0.366525
O O5 0.254567 0.341448 0.788007
O O6 0.162760 0.248185 0.790864
O O7 0.241332 0.290853 0.912842
O O8 0.000000 0.320684 0.848386
O O9 0.500000 0.423685 0.450544
O O10 0.314084 0.500000 0.435543
O O11 0.270785 0.430579 0.538101
O O12 0.500000 0.775095 0.130604
O O13 0.770275 0.804896 0.151133
O O14 0.701935 0.706852 0.166968
O O15 0.712056 0.749328 0.038610
O O16 0.500000 0.658296 0.715238
O O17 0.723947 0.598113 0.677714
O O18 0.500000 0.330772 0.256269
O O19 0.500000 0.554149 0.614634
O O20 0.731756 0.500000 0.643715
O O21 0.500000 0.256724 0.940134
#
# Coordination Sequence:
#
# PCOD8187887 Si02
#       8
#     8   8   8   8   8   8   8   8
#     4  10  18  26  39  58  80 105 131 164 200 231
#     4   9  17  28  40  55  78 106 134 165 199 235
#     4   9  17  29  43  57  76 104 136 167 196 230
#     4   9  17  28  41  58  82 108 132 164 201 235
#     4  10  17  25  41  60  78 105 138 168 198 235
#     4   8  15  27  40  53  73 104 135 159 189 232
#     4   8  15  27  41  58  79 103 134 169 199 228
#     4   9  17  28  41  59  82 106 134 165 198 236
#
# _framework density 14.559962000000001
#
# number of rings (size 3 to 8) (size 9 to 14) (size 15 to 20)
#    0.000    3.000    0.000    3.375    0.000    4.250 
#    0.000    0.625    0.000    3.000    0.000    0.000 
#    0.000    1.000    0.000    8.000    0.000    3.625 
#
# Total GULP energy -396672.154245 kJ/mol
# GULP energy per Si atom -12396.004820 kJ/mol
# Density = 1.452682 g / cm^3
# Si number density = 14.559962 Si / 1000 Ang^3
#
#
#
# Elastic Constant Matrix: (Units=GPa)
#
#
# Indices 1 2 3 4 5 6 
#
# 1 71.3529 41.6667 43.9503 0.0000 0.0000 0.0000
# 2 41.6667 70.7541 47.2758 0.0000 0.0000 0.0000
# 3 43.9503 47.2758 98.9642 -0.0004 0.0000 0.0000
# 4 0.0000 0.0000 -0.0004 24.2298 0.0000 0.0000
# 5 0.0000 0.0000 0.0000 0.0000 20.7494 0.0000
# 6 0.0000 0.0000 0.0000 0.0000 0.0000 17.7470
#
#
#
# Elastic Compliance Matrix: (Units=1/GPa)
#
#
# Indices 1 2 3 4 5 6 
#
# 1 0.023275 -0.009988 -0.005565 0.000000 0.000000 0.000000
# 2 -0.009988 0.025046 -0.007529 0.000000 0.000000 0.000000
# 3 -0.005565 -0.007529 0.016173 0.000000 0.000000 0.000000
# 4 0.000000 0.000000 0.000000 0.041272 0.000000 0.000000
# 5 0.000000 0.000000 0.000000 0.000000 0.048194 0.000000
# 6 0.000000 0.000000 0.000000 0.000000 0.000000 0.056348
#
#
# Mechanical properties :
#
#
# Convention : Reuss Voigt Hill
#
# Bulk Modulus (GPa) = 54.55657 56.31743 55.43700
# Shear Modulus (GPa) = 19.04167 19.75713 19.39940
#
# Velocity S-wave (km/s) = 3.62029 3.68768 3.65414
# Velocity P-wave (km/s) = 7.41801 7.54291 7.48073
#
# Compressibility (1/GPa) = 0.01832960
#
# Stress axis : x y z
#
# Youngs Moduli (GPa) = 42.96370 39.92654 61.83228
#
# Poissons Ratio (x) = 0.39880 0.34411
# Poissons Ratio (y) = 0.42913 0.46552
# Poissons Ratio (z) = 0.23910 0.30060
#
# Static dielectric constant tensor:
#      x y z
#    x 2.830390 0.000000 0.000000 
#    y 0.000000 2.709150 0.000000 
#    z 0.000000 0.000000 2.945150 
# 
# 
# High freq. dielectric constant tensor:
#      x y z
#    x 1.557010 0.000000 0.000000 
#    y 0.000000 1.521280 0.000000 
#    z 0.000000 0.000000 1.547910 
# 
# From -- ./inp_files/20878.got.cif
#   From: 2010.03.12/outbox.cif.g09.slc.cpg/sg44_11_cif.got.tgz:20878.got - 2010.04.14 02:36:11.
