data_PCOD8187416
_publ_section_title
;
Structure prediction by ZEFSAII (Michael W. Deem and Ramdas Pophale) SiO2 
 PCOD8187416
Probable space group: F D D 2
;
_chemical_formula_sum "Si O2"
_cell_formula_units_Z 96
_cell_length_a 7.782181
_cell_length_b 25.237022
_cell_length_c 21.653258
_cell_angle_alpha 90.000000
_cell_angle_beta 90.000000
_cell_angle_gamma 90.000000
_cell_volume 4252.679801
_symmetry_space_group_name_H-M "F D D 2"
_symmetry_group_IT_number 43
_symmetry_cell_setting 'orthorhombic'
loop_
_space_group_symop_operation_xyz
x,y,z
-x,-y,z
1/4-x,1/4+y,1/4+z
1/4+x,1/4-y,1/4+z
x,1/2+y,1/2+z
-x,1/2-y,1/2+z
1/4-x,3/4+y,3/4+z
1/4+x,3/4-y,3/4+z
1/2+x,y,1/2+z
1/2-x,-y,1/2+z
3/4-x,1/4+y,3/4+z
3/4+x,1/4-y,3/4+z
1/2+x,1/2+y,z
1/2-x,1/2-y,z
3/4-x,3/4+y,1/4+z
3/4+x,3/4-y,1/4+z
loop_
_atom_site_type_symbol
_atom_site_label
_atom_site_fract_x
_atom_site_fract_y
_atom_site_fract_z
Si Si1 0.250000 0.250000 0.005461
Si Si2 0.000000 0.500000 0.534568
Si Si3 0.897463 0.288482 0.240701
Si Si4 0.714544 0.360853 0.574844
Si Si5 0.903833 0.284338 0.975401
Si Si6 0.435753 0.599562 0.118062
Si Si7 0.382890 0.576579 0.358086
O O1 0.239723 0.196022 0.045220
O O2 0.416423 0.245348 0.960835
O O3 0.163091 0.512686 0.491538
O O4 0.062949 0.452717 0.577515
O O5 0.750000 0.250000 0.271155
O O6 0.916270 0.345529 0.273270
O O7 0.834564 0.294358 0.170255
O O8 0.545059 0.358851 0.617729
O O9 0.873565 0.375970 0.618641
O O10 0.750000 0.250000 0.948186
O O11 0.884567 0.339324 0.937895
O O12 0.895352 0.288828 0.049204
O O13 0.297681 0.639091 0.088733
#
# Coordination Sequence:
#
# PCOD8187416 Si02
#       7
#     8   8  16  16  16  16  16
#     4  10  22  43  64  96 134 173 224 274 328 398
#     4  10  24  45  66  98 132 179 226 274 340 396
#     4  11  24  44  68 100 135 175 224 281 340 403
#     4  10  24  43  66  97 135 176 225 274 337 401
#     4  11  23  40  64  94 131 175 226 277 337 399
#     4  11  23  43  66  97 134 175 228 278 335 403
#     4  11  23  39  65  97 132 177 221 277 339 399
#
# _framework density 22.574003000000001
#
# number of rings (size 3 to 8) (size 9 to 14) (size 15 to 20)
#    0.000    1.333    0.833    4.500    0.000   10.667 
#    1.500    0.000    0.000    0.000    0.000    0.000 
#    0.000    0.000    0.000    0.000    0.000    0.000 
#
# Total GULP energy -297477.985005 kJ/mol
# GULP energy per Si atom -12394.916042 kJ/mol
# Density = 2.252262 g / cm^3
# Si number density = 22.574003 Si / 1000 Ang^3
#
#
#
# Elastic Constant Matrix: (Units=GPa)
#
#
# Indices 1 2 3 4 5 6 
#
# 1 194.8860 57.1147 31.4217 0.0000 0.0000 0.0000
# 2 57.1147 114.6108 25.8447 0.0000 0.0000 0.0000
# 3 31.4217 25.8447 68.0873 0.0000 0.0000 0.0000
# 4 0.0000 0.0000 0.0000 9.2160 0.0000 0.0000
# 5 0.0000 0.0000 0.0000 0.0000 0.2421 0.0000
# 6 0.0000 0.0000 0.0000 0.0000 0.0000 47.8235
#
#
#
# Elastic Compliance Matrix: (Units=1/GPa)
#
#
# Indices 1 2 3 4 5 6 
#
# 1 0.006215 -0.002680 -0.001851 0.000000 0.000000 0.000000
# 2 -0.002680 0.010697 -0.002824 0.000000 0.000000 0.000000
# 3 -0.001851 -0.002824 0.016613 0.000000 0.000000 0.000000
# 4 0.000000 0.000000 0.000000 0.108507 0.000000 0.000000
# 5 0.000000 0.000000 0.000000 0.000000 4.130079 0.000000
# 6 0.000000 0.000000 0.000000 0.000000 0.000000 0.020910
#
#
# Mechanical properties :
#
#
# Convention : Reuss Voigt Hill
#
# Bulk Modulus (GPa) = 53.14533 67.37180 60.25856
# Shear Modulus (GPa) = 1.15902 29.00318 15.08110
#
# Velocity S-wave (km/s) = 0.71732 3.58831 2.58752
# Velocity P-wave (km/s) = 4.92746 6.86131 5.97317
#
# Compressibility (1/GPa) = 0.01881633
#
# Stress axis : x y z
#
# Youngs Moduli (GPa) = 160.90134 93.48083 60.19335
#
# Poissons Ratio (x) = 0.25051 0.11142
# Poissons Ratio (y) = 0.43118 0.16998
# Poissons Ratio (z) = 0.29782 0.26398
#
# Static dielectric constant tensor:
#      x y z
#    x 4.853860 0.000000 0.000000 
#    y 0.000000 4.151240 0.000000 
#    z 0.000000 0.000000 3.619570 
# 
# 
# High freq. dielectric constant tensor:
#      x y z
#    x 1.920780 0.000000 0.000000 
#    y 0.000000 1.894720 0.000000 
#    z 0.000000 0.000000 1.866490 
# 
# From -- ./inp_files/16503.got.cif
#   From: 2010.06.25/outbox.cif.g09.slc.cpg/sg43_9_cif.got.tgz:16503.got - 2010.06.26 16:48:59.
