data_PCOD8187751
_publ_section_title
;
Structure prediction by ZEFSAII (Michael W. Deem and Ramdas Pophale) SiO2 
 PCOD8187751
Probable space group: F D D 2
;
_chemical_formula_sum "Si O2"
_cell_formula_units_Z 112
_cell_length_a 27.508360
_cell_length_b 14.686819
_cell_length_c 11.356590
_cell_angle_alpha 90.000000
_cell_angle_beta 90.000000
_cell_angle_gamma 90.000000
_cell_volume 4588.179382
_symmetry_space_group_name_H-M "F D D 2"
_symmetry_group_IT_number 43
_symmetry_cell_setting 'orthorhombic'
loop_
_space_group_symop_operation_xyz
x,y,z
-x,-y,z
1/4-x,1/4+y,1/4+z
1/4+x,1/4-y,1/4+z
x,1/2+y,1/2+z
-x,1/2-y,1/2+z
1/4-x,3/4+y,3/4+z
1/4+x,3/4-y,3/4+z
1/2+x,y,1/2+z
1/2-x,-y,1/2+z
3/4-x,1/4+y,3/4+z
3/4+x,1/4-y,3/4+z
1/2+x,1/2+y,z
1/2-x,1/2-y,z
3/4-x,3/4+y,1/4+z
3/4+x,3/4-y,1/4+z
loop_
_atom_site_type_symbol
_atom_site_label
_atom_site_fract_x
_atom_site_fract_y
_atom_site_fract_z
Si Si1 0.081928 0.274107 0.660550
Si Si2 0.250000 0.750000 0.109981
Si Si3 0.087611 0.069473 0.240356
Si Si4 0.887871 0.729331 0.268294
Si Si5 0.595786 0.086829 0.285636
Si Si6 0.226767 0.059073 0.180306
Si Si7 0.000000 0.000000 0.851535
Si Si8 0.558701 0.835752 0.894343
O O1 0.135562 0.281265 0.607091
O O2 0.077113 0.183637 0.739722
O O3 0.044215 0.275375 0.553891
O O4 0.070923 0.353909 0.755438
O O5 0.218623 0.816103 0.025064
O O6 0.217054 0.680360 0.188393
O O7 0.106046 0.171178 0.211139
O O8 0.099006 0.011111 0.124140
O O9 0.866261 0.661410 0.169905
O O10 0.939232 0.697643 0.321576
O O11 0.549082 0.018666 0.274093
O O12 0.641678 0.056909 0.207799
O O13 0.242526 0.164040 0.187569
O O14 0.273393 0.998983 0.157774
#
# Coordination Sequence:
#
# PCOD8187751 Si02
#       8
#    16   8  16  16  16  16   8  16
#     4  11  26  49  73 110 159 203 263 337 405 492
#     4  12  24  45  79 114 148 208 263 327 420 484
#     4  11  24  47  76 108 156 204 266 328 406 498
#     4  11  26  48  75 114 153 209 266 335 408 493
#     4  12  28  48  78 116 161 209 274 342 416 492
#     4  11  27  50  77 112 160 212 276 337 414 498
#     4  12  28  53  77 116 152 224 271 341 414 484
#     4  12  27  48  76 116 157 207 267 340 412 492
#
# _framework density 24.410554000000001
#
# number of rings (size 3 to 8) (size 9 to 14) (size 15 to 20)
#    0.000    0.571    4.286    2.571    8.000    2.286 
#    0.000    1.429    0.000    0.000    0.000    0.000 
#    0.000    0.000    0.000    0.000    0.000    0.000 
#
# Total GULP energy -347117.926602 kJ/mol
# GULP energy per Si atom -12397.068807 kJ/mol
# Density = 2.435499 g / cm^3
# Si number density = 24.410554 Si / 1000 Ang^3
#
#
#
# Elastic Constant Matrix: (Units=GPa)
#
#
# Indices 1 2 3 4 5 6 
#
# 1 181.1656 50.4555 75.2299 0.0000 0.0000 0.0000
# 2 50.4555 127.6041 41.1432 0.0000 0.0000 0.0000
# 3 75.2299 41.1432 134.8340 0.0000 0.0000 0.0000
# 4 0.0000 0.0000 0.0000 36.2878 0.0000 0.0000
# 5 0.0000 0.0000 0.0000 0.0000 28.1621 0.0000
# 6 0.0000 0.0000 0.0000 0.0000 0.0000 38.8326
#
#
#
# Elastic Compliance Matrix: (Units=1/GPa)
#
#
# Indices 1 2 3 4 5 6 
#
# 1 0.007540 -0.001802 -0.003657 0.000000 0.000000 0.000000
# 2 -0.001802 0.009123 -0.001778 0.000000 0.000000 0.000000
# 3 -0.003657 -0.001778 0.010000 0.000000 0.000000 0.000000
# 4 0.000000 0.000000 0.000000 0.027557 0.000000 0.000000
# 5 0.000000 0.000000 0.000000 0.000000 0.035509 0.000000
# 6 0.000000 0.000000 0.000000 0.000000 0.000000 0.025752
#
#
# Mechanical properties :
#
#
# Convention : Reuss Voigt Hill
#
# Bulk Modulus (GPa) = 82.05127 86.36232 84.20680
# Shear Modulus (GPa) = 37.30836 39.10818 38.20827
#
# Velocity S-wave (km/s) = 3.91368 4.00697 3.96060
# Velocity P-wave (km/s) = 7.35585 7.54080 7.44890
#
# Compressibility (1/GPa) = 0.01218750
#
# Stress axis : x y z
#
# Youngs Moduli (GPa) = 132.61829 109.61660 100.00410
#
# Poissons Ratio (x) = 0.19757 0.36573
# Poissons Ratio (y) = 0.23903 0.17782
# Poissons Ratio (z) = 0.48501 0.19491
#
# Static dielectric constant tensor:
#      x y z
#    x 4.775520 0.000000 0.000000 
#    y 0.000000 4.516840 0.000000 
#    z 0.000000 0.000000 4.200990 
# 
# 
# High freq. dielectric constant tensor:
#      x y z
#    x 1.992160 0.000000 0.000000 
#    y 0.000000 1.980790 0.000000 
#    z 0.000000 0.000000 1.951230 
# 
# From -- ./inp_files/8318.got.cif
#   From: 2010.06.25/outbox.cif.g09.slc.cpg/sg43_5_cif.got.tgz:8318.got - 2010.06.26 16:48:59.
