data_PCOD8187699
_publ_section_title
;
Structure prediction by ZEFSAII (Michael W. Deem and Ramdas Pophale) SiO2 
 PCOD8187699
Probable space group: F D D 2
;
_chemical_formula_sum "Si O2"
_cell_formula_units_Z 120
_cell_length_a 19.957456
_cell_length_b 16.416360
_cell_length_c 17.093223
_cell_angle_alpha 90.000000
_cell_angle_beta 90.000000
_cell_angle_gamma 90.000000
_cell_volume 5600.231838
_symmetry_space_group_name_H-M "F D D 2"
_symmetry_group_IT_number 43
_symmetry_cell_setting 'orthorhombic'
loop_
_space_group_symop_operation_xyz
x,y,z
-x,-y,z
1/4-x,1/4+y,1/4+z
1/4+x,1/4-y,1/4+z
x,1/2+y,1/2+z
-x,1/2-y,1/2+z
1/4-x,3/4+y,3/4+z
1/4+x,3/4-y,3/4+z
1/2+x,y,1/2+z
1/2-x,-y,1/2+z
3/4-x,1/4+y,3/4+z
3/4+x,1/4-y,3/4+z
1/2+x,1/2+y,z
1/2-x,1/2-y,z
3/4-x,3/4+y,1/4+z
3/4+x,3/4-y,1/4+z
loop_
_atom_site_type_symbol
_atom_site_label
_atom_site_fract_x
_atom_site_fract_y
_atom_site_fract_z
Si Si1 0.041857 0.578096 0.653750
Si Si2 0.874865 0.934791 0.556367
Si Si3 0.750000 0.750000 0.899682
Si Si4 0.450121 0.220391 0.662278
Si Si5 0.004129 0.227295 0.882643
Si Si6 0.600152 0.743614 0.503485
Si Si7 0.798795 0.910794 0.969737
Si Si8 0.302078 0.675075 0.729806
O O1 0.097898 0.556038 0.715880
O O2 0.067777 0.605775 0.568369
O O3 0.000000 0.500000 0.632543
O O4 0.995756 0.646248 0.693954
O O5 0.862424 0.979143 0.472392
O O6 0.869582 0.837738 0.542109
O O7 0.946092 0.958514 0.592193
O O8 0.816355 0.963658 0.615133
O O9 0.788179 0.813832 0.956954
O O10 0.428088 0.201453 0.574154
O O11 0.495240 0.301110 0.659718
O O12 0.968401 0.192956 0.805799
O O13 0.023311 0.149335 0.932290
O O14 0.953379 0.280050 0.936416
O O15 0.873118 0.942661 0.946099
O O16 0.250000 0.750000 0.720879
#
# Coordination Sequence:
#
# PCOD8187699 Si02
#       8
#    16  16   8  16  16  16  16  16
#     4  11  23  42  70 100 141 181 230 292 354 418
#     4  11  26  47  70 102 140 190 235 291 356 435
#     4  12  24  50  74 102 152 190 240 294 364 432
#     4  11  25  44  67 104 140 183 240 289 352 424
#     4  11  25  46  72 106 142 184 244 295 365 433
#     4  12  24  45  71 102 139 188 234 295 355 427
#     4  11  25  45  71 106 144 190 238 299 355 435
#     4  11  24  42  70 106 140 186 234 297 367 423
#
# _framework density 21.427685
#
# number of rings (size 3 to 8) (size 9 to 14) (size 15 to 20)
#    0.000    0.800    6.667    0.000    2.800    3.200 
#    3.600    0.000    0.000    0.000    0.000    0.000 
#    0.000    0.000    0.000    0.000    0.000    0.000 
#
# Total GULP energy -371876.117491 kJ/mol
# GULP energy per Si atom -12395.870583 kJ/mol
# Density = 2.137891 g / cm^3
# Si number density = 21.427685 Si / 1000 Ang^3
#
#
#
# Elastic Constant Matrix: (Units=GPa)
#
#
# Indices 1 2 3 4 5 6 
#
# 1 130.5954 48.5606 54.7906 0.0000 0.0000 0.0000
# 2 48.5606 112.7711 38.8339 0.0000 0.0000 0.0000
# 3 54.7906 38.8339 113.8426 0.0000 0.0000 0.0000
# 4 0.0000 0.0000 0.0000 32.8185 0.0000 0.0000
# 5 0.0000 0.0000 0.0000 0.0000 36.7550 0.0000
# 6 0.0000 0.0000 0.0000 0.0000 0.0000 36.3117
#
#
#
# Elastic Compliance Matrix: (Units=1/GPa)
#
#
# Indices 1 2 3 4 5 6 
#
# 1 0.010498 -0.003151 -0.003978 0.000000 0.000000 0.000000
# 2 -0.003151 0.010993 -0.002234 0.000000 0.000000 0.000000
# 3 -0.003978 -0.002234 0.011460 0.000000 0.000000 0.000000
# 4 0.000000 0.000000 0.000000 0.030471 0.000000 0.000000
# 5 0.000000 0.000000 0.000000 0.000000 0.027207 0.000000
# 6 0.000000 0.000000 0.000000 0.000000 0.000000 0.027539
#
#
# Mechanical properties :
#
#
# Convention : Reuss Voigt Hill
#
# Bulk Modulus (GPa) = 70.28648 71.28660 70.78654
# Shear Modulus (GPa) = 35.30207 35.51197 35.40702
#
# Velocity S-wave (km/s) = 4.06334 4.07540 4.06938
# Velocity P-wave (km/s) = 7.40859 7.44889 7.42877
#
# Compressibility (1/GPa) = 0.01422749
#
# Stress axis : x y z
#
# Youngs Moduli (GPa) = 95.26053 90.96339 87.25742
#
# Poissons Ratio (x) = 0.28659 0.34707
# Poissons Ratio (y) = 0.30013 0.19491
# Poissons Ratio (z) = 0.37890 0.20319
#
# Static dielectric constant tensor:
#      x y z
#    x 4.077460 0.000000 0.000000 
#    y 0.000000 3.735910 0.000000 
#    z 0.000000 0.000000 3.979290 
# 
# 
# High freq. dielectric constant tensor:
#      x y z
#    x 1.849100 0.000000 0.000000 
#    y 0.000000 1.837420 0.000000 
#    z 0.000000 0.000000 1.848940 
# 
# From -- ./inp_files/14342.got.cif
#   From: 2010.06.25/outbox.cif.g09.slc.cpg/sg43_8_cif.got.tgz:14342.got - 2010.06.26 16:48:59.
