data_PCOD8187682
_publ_section_title
;
Structure prediction by ZEFSAII (Michael W. Deem and Ramdas Pophale) SiO2 
 PCOD8187682
Probable space group: F D D 2
;
_chemical_formula_sum "Si O2"
_cell_formula_units_Z 112
_cell_length_a 25.398299
_cell_length_b 13.526317
_cell_length_c 14.043597
_cell_angle_alpha 90.000000
_cell_angle_beta 90.000000
_cell_angle_gamma 90.000000
_cell_volume 4824.613760
_symmetry_space_group_name_H-M "F D D 2"
_symmetry_group_IT_number 43
_symmetry_cell_setting 'orthorhombic'
loop_
_space_group_symop_operation_xyz
x,y,z
-x,-y,z
1/4-x,1/4+y,1/4+z
1/4+x,1/4-y,1/4+z
x,1/2+y,1/2+z
-x,1/2-y,1/2+z
1/4-x,3/4+y,3/4+z
1/4+x,3/4-y,3/4+z
1/2+x,y,1/2+z
1/2-x,-y,1/2+z
3/4-x,1/4+y,3/4+z
3/4+x,1/4-y,3/4+z
1/2+x,1/2+y,z
1/2-x,1/2-y,z
3/4-x,3/4+y,1/4+z
3/4+x,3/4-y,1/4+z
loop_
_atom_site_type_symbol
_atom_site_label
_atom_site_fract_x
_atom_site_fract_y
_atom_site_fract_z
Si Si1 0.436548 0.884067 0.707640
Si Si2 0.893520 0.516422 0.157570
Si Si3 0.933644 0.125800 0.493414
Si Si4 0.750000 0.750000 0.607169
Si Si5 0.206506 0.072611 0.015336
Si Si6 0.816926 0.916833 0.226314
Si Si7 0.500000 0.000000 0.555804
Si Si8 0.464799 0.333372 0.617194
O O1 0.427978 0.766494 0.708903
O O2 0.378741 0.928667 0.709490
O O3 0.467261 0.918925 0.614098
O O4 0.472376 0.914761 0.796569
O O5 0.837368 0.479360 0.199074
O O6 0.925252 0.575662 0.240508
O O7 0.922182 0.418828 0.117824
O O8 0.887020 0.582637 0.061865
O O9 0.983860 0.136332 0.559474
O O10 0.951374 0.048069 0.413799
O O11 0.266679 0.070706 0.976825
O O12 0.209589 0.048727 0.127548
O O13 0.793986 0.807288 0.244233
O O14 0.806635 0.984510 0.318348
#
# Coordination Sequence:
#
# PCOD8187682 Si02
#       8
#    16  16  16   8  16  16   8  16
#     4  11  25  47  70 106 147 190 244 303 369 443
#     4  11  26  44  73 105 145 188 249 292 365 430
#     4  11  23  45  72 103 143 188 241 307 354 424
#     4  11  22  46  77 104 142 198 253 306 361 434
#     4  11  25  44  74 104 145 189 236 304 359 438
#     4  12  26  45  77 102 150 193 239 301 380 432
#     4  11  26  48  71 108 146 192 251 300 365 450
#     4  11  24  49  68 104 143 188 243 303 349 435
#
# _framework density 23.214295
#
# number of rings (size 3 to 8) (size 9 to 14) (size 15 to 20)
#    0.000    0.857    2.857    3.857    6.000    3.429 
#    7.714    0.000    0.000    0.000    0.000    0.000 
#    0.000    0.000    0.000    0.000    0.000    0.000 
#
# Total GULP energy -347069.319690 kJ/mol
# GULP energy per Si atom -12395.332846 kJ/mol
# Density = 2.316146 g / cm^3
# Si number density = 23.214295 Si / 1000 Ang^3
#
#
#
# Elastic Constant Matrix: (Units=GPa)
#
#
# Indices 1 2 3 4 5 6 
#
# 1 68.1200 14.0569 24.4344 0.0000 0.0000 0.0000
# 2 14.0569 93.5350 19.2010 0.0000 0.0000 0.0000
# 3 24.4344 19.2010 83.6064 0.0000 0.0000 0.0000
# 4 0.0000 0.0000 0.0000 25.3878 0.0000 0.0000
# 5 0.0000 0.0000 0.0000 0.0000 14.9504 0.0000
# 6 0.0000 0.0000 0.0000 0.0000 0.0000 44.9949
#
#
#
# Elastic Compliance Matrix: (Units=1/GPa)
#
#
# Indices 1 2 3 4 5 6 
#
# 1 0.016617 -0.001575 -0.004495 0.000000 0.000000 0.000000
# 2 -0.001575 0.011369 -0.002151 0.000000 0.000000 0.000000
# 3 -0.004495 -0.002151 0.013768 0.000000 0.000000 0.000000
# 4 0.000000 0.000000 0.000000 0.039389 0.000000 0.000000
# 5 0.000000 0.000000 0.000000 0.000000 0.066888 0.000000
# 6 0.000000 0.000000 0.000000 0.000000 0.000000 0.022225
#
#
# Mechanical properties :
#
#
# Convention : Reuss Voigt Hill
#
# Bulk Modulus (GPa) = 39.50337 40.07178 39.78757
# Shear Modulus (GPa) = 25.62328 29.57124 27.59726
#
# Velocity S-wave (km/s) = 3.32591 3.57296 3.45164
# Velocity P-wave (km/s) = 5.63939 5.85837 5.74992
#
# Compressibility (1/GPa) = 0.02531430
#
# Stress axis : x y z
#
# Youngs Moduli (GPa) = 60.17863 87.95565 72.63004
#
# Poissons Ratio (x) = 0.13850 0.32646
# Poissons Ratio (y) = 0.09476 0.15622
# Poissons Ratio (z) = 0.27049 0.18918
#
# Static dielectric constant tensor:
#      x y z
#    x 4.210490 0.000000 0.000000 
#    y 0.000000 4.306800 0.000000 
#    z 0.000000 0.000000 4.580800 
# 
# 
# High freq. dielectric constant tensor:
#      x y z
#    x 1.910770 0.000000 0.000000 
#    y 0.000000 1.923710 0.000000 
#    z 0.000000 0.000000 1.926950 
# 
# From -- ./inp_files/11296.got.cif
#   From: 2010.06.25/outbox.cif.g09.slc.cpg/sg43_6_cif.got.tgz:11296.got - 2010.06.26 16:48:59.
