data_PCOD8187283
_publ_section_title
;
Structure prediction by ZEFSAII (Michael W. Deem and Ramdas Pophale) SiO2 
 PCOD8187283
Probable space group: F D D 2
;
_chemical_formula_sum "Si O2"
_cell_formula_units_Z 72
_cell_length_a 11.540722
_cell_length_b 17.611388
_cell_length_c 15.931629
_cell_angle_alpha 90.000000
_cell_angle_beta 90.000000
_cell_angle_gamma 90.000000
_cell_volume 3238.073849
_symmetry_space_group_name_H-M "F D D 2"
_symmetry_group_IT_number 43
_symmetry_cell_setting 'orthorhombic'
loop_
_space_group_symop_operation_xyz
x,y,z
-x,-y,z
1/4-x,1/4+y,1/4+z
1/4+x,1/4-y,1/4+z
x,1/2+y,1/2+z
-x,1/2-y,1/2+z
1/4-x,3/4+y,3/4+z
1/4+x,3/4-y,3/4+z
1/2+x,y,1/2+z
1/2-x,-y,1/2+z
3/4-x,1/4+y,3/4+z
3/4+x,1/4-y,3/4+z
1/2+x,1/2+y,z
1/2-x,1/2-y,z
3/4-x,3/4+y,1/4+z
3/4+x,3/4-y,1/4+z
loop_
_atom_site_type_symbol
_atom_site_label
_atom_site_fract_x
_atom_site_fract_y
_atom_site_fract_z
Si Si1 0.602107 0.621003 0.386030
Si Si2 0.067255 0.786743 0.854084
Si Si3 0.955591 0.840659 0.015499
Si Si4 0.133954 0.074794 0.567003
Si Si5 0.500000 0.500000 0.700982
O O1 0.635260 0.711296 0.387117
O O2 0.706642 0.574115 0.342946
O O3 0.480507 0.610363 0.336580
O O4 0.575288 0.592136 0.479010
O O5 0.142104 0.829493 0.783504
O O6 0.946521 0.758089 0.812913
O O7 0.033985 0.843586 0.931127
O O8 0.858328 0.774739 0.009232
O O9 0.038299 0.070502 0.641142
#
# Coordination Sequence:
#
# PCOD8187283 Si02
#       5
#    16  16  16  16   8
#     4  10  21  43  62  95 125 174 211 276 321 409
#     4   9  23  40  63  97 126 169 219 272 328 397
#     4  11  21  43  68  93 137 169 230 276 329 402
#     4   9  22  42  62  92 135 164 224 264 345 389
#     4  10  24  44  60 102 128 178 218 286 338 394
#
# _framework density 22.235440000000001
#
# number of rings (size 3 to 8) (size 9 to 14) (size 15 to 20)
#    1.333    0.889    0.000    2.000    0.000    5.333 
#    8.000    0.000    0.000    0.000    0.000    0.000 
#    0.000    0.000    0.000    0.000    0.000    0.000 
#
# Total GULP energy -222984.937151 kJ/mol
# GULP energy per Si atom -12388.052064 kJ/mol
# Density = 2.218483 g / cm^3
# Si number density = 22.235440 Si / 1000 Ang^3
#
#
#
# Elastic Constant Matrix: (Units=GPa)
#
#
# Indices 1 2 3 4 5 6 
#
# 1 106.0095 14.8077 43.4667 0.0000 0.0000 0.0000
# 2 14.8077 53.8598 49.9162 0.0000 0.0000 0.0000
# 3 43.4667 49.9162 109.8444 0.0000 0.0000 0.0000
# 4 0.0000 0.0000 0.0000 44.3688 0.0000 0.0000
# 5 0.0000 0.0000 0.0000 0.0000 23.9792 0.0000
# 6 0.0000 0.0000 0.0000 0.0000 0.0000 36.7586
#
#
#
# Elastic Compliance Matrix: (Units=1/GPa)
#
#
# Indices 1 2 3 4 5 6 
#
# 1 0.011360 0.001802 -0.005314 0.000000 0.000000 0.000000
# 2 0.001802 0.032361 -0.015419 0.000000 0.000000 0.000000
# 3 -0.005314 -0.015419 0.018213 0.000000 0.000000 0.000000
# 4 0.000000 0.000000 0.000000 0.022538 0.000000 0.000000
# 5 0.000000 0.000000 0.000000 0.000000 0.041703 0.000000
# 6 0.000000 0.000000 0.000000 0.000000 0.000000 0.027205
#
#
# Mechanical properties :
#
#
# Convention : Reuss Voigt Hill
#
# Bulk Modulus (GPa) = 41.54105 54.01054 47.77579
# Shear Modulus (GPa) = 25.09193 31.78952 28.44073
#
# Velocity S-wave (km/s) = 3.36291 3.78521 3.58029
# Velocity P-wave (km/s) = 5.81393 6.59142 6.21484
#
# Compressibility (1/GPa) = 0.02407258
#
# Stress axis : x y z
#
# Youngs Moduli (GPa) = 88.02488 30.90128 54.90466
#
# Poissons Ratio (x) = -0.05568 0.29178
# Poissons Ratio (y) = -0.15861 0.84656
# Poissons Ratio (z) = 0.46779 0.47646
#
# Static dielectric constant tensor:
#      x y z
#    x 4.055470 0.000000 0.000000 
#    y 0.000000 3.599000 0.000000 
#    z 0.000000 0.000000 3.716200 
# 
# 
# High freq. dielectric constant tensor:
#      x y z
#    x 1.889950 0.000000 0.000000 
#    y 0.000000 1.833910 0.000000 
#    z 0.000000 0.000000 1.861640 
# 
# From -- ./inp_files/13237.got.cif
#   From: 2010.06.25/outbox.cif.g09.slc.cpg/sg43_7_cif.got.tgz:13237.got - 2010.06.26 16:48:59.
