data_PCOD8187479
_publ_section_title
;
Structure prediction by ZEFSAII (Michael W. Deem and Ramdas Pophale) SiO2 
 PCOD8187479
Probable space group: F D D 2
;
_chemical_formula_sum "Si O2"
_cell_formula_units_Z 88
_cell_length_a 19.209809
_cell_length_b 12.717202
_cell_length_c 16.769832
_cell_angle_alpha 90.000000
_cell_angle_beta 90.000000
_cell_angle_gamma 90.000000
_cell_volume 4096.786468
_symmetry_space_group_name_H-M "F D D 2"
_symmetry_group_IT_number 43
_symmetry_cell_setting 'orthorhombic'
loop_
_space_group_symop_operation_xyz
x,y,z
-x,-y,z
1/4-x,1/4+y,1/4+z
1/4+x,1/4-y,1/4+z
x,1/2+y,1/2+z
-x,1/2-y,1/2+z
1/4-x,3/4+y,3/4+z
1/4+x,3/4-y,3/4+z
1/2+x,y,1/2+z
1/2-x,-y,1/2+z
3/4-x,1/4+y,3/4+z
3/4+x,1/4-y,3/4+z
1/2+x,1/2+y,z
1/2-x,1/2-y,z
3/4-x,3/4+y,1/4+z
3/4+x,3/4-y,1/4+z
loop_
_atom_site_type_symbol
_atom_site_label
_atom_site_fract_x
_atom_site_fract_y
_atom_site_fract_z
Si Si1 0.701537 0.651571 0.327590
Si Si2 0.079524 0.223914 0.036643
Si Si3 0.750000 0.250000 0.098965
Si Si4 0.542234 0.812796 0.743912
Si Si5 0.399544 0.228022 0.215826
Si Si6 0.178253 0.211047 0.748535
O O1 0.750000 0.750000 0.343977
O O2 0.748785 0.561428 0.287270
O O3 0.676215 0.613382 0.413697
O O4 0.637479 0.683915 0.271026
O O5 0.123053 0.139536 0.984566
O O6 0.114024 0.236546 0.124457
O O7 0.079410 0.336026 0.994492
O O8 0.817929 0.249225 0.156398
O O9 0.747951 0.147388 0.045844
O O10 0.482947 0.725508 0.727901
O O11 0.608887 0.760785 0.788311
O O12 0.250000 0.250000 0.793352
#
# Coordination Sequence:
#
# PCOD8187479 Si02
#       6
#    16  16   8  16  16  16
#     4   9  19  41  66  95 131 165 223 282 322 392
#     4  10  23  44  64  97 137 177 222 276 346 396
#     4  10  24  42  68  98 124 180 220 272 346 388
#     4  11  21  41  68  97 130 170 228 272 334 407
#     4  10  23  41  69 100 127 182 223 283 334 393
#     4  10  26  42  60  97 132 175 214 277 339 406
#
# _framework density 21.480250999999999
#
# number of rings (size 3 to 8) (size 9 to 14) (size 15 to 20)
#    0.545    1.455    0.909    1.091    2.545    6.545 
#    6.545    0.000    0.000    0.000    0.000    0.000 
#    0.000    0.000    0.000    0.000    0.000    0.000 
#
# Total GULP energy -272579.694653 kJ/mol
# GULP energy per Si atom -12389.986121 kJ/mol
# Density = 2.143136 g / cm^3
# Si number density = 21.480251 Si / 1000 Ang^3
#
#
#
# Elastic Constant Matrix: (Units=GPa)
#
#
# Indices 1 2 3 4 5 6 
#
# 1 125.5333 60.6005 43.0033 0.0000 0.0000 0.0000
# 2 60.6005 136.1548 40.9695 0.0000 0.0000 0.0000
# 3 43.0033 40.9695 73.2255 0.0000 0.0000 0.0000
# 4 0.0000 0.0000 0.0000 19.8623 0.0000 0.0000
# 5 0.0000 0.0000 0.0000 0.0000 27.1844 0.0000
# 6 0.0000 0.0000 0.0000 0.0000 0.0000 29.2164
#
#
#
# Elastic Compliance Matrix: (Units=1/GPa)
#
#
# Indices 1 2 3 4 5 6 
#
# 1 0.011301 -0.003647 -0.004596 0.000000 0.000000 0.000000
# 2 -0.003647 0.010008 -0.003458 0.000000 0.000000 0.000000
# 3 -0.004596 -0.003458 0.018290 0.000000 0.000000 0.000000
# 4 0.000000 0.000000 0.000000 0.050347 0.000000 0.000000
# 5 0.000000 0.000000 0.000000 0.000000 0.036786 0.000000
# 6 0.000000 0.000000 0.000000 0.000000 0.000000 0.034227
#
#
# Mechanical properties :
#
#
# Convention : Reuss Voigt Hill
#
# Bulk Modulus (GPa) = 61.73796 69.34000 65.53898
# Shear Modulus (GPa) = 26.34895 27.94199 27.14547
#
# Velocity S-wave (km/s) = 3.50617 3.61060 3.55877
# Velocity P-wave (km/s) = 6.72273 7.05215 6.88941
#
# Compressibility (1/GPa) = 0.01619749
#
# Stress axis : x y z
#
# Youngs Moduli (GPa) = 88.48715 99.91773 54.67331
#
# Poissons Ratio (x) = 0.36439 0.25130
# Poissons Ratio (y) = 0.32270 0.18905
# Poissons Ratio (z) = 0.40672 0.34550
#
# Static dielectric constant tensor:
#      x y z
#    x 3.985030 0.000000 0.000000 
#    y 0.000000 3.877030 0.000000 
#    z 0.000000 0.000000 3.722320 
# 
# 
# High freq. dielectric constant tensor:
#      x y z
#    x 1.844870 0.000000 0.000000 
#    y 0.000000 1.845280 0.000000 
#    z 0.000000 0.000000 1.828030 
# 
# From -- ./inp_files/14562.got.cif
#   From: 2010.06.25/outbox.cif.g09.slc.cpg/sg43_8_cif.got.tgz:14562.got - 2010.06.26 16:48:59.
