data_PCOD8187618
_publ_section_title
;
Structure prediction by ZEFSAII (Michael W. Deem and Ramdas Pophale) SiO2 
 PCOD8187618
Probable space group: F D D 2
;
_chemical_formula_sum "Si O2"
_cell_formula_units_Z 96
_cell_length_a 16.304695
_cell_length_b 15.921483
_cell_length_c 19.162796
_cell_angle_alpha 90.000000
_cell_angle_beta 90.000000
_cell_angle_gamma 90.000000
_cell_volume 4974.564576
_symmetry_space_group_name_H-M "F D D 2"
_symmetry_group_IT_number 43
_symmetry_cell_setting 'orthorhombic'
loop_
_space_group_symop_operation_xyz
x,y,z
-x,-y,z
1/4-x,1/4+y,1/4+z
1/4+x,1/4-y,1/4+z
x,1/2+y,1/2+z
-x,1/2-y,1/2+z
1/4-x,3/4+y,3/4+z
1/4+x,3/4-y,3/4+z
1/2+x,y,1/2+z
1/2-x,-y,1/2+z
3/4-x,1/4+y,3/4+z
3/4+x,1/4-y,3/4+z
1/2+x,1/2+y,z
1/2-x,1/2-y,z
3/4-x,3/4+y,1/4+z
3/4+x,3/4-y,1/4+z
loop_
_atom_site_type_symbol
_atom_site_label
_atom_site_fract_x
_atom_site_fract_y
_atom_site_fract_z
Si Si1 0.385205 0.256338 0.756380
Si Si2 0.525024 0.770615 0.618964
Si Si3 0.319380 0.186362 0.384004
Si Si4 0.186713 0.816999 0.044796
Si Si5 0.257445 0.611452 0.251848
Si Si6 0.766106 0.016762 0.107578
O O1 0.453812 0.261870 0.696064
O O2 0.341253 0.165084 0.755836
O O3 0.320118 0.329061 0.744270
O O4 0.431145 0.274831 0.830488
O O5 0.452909 0.839713 0.619958
O O6 0.604593 0.816397 0.589068
O O7 0.497593 0.692406 0.572037
O O8 0.250000 0.250000 0.354089
O O9 0.331236 0.205978 0.465431
O O10 0.407171 0.203797 0.348351
O O11 0.250000 0.750000 0.077887
O O12 0.225122 0.908242 0.051916
O O13 0.259681 0.548905 0.186416
#
# Coordination Sequence:
#
# PCOD8187618 Si02
#       6
#    16  16  16  16  16  16
#     4  11  23  40  64  92 122 160 206 255 305 365
#     4  12  22  39  63  92 123 158 204 252 309 361
#     4  11  22  38  60  92 124 159 200 253 301 361
#     4  11  20  35  61  91 121 153 199 254 302 356
#     4  11  23  40  64  92 122 160 206 255 305 365
#     4  12  22  39  63  92 123 158 204 252 309 361
#
# _framework density 19.298171
#
# number of rings (size 3 to 8) (size 9 to 14) (size 15 to 20)
#    0.000    0.667    6.667    3.000    0.000    0.000 
#    3.000    0.833    3.667    0.000    0.000    0.000 
#    0.000    0.000    0.000    0.000    0.000    0.000 
#
# Total GULP energy -297663.099697 kJ/mol
# GULP energy per Si atom -12402.629154 kJ/mol
# Density = 1.925425 g / cm^3
# Si number density = 19.298171 Si / 1000 Ang^3
#
#
#
# Elastic Constant Matrix: (Units=GPa)
#
#
# Indices 1 2 3 4 5 6 
#
# 1 110.9475 41.6675 46.0369 0.0000 0.0000 0.0000
# 2 41.6675 90.5566 40.2489 0.0000 0.0000 0.0000
# 3 46.0369 40.2489 86.9189 0.0000 0.0000 0.0000
# 4 0.0000 0.0000 0.0000 32.5968 0.0000 0.0000
# 5 0.0000 0.0000 0.0000 0.0000 30.2915 0.0000
# 6 0.0000 0.0000 0.0000 0.0000 0.0000 33.9851
#
#
#
# Elastic Compliance Matrix: (Units=1/GPa)
#
#
# Indices 1 2 3 4 5 6 
#
# 1 0.012375 -0.003502 -0.004933 0.000000 0.000000 0.000000
# 2 -0.003502 0.014895 -0.005043 0.000000 0.000000 0.000000
# 3 -0.004933 -0.005043 0.016453 0.000000 0.000000 0.000000
# 4 0.000000 0.000000 0.000000 0.030678 0.000000 0.000000
# 5 0.000000 0.000000 0.000000 0.000000 0.033013 0.000000
# 6 0.000000 0.000000 0.000000 0.000000 0.000000 0.029425
#
#
# Mechanical properties :
#
#
# Convention : Reuss Voigt Hill
#
# Bulk Modulus (GPa) = 59.63588 60.48108 60.05848
# Shear Modulus (GPa) = 29.51880 30.07264 29.79572
#
# Velocity S-wave (km/s) = 3.91527 3.95183 3.93360
# Velocity P-wave (km/s) = 7.16998 7.22710 7.19860
#
# Compressibility (1/GPa) = 0.01676843
#
# Stress axis : x y z
#
# Youngs Moduli (GPa) = 80.80596 67.13500 60.77922
#
# Poissons Ratio (x) = 0.23508 0.29983
# Poissons Ratio (y) = 0.28295 0.30650
# Poissons Ratio (z) = 0.39863 0.33855
#
# Static dielectric constant tensor:
#      x y z
#    x 3.548540 0.000000 0.000000 
#    y 0.000000 3.402570 0.000000 
#    z 0.000000 0.000000 3.442650 
# 
# 
# High freq. dielectric constant tensor:
#      x y z
#    x 1.750780 0.000000 0.000000 
#    y 0.000000 1.739500 0.000000 
#    z 0.000000 0.000000 1.748870 
# 
# From -- ./inp_files/14234.got.cif
#   From: 2010.06.25/outbox.cif.g09.slc.cpg/sg43_8_cif.got.tgz:14234.got - 2010.06.26 16:48:59.
