data_PCOD8187612
_publ_section_title
;
Structure prediction by ZEFSAII (Michael W. Deem and Ramdas Pophale) SiO2 
 PCOD8187612
Probable space group: F D D 2
;
_chemical_formula_sum "Si O2"
_cell_formula_units_Z 104
_cell_length_a 18.143658
_cell_length_b 25.006574
_cell_length_c 9.806173
_cell_angle_alpha 90.000000
_cell_angle_beta 90.000000
_cell_angle_gamma 90.000000
_cell_volume 4449.165875
_symmetry_space_group_name_H-M "F D D 2"
_symmetry_group_IT_number 43
_symmetry_cell_setting 'orthorhombic'
loop_
_space_group_symop_operation_xyz
x,y,z
-x,-y,z
1/4-x,1/4+y,1/4+z
1/4+x,1/4-y,1/4+z
x,1/2+y,1/2+z
-x,1/2-y,1/2+z
1/4-x,3/4+y,3/4+z
1/4+x,3/4-y,3/4+z
1/2+x,y,1/2+z
1/2-x,-y,1/2+z
3/4-x,1/4+y,3/4+z
3/4+x,1/4-y,3/4+z
1/2+x,1/2+y,z
1/2-x,1/2-y,z
3/4-x,3/4+y,1/4+z
3/4+x,3/4-y,1/4+z
loop_
_atom_site_type_symbol
_atom_site_label
_atom_site_fract_x
_atom_site_fract_y
_atom_site_fract_z
Si Si1 0.879017 0.671742 0.489120
Si Si2 0.976223 0.127210 0.217040
Si Si3 0.632122 0.947287 0.147988
Si Si4 0.134344 0.827580 0.690577
Si Si5 0.131428 0.713878 0.081067
Si Si6 0.500000 0.000000 0.309031
Si Si7 0.973222 0.203804 0.460820
O O1 0.946262 0.643407 0.567851
O O2 0.814008 0.628496 0.469142
O O3 0.900700 0.690349 0.335869
O O4 0.850788 0.723193 0.573367
O O5 0.945046 0.069778 0.259638
O O6 0.952992 0.173545 0.321645
O O7 0.657436 0.889435 0.199228
O O8 0.554754 0.965950 0.213889
O O9 0.698510 0.985037 0.197134
O O10 0.624467 0.946542 0.986442
O O11 0.204830 0.790853 0.654904
O O12 0.070256 0.824422 0.581372
O O13 0.058137 0.700417 0.997026
#
# Coordination Sequence:
#
# PCOD8187612 Si02
#       7
#    16  16  16  16  16   8  16
#     4  12  30  46  76 111 155 197 253 321 396 462
#     4  12  26  50  73 110 149 197 254 313 382 472
#     4  11  26  44  78 104 149 201 253 318 396 465
#     4  11  28  47  77 108 152 198 256 319 390 457
#     4  12  27  44  77 106 150 195 254 315 393 466
#     4  10  28  50  72 114 150 194 270 318 388 488
#     4  11  26  47  72 110 143 195 262 309 378 478
#
# _framework density 23.375167000000001
#
# number of rings (size 3 to 8) (size 9 to 14) (size 15 to 20)
#    0.000    0.615    4.615    0.462   12.923    1.231 
#    0.000    0.000    0.000    0.000    0.000    0.000 
#    0.000    0.000    0.000    0.000    0.000    0.000 
#
# Total GULP energy -322525.306403 kJ/mol
# GULP energy per Si atom -12404.819477 kJ/mol
# Density = 2.332196 g / cm^3
# Si number density = 23.375167 Si / 1000 Ang^3
#
#
#
# Elastic Constant Matrix: (Units=GPa)
#
#
# Indices 1 2 3 4 5 6 
#
# 1 104.2254 25.5136 41.6118 0.0000 0.0000 0.0000
# 2 25.5136 125.5546 20.1149 0.0000 0.0000 0.0000
# 3 41.6118 20.1149 143.0788 0.0000 0.0000 0.0000
# 4 0.0000 0.0000 0.0000 32.3028 0.0000 0.0000
# 5 0.0000 0.0000 0.0000 0.0000 33.9264 0.0000
# 6 0.0000 0.0000 0.0000 0.0000 0.0000 32.8289
#
#
#
# Elastic Compliance Matrix: (Units=1/GPa)
#
#
# Indices 1 2 3 4 5 6 
#
# 1 0.011239 -0.001801 -0.003016 0.000000 0.000000 0.000000
# 2 -0.001801 0.008437 -0.000662 0.000000 0.000000 0.000000
# 3 -0.003016 -0.000662 0.007959 0.000000 0.000000 0.000000
# 4 0.000000 0.000000 0.000000 0.030957 0.000000 0.000000
# 5 0.000000 0.000000 0.000000 0.000000 0.029476 0.000000
# 6 0.000000 0.000000 0.000000 0.000000 0.000000 0.030461
#
#
# Mechanical properties :
#
#
# Convention : Reuss Voigt Hill
#
# Bulk Modulus (GPa) = 59.95963 60.81550 60.38756
# Shear Modulus (GPa) = 37.02449 38.85287 37.93868
#
# Velocity S-wave (km/s) = 3.98417 4.08136 4.03306
# Velocity P-wave (km/s) = 6.84628 6.94864 6.89765
#
# Compressibility (1/GPa) = 0.01667789
#
# Stress axis : x y z
#
# Youngs Moduli (GPa) = 88.97286 118.52961 125.63913
#
# Poissons Ratio (x) = 0.21345 0.37888
# Poissons Ratio (y) = 0.16022 0.08322
# Poissons Ratio (z) = 0.26831 0.07851
#
# Static dielectric constant tensor:
#      x y z
#    x 4.099870 0.000000 0.000000 
#    y 0.000000 4.495450 0.000000 
#    z 0.000000 0.000000 4.394970 
# 
# 
# High freq. dielectric constant tensor:
#      x y z
#    x 1.926000 0.000000 0.000000 
#    y 0.000000 1.936210 0.000000 
#    z 0.000000 0.000000 1.942000 
# 
# From -- ./inp_files/3356.got.cif
#   From: 2010.06.25/outbox.cif.g09.slc.cpg/sg43_2_cif.got.tgz:3356.got - 2010.06.26 16:48:59.
