data_PCOD8187644
_publ_section_title
;
Structure prediction by ZEFSAII (Michael W. Deem and Ramdas Pophale) SiO2 
 PCOD8187644
Probable space group: F D D 2
;
_chemical_formula_sum "Si O2"
_cell_formula_units_Z 88
_cell_length_a 10.772338
_cell_length_b 25.033177
_cell_length_c 12.581680
_cell_angle_alpha 90.000000
_cell_angle_beta 90.000000
_cell_angle_gamma 90.000000
_cell_volume 3392.849354
_symmetry_space_group_name_H-M "F D D 2"
_symmetry_group_IT_number 43
_symmetry_cell_setting 'orthorhombic'
loop_
_space_group_symop_operation_xyz
x,y,z
-x,-y,z
1/4-x,1/4+y,1/4+z
1/4+x,1/4-y,1/4+z
x,1/2+y,1/2+z
-x,1/2-y,1/2+z
1/4-x,3/4+y,3/4+z
1/4+x,3/4-y,3/4+z
1/2+x,y,1/2+z
1/2-x,-y,1/2+z
3/4-x,1/4+y,3/4+z
3/4+x,1/4-y,3/4+z
1/2+x,1/2+y,z
1/2-x,1/2-y,z
3/4-x,3/4+y,1/4+z
3/4+x,3/4-y,1/4+z
loop_
_atom_site_type_symbol
_atom_site_label
_atom_site_fract_x
_atom_site_fract_y
_atom_site_fract_z
Si Si1 0.526102 0.737288 0.045640
Si Si2 0.723473 0.152490 0.247094
Si Si3 0.917240 0.570070 0.764493
Si Si4 0.857366 0.168978 0.668409
Si Si5 0.500000 0.000000 0.135522
Si Si6 0.850083 0.118329 0.879828
O O1 0.583907 0.773964 0.139348
O O2 0.501525 0.677150 0.088994
O O3 0.391751 0.760075 0.001439
O O4 0.629026 0.734864 0.953215
O O5 0.826929 0.111571 0.206909
O O6 0.628770 0.122001 0.322682
O O7 0.787482 0.200932 0.310253
O O8 0.655840 0.172176 0.141214
O O9 0.047393 0.585266 0.708735
O O10 0.911796 0.150022 0.780924
O O11 0.707633 0.167594 0.684603
#
# Coordination Sequence:
#
# PCOD8187644 Si02
#       6
#    16  16  16  16   8  16
#     4  11  23  47  73 109 139 197 253 300 378 462
#     4  11  23  44  71 100 143 196 240 308 357 458
#     4  11  26  44  68 107 153 181 250 305 386 448
#     4  11  21  44  72 105 139 187 252 297 353 455
#     4  12  22  44  80 100 134 196 256 294 370 456
#     4  12  24  45  72 104 151 190 236 319 374 436
#
# _framework density 25.936900999999999
#
# number of rings (size 3 to 8) (size 9 to 14) (size 15 to 20)
#    0.000    0.727    3.636    5.455    2.545    0.000 
#    0.000    1.818    0.000    0.000    0.000    0.000 
#    0.000    0.000    0.000    0.000    0.000    0.000 
#
# Total GULP energy -272625.688597 kJ/mol
# GULP energy per Si atom -12392.076754 kJ/mol
# Density = 2.587787 g / cm^3
# Si number density = 25.936901 Si / 1000 Ang^3
#
#
#
# Elastic Constant Matrix: (Units=GPa)
#
#
# Indices 1 2 3 4 5 6 
#
# 1 43.5973 -10.7776 17.0306 0.0000 0.0000 0.0000
# 2 -10.7776 133.9476 29.9558 0.0000 0.0000 0.0000
# 3 17.0306 29.9558 74.0743 0.0000 0.0000 0.0000
# 4 0.0000 0.0000 0.0000 38.3584 0.0000 0.0000
# 5 0.0000 0.0000 0.0000 0.0000 38.5137 0.0000
# 6 0.0000 0.0000 0.0000 0.0000 0.0000 32.1497
#
#
#
# Elastic Compliance Matrix: (Units=1/GPa)
#
#
# Indices 1 2 3 4 5 6 
#
# 1 0.026939 0.003906 -0.007773 0.000000 0.000000 0.000000
# 2 0.003906 0.008774 -0.004446 0.000000 0.000000 0.000000
# 3 -0.007773 -0.004446 0.017085 0.000000 0.000000 0.000000
# 4 0.000000 0.000000 0.000000 0.026070 0.000000 0.000000
# 5 0.000000 0.000000 0.000000 0.000000 0.025965 0.000000
# 6 0.000000 0.000000 0.000000 0.000000 0.000000 0.031104
#
#
# Mechanical properties :
#
#
# Convention : Reuss Voigt Hill
#
# Bulk Modulus (GPa) = 27.64607 36.00409 31.82508
# Shear Modulus (GPa) = 30.37251 36.16504 33.26878
#
# Velocity S-wave (km/s) = 3.42572 3.73815 3.58534
# Velocity P-wave (km/s) = 5.13123 5.70467 5.42553
#
# Compressibility (1/GPa) = 0.03617151
#
# Stress axis : x y z
#
# Youngs Moduli (GPa) = 37.12045 113.96975 58.53000
#
# Poissons Ratio (x) = -0.44516 0.45497
# Poissons Ratio (y) = -0.14499 0.26025
# Poissons Ratio (z) = 0.28855 0.50675
#
# Static dielectric constant tensor:
#      x y z
#    x 4.700630 0.000000 0.000000 
#    y 0.000000 4.842730 0.000000 
#    z 0.000000 0.000000 4.516170 
# 
# 
# High freq. dielectric constant tensor:
#      x y z
#    x 2.041950 0.000000 0.000000 
#    y 0.000000 2.041780 0.000000 
#    z 0.000000 0.000000 2.025180 
# 
# From -- ./inp_files/5733.got.cif
#   From: 2010.06.25/outbox.cif.g09.slc.cpg/sg43_3_cif.got.tgz:5733.got - 2010.06.26 16:48:59.
