data_PCOD8187544
_publ_section_title
;
Structure prediction by ZEFSAII (Michael W. Deem and Ramdas Pophale) SiO2 
 PCOD8187544
Probable space group: F D D 2
;
_chemical_formula_sum "Si O2"
_cell_formula_units_Z 104
_cell_length_a 24.969921
_cell_length_b 21.221592
_cell_length_c 9.063788
_cell_angle_alpha 90.000000
_cell_angle_beta 90.000000
_cell_angle_gamma 90.000000
_cell_volume 4802.914637
_symmetry_space_group_name_H-M "F D D 2"
_symmetry_group_IT_number 43
_symmetry_cell_setting 'orthorhombic'
loop_
_space_group_symop_operation_xyz
x,y,z
-x,-y,z
1/4-x,1/4+y,1/4+z
1/4+x,1/4-y,1/4+z
x,1/2+y,1/2+z
-x,1/2-y,1/2+z
1/4-x,3/4+y,3/4+z
1/4+x,3/4-y,3/4+z
1/2+x,y,1/2+z
1/2-x,-y,1/2+z
3/4-x,1/4+y,3/4+z
3/4+x,1/4-y,3/4+z
1/2+x,1/2+y,z
1/2-x,1/2-y,z
3/4-x,3/4+y,1/4+z
3/4+x,3/4-y,1/4+z
loop_
_atom_site_type_symbol
_atom_site_label
_atom_site_fract_x
_atom_site_fract_y
_atom_site_fract_z
Si Si1 0.941291 0.618932 0.088410
Si Si2 0.943809 0.712728 0.599992
Si Si3 0.075069 0.088116 0.907755
Si Si4 0.579975 0.033181 0.727325
Si Si5 0.750000 0.750000 0.966057
Si Si6 0.995572 0.802306 0.823384
Si Si7 0.527756 0.902801 0.773184
O O1 0.877645 0.629029 0.090727
O O2 0.964604 0.548641 0.119127
O O3 0.965461 0.668400 0.201921
O O4 0.956111 0.634310 0.920562
O O5 0.880610 0.704756 0.580617
O O6 0.953724 0.759549 0.735639
O O7 0.968923 0.645075 0.637556
O O8 0.969815 0.736535 0.444785
O O9 0.045981 0.034791 0.810069
O O10 0.034044 0.145470 0.921022
O O11 0.090229 0.056330 0.061738
O O12 0.532236 0.073069 0.797632
O O13 0.567309 0.959328 0.729433
#
# Coordination Sequence:
#
# PCOD8187544 Si02
#       7
#    16  16  16  16   8  16  16
#     4  11  24  44  68 105 139 185 238 295 376 420
#     4  12  25  45  68 102 141 182 233 294 365 420
#     4  11  23  44  71 101 138 188 238 293 364 433
#     4  11  24  44  71 101 135 189 239 285 363 428
#     4  10  24  42  72 100 144 182 242 302 352 452
#     4  11  25  43  66 103 139 182 234 294 355 439
#     4  11  25  44  71 100 140 181 238 300 347 437
#
# _framework density 21.653517999999998
#
# number of rings (size 3 to 8) (size 9 to 14) (size 15 to 20)
#    0.000    0.923    3.077    3.692    2.154    8.615 
#    0.000    0.000    0.000    0.000    0.000    0.000 
#    0.000    0.000    0.000    0.000    0.000    0.000 
#
# Total GULP energy -322334.796305 kJ/mol
# GULP energy per Si atom -12397.492166 kJ/mol
# Density = 2.160423 g / cm^3
# Si number density = 21.653518 Si / 1000 Ang^3
#
#
#
# Elastic Constant Matrix: (Units=GPa)
#
#
# Indices 1 2 3 4 5 6 
#
# 1 120.9144 33.1091 49.1971 -0.0001 0.0002 0.0000
# 2 33.1091 82.5843 38.9172 0.0009 -0.0011 -0.0004
# 3 49.1971 38.9172 121.6292 0.0029 -0.0036 -0.0014
# 4 -0.0001 0.0009 0.0029 31.6766 -0.0020 -0.0007
# 5 0.0002 -0.0011 -0.0036 -0.0020 4.2331 0.0027
# 6 0.0000 -0.0004 -0.0014 -0.0007 0.0027 29.2267
#
#
#
# Elastic Compliance Matrix: (Units=1/GPa)
#
#
# Indices 1 2 3 4 5 6 
#
# 1 0.010340 -0.002561 -0.003363 0.000000 -0.000004 0.000000
# 2 -0.002561 0.014893 -0.003730 0.000000 0.000001 0.000000
# 3 -0.003363 -0.003730 0.010775 -0.000001 0.000008 0.000000
# 4 0.000000 0.000000 -0.000001 0.031569 0.000015 0.000001
# 5 -0.000004 0.000001 0.000008 0.000015 0.236235 -0.000022
# 6 0.000000 0.000000 0.000000 0.000001 -0.000022 0.034215
#
#
# Mechanical properties :
#
#
# Convention : Reuss Voigt Hill
#
# Bulk Modulus (GPa) = 59.87360 63.06387 61.46874
# Shear Modulus (GPa) = 13.77788 26.62090 20.19939
#
# Velocity S-wave (km/s) = 2.52521 3.51009 3.05757
# Velocity P-wave (km/s) = 6.01773 6.75388 6.39640
#
# Compressibility (1/GPa) = 0.01670185
#
# Stress axis : x y z
#
# Youngs Moduli (GPa) = 96.71397 67.14606 92.80483
#
# Poissons Ratio (x) = 0.17193 0.31210
# Poissons Ratio (y) = 0.24764 0.34612
# Poissons Ratio (z) = 0.32525 0.25042
#
# Static dielectric constant tensor:
#      x y z
#    x 3.956480 0.000000 0.000000 
#    y 0.000000 3.906470 0.000000 
#    z 0.000000 0.000000 3.918640 
# 
# 
# High freq. dielectric constant tensor:
#      x y z
#    x 1.860010 0.000000 0.000000 
#    y 0.000000 1.849320 0.000000 
#    z 0.000000 0.000000 1.862410 
# 
# From -- ./inp_files/4237.got.cif
#   From: 2010.06.25/outbox.cif.g09.slc.cpg/sg43_3_cif.got.tgz:4237.got - 2010.06.26 16:48:59.
