data_PCOD8187275
_publ_section_title
;
Structure prediction by ZEFSAII (Michael W. Deem and Ramdas Pophale) SiO2 
 PCOD8187275
Probable space group: F D D 2
;
_chemical_formula_sum "Si O2"
_cell_formula_units_Z 96
_cell_length_a 18.425209
_cell_length_b 8.008472
_cell_length_c 27.947489
_cell_angle_alpha 90.000000
_cell_angle_beta 90.000000
_cell_angle_gamma 90.000000
_cell_volume 4123.869164
_symmetry_space_group_name_H-M "F D D 2"
_symmetry_group_IT_number 43
_symmetry_cell_setting 'orthorhombic'
loop_
_space_group_symop_operation_xyz
x,y,z
-x,-y,z
1/4-x,1/4+y,1/4+z
1/4+x,1/4-y,1/4+z
x,1/2+y,1/2+z
-x,1/2-y,1/2+z
1/4-x,3/4+y,3/4+z
1/4+x,3/4-y,3/4+z
1/2+x,y,1/2+z
1/2-x,-y,1/2+z
3/4-x,1/4+y,3/4+z
3/4+x,1/4-y,3/4+z
1/2+x,1/2+y,z
1/2-x,1/2-y,z
3/4-x,3/4+y,1/4+z
3/4+x,3/4-y,1/4+z
loop_
_atom_site_type_symbol
_atom_site_label
_atom_site_fract_x
_atom_site_fract_y
_atom_site_fract_z
Si Si1 0.422486 0.569896 0.806690
Si Si2 0.173206 0.669901 0.109376
Si Si3 0.438873 0.286113 0.222038
Si Si4 0.831917 0.762791 0.783337
Si Si5 0.428228 0.433117 0.906594
Si Si6 0.402554 0.659242 0.194023
O O1 0.500000 0.500000 0.790290
O O2 0.419725 0.749283 0.778476
O O3 0.357251 0.452441 0.789613
O O4 0.416628 0.573685 0.864380
O O5 0.250000 0.750000 0.094840
O O6 0.131013 0.622710 0.061074
O O7 0.192533 0.498860 0.135813
O O8 0.121790 0.794195 0.140249
O O9 0.390546 0.159468 0.190756
O O10 0.413464 0.464301 0.202998
O O11 0.522613 0.250067 0.209473
O O12 0.750000 0.750000 0.801850
O O13 0.836761 0.720587 0.727346
O O14 0.500000 0.500000 0.934693
#
# Coordination Sequence:
#
# PCOD8187275 Si02
#       6
#    16  16  16  16  16  16
#     4  10  21  42  69  98 133 185 233 287 358 427
#     4  11  25  43  73  97 143 187 230 294 363 435
#     4  11  24  41  69 100 144 186 239 298 359 436
#     4  11  25  43  71 105 137 180 241 292 360 430
#     4  10  23  40  69 100 134 181 243 290 363 426
#     4  11  25  42  68 103 140 189 239 295 365 430
#
# _framework density 23.279108999999998
#
# number of rings (size 3 to 8) (size 9 to 14) (size 15 to 20)
#    0.000    1.333    1.667    2.500    7.000    2.667 
#    0.000    0.000    3.667    0.000    0.000    0.000 
#    0.000    0.000    0.000    0.000    0.000    0.000 
#
# Total GULP energy -297457.372846 kJ/mol
# GULP energy per Si atom -12394.057202 kJ/mol
# Density = 2.322613 g / cm^3
# Si number density = 23.279109 Si / 1000 Ang^3
#
#
#
# Elastic Constant Matrix: (Units=GPa)
#
#
# Indices 1 2 3 4 5 6 
#
# 1 142.9440 28.9082 25.0256 0.0000 0.0000 -0.0001
# 2 28.9082 61.0011 16.4647 0.0000 0.0000 -0.0001
# 3 25.0256 16.4647 70.3196 0.0000 0.0000 0.0000
# 4 0.0000 0.0000 0.0000 43.3986 0.0000 0.0000
# 5 0.0000 0.0000 0.0000 0.0000 36.0128 0.0000
# 6 -0.0001 -0.0001 0.0000 0.0000 0.0000 39.9119
#
#
#
# Elastic Compliance Matrix: (Units=1/GPa)
#
#
# Indices 1 2 3 4 5 6 
#
# 1 0.008017 -0.003233 -0.002096 0.000000 0.000000 0.000000
# 2 -0.003233 0.018803 -0.003252 0.000000 0.000000 0.000000
# 3 -0.002096 -0.003252 0.015728 0.000000 0.000000 0.000000
# 4 0.000000 0.000000 0.000000 0.023042 0.000000 0.000000
# 5 0.000000 0.000000 0.000000 0.000000 0.027768 0.000000
# 6 0.000000 0.000000 0.000000 0.000000 0.000000 0.025055
#
#
# Mechanical properties :
#
#
# Convention : Reuss Voigt Hill
#
# Bulk Modulus (GPa) = 39.39250 46.11796 42.75523
# Shear Modulus (GPa) = 34.71324 37.45572 36.08448
#
# Velocity S-wave (km/s) = 3.86576 4.01557 3.94138
# Velocity P-wave (km/s) = 6.07323 6.43068 6.25450
#
# Compressibility (1/GPa) = 0.02538554
#
# Stress axis : x y z
#
# Youngs Moduli (GPa) = 124.74155 53.18263 63.58047
#
# Poissons Ratio (x) = 0.17196 0.13326
# Poissons Ratio (y) = 0.40333 0.20676
# Poissons Ratio (z) = 0.26145 0.17294
#
# Static dielectric constant tensor:
#      x y z
#    x 4.252800 0.000000 0.000000 
#    y 0.000000 4.147220 0.000000 
#    z 0.000000 0.000000 4.210020 
# 
# 
# High freq. dielectric constant tensor:
#      x y z
#    x 1.922150 0.000000 0.000000 
#    y 0.000000 1.918880 0.000000 
#    z 0.000000 0.000000 1.915180 
# 
# From -- ./inp_files/26306.got.cif
#   From: 2010.06.25/outbox.cif.g09.slc.cpg/sg43_14_cif.got.tgz:26306.got - 2010.06.26 16:48:59.
