data_PCOD8187013
_publ_section_title
;
Structure prediction by ZEFSAII (Michael W. Deem and Ramdas Pophale) SiO2 
 PCOD8187013
Probable space group: F D D 2
;
_chemical_formula_sum "Si O2"
_cell_formula_units_Z 112
_cell_length_a 26.641925
_cell_length_b 9.581714
_cell_length_c 23.806272
_cell_angle_alpha 90.000000
_cell_angle_beta 90.000000
_cell_angle_gamma 90.000000
_cell_volume 6077.153364
_symmetry_space_group_name_H-M "F D D 2"
_symmetry_group_IT_number 43
_symmetry_cell_setting 'orthorhombic'
loop_
_space_group_symop_operation_xyz
x,y,z
-x,-y,z
1/4-x,1/4+y,1/4+z
1/4+x,1/4-y,1/4+z
x,1/2+y,1/2+z
-x,1/2-y,1/2+z
1/4-x,3/4+y,3/4+z
1/4+x,3/4-y,3/4+z
1/2+x,y,1/2+z
1/2-x,-y,1/2+z
3/4-x,1/4+y,3/4+z
3/4+x,1/4-y,3/4+z
1/2+x,1/2+y,z
1/2-x,1/2-y,z
3/4-x,3/4+y,1/4+z
3/4+x,3/4-y,1/4+z
loop_
_atom_site_type_symbol
_atom_site_label
_atom_site_fract_x
_atom_site_fract_y
_atom_site_fract_z
Si Si1 0.122884 0.452097 0.061980
Si Si2 0.309414 0.237662 0.919368
Si Si3 0.358488 0.859490 0.525913
Si Si4 0.365228 0.255301 0.690556
Si Si5 0.194750 0.257955 0.213005
Si Si6 0.681214 0.000172 0.635356
Si Si7 0.955214 0.224898 0.389638
O O1 0.080891 0.465602 0.109559
O O2 0.125667 0.289810 0.048395
O O3 0.176148 0.519007 0.080352
O O4 0.108862 0.538195 0.005762
O O5 0.250000 0.250000 0.916221
O O6 0.330519 0.080371 0.930831
O O7 0.326353 0.342797 0.968871
O O8 0.407254 0.952097 0.512732
O O9 0.327877 0.939589 0.573626
O O10 0.358756 0.121052 0.650522
O O11 0.320549 0.364439 0.680378
O O12 0.250000 0.250000 0.240659
O O13 0.197057 0.371537 0.164070
O O14 0.177187 0.114808 0.184089
O O15 0.736877 0.934677 0.632601
#
# Coordination Sequence:
#
# PCOD8187013 Si02
#       7
#    16  16  16  16  16  16  16
#     4  10  19  38  60  81 120 155 197 249 294 363
#     4  10  22  37  62  91 117 161 209 241 304 370
#     4  11  20  38  61  85 119 156 202 253 294 360
#     4  10  22  39  57  87 126 152 197 257 301 356
#     4  10  20  37  59  86 114 155 204 240 302 374
#     4  11  23  34  62  89 118 154 201 253 307 353
#     4  10  19  38  59  89 111 157 204 237 299 371
#
# _framework density 18.429680999999999
#
# number of rings (size 3 to 8) (size 9 to 14) (size 15 to 20)
#    0.000    1.714    5.714    0.429    4.000    3.429 
#    2.571    0.000    0.000    0.000    0.000    0.000 
#    0.000    0.000    0.000    0.000    0.000    0.000 
#
# Total GULP energy -347122.867433 kJ/mol
# GULP energy per Si atom -12397.245265 kJ/mol
# Density = 1.838773 g / cm^3
# Si number density = 18.429681 Si / 1000 Ang^3
#
#
#
# Elastic Constant Matrix: (Units=GPa)
#
#
# Indices 1 2 3 4 5 6 
#
# 1 102.8773 28.9810 44.9766 0.0000 0.0000 0.0000
# 2 28.9810 64.0525 25.8946 0.0000 0.0000 0.0000
# 3 44.9766 25.8946 113.9688 0.0000 0.0000 0.0000
# 4 0.0000 0.0000 0.0000 29.3573 0.0000 0.0000
# 5 0.0000 0.0000 0.0000 0.0000 17.8020 0.0000
# 6 0.0000 0.0000 0.0000 0.0000 0.0000 26.2199
#
#
#
# Elastic Compliance Matrix: (Units=1/GPa)
#
#
# Indices 1 2 3 4 5 6 
#
# 1 0.012646 -0.004079 -0.004064 0.000000 0.000000 0.000000
# 2 -0.004079 0.018507 -0.002595 0.000000 0.000000 0.000000
# 3 -0.004064 -0.002595 0.010968 0.000000 0.000000 0.000000
# 4 0.000000 0.000000 0.000000 0.034063 0.000000 0.000000
# 5 0.000000 0.000000 0.000000 0.000000 0.056173 0.000000
# 6 0.000000 0.000000 0.000000 0.000000 0.000000 0.038139
#
#
# Mechanical properties :
#
#
# Convention : Reuss Voigt Hill
#
# Bulk Modulus (GPa) = 48.43853 53.40033 50.91943
# Shear Modulus (GPa) = 25.14413 26.74562 25.94487
#
# Velocity S-wave (km/s) = 3.69769 3.81363 3.75611
# Velocity P-wave (km/s) = 6.67611 6.95915 6.81910
#
# Compressibility (1/GPa) = 0.02064472
#
# Stress axis : x y z
#
# Youngs Moduli (GPa) = 79.07619 54.03398 91.17636
#
# Poissons Ratio (x) = 0.22040 0.37053
# Poissons Ratio (y) = 0.32254 0.23662
# Poissons Ratio (z) = 0.32136 0.14023
#
# Static dielectric constant tensor:
#      x y z
#    x 3.542340 0.000000 0.000000 
#    y 0.000000 3.455670 0.000000 
#    z 0.000000 0.000000 3.522230 
# 
# 
# High freq. dielectric constant tensor:
#      x y z
#    x 1.710560 0.000000 0.000000 
#    y 0.000000 1.705850 0.000000 
#    z 0.000000 0.000000 1.717930 
# 
# From -- ./inp_files/18908.got.cif
#   From: 2010.06.25/outbox.cif.g09.slc.cpg/sg43_10_cif.got.tgz:18908.got - 2010.06.26 16:48:59.
