data_PCOD8187664
_publ_section_title
;
Structure prediction by ZEFSAII (Michael W. Deem and Ramdas Pophale) SiO2 
 PCOD8187664
Probable space group: F D D 2
;
_chemical_formula_sum "Si O2"
_cell_formula_units_Z 88
_cell_length_a 31.805896
_cell_length_b 18.733554
_cell_length_c 6.549575
_cell_angle_alpha 90.000000
_cell_angle_beta 90.000000
_cell_angle_gamma 90.000000
_cell_volume 3902.482199
_symmetry_space_group_name_H-M "F D D 2"
_symmetry_group_IT_number 43
_symmetry_cell_setting 'orthorhombic'
loop_
_space_group_symop_operation_xyz
x,y,z
-x,-y,z
1/4-x,1/4+y,1/4+z
1/4+x,1/4-y,1/4+z
x,1/2+y,1/2+z
-x,1/2-y,1/2+z
1/4-x,3/4+y,3/4+z
1/4+x,3/4-y,3/4+z
1/2+x,y,1/2+z
1/2-x,-y,1/2+z
3/4-x,1/4+y,3/4+z
3/4+x,1/4-y,3/4+z
1/2+x,1/2+y,z
1/2-x,1/2-y,z
3/4-x,3/4+y,1/4+z
3/4+x,3/4-y,1/4+z
loop_
_atom_site_type_symbol
_atom_site_label
_atom_site_fract_x
_atom_site_fract_y
_atom_site_fract_z
Si Si1 0.280732 0.947158 0.899380
Si Si2 0.403649 0.107694 0.395034
Si Si3 0.288382 0.860978 0.285697
Si Si4 0.781114 0.593557 0.065329
Si Si5 0.000000 0.000000 0.258675
Si Si6 0.170660 0.801449 0.781786
O O1 0.314359 0.897552 0.791073
O O2 0.236298 0.938125 0.782165
O O3 0.279994 0.927940 0.139338
O O4 0.293519 0.030504 0.907067
O O5 0.416871 0.111952 0.154803
O O6 0.360637 0.152649 0.425398
O O7 0.400619 0.024541 0.465689
O O8 0.254634 0.857755 0.465492
O O9 0.283518 0.791869 0.145388
O O10 0.821490 0.645036 0.090767
O O11 0.031766 0.047197 0.123422
#
# Coordination Sequence:
#
# PCOD8187664 Si02
#       6
#    16  16  16  16   8  16
#     4  11  22  42  69 106 137 182 232 294 359 437
#     4  11  28  46  66 100 149 183 240 306 370 426
#     4  11  22  43  71  99 139 183 240 290 359 437
#     4  11  23  41  73 104 139 182 243 292 359 439
#     4  12  22  46  78 100 138 200 248 290 362 444
#     4  12  26  48  70 105 147 190 246 307 365 447
#
# _framework density 22.549748999999998
#
# number of rings (size 3 to 8) (size 9 to 14) (size 15 to 20)
#    0.000    0.727    5.455    2.182    2.545    2.909 
#    3.273    0.000    0.000    0.000    0.000    0.000 
#    0.000    0.000    0.000    0.000    0.000    0.000 
#
# Total GULP energy -272545.967514 kJ/mol
# GULP energy per Si atom -12388.453069 kJ/mol
# Density = 2.249843 g / cm^3
# Si number density = 22.549749 Si / 1000 Ang^3
#
#
#
# Elastic Constant Matrix: (Units=GPa)
#
#
# Indices 1 2 3 4 5 6 
#
# 1 80.0695 51.5002 21.8589 -0.0003 0.0002 0.0000
# 2 51.5002 170.8472 31.5862 -0.0006 0.0000 -0.0001
# 3 21.8589 31.5862 84.1533 -0.0021 0.0001 -0.0002
# 4 -0.0003 -0.0006 -0.0021 38.1845 0.0000 -0.0001
# 5 0.0002 0.0000 0.0001 0.0000 23.1871 -0.0001
# 6 0.0000 -0.0001 -0.0002 -0.0001 -0.0001 40.6500
#
#
#
# Elastic Compliance Matrix: (Units=1/GPa)
#
#
# Indices 1 2 3 4 5 6 
#
# 1 0.015974 -0.004350 -0.002517 0.000000 0.000000 0.000000
# 2 -0.004350 0.007474 -0.001675 0.000000 0.000000 0.000000
# 3 -0.002517 -0.001675 0.013166 0.000001 0.000000 0.000000
# 4 0.000000 0.000000 0.000001 0.026189 0.000000 0.000000
# 5 0.000000 0.000000 0.000000 0.000000 0.043127 0.000000
# 6 0.000000 0.000000 0.000000 0.000000 0.000000 0.024600
#
#
# Mechanical properties :
#
#
# Convention : Reuss Voigt Hill
#
# Bulk Modulus (GPa) = 51.20355 60.55118 55.87737
# Shear Modulus (GPa) = 32.44138 35.74596 34.09367
#
# Velocity S-wave (km/s) = 3.79708 3.98578 3.89257
# Velocity P-wave (km/s) = 6.47920 6.93488 6.71090
#
# Compressibility (1/GPa) = 0.01952989
#
# Stress axis : x y z
#
# Youngs Moduli (GPa) = 62.60158 133.79370 75.95535
#
# Poissons Ratio (x) = 0.58200 0.19115
# Poissons Ratio (y) = 0.27231 0.12726
# Poissons Ratio (z) = 0.15754 0.22417
#
# Static dielectric constant tensor:
#      x y z
#    x 3.850320 0.000000 0.000000 
#    y 0.000000 4.263350 0.000000 
#    z 0.000000 0.000000 4.233020 
# 
# 
# High freq. dielectric constant tensor:
#      x y z
#    x 1.861140 0.000000 0.000000 
#    y 0.000000 1.911180 0.000000 
#    z 0.000000 0.000000 1.886730 
# 
# From -- ./inp_files/1398.got.cif
#   From: 2010.06.25/outbox.cif.g09.slc.cpg/sg43_1_cif.got.tgz:1398.got - 2010.06.26 16:48:59.
