data_PCOD8187514
_publ_section_title
;
Structure prediction by ZEFSAII (Michael W. Deem and Ramdas Pophale) SiO2 
 PCOD8187514
Probable space group: F D D 2
;
_chemical_formula_sum "Si O2"
_cell_formula_units_Z 104
_cell_length_a 18.723542
_cell_length_b 26.575907
_cell_length_c 8.927170
_cell_angle_alpha 90.000000
_cell_angle_beta 90.000000
_cell_angle_gamma 90.000000
_cell_volume 4442.116146
_symmetry_space_group_name_H-M "F D D 2"
_symmetry_group_IT_number 43
_symmetry_cell_setting 'orthorhombic'
loop_
_space_group_symop_operation_xyz
x,y,z
-x,-y,z
1/4-x,1/4+y,1/4+z
1/4+x,1/4-y,1/4+z
x,1/2+y,1/2+z
-x,1/2-y,1/2+z
1/4-x,3/4+y,3/4+z
1/4+x,3/4-y,3/4+z
1/2+x,y,1/2+z
1/2-x,-y,1/2+z
3/4-x,1/4+y,3/4+z
3/4+x,1/4-y,3/4+z
1/2+x,1/2+y,z
1/2-x,1/2-y,z
3/4-x,3/4+y,1/4+z
3/4+x,3/4-y,1/4+z
loop_
_atom_site_type_symbol
_atom_site_label
_atom_site_fract_x
_atom_site_fract_y
_atom_site_fract_z
Si Si1 0.259516 0.164477 0.627150
Si Si2 0.636183 0.297830 0.552757
Si Si3 0.000000 0.000000 0.610961
Si Si4 0.142735 0.388688 0.842497
Si Si5 0.734778 0.477997 0.419277
Si Si6 0.412241 0.407041 0.099534
Si Si7 0.484790 0.179356 0.480307
O O1 0.236249 0.202832 0.754890
O O2 0.191185 0.135278 0.564076
O O3 0.316636 0.125439 0.691461
O O4 0.295367 0.186860 0.479090
O O5 0.678707 0.254420 0.462753
O O6 0.658737 0.350727 0.478305
O O7 0.551699 0.287892 0.562892
O O8 0.663052 0.300784 0.722203
O O9 0.165886 0.444838 0.881551
O O10 0.746234 0.468920 0.596530
O O11 0.715045 0.535781 0.375900
O O12 0.331809 0.396177 0.165083
O O13 0.449787 0.355972 0.036973
#
# Coordination Sequence:
#
# PCOD8187514 Si02
#       7
#    16  16   8  16  16  16  16
#     4  11  25  42  71 100 143 181 240 297 365 431
#     4  10  23  46  70 102 139 190 241 293 364 438
#     4  10  26  42  70 100 140 188 236 302 356 440
#     4  11  22  44  70 100 139 189 232 292 364 435
#     4  11  25  44  74 106 141 189 247 296 359 439
#     4  11  25  48  69 107 143 192 239 306 374 435
#     4  11  27  46  77 103 149 190 248 301 370 443
#
# _framework density 23.412265999999999
#
# number of rings (size 3 to 8) (size 9 to 14) (size 15 to 20)
#    0.000    1.231    3.077    0.923    6.462    3.077 
#    2.769    0.000    0.000    0.000    0.000    0.000 
#    0.000    0.000    0.000    0.000    0.000    0.000 
#
# Total GULP energy -322154.939388 kJ/mol
# GULP energy per Si atom -12390.574592 kJ/mol
# Density = 2.335898 g / cm^3
# Si number density = 23.412266 Si / 1000 Ang^3
#
#
#
# Elastic Constant Matrix: (Units=GPa)
#
#
# Indices 1 2 3 4 5 6 
#
# 1 144.5579 38.1304 75.6109 0.0001 -0.0001 0.0000
# 2 38.1304 80.9882 37.3471 0.0000 0.0001 0.0000
# 3 75.6109 37.3471 103.8306 0.0003 -0.0006 0.0000
# 4 0.0001 0.0000 0.0003 24.5907 -0.0001 0.0000
# 5 -0.0001 0.0001 -0.0006 -0.0001 41.2691 0.0000
# 6 0.0000 0.0000 0.0000 0.0000 0.0000 33.7053
#
#
#
# Elastic Compliance Matrix: (Units=1/GPa)
#
#
# Indices 1 2 3 4 5 6 
#
# 1 0.011399 -0.001845 -0.007637 0.000000 0.000000 0.000000
# 2 -0.001845 0.015101 -0.004088 0.000000 0.000000 0.000000
# 3 -0.007637 -0.004088 0.016663 0.000000 0.000000 0.000000
# 4 0.000000 0.000000 0.000000 0.040666 0.000000 0.000000
# 5 0.000000 0.000000 0.000000 0.000000 0.024231 0.000000
# 6 0.000000 0.000000 0.000000 0.000000 0.000000 0.029669
#
#
# Mechanical properties :
#
#
# Convention : Reuss Voigt Hill
#
# Bulk Modulus (GPa) = 62.41248 70.17262 66.29255
# Shear Modulus (GPa) = 29.37523 31.79891 30.58707
#
# Velocity S-wave (km/s) = 3.54601 3.68940 3.61841
# Velocity P-wave (km/s) = 6.59405 6.94165 6.77008
#
# Compressibility (1/GPa) = 0.01602244
#
# Stress axis : x y z
#
# Youngs Moduli (GPa) = 87.72729 66.21894 60.01240
#
# Poissons Ratio (x) = 0.12217 0.45833
# Poissons Ratio (y) = 0.16185 0.24535
# Poissons Ratio (z) = 0.67000 0.27073
#
# Static dielectric constant tensor:
#      x y z
#    x 4.344100 0.000000 0.000000 
#    y 0.000000 3.859910 0.000000 
#    z 0.000000 0.000000 4.541490 
# 
# 
# High freq. dielectric constant tensor:
#      x y z
#    x 1.935460 0.000000 0.000000 
#    y 0.000000 1.896290 0.000000 
#    z 0.000000 0.000000 1.947790 
# 
# From -- ./inp_files/3359.got.cif
#   From: 2010.06.25/outbox.cif.g09.slc.cpg/sg43_2_cif.got.tgz:3359.got - 2010.06.26 16:48:59.
