data_PCOD8187400
_publ_section_title
;
Structure prediction by ZEFSAII (Michael W. Deem and Ramdas Pophale) SiO2 
 PCOD8187400
Probable space group: F D D 2
;
_chemical_formula_sum "Si O2"
_cell_formula_units_Z 96
_cell_length_a 19.165215
_cell_length_b 10.570504
_cell_length_c 22.854636
_cell_angle_alpha 90.000000
_cell_angle_beta 90.000000
_cell_angle_gamma 90.000000
_cell_volume 4630.028873
_symmetry_space_group_name_H-M "F D D 2"
_symmetry_group_IT_number 43
_symmetry_cell_setting 'orthorhombic'
loop_
_space_group_symop_operation_xyz
x,y,z
-x,-y,z
1/4-x,1/4+y,1/4+z
1/4+x,1/4-y,1/4+z
x,1/2+y,1/2+z
-x,1/2-y,1/2+z
1/4-x,3/4+y,3/4+z
1/4+x,3/4-y,3/4+z
1/2+x,y,1/2+z
1/2-x,-y,1/2+z
3/4-x,1/4+y,3/4+z
3/4+x,1/4-y,3/4+z
1/2+x,1/2+y,z
1/2-x,1/2-y,z
3/4-x,3/4+y,1/4+z
3/4+x,3/4-y,1/4+z
loop_
_atom_site_type_symbol
_atom_site_label
_atom_site_fract_x
_atom_site_fract_y
_atom_site_fract_z
Si Si1 0.971538 0.186937 0.776400
Si Si2 0.209159 0.870420 0.936084
Si Si3 0.007454 0.146096 0.506198
Si Si4 0.673400 0.973424 0.875183
Si Si5 0.648342 0.817298 0.985712
Si Si6 0.414442 0.281058 0.391692
O O1 0.935009 0.303830 0.743245
O O2 0.963986 0.215079 0.844517
O O3 0.055399 0.177495 0.766700
O O4 0.935307 0.064467 0.748877
O O5 0.250000 0.750000 0.960570
O O6 0.255824 0.964038 0.897747
O O7 0.146575 0.821828 0.896455
O O8 0.928579 0.196655 0.513204
O O9 0.057511 0.168453 0.561692
O O10 0.043896 0.214179 0.451925
O O11 0.000000 0.000000 0.491908
O O12 0.613079 0.080359 0.872365
O O13 0.647553 0.856869 0.916601
#
# Coordination Sequence:
#
# PCOD8187400 Si02
#       6
#    16  16  16  16  16  16
#     4  10  22  42  68  89 135 168 218 277 327 404
#     4   9  20  39  67  92 121 173 214 263 332 384
#     4  12  25  40  65  98 133 171 222 277 334 405
#     4  10  22  42  68  91 134 169 221 278 329 403
#     4  10  23  46  61 103 127 178 223 270 352 395
#     4  11  22  43  62  99 127 168 226 267 327 401
#
# _framework density 20.734211999999999
#
# number of rings (size 3 to 8) (size 9 to 14) (size 15 to 20)
#    0.000    1.667    1.667    2.000    4.667    2.000 
#    6.000    1.667    0.000    0.000    0.000    0.000 
#    0.000    0.000    0.000    0.000    0.000    0.000 
#
# Total GULP energy -297494.685020 kJ/mol
# GULP energy per Si atom -12395.611876 kJ/mol
# Density = 2.068702 g / cm^3
# Si number density = 20.734212 Si / 1000 Ang^3
#
#
#
# Elastic Constant Matrix: (Units=GPa)
#
#
# Indices 1 2 3 4 5 6 
#
# 1 86.7061 4.3632 32.4268 0.0000 0.0000 0.0000
# 2 4.3632 68.9559 44.2322 0.0000 0.0000 0.0000
# 3 32.4268 44.2322 134.5787 0.0000 0.0000 0.0000
# 4 0.0000 0.0000 0.0000 22.3164 0.0000 0.0000
# 5 0.0000 0.0000 0.0000 0.0000 24.1001 0.0000
# 6 0.0000 0.0000 0.0000 0.0000 0.0000 18.8298
#
#
#
# Elastic Compliance Matrix: (Units=1/GPa)
#
#
# Indices 1 2 3 4 5 6 
#
# 1 0.012793 0.001480 -0.003569 0.000000 0.000000 0.000000
# 2 0.001480 0.018547 -0.006453 0.000000 0.000000 0.000000
# 3 -0.003569 -0.006453 0.010411 0.000000 0.000000 0.000000
# 4 0.000000 0.000000 0.000000 0.044810 0.000000 0.000000
# 5 0.000000 0.000000 0.000000 0.000000 0.041494 0.000000
# 6 0.000000 0.000000 0.000000 0.000000 0.000000 0.053107
#
#
# Mechanical properties :
#
#
# Convention : Reuss Voigt Hill
#
# Bulk Modulus (GPa) = 40.53707 50.25391 45.39549
# Shear Modulus (GPa) = 24.21664 26.99716 25.60690
#
# Velocity S-wave (km/s) = 3.42124 3.61232 3.51808
# Velocity P-wave (km/s) = 5.93294 6.45665 6.20033
#
# Compressibility (1/GPa) = 0.02466878
#
# Stress axis : x y z
#
# Youngs Moduli (GPa) = 78.16478 53.91586 96.04926
#
# Poissons Ratio (x) = -0.07979 0.34280
# Poissons Ratio (y) = -0.11567 0.61977
# Poissons Ratio (z) = 0.27897 0.34790
#
# Static dielectric constant tensor:
#      x y z
#    x 4.345540 0.000000 0.000000 
#    y 0.000000 3.834300 0.000000 
#    z 0.000000 0.000000 3.659630 
# 
# 
# High freq. dielectric constant tensor:
#      x y z
#    x 1.813050 0.000000 0.000000 
#    y 0.000000 1.816160 0.000000 
#    z 0.000000 0.000000 1.808290 
# 
# From -- ./inp_files/17126.got.cif
#   From: 2010.06.25/outbox.cif.g09.slc.cpg/sg43_9_cif.got.tgz:17126.got - 2010.06.26 16:48:59.
