data_PCOD8187721
_publ_section_title
;
Structure prediction by ZEFSAII (Michael W. Deem and Ramdas Pophale) SiO2 
 PCOD8187721
Probable space group: F D D 2
;
_chemical_formula_sum "Si O2"
_cell_formula_units_Z 120
_cell_length_a 12.366952
_cell_length_b 19.885854
_cell_length_c 21.915073
_cell_angle_alpha 90.000000
_cell_angle_beta 90.000000
_cell_angle_gamma 90.000000
_cell_volume 5389.516965
_symmetry_space_group_name_H-M "F D D 2"
_symmetry_group_IT_number 43
_symmetry_cell_setting 'orthorhombic'
loop_
_space_group_symop_operation_xyz
x,y,z
-x,-y,z
1/4-x,1/4+y,1/4+z
1/4+x,1/4-y,1/4+z
x,1/2+y,1/2+z
-x,1/2-y,1/2+z
1/4-x,3/4+y,3/4+z
1/4+x,3/4-y,3/4+z
1/2+x,y,1/2+z
1/2-x,-y,1/2+z
3/4-x,1/4+y,3/4+z
3/4+x,1/4-y,3/4+z
1/2+x,1/2+y,z
1/2-x,1/2-y,z
3/4-x,3/4+y,1/4+z
3/4+x,3/4-y,1/4+z
loop_
_atom_site_type_symbol
_atom_site_label
_atom_site_fract_x
_atom_site_fract_y
_atom_site_fract_z
Si Si1 0.610640 0.890616 0.295860
Si Si2 0.509046 0.630494 0.329874
Si Si3 0.000000 0.000000 0.875350
Si Si4 0.553142 0.825260 0.175150
Si Si5 0.685232 0.688014 0.700134
Si Si6 0.465823 0.356589 0.550040
Si Si7 0.673207 0.041351 0.762643
Si Si8 0.624103 0.012406 0.628241
O O1 0.526875 0.937252 0.332100
O O2 0.578211 0.881699 0.225375
O O3 0.726445 0.924919 0.296558
O O4 0.615011 0.818111 0.326583
O O5 0.488591 0.581274 0.386385
O O6 0.391606 0.653577 0.303639
O O7 0.570450 0.587476 0.278339
O O8 0.575125 0.695258 0.350645
O O9 0.899155 0.980022 0.919159
O O10 0.439907 0.790438 0.193915
O O11 0.536550 0.863232 0.111203
O O12 0.750000 0.750000 0.728579
O O13 0.702084 0.625844 0.746265
O O14 0.416349 0.282500 0.540881
O O15 0.685269 0.036918 0.689371
O O16 0.500000 0.000000 0.645853
#
# Coordination Sequence:
#
# PCOD8187721 Si02
#       8
#    16  16   8  16  16  16  16  16
#     4  12  28  45  75 105 150 196 251 313 370 453
#     4  11  24  44  74 106 151 195 249 305 378 448
#     4  12  26  52  76 104 152 204 240 308 390 448
#     4  11  26  47  73 104 145 193 253 292 378 453
#     4  11  25  45  73 110 148 189 247 308 370 452
#     4  11  23  47  74 106 146 201 244 308 378 451
#     4  12  24  47  73 106 151 199 249 310 381 447
#     4  12  26  45  70 113 151 198 260 309 378 451
#
# _framework density 22.265446000000001
#
# number of rings (size 3 to 8) (size 9 to 14) (size 15 to 20)
#    0.000    0.533    4.000    4.400    2.800    1.067 
#    1.200    0.000    0.000    0.000    0.000    0.000 
#    0.000    0.000    0.000    0.000    0.000    0.000 
#
# Total GULP energy -372085.845397 kJ/mol
# GULP energy per Si atom -12402.861513 kJ/mol
# Density = 2.221477 g / cm^3
# Si number density = 22.265446 Si / 1000 Ang^3
#
#
#
# Elastic Constant Matrix: (Units=GPa)
#
#
# Indices 1 2 3 4 5 6 
#
# 1 144.1176 55.6751 37.3521 0.0000 0.0000 0.0000
# 2 55.6751 101.6718 37.0933 0.0000 0.0000 0.0000
# 3 37.3521 37.0933 116.1004 0.0000 0.0000 0.0000
# 4 0.0000 0.0000 0.0000 32.0754 0.0000 0.0000
# 5 0.0000 0.0000 0.0000 0.0000 36.8908 0.0000
# 6 0.0000 0.0000 0.0000 0.0000 0.0000 32.8825
#
#
#
# Elastic Compliance Matrix: (Units=1/GPa)
#
#
# Indices 1 2 3 4 5 6 
#
# 1 0.009025 -0.004395 -0.001499 0.000000 0.000000 0.000000
# 2 -0.004395 0.013274 -0.002827 0.000000 0.000000 0.000000
# 3 -0.001499 -0.002827 0.009999 0.000000 0.000000 0.000000
# 4 0.000000 0.000000 0.000000 0.031177 0.000000 0.000000
# 5 0.000000 0.000000 0.000000 0.000000 0.027107 0.000000
# 6 0.000000 0.000000 0.000000 0.000000 0.000000 0.030411
#
#
# Mechanical properties :
#
#
# Convention : Reuss Voigt Hill
#
# Bulk Modulus (GPa) = 67.31772 69.12563 68.22167
# Shear Modulus (GPa) = 34.87063 35.82104 35.34584
#
# Velocity S-wave (km/s) = 3.96173 4.01536 3.98864
# Velocity P-wave (km/s) = 7.15730 7.25335 7.20548
#
# Compressibility (1/GPa) = 0.01485493
#
# Stress axis : x y z
#
# Youngs Moduli (GPa) = 110.79926 75.33710 100.01222
#
# Poissons Ratio (x) = 0.33112 0.14996
# Poissons Ratio (y) = 0.48698 0.28272
# Poissons Ratio (z) = 0.16613 0.21296
#
# Static dielectric constant tensor:
#      x y z
#    x 4.287410 0.000000 0.000000 
#    y 0.000000 3.821810 0.000000 
#    z 0.000000 0.000000 4.077770 
# 
# 
# High freq. dielectric constant tensor:
#      x y z
#    x 1.893640 0.000000 0.000000 
#    y 0.000000 1.865610 0.000000 
#    z 0.000000 0.000000 1.887760 
# 
# From -- ./inp_files/17262.got.cif
#   From: 2010.06.25/outbox.cif.g09.slc.cpg/sg43_9_cif.got.tgz:17262.got - 2010.06.26 16:48:59.
