data_PCOD8187646
_publ_section_title
;
Structure prediction by ZEFSAII (Michael W. Deem and Ramdas Pophale) SiO2 
 PCOD8187646
Probable space group: F D D 2
;
_chemical_formula_sum "Si O2"
_cell_formula_units_Z 96
_cell_length_a 22.476230
_cell_length_b 16.960483
_cell_length_c 11.249802
_cell_angle_alpha 90.000000
_cell_angle_beta 90.000000
_cell_angle_gamma 90.000000
_cell_volume 4288.511335
_symmetry_space_group_name_H-M "F D D 2"
_symmetry_group_IT_number 43
_symmetry_cell_setting 'orthorhombic'
loop_
_space_group_symop_operation_xyz
x,y,z
-x,-y,z
1/4-x,1/4+y,1/4+z
1/4+x,1/4-y,1/4+z
x,1/2+y,1/2+z
-x,1/2-y,1/2+z
1/4-x,3/4+y,3/4+z
1/4+x,3/4-y,3/4+z
1/2+x,y,1/2+z
1/2-x,-y,1/2+z
3/4-x,1/4+y,3/4+z
3/4+x,1/4-y,3/4+z
1/2+x,1/2+y,z
1/2-x,1/2-y,z
3/4-x,3/4+y,1/4+z
3/4+x,3/4-y,1/4+z
loop_
_atom_site_type_symbol
_atom_site_label
_atom_site_fract_x
_atom_site_fract_y
_atom_site_fract_z
Si Si1 0.886762 0.298594 0.338690
Si Si2 0.628091 0.073173 0.766104
Si Si3 0.798847 0.685224 0.726909
Si Si4 0.972011 0.790207 0.639221
Si Si5 0.099993 0.283522 0.081771
Si Si6 0.820512 0.256440 0.784909
O O1 0.855530 0.219626 0.294399
O O2 0.951068 0.307084 0.274265
O O3 0.893361 0.282080 0.479029
O O4 0.846798 0.373705 0.297256
O O5 0.570945 0.092942 0.847742
O O6 0.662081 0.154790 0.749422
O O7 0.674984 0.016265 0.827835
O O8 0.604818 0.030918 0.646883
O O9 0.750000 0.750000 0.702961
O O10 0.772217 0.616903 0.807449
O O11 0.039137 0.756425 0.647825
O O12 0.157478 0.288965 0.167728
O O13 0.750000 0.250000 0.802820
#
# Coordination Sequence:
#
# PCOD8187646 Si02
#       6
#    16  16  16  16  16  16
#     4  11  25  44  70 106 141 187 248 299 378 440
#     4  11  26  49  73 109 147 198 257 305 380 447
#     4  11  21  44  75 107 145 193 244 316 367 444
#     4  11  25  44  75 103 144 190 250 316 363 455
#     4  12  27  45  72 104 147 193 241 307 381 450
#     4  12  29  49  75 109 157 201 249 313 385 460
#
# _framework density 22.385390000000001
#
# number of rings (size 3 to 8) (size 9 to 14) (size 15 to 20)
#    0.000    0.667    5.000    1.500    7.000    2.000 
#    3.000    0.000    0.000    0.000    0.000    0.000 
#    0.000    0.000    0.000    0.000    0.000    0.000 
#
# Total GULP energy -297439.083273 kJ/mol
# GULP energy per Si atom -12393.295136 kJ/mol
# Density = 2.233444 g / cm^3
# Si number density = 22.385390 Si / 1000 Ang^3
#
#
#
# Elastic Constant Matrix: (Units=GPa)
#
#
# Indices 1 2 3 4 5 6 
#
# 1 121.8615 21.0680 44.4962 0.0000 0.0000 0.0000
# 2 21.0680 85.0007 22.0029 0.0000 0.0000 0.0000
# 3 44.4962 22.0029 118.2738 0.0000 0.0000 0.0000
# 4 0.0000 0.0000 0.0000 31.9974 0.0000 0.0000
# 5 0.0000 0.0000 0.0000 0.0000 29.9145 0.0000
# 6 0.0000 0.0000 0.0000 0.0000 0.0000 32.6513
#
#
#
# Elastic Compliance Matrix: (Units=1/GPa)
#
#
# Indices 1 2 3 4 5 6 
#
# 1 0.009699 -0.001533 -0.003364 0.000000 0.000000 0.000000
# 2 -0.001533 0.012602 -0.001768 0.000000 0.000000 0.000000
# 3 -0.003364 -0.001768 0.010049 0.000000 0.000000 0.000000
# 4 0.000000 0.000000 0.000000 0.031253 0.000000 0.000000
# 5 0.000000 0.000000 0.000000 0.000000 0.033429 0.000000
# 6 0.000000 0.000000 0.000000 0.000000 0.000000 0.030627
#
#
# Mechanical properties :
#
#
# Convention : Reuss Voigt Hill
#
# Bulk Modulus (GPa) = 52.57212 55.58558 54.07885
# Shear Modulus (GPa) = 33.93778 34.75058 34.34418
#
# Velocity S-wave (km/s) = 3.89790 3.94430 3.92117
# Velocity P-wave (km/s) = 6.61771 6.75488 6.68665
#
# Compressibility (1/GPa) = 0.01902149
#
# Stress axis : x y z
#
# Youngs Moduli (GPa) = 103.09955 79.35127 99.50953
#
# Poissons Ratio (x) = 0.12167 0.33473
# Poissons Ratio (y) = 0.15808 0.17589
# Poissons Ratio (z) = 0.34680 0.14026
#
# Static dielectric constant tensor:
#      x y z
#    x 4.338070 0.000000 0.000000 
#    y 0.000000 5.784240 0.000000 
#    z 0.000000 0.000000 4.128250 
# 
# 
# High freq. dielectric constant tensor:
#      x y z
#    x 1.890040 0.000000 0.000000 
#    y 0.000000 1.892690 0.000000 
#    z 0.000000 0.000000 1.881460 
# 
# From -- ./inp_files/6663.got.cif
#   From: 2010.06.25/outbox.cif.g09.slc.cpg/sg43_4_cif.got.tgz:6663.got - 2010.06.26 16:48:59.
