data_PCOD8187295
_publ_section_title
;
Structure prediction by ZEFSAII (Michael W. Deem and Ramdas Pophale) SiO2 
 PCOD8187295
Probable space group: F D D 2
;
_chemical_formula_sum "Si O2"
_cell_formula_units_Z 56
_cell_length_a 7.176540
_cell_length_b 22.072605
_cell_length_c 17.640506
_cell_angle_alpha 90.000000
_cell_angle_beta 90.000000
_cell_angle_gamma 90.000000
_cell_volume 2794.343165
_symmetry_space_group_name_H-M "F D D 2"
_symmetry_group_IT_number 43
_symmetry_cell_setting 'orthorhombic'
loop_
_space_group_symop_operation_xyz
x,y,z
-x,-y,z
1/4-x,1/4+y,1/4+z
1/4+x,1/4-y,1/4+z
x,1/2+y,1/2+z
-x,1/2-y,1/2+z
1/4-x,3/4+y,3/4+z
1/4+x,3/4-y,3/4+z
1/2+x,y,1/2+z
1/2-x,-y,1/2+z
3/4-x,1/4+y,3/4+z
3/4+x,1/4-y,3/4+z
1/2+x,1/2+y,z
1/2-x,1/2-y,z
3/4-x,3/4+y,1/4+z
3/4+x,3/4-y,1/4+z
loop_
_atom_site_type_symbol
_atom_site_label
_atom_site_fract_x
_atom_site_fract_y
_atom_site_fract_z
Si Si1 0.507879 0.083729 0.521600
Si Si2 0.957405 0.773783 0.029377
Si Si3 0.250000 0.250000 0.409359
Si Si4 0.210344 0.504136 0.949368
O O1 0.530527 0.154660 0.519115
O O2 0.312055 0.063623 0.483385
O O3 0.515642 0.059999 0.607873
O O4 0.678384 0.055516 0.474475
O O5 0.750000 0.750000 0.024020
O O6 0.046658 0.755443 0.108890
O O7 0.069307 0.741848 0.961821
O O8 0.000000 0.500000 0.981015
#
# Coordination Sequence:
#
# PCOD8187295 Si02
#       4
#    16  16   8  16
#     4  10  24  43  64  93 135 162 215 274 308 389
#     4  12  23  41  67  98 127 168 220 261 325 380
#     4  10  24  40  62 100 124 168 214 266 320 372
#     4  10  21  44  65  92 128 177 207 256 334 372
#
# _framework density 20.040486999999999
#
# number of rings (size 3 to 8) (size 9 to 14) (size 15 to 20)
#    0.000    1.714    4.286    1.714    0.000    9.143 
#    0.000    0.000    0.000    0.000    0.000    0.000 
#    0.000    0.000    0.000    0.000    0.000    0.000 
#
# Total GULP energy -173628.095632 kJ/mol
# GULP energy per Si atom -12402.006831 kJ/mol
# Density = 1.999487 g / cm^3
# Si number density = 20.040487 Si / 1000 Ang^3
#
#
#
# Elastic Constant Matrix: (Units=GPa)
#
#
# Indices 1 2 3 4 5 6 
#
# 1 173.1916 51.7989 37.9197 0.0000 0.0000 0.0000
# 2 51.7989 100.4853 40.1624 0.0000 0.0000 0.0000
# 3 37.9197 40.1624 127.7610 0.0000 0.0000 0.0000
# 4 0.0000 0.0000 0.0000 16.2530 0.0000 0.0000
# 5 0.0000 0.0000 0.0000 0.0000 35.4400 0.0000
# 6 0.0000 0.0000 0.0000 0.0000 0.0000 16.4010
#
#
#
# Elastic Compliance Matrix: (Units=1/GPa)
#
#
# Indices 1 2 3 4 5 6 
#
# 1 0.006952 -0.003156 -0.001071 0.000000 0.000000 0.000000
# 2 -0.003156 0.012814 -0.003092 0.000000 0.000000 0.000000
# 3 -0.001071 -0.003092 0.009117 0.000000 0.000000 0.000000
# 4 0.000000 0.000000 0.000000 0.061527 0.000000 0.000000
# 5 0.000000 0.000000 0.000000 0.000000 0.028217 0.000000
# 6 0.000000 0.000000 0.000000 0.000000 0.000000 0.060972
#
#
# Mechanical properties :
#
#
# Convention : Reuss Voigt Hill
#
# Bulk Modulus (GPa) = 70.19490 73.46664 71.83077
# Shear Modulus (GPa) = 25.12754 31.72260 28.42507
#
# Velocity S-wave (km/s) = 3.54480 3.98292 3.77023
# Velocity P-wave (km/s) = 7.20116 7.60856 7.40766
#
# Compressibility (1/GPa) = 0.01424605
#
# Stress axis : x y z
#
# Youngs Moduli (GPa) = 143.83654 78.03950 109.68533
#
# Poissons Ratio (x) = 0.24626 0.11753
# Poissons Ratio (y) = 0.45389 0.33910
# Poissons Ratio (z) = 0.15412 0.24127
#
# Static dielectric constant tensor:
#      x y z
#    x 3.742300 0.000000 0.000000 
#    y 0.000000 3.504710 0.000000 
#    z 0.000000 0.000000 3.884250 
# 
# 
# High freq. dielectric constant tensor:
#      x y z
#    x 1.789580 0.000000 0.000000 
#    y 0.000000 1.771650 0.000000 
#    z 0.000000 0.000000 1.800340 
# 
# From -- ./inp_files/8898.got.cif
#   From: 2010.06.25/outbox.cif.g09.slc.cpg/sg43_5_cif.got.tgz:8898.got - 2010.06.26 16:48:59.
