data_PCOD8187508
_publ_section_title
;
Structure prediction by ZEFSAII (Michael W. Deem and Ramdas Pophale) SiO2 
 PCOD8187508
Probable space group: F D D 2
;
_chemical_formula_sum "Si O2"
_cell_formula_units_Z 112
_cell_length_a 31.369944
_cell_length_b 16.001326
_cell_length_c 10.025554
_cell_angle_alpha 90.000000
_cell_angle_beta 90.000000
_cell_angle_gamma 90.000000
_cell_volume 5032.434109
_symmetry_space_group_name_H-M "F D D 2"
_symmetry_group_IT_number 43
_symmetry_cell_setting 'orthorhombic'
loop_
_space_group_symop_operation_xyz
x,y,z
-x,-y,z
1/4-x,1/4+y,1/4+z
1/4+x,1/4-y,1/4+z
x,1/2+y,1/2+z
-x,1/2-y,1/2+z
1/4-x,3/4+y,3/4+z
1/4+x,3/4-y,3/4+z
1/2+x,y,1/2+z
1/2-x,-y,1/2+z
3/4-x,1/4+y,3/4+z
3/4+x,1/4-y,3/4+z
1/2+x,1/2+y,z
1/2-x,1/2-y,z
3/4-x,3/4+y,1/4+z
3/4+x,3/4-y,1/4+z
loop_
_atom_site_type_symbol
_atom_site_label
_atom_site_fract_x
_atom_site_fract_y
_atom_site_fract_z
Si Si1 0.630350 0.598280 0.385410
Si Si2 0.234925 0.422104 0.121308
Si Si3 0.727154 0.067618 0.915613
Si Si4 0.890753 0.888925 0.860878
Si Si5 0.750000 0.750000 0.989150
Si Si6 0.156584 0.282725 0.371795
Si Si7 0.250000 0.250000 0.402554
Si Si8 0.587677 0.011793 0.118050
O O1 0.676466 0.552776 0.391710
O O2 0.601046 0.582255 0.257189
O O3 0.636319 0.694992 0.396450
O O4 0.600717 0.579289 0.510441
O O5 0.250454 0.443555 0.270822
O O6 0.184283 0.413346 0.113814
O O7 0.245898 0.498480 0.018709
O O8 0.256905 0.333387 0.079373
O O9 0.736417 0.162288 0.976581
O O10 0.852515 0.828647 0.818254
O O11 0.890779 0.966193 0.759719
O O12 0.880092 0.923244 0.006339
O O13 0.712411 0.763636 0.885275
O O14 0.206653 0.276762 0.323887
#
# Coordination Sequence:
#
# PCOD8187508 Si02
#       8
#    16  16  16  16   8  16   8  16
#     4  11  25  43  67 101 137 181 224 294 347 413
#     4  11  24  46  70 104 139 184 237 294 350 421
#     4  11  24  46  71 101 140 180 234 296 349 417
#     4  11  23  43  71  98 137 182 232 284 347 427
#     4  10  27  45  74 102 141 195 232 288 355 439
#     4  11  24  42  70  97 134 183 233 278 350 421
#     4  10  23  45  68  96 137 183 228 288 349 417
#     4  11  24  46  68 100 143 178 232 290 356 404
#
# _framework density 22.255631999999999
#
# number of rings (size 3 to 8) (size 9 to 14) (size 15 to 20)
#    0.000    1.143    2.857    2.143   10.000    2.857 
#    5.143    0.000    0.000    0.000    0.000    0.000 
#    0.000    0.000    0.000    0.000    0.000    0.000 
#
# Total GULP energy -346982.616229 kJ/mol
# GULP energy per Si atom -12392.236294 kJ/mol
# Density = 2.220498 g / cm^3
# Si number density = 22.255632 Si / 1000 Ang^3
#
#
#
# Elastic Constant Matrix: (Units=GPa)
#
#
# Indices 1 2 3 4 5 6 
#
# 1 72.7987 39.4205 45.8536 0.0000 0.0000 0.0000
# 2 39.4205 137.1938 48.9745 0.0000 0.0000 0.0000
# 3 45.8536 48.9745 118.8981 0.0000 0.0000 0.0000
# 4 0.0000 0.0000 0.0000 35.5806 0.0000 0.0000
# 5 0.0000 0.0000 0.0000 0.0000 35.6638 0.0000
# 6 0.0000 0.0000 0.0000 0.0000 0.0000 19.5447
#
#
#
# Elastic Compliance Matrix: (Units=1/GPa)
#
#
# Indices 1 2 3 4 5 6 
#
# 1 0.019413 -0.003406 -0.006084 0.000000 0.000000 0.000000
# 2 -0.003406 0.009143 -0.002452 0.000000 0.000000 0.000000
# 3 -0.006084 -0.002452 0.011767 0.000000 0.000000 0.000000
# 4 0.000000 0.000000 0.000000 0.028105 0.000000 0.000000
# 5 0.000000 0.000000 0.000000 0.000000 0.028040 0.000000
# 6 0.000000 0.000000 0.000000 0.000000 0.000000 0.051165
#
#
# Mechanical properties :
#
#
# Convention : Reuss Voigt Hill
#
# Bulk Modulus (GPa) = 60.83369 66.37641 63.60505
# Shear Modulus (GPa) = 28.24912 31.13396 29.69154
#
# Velocity S-wave (km/s) = 3.56659 3.74428 3.65651
# Velocity P-wave (km/s) = 6.65989 6.97009 6.81675
#
# Compressibility (1/GPa) = 0.01643826
#
# Stress axis : x y z
#
# Youngs Moduli (GPa) = 51.51213 109.37135 84.98420
#
# Poissons Ratio (x) = 0.37255 0.51701
# Poissons Ratio (y) = 0.17547 0.20842
# Poissons Ratio (z) = 0.31338 0.26823
#
# Static dielectric constant tensor:
#      x y z
#    x 4.091600 0.000000 0.000000 
#    y 0.000000 4.240140 0.000000 
#    z 0.000000 0.000000 3.855880 
# 
# 
# High freq. dielectric constant tensor:
#      x y z
#    x 1.874890 0.000000 0.000000 
#    y 0.000000 1.891400 0.000000 
#    z 0.000000 0.000000 1.866350 
# 
# From -- ./inp_files/8325.got.cif
#   From: 2010.06.25/outbox.cif.g09.slc.cpg/sg43_5_cif.got.tgz:8325.got - 2010.06.26 16:48:59.
