data_PCOD8187384
_publ_section_title
;
Structure prediction by ZEFSAII (Michael W. Deem and Ramdas Pophale) SiO2 
 PCOD8187384
Probable space group: F D D 2
;
_chemical_formula_sum "Si O2"
_cell_formula_units_Z 88
_cell_length_a 22.269984
_cell_length_b 11.714096
_cell_length_c 15.862536
_cell_angle_alpha 90.000000
_cell_angle_beta 90.000000
_cell_angle_gamma 90.000000
_cell_volume 4138.103079
_symmetry_space_group_name_H-M "F D D 2"
_symmetry_group_IT_number 43
_symmetry_cell_setting 'orthorhombic'
loop_
_space_group_symop_operation_xyz
x,y,z
-x,-y,z
1/4-x,1/4+y,1/4+z
1/4+x,1/4-y,1/4+z
x,1/2+y,1/2+z
-x,1/2-y,1/2+z
1/4-x,3/4+y,3/4+z
1/4+x,3/4-y,3/4+z
1/2+x,y,1/2+z
1/2-x,-y,1/2+z
3/4-x,1/4+y,3/4+z
3/4+x,1/4-y,3/4+z
1/2+x,1/2+y,z
1/2-x,1/2-y,z
3/4-x,3/4+y,1/4+z
3/4+x,3/4-y,1/4+z
loop_
_atom_site_type_symbol
_atom_site_label
_atom_site_fract_x
_atom_site_fract_y
_atom_site_fract_z
Si Si1 0.671589 0.588906 0.457100
Si Si2 0.750000 0.750000 0.357962
Si Si3 0.332693 0.257535 0.984893
Si Si4 0.027564 0.714508 0.497116
Si Si5 0.254574 0.574756 0.560917
Si Si6 0.817418 0.608560 0.832724
O O1 0.695172 0.705128 0.414974
O O2 0.724880 0.542792 0.517524
O O3 0.654636 0.495213 0.386831
O O4 0.611241 0.614434 0.506512
O O5 0.724015 0.850295 0.301070
O O6 0.308594 0.218855 0.892692
O O7 0.403828 0.254302 0.981485
O O8 0.308694 0.166763 0.053754
O O9 0.305048 0.380233 0.011653
O O10 0.992184 0.695554 0.409344
O O11 0.996890 0.819980 0.545735
#
# Coordination Sequence:
#
# PCOD8187384 Si02
#       6
#    16   8  16  16  16  16
#     4  10  22  45  60  96 131 173 217 272 320 391
#     4  10  24  40  60  96 132 168 222 264 332 378
#     4  10  22  42  66  98 134 166 222 275 317 399
#     4  11  23  43  69  98 130 180 213 274 328 392
#     4  10  22  41  68  97 127 174 224 263 331 380
#     4  10  23  44  65  95 135 171 223 265 333 384
#
# _framework density 21.265782999999999
#
# number of rings (size 3 to 8) (size 9 to 14) (size 15 to 20)
#    0.000    1.818    1.818    1.091    2.545    7.273 
#    6.545    0.000    0.000    0.000    0.000    0.000 
#    0.000    0.000    0.000    0.000    0.000    0.000 
#
# Total GULP energy -272820.106347 kJ/mol
# GULP energy per Si atom -12400.913925 kJ/mol
# Density = 2.121738 g / cm^3
# Si number density = 21.265783 Si / 1000 Ang^3
#
#
#
# Elastic Constant Matrix: (Units=GPa)
#
#
# Indices 1 2 3 4 5 6 
#
# 1 129.2457 47.7347 55.4333 0.0000 0.0000 0.0000
# 2 47.7347 70.8800 44.6691 0.0000 0.0000 0.0000
# 3 55.4333 44.6691 121.9754 0.0000 0.0000 0.0000
# 4 0.0000 0.0000 0.0000 15.6028 0.0000 0.0000
# 5 0.0000 0.0000 0.0000 0.0000 39.9123 0.0000
# 6 0.0000 0.0000 0.0000 0.0000 0.0000 24.1350
#
#
#
# Elastic Compliance Matrix: (Units=1/GPa)
#
#
# Indices 1 2 3 4 5 6 
#
# 1 0.011080 -0.005576 -0.002994 0.000000 0.000000 0.000000
# 2 -0.005576 0.021147 -0.005210 0.000000 0.000000 0.000000
# 3 -0.002994 -0.005210 0.011467 0.000000 0.000000 0.000000
# 4 0.000000 0.000000 0.000000 0.064091 0.000000 0.000000
# 5 0.000000 0.000000 0.000000 0.000000 0.025055 0.000000
# 6 0.000000 0.000000 0.000000 0.000000 0.000000 0.041434
#
#
# Mechanical properties :
#
#
# Convention : Reuss Voigt Hill
#
# Bulk Modulus (GPa) = 61.97740 68.64169 65.30954
# Shear Modulus (GPa) = 24.12987 27.54760 25.83874
#
# Velocity S-wave (km/s) = 3.37216 3.60307 3.48952
# Velocity P-wave (km/s) = 6.66103 7.04681 6.85663
#
# Compressibility (1/GPa) = 0.01613491
#
# Stress axis : x y z
#
# Youngs Moduli (GPa) = 90.24884 47.28836 87.20613
#
# Poissons Ratio (x) = 0.26366 0.26108
# Poissons Ratio (y) = 0.50318 0.45438
# Poissons Ratio (z) = 0.27019 0.24639
#
# Static dielectric constant tensor:
#      x y z
#    x 3.687310 0.000000 0.000000 
#    y 0.000000 3.963760 0.000000 
#    z 0.000000 0.000000 4.043690 
# 
# 
# High freq. dielectric constant tensor:
#      x y z
#    x 1.821870 0.000000 0.000000 
#    y 0.000000 1.829780 0.000000 
#    z 0.000000 0.000000 1.847340 
# 
# From -- ./inp_files/11218.got.cif
#   From: 2010.06.25/outbox.cif.g09.slc.cpg/sg43_6_cif.got.tgz:11218.got - 2010.06.26 16:48:59.
