data_PCOD8187157
_publ_section_title
;
Structure prediction by ZEFSAII (Michael W. Deem and Ramdas Pophale) SiO2 
 PCOD8187157
Probable space group: F D D 2
;
_chemical_formula_sum "Si O2"
_cell_formula_units_Z 96
_cell_length_a 21.472996
_cell_length_b 9.209855
_cell_length_c 22.723829
_cell_angle_alpha 90.000000
_cell_angle_beta 90.000000
_cell_angle_gamma 90.000000
_cell_volume 4493.936675
_symmetry_space_group_name_H-M "F D D 2"
_symmetry_group_IT_number 43
_symmetry_cell_setting 'orthorhombic'
loop_
_space_group_symop_operation_xyz
x,y,z
-x,-y,z
1/4-x,1/4+y,1/4+z
1/4+x,1/4-y,1/4+z
x,1/2+y,1/2+z
-x,1/2-y,1/2+z
1/4-x,3/4+y,3/4+z
1/4+x,3/4-y,3/4+z
1/2+x,y,1/2+z
1/2-x,-y,1/2+z
3/4-x,1/4+y,3/4+z
3/4+x,1/4-y,3/4+z
1/2+x,1/2+y,z
1/2-x,1/2-y,z
3/4-x,3/4+y,1/4+z
3/4+x,3/4-y,1/4+z
loop_
_atom_site_type_symbol
_atom_site_label
_atom_site_fract_x
_atom_site_fract_y
_atom_site_fract_z
Si Si1 0.339751 0.999340 0.413690
Si Si2 0.367305 0.057929 0.646442
Si Si3 0.312875 0.664985 0.259833
Si Si4 0.913287 0.863025 0.822644
Si Si5 0.696081 0.571321 0.042190
Si Si6 0.230678 0.593120 0.834790
O O1 0.376923 0.147945 0.424337
O O2 0.290378 0.011391 0.360574
O O3 0.388318 0.874958 0.390644
O O4 0.303925 0.960896 0.473186
O O5 0.324933 0.152354 0.690044
O O6 0.435036 0.130294 0.640359
O O7 0.339311 0.050405 0.580358
O O8 0.250000 0.750000 0.271409
O O9 0.371470 0.747882 0.287858
O O10 0.304250 0.504763 0.286780
O O11 0.984801 0.816402 0.819028
O O12 0.909679 0.026250 0.797069
O O13 0.250000 0.750000 0.806777
#
# Coordination Sequence:
#
# PCOD8187157 Si02
#       6
#    16  16  16  16  16  16
#     4  10  20  42  67  90 129 181 229 271 345 425
#     4  10  23  40  61  96 128 173 225 279 341 420
#     4  12  24  41  64 103 136 166 230 296 350 407
#     4  10  23  40  62  99 131 171 233 276 345 418
#     4  10  22  42  64  94 134 181 221 282 351 413
#     4  10  22  43  67  93 128 181 228 271 347 430
#
# _framework density 21.362116
#
# number of rings (size 3 to 8) (size 9 to 14) (size 15 to 20)
#    0.000    1.667    1.667    2.000    0.000    6.667 
#    6.000    4.167    0.000    0.000    0.000    0.000 
#    0.000    0.000    0.000    0.000    0.000    0.000 
#
# Total GULP energy -297516.187749 kJ/mol
# GULP energy per Si atom -12396.507823 kJ/mol
# Density = 2.131350 g / cm^3
# Si number density = 21.362116 Si / 1000 Ang^3
#
#
#
# Elastic Constant Matrix: (Units=GPa)
#
#
# Indices 1 2 3 4 5 6 
#
# 1 118.8815 41.4125 45.3844 0.0000 0.0000 0.0000
# 2 41.4125 85.6851 38.2748 0.0000 0.0000 0.0000
# 3 45.3844 38.2748 97.8522 0.0000 0.0000 0.0000
# 4 0.0000 0.0000 0.0000 18.8863 0.0000 0.0000
# 5 0.0000 0.0000 0.0000 0.0000 32.8467 0.0000
# 6 0.0000 0.0000 0.0000 0.0000 0.0000 31.7201
#
#
#
# Elastic Compliance Matrix: (Units=1/GPa)
#
#
# Indices 1 2 3 4 5 6 
#
# 1 0.011122 -0.003721 -0.003703 0.000000 0.000000 0.000000
# 2 -0.003721 0.015387 -0.004293 0.000000 0.000000 0.000000
# 3 -0.003703 -0.004293 0.013616 0.000000 0.000000 0.000000
# 4 0.000000 0.000000 0.000000 0.052948 0.000000 0.000000
# 5 0.000000 0.000000 0.000000 0.000000 0.030444 0.000000
# 6 0.000000 0.000000 0.000000 0.000000 0.000000 0.031526
#
#
# Mechanical properties :
#
#
# Convention : Reuss Voigt Hill
#
# Bulk Modulus (GPa) = 59.91209 61.39581 60.65395
# Shear Modulus (GPa) = 27.16814 28.51378 27.84096
#
# Velocity S-wave (km/s) = 3.57009 3.65743 3.61402
# Velocity P-wave (km/s) = 6.71572 6.82925 6.77272
#
# Compressibility (1/GPa) = 0.01669112
#
# Stress axis : x y z
#
# Youngs Moduli (GPa) = 89.91535 64.99176 73.44387
#
# Poissons Ratio (x) = 0.24185 0.27194
# Poissons Ratio (y) = 0.33459 0.31526
# Poissons Ratio (z) = 0.33293 0.27898
#
# Static dielectric constant tensor:
#      x y z
#    x 3.977560 0.000000 0.000000 
#    y 0.000000 3.832730 0.000000 
#    z 0.000000 0.000000 3.608060 
# 
# 
# High freq. dielectric constant tensor:
#      x y z
#    x 1.855040 0.000000 0.000000 
#    y 0.000000 1.830620 0.000000 
#    z 0.000000 0.000000 1.823850 
# 
# From -- ./inp_files/22573.got.cif
#   From: 2010.06.25/outbox.cif.g09.slc.cpg/sg43_12_cif.got.tgz:22573.got - 2010.06.26 16:48:59.
