data_PCOD8187822
_publ_section_title
;
Structure prediction by ZEFSAII (Michael W. Deem and Ramdas Pophale) SiO2 
 PCOD8187822
Probable space group: F D D 2
;
_chemical_formula_sum "Si O2"
_cell_formula_units_Z 88
_cell_length_a 29.701230
_cell_length_b 19.969426
_cell_length_c 6.291839
_cell_angle_alpha 90.000000
_cell_angle_beta 90.000000
_cell_angle_gamma 90.000000
_cell_volume 3731.793618
_symmetry_space_group_name_H-M "F D D 2"
_symmetry_group_IT_number 43
_symmetry_cell_setting 'orthorhombic'
loop_
_space_group_symop_operation_xyz
x,y,z
-x,-y,z
1/4-x,1/4+y,1/4+z
1/4+x,1/4-y,1/4+z
x,1/2+y,1/2+z
-x,1/2-y,1/2+z
1/4-x,3/4+y,3/4+z
1/4+x,3/4-y,3/4+z
1/2+x,y,1/2+z
1/2-x,-y,1/2+z
3/4-x,1/4+y,3/4+z
3/4+x,1/4-y,3/4+z
1/2+x,1/2+y,z
1/2-x,1/2-y,z
3/4-x,3/4+y,1/4+z
3/4+x,3/4-y,1/4+z
loop_
_atom_site_type_symbol
_atom_site_label
_atom_site_fract_x
_atom_site_fract_y
_atom_site_fract_z
Si Si1 0.282011 0.558607 0.543430
Si Si2 0.500000 0.000000 0.208756
Si Si3 0.172530 0.275733 0.619194
Si Si4 0.128767 0.390994 0.861250
Si Si5 0.006820 0.090576 0.089412
Si Si6 0.040404 0.835543 0.435058
O O1 0.326542 0.599754 0.493676
O O2 0.271094 0.583066 0.782952
O O3 0.290128 0.480114 0.539430
O O4 0.243214 0.578794 0.378555
O O5 0.488535 0.062448 0.364863
O O6 0.545345 0.010399 0.071801
O O7 0.141678 0.341958 0.664064
O O8 0.140203 0.214461 0.548434
O O9 0.203455 0.291280 0.414624
O O10 0.091476 0.351858 0.005769
O O11 0.972364 0.099746 0.286447
#
# Coordination Sequence:
#
# PCOD8187822 Si02
#       6
#    16   8  16  16  16  16
#     4  12  25  48  73 107 151 200 249 308 379 444
#     4  12  24  48  76 104 142 200 246 306 376 450
#     4  12  26  48  74 107 155 186 257 309 376 459
#     4  12  25  49  71 109 152 194 245 317 371 462
#     4  12  24  47  76 105 143 198 246 307 377 437
#     4  12  25  48  76 107 153 199 253 309 375 458
#
# _framework density 23.581156
#
# number of rings (size 3 to 8) (size 9 to 14) (size 15 to 20)
#    0.000    0.000    7.273    3.818    0.000    0.000 
#   16.364    0.000    0.000    0.000    0.000    0.000 
#    0.000    0.000    0.000    0.000    0.000    0.000 
#
# Total GULP energy -272607.971665 kJ/mol
# GULP energy per Si atom -12391.271439 kJ/mol
# Density = 2.352748 g / cm^3
# Si number density = 23.581156 Si / 1000 Ang^3
#
#
#
# Elastic Constant Matrix: (Units=GPa)
#
#
# Indices 1 2 3 4 5 6 
#
# 1 138.9199 35.7430 39.2456 0.0006 0.0002 0.0003
# 2 35.7430 121.7455 39.6521 -0.0013 0.0001 -0.0003
# 3 39.2456 39.6521 70.6483 -0.0080 0.0023 -0.0007
# 4 0.0006 -0.0013 -0.0080 52.2963 0.0006 -0.0007
# 5 0.0002 0.0001 0.0023 0.0006 1.1561 -0.0004
# 6 0.0003 -0.0003 -0.0007 -0.0007 -0.0004 43.8187
#
#
#
# Elastic Compliance Matrix: (Units=1/GPa)
#
#
# Indices 1 2 3 4 5 6 
#
# 1 0.008678 -0.001196 -0.004149 -0.000001 0.000007 0.000000
# 2 -0.001196 0.010216 -0.005069 -0.000001 0.000009 0.000000
# 3 -0.004149 -0.005069 0.019305 0.000003 -0.000037 0.000000
# 4 -0.000001 -0.000001 0.000003 0.019122 -0.000010 0.000000
# 5 0.000007 0.000009 -0.000037 -0.000010 0.864953 0.000009
# 6 0.000000 0.000000 0.000000 0.000000 0.000009 0.022821
#
#
# Mechanical properties :
#
#
# Convention : Reuss Voigt Hill
#
# Bulk Modulus (GPa) = 57.57335 62.28834 59.93085
# Shear Modulus (GPa) = 5.14554 33.89911 19.52232
#
# Velocity S-wave (km/s) = 1.47878 3.79562 2.88041
# Velocity P-wave (km/s) = 5.23294 6.75875 6.04419
#
# Compressibility (1/GPa) = 0.01736915
#
# Stress axis : x y z
#
# Youngs Moduli (GPa) = 115.22776 97.88408 51.80047
#
# Poissons Ratio (x) = 0.11711 0.21494
# Poissons Ratio (y) = 0.13786 0.26259
# Poissons Ratio (z) = 0.47813 0.49620
#
# Static dielectric constant tensor:
#      x y z
#    x 4.367980 0.000000 0.000000 
#    y 0.000000 4.962360 0.000000 
#    z 0.000000 0.000000 3.948780 
# 
# 
# High freq. dielectric constant tensor:
#      x y z
#    x 1.933800 0.000000 0.000000 
#    y 0.000000 1.975780 0.000000 
#    z 0.000000 0.000000 1.907340 
# 
# From -- ./inp_files/1379.got.cif
#   From: 2010.06.25/outbox.cif.g09.slc.cpg/sg43_1_cif.got.tgz:1379.got - 2010.06.26 16:48:59.
