data_PCOD8187001
_publ_section_title
;
Structure prediction by ZEFSAII (Michael W. Deem and Ramdas Pophale) SiO2 
 PCOD8187001
Probable space group: F D D 2
;
_chemical_formula_sum "Si O2"
_cell_formula_units_Z 64
_cell_length_a 10.232020
_cell_length_b 16.269338
_cell_length_c 19.821226
_cell_angle_alpha 90.000000
_cell_angle_beta 90.000000
_cell_angle_gamma 90.000000
_cell_volume 3299.603652
_symmetry_space_group_name_H-M "F D D 2"
_symmetry_group_IT_number 43
_symmetry_cell_setting 'orthorhombic'
loop_
_space_group_symop_operation_xyz
x,y,z
-x,-y,z
1/4-x,1/4+y,1/4+z
1/4+x,1/4-y,1/4+z
x,1/2+y,1/2+z
-x,1/2-y,1/2+z
1/4-x,3/4+y,3/4+z
1/4+x,3/4-y,3/4+z
1/2+x,y,1/2+z
1/2-x,-y,1/2+z
3/4-x,1/4+y,3/4+z
3/4+x,1/4-y,3/4+z
1/2+x,1/2+y,z
1/2-x,1/2-y,z
3/4-x,3/4+y,1/4+z
3/4+x,3/4-y,1/4+z
loop_
_atom_site_type_symbol
_atom_site_label
_atom_site_fract_x
_atom_site_fract_y
_atom_site_fract_z
Si Si1 0.654241 0.981563 0.873300
Si Si2 0.241298 0.110446 0.479071
Si Si3 0.551835 0.259419 0.976525
Si Si4 0.127947 0.801400 0.364969
O O1 0.673002 0.887750 0.897441
O O2 0.500000 0.000000 0.860091
O O3 0.721327 0.035319 0.929677
O O4 0.736490 0.997283 0.804832
O O5 0.384730 0.149730 0.470586
O O6 0.143849 0.182858 0.458030
O O7 0.220656 0.074605 0.554292
O O8 0.433009 0.254992 0.924017
O O9 0.250000 0.750000 0.335257
#
# Coordination Sequence:
#
# PCOD8187001 Si02
#       4
#    16  16  16  16
#     4  11  19  37  64  88 112 157 205 241 296 368
#     4  10  19  37  64  86 116 158 203 241 301 365
#     4  10  19  37  59  91 118 152 201 248 295 360
#     4  11  23  38  61  92 121 158 203 255 298 352
#
# _framework density 19.396269
#
# number of rings (size 3 to 8) (size 9 to 14) (size 15 to 20)
#    0.000    1.500    7.500    0.750    3.500    0.000 
#    4.500    1.250    0.000    0.000    0.000    0.000 
#    0.000    0.000    0.000    0.000    0.000    0.000 
#
# Total GULP energy -198312.672898 kJ/mol
# GULP energy per Si atom -12394.542056 kJ/mol
# Density = 1.935212 g / cm^3
# Si number density = 19.396269 Si / 1000 Ang^3
#
#
#
# Elastic Constant Matrix: (Units=GPa)
#
#
# Indices 1 2 3 4 5 6 
#
# 1 48.6121 41.3586 41.4293 0.0000 0.0000 0.0000
# 2 41.3586 137.9401 65.5320 0.0000 0.0000 0.0000
# 3 41.4293 65.5320 123.9181 0.0000 0.0000 0.0000
# 4 0.0000 0.0000 0.0000 41.4220 0.0000 0.0000
# 5 0.0000 0.0000 0.0000 0.0000 22.6759 0.0000
# 6 0.0000 0.0000 0.0000 0.0000 0.0000 22.7665
#
#
#
# Elastic Compliance Matrix: (Units=1/GPa)
#
#
# Indices 1 2 3 4 5 6 
#
# 1 0.032156 -0.006055 -0.007548 0.000000 0.000000 0.000000
# 2 -0.006055 0.010822 -0.003699 0.000000 0.000000 0.000000
# 3 -0.007548 -0.003699 0.012549 0.000000 0.000000 0.000000
# 4 0.000000 0.000000 0.000000 0.024142 0.000000 0.000000
# 5 0.000000 0.000000 0.000000 0.000000 0.044100 0.000000
# 6 0.000000 0.000000 0.000000 0.000000 0.000000 0.043924
#
#
# Mechanical properties :
#
#
# Convention : Reuss Voigt Hill
#
# Bulk Modulus (GPa) = 47.79465 67.45666 57.62566
# Shear Modulus (GPa) = 23.89236 28.18292 26.03764
#
# Velocity S-wave (km/s) = 3.51351 3.81597 3.66786
# Velocity P-wave (km/s) = 6.41516 7.36676 6.90737
#
# Compressibility (1/GPa) = 0.02092284
#
# Stress axis : x y z
#
# Youngs Moduli (GPa) = 31.09865 92.40239 79.68454
#
# Poissons Ratio (x) = 0.55952 0.60149
# Poissons Ratio (y) = 0.18831 0.29473
# Poissons Ratio (z) = 0.23474 0.34177
#
# Static dielectric constant tensor:
#      x y z
#    x 3.131720 0.000000 0.000000 
#    y 0.000000 3.753790 0.000000 
#    z 0.000000 0.000000 3.473800 
# 
# 
# High freq. dielectric constant tensor:
#      x y z
#    x 1.703400 0.000000 0.000000 
#    y 0.000000 1.768130 0.000000 
#    z 0.000000 0.000000 1.760550 
# 
# From -- ./inp_files/13119.got.cif
#   From: 2010.06.25/outbox.cif.g09.slc.cpg/sg43_7_cif.got.tgz:13119.got - 2010.06.26 16:48:59.
