data_PCOD8187249
_publ_section_title
;
Structure prediction by ZEFSAII (Michael W. Deem and Ramdas Pophale) SiO2 
 PCOD8187249
Probable space group: F D D 2
;
_chemical_formula_sum "Si O2"
_cell_formula_units_Z 104
_cell_length_a 8.813209
_cell_length_b 30.184902
_cell_length_c 18.768508
_cell_angle_alpha 90.000000
_cell_angle_beta 90.000000
_cell_angle_gamma 90.000000
_cell_volume 4992.908293
_symmetry_space_group_name_H-M "F D D 2"
_symmetry_group_IT_number 43
_symmetry_cell_setting 'orthorhombic'
loop_
_space_group_symop_operation_xyz
x,y,z
-x,-y,z
1/4-x,1/4+y,1/4+z
1/4+x,1/4-y,1/4+z
x,1/2+y,1/2+z
-x,1/2-y,1/2+z
1/4-x,3/4+y,3/4+z
1/4+x,3/4-y,3/4+z
1/2+x,y,1/2+z
1/2-x,-y,1/2+z
3/4-x,1/4+y,3/4+z
3/4+x,1/4-y,3/4+z
1/2+x,1/2+y,z
1/2-x,1/2-y,z
3/4-x,3/4+y,1/4+z
3/4+x,3/4-y,1/4+z
loop_
_atom_site_type_symbol
_atom_site_label
_atom_site_fract_x
_atom_site_fract_y
_atom_site_fract_z
Si Si1 0.000000 0.500000 0.294840
Si Si2 0.847170 0.519910 0.985710
Si Si3 0.929496 0.167753 0.499378
Si Si4 0.814390 0.204012 0.795056
Si Si5 0.859808 0.552758 0.418524
Si Si6 0.150490 0.899583 0.388803
Si Si7 0.591293 0.386168 0.144523
O O1 0.891539 0.467436 0.248229
O O2 0.895317 0.533417 0.340544
O O3 0.748555 0.478825 0.962058
O O4 0.881486 0.551381 0.918835
O O5 0.000000 0.500000 0.019931
O O6 0.748854 0.545518 0.046001
O O7 0.816036 0.134227 0.455895
O O8 0.963423 0.150530 0.580587
O O9 0.094222 0.166194 0.460081
O O10 0.750000 0.250000 0.825421
O O11 0.767924 0.195208 0.712192
O O12 0.754732 0.164818 0.841506
O O13 0.777809 0.599612 0.419314
O O14 0.988401 0.884956 0.354282
#
# Coordination Sequence:
#
# PCOD8187249 Si02
#       7
#     8  16  16  16  16  16  16
#     4  12  22  42  72  98 144 180 242 298 356 424
#     4  11  19  38  66 104 124 182 230 277 336 421
#     4  10  23  42  67 101 141 185 234 303 353 436
#     4  10  22  41  64  94 139 172 229 280 343 417
#     4  11  20  40  68  94 134 185 224 283 335 426
#     4  10  21  40  67  99 136 175 234 287 343 433
#     4  10  23  37  69  97 138 178 232 286 357 414
#
# _framework density 20.829543000000001
#
# number of rings (size 3 to 8) (size 9 to 14) (size 15 to 20)
#    0.923    0.615    5.385    0.923    2.154    0.000 
#    0.000    6.923    0.000    0.000    0.000    0.000 
#    0.000    0.000    0.000    0.000    0.000    0.000 
#
# Total GULP energy -322097.452887 kJ/mol
# GULP energy per Si atom -12388.363573 kJ/mol
# Density = 2.078213 g / cm^3
# Si number density = 20.829543 Si / 1000 Ang^3
#
#
#
# Elastic Constant Matrix: (Units=GPa)
#
#
# Indices 1 2 3 4 5 6 
#
# 1 113.8832 60.1007 37.7175 0.0000 0.0000 0.0000
# 2 60.1007 124.6320 49.4958 0.0000 0.0000 0.0000
# 3 37.7175 49.4958 71.6442 0.0000 0.0000 0.0000
# 4 0.0000 0.0000 0.0000 24.7475 0.0000 0.0000
# 5 0.0000 0.0000 0.0000 0.0000 24.2424 0.0000
# 6 0.0000 0.0000 0.0000 0.0000 0.0000 42.9156
#
#
#
# Elastic Compliance Matrix: (Units=1/GPa)
#
#
# Indices 1 2 3 4 5 6 
#
# 1 0.012314 -0.004635 -0.003280 0.000000 0.000000 0.000000
# 2 -0.004635 0.012802 -0.006404 0.000000 0.000000 0.000000
# 3 -0.003280 -0.006404 0.020109 0.000000 0.000000 0.000000
# 4 0.000000 0.000000 0.000000 0.040408 0.000000 0.000000
# 5 0.000000 0.000000 0.000000 0.000000 0.041250 0.000000
# 6 0.000000 0.000000 0.000000 0.000000 0.000000 0.023302
#
#
# Mechanical properties :
#
#
# Convention : Reuss Voigt Hill
#
# Bulk Modulus (GPa) = 60.29368 67.19859 63.74614
# Shear Modulus (GPa) = 27.12195 29.23745 28.17970
#
# Velocity S-wave (km/s) = 3.61236 3.75060 3.68213
# Velocity P-wave (km/s) = 6.81234 7.14753 6.98195
#
# Compressibility (1/GPa) = 0.01658549
#
# Stress axis : x y z
#
# Youngs Moduli (GPa) = 81.21165 78.11173 49.72847
#
# Poissons Ratio (x) = 0.36206 0.16312
# Poissons Ratio (y) = 0.37643 0.31847
# Poissons Ratio (z) = 0.26640 0.50025
#
# Static dielectric constant tensor:
#      x y z
#    x 5.343610 0.000000 0.000000 
#    y 0.000000 3.914640 0.000000 
#    z 0.000000 0.000000 3.670660 
# 
# 
# High freq. dielectric constant tensor:
#      x y z
#    x 1.816660 0.000000 0.000000 
#    y 0.000000 1.822350 0.000000 
#    z 0.000000 0.000000 1.780770 
# 
# From -- ./inp_files/16649.got.cif
#   From: 2010.06.25/outbox.cif.g09.slc.cpg/sg43_9_cif.got.tgz:16649.got - 2010.06.26 16:48:59.
