data_PCOD8187015
_publ_section_title
;
Structure prediction by ZEFSAII (Michael W. Deem and Ramdas Pophale) SiO2 
 PCOD8187015
Probable space group: F D D 2
;
_chemical_formula_sum "Si O2"
_cell_formula_units_Z 112
_cell_length_a 14.473525
_cell_length_b 12.070773
_cell_length_c 29.258565
_cell_angle_alpha 90.000000
_cell_angle_beta 90.000000
_cell_angle_gamma 90.000000
_cell_volume 5111.665430
_symmetry_space_group_name_H-M "F D D 2"
_symmetry_group_IT_number 43
_symmetry_cell_setting 'orthorhombic'
loop_
_space_group_symop_operation_xyz
x,y,z
-x,-y,z
1/4-x,1/4+y,1/4+z
1/4+x,1/4-y,1/4+z
x,1/2+y,1/2+z
-x,1/2-y,1/2+z
1/4-x,3/4+y,3/4+z
1/4+x,3/4-y,3/4+z
1/2+x,y,1/2+z
1/2-x,-y,1/2+z
3/4-x,1/4+y,3/4+z
3/4+x,1/4-y,3/4+z
1/2+x,1/2+y,z
1/2-x,1/2-y,z
3/4-x,3/4+y,1/4+z
3/4+x,3/4-y,1/4+z
loop_
_atom_site_type_symbol
_atom_site_label
_atom_site_fract_x
_atom_site_fract_y
_atom_site_fract_z
Si Si1 0.576587 0.574833 0.713250
Si Si2 0.020566 0.213490 0.797161
Si Si3 0.496539 0.256281 0.507416
Si Si4 0.169284 0.171886 0.323003
Si Si5 0.451924 0.233986 0.651421
Si Si6 0.307612 0.357710 0.843238
Si Si7 0.186052 0.153629 0.485094
O O1 0.500000 0.500000 0.687523
O O2 0.520988 0.620214 0.757840
O O3 0.663085 0.496047 0.725704
O O4 0.609079 0.673237 0.678624
O O5 0.082611 0.170535 0.839956
O O6 0.073109 0.319151 0.776867
O O7 0.917585 0.248930 0.812106
O O8 0.461143 0.139524 0.528258
O O9 0.520705 0.348203 0.544971
O O10 0.416305 0.302644 0.474523
O O11 0.250000 0.250000 0.342957
O O12 0.144512 0.078765 0.361383
O O13 0.542288 0.294463 0.630439
O O14 0.483405 0.145442 0.689494
O O15 0.250000 0.250000 0.857164
O O16 0.250000 0.250000 0.504597
#
# Coordination Sequence:
#
# PCOD8187015 Si02
#       7
#    16  16  16  16  16  16  16
#     4  10  21  41  61  90 127 169 210 262 319 386
#     4  10  21  36  69  91 116 166 215 261 315 381
#     4  10  21  37  66  93 117 166 217 269 311 377
#     4  11  22  42  64  95 123 168 216 269 316 385
#     4  10  24  38  60  86 135 166 199 265 329 369
#     4  10  19  38  60  90 124 156 208 264 314 372
#     4  11  20  40  62  90 127 162 211 262 322 383
#
# _framework density 21.910668000000001
#
# number of rings (size 3 to 8) (size 9 to 14) (size 15 to 20)
#    0.000    1.714    2.857    1.714    0.000    0.000 
#    7.714    0.000    3.143    0.000    0.000    0.000 
#    0.000    0.000    0.000    0.000    0.000    0.000 
#
# Total GULP energy -346980.483231 kJ/mol
# GULP energy per Si atom -12392.160115 kJ/mol
# Density = 2.186080 g / cm^3
# Si number density = 21.910668 Si / 1000 Ang^3
#
#
#
# Elastic Constant Matrix: (Units=GPa)
#
#
# Indices 1 2 3 4 5 6 
#
# 1 152.2975 45.7967 38.3274 0.0000 0.0000 0.0000
# 2 45.7967 82.1436 25.7835 0.0000 0.0000 0.0000
# 3 38.3274 25.7835 79.5384 0.0000 0.0000 0.0000
# 4 0.0000 0.0000 0.0000 20.2092 0.0000 0.0000
# 5 0.0000 0.0000 0.0000 0.0000 12.8182 0.0000
# 6 0.0000 0.0000 0.0000 0.0000 0.0000 40.9097
#
#
#
# Elastic Compliance Matrix: (Units=1/GPa)
#
#
# Indices 1 2 3 4 5 6 
#
# 1 0.008422 -0.003809 -0.002824 0.000000 0.000000 0.000000
# 2 -0.003809 0.015276 -0.003116 0.000000 0.000000 0.000000
# 3 -0.002824 -0.003116 0.014943 0.000000 0.000000 0.000000
# 4 0.000000 0.000000 0.000000 0.049482 0.000000 0.000000
# 5 0.000000 0.000000 0.000000 0.000000 0.078014 0.000000
# 6 0.000000 0.000000 0.000000 0.000000 0.000000 0.024444
#
#
# Mechanical properties :
#
#
# Convention : Reuss Voigt Hill
#
# Bulk Modulus (GPa) = 52.23846 59.31053 55.77450
# Shear Modulus (GPa) = 23.09884 28.39221 25.74553
#
# Velocity S-wave (km/s) = 3.25041 3.60365 3.43158
# Velocity P-wave (km/s) = 6.16281 6.66656 6.41963
#
# Compressibility (1/GPa) = 0.01914298
#
# Stress axis : x y z
#
# Youngs Moduli (GPa) = 118.73471 65.46357 66.91951
#
# Poissons Ratio (x) = 0.24937 0.18895
# Poissons Ratio (y) = 0.45229 0.20854
# Poissons Ratio (z) = 0.33526 0.20400
#
# Static dielectric constant tensor:
#      x y z
#    x 3.728790 0.000000 0.000000 
#    y 0.000000 4.132380 0.000000 
#    z 0.000000 0.000000 3.862120 
# 
# 
# High freq. dielectric constant tensor:
#      x y z
#    x 1.836600 0.000000 0.000000 
#    y 0.000000 1.875470 0.000000 
#    z 0.000000 0.000000 1.848990 
# 
# From -- ./inp_files/29071.got.cif
#   From: 2010.06.25/outbox.cif.g09.slc.cpg/sg43_15_cif.got.tgz:29071.got - 2010.06.26 16:48:59.
