data_PCOD8187474
_publ_section_title
;
Structure prediction by ZEFSAII (Michael W. Deem and Ramdas Pophale) SiO2 
 PCOD8187474
Probable space group: F D D 2
;
_chemical_formula_sum "Si O2"
_cell_formula_units_Z 120
_cell_length_a 22.920384
_cell_length_b 18.912721
_cell_length_c 13.221543
_cell_angle_alpha 90.000000
_cell_angle_beta 90.000000
_cell_angle_gamma 90.000000
_cell_volume 5731.364734
_symmetry_space_group_name_H-M "F D D 2"
_symmetry_group_IT_number 43
_symmetry_cell_setting 'orthorhombic'
loop_
_space_group_symop_operation_xyz
x,y,z
-x,-y,z
1/4-x,1/4+y,1/4+z
1/4+x,1/4-y,1/4+z
x,1/2+y,1/2+z
-x,1/2-y,1/2+z
1/4-x,3/4+y,3/4+z
1/4+x,3/4-y,3/4+z
1/2+x,y,1/2+z
1/2-x,-y,1/2+z
3/4-x,1/4+y,3/4+z
3/4+x,1/4-y,3/4+z
1/2+x,1/2+y,z
1/2-x,1/2-y,z
3/4-x,3/4+y,1/4+z
3/4+x,3/4-y,1/4+z
loop_
_atom_site_type_symbol
_atom_site_label
_atom_site_fract_x
_atom_site_fract_y
_atom_site_fract_z
Si Si1 0.283407 0.355298 0.544790
Si Si2 0.526929 0.664990 0.715314
Si Si3 0.079884 0.046035 0.362202
Si Si4 0.209288 0.560412 0.856978
Si Si5 0.579799 0.932850 0.233095
Si Si6 0.954344 0.358136 0.450803
Si Si7 0.857284 0.687135 0.844178
Si Si8 0.250000 0.750000 0.647076
O O1 0.216369 0.357443 0.582730
O O2 0.309423 0.279109 0.570542
O O3 0.282476 0.368616 0.423943
O O4 0.323885 0.416548 0.595720
O O5 0.524294 0.745424 0.680371
O O6 0.465220 0.626716 0.695493
O O7 0.546276 0.661788 0.832415
O O8 0.574970 0.627437 0.647083
O O9 0.143373 0.059767 0.314170
O O10 0.084451 0.048988 0.482361
O O11 0.251235 0.557438 0.760171
O O12 0.641470 0.895772 0.254825
O O13 0.554035 0.972794 0.329660
O O14 0.593394 0.989966 0.148018
O O15 0.976078 0.438094 0.467310
#
# Coordination Sequence:
#
# PCOD8187474 Si02
#       8
#    16  16  16  16  16  16  16   8
#     4  10  23  40  67  98 135 175 224 280 343 406
#     4  11  24  43  64 105 135 171 229 279 342 410
#     4  10  23  42  66  98 135 178 226 285 343 395
#     4  11  25  46  64 101 137 178 232 277 341 415
#     4  11  23  41  69  97 134 175 220 286 339 399
#     4  11  25  44  70  92 137 184 222 284 339 410
#     4  11  21  40  67 102 139 168 221 292 339 402
#     4  10  24  46  60 102 128 174 236 268 332 412
#
# _framework density 20.937421000000001
#
# number of rings (size 3 to 8) (size 9 to 14) (size 15 to 20)
#    0.000    1.333    4.000    1.600    5.600    5.333 
#    0.000    0.000    0.000    0.000    0.000    0.000 
#    0.000    0.000    0.000    0.000    0.000    0.000 
#
# Total GULP energy -371927.299115 kJ/mol
# GULP energy per Si atom -12397.576637 kJ/mol
# Density = 2.088977 g / cm^3
# Si number density = 20.937421 Si / 1000 Ang^3
#
#
#
# Elastic Constant Matrix: (Units=GPa)
#
#
# Indices 1 2 3 4 5 6 
#
# 1 162.4588 48.8469 22.1584 0.0000 0.0000 0.0000
# 2 48.8469 93.6180 37.1437 0.0000 0.0000 0.0000
# 3 22.1584 37.1437 47.6807 0.0000 0.0000 0.0000
# 4 0.0000 0.0000 0.0000 19.3246 0.0000 0.0000
# 5 0.0000 0.0000 0.0000 0.0000 16.6540 0.0000
# 6 0.0000 0.0000 0.0000 0.0000 0.0000 30.4569
#
#
#
# Elastic Compliance Matrix: (Units=1/GPa)
#
#
# Indices 1 2 3 4 5 6 
#
# 1 0.007313 -0.003571 -0.000617 0.000000 0.000000 0.000000
# 2 -0.003571 0.017204 -0.011742 0.000000 0.000000 0.000000
# 3 -0.000617 -0.011742 0.030407 0.000000 0.000000 0.000000
# 4 0.000000 0.000000 0.000000 0.051748 0.000000 0.000000
# 5 0.000000 0.000000 0.000000 0.000000 0.060046 0.000000
# 6 0.000000 0.000000 0.000000 0.000000 0.000000 0.032833
#
#
# Mechanical properties :
#
#
# Convention : Reuss Voigt Hill
#
# Bulk Modulus (GPa) = 43.35845 57.78395 50.57120
# Shear Modulus (GPa) = 20.91183 26.32765 23.61974
#
# Velocity S-wave (km/s) = 3.16377 3.54989 3.36238
# Velocity P-wave (km/s) = 5.83948 6.66788 6.26738
#
# Compressibility (1/GPa) = 0.02306356
#
# Stress axis : x y z
#
# Youngs Moduli (GPa) = 136.73775 58.12628 32.88728
#
# Poissons Ratio (x) = 0.20758 0.02028
# Poissons Ratio (y) = 0.48831 0.38618
# Poissons Ratio (z) = 0.08433 0.68254
#
# Static dielectric constant tensor:
#      x y z
#    x 4.399590 0.000000 0.000000 
#    y 0.000000 3.942590 0.000000 
#    z 0.000000 0.000000 3.617530 
# 
# 
# High freq. dielectric constant tensor:
#      x y z
#    x 1.835930 0.000000 0.000000 
#    y 0.000000 1.824820 0.000000 
#    z 0.000000 0.000000 1.805840 
# 
# From -- ./inp_files/11319.got.cif
#   From: 2010.06.25/outbox.cif.g09.slc.cpg/sg43_6_cif.got.tgz:11319.got - 2010.06.26 16:48:59.
