data_PCOD8187305
_publ_section_title
;
Structure prediction by ZEFSAII (Michael W. Deem and Ramdas Pophale) SiO2 
 PCOD8187305
Probable space group: F D D 2
;
_chemical_formula_sum "Si O2"
_cell_formula_units_Z 96
_cell_length_a 23.368106
_cell_length_b 19.909699
_cell_length_c 9.329461
_cell_angle_alpha 90.000000
_cell_angle_beta 90.000000
_cell_angle_gamma 90.000000
_cell_volume 4340.549985
_symmetry_space_group_name_H-M "F D D 2"
_symmetry_group_IT_number 43
_symmetry_cell_setting 'orthorhombic'
loop_
_space_group_symop_operation_xyz
x,y,z
-x,-y,z
1/4-x,1/4+y,1/4+z
1/4+x,1/4-y,1/4+z
x,1/2+y,1/2+z
-x,1/2-y,1/2+z
1/4-x,3/4+y,3/4+z
1/4+x,3/4-y,3/4+z
1/2+x,y,1/2+z
1/2-x,-y,1/2+z
3/4-x,1/4+y,3/4+z
3/4+x,1/4-y,3/4+z
1/2+x,1/2+y,z
1/2-x,1/2-y,z
3/4-x,3/4+y,1/4+z
3/4+x,3/4-y,1/4+z
loop_
_atom_site_type_symbol
_atom_site_label
_atom_site_fract_x
_atom_site_fract_y
_atom_site_fract_z
Si Si1 0.366680 0.020591 0.231860
Si Si2 0.294710 0.695592 0.087138
Si Si3 0.974389 0.572563 0.381302
Si Si4 0.310096 0.652225 0.394398
Si Si5 0.740851 0.918928 0.378976
Si Si6 0.094127 0.737211 0.164267
O O1 0.409833 0.065943 0.324928
O O2 0.305076 0.031329 0.305145
O O3 0.388239 0.942995 0.223528
O O4 0.365475 0.043046 0.066301
O O5 0.250000 0.750000 0.025224
O O6 0.284226 0.690096 0.257316
O O7 0.359460 0.722919 0.069375
O O8 0.288115 0.625460 0.003589
O O9 0.000000 0.500000 0.420354
O O10 0.009588 0.608565 0.256161
O O11 0.977591 0.619920 0.518127
O O12 0.330266 0.580945 0.329301
O O13 0.789612 0.965909 0.445915
#
# Coordination Sequence:
#
# PCOD8187305 Si02
#       6
#    16  16  16  16  16  16
#     4  10  23  44  67 100 136 182 229 284 344 410
#     4  11  26  44  69  99 145 182 221 295 358 409
#     4  10  21  45  70  96 135 184 232 280 342 412
#     4  10  22  44  71  96 134 187 235 277 345 420
#     4  12  25  43  68 110 135 179 232 296 344 413
#     4  11  25  44  69 101 136 183 238 284 342 420
#
# _framework density 22.117013
#
# number of rings (size 3 to 8) (size 9 to 14) (size 15 to 20)
#    0.000    1.333    1.667    4.000    7.000    1.333 
#    6.000    0.000    0.000    0.000    0.000    0.000 
#    0.000    0.000    0.000    0.000    0.000    0.000 
#
# Total GULP energy -297511.542367 kJ/mol
# GULP energy per Si atom -12396.314265 kJ/mol
# Density = 2.206667 g / cm^3
# Si number density = 22.117013 Si / 1000 Ang^3
#
#
#
# Elastic Constant Matrix: (Units=GPa)
#
#
# Indices 1 2 3 4 5 6 
#
# 1 128.7361 56.0819 28.6522 0.0001 0.0000 0.0000
# 2 56.0819 124.4805 32.8540 0.0004 -0.0002 -0.0001
# 3 28.6522 32.8540 81.3382 0.0014 -0.0008 -0.0004
# 4 0.0001 0.0004 0.0014 30.2004 -0.0004 -0.0002
# 5 0.0000 -0.0002 -0.0008 -0.0004 30.2978 0.0001
# 6 0.0000 -0.0001 -0.0004 -0.0002 0.0001 33.9450
#
#
#
# Elastic Compliance Matrix: (Units=1/GPa)
#
#
# Indices 1 2 3 4 5 6 
#
# 1 0.009918 -0.003969 -0.001890 0.000000 0.000000 0.000000
# 2 -0.003969 0.010581 -0.002875 0.000000 0.000000 0.000000
# 3 -0.001890 -0.002875 0.014122 -0.000001 0.000000 0.000000
# 4 0.000000 0.000000 -0.000001 0.033112 0.000000 0.000000
# 5 0.000000 0.000000 0.000000 0.000000 0.033006 0.000000
# 6 0.000000 0.000000 0.000000 0.000000 0.000000 0.029459
#
#
# Mechanical properties :
#
#
# Convention : Reuss Voigt Hill
#
# Bulk Modulus (GPa) = 58.30978 63.30344 60.80661
# Shear Modulus (GPa) = 32.59793 33.35310 32.97551
#
# Velocity S-wave (km/s) = 3.84329 3.88755 3.86548
# Velocity P-wave (km/s) = 6.79087 6.98820 6.89024
#
# Compressibility (1/GPa) = 0.01714978
#
# Stress axis : x y z
#
# Youngs Moduli (GPa) = 100.82968 94.51283 70.81304
#
# Poissons Ratio (x) = 0.37515 0.13386
# Poissons Ratio (y) = 0.40022 0.20362
# Poissons Ratio (z) = 0.19060 0.27177
#
# Static dielectric constant tensor:
#      x y z
#    x 4.034580 0.000000 0.000000 
#    y 0.000000 4.003950 0.000000 
#    z 0.000000 0.000000 3.788760 
# 
# 
# High freq. dielectric constant tensor:
#      x y z
#    x 1.871870 0.000000 0.000000 
#    y 0.000000 1.874300 0.000000 
#    z 0.000000 0.000000 1.862830 
# 
# From -- ./inp_files/3738.got.cif
#   From: 2010.06.25/outbox.cif.g09.slc.cpg/sg43_2_cif.got.tgz:3738.got - 2010.06.26 16:48:59.
