data_PCOD8187456
_publ_section_title
;
Structure prediction by ZEFSAII (Michael W. Deem and Ramdas Pophale) SiO2 
 PCOD8187456
Probable space group: F D D 2
;
_chemical_formula_sum "Si O2"
_cell_formula_units_Z 72
_cell_length_a 21.974249
_cell_length_b 13.424912
_cell_length_c 9.830897
_cell_angle_alpha 90.000000
_cell_angle_beta 90.000000
_cell_angle_gamma 90.000000
_cell_volume 2900.137807
_symmetry_space_group_name_H-M "F D D 2"
_symmetry_group_IT_number 43
_symmetry_cell_setting 'orthorhombic'
loop_
_space_group_symop_operation_xyz
x,y,z
-x,-y,z
1/4-x,1/4+y,1/4+z
1/4+x,1/4-y,1/4+z
x,1/2+y,1/2+z
-x,1/2-y,1/2+z
1/4-x,3/4+y,3/4+z
1/4+x,3/4-y,3/4+z
1/2+x,y,1/2+z
1/2-x,-y,1/2+z
3/4-x,1/4+y,3/4+z
3/4+x,1/4-y,3/4+z
1/2+x,1/2+y,z
1/2-x,1/2-y,z
3/4-x,3/4+y,1/4+z
3/4+x,3/4-y,1/4+z
loop_
_atom_site_type_symbol
_atom_site_label
_atom_site_fract_x
_atom_site_fract_y
_atom_site_fract_z
Si Si1 0.651988 0.777100 0.612130
Si Si2 0.219118 0.404752 0.254251
Si Si3 0.750000 0.750000 0.837205
Si Si4 0.583773 0.463533 0.076472
Si Si5 0.772899 0.044174 0.456552
O O1 0.689999 0.755570 0.745956
O O2 0.685108 0.723926 0.485730
O O3 0.644828 0.895741 0.574885
O O4 0.585518 0.729168 0.629891
O O5 0.161512 0.326720 0.264474
O O6 0.280811 0.341639 0.246114
O O7 0.220695 0.474804 0.388394
O O8 0.216845 0.472842 0.118300
O O9 0.750103 0.656267 0.936438
#
# Coordination Sequence:
#
# PCOD8187456 Si02
#       5
#    16  16   8  16  16
#     4  11  24  45  73 114 142 200 249 311 379 447
#     4  10  24  46  74 105 149 192 246 304 380 447
#     4  12  24  44  76 100 158 194 250 312 368 450
#     4  10  22  45  71 103 149 187 249 300 372 445
#     4  11  26  46  75 113 150 195 251 307 379 455
#
# _framework density 24.826405000000001
#
# number of rings (size 3 to 8) (size 9 to 14) (size 15 to 20)
#    0.000    1.333    2.222    2.667    9.333    0.000 
#   16.000    0.000    0.000    0.000    0.000    0.000 
#    0.000    0.000    0.000    0.000    0.000    0.000 
#
# Total GULP energy -223051.615633 kJ/mol
# GULP energy per Si atom -12391.756424 kJ/mol
# Density = 2.476990 g / cm^3
# Si number density = 24.826405 Si / 1000 Ang^3
#
#
#
# Elastic Constant Matrix: (Units=GPa)
#
#
# Indices 1 2 3 4 5 6 
#
# 1 57.8357 28.6411 8.8283 0.0000 0.0000 0.0000
# 2 28.6411 132.0790 30.6834 0.0000 0.0000 0.0000
# 3 8.8283 30.6834 129.8402 0.0000 0.0000 0.0000
# 4 0.0000 0.0000 0.0000 45.7798 0.0000 0.0000
# 5 0.0000 0.0000 0.0000 0.0000 31.1541 0.0000
# 6 0.0000 0.0000 0.0000 0.0000 0.0000 24.8767
#
#
#
# Elastic Compliance Matrix: (Units=1/GPa)
#
#
# Indices 1 2 3 4 5 6 
#
# 1 0.019385 -0.004124 -0.000344 0.000000 0.000000 0.000000
# 2 -0.004124 0.008888 -0.001820 0.000000 0.000000 0.000000
# 3 -0.000344 -0.001820 0.008155 0.000000 0.000000 0.000000
# 4 0.000000 0.000000 0.000000 0.021844 0.000000 0.000000
# 5 0.000000 0.000000 0.000000 0.000000 0.032098 0.000000
# 6 0.000000 0.000000 0.000000 0.000000 0.000000 0.040198
#
#
# Mechanical properties :
#
#
# Convention : Reuss Voigt Hill
#
# Bulk Modulus (GPa) = 41.92214 50.67335 46.29775
# Shear Modulus (GPa) = 33.09178 37.13560 35.11369
#
# Velocity S-wave (km/s) = 3.65489 3.87177 3.76489
# Velocity P-wave (km/s) = 5.89353 6.35947 6.13093
#
# Compressibility (1/GPa) = 0.02385374
#
# Stress axis : x y z
#
# Youngs Moduli (GPa) = 51.58639 112.50772 122.62048
#
# Poissons Ratio (x) = 0.46396 0.04212
# Poissons Ratio (y) = 0.21273 0.22318
# Poissons Ratio (z) = 0.01772 0.20477
#
# Static dielectric constant tensor:
#      x y z
#    x 4.138110 0.000000 0.000000 
#    y 0.000000 5.194340 0.000000 
#    z 0.000000 0.000000 4.277540 
# 
# 
# High freq. dielectric constant tensor:
#      x y z
#    x 1.957620 0.000000 0.000000 
#    y 0.000000 1.999570 0.000000 
#    z 0.000000 0.000000 1.991060 
# 
# From -- ./inp_files/2325.got.cif
#   From: 2010.06.25/outbox.cif.g09.slc.cpg/sg43_2_cif.got.tgz:2325.got - 2010.06.26 16:48:59.
