data_PCOD8187051
_publ_section_title
;
Structure prediction by ZEFSAII (Michael W. Deem and Ramdas Pophale) SiO2 
 PCOD8187051
Probable space group: F D D 2
;
_chemical_formula_sum "Si O2"
_cell_formula_units_Z 120
_cell_length_a 21.591707
_cell_length_b 9.709418
_cell_length_c 27.699034
_cell_angle_alpha 90.000000
_cell_angle_beta 90.000000
_cell_angle_gamma 90.000000
_cell_volume 5806.906053
_symmetry_space_group_name_H-M "F D D 2"
_symmetry_group_IT_number 43
_symmetry_cell_setting 'orthorhombic'
loop_
_space_group_symop_operation_xyz
x,y,z
-x,-y,z
1/4-x,1/4+y,1/4+z
1/4+x,1/4-y,1/4+z
x,1/2+y,1/2+z
-x,1/2-y,1/2+z
1/4-x,3/4+y,3/4+z
1/4+x,3/4-y,3/4+z
1/2+x,y,1/2+z
1/2-x,-y,1/2+z
3/4-x,1/4+y,3/4+z
3/4+x,1/4-y,3/4+z
1/2+x,1/2+y,z
1/2-x,1/2-y,z
3/4-x,3/4+y,1/4+z
3/4+x,3/4-y,1/4+z
loop_
_atom_site_type_symbol
_atom_site_label
_atom_site_fract_x
_atom_site_fract_y
_atom_site_fract_z
Si Si1 0.250000 0.750000 0.937001
Si Si2 0.678880 0.224450 0.379022
Si Si3 0.092172 0.509020 0.602534
Si Si4 0.597967 0.207720 0.061733
Si Si5 0.104486 0.511522 0.232408
Si Si6 0.964076 0.128588 0.819102
Si Si7 0.700592 0.546728 0.508269
Si Si8 0.540917 0.757455 0.051345
O O1 0.187189 0.746345 0.905429
O O2 0.251755 0.884822 0.970566
O O3 0.750000 0.250000 0.391376
O O4 0.645628 0.360037 0.358186
O O5 0.645615 0.191613 0.429681
O O6 0.672048 0.100621 0.340695
O O7 0.106060 0.365058 0.576579
O O8 0.160076 0.578319 0.606060
O O9 0.043661 0.601326 0.571517
O O10 0.648066 0.159675 0.022149
O O11 0.528117 0.188801 0.041621
O O12 0.064700 0.416760 0.267911
O O13 0.078346 0.666212 0.231085
O O14 0.175210 0.517938 0.250188
O O15 0.012075 0.251819 0.806678
O O16 0.000000 0.000000 0.843264
#
# Coordination Sequence:
#
# PCOD8187051 Si02
#       8
#     8  16  16  16  16  16  16  16
#     4  12  24  38  62  94 126 162 222 266 320 386
#     4  10  20  35  63  92 122 165 222 264 319 390
#     4  11  22  39  64  90 128 166 214 266 317 389
#     4  11  21  39  63  94 131 168 211 265 334 387
#     4  10  20  36  62  95 127 166 219 271 313 389
#     4   9  21  40  62  92 128 168 211 264 330 381
#     4  11  22  38  61  92 128 166 213 267 327 391
#     4  10  21  39  61  94 130 171 212 266 324 387
#
# _framework density 20.665049
#
# number of rings (size 3 to 8) (size 9 to 14) (size 15 to 20)
#    0.000    1.600    2.667    2.800    3.733    0.000 
#    0.000    1.333    0.000    3.200    0.000    0.000 
#    0.000    0.000    0.000    0.000    0.000    0.000 
#
# Total GULP energy -371986.727480 kJ/mol
# GULP energy per Si atom -12399.557583 kJ/mol
# Density = 2.061801 g / cm^3
# Si number density = 20.665049 Si / 1000 Ang^3
#
#
#
# Elastic Constant Matrix: (Units=GPa)
#
#
# Indices 1 2 3 4 5 6 
#
# 1 100.3138 29.7213 34.7854 0.0000 0.0000 0.0000
# 2 29.7213 111.7324 28.1387 0.0000 0.0000 0.0001
# 3 34.7854 28.1387 81.6971 0.0000 0.0000 0.0000
# 4 0.0000 0.0000 0.0000 20.3567 0.0000 0.0000
# 5 0.0000 0.0000 0.0000 0.0000 18.4240 0.0000
# 6 0.0000 0.0001 0.0000 0.0000 0.0000 32.8656
#
#
#
# Elastic Compliance Matrix: (Units=1/GPa)
#
#
# Indices 1 2 3 4 5 6 
#
# 1 0.012133 -0.002109 -0.004440 0.000000 0.000000 0.000000
# 2 -0.002109 0.010167 -0.002604 0.000000 0.000000 0.000000
# 3 -0.004440 -0.002604 0.015027 0.000000 0.000000 0.000000
# 4 0.000000 0.000000 0.000000 0.049124 0.000000 0.000000
# 5 0.000000 0.000000 0.000000 0.000000 0.054277 0.000000
# 6 0.000000 0.000000 0.000000 0.000000 0.000000 0.030427
#
#
# Mechanical properties :
#
#
# Convention : Reuss Voigt Hill
#
# Bulk Modulus (GPa) = 52.57012 53.22602 52.89807
# Shear Modulus (GPa) = 25.53614 27.73579 26.63597
#
# Velocity S-wave (km/s) = 3.51909 3.66752 3.59407
# Velocity P-wave (km/s) = 6.48123 6.61413 6.54802
#
# Compressibility (1/GPa) = 0.01902221
#
# Stress axis : x y z
#
# Youngs Moduli (GPa) = 82.41842 98.35992 66.54520
#
# Poissons Ratio (x) = 0.20748 0.29543
# Poissons Ratio (y) = 0.17385 0.17325
# Poissons Ratio (z) = 0.36590 0.25608
#
# Static dielectric constant tensor:
#      x y z
#    x 3.888820 0.000000 0.000000 
#    y 0.000000 3.893770 0.000000 
#    z 0.000000 0.000000 3.380110 
# 
# 
# High freq. dielectric constant tensor:
#      x y z
#    x 1.808450 0.000000 0.000000 
#    y 0.000000 1.822130 0.000000 
#    z 0.000000 0.000000 1.773540 
# 
# From -- ./inp_files/29871.got.cif
#   From: 2010.06.25/outbox.cif.g09.slc.cpg/sg43_15_cif.got.tgz:29871.got - 2010.06.26 16:48:59.
