data_PCOD8187297
_publ_section_title
;
Structure prediction by ZEFSAII (Michael W. Deem and Ramdas Pophale) SiO2 
 PCOD8187297
Probable space group: F D D 2
;
_chemical_formula_sum "Si O2"
_cell_formula_units_Z 112
_cell_length_a 13.922623
_cell_length_b 15.071954
_cell_length_c 25.079158
_cell_angle_alpha 90.000000
_cell_angle_beta 90.000000
_cell_angle_gamma 90.000000
_cell_volume 5262.638940
_symmetry_space_group_name_H-M "F D D 2"
_symmetry_group_IT_number 43
_symmetry_cell_setting 'orthorhombic'
loop_
_space_group_symop_operation_xyz
x,y,z
-x,-y,z
1/4-x,1/4+y,1/4+z
1/4+x,1/4-y,1/4+z
x,1/2+y,1/2+z
-x,1/2-y,1/2+z
1/4-x,3/4+y,3/4+z
1/4+x,3/4-y,3/4+z
1/2+x,y,1/2+z
1/2-x,-y,1/2+z
3/4-x,1/4+y,3/4+z
3/4+x,1/4-y,3/4+z
1/2+x,1/2+y,z
1/2-x,1/2-y,z
3/4-x,3/4+y,1/4+z
3/4+x,3/4-y,1/4+z
loop_
_atom_site_type_symbol
_atom_site_label
_atom_site_fract_x
_atom_site_fract_y
_atom_site_fract_z
Si Si1 0.983285 0.176577 0.656630
Si Si2 0.801203 0.843566 0.687905
Si Si3 0.932542 0.608373 0.267401
Si Si4 0.143148 0.067369 0.794593
Si Si5 0.401094 0.038754 0.537017
Si Si6 0.872335 0.547668 0.653919
Si Si7 0.054761 0.627950 0.692754
O O1 0.098417 0.166433 0.656839
O O2 0.941476 0.112135 0.702668
O O3 0.943521 0.150002 0.598790
O O4 0.945694 0.276145 0.665744
O O5 0.750000 0.750000 0.685452
O O6 0.811871 0.871734 0.748963
O O7 0.736085 0.918522 0.659669
O O8 0.846208 0.539003 0.281792
O O9 0.918938 0.705263 0.291278
O O10 0.029702 0.579890 0.296227
O O11 0.413890 0.077625 0.596301
O O12 0.353351 0.114891 0.500954
O O13 0.500000 0.000000 0.512400
O O14 0.878973 0.440866 0.659603
O O15 0.944801 0.592372 0.697165
#
# Coordination Sequence:
#
# PCOD8187297 Si02
#       7
#    16  16  16  16  16  16  16
#     4  10  21  44  67  94 133 173 218 280 334 393
#     4  11  24  42  63  96 135 172 225 274 323 403
#     4   9  22  42  62 101 128 163 229 271 321 410
#     4  10  22  42  69  88 133 177 217 271 335 391
#     4  11  23  41  66  95 134 169 210 284 335 382
#     4  11  23  42  65  93 134 172 221 274 330 399
#     4  10  22  41  65  94 130 169 221 266 328 406
#
# _framework density 21.282098000000001
#
# number of rings (size 3 to 8) (size 9 to 14) (size 15 to 20)
#    0.000    1.714    2.857    0.857    2.000    2.286 
#   20.571    0.000    0.000    0.000    0.000    0.000 
#    0.000    0.000    0.000    0.000    0.000    0.000 
#
# Total GULP energy -347105.618324 kJ/mol
# GULP energy per Si atom -12396.629226 kJ/mol
# Density = 2.123366 g / cm^3
# Si number density = 21.282098 Si / 1000 Ang^3
#
#
#
# Elastic Constant Matrix: (Units=GPa)
#
#
# Indices 1 2 3 4 5 6 
#
# 1 107.6052 35.6267 71.6612 0.0000 0.0000 0.0000
# 2 35.6267 62.9092 32.7419 0.0000 0.0000 0.0000
# 3 71.6612 32.7419 138.9066 0.0000 0.0000 0.0000
# 4 0.0000 0.0000 0.0000 26.5923 0.0000 0.0000
# 5 0.0000 0.0000 0.0000 0.0000 28.5905 0.0000
# 6 0.0000 0.0000 0.0000 0.0000 0.0000 32.5242
#
#
#
# Elastic Compliance Matrix: (Units=1/GPa)
#
#
# Indices 1 2 3 4 5 6 
#
# 1 0.015558 -0.005281 -0.006781 0.000000 0.000000 0.000000
# 2 -0.005281 0.019911 -0.001969 0.000000 0.000000 0.000000
# 3 -0.006781 -0.001969 0.011162 0.000000 0.000000 0.000000
# 4 0.000000 0.000000 0.000000 0.037605 0.000000 0.000000
# 5 0.000000 0.000000 0.000000 0.000000 0.034977 0.000000
# 6 0.000000 0.000000 0.000000 0.000000 0.000000 0.030746
#
#
# Mechanical properties :
#
#
# Convention : Reuss Voigt Hill
#
# Bulk Modulus (GPa) = 53.85573 65.49785 59.67679
# Shear Modulus (GPa) = 27.14272 28.83413 27.98842
#
# Velocity S-wave (km/s) = 3.57512 3.68483 3.63039
# Velocity P-wave (km/s) = 6.51172 6.99620 6.75830
#
# Compressibility (1/GPa) = 0.01856813
#
# Stress axis : x y z
#
# Youngs Moduli (GPa) = 64.27565 50.22224 89.59252
#
# Poissons Ratio (x) = 0.26524 0.60756
# Poissons Ratio (y) = 0.33946 0.17639
# Poissons Ratio (z) = 0.43588 0.09888
#
# Static dielectric constant tensor:
#      x y z
#    x 3.880870 0.000000 0.000000 
#    y 0.000000 4.208920 0.000000 
#    z 0.000000 0.000000 3.764180 
# 
# 
# High freq. dielectric constant tensor:
#      x y z
#    x 1.832980 0.000000 0.000000 
#    y 0.000000 1.841650 0.000000 
#    z 0.000000 0.000000 1.822820 
# 
# From -- ./inp_files/21736.got.cif
#   From: 2010.06.25/outbox.cif.g09.slc.cpg/sg43_11_cif.got.tgz:21736.got - 2010.06.26 16:48:59.
