data_PCOD8187095
_publ_section_title
;
Structure prediction by ZEFSAII (Michael W. Deem and Ramdas Pophale) SiO2 
 PCOD8187095
Probable space group: F D D 2
;
_chemical_formula_sum "Si O2"
_cell_formula_units_Z 112
_cell_length_a 12.359300
_cell_length_b 30.117062
_cell_length_c 14.066034
_cell_angle_alpha 90.000000
_cell_angle_beta 90.000000
_cell_angle_gamma 90.000000
_cell_volume 5235.740820
_symmetry_space_group_name_H-M "F D D 2"
_symmetry_group_IT_number 43
_symmetry_cell_setting 'orthorhombic'
loop_
_space_group_symop_operation_xyz
x,y,z
-x,-y,z
1/4-x,1/4+y,1/4+z
1/4+x,1/4-y,1/4+z
x,1/2+y,1/2+z
-x,1/2-y,1/2+z
1/4-x,3/4+y,3/4+z
1/4+x,3/4-y,3/4+z
1/2+x,y,1/2+z
1/2-x,-y,1/2+z
3/4-x,1/4+y,3/4+z
3/4+x,1/4-y,3/4+z
1/2+x,1/2+y,z
1/2-x,1/2-y,z
3/4-x,3/4+y,1/4+z
3/4+x,3/4-y,1/4+z
loop_
_atom_site_type_symbol
_atom_site_label
_atom_site_fract_x
_atom_site_fract_y
_atom_site_fract_z
Si Si1 0.712980 0.533384 0.813600
Si Si2 0.210760 0.702368 0.265855
Si Si3 0.314578 0.568561 0.809954
Si Si4 0.371857 0.646253 0.935810
Si Si5 0.517225 0.324095 0.755333
Si Si6 0.708207 0.201472 0.049114
Si Si7 0.529355 0.079446 0.202936
O O1 0.727625 0.480710 0.832951
O O2 0.829919 0.551942 0.783531
O O3 0.627259 0.547148 0.733510
O O4 0.672319 0.556568 0.911173
O O5 0.250000 0.750000 0.296560
O O6 0.240669 0.689896 0.157719
O O7 0.269403 0.668428 0.338178
O O8 0.081859 0.707593 0.281556
O O9 0.350255 0.594802 0.906227
O O10 0.223653 0.598428 0.756813
O O11 0.416691 0.560600 0.742430
O O12 0.395532 0.673677 0.839075
O O13 0.263257 0.665162 0.982063
O O14 0.454816 0.370908 0.740070
O O15 0.750000 0.250000 0.020515
#
# Coordination Sequence:
#
# PCOD8187095 Si02
#       7
#    16  16  16  16  16  16  16
#     4  11  23  44  71 104 134 177 233 287 332 414
#     4  10  20  38  66  95 126 172 217 271 337 396
#     4  11  24  44  72  97 140 179 231 288 335 410
#     4  11  24  47  69  94 137 185 223 281 357 402
#     4  10  23  42  69  95 134 179 219 281 343 404
#     4  10  22  45  66  92 140 179 215 281 353 411
#     4  11  22  41  71 103 129 170 232 285 337 395
#
# _framework density 21.391432999999999
#
# number of rings (size 3 to 8) (size 9 to 14) (size 15 to 20)
#    0.000    1.429    2.857    2.143    6.000    0.000 
#   12.857    0.000    0.000    0.000    0.000    0.000 
#    0.000    0.000    0.000    0.000    0.000    0.000 
#
# Total GULP energy -347181.559116 kJ/mol
# GULP energy per Si atom -12399.341397 kJ/mol
# Density = 2.134274 g / cm^3
# Si number density = 21.391433 Si / 1000 Ang^3
#
#
#
# Elastic Constant Matrix: (Units=GPa)
#
#
# Indices 1 2 3 4 5 6 
#
# 1 115.6993 35.9361 46.9337 0.0000 0.0000 0.0000
# 2 35.9361 87.7938 46.4093 0.0000 0.0000 0.0000
# 3 46.9337 46.4093 106.6025 0.0000 0.0000 0.0000
# 4 0.0000 0.0000 0.0000 37.1079 0.0000 0.0000
# 5 0.0000 0.0000 0.0000 0.0000 32.2800 0.0000
# 6 0.0000 0.0000 0.0000 0.0000 0.0000 30.8254
#
#
#
# Elastic Compliance Matrix: (Units=1/GPa)
#
#
# Indices 1 2 3 4 5 6 
#
# 1 0.010931 -0.002507 -0.003721 0.000000 0.000000 0.000000
# 2 -0.002507 0.015370 -0.005588 0.000000 0.000000 0.000000
# 3 -0.003721 -0.005588 0.013451 0.000000 0.000000 0.000000
# 4 0.000000 0.000000 0.000000 0.026948 0.000000 0.000000
# 5 0.000000 0.000000 0.000000 0.000000 0.030979 0.000000
# 6 0.000000 0.000000 0.000000 0.000000 0.000000 0.032441
#
#
# Mechanical properties :
#
#
# Convention : Reuss Voigt Hill
#
# Bulk Modulus (GPa) = 62.03082 63.18376 62.60729
# Shear Modulus (GPa) = 31.42142 32.09709 31.75926
#
# Velocity S-wave (km/s) = 3.83675 3.87779 3.85732
# Velocity P-wave (km/s) = 6.97771 7.04633 7.01210
#
# Compressibility (1/GPa) = 0.01612102
#
# Stress axis : x y z
#
# Youngs Moduli (GPa) = 91.47968 65.06043 74.34137
#
# Poissons Ratio (x) = 0.16313 0.27663
# Poissons Ratio (y) = 0.22938 0.41538
# Poissons Ratio (z) = 0.34041 0.36353
#
# Static dielectric constant tensor:
#      x y z
#    x 3.829780 0.000000 0.000000 
#    y 0.000000 3.790970 0.000000 
#    z 0.000000 0.000000 3.895110 
# 
# 
# High freq. dielectric constant tensor:
#      x y z
#    x 1.841090 0.000000 0.000000 
#    y 0.000000 1.833360 0.000000 
#    z 0.000000 0.000000 1.836780 
# 
# From -- ./inp_files/9768.got.cif
#   From: 2010.06.25/outbox.cif.g09.slc.cpg/sg43_5_cif.got.tgz:9768.got - 2010.06.26 16:48:59.
