data_PCOD8187386
_publ_section_title
;
Structure prediction by ZEFSAII (Michael W. Deem and Ramdas Pophale) SiO2 
 PCOD8187386
Probable space group: F D D 2
;
_chemical_formula_sum "Si O2"
_cell_formula_units_Z 88
_cell_length_a 4.970871
_cell_length_b 34.872504
_cell_length_c 22.372275
_cell_angle_alpha 90.000000
_cell_angle_beta 90.000000
_cell_angle_gamma 90.000000
_cell_volume 3878.160464
_symmetry_space_group_name_H-M "F D D 2"
_symmetry_group_IT_number 43
_symmetry_cell_setting 'orthorhombic'
loop_
_space_group_symop_operation_xyz
x,y,z
-x,-y,z
1/4-x,1/4+y,1/4+z
1/4+x,1/4-y,1/4+z
x,1/2+y,1/2+z
-x,1/2-y,1/2+z
1/4-x,3/4+y,3/4+z
1/4+x,3/4-y,3/4+z
1/2+x,y,1/2+z
1/2-x,-y,1/2+z
3/4-x,1/4+y,3/4+z
3/4+x,1/4-y,3/4+z
1/2+x,1/2+y,z
1/2-x,1/2-y,z
3/4-x,3/4+y,1/4+z
3/4+x,3/4-y,1/4+z
loop_
_atom_site_type_symbol
_atom_site_label
_atom_site_fract_x
_atom_site_fract_y
_atom_site_fract_z
Si Si1 0.000000 0.000000 0.949550
Si Si2 0.500000 0.000000 0.864997
Si Si3 0.500000 0.500000 0.144912
Si Si4 0.903484 0.602154 0.083359
Si Si5 0.396318 0.060105 0.547557
Si Si6 0.345441 0.570163 0.284128
Si Si7 0.165721 0.937945 0.705902
O O1 0.251015 0.995519 0.907758
O O2 0.993955 0.962028 0.990045
O O3 0.530770 0.962913 0.824471
O O4 0.361288 0.532004 0.104045
O O5 0.271474 0.479680 0.184735
O O6 0.601255 0.594762 0.061135
O O7 0.927646 0.589977 0.152377
O O8 0.100140 0.577639 0.039901
O O9 0.984450 0.646354 0.076901
O O10 0.590944 0.583463 0.241198
O O11 0.096157 0.554214 0.245803
#
# Coordination Sequence:
#
# PCOD8187386 Si02
#       7
#     8   8   8  16  16  16  16
#     4  11  24  44  67  96 133 178 212 267 334 386
#     4  12  27  44  65  94 135 176 219 264 322 406
#     4   9  21  40  68 102 128 162 221 271 324 388
#     4  11  24  43  66 100 131 170 224 274 323 387
#     4  10  22  41  70  99 129 167 222 276 322 380
#     4  12  27  44  65  97 133 174 222 265 327 401
#     4  11  24  43  70  95 132 174 211 278 334 377
#
# _framework density 22.691171000000001
#
# number of rings (size 3 to 8) (size 9 to 14) (size 15 to 20)
#    0.000    1.091    0.000    6.000    0.000   16.727 
#    0.000    1.818    0.000    0.000    0.000    0.000 
#    0.000    0.000    0.000    0.000    0.000    0.000 
#
# Total GULP energy -272841.895767 kJ/mol
# GULP energy per Si atom -12401.904353 kJ/mol
# Density = 2.263953 g / cm^3
# Si number density = 22.691171 Si / 1000 Ang^3
#
#
#
# Elastic Constant Matrix: (Units=GPa)
#
#
# Indices 1 2 3 4 5 6 
#
# 1 144.3037 40.4756 67.3959 0.0000 0.0000 0.0000
# 2 40.4756 134.7285 67.0656 0.0000 0.0000 0.0000
# 3 67.3959 67.0656 135.1264 0.0000 0.0000 0.0000
# 4 0.0000 0.0000 0.0000 16.0119 0.0000 0.0000
# 5 0.0000 0.0000 0.0000 0.0000 47.8606 0.0000
# 6 0.0000 0.0000 0.0000 0.0000 0.0000 35.3034
#
#
#
# Elastic Compliance Matrix: (Units=1/GPa)
#
#
# Indices 1 2 3 4 5 6 
#
# 1 0.009074 -0.000628 -0.004214 0.000000 0.000000 0.000000
# 2 -0.000628 0.009901 -0.004601 0.000000 0.000000 0.000000
# 3 -0.004214 -0.004601 0.011786 0.000000 0.000000 0.000000
# 4 0.000000 0.000000 0.000000 0.062454 0.000000 0.000000
# 5 0.000000 0.000000 0.000000 0.000000 0.020894 0.000000
# 6 0.000000 0.000000 0.000000 0.000000 0.000000 0.028326
#
#
# Mechanical properties :
#
#
# Convention : Reuss Voigt Hill
#
# Bulk Modulus (GPa) = 84.21148 84.89255 84.55202
# Shear Modulus (GPa) = 30.25181 35.78328 33.01755
#
# Velocity S-wave (km/s) = 3.65526 3.97542 3.81869
# Velocity P-wave (km/s) = 7.41668 7.65279 7.53566
#
# Compressibility (1/GPa) = 0.01187486
#
# Stress axis : x y z
#
# Youngs Moduli (GPa) = 110.20257 100.99667 84.84885
#
# Poissons Ratio (x) = 0.06347 0.35755
# Poissons Ratio (y) = 0.06926 0.39037
# Poissons Ratio (z) = 0.46439 0.46466
#
# Static dielectric constant tensor:
#      x y z
#    x 4.304870 0.000000 0.000000 
#    y 0.000000 3.969880 0.000000 
#    z 0.000000 0.000000 4.406170 
# 
# 
# High freq. dielectric constant tensor:
#      x y z
#    x 1.915720 0.000000 0.000000 
#    y 0.000000 1.889320 0.000000 
#    z 0.000000 0.000000 1.897920 
# 
# From -- ./inp_files/19585.got.cif
#   From: 2010.06.25/outbox.cif.g09.slc.cpg/sg43_10_cif.got.tgz:19585.got - 2010.06.26 16:48:59.
