data_PCOD8187159
_publ_section_title
;
Structure prediction by ZEFSAII (Michael W. Deem and Ramdas Pophale) SiO2 
 PCOD8187159
Probable space group: F D D 2
;
_chemical_formula_sum "Si O2"
_cell_formula_units_Z 88
_cell_length_a 11.038502
_cell_length_b 31.349303
_cell_length_c 11.496504
_cell_angle_alpha 90.000000
_cell_angle_beta 90.000000
_cell_angle_gamma 90.000000
_cell_volume 3978.357666
_symmetry_space_group_name_H-M "F D D 2"
_symmetry_group_IT_number 43
_symmetry_cell_setting 'orthorhombic'
loop_
_space_group_symop_operation_xyz
x,y,z
-x,-y,z
1/4-x,1/4+y,1/4+z
1/4+x,1/4-y,1/4+z
x,1/2+y,1/2+z
-x,1/2-y,1/2+z
1/4-x,3/4+y,3/4+z
1/4+x,3/4-y,3/4+z
1/2+x,y,1/2+z
1/2-x,-y,1/2+z
3/4-x,1/4+y,3/4+z
3/4+x,1/4-y,3/4+z
1/2+x,1/2+y,z
1/2-x,1/2-y,z
3/4-x,3/4+y,1/4+z
3/4+x,3/4-y,1/4+z
loop_
_atom_site_type_symbol
_atom_site_label
_atom_site_fract_x
_atom_site_fract_y
_atom_site_fract_z
Si Si1 0.443842 0.358076 0.861950
Si Si2 0.500000 0.500000 0.827782
Si Si3 0.388015 0.329797 0.107305
Si Si4 0.636249 0.052792 0.977472
Si Si5 0.065149 0.314088 0.987400
Si Si6 0.887917 0.296166 0.177948
O O1 0.568424 0.379215 0.910728
O O2 0.362219 0.394567 0.803986
O O3 0.474857 0.322517 0.765017
O O4 0.373329 0.334863 0.967156
O O5 0.570916 0.463712 0.901982
O O6 0.401647 0.476806 0.748393
O O7 0.529210 0.328171 0.137158
O O8 0.687725 0.071053 0.099402
O O9 0.497716 0.064617 0.947545
O O10 0.651334 0.002503 0.964609
O O11 0.933876 0.302713 0.044901
#
# Coordination Sequence:
#
# PCOD8187159 Si02
#       6
#    16   8  16  16  16  16
#     4  11  23  43  68  93 134 178 234 275 347 422
#     4  10  20  42  68  88 130 176 236 258 348 422
#     4  11  23  43  64 101 133 180 220 296 345 415
#     4  11  25  43  70 101 141 175 234 291 347 416
#     4  11  22  43  72  97 131 186 226 284 345 420
#     4  11  23  45  71 101 131 186 233 284 343 428
#
# _framework density 22.119679999999999
#
# number of rings (size 3 to 8) (size 9 to 14) (size 15 to 20)
#    0.000    1.091    3.636    4.364    0.000    1.455 
#    3.273    1.818    0.000    0.000    0.000    0.000 
#    0.000    0.000    0.000    0.000    0.000    0.000 
#
# Total GULP energy -272668.586119 kJ/mol
# GULP energy per Si atom -12394.026642 kJ/mol
# Density = 2.206933 g / cm^3
# Si number density = 22.119680 Si / 1000 Ang^3
#
#
#
# Elastic Constant Matrix: (Units=GPa)
#
#
# Indices 1 2 3 4 5 6 
#
# 1 122.6830 46.4931 54.9618 0.0000 0.0000 0.0000
# 2 46.4931 85.4255 21.9902 0.0000 0.0000 0.0000
# 3 54.9618 21.9902 107.4147 0.0000 0.0000 0.0000
# 4 0.0000 0.0000 0.0000 24.1699 0.0000 0.0000
# 5 0.0000 0.0000 0.0000 0.0000 34.0388 0.0000
# 6 0.0000 0.0000 0.0000 0.0000 0.0000 25.3833
#
#
#
# Elastic Compliance Matrix: (Units=1/GPa)
#
#
# Indices 1 2 3 4 5 6 
#
# 1 0.012624 -0.005498 -0.005334 0.000000 0.000000 0.000000
# 2 -0.005498 0.014751 -0.000207 0.000000 0.000000 0.000000
# 3 -0.005334 -0.000207 0.012081 0.000000 0.000000 0.000000
# 4 0.000000 0.000000 0.000000 0.041374 0.000000 0.000000
# 5 0.000000 0.000000 0.000000 0.000000 0.029378 0.000000
# 6 0.000000 0.000000 0.000000 0.000000 0.000000 0.039396
#
#
# Mechanical properties :
#
#
# Convention : Reuss Voigt Hill
#
# Bulk Modulus (GPa) = 57.53800 62.49038 60.01419
# Shear Modulus (GPa) = 28.17288 29.52359 28.84824
#
# Velocity S-wave (km/s) = 3.57270 3.65735 3.61527
# Velocity P-wave (km/s) = 6.56411 6.79318 6.67963
#
# Compressibility (1/GPa) = 0.01737982
#
# Stress axis : x y z
#
# Youngs Moduli (GPa) = 79.21315 67.78977 82.77208
#
# Poissons Ratio (x) = 0.37269 0.44151
# Poissons Ratio (y) = 0.43549 0.01713
# Poissons Ratio (z) = 0.42252 0.01403
#
# Static dielectric constant tensor:
#      x y z
#    x 4.174960 0.000000 0.000000 
#    y 0.000000 4.143690 0.000000 
#    z 0.000000 0.000000 3.739310 
# 
# 
# High freq. dielectric constant tensor:
#      x y z
#    x 1.868190 0.000000 0.000000 
#    y 0.000000 1.886560 0.000000 
#    z 0.000000 0.000000 1.843900 
# 
# From -- ./inp_files/5764.got.cif
#   From: 2010.06.25/outbox.cif.g09.slc.cpg/sg43_3_cif.got.tgz:5764.got - 2010.06.26 16:48:59.
