data_PCOD8187583
_publ_section_title
;
Structure prediction by ZEFSAII (Michael W. Deem and Ramdas Pophale) SiO2 
 PCOD8187583
Probable space group: F D D 2
;
_chemical_formula_sum "Si O2"
_cell_formula_units_Z 88
_cell_length_a 30.313958
_cell_length_b 11.000275
_cell_length_c 10.946477
_cell_angle_alpha 90.000000
_cell_angle_beta 90.000000
_cell_angle_gamma 90.000000
_cell_volume 3650.232738
_symmetry_space_group_name_H-M "F D D 2"
_symmetry_group_IT_number 43
_symmetry_cell_setting 'orthorhombic'
loop_
_space_group_symop_operation_xyz
x,y,z
-x,-y,z
1/4-x,1/4+y,1/4+z
1/4+x,1/4-y,1/4+z
x,1/2+y,1/2+z
-x,1/2-y,1/2+z
1/4-x,3/4+y,3/4+z
1/4+x,3/4-y,3/4+z
1/2+x,y,1/2+z
1/2-x,-y,1/2+z
3/4-x,1/4+y,3/4+z
3/4+x,1/4-y,3/4+z
1/2+x,1/2+y,z
1/2-x,1/2-y,z
3/4-x,3/4+y,1/4+z
3/4+x,3/4-y,1/4+z
loop_
_atom_site_type_symbol
_atom_site_label
_atom_site_fract_x
_atom_site_fract_y
_atom_site_fract_z
Si Si1 0.500000 0.500000 0.947950
Si Si2 0.837019 0.646101 0.183855
Si Si3 0.577662 0.106499 0.929598
Si Si4 0.231110 0.013281 0.352212
Si Si5 0.674678 0.467180 0.918384
Si Si6 0.080773 0.851029 0.311474
O O1 0.456272 0.459447 0.870409
O O2 0.483380 0.614952 0.023986
O O3 0.881713 0.704323 0.137535
O O4 0.829728 0.653763 0.332104
O O5 0.840739 0.503540 0.158233
O O6 0.573242 0.187294 0.809750
O O7 0.567133 0.968078 0.891532
O O8 0.543975 0.155069 0.031957
O O9 0.626680 0.126410 0.979198
O O10 0.280062 0.963191 0.383362
O O11 0.208618 0.052349 0.478322
#
# Coordination Sequence:
#
# PCOD8187583 Si02
#       6
#     8  16  16  16  16  16
#     4  10  24  50  72 106 148 196 266 304 390 478
#     4  11  26  46  75 110 155 200 260 326 397 469
#     4  12  25  48  81 111 156 209 266 320 394 477
#     4  11  26  48  79 117 151 212 265 322 399 478
#     4  11  26  47  76 110 151 205 255 323 397 470
#     4  12  25  48  77 118 158 203 265 332 391 474
#
# _framework density 24.108051
#
# number of rings (size 3 to 8) (size 9 to 14) (size 15 to 20)
#    0.000    0.727    1.818    5.455    7.636    0.000 
#    3.273    0.000    0.000    0.000    0.000    0.000 
#    0.000    0.000    0.000    0.000    0.000    0.000 
#
# Total GULP energy -272711.132828 kJ/mol
# GULP energy per Si atom -12395.960583 kJ/mol
# Density = 2.405318 g / cm^3
# Si number density = 24.108051 Si / 1000 Ang^3
#
#
#
# Elastic Constant Matrix: (Units=GPa)
#
#
# Indices 1 2 3 4 5 6 
#
# 1 214.8128 61.2250 44.6109 0.0000 0.0000 0.0000
# 2 61.2250 130.3275 31.3809 0.0000 0.0000 0.0000
# 3 44.6109 31.3809 57.3708 0.0000 0.0000 0.0000
# 4 0.0000 0.0000 0.0000 32.4594 0.0000 0.0000
# 5 0.0000 0.0000 0.0000 0.0000 38.0470 0.0000
# 6 0.0000 0.0000 0.0000 0.0000 0.0000 35.1810
#
#
#
# Elastic Compliance Matrix: (Units=1/GPa)
#
#
# Indices 1 2 3 4 5 6 
#
# 1 0.005947 -0.001935 -0.003566 0.000000 0.000000 0.000000
# 2 -0.001935 0.009467 -0.003673 0.000000 0.000000 0.000000
# 3 -0.003566 -0.003673 0.022213 0.000000 0.000000 0.000000
# 4 0.000000 0.000000 0.000000 0.030808 0.000000 0.000000
# 5 0.000000 0.000000 0.000000 0.000000 0.026283 0.000000
# 6 0.000000 0.000000 0.000000 0.000000 0.000000 0.028424
#
#
# Mechanical properties :
#
#
# Convention : Reuss Voigt Hill
#
# Bulk Modulus (GPa) = 51.87406 75.21607 63.54507
# Shear Modulus (GPa) = 33.80278 38.82377 36.31327
#
# Velocity S-wave (km/s) = 3.74857 4.01734 3.88528
# Velocity P-wave (km/s) = 6.34821 7.26540 6.82223
#
# Compressibility (1/GPa) = 0.01927746
#
# Stress axis : x y z
#
# Youngs Moduli (GPa) = 168.14124 105.63460 45.01955
#
# Poissons Ratio (x) = 0.20444 0.16054
# Poissons Ratio (y) = 0.32540 0.16537
# Poissons Ratio (z) = 0.59960 0.38802
#
# Static dielectric constant tensor:
#      x y z
#    x 4.775930 0.000000 0.000000 
#    y 0.000000 4.277830 0.000000 
#    z 0.000000 0.000000 4.456490 
# 
# 
# High freq. dielectric constant tensor:
#      x y z
#    x 1.979400 0.000000 0.000000 
#    y 0.000000 1.947910 0.000000 
#    z 0.000000 0.000000 1.956730 
# 
# From -- ./inp_files/5743.got.cif
#   From: 2010.06.25/outbox.cif.g09.slc.cpg/sg43_3_cif.got.tgz:5743.got - 2010.06.26 16:48:59.
