data_PCOD8187371
_publ_section_title
;
Structure prediction by ZEFSAII (Michael W. Deem and Ramdas Pophale) SiO2 
 PCOD8187371
Probable space group: F D D 2
;
_chemical_formula_sum "Si O2"
_cell_formula_units_Z 120
_cell_length_a 17.750447
_cell_length_b 15.802312
_cell_length_c 21.493667
_cell_angle_alpha 90.000000
_cell_angle_beta 90.000000
_cell_angle_gamma 90.000000
_cell_volume 6028.932791
_symmetry_space_group_name_H-M "F D D 2"
_symmetry_group_IT_number 43
_symmetry_cell_setting 'orthorhombic'
loop_
_space_group_symop_operation_xyz
x,y,z
-x,-y,z
1/4-x,1/4+y,1/4+z
1/4+x,1/4-y,1/4+z
x,1/2+y,1/2+z
-x,1/2-y,1/2+z
1/4-x,3/4+y,3/4+z
1/4+x,3/4-y,3/4+z
1/2+x,y,1/2+z
1/2-x,-y,1/2+z
3/4-x,1/4+y,3/4+z
3/4+x,1/4-y,3/4+z
1/2+x,1/2+y,z
1/2-x,1/2-y,z
3/4-x,3/4+y,1/4+z
3/4+x,3/4-y,1/4+z
loop_
_atom_site_type_symbol
_atom_site_label
_atom_site_fract_x
_atom_site_fract_y
_atom_site_fract_z
Si Si1 0.180934 0.074904 0.363210
Si Si2 0.175155 0.516487 0.334128
Si Si3 0.349556 0.961360 0.724119
Si Si4 0.206501 0.549325 0.195364
Si Si5 0.588461 0.679964 0.836329
Si Si6 0.250000 0.750000 0.906024
Si Si7 0.165177 0.732126 0.213297
Si Si8 0.542125 0.917452 0.381150
O O1 0.142104 0.059946 0.296695
O O2 0.214818 0.170878 0.367029
O O3 0.246747 0.004977 0.368039
O O4 0.119576 0.052348 0.416539
O O5 0.175602 0.514263 0.259994
O O6 0.150162 0.609603 0.356589
O O7 0.120533 0.439291 0.349900
O O8 0.433915 0.966475 0.699700
O O9 0.303954 0.884861 0.693570
O O10 0.298512 0.043488 0.703673
O O11 0.168692 0.497063 0.140644
O O12 0.175129 0.642110 0.179586
O O13 0.610113 0.727101 0.772734
O O14 0.507731 0.632776 0.829680
O O15 0.250000 0.750000 0.237033
O O16 0.500000 0.000000 0.405100
#
# Coordination Sequence:
#
# PCOD8187371 Si02
#       8
#    16  16  16  16  16   8  16  16
#     4  11  25  41  63  91 126 172 213 262 319 374
#     4   9  18  38  60  94 127 152 203 259 309 377
#     4  10  22  41  62  92 124 164 210 264 311 383
#     4   9  20  39  64  89 121 158 201 256 317 365
#     4   9  20  37  64  91 117 164 204 255 315 371
#     4  12  24  44  62  94 124 166 220 256 318 394
#     4  11  24  42  59  87 125 168 212 258 305 380
#     4   9  17  36  63  92 125 154 198 262 320 374
#
# _framework density 19.904019000000002
#
# number of rings (size 3 to 8) (size 9 to 14) (size 15 to 20)
#    0.000    2.133    1.333    0.800    1.867    5.333 
#    4.800    3.333    0.000    0.000    0.000    0.000 
#    0.000    0.000    0.000    0.000    0.000    0.000 
#
# Total GULP energy -371722.042993 kJ/mol
# GULP energy per Si atom -12390.734766 kJ/mol
# Density = 1.985872 g / cm^3
# Si number density = 19.904019 Si / 1000 Ang^3
#
#
#
# Elastic Constant Matrix: (Units=GPa)
#
#
# Indices 1 2 3 4 5 6 
#
# 1 91.7376 23.8426 42.6939 0.0000 0.0000 0.0000
# 2 23.8426 85.5902 43.2305 0.0000 0.0000 0.0000
# 3 42.6939 43.2305 93.3385 0.0000 0.0000 0.0000
# 4 0.0000 0.0000 0.0000 22.2692 0.0000 0.0000
# 5 0.0000 0.0000 0.0000 0.0000 24.7038 0.0000
# 6 0.0000 0.0000 0.0000 0.0000 0.0000 30.3800
#
#
#
# Elastic Compliance Matrix: (Units=1/GPa)
#
#
# Indices 1 2 3 4 5 6 
#
# 1 0.013897 -0.000862 -0.005957 0.000000 0.000000 0.000000
# 2 -0.000862 0.015305 -0.006694 0.000000 0.000000 0.000000
# 3 -0.005957 -0.006694 0.016539 0.000000 0.000000 0.000000
# 4 0.000000 0.000000 0.000000 0.044905 0.000000 0.000000
# 5 0.000000 0.000000 0.000000 0.000000 0.040480 0.000000
# 6 0.000000 0.000000 0.000000 0.000000 0.000000 0.032916
#
#
# Mechanical properties :
#
#
# Convention : Reuss Voigt Hill
#
# Bulk Modulus (GPa) = 53.43707 54.46671 53.95189
# Shear Modulus (GPa) = 25.34109 26.19721 25.76915
#
# Velocity S-wave (km/s) = 3.57201 3.63185 3.60206
# Velocity P-wave (km/s) = 6.62707 6.70904 6.66818
#
# Compressibility (1/GPa) = 0.01871360
#
# Stress axis : x y z
#
# Youngs Moduli (GPa) = 71.95648 65.33838 60.46274
#
# Poissons Ratio (x) = 0.05634 0.36020
# Poissons Ratio (y) = 0.06205 0.40475
# Poissons Ratio (z) = 0.42867 0.43739
#
# Static dielectric constant tensor:
#      x y z
#    x 3.856420 0.000000 0.000000 
#    y 0.000000 3.864600 0.000000 
#    z 0.000000 0.000000 3.357520 
# 
# 
# High freq. dielectric constant tensor:
#      x y z
#    x 1.786280 0.000000 0.000000 
#    y 0.000000 1.786390 0.000000 
#    z 0.000000 0.000000 1.758820 
# 
# From -- ./inp_files/18077.got.cif
#   From: 2010.06.25/outbox.cif.g09.slc.cpg/sg43_10_cif.got.tgz:18077.got - 2010.06.26 16:48:59.
