data_PCOD8187443
_publ_section_title
;
Structure prediction by ZEFSAII (Michael W. Deem and Ramdas Pophale) SiO2 
 PCOD8187443
Probable space group: F D D 2
;
_chemical_formula_sum "Si O2"
_cell_formula_units_Z 88
_cell_length_a 30.524351
_cell_length_b 10.749437
_cell_length_c 10.867009
_cell_angle_alpha 90.000000
_cell_angle_beta 90.000000
_cell_angle_gamma 90.000000
_cell_volume 3565.678516
_symmetry_space_group_name_H-M "F D D 2"
_symmetry_group_IT_number 43
_symmetry_cell_setting 'orthorhombic'
loop_
_space_group_symop_operation_xyz
x,y,z
-x,-y,z
1/4-x,1/4+y,1/4+z
1/4+x,1/4-y,1/4+z
x,1/2+y,1/2+z
-x,1/2-y,1/2+z
1/4-x,3/4+y,3/4+z
1/4+x,3/4-y,3/4+z
1/2+x,y,1/2+z
1/2-x,-y,1/2+z
3/4-x,1/4+y,3/4+z
3/4+x,1/4-y,3/4+z
1/2+x,1/2+y,z
1/2-x,1/2-y,z
3/4-x,3/4+y,1/4+z
3/4+x,3/4-y,1/4+z
loop_
_atom_site_type_symbol
_atom_site_label
_atom_site_fract_x
_atom_site_fract_y
_atom_site_fract_z
Si Si1 0.829792 0.309256 0.320670
Si Si2 0.483612 0.235934 0.955853
Si Si3 0.750000 0.750000 0.541865
Si Si4 0.326304 0.176999 0.072848
Si Si5 0.414434 0.920165 0.818393
Si Si6 0.924168 0.684046 0.448776
O O1 0.799723 0.434566 0.310384
O O2 0.880218 0.345306 0.331162
O O3 0.815236 0.226050 0.436460
O O4 0.822359 0.224199 0.201771
O O5 0.463198 0.343113 0.870823
O O6 0.528624 0.292885 0.014371
O O7 0.497783 0.124426 0.870266
O O8 0.797525 0.727379 0.473610
O O9 0.332090 0.292339 0.163233
O O10 0.366322 0.970010 0.787376
O O11 0.417746 0.770212 0.826749
#
# Coordination Sequence:
#
# PCOD8187443 Si02
#       6
#    16  16   8  16  16  16
#     4  11  23  44  76 110 140 201 260 316 374 470
#     4  10  23  46  71 108 153 189 256 305 385 463
#     4   8  20  44  72 100 134 186 242 300 364 460
#     4  12  23  43  74 109 148 195 254 317 382 452
#     4  10  22  44  70  98 146 190 243 311 383 457
#     4  11  24  45  66 105 150 193 241 318 387 454
#
# _framework density 24.679734
#
# number of rings (size 3 to 8) (size 9 to 14) (size 15 to 20)
#    0.000    1.455    1.818    2.727    2.545    0.000 
#   26.182    1.818    0.000    0.000    0.000    0.000 
#    0.000    0.000    0.000    0.000    0.000    0.000 
#
# Total GULP energy -272598.168313 kJ/mol
# GULP energy per Si atom -12390.825832 kJ/mol
# Density = 2.462356 g / cm^3
# Si number density = 24.679734 Si / 1000 Ang^3
#
#
#
# Elastic Constant Matrix: (Units=GPa)
#
#
# Indices 1 2 3 4 5 6 
#
# 1 222.6254 52.3784 39.0774 0.0000 0.0000 0.0000
# 2 52.3784 124.0689 24.1199 0.0000 0.0000 0.0000
# 3 39.0774 24.1199 65.7267 0.0000 0.0000 0.0000
# 4 0.0000 0.0000 0.0000 22.2622 0.0000 0.0000
# 5 0.0000 0.0000 0.0000 0.0000 31.9779 0.0000
# 6 0.0000 0.0000 0.0000 0.0000 0.0000 49.7412
#
#
#
# Elastic Compliance Matrix: (Units=1/GPa)
#
#
# Indices 1 2 3 4 5 6 
#
# 1 0.005352 -0.001767 -0.002534 0.000000 0.000000 0.000000
# 2 -0.001767 0.009263 -0.002349 0.000000 0.000000 0.000000
# 3 -0.002534 -0.002349 0.017583 0.000000 0.000000 0.000000
# 4 0.000000 0.000000 0.000000 0.044919 0.000000 0.000000
# 5 0.000000 0.000000 0.000000 0.000000 0.031272 0.000000
# 6 0.000000 0.000000 0.000000 0.000000 0.000000 0.020104
#
#
# Mechanical properties :
#
#
# Convention : Reuss Voigt Hill
#
# Bulk Modulus (GPa) = 52.91259 71.50803 62.21031
# Shear Modulus (GPa) = 33.76303 40.58594 37.17448
#
# Velocity S-wave (km/s) = 3.70272 4.05965 3.88529
# Velocity P-wave (km/s) = 6.30607 7.14224 6.73714
#
# Compressibility (1/GPa) = 0.01889909
#
# Stress axis : x y z
#
# Youngs Moduli (GPa) = 186.83418 107.96101 56.87377
#
# Poissons Ratio (x) = 0.19077 0.14410
# Poissons Ratio (y) = 0.33014 0.13357
# Poissons Ratio (z) = 0.47339 0.25355
#
# Static dielectric constant tensor:
#      x y z
#    x 5.364330 0.000000 0.000000 
#    y 0.000000 4.678050 0.000000 
#    z 0.000000 0.000000 3.881650 
# 
# 
# High freq. dielectric constant tensor:
#      x y z
#    x 2.018620 0.000000 0.000000 
#    y 0.000000 2.005200 0.000000 
#    z 0.000000 0.000000 1.924680 
# 
# From -- ./inp_files/5760.got.cif
#   From: 2010.06.25/outbox.cif.g09.slc.cpg/sg43_3_cif.got.tgz:5760.got - 2010.06.26 16:48:59.
