data_PCOD8187304
_publ_section_title
;
Structure prediction by ZEFSAII (Michael W. Deem and Ramdas Pophale) SiO2 
 PCOD8187304
Probable space group: F D D 2
;
_chemical_formula_sum "Si O2"
_cell_formula_units_Z 88
_cell_length_a 19.496337
_cell_length_b 29.299748
_cell_length_c 7.269429
_cell_angle_alpha 90.000000
_cell_angle_beta 90.000000
_cell_angle_gamma 90.000000
_cell_volume 4152.572346
_symmetry_space_group_name_H-M "F D D 2"
_symmetry_group_IT_number 43
_symmetry_cell_setting 'orthorhombic'
loop_
_space_group_symop_operation_xyz
x,y,z
-x,-y,z
1/4-x,1/4+y,1/4+z
1/4+x,1/4-y,1/4+z
x,1/2+y,1/2+z
-x,1/2-y,1/2+z
1/4-x,3/4+y,3/4+z
1/4+x,3/4-y,3/4+z
1/2+x,y,1/2+z
1/2-x,-y,1/2+z
3/4-x,1/4+y,3/4+z
3/4+x,1/4-y,3/4+z
1/2+x,1/2+y,z
1/2-x,1/2-y,z
3/4-x,3/4+y,1/4+z
3/4+x,3/4-y,1/4+z
loop_
_atom_site_type_symbol
_atom_site_label
_atom_site_fract_x
_atom_site_fract_y
_atom_site_fract_z
Si Si1 0.790321 0.423051 0.639340
Si Si2 0.116403 0.680224 0.321821
Si Si3 0.371900 0.726596 0.161637
Si Si4 0.621600 0.077936 0.285478
Si Si5 0.000000 0.000000 0.188775
Si Si6 0.784835 0.820422 0.151722
O O1 0.709520 0.429071 0.652140
O O2 0.818132 0.458164 0.786004
O O3 0.821847 0.434858 0.439144
O O4 0.810146 0.371494 0.700855
O O5 0.120402 0.718746 0.167023
O O6 0.133613 0.631088 0.232393
O O7 0.170926 0.695478 0.477123
O O8 0.380887 0.703474 0.358959
O O9 0.298096 0.717816 0.066519
O O10 0.545897 0.069870 0.361702
O O11 0.046648 0.965784 0.065509
#
# Coordination Sequence:
#
# PCOD8187304 Si02
#       6
#    16  16  16  16   8  16
#     4  10  24  44  64  96 133 175 215 280 343 397
#     4  10  24  42  67  95 130 179 221 277 340 396
#     4  12  25  39  69  99 130 171 227 271 340 406
#     4  10  22  47  64  90 136 173 221 280 332 406
#     4  12  24  40  72 104 130 178 234 272 338 412
#     4  10  21  45  68  90 136 175 223 277 332 402
#
# _framework density 21.191683999999999
#
# number of rings (size 3 to 8) (size 9 to 14) (size 15 to 20)
#    0.000    1.455    1.818    2.182    5.091    0.000 
#    0.000    0.000    0.000    0.000    0.000    0.000 
#    0.000    0.000    0.000    0.000    0.000    0.000 
#
# Total GULP energy -272805.521188 kJ/mol
# GULP energy per Si atom -12400.250963 kJ/mol
# Density = 2.114345 g / cm^3
# Si number density = 21.191684 Si / 1000 Ang^3
#
#
#
# Elastic Constant Matrix: (Units=GPa)
#
#
# Indices 1 2 3 4 5 6 
#
# 1 63.9862 13.3385 10.0704 -0.0005 -0.0030 -0.0002
# 2 13.3385 99.6805 53.5262 0.0001 0.0019 0.0003
# 3 10.0704 53.5262 87.1697 -0.0012 -0.0014 0.0003
# 4 -0.0005 0.0001 -0.0012 38.2053 0.0006 0.0001
# 5 -0.0030 0.0019 -0.0014 0.0006 33.5266 -0.0001
# 6 -0.0002 0.0003 0.0003 0.0001 -0.0001 30.5780
#
#
#
# Elastic Compliance Matrix: (Units=1/GPa)
#
#
# Indices 1 2 3 4 5 6 
#
# 1 0.016114 -0.001726 -0.000802 0.000000 0.000001 0.000000
# 2 -0.001726 0.015152 -0.009105 0.000000 -0.000001 0.000000
# 3 -0.000802 -0.009105 0.017155 0.000001 0.000001 0.000000
# 4 0.000000 0.000000 0.000001 0.026174 0.000000 0.000000
# 5 0.000001 -0.000001 0.000001 0.000000 0.029827 0.000000
# 6 0.000000 0.000000 0.000000 0.000000 0.000000 0.032703
#
#
# Mechanical properties :
#
#
# Convention : Reuss Voigt Hill
#
# Bulk Modulus (GPa) = 39.75050 44.96738 42.35894
# Shear Modulus (GPa) = 29.62499 32.05539 30.84019
#
# Velocity S-wave (km/s) = 3.74298 3.89349 3.81897
# Velocity P-wave (km/s) = 6.12194 6.44032 6.28315
#
# Compressibility (1/GPa) = 0.02515692
#
# Stress axis : x y z
#
# Youngs Moduli (GPa) = 62.05659 65.99808 58.29136
#
# Poissons Ratio (x) = 0.11389 0.04675
# Poissons Ratio (y) = 0.10709 0.53072
# Poissons Ratio (z) = 0.04977 0.60089
#
# Static dielectric constant tensor:
#      x y z
#    x 3.825340 0.000000 0.000010 
#    y 0.000000 4.129480 0.000000 
#    z 0.000010 0.000000 3.674240 
# 
# 
# High freq. dielectric constant tensor:
#      x y z
#    x 1.833120 0.000000 0.000000 
#    y 0.000000 1.845590 0.000000 
#    z 0.000000 0.000000 1.818670 
# 
# From -- ./inp_files/1026.got.cif
#   From: 2010.06.25/outbox.cif.g09.slc.cpg/sg43_1_cif.got.tgz:1026.got - 2010.06.26 16:48:59.
