data_PCOD8187109
_publ_section_title
;
Structure prediction by ZEFSAII (Michael W. Deem and Ramdas Pophale) SiO2 
 PCOD8187109
Probable space group: F D D 2
;
_chemical_formula_sum "Si O2"
_cell_formula_units_Z 88
_cell_length_a 14.546624
_cell_length_b 11.142317
_cell_length_c 23.720022
_cell_angle_alpha 90.000000
_cell_angle_beta 90.000000
_cell_angle_gamma 90.000000
_cell_volume 3844.614600
_symmetry_space_group_name_H-M "F D D 2"
_symmetry_group_IT_number 43
_symmetry_cell_setting 'orthorhombic'
loop_
_space_group_symop_operation_xyz
x,y,z
-x,-y,z
1/4-x,1/4+y,1/4+z
1/4+x,1/4-y,1/4+z
x,1/2+y,1/2+z
-x,1/2-y,1/2+z
1/4-x,3/4+y,3/4+z
1/4+x,3/4-y,3/4+z
1/2+x,y,1/2+z
1/2-x,-y,1/2+z
3/4-x,1/4+y,3/4+z
3/4+x,1/4-y,3/4+z
1/2+x,1/2+y,z
1/2-x,1/2-y,z
3/4-x,3/4+y,1/4+z
3/4+x,3/4-y,1/4+z
loop_
_atom_site_type_symbol
_atom_site_label
_atom_site_fract_x
_atom_site_fract_y
_atom_site_fract_z
Si Si1 0.822908 0.507671 0.338820
Si Si2 0.897338 0.619958 0.722946
Si Si3 0.349624 0.572688 0.395122
Si Si4 0.540955 0.253297 0.466446
Si Si5 0.750000 0.750000 0.379654
Si Si6 0.000000 0.500000 0.415865
Si Si7 0.750000 0.750000 0.566899
O O1 0.747847 0.410085 0.363173
O O2 0.851955 0.491153 0.273553
O O3 0.776126 0.638255 0.341109
O O4 0.911481 0.502341 0.376953
O O5 0.914576 0.756903 0.704917
O O6 0.792079 0.590274 0.736596
O O7 0.967795 0.608339 0.775924
O O8 0.916176 0.530527 0.671160
O O9 0.402026 0.696832 0.411763
O O10 0.412461 0.481042 0.357480
O O11 0.505368 0.118983 0.454291
#
# Coordination Sequence:
#
# PCOD8187109 Si02
#       7
#    16  16  16  16   8   8   8
#     4  11  25  45  72  99 136 190 225 287 352 399
#     4  10  20  39  70 102 129 172 233 287 327 401
#     4  11  24  42  70 106 137 176 238 288 334 413
#     4  12  24  46  68 102 144 181 232 277 356 419
#     4   9  19  42  70  96 126 174 245 273 314 416
#     4  12  29  48  67 102 145 184 227 290 348 422
#     4  11  20  38  71 108 133 178 226 289 340 400
#
# _framework density 22.889161000000001
#
# number of rings (size 3 to 8) (size 9 to 14) (size 15 to 20)
#    0.000    1.091    5.455    0.545    0.000    3.636 
#    6.545    0.000    0.000    0.000    0.000    0.000 
#    0.000    0.000    0.000    0.000    0.000    0.000 
#
# Total GULP energy -272544.729296 kJ/mol
# GULP energy per Si atom -12388.396786 kJ/mol
# Density = 2.283706 g / cm^3
# Si number density = 22.889161 Si / 1000 Ang^3
#
#
#
# Elastic Constant Matrix: (Units=GPa)
#
#
# Indices 1 2 3 4 5 6 
#
# 1 116.1295 20.7472 46.5281 0.0000 0.0000 0.0000
# 2 20.7472 73.5151 28.9893 0.0000 0.0000 0.0000
# 3 46.5281 28.9893 132.0093 0.0000 0.0000 0.0000
# 4 0.0000 0.0000 0.0000 18.1308 0.0000 0.0000
# 5 0.0000 0.0000 0.0000 0.0000 -9.2388 0.0000
# 6 0.0000 0.0000 0.0000 0.0000 0.0000 28.5440
#
#
#
# Elastic Compliance Matrix: (Units=1/GPa)
#
#
# Indices 1 2 3 4 5 6 
#
# 1 0.010196 -0.001599 -0.003243 0.000000 0.000000 0.000000
# 2 -0.001599 0.015143 -0.002762 0.000000 0.000000 0.000000
# 3 -0.003243 -0.002762 0.009325 0.000000 0.000000 0.000000
# 4 0.000000 0.000000 0.000000 0.055155 0.000000 0.000000
# 5 0.000000 0.000000 0.000000 0.000000 -0.108240 0.000000
# 6 0.000000 0.000000 0.000000 0.000000 0.000000 0.035034
#
#
# Mechanical properties :
#
#
# Convention : Reuss Voigt Hill
#
# Bulk Modulus (GPa) = 51.39550 57.13146 54.26348
# Shear Modulus (GPa) = 130.53301 22.51315 76.52308
#
# Velocity S-wave (km/s) = 7.55990 3.13960 5.78832
# Velocity P-wave (km/s) = 9.93507 6.17714 8.27232
#
# Compressibility (1/GPa) = 0.01945696
#
# Stress axis : x y z
#
# Youngs Moduli (GPa) = 98.07901 66.03733 107.24320
#
# Poissons Ratio (x) = 0.10558 0.34774
# Poissons Ratio (y) = 0.15681 0.29619
# Poissons Ratio (z) = 0.31803 0.18239
#
# Static dielectric constant tensor:
#      x y z
#    x 4.262770 0.000000 0.000000 
#    y 0.000000 4.100180 0.000000 
#    z 0.000000 0.000000 4.213660 
# 
# 
# High freq. dielectric constant tensor:
#      x y z
#    x 1.900780 0.000000 0.000000 
#    y 0.000000 1.876650 0.000000 
#    z 0.000000 0.000000 1.914530 
# 
# From -- ./inp_files/17078.got.cif
#   From: 2010.06.25/outbox.cif.g09.slc.cpg/sg43_9_cif.got.tgz:17078.got - 2010.06.26 16:48:59.
