data_PCOD8187998
_publ_section_title
;
Structure prediction by ZEFSAII (Michael W. Deem and Ramdas Pophale) SiO2 
 PCOD8187998
Probable space group: I M M 2
;
_chemical_formula_sum "Si O2"
_cell_formula_units_Z 64
_cell_length_a 27.000758
_cell_length_b 8.931968
_cell_length_c 18.059754
_cell_angle_alpha 90.000000
_cell_angle_beta 90.000000
_cell_angle_gamma 90.000000
_cell_volume 4355.469182
_symmetry_space_group_name_H-M "I M M 2"
_symmetry_group_IT_number 44
_symmetry_cell_setting 'orthorhombic'
loop_
_space_group_symop_operation_xyz
x,y,z
-x,-y,z
-x,y,z
x,-y,z
1/2+x,1/2+y,1/2+z
1/2-x,1/2-y,1/2+z
1/2-x,1/2+y,1/2+z
1/2+x,1/2-y,1/2+z
loop_
_atom_site_type_symbol
_atom_site_label
_atom_site_fract_x
_atom_site_fract_y
_atom_site_fract_z
Si Si1 0.800237 0.832653 0.974030
Si Si2 0.848713 0.677063 0.433699
Si Si3 0.742280 0.677071 0.853039
Si Si4 0.945048 0.677715 0.189247
Si Si5 0.256278 0.826606 0.697063
Si Si6 0.554256 0.177828 0.855118
Si Si7 0.203840 0.333917 0.574997
Si Si8 0.648010 0.824737 0.600069
O O1 0.788879 0.739762 0.899725
O O2 0.816866 0.000000 0.952045
O O3 0.751264 0.836294 0.022705
O O4 0.843752 0.756122 0.021611
O O5 0.841653 0.500000 0.419999
O O6 0.809609 0.760268 0.382061
O O7 0.903288 0.734923 0.410861
O O8 0.841400 0.715273 0.520991
O O9 0.742050 0.500000 0.859718
O O10 0.749229 0.725193 0.768706
O O11 0.941099 0.500000 0.190656
O O12 0.935225 0.738841 0.272234
O O13 0.903065 0.740568 0.134118
O O14 0.000000 0.727634 0.162323
O O15 0.211386 0.783387 0.641353
O O16 0.308452 0.789840 0.658367
O O17 0.251734 0.000000 0.718483
O O18 0.500000 0.234738 0.882086
O O19 0.554377 0.000000 0.852837
O O20 0.194676 0.500000 0.608081
O O21 0.645143 0.000000 0.583763
#
# Coordination Sequence:
#
# PCOD8187998 Si02
#       8
#     8   8   8   8   8   8   8   8
#     4   9  17  29  42  56  77 103 131 164 201 239
#     4   9  16  27  42  59  81 108 137 168 200 232
#     4  11  20  28  40  58  80 105 134 165 198 240
#     4   8  13  21  35  57  83 108 136 170 200 225
#     4  10  18  27  40  57  78 104 134 167 200 236
#     4   8  13  22  38  60  83 107 137 170 199 226
#     4   8  15  26  38  54  77 103 130 162 198 235
#     4   9  16  26  41  59  79 106 139 169 198 233
#
# _framework density 14.69417
#
# number of rings (size 3 to 8) (size 9 to 14) (size 15 to 20)
#    0.000    3.000    0.000    4.125    0.000    5.500 
#    0.000    0.000    0.000    0.750    0.000    1.750 
#    0.000    1.000    0.000    8.500    0.000    2.375 
#
# Total GULP energy -396604.825166 kJ/mol
# GULP energy per Si atom -12393.900786 kJ/mol
# Density = 1.466073 g / cm^3
# Si number density = 14.694170 Si / 1000 Ang^3
#
#
#
# Elastic Constant Matrix: (Units=GPa)
#
#
# Indices 1 2 3 4 5 6 
#
# 1 98.7859 27.5748 57.2900 0.0000 0.0000 0.0000
# 2 27.5748 58.5319 38.9306 0.0000 0.0000 0.0000
# 3 57.2900 38.9306 82.8315 0.0000 0.0000 0.0000
# 4 0.0000 0.0000 0.0000 23.2294 0.0000 0.0000
# 5 0.0000 0.0000 0.0000 0.0000 27.8346 0.0000
# 6 0.0000 0.0000 0.0000 0.0000 0.0000 12.0629
#
#
#
# Elastic Compliance Matrix: (Units=1/GPa)
#
#
# Indices 1 2 3 4 5 6 
#
# 1 0.016906 -0.000273 -0.011565 0.000000 0.000000 0.000000
# 2 -0.000273 0.024859 -0.011495 0.000000 0.000000 0.000000
# 3 -0.011565 -0.011495 0.025474 0.000000 0.000000 0.000000
# 4 0.000000 0.000000 0.000000 0.043049 0.000000 0.000000
# 5 0.000000 0.000000 0.000000 0.000000 0.035927 0.000000
# 6 0.000000 0.000000 0.000000 0.000000 0.000000 0.082899
#
#
# Mechanical properties :
#
#
# Convention : Reuss Voigt Hill
#
# Bulk Modulus (GPa) = 48.60520 54.19333 51.39926
# Shear Modulus (GPa) = 17.69064 20.38230 19.03647
#
# Velocity S-wave (km/s) = 3.47352 3.72842 3.60323
# Velocity P-wave (km/s) = 7.01690 7.44955 7.23646
#
# Compressibility (1/GPa) = 0.02057393
#
# Stress axis : x y z
#
# Youngs Moduli (GPa) = 59.15114 40.22745 39.25562
#
# Poissons Ratio (x) = 0.01096 0.45398
# Poissons Ratio (y) = 0.01612 0.45124
# Poissons Ratio (z) = 0.68407 0.46242
#
# Static dielectric constant tensor:
#      x y z
#    x 2.978270 0.000000 0.000000 
#    y 0.000000 2.731290 0.000000 
#    z 0.000000 0.000000 2.906600 
# 
# 
# High freq. dielectric constant tensor:
#      x y z
#    x 1.533630 0.000000 0.000000 
#    y 0.000000 1.548110 0.000000 
#    z 0.000000 0.000000 1.549490 
# 
# From -- ./inp_files/20905.got.cif
#   From: 2010.03.12/outbox.cif.g09.slc.cpg/sg44_11_cif.got.tgz:20905.got - 2010.04.14 02:36:11.
