data_PCOD8187453
_publ_section_title
;
Structure prediction by ZEFSAII (Michael W. Deem and Ramdas Pophale) SiO2 
 PCOD8187453
Probable space group: F D D 2
;
_chemical_formula_sum "Si O2"
_cell_formula_units_Z 72
_cell_length_a 13.750814
_cell_length_b 31.253702
_cell_length_c 7.647490
_cell_angle_alpha 90.000000
_cell_angle_beta 90.000000
_cell_angle_gamma 90.000000
_cell_volume 3286.614692
_symmetry_space_group_name_H-M "F D D 2"
_symmetry_group_IT_number 43
_symmetry_cell_setting 'orthorhombic'
loop_
_space_group_symop_operation_xyz
x,y,z
-x,-y,z
1/4-x,1/4+y,1/4+z
1/4+x,1/4-y,1/4+z
x,1/2+y,1/2+z
-x,1/2-y,1/2+z
1/4-x,3/4+y,3/4+z
1/4+x,3/4-y,3/4+z
1/2+x,y,1/2+z
1/2-x,-y,1/2+z
3/4-x,1/4+y,3/4+z
3/4+x,1/4-y,3/4+z
1/2+x,1/2+y,z
1/2-x,1/2-y,z
3/4-x,3/4+y,1/4+z
3/4+x,3/4-y,1/4+z
loop_
_atom_site_type_symbol
_atom_site_label
_atom_site_fract_x
_atom_site_fract_y
_atom_site_fract_z
Si Si1 0.500000 0.000000 0.921770
Si Si2 0.714843 0.915977 0.640649
Si Si3 0.242838 0.329372 0.436416
Si Si4 0.932252 0.194328 0.714553
Si Si5 0.431593 0.748518 0.396228
O O1 0.535216 0.039366 0.805510
O O2 0.411659 0.014843 0.042120
O O3 0.601283 0.926123 0.614817
O O4 0.741340 0.872710 0.544787
O O5 0.749155 0.912947 0.846096
O O6 0.773319 0.955662 0.554968
O O7 0.164558 0.330491 0.277760
O O8 0.905164 0.236338 0.596292
O O9 0.991628 0.212227 0.882447
#
# Coordination Sequence:
#
# PCOD8187453 Si02
#       5
#     8  16  16  16  16
#     4  12  22  42  76  98 140 188 232 300 350 442
#     4  10  25  43  67 103 141 185 238 295 354 434
#     4  12  23  45  70  99 144 187 237 296 366 415
#     4  10  23  45  69 100 140 188 231 293 357 420
#     4  10  22  45  66 104 139 183 244 287 356 429
#
# _framework density 21.907041
#
# number of rings (size 3 to 8) (size 9 to 14) (size 15 to 20)
#    1.333    0.000    2.222    4.000    0.000    4.444 
#    4.000    0.000    0.000    0.000    0.000    0.000 
#    0.000    0.000    0.000    0.000    0.000    0.000 
#
# Total GULP energy -223051.277125 kJ/mol
# GULP energy per Si atom -12391.737618 kJ/mol
# Density = 2.185718 g / cm^3
# Si number density = 21.907041 Si / 1000 Ang^3
#
#
#
# Elastic Constant Matrix: (Units=GPa)
#
#
# Indices 1 2 3 4 5 6 
#
# 1 144.8925 25.2484 34.4206 0.0000 0.0000 0.0000
# 2 25.2484 70.0392 24.9126 0.0000 0.0000 0.0000
# 3 34.4206 24.9126 71.7740 0.0000 0.0000 0.0000
# 4 0.0000 0.0000 0.0000 36.6646 0.0000 0.0000
# 5 0.0000 0.0000 0.0000 0.0000 38.7464 0.0000
# 6 0.0000 0.0000 0.0000 0.0000 0.0000 30.4518
#
#
#
# Elastic Compliance Matrix: (Units=1/GPa)
#
#
# Indices 1 2 3 4 5 6 
#
# 1 0.007968 -0.001726 -0.003222 0.000000 0.000000 0.000000
# 2 -0.001726 0.016663 -0.004956 0.000000 0.000000 0.000000
# 3 -0.003222 -0.004956 0.017198 0.000000 0.000000 0.000000
# 4 0.000000 0.000000 0.000000 0.027274 0.000000 0.000000
# 5 0.000000 0.000000 0.000000 0.000000 0.025809 0.000000
# 6 0.000000 0.000000 0.000000 0.000000 0.000000 0.032839
#
#
# Mechanical properties :
#
#
# Convention : Reuss Voigt Hill
#
# Bulk Modulus (GPa) = 45.41208 50.65209 48.03209
# Shear Modulus (GPa) = 32.27917 34.64750 33.46334
#
# Velocity S-wave (km/s) = 3.84273 3.98121 3.91258
# Velocity P-wave (km/s) = 6.36107 6.65620 6.51031
#
# Compressibility (1/GPa) = 0.02202057
#
# Stress axis : x y z
#
# Youngs Moduli (GPa) = 125.50361 60.01409 58.14661
#
# Poissons Ratio (x) = 0.10360 0.18735
# Poissons Ratio (y) = 0.21666 0.28816
# Poissons Ratio (z) = 0.40437 0.29741
#
# Static dielectric constant tensor:
#      x y z
#    x 3.994060 0.000000 0.000000 
#    y 0.000000 3.734440 0.000000 
#    z 0.000000 0.000000 3.738090 
# 
# 
# High freq. dielectric constant tensor:
#      x y z
#    x 1.873300 0.000000 0.000000 
#    y 0.000000 1.847140 0.000000 
#    z 0.000000 0.000000 1.845960 
# 
# From -- ./inp_files/2331.got.cif
#   From: 2010.06.25/outbox.cif.g09.slc.cpg/sg43_2_cif.got.tgz:2331.got - 2010.06.26 16:48:59.
