data_PCOD8187349
_publ_section_title
;
Structure prediction by ZEFSAII (Michael W. Deem and Ramdas Pophale) SiO2 
 PCOD8187349
Probable space group: F D D 2
;
_chemical_formula_sum "Si O2"
_cell_formula_units_Z 64
_cell_length_a 7.195473
_cell_length_b 33.721923
_cell_length_c 13.626758
_cell_angle_alpha 90.000000
_cell_angle_beta 90.000000
_cell_angle_gamma 90.000000
_cell_volume 3306.467236
_symmetry_space_group_name_H-M "F D D 2"
_symmetry_group_IT_number 43
_symmetry_cell_setting 'orthorhombic'
loop_
_space_group_symop_operation_xyz
x,y,z
-x,-y,z
1/4-x,1/4+y,1/4+z
1/4+x,1/4-y,1/4+z
x,1/2+y,1/2+z
-x,1/2-y,1/2+z
1/4-x,3/4+y,3/4+z
1/4+x,3/4-y,3/4+z
1/2+x,y,1/2+z
1/2-x,-y,1/2+z
3/4-x,1/4+y,3/4+z
3/4+x,1/4-y,3/4+z
1/2+x,1/2+y,z
1/2-x,1/2-y,z
3/4-x,3/4+y,1/4+z
3/4+x,3/4-y,1/4+z
loop_
_atom_site_type_symbol
_atom_site_label
_atom_site_fract_x
_atom_site_fract_y
_atom_site_fract_z
Si Si1 0.650229 0.165801 0.193270
Si Si2 0.745119 0.467165 0.285044
Si Si3 0.723764 0.669067 0.917270
Si Si4 0.400777 0.695285 0.038805
O O1 0.494516 0.193368 0.139610
O O2 0.676190 0.178204 0.305192
O O3 0.590940 0.120442 0.183320
O O4 0.850915 0.172646 0.140628
O O5 0.907228 0.455289 0.210677
O O6 0.761413 0.513760 0.309246
O O7 0.545308 0.455939 0.235331
O O8 0.527011 0.666251 0.973672
#
# Coordination Sequence:
#
# PCOD8187349 Si02
#       4
#    16  16  16  16
#     4  10  22  40  62  93 128 158 214 264 309 375
#     4   9  21  43  59  92 129 159 213 270 304 377
#     4  12  21  40  67  90 125 172 206 259 329 366
#     4   9  22  41  62  90 130 162 212 264 311 375
#
# _framework density 19.356007000000002
#
# number of rings (size 3 to 8) (size 9 to 14) (size 15 to 20)
#    1.500    0.500    2.500    0.750    0.000    8.000 
#    4.500    0.000    0.000    0.000    0.000    0.000 
#    0.000    0.000    0.000    0.000    0.000    0.000 
#
# Total GULP energy -198239.732659 kJ/mol
# GULP energy per Si atom -12389.983291 kJ/mol
# Density = 1.931195 g / cm^3
# Si number density = 19.356007 Si / 1000 Ang^3
#
#
#
# Elastic Constant Matrix: (Units=GPa)
#
#
# Indices 1 2 3 4 5 6 
#
# 1 63.0443 38.3961 46.8803 0.0000 0.0000 0.0000
# 2 38.3961 100.9549 42.0331 0.0000 0.0000 0.0000
# 3 46.8803 42.0331 145.5127 0.0000 0.0000 0.0000
# 4 0.0000 0.0000 0.0000 15.5910 0.0000 0.0000
# 5 0.0000 0.0000 0.0000 0.0000 37.2418 0.0000
# 6 0.0000 0.0000 0.0000 0.0000 0.0000 30.1165
#
#
#
# Elastic Compliance Matrix: (Units=1/GPa)
#
#
# Indices 1 2 3 4 5 6 
#
# 1 0.024399 -0.006828 -0.005888 0.000000 0.000000 0.000000
# 2 -0.006828 0.013170 -0.001605 0.000000 0.000000 0.000000
# 3 -0.005888 -0.001605 0.009233 0.000000 0.000000 0.000000
# 4 0.000000 0.000000 0.000000 0.064140 0.000000 0.000000
# 5 0.000000 0.000000 0.000000 0.000000 0.026852 0.000000
# 6 0.000000 0.000000 0.000000 0.000000 0.000000 0.033204
#
#
# Mechanical properties :
#
#
# Convention : Reuss Voigt Hill
#
# Bulk Modulus (GPa) = 55.06531 62.68121 58.87326
# Shear Modulus (GPa) = 24.30805 28.73668 26.52237
#
# Velocity S-wave (km/s) = 3.54763 3.85728 3.70569
# Velocity P-wave (km/s) = 6.72988 7.23131 6.98510
#
# Compressibility (1/GPa) = 0.01816026
#
# Stress axis : x y z
#
# Youngs Moduli (GPa) = 40.98531 75.92790 108.30901
#
# Poissons Ratio (x) = 0.51844 0.63776
# Poissons Ratio (y) = 0.27985 0.17380
# Poissons Ratio (z) = 0.24134 0.12184
#
# Static dielectric constant tensor:
#      x y z
#    x 3.504710 0.000000 0.000000 
#    y 0.000000 3.453760 0.000000 
#    z 0.000000 0.000000 3.379150 
# 
# 
# High freq. dielectric constant tensor:
#      x y z
#    x 1.749360 0.000000 0.000000 
#    y 0.000000 1.759710 0.000000 
#    z 0.000000 0.000000 1.729850 
# 
# From -- ./inp_files/5299.got.cif
#   From: 2010.06.25/outbox.cif.g09.slc.cpg/sg43_3_cif.got.tgz:5299.got - 2010.06.26 16:48:59.
