data_PCOD8187631
_publ_section_title
;
Structure prediction by ZEFSAII (Michael W. Deem and Ramdas Pophale) SiO2 
 PCOD8187631
Probable space group: F D D 2
;
_chemical_formula_sum "Si O2"
_cell_formula_units_Z 120
_cell_length_a 21.474593
_cell_length_b 9.208500
_cell_length_c 31.288958
_cell_angle_alpha 90.000000
_cell_angle_beta 90.000000
_cell_angle_gamma 90.000000
_cell_volume 6187.353574
_symmetry_space_group_name_H-M "F D D 2"
_symmetry_group_IT_number 43
_symmetry_cell_setting 'orthorhombic'
loop_
_space_group_symop_operation_xyz
x,y,z
-x,-y,z
1/4-x,1/4+y,1/4+z
1/4+x,1/4-y,1/4+z
x,1/2+y,1/2+z
-x,1/2-y,1/2+z
1/4-x,3/4+y,3/4+z
1/4+x,3/4-y,3/4+z
1/2+x,y,1/2+z
1/2-x,-y,1/2+z
3/4-x,1/4+y,3/4+z
3/4+x,1/4-y,3/4+z
1/2+x,1/2+y,z
1/2-x,1/2-y,z
3/4-x,3/4+y,1/4+z
3/4+x,3/4-y,1/4+z
loop_
_atom_site_type_symbol
_atom_site_label
_atom_site_fract_x
_atom_site_fract_y
_atom_site_fract_z
Si Si1 0.856515 0.723946 0.497470
Si Si2 0.241182 0.421432 0.717853
Si Si3 0.250000 0.750000 0.929535
Si Si4 0.001672 0.673428 0.871159
Si Si5 0.290720 0.441227 0.355177
Si Si6 0.366921 0.921867 0.073713
Si Si7 0.069480 0.289797 0.046534
Si Si8 0.633917 0.511050 0.063555
O O1 0.924612 0.774673 0.483816
O O2 0.810307 0.719891 0.457868
O O3 0.835052 0.833572 0.534805
O O4 0.855029 0.563711 0.517780
O O5 0.250000 0.250000 0.719672
O O6 0.248562 0.478721 0.669794
O O7 0.294445 0.486990 0.748502
O O8 0.266367 0.893808 0.901905
O O9 0.939476 0.740754 0.850442
O O10 0.000000 0.500000 0.867814
O O11 0.061493 0.736476 0.847385
O O12 0.344807 0.564049 0.355419
O O13 0.234965 0.510384 0.329519
O O14 0.318583 0.296660 0.333100
O O15 0.410051 0.045333 0.053770
O O16 0.127189 0.182282 0.054837
#
# Coordination Sequence:
#
# PCOD8187631 Si02
#       8
#    16  16   8  16  16  16  16  16
#     4  11  22  39  64  93 125 165 216 263 322 383
#     4  11  22  38  65  94 121 162 218 269 308 381
#     4  12  24  38  66  98 130 162 224 276 316 382
#     4  11  22  40  65  95 124 162 215 264 316 379
#     4  11  21  39  66  91 116 169 214 258 315 376
#     4  11  23  41  68  89 127 171 214 257 328 393
#     4  12  22  42  63  93 126 167 215 259 319 387
#     4  11  22  41  67  91 125 170 209 260 323 384
#
# _framework density 19.394397999999999
#
# number of rings (size 3 to 8) (size 9 to 14) (size 15 to 20)
#    0.000    0.800    8.000    2.000    1.867    0.533 
#    2.400    1.333    2.933    0.000    0.000    0.000 
#    0.000    0.000    0.000    0.000    0.000    0.000 
#
# Total GULP energy -371993.749102 kJ/mol
# GULP energy per Si atom -12399.791637 kJ/mol
# Density = 1.935026 g / cm^3
# Si number density = 19.394398 Si / 1000 Ang^3
#
#
#
# Elastic Constant Matrix: (Units=GPa)
#
#
# Indices 1 2 3 4 5 6 
#
# 1 79.0969 29.6912 60.1009 0.0000 0.0000 -0.0001
# 2 29.6912 75.7472 34.3115 0.0001 -0.0001 -0.0003
# 3 60.1009 34.3115 144.0116 0.0000 0.0000 0.0000
# 4 0.0000 0.0001 0.0000 22.3894 0.0000 0.0000
# 5 0.0000 -0.0001 0.0000 0.0000 45.3077 0.0001
# 6 -0.0001 -0.0003 0.0000 0.0000 0.0001 23.8931
#
#
#
# Elastic Compliance Matrix: (Units=1/GPa)
#
#
# Indices 1 2 3 4 5 6 
#
# 1 0.019795 -0.004503 -0.007188 0.000000 0.000000 0.000000
# 2 -0.004503 0.015823 -0.001891 0.000000 0.000000 0.000000
# 3 -0.007188 -0.001891 0.010394 0.000000 0.000000 0.000000
# 4 0.000000 0.000000 0.000000 0.044664 0.000000 0.000000
# 5 0.000000 0.000000 0.000000 0.000000 0.022071 0.000000
# 6 0.000000 0.000000 0.000000 0.000000 0.000000 0.041853
#
#
# Mechanical properties :
#
#
# Convention : Reuss Voigt Hill
#
# Bulk Modulus (GPa) = 53.05456 60.78478 56.91967
# Shear Modulus (GPa) = 26.58898 29.96819 28.27858
#
# Velocity S-wave (km/s) = 3.70667 3.93517 3.82262
# Velocity P-wave (km/s) = 6.76270 7.21504 6.99253
#
# Compressibility (1/GPa) = 0.01884852
#
# Stress axis : x y z
#
# Youngs Moduli (GPa) = 50.51785 63.19773 96.20702
#
# Poissons Ratio (x) = 0.28459 0.69156
# Poissons Ratio (y) = 0.22749 0.18190
# Poissons Ratio (z) = 0.36313 0.11949
#
# Static dielectric constant tensor:
#      x y z
#    x 3.563940 0.000000 0.000000 
#    y 0.000000 3.548030 0.000000 
#    z 0.000000 0.000000 3.783780 
# 
# 
# High freq. dielectric constant tensor:
#      x y z
#    x 1.763710 0.000000 0.000000 
#    y 0.000000 1.738230 0.000000 
#    z 0.000000 0.000000 1.759470 
# 
# From -- ./inp_files/24477.got.cif
#   From: 2010.06.25/outbox.cif.g09.slc.cpg/sg43_13_cif.got.tgz:24477.got - 2010.06.26 16:48:59.
