data_PCOD8187647
_publ_section_title
;
Structure prediction by ZEFSAII (Michael W. Deem and Ramdas Pophale) SiO2 
 PCOD8187647
Probable space group: F D D 2
;
_chemical_formula_sum "Si O2"
_cell_formula_units_Z 80
_cell_length_a 11.618965
_cell_length_b 28.896695
_cell_length_c 10.662083
_cell_angle_alpha 90.000000
_cell_angle_beta 90.000000
_cell_angle_gamma 90.000000
_cell_volume 3579.791039
_symmetry_space_group_name_H-M "F D D 2"
_symmetry_group_IT_number 43
_symmetry_cell_setting 'orthorhombic'
loop_
_space_group_symop_operation_xyz
x,y,z
-x,-y,z
1/4-x,1/4+y,1/4+z
1/4+x,1/4-y,1/4+z
x,1/2+y,1/2+z
-x,1/2-y,1/2+z
1/4-x,3/4+y,3/4+z
1/4+x,3/4-y,3/4+z
1/2+x,y,1/2+z
1/2-x,-y,1/2+z
3/4-x,1/4+y,3/4+z
3/4+x,1/4-y,3/4+z
1/2+x,1/2+y,z
1/2-x,1/2-y,z
3/4-x,3/4+y,1/4+z
3/4+x,3/4-y,1/4+z
loop_
_atom_site_type_symbol
_atom_site_label
_atom_site_fract_x
_atom_site_fract_y
_atom_site_fract_z
Si Si1 0.391065 0.335054 0.697760
Si Si2 0.404783 0.712703 0.597575
Si Si3 0.851106 0.677585 0.825596
Si Si4 0.056693 0.686456 0.652424
Si Si5 0.513307 0.619538 0.933016
O O1 0.457320 0.294486 0.621955
O O2 0.278171 0.316718 0.770599
O O3 0.362264 0.374166 0.594539
O O4 0.479240 0.360962 0.792051
O O5 0.366479 0.706154 0.453611
O O6 0.374478 0.765443 0.632525
O O7 0.345677 0.675519 0.689974
O O8 0.939324 0.697530 0.723896
O O9 0.038650 0.663552 0.517577
O O10 0.138090 0.649764 0.723771
#
# Coordination Sequence:
#
# PCOD8187647 Si02
#       5
#    16  16  16  16  16
#     4  11  21  45  71  97 135 192 232 292 351 438
#     4  11  25  45  70 106 135 188 248 285 358 451
#     4  11  23  43  71  99 143 181 240 293 364 422
#     4  12  26  42  70 103 140 186 230 304 362 427
#     4  11  22  45  69  93 142 181 233 291 361 418
#
# _framework density 22.347671999999999
#
# number of rings (size 3 to 8) (size 9 to 14) (size 15 to 20)
#    0.000    0.800    6.000    3.000    2.800    0.800 
#    3.600    0.000    0.000    0.000    0.000    0.000 
#    0.000    0.000    0.000    0.000    0.000    0.000 
#
# Total GULP energy -247853.439447 kJ/mol
# GULP energy per Si atom -12392.671972 kJ/mol
# Density = 2.229681 g / cm^3
# Si number density = 22.347672 Si / 1000 Ang^3
#
#
#
# Elastic Constant Matrix: (Units=GPa)
#
#
# Indices 1 2 3 4 5 6 
#
# 1 107.1827 -6.0860 27.8689 0.0000 0.0000 0.0000
# 2 -6.0860 60.7283 1.4533 0.0000 0.0000 0.0000
# 3 27.8689 1.4533 51.1834 0.0000 0.0000 0.0000
# 4 0.0000 0.0000 0.0000 30.0045 0.0000 0.0000
# 5 0.0000 0.0000 0.0000 0.0000 43.0855 0.0000
# 6 0.0000 0.0000 0.0000 0.0000 0.0000 31.9487
#
#
#
# Elastic Compliance Matrix: (Units=1/GPa)
#
#
# Indices 1 2 3 4 5 6 
#
# 1 0.010961 0.001242 -0.006004 0.000000 0.000000 0.000000
# 2 0.001242 0.016619 -0.001148 0.000000 0.000000 0.000000
# 3 -0.006004 -0.001148 0.022839 0.000000 0.000000 0.000000
# 4 0.000000 0.000000 0.000000 0.033328 0.000000 0.000000
# 5 0.000000 0.000000 0.000000 0.000000 0.023210 0.000000
# 6 0.000000 0.000000 0.000000 0.000000 0.000000 0.031300
#
#
# Mechanical properties :
#
#
# Convention : Reuss Voigt Hill
#
# Bulk Modulus (GPa) = 25.90683 29.50744 27.70714
# Shear Modulus (GPa) = 30.68547 34.06494 32.37520
#
# Velocity S-wave (km/s) = 3.70955 3.90849 3.81032
# Velocity P-wave (km/s) = 5.47407 5.79662 5.63765
#
# Compressibility (1/GPa) = 0.03859985
#
# Stress axis : x y z
#
# Youngs Moduli (GPa) = 91.22894 60.17300 43.78450
#
# Poissons Ratio (x) = -0.07475 0.26287
# Poissons Ratio (y) = -0.11332 0.05028
# Poissons Ratio (z) = 0.54771 0.06909
#
# Static dielectric constant tensor:
#      x y z
#    x 4.213620 0.000000 0.000000 
#    y 0.000000 3.932400 0.000000 
#    z 0.000000 0.000000 3.721180 
# 
# 
# High freq. dielectric constant tensor:
#      x y z
#    x 1.888580 0.000000 0.000000 
#    y 0.000000 1.879870 0.000000 
#    z 0.000000 0.000000 1.860270 
# 
# From -- ./inp_files/5676.got.cif
#   From: 2010.06.25/outbox.cif.g09.slc.cpg/sg43_3_cif.got.tgz:5676.got - 2010.06.26 16:48:59.
