data_PCOD8187971
_publ_section_title
;
Structure prediction by ZEFSAII (Michael W. Deem and Ramdas Pophale) SiO2 
 PCOD8187971
Probable space group: I M M 2
;
_chemical_formula_sum "Si O2"
_cell_formula_units_Z 48
_cell_length_a 14.772494
_cell_length_b 19.912510
_cell_length_c 9.035240
_cell_angle_alpha 90.000000
_cell_angle_beta 90.000000
_cell_angle_gamma 90.000000
_cell_volume 2657.783018
_symmetry_space_group_name_H-M "I M M 2"
_symmetry_group_IT_number 44
_symmetry_cell_setting 'orthorhombic'
loop_
_space_group_symop_operation_xyz
x,y,z
-x,-y,z
-x,y,z
x,-y,z
1/2+x,1/2+y,1/2+z
1/2-x,1/2-y,1/2+z
1/2-x,1/2+y,1/2+z
1/2+x,1/2-y,1/2+z
loop_
_atom_site_type_symbol
_atom_site_label
_atom_site_fract_x
_atom_site_fract_y
_atom_site_fract_z
Si Si1 0.811169 0.076929 0.315550
Si Si2 0.000000 0.788311 0.651831
Si Si3 0.698083 0.311758 0.261012
Si Si4 0.183063 0.077128 0.979264
Si Si5 0.000000 0.296818 0.897860
Si Si6 0.000000 0.147173 0.347341
Si Si7 0.306220 0.816272 0.468703
Si Si8 0.000000 0.150238 0.021372
O O1 0.740788 0.116858 0.413875
O O2 0.912048 0.100347 0.355835
O O3 0.804757 0.000000 0.362476
O O4 0.779449 0.086723 0.145441
O O5 0.904964 0.823530 0.703434
O O6 0.000000 0.710064 0.715134
O O7 0.000000 0.794587 0.472814
O O8 0.732050 0.376010 0.357344
O O9 0.709296 0.246680 0.362855
O O10 0.769425 0.299138 0.130487
O O11 0.190379 0.000000 0.927840
O O12 0.080728 0.100869 0.986747
O O13 0.086330 0.332142 0.970510
O O14 0.000000 0.215639 0.920463
O O15 0.000000 0.181834 0.186488
#
# Coordination Sequence:
#
# PCOD8187971 Si02
#       8
#     8   4   8   8   4   4   8   4
#     4  10  21  36  56  83 113 147 184 225 281 337
#     4  10  18  34  50  82 114 138 178 216 269 334
#     4  11  21  35  55  82 111 149 184 227 277 334
#     4  10  19  34  55  81 113 146 176 219 280 346
#     4  10  22  37  53  74 114 149 187 229 268 326
#     4  10  19  32  54  86 118 146 163 224 279 347
#     4  11  22  36  57  77 110 148 190 232 273 322
#     4  10  17  33  52  80 116 147 179 203 274 349
#
# _framework density 18.060165999999999
#
# number of rings (size 3 to 8) (size 9 to 14) (size 15 to 20)
#    0.000    1.667    5.000    1.500    2.333    2.667 
#    0.000    0.417    0.000    0.000    0.000    1.167 
#    0.000    0.000    0.000    0.000    0.000    0.000 
#
# Total GULP energy -297350.661937 kJ/mol
# GULP energy per Si atom -12389.610914 kJ/mol
# Density = 1.801906 g / cm^3
# Si number density = 18.060166 Si / 1000 Ang^3
#
#
#
# Elastic Constant Matrix: (Units=GPa)
#
#
# Indices 1 2 3 4 5 6 
#
# 1 111.9067 42.3532 47.9840 0.0000 0.0000 0.0000
# 2 42.3532 59.9249 34.7990 0.0000 0.0000 0.0000
# 3 47.9840 34.7990 116.6095 0.0000 0.0000 0.0000
# 4 0.0000 0.0000 0.0000 32.5125 0.0000 0.0000
# 5 0.0000 0.0000 0.0000 0.0000 44.3745 0.0000
# 6 0.0000 0.0000 0.0000 0.0000 0.0000 13.3650
#
#
#
# Elastic Compliance Matrix: (Units=1/GPa)
#
#
# Indices 1 2 3 4 5 6 
#
# 1 0.013106 -0.007417 -0.003180 0.000000 0.000000 0.000000
# 2 -0.007417 0.024383 -0.004224 0.000000 0.000000 0.000000
# 3 -0.003180 -0.004224 0.011145 0.000000 0.000000 0.000000
# 4 0.000000 0.000000 0.000000 0.030757 0.000000 0.000000
# 5 0.000000 0.000000 0.000000 0.000000 0.022535 0.000000
# 6 0.000000 0.000000 0.000000 0.000000 0.000000 0.074822
#
#
# Mechanical properties :
#
#
# Convention : Reuss Voigt Hill
#
# Bulk Modulus (GPa) = 52.65412 59.85705 56.25558
# Shear Modulus (GPa) = 23.50489 28.93740 26.22114
#
# Velocity S-wave (km/s) = 3.61151 4.00719 3.81448
# Velocity P-wave (km/s) = 6.82707 7.39088 7.11456
#
# Compressibility (1/GPa) = 0.01899187
#
# Stress axis : x y z
#
# Youngs Moduli (GPa) = 76.29806 41.01283 89.72784
#
# Poissons Ratio (x) = 0.30418 0.28533
# Poissons Ratio (y) = 0.56588 0.37905
# Poissons Ratio (z) = 0.24262 0.17326
#
# Static dielectric constant tensor:
#      x y z
#    x 2.951510 0.000000 0.000000 
#    y 0.000000 3.144360 0.000000 
#    z 0.000000 0.000000 3.736520 
# 
# 
# High freq. dielectric constant tensor:
#      x y z
#    x 1.683920 0.000000 0.000000 
#    y 0.000000 1.672060 0.000000 
#    z 0.000000 0.000000 1.714640 
# 
# From -- ./inp_files/7166.got.cif
#   From: 2010.03.12/outbox.cif.g09.slc.cpg/sg44_4_cif.got.tgz:7166.got - 2010.04.14 02:36:11.
