data_PCOD8187381
_publ_section_title
;
Structure prediction by ZEFSAII (Michael W. Deem and Ramdas Pophale) SiO2 
 PCOD8187381
Probable space group: F D D 2
;
_chemical_formula_sum "Si O2"
_cell_formula_units_Z 64
_cell_length_a 12.377122
_cell_length_b 12.066477
_cell_length_c 15.323914
_cell_angle_alpha 90.000000
_cell_angle_beta 90.000000
_cell_angle_gamma 90.000000
_cell_volume 2288.599861
_symmetry_space_group_name_H-M "F D D 2"
_symmetry_group_IT_number 43
_symmetry_cell_setting 'orthorhombic'
loop_
_space_group_symop_operation_xyz
x,y,z
-x,-y,z
1/4-x,1/4+y,1/4+z
1/4+x,1/4-y,1/4+z
x,1/2+y,1/2+z
-x,1/2-y,1/2+z
1/4-x,3/4+y,3/4+z
1/4+x,3/4-y,3/4+z
1/2+x,y,1/2+z
1/2-x,-y,1/2+z
3/4-x,1/4+y,3/4+z
3/4+x,1/4-y,3/4+z
1/2+x,1/2+y,z
1/2-x,1/2-y,z
3/4-x,3/4+y,1/4+z
3/4+x,3/4-y,1/4+z
loop_
_atom_site_type_symbol
_atom_site_label
_atom_site_fract_x
_atom_site_fract_y
_atom_site_fract_z
Si Si1 0.833406 0.584014 0.161670
Si Si2 0.608683 0.171902 0.695203
Si Si3 0.390410 0.187130 0.620416
Si Si4 0.506689 0.364695 0.522067
O O1 0.707677 0.613489 0.144059
O O2 0.886455 0.695131 0.200539
O O3 0.832743 0.482548 0.230329
O O4 0.906674 0.556191 0.075150
O O5 0.503145 0.130118 0.645136
O O6 0.590768 0.134587 0.793720
O O7 0.415912 0.312271 0.586568
O O8 0.303909 0.187235 0.698459
#
# Coordination Sequence:
#
# PCOD8187381 Si02
#       4
#    16  16  16  16
#     4   9  20  37  66  97 131 172 222 275 332 396
#     4   9  20  39  64  95 129 177 224 267 326 411
#     4  10  22  41  67  96 131 176 226 273 329 402
#     4  10  22  43  69  98 133 175 224 278 335 401
#
# _framework density 27.964694999999999
#
# number of rings (size 3 to 8) (size 9 to 14) (size 15 to 20)
#    0.000    2.500    0.000    0.000    0.000   26.000 
#    0.000   20.000    0.000   12.000    0.000    0.000 
#    0.000    0.000    0.000    0.000    0.000    0.000 
#
# Total GULP energy -198281.705386 kJ/mol
# GULP energy per Si atom -12392.606587 kJ/mol
# Density = 2.790105 g / cm^3
# Si number density = 27.964695 Si / 1000 Ang^3
#
#
#
# Elastic Constant Matrix: (Units=GPa)
#
#
# Indices 1 2 3 4 5 6 
#
# 1 145.1604 24.5459 72.7764 0.0000 0.0000 0.0000
# 2 24.5459 87.4310 34.5113 0.0000 0.0000 0.0000
# 3 72.7764 34.5113 141.9261 0.0000 0.0000 0.0000
# 4 0.0000 0.0000 0.0000 27.3806 0.0000 0.0000
# 5 0.0000 0.0000 0.0000 0.0000 74.8663 0.0000
# 6 0.0000 0.0000 0.0000 0.0000 0.0000 34.2533
#
#
#
# Elastic Compliance Matrix: (Units=1/GPa)
#
#
# Indices 1 2 3 4 5 6 
#
# 1 0.009324 -0.000808 -0.004585 0.000000 0.000000 0.000000
# 2 -0.000808 0.012722 -0.002679 0.000000 0.000000 0.000000
# 3 -0.004585 -0.002679 0.010048 0.000000 0.000000 0.000000
# 4 0.000000 0.000000 0.000000 0.036522 0.000000 0.000000
# 5 0.000000 0.000000 0.000000 0.000000 0.013357 0.000000
# 6 0.000000 0.000000 0.000000 0.000000 0.000000 0.029194
#
#
# Mechanical properties :
#
#
# Convention : Reuss Voigt Hill
#
# Bulk Modulus (GPa) = 62.69355 70.90941 66.80148
# Shear Modulus (GPa) = 37.69921 43.47897 40.58909
#
# Velocity S-wave (km/s) = 3.67563 3.94735 3.81391
# Velocity P-wave (km/s) = 6.36248 6.79612 6.58287
#
# Compressibility (1/GPa) = 0.01595061
#
# Stress axis : x y z
#
# Youngs Moduli (GPa) = 107.24886 78.60407 99.51896
#
# Poissons Ratio (x) = 0.06351 0.45627
# Poissons Ratio (y) = 0.08666 0.26663
# Poissons Ratio (z) = 0.49170 0.21060
#
# Static dielectric constant tensor:
#      x y z
#    x 5.580060 0.000000 0.000000 
#    y 0.000000 5.195100 0.000000 
#    z 0.000000 0.000000 5.215090 
# 
# 
# High freq. dielectric constant tensor:
#      x y z
#    x 2.138520 0.000000 0.000000 
#    y 0.000000 2.141750 0.000000 
#    z 0.000000 0.000000 2.130000 
# 
# From -- ./inp_files/9405.got.cif
#   From: 2010.06.25/outbox.cif.g09.slc.cpg/sg43_5_cif.got.tgz:9405.got - 2010.06.26 16:48:59.
