data_PCOD8187969
_publ_section_title
;
Structure prediction by ZEFSAII (Michael W. Deem and Ramdas Pophale) SiO2 
 PCOD8187969
Probable space group: I M M 2
;
_chemical_formula_sum "Si O2"
_cell_formula_units_Z 64
_cell_length_a 9.000927
_cell_length_b 15.528525
_cell_length_c 23.868793
_cell_angle_alpha 90.000000
_cell_angle_beta 90.000000
_cell_angle_gamma 90.000000
_cell_volume 3336.167929
_symmetry_space_group_name_H-M "I M M 2"
_symmetry_group_IT_number 44
_symmetry_cell_setting 'orthorhombic'
loop_
_space_group_symop_operation_xyz
x,y,z
-x,-y,z
-x,y,z
x,-y,z
1/2+x,1/2+y,1/2+z
1/2-x,1/2-y,1/2+z
1/2-x,1/2+y,1/2+z
1/2+x,1/2-y,1/2+z
loop_
_atom_site_type_symbol
_atom_site_label
_atom_site_fract_x
_atom_site_fract_y
_atom_site_fract_z
Si Si1 0.669868 0.096170 0.352000
Si Si2 0.825357 0.153679 0.460637
Si Si3 0.323086 0.249442 0.648259
Si Si4 0.325057 0.593821 0.574173
Si Si5 0.672414 0.401896 0.083395
Si Si6 0.823534 0.255983 0.767259
Si Si7 0.676064 0.594387 0.337773
Si Si8 0.174273 0.164066 0.955837
O O1 0.500000 0.118194 0.366713
O O2 0.760797 0.099552 0.409322
O O3 0.727573 0.164828 0.306525
O O4 0.686478 0.000000 0.326701
O O5 0.779284 0.108626 0.518808
O O6 0.762855 0.248664 0.460436
O O7 0.000000 0.156412 0.453397
O O8 0.500000 0.247617 0.649186
O O9 0.258552 0.328349 0.610918
O O10 0.267243 0.159364 0.623457
O O11 0.261454 0.265620 0.709621
O O12 0.500000 0.594137 0.582619
O O13 0.260976 0.500000 0.592747
O O14 0.285339 0.606025 0.509075
O O15 0.500000 0.377971 0.091126
O O16 0.703380 0.500000 0.101865
O O17 0.766458 0.167258 0.795369
O O18 0.000000 0.256218 0.757232
O O19 0.500000 0.593827 0.336547
O O20 0.737836 0.500000 0.320044
O O21 0.729173 0.614182 0.400763
O O22 0.000000 0.185994 0.953040
#
# Coordination Sequence:
#
# PCOD8187969 Si02
#       8
#     8   8   8   8   8   8   8   8
#     4  10  21  38  60  85 113 149 193 235 275 329
#     4  11  21  34  57  87 120 150 181 227 287 345
#     4  11  23  38  58  84 113 146 191 241 285 329
#     4   9  18  33  56  85 114 144 180 227 280 335
#     4  10  22  40  60  82 112 152 192 230 282 348
#     4  10  21  38  57  79 111 149 191 232 276 331
#     4   9  17  31  56  85 107 136 181 227 271 326
#     4  10  17  32  58  85 112 142 181 227 278 338
#
# _framework density 19.183686999999999
#
# number of rings (size 3 to 8) (size 9 to 14) (size 15 to 20)
#    0.000    2.000    2.500    1.500    0.000    4.500 
#    0.000    1.250    0.000    4.875    0.000    0.000 
#    0.000    0.000    0.000    0.000    0.000    0.000 
#
# Total GULP energy -396782.901120 kJ/mol
# GULP energy per Si atom -12399.465660 kJ/mol
# Density = 1.914002 g / cm^3
# Si number density = 19.183687 Si / 1000 Ang^3
#
#
#
# Elastic Constant Matrix: (Units=GPa)
#
#
# Indices 1 2 3 4 5 6 
#
# 1 27.3050 12.8139 27.8658 0.0000 0.0000 0.0000
# 2 12.8139 123.1322 36.3247 0.0000 0.0000 0.0000
# 3 27.8658 36.3247 101.2795 0.0000 0.0000 0.0000
# 4 0.0000 0.0000 0.0000 18.1599 0.0000 0.0000
# 5 0.0000 0.0000 0.0000 0.0000 31.6967 0.0000
# 6 0.0000 0.0000 0.0000 0.0000 0.0000 15.9366
#
#
#
# Elastic Compliance Matrix: (Units=1/GPa)
#
#
# Indices 1 2 3 4 5 6 
#
# 1 0.051109 -0.001309 -0.013593 0.000000 0.000000 0.000000
# 2 -0.001309 0.009116 -0.002909 0.000000 0.000000 0.000000
# 3 -0.013593 -0.002909 0.014657 0.000000 0.000000 0.000000
# 4 0.000000 0.000000 0.000000 0.055066 0.000000 0.000000
# 5 0.000000 0.000000 0.000000 0.000000 0.031549 0.000000
# 6 0.000000 0.000000 0.000000 0.000000 0.000000 0.062749
#
#
# Mechanical properties :
#
#
# Convention : Reuss Voigt Hill
#
# Bulk Modulus (GPa) = 25.47093 45.08060 35.27577
# Shear Modulus (GPa) = 18.31805 24.80612 21.56208
#
# Velocity S-wave (km/s) = 3.09346 3.59985 3.35622
# Velocity P-wave (km/s) = 5.10544 6.38976 5.78336
#
# Compressibility (1/GPa) = 0.03926044
#
# Stress axis : x y z
#
# Youngs Moduli (GPa) = 19.56590 109.69923 68.22688
#
# Poissons Ratio (x) = 0.14358 0.92738
# Poissons Ratio (y) = 0.02561 0.19850
# Poissons Ratio (z) = 0.26595 0.31915
#
# Static dielectric constant tensor:
#      x y z
#    x 3.205240 0.000000 0.000000 
#    y 0.000000 3.831350 0.000000 
#    z 0.000000 0.000000 3.633270 
# 
# 
# High freq. dielectric constant tensor:
#      x y z
#    x 1.712370 0.000000 0.000000 
#    y 0.000000 1.764830 0.000000 
#    z 0.000000 0.000000 1.746400 
# 
# From -- ./inp_files/25112.got.cif
#   From: 2010.03.12/outbox.cif.g09.slc.cpg/sg44_13_cif.got.tgz:25112.got - 2010.04.14 02:36:11.
