data_PCOD8187375
_publ_section_title
;
Structure prediction by ZEFSAII (Michael W. Deem and Ramdas Pophale) SiO2 
 PCOD8187375
Probable space group: F D D 2
;
_chemical_formula_sum "Si O2"
_cell_formula_units_Z 88
_cell_length_a 26.143620
_cell_length_b 6.235843
_cell_length_c 24.057430
_cell_angle_alpha 90.000000
_cell_angle_beta 90.000000
_cell_angle_gamma 90.000000
_cell_volume 3922.022904
_symmetry_space_group_name_H-M "F D D 2"
_symmetry_group_IT_number 43
_symmetry_cell_setting 'orthorhombic'
loop_
_space_group_symop_operation_xyz
x,y,z
-x,-y,z
1/4-x,1/4+y,1/4+z
1/4+x,1/4-y,1/4+z
x,1/2+y,1/2+z
-x,1/2-y,1/2+z
1/4-x,3/4+y,3/4+z
1/4+x,3/4-y,3/4+z
1/2+x,y,1/2+z
1/2-x,-y,1/2+z
3/4-x,1/4+y,3/4+z
3/4+x,1/4-y,3/4+z
1/2+x,1/2+y,z
1/2-x,1/2-y,z
3/4-x,3/4+y,1/4+z
3/4+x,3/4-y,1/4+z
loop_
_atom_site_type_symbol
_atom_site_label
_atom_site_fract_x
_atom_site_fract_y
_atom_site_fract_z
Si Si1 0.000000 0.500000 0.936930
Si Si2 0.807841 0.819685 0.031457
Si Si3 0.636368 0.211089 0.331279
Si Si4 0.037217 0.173410 0.019371
Si Si5 0.126589 0.989878 0.945532
Si Si6 0.653634 0.870177 0.624240
O O1 0.949253 0.518412 0.900048
O O2 0.999568 0.712356 0.974647
O O3 0.750000 0.750000 0.029283
O O4 0.843545 0.607439 0.035983
O O5 0.819420 0.954867 0.086175
O O6 0.819927 0.958700 0.976393
O O7 0.621425 0.141818 0.392864
O O8 0.635176 0.471785 0.337282
O O9 0.690235 0.103164 0.312171
O O10 0.082522 0.042740 0.989936
O O11 0.000000 0.000000 0.050128
O O12 0.126027 0.742503 0.924401
#
# Coordination Sequence:
#
# PCOD8187375 Si02
#       6
#     8  16  16  16  16  16
#     4  12  22  34  68  98 130 174 236 280 334 406
#     4  10  23  40  65  93 132 177 231 279 332 412
#     4  10  23  41  65  95 135 174 224 283 348 398
#     4  11  23  40  66 100 133 177 232 285 336 416
#     4  10  22  41  64  92 135 176 219 280 340 404
#     4  11  22  36  66  99 130 178 226 281 340 401
#
# _framework density 22.437401999999999
#
# number of rings (size 3 to 8) (size 9 to 14) (size 15 to 20)
#    0.000    1.455    3.636    1.091    5.091    1.455 
#    1.636    0.000    6.000    0.000    0.000    0.000 
#    0.000    0.000    0.000    0.000    0.000    0.000 
#
# Total GULP energy -272659.184429 kJ/mol
# GULP energy per Si atom -12393.599292 kJ/mol
# Density = 2.238633 g / cm^3
# Si number density = 22.437402 Si / 1000 Ang^3
#
#
#
# Elastic Constant Matrix: (Units=GPa)
#
#
# Indices 1 2 3 4 5 6 
#
# 1 105.0449 58.6943 49.6491 -0.0006 0.0002 0.0020
# 2 58.6943 130.8129 45.5094 0.0000 0.0008 0.0009
# 3 49.6491 45.5094 85.0118 0.0000 0.0002 -0.0001
# 4 -0.0006 0.0000 0.0000 35.8594 0.0004 0.0002
# 5 0.0002 0.0008 0.0002 0.0004 27.7166 0.0002
# 6 0.0020 0.0009 -0.0001 0.0002 0.0002 41.4566
#
#
#
# Elastic Compliance Matrix: (Units=1/GPa)
#
#
# Indices 1 2 3 4 5 6 
#
# 1 0.015069 -0.004546 -0.006367 0.000000 0.000000 -0.000001
# 2 -0.004546 0.010766 -0.003108 0.000000 0.000000 0.000000
# 3 -0.006367 -0.003108 0.017145 0.000000 0.000000 0.000000
# 4 0.000000 0.000000 0.000000 0.027887 0.000000 0.000000
# 5 0.000000 0.000000 0.000000 0.000000 0.036079 0.000000
# 6 -0.000001 0.000000 0.000000 0.000000 0.000000 0.024122
#
#
# Mechanical properties :
#
#
# Convention : Reuss Voigt Hill
#
# Bulk Modulus (GPa) = 66.94533 69.84169 68.39351
# Shear Modulus (GPa) = 30.47098 32.14097 31.30598
#
# Velocity S-wave (km/s) = 3.68916 3.78891 3.73937
# Velocity P-wave (km/s) = 6.93165 7.09479 7.01370
#
# Compressibility (1/GPa) = 0.01493756
#
# Stress axis : x y z
#
# Youngs Moduli (GPa) = 66.35940 92.88772 58.32450
#
# Poissons Ratio (x) = 0.42230 0.37136
# Poissons Ratio (y) = 0.30170 0.18127
# Poissons Ratio (z) = 0.42252 0.28869
#
# Static dielectric constant tensor:
#      x y z
#    x 3.909370 0.000000 0.000000 
#    y 0.000000 4.280500 0.000000 
#    z 0.000000 0.000000 4.106150 
# 
# 
# High freq. dielectric constant tensor:
#      x y z
#    x 1.864500 0.000000 0.000000 
#    y 0.000000 1.892790 0.000000 
#    z 0.000000 0.000000 1.877870 
# 
# From -- ./inp_files/19548.got.cif
#   From: 2010.06.25/outbox.cif.g09.slc.cpg/sg43_10_cif.got.tgz:19548.got - 2010.06.26 16:48:59.
