data_PCOD8187368
_publ_section_title
;
Structure prediction by ZEFSAII (Michael W. Deem and Ramdas Pophale) SiO2 
 PCOD8187368
Probable space group: F D D 2
;
_chemical_formula_sum "Si O2"
_cell_formula_units_Z 64
_cell_length_a 7.589237
_cell_length_b 35.310669
_cell_length_c 13.253880
_cell_angle_alpha 90.000000
_cell_angle_beta 90.000000
_cell_angle_gamma 90.000000
_cell_volume 3551.788489
_symmetry_space_group_name_H-M "F D D 2"
_symmetry_group_IT_number 43
_symmetry_cell_setting 'orthorhombic'
loop_
_space_group_symop_operation_xyz
x,y,z
-x,-y,z
1/4-x,1/4+y,1/4+z
1/4+x,1/4-y,1/4+z
x,1/2+y,1/2+z
-x,1/2-y,1/2+z
1/4-x,3/4+y,3/4+z
1/4+x,3/4-y,3/4+z
1/2+x,y,1/2+z
1/2-x,-y,1/2+z
3/4-x,1/4+y,3/4+z
3/4+x,1/4-y,3/4+z
1/2+x,1/2+y,z
1/2-x,1/2-y,z
3/4-x,3/4+y,1/4+z
3/4+x,3/4-y,1/4+z
loop_
_atom_site_type_symbol
_atom_site_label
_atom_site_fract_x
_atom_site_fract_y
_atom_site_fract_z
Si Si1 0.078790 0.923087 0.866400
Si Si2 0.253655 0.410959 0.170424
Si Si3 0.569511 0.457574 0.077866
Si Si4 0.814944 0.207844 0.433806
O O1 0.250411 0.917287 0.793089
O O2 0.994393 0.883189 0.896625
O O3 0.933858 0.947133 0.803054
O O4 0.127928 0.946930 0.964862
O O5 0.423580 0.429353 0.120504
O O6 0.074577 0.430186 0.126001
O O7 0.500000 0.500000 0.082868
O O8 0.739255 0.452086 0.146107
O O9 0.750000 0.250000 0.414995
#
# Coordination Sequence:
#
# PCOD8187368 Si02
#       4
#    16  16  16  16
#     4  10  22  42  59  88 124 153 196 248 292 351
#     4  10  22  42  59  89 123 150 201 247 289 358
#     4  12  21  39  66  84 121 162 191 249 300 340
#     4  10  22  41  59  91 119 152 204 241 289 361
#
# _framework density 18.019091
#
# number of rings (size 3 to 8) (size 9 to 14) (size 15 to 20)
#    1.500    0.000    5.000    0.750    0.000    2.000 
#    4.500    1.250    0.000    0.000    0.000    0.000 
#    0.000    0.000    0.000    0.000    0.000    0.000 
#
# Total GULP energy -198250.335123 kJ/mol
# GULP energy per Si atom -12390.645945 kJ/mol
# Density = 1.797808 g / cm^3
# Si number density = 18.019091 Si / 1000 Ang^3
#
#
#
# Elastic Constant Matrix: (Units=GPa)
#
#
# Indices 1 2 3 4 5 6 
#
# 1 69.6613 20.8614 16.6468 0.0000 0.0000 0.0000
# 2 20.8614 47.2565 2.2485 0.0000 0.0000 0.0000
# 3 16.6468 2.2485 94.7285 0.0000 0.0000 0.0000
# 4 0.0000 0.0000 0.0000 -10.5307 0.0000 0.0000
# 5 0.0000 0.0000 0.0000 0.0000 28.3133 0.0000
# 6 0.0000 0.0000 0.0000 0.0000 0.0000 13.9111
#
#
#
# Elastic Compliance Matrix: (Units=1/GPa)
#
#
# Indices 1 2 3 4 5 6 
#
# 1 0.017282 -0.007493 -0.002859 0.000000 0.000000 0.000000
# 2 -0.007493 0.024434 0.000737 0.000000 0.000000 0.000000
# 3 -0.002859 0.000737 0.011041 0.000000 0.000000 0.000000
# 4 0.000000 0.000000 0.000000 -0.094961 0.000000 0.000000
# 5 0.000000 0.000000 0.000000 0.000000 0.035319 0.000000
# 6 0.000000 0.000000 0.000000 0.000000 0.000000 0.071885
#
#
# Mechanical properties :
#
#
# Convention : Reuss Voigt Hill
#
# Bulk Modulus (GPa) = 29.82713 32.35107 31.08910
# Shear Modulus (GPa) = 52.40650 17.79806 35.10228
#
# Velocity S-wave (km/s) = 5.39880 3.14623 4.41847
# Velocity P-wave (km/s) = 7.44659 5.58490 6.58190
#
# Compressibility (1/GPa) = 0.03352653
#
# Stress axis : x y z
#
# Youngs Moduli (GPa) = 57.86222 40.92668 90.56780
#
# Poissons Ratio (x) = 0.30668 0.25895
# Poissons Ratio (y) = 0.43358 -0.06673
# Poissons Ratio (z) = 0.16544 -0.03016
#
# Static dielectric constant tensor:
#      x y z
#    x 3.125960 0.000000 0.000000 
#    y 0.000000 3.497830 0.000000 
#    z 0.000000 0.000000 3.339250 
# 
# 
# High freq. dielectric constant tensor:
#      x y z
#    x 1.678190 0.000000 0.000000 
#    y 0.000000 1.719860 0.000000 
#    z 0.000000 0.000000 1.692740 
# 
# From -- ./inp_files/5306.got.cif
#   From: 2010.06.25/outbox.cif.g09.slc.cpg/sg43_3_cif.got.tgz:5306.got - 2010.06.26 16:48:59.
