data_PCOD8187798
_publ_section_title
;
Structure prediction by ZEFSAII (Michael W. Deem and Ramdas Pophale) SiO2 
 PCOD8187798
Probable space group: F D D 2
;
_chemical_formula_sum "Si O2"
_cell_formula_units_Z 88
_cell_length_a 16.538594
_cell_length_b 12.322133
_cell_length_c 22.907095
_cell_angle_alpha 90.000000
_cell_angle_beta 90.000000
_cell_angle_gamma 90.000000
_cell_volume 4668.254183
_symmetry_space_group_name_H-M "F D D 2"
_symmetry_group_IT_number 43
_symmetry_cell_setting 'orthorhombic'
loop_
_space_group_symop_operation_xyz
x,y,z
-x,-y,z
1/4-x,1/4+y,1/4+z
1/4+x,1/4-y,1/4+z
x,1/2+y,1/2+z
-x,1/2-y,1/2+z
1/4-x,3/4+y,3/4+z
1/4+x,3/4-y,3/4+z
1/2+x,y,1/2+z
1/2-x,-y,1/2+z
3/4-x,1/4+y,3/4+z
3/4+x,1/4-y,3/4+z
1/2+x,1/2+y,z
1/2-x,1/2-y,z
3/4-x,3/4+y,1/4+z
3/4+x,3/4-y,1/4+z
loop_
_atom_site_type_symbol
_atom_site_label
_atom_site_fract_x
_atom_site_fract_y
_atom_site_fract_z
Si Si1 0.346671 0.598767 0.431390
Si Si2 0.998502 0.188877 0.574574
Si Si3 0.192707 0.847924 0.763400
Si Si4 0.850655 0.082313 0.640392
Si Si5 0.238326 0.122724 0.042093
Si Si6 0.250000 0.750000 0.240742
O O1 0.314977 0.537092 0.374003
O O2 0.359673 0.725209 0.417634
O O3 0.279161 0.589782 0.481179
O O4 0.428550 0.541079 0.449801
O O5 0.985001 0.293222 0.535324
O O6 0.915824 0.151251 0.604617
O O7 0.032638 0.096026 0.531819
O O8 0.250000 0.750000 0.783342
O O9 0.184756 0.847539 0.693485
O O10 0.104640 0.836690 0.792228
O O11 0.779028 0.055519 0.594988
O O12 0.250000 0.250000 0.054217
#
# Coordination Sequence:
#
# PCOD8187798 Si02
#       6
#    16  16  16  16  16   8
#     4  12  22  37  67  97 128 167 223 280 322 396
#     4  12  22  41  66  98 128 168 222 279 326 397
#     4  12  27  42  62 101 137 169 214 281 346 397
#     4  12  20  38  70  94 123 170 228 271 317 395
#     4  12  20  39  66  95 122 173 225 266 324 395
#     4  12  22  40  64 100 128 168 224 280 334 378
#
# _framework density 18.850729999999999
#
# number of rings (size 3 to 8) (size 9 to 14) (size 15 to 20)
#    0.000    0.000   10.909    0.545    0.000    1.455 
#    0.000    0.000    0.000    0.000    0.000    0.000 
#    0.000    0.000    0.000    0.000    0.000    0.000 
#
# Total GULP energy -272898.347793 kJ/mol
# GULP energy per Si atom -12404.470354 kJ/mol
# Density = 1.880782 g / cm^3
# Si number density = 18.850730 Si / 1000 Ang^3
#
#
#
# Elastic Constant Matrix: (Units=GPa)
#
#
# Indices 1 2 3 4 5 6 
#
# 1 96.0302 29.9821 30.9190 0.0000 0.0000 0.0000
# 2 29.9821 83.7053 18.8339 0.0000 0.0000 0.0000
# 3 30.9190 18.8339 89.3625 0.0000 0.0000 0.0000
# 4 0.0000 0.0000 0.0000 14.3191 0.0000 0.0000
# 5 0.0000 0.0000 0.0000 0.0000 33.4048 0.0000
# 6 0.0000 0.0000 0.0000 0.0000 0.0000 31.8803
#
#
#
# Elastic Compliance Matrix: (Units=1/GPa)
#
#
# Indices 1 2 3 4 5 6 
#
# 1 0.012751 -0.003752 -0.003621 0.000000 0.000000 0.000000
# 2 -0.003752 0.013646 -0.001578 0.000000 0.000000 0.000000
# 3 -0.003621 -0.001578 0.012776 0.000000 0.000000 0.000000
# 4 0.000000 0.000000 0.000000 0.069837 0.000000 0.000000
# 5 0.000000 0.000000 0.000000 0.000000 0.029936 0.000000
# 6 0.000000 0.000000 0.000000 0.000000 0.000000 0.031367
#
#
# Mechanical properties :
#
#
# Convention : Reuss Voigt Hill
#
# Bulk Modulus (GPa) = 47.01385 47.61865 47.31625
# Shear Modulus (GPa) = 25.60113 28.54504 27.07308
#
# Velocity S-wave (km/s) = 3.68924 3.89558 3.79381
# Velocity P-wave (km/s) = 6.56822 6.74906 6.65925
#
# Compressibility (1/GPa) = 0.02127033
#
# Stress axis : x y z
#
# Youngs Moduli (GPa) = 78.42660 73.28304 78.27379
#
# Poissons Ratio (x) = 0.27499 0.28342
# Poissons Ratio (y) = 0.29429 0.12349
# Poissons Ratio (z) = 0.28397 0.11561
#
# Static dielectric constant tensor:
#      x y z
#    x 3.613720 0.000000 0.000000 
#    y 0.000000 3.302750 0.000000 
#    z 0.000000 0.000000 3.805970 
# 
# 
# High freq. dielectric constant tensor:
#      x y z
#    x 1.736770 0.000000 0.000000 
#    y 0.000000 1.707040 0.000000 
#    z 0.000000 0.000000 1.752310 
# 
# From -- ./inp_files/17038.got.cif
#   From: 2010.06.25/outbox.cif.g09.slc.cpg/sg43_9_cif.got.tgz:17038.got - 2010.06.26 16:48:59.
