data_PCOD8187723
_publ_section_title
;
Structure prediction by ZEFSAII (Michael W. Deem and Ramdas Pophale) SiO2 
 PCOD8187723
Probable space group: F D D 2
;
_chemical_formula_sum "Si O2"
_cell_formula_units_Z 80
_cell_length_a 8.930234
_cell_length_b 22.229661
_cell_length_c 16.099364
_cell_angle_alpha 90.000000
_cell_angle_beta 90.000000
_cell_angle_gamma 90.000000
_cell_volume 3195.982543
_symmetry_space_group_name_H-M "F D D 2"
_symmetry_group_IT_number 43
_symmetry_cell_setting 'orthorhombic'
loop_
_space_group_symop_operation_xyz
x,y,z
-x,-y,z
1/4-x,1/4+y,1/4+z
1/4+x,1/4-y,1/4+z
x,1/2+y,1/2+z
-x,1/2-y,1/2+z
1/4-x,3/4+y,3/4+z
1/4+x,3/4-y,3/4+z
1/2+x,y,1/2+z
1/2-x,-y,1/2+z
3/4-x,1/4+y,3/4+z
3/4+x,1/4-y,3/4+z
1/2+x,1/2+y,z
1/2-x,1/2-y,z
3/4-x,3/4+y,1/4+z
3/4+x,3/4-y,1/4+z
loop_
_atom_site_type_symbol
_atom_site_label
_atom_site_fract_x
_atom_site_fract_y
_atom_site_fract_z
Si Si1 0.930370 0.334672 0.941160
Si Si2 0.450679 0.431976 0.576134
Si Si3 0.403516 0.867984 0.617263
Si Si4 0.674219 0.000654 0.840209
Si Si5 0.146914 0.092095 0.942183
O O1 0.754006 0.333966 0.917697
O O2 0.029711 0.325660 0.858593
O O3 0.968425 0.397642 0.988138
O O4 0.962649 0.279963 0.002794
O O5 0.500000 0.500000 0.561605
O O6 0.552404 0.403257 0.647594
O O7 0.519499 0.818459 0.583153
O O8 0.280233 0.835437 0.674384
O O9 0.323806 0.901409 0.540291
O O10 0.761589 0.966053 0.913349
O O11 0.500000 0.000000 0.861355
#
# Coordination Sequence:
#
# PCOD8187723 Si02
#       5
#    16  16  16  16  16
#     4  11  25  44  70 101 135 179 231 279 338 404
#     4  11  24  44  68  99 137 183 228 277 338 406
#     4  12  24  45  68 100 138 171 221 286 336 396
#     4  11  24  45  70  97 134 180 221 273 337 403
#     4  11  24  42  69  99 133 175 221 273 338 405
#
# _framework density 25.031424999999999
#
# number of rings (size 3 to 8) (size 9 to 14) (size 15 to 20)
#    0.000    0.800    0.000    9.000    0.000    5.600 
#    0.000   10.000    0.000    0.000    0.000    0.000 
#    0.000    0.000    0.000    0.000    0.000    0.000 
#
# Total GULP energy -248156.404408 kJ/mol
# GULP energy per Si atom -12407.820220 kJ/mol
# Density = 2.497445 g / cm^3
# Si number density = 25.031425 Si / 1000 Ang^3
#
#
#
# Elastic Constant Matrix: (Units=GPa)
#
#
# Indices 1 2 3 4 5 6 
#
# 1 117.3849 2.3282 -2.5469 0.0000 0.0000 0.0000
# 2 2.3282 58.9554 7.3997 0.0000 0.0000 0.0000
# 3 -2.5469 7.3997 82.0734 0.0000 0.0000 0.0000
# 4 0.0000 0.0000 0.0000 12.3105 0.0000 0.0000
# 5 0.0000 0.0000 0.0000 0.0000 45.6818 0.0000
# 6 0.0000 0.0000 0.0000 0.0000 0.0000 44.9312
#
#
#
# Elastic Compliance Matrix: (Units=1/GPa)
#
#
# Indices 1 2 3 4 5 6 
#
# 1 0.008533 -0.000374 0.000299 0.000000 0.000000 0.000000
# 2 -0.000374 0.017173 -0.001560 0.000000 0.000000 0.000000
# 3 0.000299 -0.001560 0.012334 0.000000 0.000000 0.000000
# 4 0.000000 0.000000 0.000000 0.081231 0.000000 0.000000
# 5 0.000000 0.000000 0.000000 0.000000 0.021891 0.000000
# 6 0.000000 0.000000 0.000000 0.000000 0.000000 0.022256
#
#
# Mechanical properties :
#
#
# Convention : Reuss Voigt Hill
#
# Bulk Modulus (GPa) = 28.76208 30.30841 29.53524
# Shear Modulus (GPa) = 28.04601 37.33356 32.68979
#
# Velocity S-wave (km/s) = 3.35092 3.86614 3.61771
# Velocity P-wave (km/s) = 5.14654 5.66249 5.41067
#
# Compressibility (1/GPa) = 0.03476800
#
# Stress axis : x y z
#
# Youngs Moduli (GPa) = 117.19366 58.23244 81.07588
#
# Poissons Ratio (x) = 0.02180 -0.02421
# Poissons Ratio (y) = 0.04388 0.12647
# Poissons Ratio (z) = -0.03499 0.09084
#
# Static dielectric constant tensor:
#      x y z
#    x 4.653810 0.000000 0.000000 
#    y 0.000000 4.355060 0.000000 
#    z 0.000000 0.000000 4.498590 
# 
# 
# High freq. dielectric constant tensor:
#      x y z
#    x 2.014400 0.000000 0.000000 
#    y 0.000000 1.988780 0.000000 
#    z 0.000000 0.000000 2.000470 
# 
# From -- ./inp_files/12759.got.cif
#   From: 2010.06.25/outbox.cif.g09.slc.cpg/sg43_7_cif.got.tgz:12759.got - 2010.06.26 16:48:59.
