data_PCOD8187939
_publ_section_title
;
Structure prediction by ZEFSAII (Michael W. Deem and Ramdas Pophale) SiO2 
 PCOD8187939
Probable space group: I M M 2
;
_chemical_formula_sum "Si O2"
_cell_formula_units_Z 64
_cell_length_a 30.453075
_cell_length_b 8.876546
_cell_length_c 14.479399
_cell_angle_alpha 90.000000
_cell_angle_beta 90.000000
_cell_angle_gamma 90.000000
_cell_volume 3914.043932
_symmetry_space_group_name_H-M "I M M 2"
_symmetry_group_IT_number 44
_symmetry_cell_setting 'orthorhombic'
loop_
_space_group_symop_operation_xyz
x,y,z
-x,-y,z
-x,y,z
x,-y,z
1/2+x,1/2+y,1/2+z
1/2-x,1/2-y,1/2+z
1/2-x,1/2+y,1/2+z
1/2+x,1/2-y,1/2+z
loop_
_atom_site_type_symbol
_atom_site_label
_atom_site_fract_x
_atom_site_fract_y
_atom_site_fract_z
Si Si1 0.363429 0.178455 0.564070
Si Si2 0.782829 0.320895 0.536957
Si Si3 0.197435 0.178217 0.925450
Si Si4 0.723319 0.828544 0.243966
Si Si5 0.675868 0.328812 0.734793
Si Si6 0.047171 0.677694 0.362530
Si Si7 0.139152 0.322860 0.410211
Si Si8 0.451593 0.178554 0.655015
O O1 0.346760 0.252439 0.469150
O O2 0.329847 0.230324 0.643280
O O3 0.412664 0.238617 0.588327
O O4 0.361943 0.000000 0.554063
O O5 0.779679 0.500000 0.539963
O O6 0.740686 0.260223 0.479986
O O7 0.784051 0.259379 0.641556
O O8 0.828123 0.264289 0.489509
O O9 0.198010 0.228380 0.818824
O O10 0.195016 0.000000 0.930886
O O11 0.774334 0.821119 0.268178
O O12 0.705873 0.000000 0.249301
O O13 0.661733 0.500000 0.713409
O O14 0.646787 0.260331 0.814803
O O15 0.043865 0.500000 0.352936
O O16 0.087767 0.716729 0.431730
O O17 0.055430 0.741974 0.258991
O O18 0.000000 0.739758 0.400735
O O19 0.146544 0.500000 0.394626
O O20 0.500000 0.229154 0.618335
O O21 0.448433 0.000000 0.657015
#
# Coordination Sequence:
#
# PCOD8187939 Si02
#       8
#     8   8   8   8   8   8   8   8
#     4  11  20  31  49  71  94 128 165 191 230 290
#     4   9  18  31  47  66  91 120 157 197 233 271
#     4  11  21  34  49  70  96 122 155 199 237 273
#     4  10  20  35  47  63  92 127 160 194 232 274
#     4  11  20  29  44  67  98 128 158 200 235 265
#     4   8  13  22  40  68  96 118 149 194 234 273
#     4  10  17  29  48  68  90 126 164 190 230 286
#     4   8  14  25  43  68  95 121 154 196 232 271
#
# _framework density 16.351375999999998
#
# number of rings (size 3 to 8) (size 9 to 14) (size 15 to 20)
#    0.000    2.250    3.750    1.875    0.000    0.500 
#    0.000    0.625    0.000    2.625    0.000    0.875 
#    0.000    5.000    0.000    0.000    0.000    0.000 
#
# Total GULP energy -396545.646418 kJ/mol
# GULP energy per Si atom -12392.051451 kJ/mol
# Density = 1.631416 g / cm^3
# Si number density = 16.351376 Si / 1000 Ang^3
#
#
#
# Elastic Constant Matrix: (Units=GPa)
#
#
# Indices 1 2 3 4 5 6 
#
# 1 102.2492 19.9995 29.6518 0.0000 0.0000 0.0000
# 2 19.9995 37.6749 16.5401 0.0000 0.0000 0.0000
# 3 29.6518 16.5401 71.8597 0.0000 0.0000 0.0000
# 4 0.0000 0.0000 0.0000 19.9457 0.0000 0.0000
# 5 0.0000 0.0000 0.0000 0.0000 17.2847 0.0000
# 6 0.0000 0.0000 0.0000 0.0000 0.0000 13.0119
#
#
#
# Elastic Compliance Matrix: (Units=1/GPa)
#
#
# Indices 1 2 3 4 5 6 
#
# 1 0.011780 -0.004582 -0.003806 0.000000 0.000000 0.000000
# 2 -0.004582 0.031309 -0.005316 0.000000 0.000000 0.000000
# 3 -0.003806 -0.005316 0.016710 0.000000 0.000000 0.000000
# 4 0.000000 0.000000 0.000000 0.050136 0.000000 0.000000
# 5 0.000000 0.000000 0.000000 0.000000 0.057855 0.000000
# 6 0.000000 0.000000 0.000000 0.000000 0.000000 0.076853
#
#
# Mechanical properties :
#
#
# Convention : Reuss Voigt Hill
#
# Bulk Modulus (GPa) = 30.87284 38.24072 34.55678
# Shear Modulus (GPa) = 17.67734 19.75461 18.71597
#
# Velocity S-wave (km/s) = 3.29156 3.47959 3.38688
# Velocity P-wave (km/s) = 5.77648 6.29134 6.03940
#
# Compressibility (1/GPa) = 0.03239093
#
# Stress axis : x y z
#
# Youngs Moduli (GPa) = 84.88895 31.93959 59.84420
#
# Poissons Ratio (x) = 0.14636 0.22777
# Poissons Ratio (y) = 0.38900 0.31811
# Poissons Ratio (z) = 0.32310 0.16978
#
# Static dielectric constant tensor:
#      x y z
#    x 3.518520 0.000000 0.000000 
#    y 0.000000 2.823570 0.000000 
#    z 0.000000 0.000000 2.985790 
# 
# 
# High freq. dielectric constant tensor:
#      x y z
#    x 1.628560 0.000000 0.000000 
#    y 0.000000 1.601960 0.000000 
#    z 0.000000 0.000000 1.600030 
# 
# From -- ./inp_files/19686.got.cif
#   From: 2010.03.12/outbox.cif.g09.slc.cpg/sg44_10_cif.got.tgz:19686.got - 2010.04.14 02:36:11.
