data_PCOD8187202
_publ_section_title
;
Structure prediction by ZEFSAII (Michael W. Deem and Ramdas Pophale) SiO2 
 PCOD8187202
Probable space group: F D D 2
;
_chemical_formula_sum "Si O2"
_cell_formula_units_Z 80
_cell_length_a 23.576684
_cell_length_b 10.983360
_cell_length_c 13.676690
_cell_angle_alpha 90.000000
_cell_angle_beta 90.000000
_cell_angle_gamma 90.000000
_cell_volume 3541.595397
_symmetry_space_group_name_H-M "F D D 2"
_symmetry_group_IT_number 43
_symmetry_cell_setting 'orthorhombic'
loop_
_space_group_symop_operation_xyz
x,y,z
-x,-y,z
1/4-x,1/4+y,1/4+z
1/4+x,1/4-y,1/4+z
x,1/2+y,1/2+z
-x,1/2-y,1/2+z
1/4-x,3/4+y,3/4+z
1/4+x,3/4-y,3/4+z
1/2+x,y,1/2+z
1/2-x,-y,1/2+z
3/4-x,1/4+y,3/4+z
3/4+x,1/4-y,3/4+z
1/2+x,1/2+y,z
1/2-x,1/2-y,z
3/4-x,3/4+y,1/4+z
3/4+x,3/4-y,1/4+z
loop_
_atom_site_type_symbol
_atom_site_label
_atom_site_fract_x
_atom_site_fract_y
_atom_site_fract_z
Si Si1 0.798664 0.050310 0.188900
Si Si2 0.500000 0.000000 0.076315
Si Si3 0.803538 0.094061 0.664082
Si Si4 0.656246 0.818192 0.966347
Si Si5 0.156178 0.074885 0.368121
Si Si6 0.750000 0.250000 0.828475
O O1 0.759371 0.133795 0.258181
O O2 0.842764 0.120775 0.121061
O O3 0.754978 0.969169 0.125595
O O4 0.837016 0.963783 0.256328
O O5 0.553696 0.984907 0.148136
O O6 0.826510 0.185723 0.580632
O O7 0.791633 0.170063 0.761461
O O8 0.844754 0.985385 0.696776
O O9 0.658858 0.961382 0.941338
O O10 0.207797 0.167828 0.395592
#
# Coordination Sequence:
#
# PCOD8187202 Si02
#       6
#    16   8  16  16  16   8
#     4  10  21  39  59  85 120 157 201 251 305 369
#     4  10  21  38  61  90 120 154 202 254 305 374
#     4  11  23  40  62  91 123 160 205 256 313 375
#     4  11  22  39  64  91 120 161 207 254 314 377
#     4  10  22  39  60  88 121 161 205 253 311 371
#     4  10  25  42  59  90 128 160 206 260 315 372
#
# _framework density 22.58869
#
# number of rings (size 3 to 8) (size 9 to 14) (size 15 to 20)
#    0.000    1.600    0.000    5.400    0.000    6.400 
#    0.000    0.000    0.000    0.000    0.000    0.000 
#    0.000    0.000    0.000    0.000    0.000    0.000 
#
# Total GULP energy -247938.336519 kJ/mol
# GULP energy per Si atom -12396.916826 kJ/mol
# Density = 2.253728 g / cm^3
# Si number density = 22.588690 Si / 1000 Ang^3
#
#
#
# Elastic Constant Matrix: (Units=GPa)
#
#
# Indices 1 2 3 4 5 6 
#
# 1 142.6304 64.1882 45.2414 0.0000 0.0000 0.0000
# 2 64.1882 101.4996 22.5568 0.0000 0.0000 0.0000
# 3 45.2414 22.5568 63.5512 0.0000 0.0000 0.0000
# 4 0.0000 0.0000 0.0000 12.9938 0.0000 0.0000
# 5 0.0000 0.0000 0.0000 0.0000 26.9327 0.0000
# 6 0.0000 0.0000 0.0000 0.0000 0.0000 50.1965
#
#
#
# Elastic Compliance Matrix: (Units=1/GPa)
#
#
# Indices 1 2 3 4 5 6 
#
# 1 0.011676 -0.006011 -0.006179 0.000000 0.000000 0.000000
# 2 -0.006011 0.013790 -0.000616 0.000000 0.000000 0.000000
# 3 -0.006179 -0.000616 0.020352 0.000000 0.000000 0.000000
# 4 0.000000 0.000000 0.000000 0.076960 0.000000 0.000000
# 5 0.000000 0.000000 0.000000 0.000000 0.037130 0.000000
# 6 0.000000 0.000000 0.000000 0.000000 0.000000 0.019922
#
#
# Mechanical properties :
#
#
# Convention : Reuss Voigt Hill
#
# Bulk Modulus (GPa) = 49.48402 63.51710 56.50056
# Shear Modulus (GPa) = 23.56535 29.73758 26.65147
#
# Velocity S-wave (km/s) = 3.23342 3.63227 3.43863
# Velocity P-wave (km/s) = 5.99117 6.76544 6.39004
#
# Compressibility (1/GPa) = 0.02020855
#
# Stress axis : x y z
#
# Youngs Moduli (GPa) = 85.64609 72.51481 49.13443
#
# Poissons Ratio (x) = 0.43587 0.30358
# Poissons Ratio (y) = 0.51480 0.03025
# Poissons Ratio (z) = 0.52917 0.04465
#
# Static dielectric constant tensor:
#      x y z
#    x 4.246830 0.000000 0.000000 
#    y 0.000000 4.215460 0.000000 
#    z 0.000000 0.000000 3.736670 
# 
# 
# High freq. dielectric constant tensor:
#      x y z
#    x 1.907500 0.000000 0.000000 
#    y 0.000000 1.894980 0.000000 
#    z 0.000000 0.000000 1.864350 
# 
# From -- ./inp_files/9547.got.cif
#   From: 2010.06.25/outbox.cif.g09.slc.cpg/sg43_5_cif.got.tgz:9547.got - 2010.06.26 16:48:59.
