data_PCOD8187065
_publ_section_title
;
Structure prediction by ZEFSAII (Michael W. Deem and Ramdas Pophale) SiO2 
 PCOD8187065
Probable space group: F D D 2
;
_chemical_formula_sum "Si O2"
_cell_formula_units_Z 120
_cell_length_a 17.941637
_cell_length_b 15.702455
_cell_length_c 21.208137
_cell_angle_alpha 90.000000
_cell_angle_beta 90.000000
_cell_angle_gamma 90.000000
_cell_volume 5974.920668
_symmetry_space_group_name_H-M "F D D 2"
_symmetry_group_IT_number 43
_symmetry_cell_setting 'orthorhombic'
loop_
_space_group_symop_operation_xyz
x,y,z
-x,-y,z
1/4-x,1/4+y,1/4+z
1/4+x,1/4-y,1/4+z
x,1/2+y,1/2+z
-x,1/2-y,1/2+z
1/4-x,3/4+y,3/4+z
1/4+x,3/4-y,3/4+z
1/2+x,y,1/2+z
1/2-x,-y,1/2+z
3/4-x,1/4+y,3/4+z
3/4+x,1/4-y,3/4+z
1/2+x,1/2+y,z
1/2-x,1/2-y,z
3/4-x,3/4+y,1/4+z
3/4+x,3/4-y,1/4+z
loop_
_atom_site_type_symbol
_atom_site_label
_atom_site_fract_x
_atom_site_fract_y
_atom_site_fract_z
Si Si1 0.917354 0.504605 0.083900
Si Si2 0.036108 0.237595 0.391740
Si Si3 0.442548 0.165361 0.265391
Si Si4 0.585086 0.623093 0.914986
Si Si5 0.000000 0.500000 0.331095
Si Si6 0.423599 0.249535 0.709760
Si Si7 0.582701 0.900368 0.864037
Si Si8 0.429992 0.556544 0.220297
O O1 0.906421 0.582838 0.131469
O O2 0.900654 0.415970 0.118426
O O3 0.000000 0.500000 0.056039
O O4 0.856084 0.513331 0.030117
O O5 0.063108 0.267631 0.322690
O O6 0.104787 0.230233 0.439518
O O7 0.981833 0.309097 0.421069
O O8 0.994171 0.146426 0.384778
O O9 0.360994 0.158477 0.233738
O O10 0.464113 0.071350 0.287386
O O11 0.499823 0.197167 0.210836
O O12 0.563201 0.540358 0.875221
O O13 0.357827 0.277070 0.662603
O O14 0.442741 0.151788 0.695043
O O15 0.576004 0.944497 0.796007
O O16 0.500000 0.500000 0.198525
#
# Coordination Sequence:
#
# PCOD8187065 Si02
#       8
#    16  16  16  16   8  16  16  16
#     4  10  20  37  59  99 133 162 219 273 322 387
#     4  10  23  47  63  98 134 165 224 276 327 387
#     4  11  22  44  66  97 138 174 219 274 323 393
#     4  10  22  40  67  92 133 178 214 271 322 394
#     4  10  22  42  62  96 134 178 216 266 336 374
#     4  11  23  40  68  99 130 172 218 274 334 382
#     4  10  23  41  66  96 127 170 215 277 327 383
#     4  11  26  46  66  94 132 176 215 271 332 403
#
# _framework density 20.083949
#
# number of rings (size 3 to 8) (size 9 to 14) (size 15 to 20)
#    0.000    1.600    5.333    0.800   10.267    2.133 
#    6.000    0.000    0.000    0.000    0.000    0.000 
#    0.000    0.000    0.000    0.000    0.000    0.000 
#
# Total GULP energy -371962.644998 kJ/mol
# GULP energy per Si atom -12398.754833 kJ/mol
# Density = 2.003824 g / cm^3
# Si number density = 20.083949 Si / 1000 Ang^3
#
#
#
# Elastic Constant Matrix: (Units=GPa)
#
#
# Indices 1 2 3 4 5 6 
#
# 1 126.0442 55.1640 54.8732 0.0000 0.0000 0.0000
# 2 55.1640 125.6616 52.4281 0.0000 0.0000 0.0000
# 3 54.8732 52.4281 84.3811 0.0000 0.0000 0.0000
# 4 0.0000 0.0000 0.0000 25.9463 0.0000 0.0000
# 5 0.0000 0.0000 0.0000 0.0000 31.0175 0.0000
# 6 0.0000 0.0000 0.0000 0.0000 0.0000 24.9454
#
#
#
# Elastic Compliance Matrix: (Units=1/GPa)
#
#
# Indices 1 2 3 4 5 6 
#
# 1 0.011683 -0.002645 -0.005955 0.000000 0.000000 0.000000
# 2 -0.002645 0.011341 -0.005327 0.000000 0.000000 0.000000
# 3 -0.005955 -0.005327 0.019033 0.000000 0.000000 0.000000
# 4 0.000000 0.000000 0.000000 0.038541 0.000000 0.000000
# 5 0.000000 0.000000 0.000000 0.000000 0.032240 0.000000
# 6 0.000000 0.000000 0.000000 0.000000 0.000000 0.040088
#
#
# Mechanical properties :
#
#
# Convention : Reuss Voigt Hill
#
# Bulk Modulus (GPa) = 70.39458 73.44641 71.92050
# Shear Modulus (GPa) = 26.95217 27.95659 27.45438
#
# Velocity S-wave (km/s) = 3.66727 3.73498 3.70128
# Velocity P-wave (km/s) = 7.28410 7.43298 7.35892
#
# Compressibility (1/GPa) = 0.01420564
#
# Stress axis : x y z
#
# Youngs Moduli (GPa) = 85.59091 88.17365 52.54016
#
# Poissons Ratio (x) = 0.23318 0.31286
# Poissons Ratio (y) = 0.22635 0.27987
# Poissons Ratio (z) = 0.50967 0.46969
#
# Static dielectric constant tensor:
#      x y z
#    x 3.512920 0.000000 0.000000 
#    y 0.000000 3.761910 0.000000 
#    z 0.000000 0.000000 3.510950 
# 
# 
# High freq. dielectric constant tensor:
#      x y z
#    x 1.779540 0.000000 0.000000 
#    y 0.000000 1.792780 0.000000 
#    z 0.000000 0.000000 1.775440 
# 
# From -- ./inp_files/18392.got.cif
#   From: 2010.06.25/outbox.cif.g09.slc.cpg/sg43_10_cif.got.tgz:18392.got - 2010.06.26 16:48:59.
