data_PCOD8187976
_publ_section_title
;
Structure prediction by ZEFSAII (Michael W. Deem and Ramdas Pophale) SiO2 
 PCOD8187976
Probable space group: I M M 2
;
_chemical_formula_sum "Si O2"
_cell_formula_units_Z 48
_cell_length_a 14.541796
_cell_length_b 8.408592
_cell_length_c 20.505984
_cell_angle_alpha 90.000000
_cell_angle_beta 90.000000
_cell_angle_gamma 90.000000
_cell_volume 2507.390305
_symmetry_space_group_name_H-M "I M M 2"
_symmetry_group_IT_number 44
_symmetry_cell_setting 'orthorhombic'
loop_
_space_group_symop_operation_xyz
x,y,z
-x,-y,z
-x,y,z
x,-y,z
1/2+x,1/2+y,1/2+z
1/2-x,1/2-y,1/2+z
1/2-x,1/2+y,1/2+z
1/2+x,1/2-y,1/2+z
loop_
_atom_site_type_symbol
_atom_site_label
_atom_site_fract_x
_atom_site_fract_y
_atom_site_fract_z
Si Si1 0.500000 0.312429 0.488621
Si Si2 0.318011 0.313126 0.695835
Si Si3 0.693317 0.811986 0.932390
Si Si4 0.000000 0.686219 0.845308
Si Si5 0.689620 0.312389 0.550453
Si Si6 0.000000 0.815895 0.397193
Si Si7 0.500000 0.183414 0.755906
Si Si8 0.194263 0.187844 0.807039
O O1 0.500000 0.500000 0.471789
O O2 0.500000 0.216003 0.421979
O O3 0.587330 0.259747 0.530717
O O4 0.340101 0.500000 0.696634
O O5 0.288758 0.253833 0.623600
O O6 0.409776 0.219224 0.714475
O O7 0.234552 0.273509 0.743563
O O8 0.588285 0.761005 0.930525
O O9 0.749651 0.747478 0.869852
O O10 0.700532 0.000000 0.932330
O O11 0.738178 0.739693 0.998375
O O12 0.088196 0.766625 0.812415
O O13 0.000000 0.500000 0.830513
O O14 0.697288 0.500000 0.547310
O O15 0.000000 0.790368 0.320105
O O16 0.000000 0.000000 0.412761
O O17 0.500000 0.000000 0.777719
O O18 0.205654 0.000000 0.799437
#
# Coordination Sequence:
#
# PCOD8187976 Si02
#       8
#     4   8   8   4   8   4   4   8
#     4  10  17  35  61  87 119 155 196 233 288 358
#     4  11  22  38  61  90 121 153 197 247 294 343
#     4  10  20  38  63  86 114 154 200 239 286 356
#     4  12  24  37  58  91 123 151 197 251 292 334
#     4   9  19  36  61  88 117 156 194 236 289 355
#     4  12  24  37  58  89 121 151 195 253 298 334
#     4  12  23  37  57  85 123 163 196 233 294 360
#     4  11  22  39  63  86 117 157 197 240 293 355
#
# _framework density 19.143408999999998
#
# number of rings (size 3 to 8) (size 9 to 14) (size 15 to 20)
#    0.000    1.333    3.333    3.750    0.000    2.000 
#    0.000    5.000    0.000    2.000    0.000    0.000 
#    0.000    0.000    0.000    0.000    0.000    0.000 
#
# Total GULP energy -297671.972186 kJ/mol
# GULP energy per Si atom -12402.998841 kJ/mol
# Density = 1.909984 g / cm^3
# Si number density = 19.143409 Si / 1000 Ang^3
#
#
#
# Elastic Constant Matrix: (Units=GPa)
#
#
# Indices 1 2 3 4 5 6 
#
# 1 150.3805 1.4456 76.8584 0.0000 0.0000 0.0000
# 2 1.4456 24.7387 9.5007 0.0000 0.0000 0.0000
# 3 76.8584 9.5007 160.9718 0.0000 0.0000 0.0000
# 4 0.0000 0.0000 0.0000 24.4654 0.0000 0.0000
# 5 0.0000 0.0000 0.0000 0.0000 33.6708 0.0000
# 6 0.0000 0.0000 0.0000 0.0000 0.0000 21.4226
#
#
#
# Elastic Compliance Matrix: (Units=1/GPa)
#
#
# Indices 1 2 3 4 5 6 
#
# 1 0.008827 0.001128 -0.004281 0.000000 0.000000 0.000000
# 2 0.001128 0.041504 -0.002988 0.000000 0.000000 0.000000
# 3 -0.004281 -0.002988 0.008433 0.000000 0.000000 0.000000
# 4 0.000000 0.000000 0.000000 0.040874 0.000000 0.000000
# 5 0.000000 0.000000 0.000000 0.000000 0.029699 0.000000
# 6 0.000000 0.000000 0.000000 0.000000 0.000000 0.046680
#
#
# Mechanical properties :
#
#
# Convention : Reuss Voigt Hill
#
# Bulk Modulus (GPa) = 21.51387 56.85560 39.18473
# Shear Modulus (GPa) = 24.53463 32.46416 28.49940
#
# Velocity S-wave (km/s) = 3.58386 4.12253 3.86259
# Velocity P-wave (km/s) = 5.32805 7.24048 6.35660
#
# Compressibility (1/GPa) = 0.04648164
#
# Stress axis : x y z
#
# Youngs Moduli (GPa) = 113.28825 24.09390 118.58503
#
# Poissons Ratio (x) = -0.02719 0.50769
# Poissons Ratio (y) = -0.12783 0.35437
# Poissons Ratio (z) = 0.48501 0.07200
#
# Static dielectric constant tensor:
#      x y z
#    x 3.447370 0.000000 0.000000 
#    y 0.000000 3.333410 0.000000 
#    z 0.000000 0.000000 3.772730 
# 
# 
# High freq. dielectric constant tensor:
#      x y z
#    x 1.750180 0.000000 0.000000 
#    y 0.000000 1.731350 0.000000 
#    z 0.000000 0.000000 1.745730 
# 
# From -- ./inp_files/21761.got.cif
#   From: 2010.03.12/outbox.cif.g09.slc.cpg/sg44_11_cif.got.tgz:21761.got - 2010.04.14 02:36:11.
