data_PCOD8187377
_publ_section_title
;
Structure prediction by ZEFSAII (Michael W. Deem and Ramdas Pophale) SiO2 
 PCOD8187377
Probable space group: F D D 2
;
_chemical_formula_sum "Si O2"
_cell_formula_units_Z 120
_cell_length_a 16.939793
_cell_length_b 12.486352
_cell_length_c 28.240878
_cell_angle_alpha 90.000000
_cell_angle_beta 90.000000
_cell_angle_gamma 90.000000
_cell_volume 5973.403713
_symmetry_space_group_name_H-M "F D D 2"
_symmetry_group_IT_number 43
_symmetry_cell_setting 'orthorhombic'
loop_
_space_group_symop_operation_xyz
x,y,z
-x,-y,z
1/4-x,1/4+y,1/4+z
1/4+x,1/4-y,1/4+z
x,1/2+y,1/2+z
-x,1/2-y,1/2+z
1/4-x,3/4+y,3/4+z
1/4+x,3/4-y,3/4+z
1/2+x,y,1/2+z
1/2-x,-y,1/2+z
3/4-x,1/4+y,3/4+z
3/4+x,1/4-y,3/4+z
1/2+x,1/2+y,z
1/2-x,1/2-y,z
3/4-x,3/4+y,1/4+z
3/4+x,3/4-y,1/4+z
loop_
_atom_site_type_symbol
_atom_site_label
_atom_site_fract_x
_atom_site_fract_y
_atom_site_fract_z
Si Si1 0.537060 0.833272 0.768180
Si Si2 0.947795 0.106951 0.104043
Si Si3 0.683460 0.010085 0.657729
Si Si4 0.000000 0.500000 0.138715
Si Si5 0.084074 0.990616 0.903020
Si Si6 0.998674 0.726611 0.177809
Si Si7 0.375471 0.707526 0.013833
Si Si8 0.081359 0.204624 0.855723
O O1 0.554714 0.773532 0.718675
O O2 0.452298 0.886196 0.760301
O O3 0.539106 0.741967 0.807738
O O4 0.601870 0.922979 0.780805
O O5 0.932507 0.150150 0.051268
O O6 0.991180 0.204506 0.130073
O O7 0.867113 0.084327 0.133537
O O8 0.000000 0.000000 0.103047
O O9 0.657804 0.120921 0.631713
O O10 0.668016 0.027268 0.713453
O O11 0.777484 0.992864 0.648048
O O12 0.982652 0.397779 0.171377
O O13 0.077772 0.490861 0.106448
O O14 0.154722 0.016128 0.939722
O O15 0.082234 0.075537 0.859597
O O16 0.000000 0.000000 0.930981
#
# Coordination Sequence:
#
# PCOD8187377 Si02
#       8
#    16  16  16   8  16  16  16  16
#     4  11  21  40  64  96 128 176 221 280 340 404
#     4  12  22  38  67 103 134 171 225 283 344 412
#     4  11  20  41  63 100 130 170 219 288 343 395
#     4  10  24  46  62  90 128 194 228 270 334 414
#     4   9  19  35  63  84 123 171 209 267 330 385
#     4  11  21  41  66  90 133 175 225 278 336 400
#     4  11  23  37  65 101 135 166 222 285 345 405
#     4  10  22  41  65  87 131 176 223 270 339 402
#
# _framework density 20.089048999999999
#
# number of rings (size 3 to 8) (size 9 to 14) (size 15 to 20)
#    0.000    1.333    5.333    0.800    0.000    1.600 
#    3.600    4.000    0.000    0.000    0.000    0.000 
#    0.000    0.000    0.000    0.000    0.000    0.000 
#
# Total GULP energy -371725.339439 kJ/mol
# GULP energy per Si atom -12390.844648 kJ/mol
# Density = 2.004333 g / cm^3
# Si number density = 20.089049 Si / 1000 Ang^3
#
#
#
# Elastic Constant Matrix: (Units=GPa)
#
#
# Indices 1 2 3 4 5 6 
#
# 1 88.5675 22.4922 39.1322 0.0000 0.0000 0.0000
# 2 22.4922 118.1957 44.4596 0.0000 0.0000 0.0000
# 3 39.1322 44.4596 122.3806 0.0000 0.0000 0.0000
# 4 0.0000 0.0000 0.0000 32.5229 0.0000 0.0000
# 5 0.0000 0.0000 0.0000 0.0000 23.1443 0.0000
# 6 0.0000 0.0000 0.0000 0.0000 0.0000 23.5097
#
#
#
# Elastic Compliance Matrix: (Units=1/GPa)
#
#
# Indices 1 2 3 4 5 6 
#
# 1 0.013266 -0.001076 -0.003851 0.000000 0.000000 0.000000
# 2 -0.001076 0.009887 -0.003248 0.000000 0.000000 0.000000
# 3 -0.003851 -0.003248 0.010582 0.000000 0.000000 0.000000
# 4 0.000000 0.000000 0.000000 0.030748 0.000000 0.000000
# 5 0.000000 0.000000 0.000000 0.000000 0.043207 0.000000
# 6 0.000000 0.000000 0.000000 0.000000 0.000000 0.042536
#
#
# Mechanical properties :
#
#
# Convention : Reuss Voigt Hill
#
# Bulk Modulus (GPa) = 57.51825 60.14578 58.83201
# Shear Modulus (GPa) = 29.00742 30.70604 29.85673
#
# Velocity S-wave (km/s) = 3.80405 3.91384 3.85933
# Velocity P-wave (km/s) = 6.92735 7.10132 7.01487
#
# Compressibility (1/GPa) = 0.01738579
#
# Stress axis : x y z
#
# Youngs Moduli (GPa) = 75.38349 101.14346 94.49567
#
# Poissons Ratio (x) = 0.10881 0.36389
# Poissons Ratio (y) = 0.08110 0.30690
# Poissons Ratio (z) = 0.29030 0.32850
#
# Static dielectric constant tensor:
#      x y z
#    x 3.871120 0.000000 0.000000 
#    y 0.000000 3.887250 0.000000 
#    z 0.000000 0.000000 3.296090 
# 
# 
# High freq. dielectric constant tensor:
#      x y z
#    x 1.790040 0.000000 0.000000 
#    y 0.000000 1.797020 0.000000 
#    z 0.000000 0.000000 1.749620 
# 
# From -- ./inp_files/25720.got.cif
#   From: 2010.06.25/outbox.cif.g09.slc.cpg/sg43_13_cif.got.tgz:25720.got - 2010.06.26 16:48:59.
