data_PCOD8187996
_publ_section_title
;
Structure prediction by ZEFSAII (Michael W. Deem and Ramdas Pophale) SiO2 
 PCOD8187996
Probable space group: I M M 2
;
_chemical_formula_sum "Si O2"
_cell_formula_units_Z 64
_cell_length_a 18.316296
_cell_length_b 9.524540
_cell_length_c 25.713126
_cell_angle_alpha 90.000000
_cell_angle_beta 90.000000
_cell_angle_gamma 90.000000
_cell_volume 4485.765240
_symmetry_space_group_name_H-M "I M M 2"
_symmetry_group_IT_number 44
_symmetry_cell_setting 'orthorhombic'
loop_
_space_group_symop_operation_xyz
x,y,z
-x,-y,z
-x,y,z
x,-y,z
1/2+x,1/2+y,1/2+z
1/2-x,1/2-y,1/2+z
1/2-x,1/2+y,1/2+z
1/2+x,1/2-y,1/2+z
loop_
_atom_site_type_symbol
_atom_site_label
_atom_site_fract_x
_atom_site_fract_y
_atom_site_fract_z
Si Si1 0.697072 0.155118 0.400830
Si Si2 0.581089 0.667041 0.945885
Si Si3 0.584420 0.159742 0.638824
Si Si4 0.083242 0.338642 0.259299
Si Si5 0.215209 0.156919 0.507568
Si Si6 0.838258 0.834173 0.343691
Si Si7 0.417025 0.663219 0.450893
Si Si8 0.332506 0.664589 0.556102
O O1 0.741682 0.151038 0.453900
O O2 0.753330 0.202643 0.355645
O O3 0.628717 0.259741 0.405671
O O4 0.666218 0.000000 0.388576
O O5 0.500000 0.727919 0.955629
O O6 0.580994 0.500000 0.943394
O O7 0.633611 0.712812 0.993787
O O8 0.610969 0.723051 0.890652
O O9 0.500000 0.192279 0.627787
O O10 0.602683 0.181797 0.699075
O O11 0.632764 0.269145 0.607227
O O12 0.602628 0.000000 0.621897
O O13 0.093549 0.500000 0.275629
O O14 0.138913 0.243231 0.291246
O O15 0.000000 0.291070 0.269960
O O16 0.253403 0.264701 0.547057
O O17 0.213239 0.000000 0.532204
O O18 0.848255 0.000000 0.336155
O O19 0.500000 0.717592 0.449380
O O20 0.411986 0.500000 0.438446
O O21 0.385509 0.697139 0.507772
O O22 0.321092 0.500000 0.564800
#
# Coordination Sequence:
#
# PCOD8187996 Si02
#       8
#     8   8   8   8   8   8   8   8
#     4   8  15  26  38  55  77 101 131 161 188 225
#     4   8  13  22  38  59  80 103 133 165 192 221
#     4   9  18  31  43  55  75 103 133 164 195 227
#     4   9  18  30  41  56  79 104 131 163 195 227
#     4   8  14  25  39  54  75 103 132 160 190 227
#     4   9  16  26  41  59  79 104 133 163 193 225
#     4   9  17  27  38  55  79 104 130 161 196 231
#     4  10  18  27  40  57  78 103 131 163 197 231
#
# _framework density 14.267355
#
# number of rings (size 3 to 8) (size 9 to 14) (size 15 to 20)
#    0.000    3.250    0.000    3.375    0.000    3.250 
#    0.000    3.125    0.000    1.125    0.000    0.000 
#    0.000    1.000    0.000    9.000    0.000    5.250 
#
# Total GULP energy -396646.267186 kJ/mol
# GULP energy per Si atom -12395.195850 kJ/mol
# Density = 1.423488 g / cm^3
# Si number density = 14.267355 Si / 1000 Ang^3
#
#
#
# Elastic Constant Matrix: (Units=GPa)
#
#
# Indices 1 2 3 4 5 6 
#
# 1 99.3521 46.0017 40.9598 0.0000 0.0000 0.0000
# 2 46.0017 63.9552 40.0209 0.0000 0.0000 0.0000
# 3 40.9598 40.0209 57.4329 0.0000 0.0000 0.0000
# 4 0.0000 0.0000 0.0000 23.5491 0.0000 0.0000
# 5 0.0000 0.0000 0.0000 0.0000 25.9657 0.0000
# 6 0.0000 0.0000 0.0000 0.0000 0.0000 20.2564
#
#
#
# Elastic Compliance Matrix: (Units=1/GPa)
#
#
# Indices 1 2 3 4 5 6 
#
# 1 0.016210 -0.007847 -0.006093 0.000000 0.000000 0.000000
# 2 -0.007847 0.031525 -0.016371 0.000000 0.000000 0.000000
# 3 -0.006093 -0.016371 0.033164 0.000000 0.000000 0.000000
# 4 0.000000 0.000000 0.000000 0.042464 0.000000 0.000000
# 5 0.000000 0.000000 0.000000 0.000000 0.038512 0.000000
# 6 0.000000 0.000000 0.000000 0.000000 0.000000 0.049367
#
#
# Mechanical properties :
#
#
# Convention : Reuss Voigt Hill
#
# Bulk Modulus (GPa) = 49.31456 52.74499 51.02978
# Shear Modulus (GPa) = 17.94530 20.20475 19.07503
#
# Velocity S-wave (km/s) = 3.55038 3.76726 3.66043
# Velocity P-wave (km/s) = 7.17263 7.48146 7.32867
#
# Compressibility (1/GPa) = 0.02027799
#
# Stress axis : x y z
#
# Youngs Moduli (GPa) = 61.68850 31.72124 30.15275
#
# Poissons Ratio (x) = 0.24892 0.18371
# Poissons Ratio (y) = 0.48409 0.49362
# Poissons Ratio (z) = 0.37585 0.51930
#
# Static dielectric constant tensor:
#      x y z
#    x 2.994380 0.000000 0.000000 
#    y 0.000000 2.732820 0.000000 
#    z 0.000000 0.000000 2.531400 
# 
# 
# High freq. dielectric constant tensor:
#      x y z
#    x 1.536510 0.000000 0.000000 
#    y 0.000000 1.538920 0.000000 
#    z 0.000000 0.000000 1.509960 
# 
# From -- ./inp_files/25229.got.cif
#   From: 2010.03.12/outbox.cif.g09.slc.cpg/sg44_13_cif.got.tgz:25229.got - 2010.04.14 02:36:11.
