data_PCOD8187038
_publ_section_title
;
Structure prediction by ZEFSAII (Michael W. Deem and Ramdas Pophale) SiO2 
 PCOD8187038
Probable space group: F D D 2
;
_chemical_formula_sum "Si O2"
_cell_formula_units_Z 88
_cell_length_a 25.544710
_cell_length_b 14.814041
_cell_length_c 13.661419
_cell_angle_alpha 90.000000
_cell_angle_beta 90.000000
_cell_angle_gamma 90.000000
_cell_volume 5169.759387
_symmetry_space_group_name_H-M "F D D 2"
_symmetry_group_IT_number 43
_symmetry_cell_setting 'orthorhombic'
loop_
_space_group_symop_operation_xyz
x,y,z
-x,-y,z
1/4-x,1/4+y,1/4+z
1/4+x,1/4-y,1/4+z
x,1/2+y,1/2+z
-x,1/2-y,1/2+z
1/4-x,3/4+y,3/4+z
1/4+x,3/4-y,3/4+z
1/2+x,y,1/2+z
1/2-x,-y,1/2+z
3/4-x,1/4+y,3/4+z
3/4+x,1/4-y,3/4+z
1/2+x,1/2+y,z
1/2-x,1/2-y,z
3/4-x,3/4+y,1/4+z
3/4+x,3/4-y,1/4+z
loop_
_atom_site_type_symbol
_atom_site_label
_atom_site_fract_x
_atom_site_fract_y
_atom_site_fract_z
Si Si1 0.812128 0.094267 0.662070
Si Si2 0.000000 0.000000 0.830312
Si Si3 0.164323 0.847164 0.306736
Si Si4 0.679443 0.666644 0.922463
Si Si5 0.496011 0.221610 0.062484
Si Si6 0.418349 0.256574 0.704943
O O1 0.789504 0.194346 0.648388
O O2 0.870095 0.100582 0.708141
O O3 0.814252 0.042743 0.559786
O O4 0.773653 0.041612 0.733603
O O5 0.967044 0.070538 0.765234
O O6 0.183426 0.754107 0.354073
O O7 0.215234 0.897445 0.261511
O O8 0.121735 0.826897 0.221676
O O9 0.140562 0.911521 0.393464
O O10 0.697311 0.579186 0.861917
O O11 0.529974 0.275388 0.145488
#
# Coordination Sequence:
#
# PCOD8187038 Si02
#       6
#    16   8  16  16  16  16
#     4  11  22  32  59  84 115 150 182 237 284 332
#     4  12  18  40  54  88 116 140 188 242 280 330
#     4   9  18  33  55  81 113 143 182 239 270 325
#     4  11  18  35  55  85 110 142 193 234 275 322
#     4  10  20  34  54  83 115 148 182 228 286 329
#     4   9  19  34  56  84 112 142 191 229 276 328
#
# _framework density 17.022068000000001
#
# number of rings (size 3 to 8) (size 9 to 14) (size 15 to 20)
#    1.091    0.727    5.455    1.091    7.636    0.000 
#    0.000    1.818    0.000    0.000    0.000    0.000 
#    0.000    0.000    0.000    0.000    0.000    0.000 
#
# Total GULP energy -272630.107659 kJ/mol
# GULP energy per Si atom -12392.277621 kJ/mol
# Density = 1.698333 g / cm^3
# Si number density = 17.022068 Si / 1000 Ang^3
#
#
#
# Elastic Constant Matrix: (Units=GPa)
#
#
# Indices 1 2 3 4 5 6 
#
# 1 110.2175 31.5250 36.8395 0.0000 0.0000 0.0000
# 2 31.5250 42.3129 35.6112 0.0000 0.0000 0.0000
# 3 36.8395 35.6112 59.9604 0.0000 0.0000 0.0000
# 4 0.0000 0.0000 0.0000 23.8032 0.0000 0.0000
# 5 0.0000 0.0000 0.0000 0.0000 17.9651 0.0000
# 6 0.0000 0.0000 0.0000 0.0000 0.0000 17.5728
#
#
#
# Elastic Compliance Matrix: (Units=1/GPa)
#
#
# Indices 1 2 3 4 5 6 
#
# 1 0.012021 -0.005479 -0.004132 0.000000 0.000000 0.000000
# 2 -0.005479 0.049749 -0.026181 0.000000 0.000000 0.000000
# 3 -0.004132 -0.026181 0.034765 0.000000 0.000000 0.000000
# 4 0.000000 0.000000 0.000000 0.042011 0.000000 0.000000
# 5 0.000000 0.000000 0.000000 0.000000 0.055664 0.000000
# 6 0.000000 0.000000 0.000000 0.000000 0.000000 0.056906
#
#
# Mechanical properties :
#
#
# Convention : Reuss Voigt Hill
#
# Bulk Modulus (GPa) = 40.07492 46.71580 43.39536
# Shear Modulus (GPa) = 15.10498 19.10256 17.10377
#
# Velocity S-wave (km/s) = 2.98212 3.35359 3.17330
# Velocity P-wave (km/s) = 5.95411 6.51915 6.24302
#
# Compressibility (1/GPa) = 0.02495326
#
# Stress axis : x y z
#
# Youngs Moduli (GPa) = 83.18719 20.10072 28.76448
#
# Poissons Ratio (x) = 0.11013 0.11885
# Poissons Ratio (y) = 0.45578 0.75307
# Poissons Ratio (z) = 0.34370 0.52625
#
# Static dielectric constant tensor:
#      x y z
#    x 3.473550 0.000000 0.000000 
#    y 0.000000 3.003190 0.000000 
#    z 0.000000 0.000000 2.948580 
# 
# 
# High freq. dielectric constant tensor:
#      x y z
#    x 1.667990 0.000000 0.000000 
#    y 0.000000 1.634200 0.000000 
#    z 0.000000 0.000000 1.627710 
# 
# From -- ./inp_files/10246.got.cif
#   From: 2010.06.25/outbox.cif.g09.slc.cpg/sg43_6_cif.got.tgz:10246.got - 2010.06.26 16:48:59.
