data_PCOD8187835
_publ_section_title
;
Structure prediction by ZEFSAII (Michael W. Deem and Ramdas Pophale) SiO2 
 PCOD8187835
Probable space group: F D D 2
;
_chemical_formula_sum "Si O2"
_cell_formula_units_Z 80
_cell_length_a 7.594687
_cell_length_b 28.721531
_cell_length_c 16.106305
_cell_angle_alpha 90.000000
_cell_angle_beta 90.000000
_cell_angle_gamma 90.000000
_cell_volume 3513.285030
_symmetry_space_group_name_H-M "F D D 2"
_symmetry_group_IT_number 43
_symmetry_cell_setting 'orthorhombic'
loop_
_space_group_symop_operation_xyz
x,y,z
-x,-y,z
1/4-x,1/4+y,1/4+z
1/4+x,1/4-y,1/4+z
x,1/2+y,1/2+z
-x,1/2-y,1/2+z
1/4-x,3/4+y,3/4+z
1/4+x,3/4-y,3/4+z
1/2+x,y,1/2+z
1/2-x,-y,1/2+z
3/4-x,1/4+y,3/4+z
3/4+x,1/4-y,3/4+z
1/2+x,1/2+y,z
1/2-x,1/2-y,z
3/4-x,3/4+y,1/4+z
3/4+x,3/4-y,1/4+z
loop_
_atom_site_type_symbol
_atom_site_label
_atom_site_fract_x
_atom_site_fract_y
_atom_site_fract_z
Si Si1 0.753706 0.062339 0.132940
Si Si2 0.459657 0.673191 0.713607
Si Si3 0.500000 0.000000 0.231713
Si Si4 0.599824 0.098452 0.965639
Si Si5 0.250000 0.250000 0.291022
Si Si6 0.333197 0.838100 0.587247
O O1 0.644749 0.020377 0.170459
O O2 0.650736 0.089788 0.060707
O O3 0.806347 0.096973 0.206775
O O4 0.930824 0.041797 0.096372
O O5 0.667265 0.678129 0.695557
O O6 0.402031 0.725950 0.736397
O O7 0.355376 0.658389 0.631483
O O8 0.405500 0.634192 0.781418
O O9 0.408185 0.040642 0.284593
O O10 0.755737 0.084348 0.902561
#
# Coordination Sequence:
#
# PCOD8187835 Si02
#       6
#    16  16   8  16   8  16
#     4  12  27  48  78 111 152 201 256 313 390 453
#     4  12  26  47  78 110 155 197 248 322 374 454
#     4  12  29  50  72 119 152 200 262 324 375 462
#     4  12  25  50  79 109 149 210 245 309 392 452
#     4  12  25  46  74 115 154 192 258 312 379 454
#     4  12  26  49  77 111 156 193 258 316 381 449
#
# _framework density 22.770713000000001
#
# number of rings (size 3 to 8) (size 9 to 14) (size 15 to 20)
#    0.000    0.000    6.000    3.000    2.800    1.600 
#    0.000    0.000    0.000    0.000    0.000    0.000 
#    0.000    0.000    0.000    0.000    0.000    0.000 
#
# Total GULP energy -248021.651082 kJ/mol
# GULP energy per Si atom -12401.082554 kJ/mol
# Density = 2.271889 g / cm^3
# Si number density = 22.770713 Si / 1000 Ang^3
#
#
#
# Elastic Constant Matrix: (Units=GPa)
#
#
# Indices 1 2 3 4 5 6 
#
# 1 125.8110 28.9329 30.7113 0.0000 0.0000 0.0000
# 2 28.9329 102.9891 40.7516 0.0000 0.0000 0.0000
# 3 30.7113 40.7516 109.7043 0.0000 0.0000 0.0000
# 4 0.0000 0.0000 0.0000 50.8467 0.0000 0.0000
# 5 0.0000 0.0000 0.0000 0.0000 7.9068 0.0000
# 6 0.0000 0.0000 0.0000 0.0000 0.0000 45.1683
#
#
#
# Elastic Compliance Matrix: (Units=1/GPa)
#
#
# Indices 1 2 3 4 5 6 
#
# 1 0.008794 -0.001754 -0.001810 0.000000 0.000000 0.000000
# 2 -0.001754 0.011733 -0.003867 0.000000 0.000000 0.000000
# 3 -0.001810 -0.003867 0.011059 0.000000 0.000000 0.000000
# 4 0.000000 0.000000 0.000000 0.019667 0.000000 0.000000
# 5 0.000000 0.000000 0.000000 0.000000 0.126473 0.000000
# 6 0.000000 0.000000 0.000000 0.000000 0.000000 0.022139
#
#
# Mechanical properties :
#
#
# Convention : Reuss Voigt Hill
#
# Bulk Modulus (GPa) = 59.80134 59.92177 59.86156
# Shear Modulus (GPa) = 22.69615 36.65827 29.67721
#
# Velocity S-wave (km/s) = 3.16052 4.01669 3.61405
# Velocity P-wave (km/s) = 6.29587 6.91984 6.61521
#
# Compressibility (1/GPa) = 0.01672203
#
# Stress axis : x y z
#
# Youngs Moduli (GPa) = 113.71764 85.23104 90.42630
#
# Poissons Ratio (x) = 0.14951 0.16368
# Poissons Ratio (y) = 0.19948 0.34970
# Poissons Ratio (z) = 0.20585 0.32961
#
# Static dielectric constant tensor:
#      x y z
#    x 4.328380 0.000000 0.000000 
#    y 0.000000 4.226100 0.000000 
#    z 0.000000 0.000000 4.191940 
# 
# 
# High freq. dielectric constant tensor:
#      x y z
#    x 1.909750 0.000000 0.000000 
#    y 0.000000 1.911450 0.000000 
#    z 0.000000 0.000000 1.906140 
# 
# From -- ./inp_files/12854.got.cif
#   From: 2010.06.25/outbox.cif.g09.slc.cpg/sg43_7_cif.got.tgz:12854.got - 2010.06.26 16:48:59.
