data_PCOD8187505
_publ_section_title
;
Structure prediction by ZEFSAII (Michael W. Deem and Ramdas Pophale) SiO2 
 PCOD8187505
Probable space group: F D D 2
;
_chemical_formula_sum "Si O2"
_cell_formula_units_Z 112
_cell_length_a 5.335548
_cell_length_b 29.893090
_cell_length_c 31.162743
_cell_angle_alpha 90.000000
_cell_angle_beta 90.000000
_cell_angle_gamma 90.000000
_cell_volume 4970.333374
_symmetry_space_group_name_H-M "F D D 2"
_symmetry_group_IT_number 43
_symmetry_cell_setting 'orthorhombic'
loop_
_space_group_symop_operation_xyz
x,y,z
-x,-y,z
1/4-x,1/4+y,1/4+z
1/4+x,1/4-y,1/4+z
x,1/2+y,1/2+z
-x,1/2-y,1/2+z
1/4-x,3/4+y,3/4+z
1/4+x,3/4-y,3/4+z
1/2+x,y,1/2+z
1/2-x,-y,1/2+z
3/4-x,1/4+y,3/4+z
3/4+x,1/4-y,3/4+z
1/2+x,1/2+y,z
1/2-x,1/2-y,z
3/4-x,3/4+y,1/4+z
3/4+x,3/4-y,1/4+z
loop_
_atom_site_type_symbol
_atom_site_label
_atom_site_fract_x
_atom_site_fract_y
_atom_site_fract_z
Si Si1 0.885552 0.296760 0.115930
Si Si2 0.255931 0.472633 0.773223
Si Si3 0.541676 0.078601 0.446849
Si Si4 0.299517 0.958518 0.636455
Si Si5 0.533860 0.582012 0.701681
Si Si6 0.500000 0.000000 0.066880
Si Si7 0.155199 0.123741 0.392690
Si Si8 0.000000 0.000000 0.012732
O O1 0.750000 0.250000 0.126027
O O2 0.688789 0.337378 0.107970
O O3 0.040243 0.294493 0.071788
O O4 0.061493 0.309116 0.155669
O O5 0.500000 0.500000 0.761343
O O6 0.269767 0.433448 0.738057
O O7 0.000000 0.500000 0.767966
O O8 0.656927 0.122760 0.468746
O O9 0.266073 0.092636 0.431075
O O10 0.548067 0.042639 0.483860
O O11 0.403332 0.909528 0.623257
O O12 0.170215 0.954833 0.684018
O O13 0.500000 0.000000 0.636807
O O14 0.089125 0.961593 0.599619
O O15 0.684647 0.594978 0.659404
O O16 0.250997 0.987904 0.039615
#
# Coordination Sequence:
#
# PCOD8187505 Si02
#       8
#    16  16  16  16  16   8  16   8
#     4  10  23  46  75 104 147 189 246 298 367 442
#     4  11  28  45  72 110 145 191 240 294 367 432
#     4  10  24  46  75 102 144 196 241 302 367 436
#     4  11  24  48  76 103 148 192 250 299 371 443
#     4  10  25  45  71 109 147 189 242 302 366 433
#     4  12  28  48  70 113 138 199 246 308 376 432
#     4  10  23  44  73 108 135 201 240 298 366 435
#     4  12  28  48  76 107 150 193 250 302 370 446
#
# _framework density 22.533698999999999
#
# number of rings (size 3 to 8) (size 9 to 14) (size 15 to 20)
#    0.000    1.429    0.714    1.714   17.000    0.000 
#   12.857    0.000    0.000    0.000    0.000    0.000 
#    0.000    0.000    0.000    0.000    0.000    0.000 
#
# Total GULP energy -346870.048564 kJ/mol
# GULP energy per Si atom -12388.216020 kJ/mol
# Density = 2.248241 g / cm^3
# Si number density = 22.533699 Si / 1000 Ang^3
#
#
#
# Elastic Constant Matrix: (Units=GPa)
#
#
# Indices 1 2 3 4 5 6 
#
# 1 124.2149 54.3741 46.8159 0.0000 0.0000 0.0000
# 2 54.3741 130.6341 71.8090 0.0000 0.0000 0.0000
# 3 46.8159 71.8090 114.0542 0.0000 0.0000 0.0000
# 4 0.0000 0.0000 0.0000 -35.8993 0.0000 0.0000
# 5 0.0000 0.0000 0.0000 0.0000 15.0495 0.0000
# 6 0.0000 0.0000 0.0000 0.0000 0.0000 34.7665
#
#
#
# Elastic Compliance Matrix: (Units=1/GPa)
#
#
# Indices 1 2 3 4 5 6 
#
# 1 0.010231 -0.002982 -0.002322 0.000000 0.000000 0.000000
# 2 -0.002982 0.012576 -0.006694 0.000000 0.000000 0.000000
# 3 -0.002322 -0.006694 0.013935 0.000000 0.000000 0.000000
# 4 0.000000 0.000000 0.000000 -0.027856 0.000000 0.000000
# 5 0.000000 0.000000 0.000000 0.000000 0.066447 0.000000
# 6 0.000000 0.000000 0.000000 0.000000 0.000000 0.028763
#
#
# Mechanical properties :
#
#
# Convention : Reuss Voigt Hill
#
# Bulk Modulus (GPa) = 78.45299 79.43347 78.94323
# Shear Modulus (GPa) = 37.78108 15.84363 26.81235
#
# Velocity S-wave (km/s) = 4.09913 2.65450 3.45320
# Velocity P-wave (km/s) = 7.56936 6.68750 7.14205
#
# Compressibility (1/GPa) = 0.01274649
#
# Stress axis : x y z
#
# Youngs Moduli (GPa) = 97.74107 79.51858 71.76063
#
# Poissons Ratio (x) = 0.23713 0.16663
# Poissons Ratio (y) = 0.29147 0.48034
# Poissons Ratio (z) = 0.22696 0.53227
#
# Static dielectric constant tensor:
#      x y z
#    x 4.381300 0.000000 0.000000 
#    y 0.000000 4.308740 0.000000 
#    z 0.000000 0.000000 3.932260 
# 
# 
# High freq. dielectric constant tensor:
#      x y z
#    x 1.904150 0.000000 0.000000 
#    y 0.000000 1.899810 0.000000 
#    z 0.000000 0.000000 1.873070 
# 
# From -- ./inp_files/27458.got.cif
#   From: 2010.06.25/outbox.cif.g09.slc.cpg/sg43_14_cif.got.tgz:27458.got - 2010.06.26 16:48:59.
