data_PCOD8187165
_publ_section_title
;
Structure prediction by ZEFSAII (Michael W. Deem and Ramdas Pophale) SiO2 
 PCOD8187165
Probable space group: F D D 2
;
_chemical_formula_sum "Si O2"
_cell_formula_units_Z 56
_cell_length_a 19.431546
_cell_length_b 6.861878
_cell_length_c 19.311884
_cell_angle_alpha 90.000000
_cell_angle_beta 90.000000
_cell_angle_gamma 90.000000
_cell_volume 2574.986707
_symmetry_space_group_name_H-M "F D D 2"
_symmetry_group_IT_number 43
_symmetry_cell_setting 'orthorhombic'
loop_
_space_group_symop_operation_xyz
x,y,z
-x,-y,z
1/4-x,1/4+y,1/4+z
1/4+x,1/4-y,1/4+z
x,1/2+y,1/2+z
-x,1/2-y,1/2+z
1/4-x,3/4+y,3/4+z
1/4+x,3/4-y,3/4+z
1/2+x,y,1/2+z
1/2-x,-y,1/2+z
3/4-x,1/4+y,3/4+z
3/4+x,1/4-y,3/4+z
1/2+x,1/2+y,z
1/2-x,1/2-y,z
3/4-x,3/4+y,1/4+z
3/4+x,3/4-y,1/4+z
loop_
_atom_site_type_symbol
_atom_site_label
_atom_site_fract_x
_atom_site_fract_y
_atom_site_fract_z
Si Si1 0.148340 0.390232 0.327970
Si Si2 0.610508 0.217056 0.420496
Si Si3 0.500000 0.000000 0.956536
Si Si4 0.302948 0.522201 0.329175
O O1 0.124655 0.447288 0.251386
O O2 0.100558 0.505033 0.383575
O O3 0.226573 0.448777 0.343306
O O4 0.142615 0.156282 0.333633
O O5 0.541570 0.346572 0.408881
O O6 0.676111 0.321587 0.386737
O O7 0.554539 0.119674 0.004594
#
# Coordination Sequence:
#
# PCOD8187165 Si02
#       4
#    16  16   8  16
#     4  10  23  37  68  90 129 174 216 269 336 389
#     4  11  20  41  61  96 125 173 215 268 325 402
#     4  10  22  40  68  92 136 170 220 282 340 384
#     4  10  20  43  63  90 126 174 212 273 330 390
#
# _framework density 21.747685000000001
#
# number of rings (size 3 to 8) (size 9 to 14) (size 15 to 20)
#    0.000    1.714    5.714    0.000    4.000    0.000 
#    0.000    8.571    0.000    0.000    0.000    0.000 
#    0.000    0.000    0.000    0.000    0.000    0.000 
#
# Total GULP energy -173532.685264 kJ/mol
# GULP energy per Si atom -12395.191805 kJ/mol
# Density = 2.169819 g / cm^3
# Si number density = 21.747685 Si / 1000 Ang^3
#
#
#
# Elastic Constant Matrix: (Units=GPa)
#
#
# Indices 1 2 3 4 5 6 
#
# 1 40.1950 34.2261 35.5253 0.0000 0.0000 0.0000
# 2 34.2261 170.1600 49.0156 0.0000 0.0000 -0.0001
# 3 35.5253 49.0156 95.7266 0.0000 0.0000 0.0000
# 4 0.0000 0.0000 0.0000 29.6342 0.0000 0.0000
# 5 0.0000 0.0000 0.0000 0.0000 40.7248 0.0000
# 6 0.0000 -0.0001 0.0000 0.0000 0.0000 47.7801
#
#
#
# Elastic Compliance Matrix: (Units=1/GPa)
#
#
# Indices 1 2 3 4 5 6 
#
# 1 0.039622 -0.004380 -0.012461 0.000000 0.000000 0.000000
# 2 -0.004380 0.007378 -0.002152 0.000000 0.000000 0.000000
# 3 -0.012461 -0.002152 0.016173 0.000000 0.000000 0.000000
# 4 0.000000 0.000000 0.000000 0.033745 0.000000 0.000000
# 5 0.000000 0.000000 0.000000 0.000000 0.024555 0.000000
# 6 0.000000 0.000000 0.000000 0.000000 0.000000 0.020929
#
#
# Mechanical properties :
#
#
# Convention : Reuss Voigt Hill
#
# Bulk Modulus (GPa) = 39.70551 60.40172 50.05362
# Shear Modulus (GPa) = 26.48523 36.11545 31.30034
#
# Velocity S-wave (km/s) = 3.49354 4.07954 3.79786
# Velocity P-wave (km/s) = 5.87964 7.07279 6.50363
#
# Compressibility (1/GPa) = 0.02518542
#
# Stress axis : x y z
#
# Youngs Moduli (GPa) = 25.23852 135.54214 61.83127
#
# Poissons Ratio (x) = 0.59367 0.77051
# Poissons Ratio (y) = 0.11054 0.13308
# Poissons Ratio (z) = 0.31451 0.29172
#
# Static dielectric constant tensor:
#      x y z
#    x 3.564720 0.000000 0.000000 
#    y 0.000000 4.822190 0.000000 
#    z 0.000000 0.000000 3.685000 
# 
# 
# High freq. dielectric constant tensor:
#      x y z
#    x 1.815540 0.000000 0.000000 
#    y 0.000000 1.889940 0.000000 
#    z 0.000000 0.000000 1.833200 
# 
# From -- ./inp_files/8918.got.cif
#   From: 2010.06.25/outbox.cif.g09.slc.cpg/sg43_5_cif.got.tgz:8918.got - 2010.06.26 16:48:59.
