data_PCOD8187802
_publ_section_title
;
Structure prediction by ZEFSAII (Michael W. Deem and Ramdas Pophale) SiO2 
 PCOD8187802
Probable space group: F D D 2
;
_chemical_formula_sum "Si O2"
_cell_formula_units_Z 96
_cell_length_a 26.993960
_cell_length_b 17.325864
_cell_length_c 9.842292
_cell_angle_alpha 90.000000
_cell_angle_beta 90.000000
_cell_angle_gamma 90.000000
_cell_volume 4603.177763
_symmetry_space_group_name_H-M "F D D 2"
_symmetry_group_IT_number 43
_symmetry_cell_setting 'orthorhombic'
loop_
_space_group_symop_operation_xyz
x,y,z
-x,-y,z
1/4-x,1/4+y,1/4+z
1/4+x,1/4-y,1/4+z
x,1/2+y,1/2+z
-x,1/2-y,1/2+z
1/4-x,3/4+y,3/4+z
1/4+x,3/4-y,3/4+z
1/2+x,y,1/2+z
1/2-x,-y,1/2+z
3/4-x,1/4+y,3/4+z
3/4+x,1/4-y,3/4+z
1/2+x,1/2+y,z
1/2-x,1/2-y,z
3/4-x,3/4+y,1/4+z
3/4+x,3/4-y,1/4+z
loop_
_atom_site_type_symbol
_atom_site_label
_atom_site_fract_x
_atom_site_fract_y
_atom_site_fract_z
Si Si1 0.133743 0.536975 0.939040
Si Si2 0.477175 0.162481 0.091400
Si Si3 0.628339 0.360792 0.475697
Si Si4 0.240375 0.582134 0.855786
Si Si5 0.268225 0.665810 0.592009
Si Si6 0.221879 0.828391 0.104217
O O1 0.139146 0.445708 0.917915
O O2 0.181376 0.578560 0.875526
O O3 0.086824 0.566014 0.853822
O O4 0.128385 0.553723 0.098797
O O5 0.486949 0.251405 0.055674
O O6 0.491318 0.147283 0.247299
O O7 0.420377 0.140860 0.067649
O O8 0.511632 0.106414 0.002525
O O9 0.672766 0.334662 0.572767
O O10 0.253781 0.646939 0.746079
O O11 0.265390 0.605204 0.997420
O O12 0.250000 0.750000 0.551629
O O13 0.250000 0.750000 0.064401
#
# Coordination Sequence:
#
# PCOD8187802 Si02
#       6
#    16  16  16  16  16  16
#     4  12  22  43  71  99 130 182 233 275 336 417
#     4  12  23  44  70 100 131 182 233 277 334 412
#     4  12  24  42  74  97 132 183 233 275 337 417
#     4  12  26  43  66 104 143 169 220 297 346 391
#     4  12  26  44  66 103 140 172 223 290 346 398
#     4  12  23  43  71  98 128 185 233 273 334 417
#
# _framework density 20.855157999999999
#
# number of rings (size 3 to 8) (size 9 to 14) (size 15 to 20)
#    0.000    0.000    6.667    4.000    0.000    2.667 
#    0.000    0.000    0.000    0.000    0.000    0.000 
#    0.000    0.000    0.000    0.000    0.000    0.000 
#
# Total GULP energy -297854.876838 kJ/mol
# GULP energy per Si atom -12410.619868 kJ/mol
# Density = 2.080769 g / cm^3
# Si number density = 20.855158 Si / 1000 Ang^3
#
#
#
# Elastic Constant Matrix: (Units=GPa)
#
#
# Indices 1 2 3 4 5 6 
#
# 1 141.0801 34.7803 30.4783 0.0000 0.0000 0.0000
# 2 34.7803 89.8985 11.1939 0.0000 0.0000 0.0000
# 3 30.4783 11.1939 72.9404 0.0000 0.0000 0.0000
# 4 0.0000 0.0000 0.0000 37.4744 0.0000 0.0000
# 5 0.0000 0.0000 0.0000 0.0000 28.0313 0.0000
# 6 0.0000 0.0000 0.0000 0.0000 0.0000 35.7347
#
#
#
# Elastic Compliance Matrix: (Units=1/GPa)
#
#
# Indices 1 2 3 4 5 6 
#
# 1 0.008470 -0.002891 -0.003095 0.000000 0.000000 0.000000
# 2 -0.002891 0.012327 -0.000684 0.000000 0.000000 0.000000
# 3 -0.003095 -0.000684 0.015108 0.000000 0.000000 0.000000
# 4 0.000000 0.000000 0.000000 0.026685 0.000000 0.000000
# 5 0.000000 0.000000 0.000000 0.000000 0.035674 0.000000
# 6 0.000000 0.000000 0.000000 0.000000 0.000000 0.027984
#
#
# Mechanical properties :
#
#
# Convention : Reuss Voigt Hill
#
# Bulk Modulus (GPa) = 44.31749 50.75822 47.53786
# Shear Modulus (GPa) = 33.98799 35.41250 34.70025
#
# Velocity S-wave (km/s) = 4.04135 4.12518 4.08348
# Velocity P-wave (km/s) = 6.56300 6.86154 6.71393
#
# Compressibility (1/GPa) = 0.02256445
#
# Stress axis : x y z
#
# Youngs Moduli (GPa) = 118.06820 81.11999 66.18948
#
# Poissons Ratio (x) = 0.23455 0.20488
# Poissons Ratio (y) = 0.34138 0.04525
# Poissons Ratio (z) = 0.36546 0.05546
#
# Static dielectric constant tensor:
#      x y z
#    x 3.984390 0.000000 0.000000 
#    y 0.000000 3.767950 0.000000 
#    z 0.000000 0.000000 3.540670 
# 
# 
# High freq. dielectric constant tensor:
#      x y z
#    x 1.833790 0.000000 0.000000 
#    y 0.000000 1.827130 0.000000 
#    z 0.000000 0.000000 1.809990 
# 
# From -- ./inp_files/7516.got.cif
#   From: 2010.06.25/outbox.cif.g09.slc.cpg/sg43_4_cif.got.tgz:7516.got - 2010.06.26 16:48:59.
