data_PCOD8187041
_publ_section_title
;
Structure prediction by ZEFSAII (Michael W. Deem and Ramdas Pophale) SiO2 
 PCOD8187041
Probable space group: F D D 2
;
_chemical_formula_sum "Si O2"
_cell_formula_units_Z 56
_cell_length_a 20.948037
_cell_length_b 9.112179
_cell_length_c 17.403842
_cell_angle_alpha 90.000000
_cell_angle_beta 90.000000
_cell_angle_gamma 90.000000
_cell_volume 3322.084743
_symmetry_space_group_name_H-M "F D D 2"
_symmetry_group_IT_number 43
_symmetry_cell_setting 'orthorhombic'
loop_
_space_group_symop_operation_xyz
x,y,z
-x,-y,z
1/4-x,1/4+y,1/4+z
1/4+x,1/4-y,1/4+z
x,1/2+y,1/2+z
-x,1/2-y,1/2+z
1/4-x,3/4+y,3/4+z
1/4+x,3/4-y,3/4+z
1/2+x,y,1/2+z
1/2-x,-y,1/2+z
3/4-x,1/4+y,3/4+z
3/4+x,1/4-y,3/4+z
1/2+x,1/2+y,z
1/2-x,1/2-y,z
3/4-x,3/4+y,1/4+z
3/4+x,3/4-y,1/4+z
loop_
_atom_site_type_symbol
_atom_site_label
_atom_site_fract_x
_atom_site_fract_y
_atom_site_fract_z
Si Si1 0.500000 0.500000 0.008721
Si Si2 0.632039 0.840895 0.159234
Si Si3 0.745882 0.411495 0.905543
Si Si4 0.436480 0.410025 0.744360
O O1 0.489062 0.642298 0.064167
O O2 0.561185 0.516679 0.955741
O O3 0.675064 0.974972 0.413250
O O4 0.652753 0.881440 0.073456
O O5 0.612575 0.995261 0.195112
O O6 0.750000 0.250000 0.945345
O O7 0.797881 0.514599 0.945794
O O8 0.500000 0.500000 0.763155
#
# Coordination Sequence:
#
# PCOD8187041 Si02
#       4
#     8  16  16  16
#     4  10  20  36  58  80 110 152 180 222 278 332
#     4  11  19  36  60  82 108 150 183 228 274 331
#     4   9  21  38  55  80 112 145 183 229 269 331
#     4  10  20  34  58  80 110 143 188 225 273 324
#
# _framework density 16.856884999999998
#
# number of rings (size 3 to 8) (size 9 to 14) (size 15 to 20)
#    0.857    1.143    4.286    0.000    0.000    2.286 
#    0.000    0.000    6.286    0.000    0.000    0.000 
#    0.000    0.000    0.000    0.000    0.000    0.000 
#
# Total GULP energy -173534.690397 kJ/mol
# GULP energy per Si atom -12395.335028 kJ/mol
# Density = 1.681852 g / cm^3
# Si number density = 16.856885 Si / 1000 Ang^3
#
#
#
# Elastic Constant Matrix: (Units=GPa)
#
#
# Indices 1 2 3 4 5 6 
#
# 1 113.5069 59.0668 72.0730 0.0000 0.0000 0.0000
# 2 59.0668 100.0641 62.7094 0.0000 0.0000 0.0000
# 3 72.0730 62.7094 144.3065 0.0000 0.0000 0.0000
# 4 0.0000 0.0000 0.0000 14.7247 0.0000 0.0000
# 5 0.0000 0.0000 0.0000 0.0000 3.9309 0.0000
# 6 0.0000 0.0000 0.0000 0.0000 0.0000 19.3327
#
#
#
# Elastic Compliance Matrix: (Units=1/GPa)
#
#
# Indices 1 2 3 4 5 6 
#
# 1 0.014939 -0.005693 -0.004987 0.000000 0.000000 0.000000
# 2 -0.005693 0.015903 -0.004068 0.000000 0.000000 0.000000
# 3 -0.004987 -0.004068 0.011188 0.000000 0.000000 0.000000
# 4 0.000000 0.000000 0.000000 0.067913 0.000000 0.000000
# 5 0.000000 0.000000 0.000000 0.000000 0.254396 0.000000
# 6 0.000000 0.000000 0.000000 0.000000 0.000000 0.051726
#
#
# Mechanical properties :
#
#
# Convention : Reuss Voigt Hill
#
# Bulk Modulus (GPa) = 79.77731 82.84176 81.30953
# Shear Modulus (GPa) = 11.11754 18.53289 14.82521
#
# Velocity S-wave (km/s) = 2.57091 3.31936 2.96881
# Velocity P-wave (km/s) = 7.49945 7.99635 7.75188
#
# Compressibility (1/GPa) = 0.01253489
#
# Stress axis : x y z
#
# Youngs Moduli (GPa) = 66.93690 62.88045 89.37965
#
# Poissons Ratio (x) = 0.35798 0.44578
# Poissons Ratio (y) = 0.38107 0.36355
# Poissons Ratio (z) = 0.33385 0.25577
#
# Static dielectric constant tensor:
#      x y z
#    x 3.245860 0.000000 0.000000 
#    y 0.000000 3.096530 0.000000 
#    z 0.000000 0.000000 3.191190 
# 
# 
# High freq. dielectric constant tensor:
#      x y z
#    x 1.655110 0.000000 0.000000 
#    y 0.000000 1.640800 0.000000 
#    z 0.000000 0.000000 1.656170 
# 
# From -- ./inp_files/4059.got.cif
#   From: 2010.06.25/outbox.cif.g09.slc.cpg/sg43_3_cif.got.tgz:4059.got - 2010.06.26 16:48:59.
