data_PCOD8187251
_publ_section_title
;
Structure prediction by ZEFSAII (Michael W. Deem and Ramdas Pophale) SiO2 
 PCOD8187251
Probable space group: F D D 2
;
_chemical_formula_sum "Si O2"
_cell_formula_units_Z 112
_cell_length_a 16.579487
_cell_length_b 22.226026
_cell_length_c 13.780554
_cell_angle_alpha 90.000000
_cell_angle_beta 90.000000
_cell_angle_gamma 90.000000
_cell_volume 5078.080531
_symmetry_space_group_name_H-M "F D D 2"
_symmetry_group_IT_number 43
_symmetry_cell_setting 'orthorhombic'
loop_
_space_group_symop_operation_xyz
x,y,z
-x,-y,z
1/4-x,1/4+y,1/4+z
1/4+x,1/4-y,1/4+z
x,1/2+y,1/2+z
-x,1/2-y,1/2+z
1/4-x,3/4+y,3/4+z
1/4+x,3/4-y,3/4+z
1/2+x,y,1/2+z
1/2-x,-y,1/2+z
3/4-x,1/4+y,3/4+z
3/4+x,1/4-y,3/4+z
1/2+x,1/2+y,z
1/2-x,1/2-y,z
3/4-x,3/4+y,1/4+z
3/4+x,3/4-y,1/4+z
loop_
_atom_site_type_symbol
_atom_site_label
_atom_site_fract_x
_atom_site_fract_y
_atom_site_fract_z
Si Si1 0.398802 0.250230 0.932120
Si Si2 0.777088 0.426284 0.583854
Si Si3 0.110074 0.448260 0.376775
Si Si4 0.933774 0.458213 0.002878
Si Si5 0.293878 0.074147 0.722113
Si Si6 0.973953 0.745814 0.656793
Si Si7 0.663526 0.232770 0.842269
O O1 0.450777 0.311064 0.905673
O O2 0.326863 0.238497 0.858174
O O3 0.460074 0.193561 0.919170
O O4 0.357362 0.253343 0.038391
O O5 0.807751 0.357895 0.588666
O O6 0.752710 0.449365 0.476514
O O7 0.855283 0.462306 0.617650
O O8 0.207016 0.444018 0.394832
O O9 0.072257 0.470498 0.477735
O O10 0.000000 0.500000 0.948760
O O11 0.966072 0.390815 0.013245
O O12 0.850465 0.458412 0.946107
O O13 0.304004 0.025486 0.807065
O O14 0.370698 0.072925 0.648330
O O15 0.750000 0.250000 0.887381
#
# Coordination Sequence:
#
# PCOD8187251 Si02
#       7
#    16  16  16  16  16  16  16
#     4   9  22  44  61  95 130 167 222 270 328 399
#     4   9  20  39  65  89 126 169 209 264 333 381
#     4  10  21  40  69  89 130 174 204 281 330 378
#     4  11  25  41  66  97 125 174 224 268 335 405
#     4  10  23  43  65  86 135 171 207 280 324 390
#     4   9  22  44  60  97 130 165 224 266 329 400
#     4  10  23  39  59 103 123 161 223 257 325 403
#
# _framework density 22.055578000000001
#
# number of rings (size 3 to 8) (size 9 to 14) (size 15 to 20)
#    0.000    2.286    0.000    0.857    8.000    3.429 
#    0.000    0.000    0.000    0.000    0.000    0.000 
#    0.000    0.000    0.000    0.000    0.000    0.000 
#
# Total GULP energy -346904.911422 kJ/mol
# GULP energy per Si atom -12389.461122 kJ/mol
# Density = 2.200538 g / cm^3
# Si number density = 22.055578 Si / 1000 Ang^3
#
#
#
# Elastic Constant Matrix: (Units=GPa)
#
#
# Indices 1 2 3 4 5 6 
#
# 1 90.7877 44.9440 18.9736 0.0000 0.0000 0.0000
# 2 44.9440 98.9304 15.9866 0.0000 0.0000 0.0000
# 3 18.9736 15.9866 82.1331 0.0000 0.0000 0.0000
# 4 0.0000 0.0000 0.0000 20.3168 0.0000 0.0000
# 5 0.0000 0.0000 0.0000 0.0000 10.1678 0.0000
# 6 0.0000 0.0000 0.0000 0.0000 0.0000 18.9789
#
#
#
# Elastic Compliance Matrix: (Units=1/GPa)
#
#
# Indices 1 2 3 4 5 6 
#
# 1 0.014568 -0.006271 -0.002145 0.000000 0.000000 0.000000
# 2 -0.006271 0.013136 -0.001108 0.000000 0.000000 0.000000
# 3 -0.002145 -0.001108 0.012886 0.000000 0.000000 0.000000
# 4 0.000000 0.000000 0.000000 0.049220 0.000000 0.000000
# 5 0.000000 0.000000 0.000000 0.000000 0.098350 0.000000
# 6 0.000000 0.000000 0.000000 0.000000 0.000000 0.052690
#
#
# Mechanical properties :
#
#
# Convention : Reuss Voigt Hill
#
# Bulk Modulus (GPa) = 46.42089 47.96218 47.19154
# Shear Modulus (GPa) = 18.72099 22.68915 20.70507
#
# Velocity S-wave (km/s) = 2.91659 3.21086 3.06726
# Velocity P-wave (km/s) = 5.69517 5.96149 5.82985
#
# Compressibility (1/GPa) = 0.02154203
#
# Stress axis : x y z
#
# Youngs Moduli (GPa) = 68.64565 76.12482 77.60086
#
# Poissons Ratio (x) = 0.47742 0.16642
# Poissons Ratio (y) = 0.43051 0.08599
# Poissons Ratio (z) = 0.14721 0.08435
#
# Static dielectric constant tensor:
#      x y z
#    x 4.038730 0.000000 0.000000 
#    y 0.000000 3.586050 0.000000 
#    z 0.000000 0.000000 4.092780 
# 
# 
# High freq. dielectric constant tensor:
#      x y z
#    x 1.878720 0.000000 0.000000 
#    y 0.000000 1.835030 0.000000 
#    z 0.000000 0.000000 1.872790 
# 
# From -- ./inp_files/10174.got.cif
#   From: 2010.06.25/outbox.cif.g09.slc.cpg/sg43_6_cif.got.tgz:10174.got - 2010.06.26 16:48:59.
