data_PCOD8187388
_publ_section_title
;
Structure prediction by ZEFSAII (Michael W. Deem and Ramdas Pophale) SiO2 
 PCOD8187388
Probable space group: F D D 2
;
_chemical_formula_sum "Si O2"
_cell_formula_units_Z 96
_cell_length_a 16.275084
_cell_length_b 27.082993
_cell_length_c 9.317375
_cell_angle_alpha 90.000000
_cell_angle_beta 90.000000
_cell_angle_gamma 90.000000
_cell_volume 4106.893788
_symmetry_space_group_name_H-M "F D D 2"
_symmetry_group_IT_number 43
_symmetry_cell_setting 'orthorhombic'
loop_
_space_group_symop_operation_xyz
x,y,z
-x,-y,z
1/4-x,1/4+y,1/4+z
1/4+x,1/4-y,1/4+z
x,1/2+y,1/2+z
-x,1/2-y,1/2+z
1/4-x,3/4+y,3/4+z
1/4+x,3/4-y,3/4+z
1/2+x,y,1/2+z
1/2-x,-y,1/2+z
3/4-x,1/4+y,3/4+z
3/4+x,1/4-y,3/4+z
1/2+x,1/2+y,z
1/2-x,1/2-y,z
3/4-x,3/4+y,1/4+z
3/4+x,3/4-y,1/4+z
loop_
_atom_site_type_symbol
_atom_site_label
_atom_site_fract_x
_atom_site_fract_y
_atom_site_fract_z
Si Si1 0.011204 0.343104 0.761110
Si Si2 0.418604 0.265906 0.755007
Si Si3 0.000000 0.500000 0.585940
Si Si4 0.000000 0.500000 0.097747
Si Si5 0.085848 0.158965 0.983534
Si Si6 0.621865 0.181615 0.990333
Si Si7 0.230704 0.822326 0.585816
O O1 0.980032 0.356138 0.602204
O O2 0.051847 0.289604 0.752610
O O3 0.073523 0.386668 0.804077
O O4 0.934553 0.342227 0.867957
O O5 0.319351 0.271687 0.745965
O O6 0.441150 0.296912 0.611771
O O7 0.444039 0.290338 0.906964
O O8 0.926717 0.522783 0.681387
O O9 0.034474 0.542486 0.482474
O O10 0.953449 0.459725 0.198712
O O11 0.174492 0.162520 0.058209
O O12 0.080176 0.118687 0.854714
#
# Coordination Sequence:
#
# PCOD8187388 Si02
#       7
#    16  16   8   8  16  16  16
#     4  12  26  48  70 111 146 192 254 305 375 451
#     4  11  27  44  71 100 151 187 247 303 374 438
#     4  11  21  44  70 100 138 194 240 300 376 432
#     4   9  23  46  66 104 136 190 232 304 364 446
#     4  11  22  46  65 105 132 193 234 301 362 440
#     4  12  28  45  75 109 147 200 246 319 373 446
#     4  10  22  41  72  97 138 179 245 292 364 441
#
# _framework density 23.375329000000001
#
# number of rings (size 3 to 8) (size 9 to 14) (size 15 to 20)
#    0.000    1.000    3.333    1.500    7.000    4.000 
#    0.000    0.000    0.000    0.000    0.000    0.000 
#    0.000    0.000    0.000    0.000    0.000    0.000 
#
# Total GULP energy -297494.231521 kJ/mol
# GULP energy per Si atom -12395.592980 kJ/mol
# Density = 2.332213 g / cm^3
# Si number density = 23.375329 Si / 1000 Ang^3
#
#
#
# Elastic Constant Matrix: (Units=GPa)
#
#
# Indices 1 2 3 4 5 6 
#
# 1 57.6175 44.6098 31.5846 0.0000 0.0000 0.0000
# 2 44.6098 140.2254 26.0769 0.0000 0.0000 0.0000
# 3 31.5846 26.0769 74.7690 0.0000 0.0000 0.0000
# 4 0.0000 0.0000 0.0000 25.7385 0.0000 0.0000
# 5 0.0000 0.0000 0.0000 0.0000 -3.5757 0.0000
# 6 0.0000 0.0000 0.0000 0.0000 0.0000 45.5797
#
#
#
# Elastic Compliance Matrix: (Units=1/GPa)
#
#
# Indices 1 2 3 4 5 6 
#
# 1 0.028036 -0.007182 -0.009338 0.000000 0.000000 0.000000
# 2 -0.007182 0.009466 -0.000267 0.000000 0.000000 0.000000
# 3 -0.009338 -0.000267 0.017412 0.000000 0.000000 0.000000
# 4 0.000000 0.000000 0.000000 0.038852 0.000000 0.000000
# 5 0.000000 0.000000 0.000000 0.000000 -0.279662 0.000000
# 6 0.000000 0.000000 0.000000 0.000000 0.000000 0.021940
#
#
# Mechanical properties :
#
#
# Convention : Reuss Voigt Hill
#
# Bulk Modulus (GPa) = 46.86390 53.01719 49.94055
# Shear Modulus (GPa) = -40.56237 24.90453 -7.82892
#
# Velocity S-wave (km/s) = -4.17017 3.26762 -1.83207
# Velocity P-wave (km/s) = 1.75929 6.08001 4.11530
#
# Compressibility (1/GPa) = 0.02133839
#
# Stress axis : x y z
#
# Youngs Moduli (GPa) = 35.66879 105.64082 57.43009
#
# Poissons Ratio (x) = 0.75876 0.53629
# Poissons Ratio (y) = 0.25619 0.01535
# Poissons Ratio (z) = 0.33308 0.02824
#
# Static dielectric constant tensor:
#      x y z
#    x 3.880860 0.000000 0.000000 
#    y 0.000000 4.514100 0.000000 
#    z 0.000000 0.000000 4.322380 
# 
# 
# High freq. dielectric constant tensor:
#      x y z
#    x 1.900810 0.000000 0.000000 
#    y 0.000000 1.939090 0.000000 
#    z 0.000000 0.000000 1.942510 
# 
# From -- ./inp_files/3340.got.cif
#   From: 2010.06.25/outbox.cif.g09.slc.cpg/sg43_2_cif.got.tgz:3340.got - 2010.06.26 16:48:59.
