data_PCOD8187527
_publ_section_title
;
Structure prediction by ZEFSAII (Michael W. Deem and Ramdas Pophale) SiO2 
 PCOD8187527
Probable space group: F D D 2
;
_chemical_formula_sum "Si O2"
_cell_formula_units_Z 80
_cell_length_a 22.567424
_cell_length_b 15.859223
_cell_length_c 9.246134
_cell_angle_alpha 90.000000
_cell_angle_beta 90.000000
_cell_angle_gamma 90.000000
_cell_volume 3309.208092
_symmetry_space_group_name_H-M "F D D 2"
_symmetry_group_IT_number 43
_symmetry_cell_setting 'orthorhombic'
loop_
_space_group_symop_operation_xyz
x,y,z
-x,-y,z
1/4-x,1/4+y,1/4+z
1/4+x,1/4-y,1/4+z
x,1/2+y,1/2+z
-x,1/2-y,1/2+z
1/4-x,3/4+y,3/4+z
1/4+x,3/4-y,3/4+z
1/2+x,y,1/2+z
1/2-x,-y,1/2+z
3/4-x,1/4+y,3/4+z
3/4+x,1/4-y,3/4+z
1/2+x,1/2+y,z
1/2-x,1/2-y,z
3/4-x,3/4+y,1/4+z
3/4+x,3/4-y,1/4+z
loop_
_atom_site_type_symbol
_atom_site_label
_atom_site_fract_x
_atom_site_fract_y
_atom_site_fract_z
Si Si1 0.250000 0.250000 0.016670
Si Si2 0.379094 0.240723 0.947875
Si Si3 0.220829 0.577475 0.653724
Si Si4 0.780770 0.926849 0.492027
Si Si5 0.603832 0.080408 0.497115
Si Si6 0.750000 0.250000 0.913776
O O1 0.258395 0.164011 0.114160
O O2 0.308979 0.259142 0.918231
O O3 0.404179 0.184375 0.816384
O O4 0.420925 0.325058 0.957848
O O5 0.386908 0.199443 0.103324
O O6 0.237679 0.493561 0.566905
O O7 0.153058 0.598813 0.617340
O O8 0.219768 0.556239 0.822430
O O9 0.758487 0.830977 0.516838
O O10 0.556931 0.013017 0.558992
#
# Coordination Sequence:
#
# PCOD8187527 Si02
#       6
#     8  16  16  16  16   8
#     4  10  23  48  77  96 133 186 229 276 347 412
#     4  11  23  43  71 101 135 180 229 280 341 407
#     4  11  24  45  71 101 137 180 227 282 340 405
#     4  12  25  44  69 102 139 181 229 279 337 406
#     4  11  23  45  70  97 136 183 227 276 340 408
#     4  12  25  44  71 102 139 184 229 278 339 404
#
# _framework density 24.174966999999999
#
# number of rings (size 3 to 8) (size 9 to 14) (size 15 to 20)
#    0.000    0.800    0.000    9.600    0.000    3.200 
#    0.000   16.000    0.000    0.000    0.000    0.000 
#    0.000    0.000    0.000    0.000    0.000    0.000 
#
# Total GULP energy -247953.390688 kJ/mol
# GULP energy per Si atom -12397.669534 kJ/mol
# Density = 2.411994 g / cm^3
# Si number density = 24.174967 Si / 1000 Ang^3
#
#
#
# Elastic Constant Matrix: (Units=GPa)
#
#
# Indices 1 2 3 4 5 6 
#
# 1 96.6692 56.0031 60.5619 0.0000 0.0000 0.0000
# 2 56.0031 207.7020 85.0716 0.0000 0.0000 0.0000
# 3 60.5619 85.0716 119.0586 0.0000 0.0000 0.0000
# 4 0.0000 0.0000 0.0000 40.9705 0.0000 0.0000
# 5 0.0000 0.0000 0.0000 0.0000 48.0979 0.0000
# 6 0.0000 0.0000 0.0000 0.0000 0.0000 48.3707
#
#
#
# Elastic Compliance Matrix: (Units=1/GPa)
#
#
# Indices 1 2 3 4 5 6 
#
# 1 0.015442 -0.001338 -0.006899 0.000000 0.000000 0.000000
# 2 -0.001338 0.006923 -0.004266 0.000000 0.000000 0.000000
# 3 -0.006899 -0.004266 0.014957 0.000000 0.000000 0.000000
# 4 0.000000 0.000000 0.000000 0.024408 0.000000 0.000000
# 5 0.000000 0.000000 0.000000 0.000000 0.020791 0.000000
# 6 0.000000 0.000000 0.000000 0.000000 0.000000 0.020674
#
#
# Mechanical properties :
#
#
# Convention : Reuss Voigt Hill
#
# Bulk Modulus (GPa) = 81.19731 91.85588 86.52660
# Shear Modulus (GPa) = 37.79193 42.27404 40.03298
#
# Velocity S-wave (km/s) = 3.95811 4.18625 4.07377
# Velocity P-wave (km/s) = 7.38573 7.83868 7.61558
#
# Compressibility (1/GPa) = 0.01231568
#
# Stress axis : x y z
#
# Youngs Moduli (GPa) = 64.76003 144.45514 66.86042
#
# Poissons Ratio (x) = 0.19327 0.46125
# Poissons Ratio (y) = 0.08664 0.28522
# Poissons Ratio (z) = 0.44676 0.61622
#
# Static dielectric constant tensor:
#      x y z
#    x 4.677090 0.000000 0.000000 
#    y 0.000000 4.716360 0.000000 
#    z 0.000000 0.000000 4.096700 
# 
# 
# High freq. dielectric constant tensor:
#      x y z
#    x 1.985350 0.000000 0.000000 
#    y 0.000000 1.980680 0.000000 
#    z 0.000000 0.000000 1.943960 
# 
# From -- ./inp_files/4177.got.cif
#   From: 2010.06.25/outbox.cif.g09.slc.cpg/sg43_3_cif.got.tgz:4177.got - 2010.06.26 16:48:59.
