data_PCOD8187379
_publ_section_title
;
Structure prediction by ZEFSAII (Michael W. Deem and Ramdas Pophale) SiO2 
 PCOD8187379
Probable space group: F D D 2
;
_chemical_formula_sum "Si O2"
_cell_formula_units_Z 72
_cell_length_a 21.461034
_cell_length_b 23.064188
_cell_length_c 7.241177
_cell_angle_alpha 90.000000
_cell_angle_beta 90.000000
_cell_angle_gamma 90.000000
_cell_volume 3584.247370
_symmetry_space_group_name_H-M "F D D 2"
_symmetry_group_IT_number 43
_symmetry_cell_setting 'orthorhombic'
loop_
_space_group_symop_operation_xyz
x,y,z
-x,-y,z
1/4-x,1/4+y,1/4+z
1/4+x,1/4-y,1/4+z
x,1/2+y,1/2+z
-x,1/2-y,1/2+z
1/4-x,3/4+y,3/4+z
1/4+x,3/4-y,3/4+z
1/2+x,y,1/2+z
1/2-x,-y,1/2+z
3/4-x,1/4+y,3/4+z
3/4+x,1/4-y,3/4+z
1/2+x,1/2+y,z
1/2-x,1/2-y,z
3/4-x,3/4+y,1/4+z
3/4+x,3/4-y,1/4+z
loop_
_atom_site_type_symbol
_atom_site_label
_atom_site_fract_x
_atom_site_fract_y
_atom_site_fract_z
Si Si1 0.461120 0.305435 0.989220
Si Si2 0.584763 0.248730 0.852938
Si Si3 0.637980 0.689787 0.701462
Si Si4 0.915458 0.918600 0.860744
Si Si5 0.750000 0.250000 0.368169
O O1 0.527881 0.277621 0.959988
O O2 0.409921 0.278860 0.845573
O O3 0.464251 0.375061 0.961209
O O4 0.439379 0.293938 0.195950
O O5 0.626254 0.299803 0.768703
O O6 0.623619 0.209160 0.993637
O O7 0.630300 0.619879 0.727641
O O8 0.709306 0.706939 0.742376
O O9 0.953554 0.963949 0.743378
#
# Coordination Sequence:
#
# PCOD8187379 Si02
#       5
#    16  16  16  16   8
#     4  10  22  41  66  95 130 171 222 274 329 409
#     4  12  21  45  68  95 132 179 219 279 344 395
#     4  10  25  40  66  97 129 180 217 275 338 390
#     4  10  23  42  68  99 133 172 227 277 333 410
#     4  12  22  48  64  96 142 170 222 286 324 406
#
# _framework density 20.087899
#
# number of rings (size 3 to 8) (size 9 to 14) (size 15 to 20)
#    1.333    0.000    4.444    1.333    0.000    2.667 
#    0.000    6.667    0.000    0.000    0.000    0.000 
#    0.000    0.000    0.000    0.000    0.000    0.000 
#
# Total GULP energy -223134.288249 kJ/mol
# GULP energy per Si atom -12396.349347 kJ/mol
# Density = 2.004218 g / cm^3
# Si number density = 20.087899 Si / 1000 Ang^3
#
#
#
# Elastic Constant Matrix: (Units=GPa)
#
#
# Indices 1 2 3 4 5 6 
#
# 1 82.7025 24.1755 35.2796 -0.0030 -0.0001 0.0011
# 2 24.1755 98.2870 42.0907 -0.0049 0.0017 -0.0003
# 3 35.2796 42.0907 125.4215 -0.0053 -0.0008 -0.0020
# 4 -0.0030 -0.0049 -0.0053 36.7556 0.0012 -0.0018
# 5 -0.0001 0.0017 -0.0008 0.0012 26.8396 0.0005
# 6 0.0011 -0.0003 -0.0020 -0.0018 0.0005 24.0888
#
#
#
# Elastic Compliance Matrix: (Units=1/GPa)
#
#
# Indices 1 2 3 4 5 6 
#
# 1 0.014090 -0.002065 -0.003270 0.000000 0.000000 -0.000001
# 2 -0.002065 0.012185 -0.003508 0.000001 -0.000001 0.000000
# 3 -0.003270 -0.003508 0.010070 0.000001 0.000001 0.000001
# 4 0.000000 0.000001 0.000001 0.027207 -0.000001 0.000002
# 5 0.000000 -0.000001 0.000001 -0.000001 0.037258 -0.000001
# 6 -0.000001 0.000000 0.000001 0.000002 -0.000001 0.041513
#
#
# Mechanical properties :
#
#
# Convention : Reuss Voigt Hill
#
# Bulk Modulus (GPa) = 53.59702 56.61137 55.10420
# Shear Modulus (GPa) = 30.07877 31.19449 30.63663
#
# Velocity S-wave (km/s) = 3.87377 3.94496 3.90953
# Velocity P-wave (km/s) = 6.83720 6.99952 6.91884
#
# Compressibility (1/GPa) = 0.01865775
#
# Stress axis : x y z
#
# Youngs Moduli (GPa) = 70.97068 82.07067 99.30148
#
# Poissons Ratio (x) = 0.16950 0.32475
# Poissons Ratio (y) = 0.14657 0.34836
# Poissons Ratio (z) = 0.23210 0.28792
#
# Static dielectric constant tensor:
#      x y z
#    x 3.654770 0.000000 0.000000 
#    y 0.000000 3.842810 0.000000 
#    z 0.000000 0.000000 3.527730 
# 
# 
# High freq. dielectric constant tensor:
#      x y z
#    x 1.784020 0.000000 0.000000 
#    y 0.000000 1.781470 0.000000 
#    z 0.000000 0.000000 1.782690 
# 
# From -- ./inp_files/1125.got.cif
#   From: 2010.06.25/outbox.cif.g09.slc.cpg/sg43_1_cif.got.tgz:1125.got - 2010.06.26 16:48:59.
