data_PCOD8187839
_publ_section_title
;
Structure prediction by ZEFSAII (Michael W. Deem and Ramdas Pophale) SiO2 
 PCOD8187839
Probable space group: F D D 2
;
_chemical_formula_sum "Si O2"
_cell_formula_units_Z 120
_cell_length_a 26.805749
_cell_length_b 22.263532
_cell_length_c 9.201384
_cell_angle_alpha 90.000000
_cell_angle_beta 90.000000
_cell_angle_gamma 90.000000
_cell_volume 5491.299944
_symmetry_space_group_name_H-M "F D D 2"
_symmetry_group_IT_number 43
_symmetry_cell_setting 'orthorhombic'
loop_
_space_group_symop_operation_xyz
x,y,z
-x,-y,z
1/4-x,1/4+y,1/4+z
1/4+x,1/4-y,1/4+z
x,1/2+y,1/2+z
-x,1/2-y,1/2+z
1/4-x,3/4+y,3/4+z
1/4+x,3/4-y,3/4+z
1/2+x,y,1/2+z
1/2-x,-y,1/2+z
3/4-x,1/4+y,3/4+z
3/4+x,1/4-y,3/4+z
1/2+x,1/2+y,z
1/2-x,1/2-y,z
3/4-x,3/4+y,1/4+z
3/4+x,3/4-y,1/4+z
loop_
_atom_site_type_symbol
_atom_site_label
_atom_site_fract_x
_atom_site_fract_y
_atom_site_fract_z
Si Si1 0.942458 0.909563 0.778010
Si Si2 0.797689 0.022418 0.940690
Si Si3 0.556953 0.228474 0.218859
Si Si4 0.292910 0.824850 0.068225
Si Si5 0.129307 0.999932 0.194919
Si Si6 0.250000 0.750000 0.318934
Si Si7 0.583421 0.807555 0.950228
Si Si8 0.450450 0.407372 0.111189
O O1 0.953643 0.842117 0.726148
O O2 0.883443 0.916707 0.768726
O O3 0.969881 0.954180 0.669029
O O4 0.960140 0.924446 0.942392
O O5 0.803961 0.086038 0.862410
O O6 0.743635 0.014241 0.011996
O O7 0.799261 0.967647 0.828106
O O8 0.843719 0.017907 0.048195
O O9 0.595843 0.251902 0.341154
O O10 0.577785 0.252419 0.066093
O O11 0.287583 0.786157 0.215033
O O12 0.302045 0.892798 0.113971
O O13 0.340689 0.802811 0.979709
O O14 0.244971 0.818943 0.963605
O O15 0.100312 0.063004 0.174026
#
# Coordination Sequence:
#
# PCOD8187839 Si02
#       8
#    16  16  16  16  16   8  16  16
#     4  12  28  48  74 108 154 196 248 314 372 449
#     4  12  27  46  74 105 149 194 248 308 372 449
#     4  12  26  49  75 107 146 197 253 306 372 440
#     4  12  26  48  78 106 151 196 248 314 372 453
#     4  12  27  46  76 109 146 195 249 306 376 449
#     4  12  28  46  74 108 146 196 248 304 374 442
#     4  12  25  48  72 107 145 195 247 309 373 444
#     4  12  27  48  73 110 152 196 250 310 382 443
#
# _framework density 21.852748999999999
#
# number of rings (size 3 to 8) (size 9 to 14) (size 15 to 20)
#    0.000    0.000    6.667    2.400    5.600    0.000 
#    2.400    0.000    0.000    0.000    0.000    0.000 
#    0.000    0.000    0.000    0.000    0.000    0.000 
#
# Total GULP energy -372060.433396 kJ/mol
# GULP energy per Si atom -12402.014447 kJ/mol
# Density = 2.180301 g / cm^3
# Si number density = 21.852749 Si / 1000 Ang^3
#
#
#
# Elastic Constant Matrix: (Units=GPa)
#
#
# Indices 1 2 3 4 5 6 
#
# 1 105.6120 56.1614 50.7856 0.0003 -0.0006 0.0000
# 2 56.1614 131.3204 62.8845 0.0005 0.0003 -0.0007
# 3 50.7856 62.8845 141.2412 0.0002 -0.0007 -0.0005
# 4 0.0003 0.0005 0.0002 38.7867 -0.0001 -0.0001
# 5 -0.0006 0.0003 -0.0007 -0.0001 40.2877 -0.0001
# 6 0.0000 -0.0007 -0.0005 -0.0001 -0.0001 37.2328
#
#
#
# Elastic Compliance Matrix: (Units=1/GPa)
#
#
# Indices 1 2 3 4 5 6 
#
# 1 0.013079 -0.004247 -0.002812 0.000000 0.000000 0.000000
# 2 -0.004247 0.011058 -0.003396 0.000000 0.000000 0.000000
# 3 -0.002812 -0.003396 0.009603 0.000000 0.000000 0.000000
# 4 0.000000 0.000000 0.000000 0.025782 0.000000 0.000000
# 5 0.000000 0.000000 0.000000 0.000000 0.024821 0.000000
# 6 0.000000 0.000000 0.000000 0.000000 0.000000 0.026858
#
#
# Mechanical properties :
#
#
# Convention : Reuss Voigt Hill
#
# Bulk Modulus (GPa) = 77.94283 79.75963 78.85123
# Shear Modulus (GPa) = 36.66008 37.15091 36.90549
#
# Velocity S-wave (km/s) = 4.10029 4.12765 4.11399
# Velocity P-wave (km/s) = 7.62635 7.70029 7.66341
#
# Compressibility (1/GPa) = 0.01282992
#
# Stress axis : x y z
#
# Youngs Moduli (GPa) = 76.45694 90.43633 104.13218
#
# Poissons Ratio (x) = 0.38408 0.29282
# Poissons Ratio (y) = 0.32471 0.35364
# Poissons Ratio (z) = 0.21499 0.30712
#
# Static dielectric constant tensor:
#      x y z
#    x 3.881430 0.000000 0.000000 
#    y 0.000000 4.050980 0.000000 
#    z 0.000000 0.000000 4.091210 
# 
# 
# High freq. dielectric constant tensor:
#      x y z
#    x 1.861770 0.000000 0.000000 
#    y 0.000000 1.873620 0.000000 
#    z 0.000000 0.000000 1.874210 
# 
# From -- ./inp_files/4324.got.cif
#   From: 2010.06.25/outbox.cif.g09.slc.cpg/sg43_3_cif.got.tgz:4324.got - 2010.06.26 16:48:59.
