data_PCOD8187745
_publ_section_title
;
Structure prediction by ZEFSAII (Michael W. Deem and Ramdas Pophale) SiO2 
 PCOD8187745
Probable space group: F D D 2
;
_chemical_formula_sum "Si O2"
_cell_formula_units_Z 64
_cell_length_a 22.561999
_cell_length_b 20.903588
_cell_length_c 4.997297
_cell_angle_alpha 90.000000
_cell_angle_beta 90.000000
_cell_angle_gamma 90.000000
_cell_volume 2356.858851
_symmetry_space_group_name_H-M "F D D 2"
_symmetry_group_IT_number 43
_symmetry_cell_setting 'orthorhombic'
loop_
_space_group_symop_operation_xyz
x,y,z
-x,-y,z
1/4-x,1/4+y,1/4+z
1/4+x,1/4-y,1/4+z
x,1/2+y,1/2+z
-x,1/2-y,1/2+z
1/4-x,3/4+y,3/4+z
1/4+x,3/4-y,3/4+z
1/2+x,y,1/2+z
1/2-x,-y,1/2+z
3/4-x,1/4+y,3/4+z
3/4+x,1/4-y,3/4+z
1/2+x,1/2+y,z
1/2-x,1/2-y,z
3/4-x,3/4+y,1/4+z
3/4+x,3/4-y,1/4+z
loop_
_atom_site_type_symbol
_atom_site_label
_atom_site_fract_x
_atom_site_fract_y
_atom_site_fract_z
Si Si1 0.261373 0.167606 0.023550
Si Si2 0.410589 0.435881 0.280455
Si Si3 0.227365 0.968867 0.650040
Si Si4 0.386569 0.552338 0.966808
O O1 0.307562 0.166253 0.260634
O O2 0.246119 0.092477 0.989792
O O3 0.202559 0.208295 0.095000
O O4 0.291117 0.196931 0.759645
O O5 0.369222 0.373857 0.342155
O O6 0.375731 0.502084 0.212499
O O7 0.157860 0.964690 0.725196
O O8 0.237033 0.024864 0.432087
#
# Coordination Sequence:
#
# PCOD8187745 Si02
#       4
#    16  16  16  16
#     4  11  26  46  70 109 151 196 257 313 377 460
#     4  11  27  46  73 109 148 200 257 312 381 463
#     4  11  24  46  76 112 152 200 260 316 380 465
#     4  11  26  48  77 108 157 206 250 323 391 448
#
# _framework density 27.154789000000001
#
# number of rings (size 3 to 8) (size 9 to 14) (size 15 to 20)
#    0.000    1.000    0.000    5.250    0.000   18.000 
#    0.000    2.500    0.000    0.000    0.000    0.000 
#    0.000    0.000    0.000    0.000    0.000    0.000 
#
# Total GULP energy -198400.500918 kJ/mol
# GULP energy per Si atom -12400.031307 kJ/mol
# Density = 2.709298 g / cm^3
# Si number density = 27.154789 Si / 1000 Ang^3
#
#
#
# Elastic Constant Matrix: (Units=GPa)
#
#
# Indices 1 2 3 4 5 6 
#
# 1 87.1048 24.8916 27.1276 -0.2163 -0.0165 0.1290
# 2 24.8916 198.6896 48.2768 0.3842 -0.1881 -0.6006
# 3 27.1276 48.2768 149.1560 0.1536 -0.0961 -0.2954
# 4 -0.2163 0.3842 0.1536 41.4098 -0.0634 -0.3271
# 5 -0.0165 -0.1881 -0.0961 -0.0634 49.6070 0.1505
# 6 0.1290 -0.6006 -0.2954 -0.3271 0.1505 49.1429
#
#
#
# Elastic Compliance Matrix: (Units=1/GPa)
#
#
# Indices 1 2 3 4 5 6 
#
# 1 0.012384 -0.001090 -0.001900 0.000081 -0.000003 -0.000057
# 2 -0.001090 0.005559 -0.001601 -0.000051 0.000017 0.000061
# 3 -0.001900 -0.001601 0.007568 -0.000023 0.000008 0.000031
# 4 0.000081 -0.000051 -0.000023 0.024151 0.000030 0.000160
# 5 -0.000003 0.000017 0.000008 0.000030 0.020159 -0.000061
# 6 -0.000057 0.000061 0.000031 0.000160 -0.000061 0.020351
#
#
# Mechanical properties :
#
#
# Convention : Reuss Voigt Hill
#
# Bulk Modulus (GPa) = 61.23855 70.61585 65.92720
# Shear Modulus (GPa) = 47.71167 50.34222 49.02694
#
# Velocity S-wave (km/s) = 4.19624 4.31036 4.25368
# Velocity P-wave (km/s) = 6.78811 7.12978 6.96104
#
# Compressibility (1/GPa) = 0.01632958
#
# Stress axis : x y z
#
# Youngs Moduli (GPa) = 80.75022 179.89517 132.13393
#
# Poissons Ratio (x) = 0.19612 0.25101
# Poissons Ratio (y) = 0.08803 0.21151
# Poissons Ratio (z) = 0.15340 0.28796
#
# Static dielectric constant tensor:
#      x y z
#    x 4.696700 0.000020 0.001490 
#    y 0.000020 5.538220 0.000890 
#    z 0.001490 0.000890 4.403250 
# 
# 
# High freq. dielectric constant tensor:
#      x y z
#    x 2.084240 0.000030 0.000050 
#    y 0.000030 2.123370 -0.000080 
#    z 0.000050 -0.000080 2.088770 
# 
# From -- ./inp_files/844.got.cif
#   From: 2010.06.25/outbox.cif.g09.slc.cpg/sg43_1_cif.got.tgz:844.got - 2010.06.26 16:48:59.
