data_PCOD8187046
_publ_section_title
;
Structure prediction by ZEFSAII (Michael W. Deem and Ramdas Pophale) SiO2 
 PCOD8187046
Probable space group: F D D 2
;
_chemical_formula_sum "Si O2"
_cell_formula_units_Z 128
_cell_length_a 26.671908
_cell_length_b 20.770935
_cell_length_c 11.378263
_cell_angle_alpha 90.000000
_cell_angle_beta 90.000000
_cell_angle_gamma 90.000000
_cell_volume 6303.563020
_symmetry_space_group_name_H-M "F D D 2"
_symmetry_group_IT_number 43
_symmetry_cell_setting 'orthorhombic'
loop_
_space_group_symop_operation_xyz
x,y,z
-x,-y,z
1/4-x,1/4+y,1/4+z
1/4+x,1/4-y,1/4+z
x,1/2+y,1/2+z
-x,1/2-y,1/2+z
1/4-x,3/4+y,3/4+z
1/4+x,3/4-y,3/4+z
1/2+x,y,1/2+z
1/2-x,-y,1/2+z
3/4-x,1/4+y,3/4+z
3/4+x,1/4-y,3/4+z
1/2+x,1/2+y,z
1/2-x,1/2-y,z
3/4-x,3/4+y,1/4+z
3/4+x,3/4-y,1/4+z
loop_
_atom_site_type_symbol
_atom_site_label
_atom_site_fract_x
_atom_site_fract_y
_atom_site_fract_z
Si Si1 0.102940 0.968460 0.593550
Si Si2 0.679663 0.176851 0.960535
Si Si3 0.100457 0.069796 0.185245
Si Si4 0.589215 0.094912 0.954048
Si Si5 0.767571 0.322440 0.201063
Si Si6 0.058911 0.998077 0.836283
Si Si7 0.684151 0.878372 0.202520
Si Si8 0.299272 0.878209 0.716318
O O1 0.065315 0.914995 0.536111
O O2 0.076765 0.001010 0.703720
O O3 0.154118 0.934807 0.635587
O O4 0.110945 0.025745 0.498883
O O5 0.675222 0.250433 0.917543
O O6 0.625089 0.151172 0.001683
O O7 0.701313 0.133870 0.855648
O O8 0.718323 0.166288 0.065889
O O9 0.087115 0.095753 0.313425
O O10 0.161744 0.065249 0.179322
O O11 0.078477 0.121034 0.090650
O O12 0.531786 0.112374 0.992134
O O13 0.750000 0.250000 0.216902
O O14 0.082387 0.060168 0.898646
O O15 0.074672 0.933279 0.902546
O O16 0.000000 0.000000 0.841878
O O17 0.742658 0.894719 0.178325
#
# Coordination Sequence:
#
# PCOD8187046 Si02
#       8
#    16  16  16  16  16  16  16  16
#     4  11  22  39  58  88 124 156 200 253 301 375
#     4  11  21  38  65  89 119 158 211 254 302 364
#     4  11  20  40  63  90 119 155 208 263 299 361
#     4  10  23  38  63  88 121 157 205 254 305 366
#     4  10  20  39  62  86 113 160 204 248 293 368
#     4  10  20  35  58  84 113 156 199 238 298 372
#     4  11  23  37  63  87 124 160 200 254 314 367
#     4  10  22  37  59  93 118 155 203 255 311 364
#
# _framework density 20.305976000000001
#
# number of rings (size 3 to 8) (size 9 to 14) (size 15 to 20)
#    0.000    1.500    5.000    1.875    1.750    0.000 
#    2.250    0.000    2.750    0.000    0.000    0.000 
#    0.000    0.000    0.000    0.000    0.000    0.000 
#
# Total GULP energy -396617.545574 kJ/mol
# GULP energy per Si atom -12394.298299 kJ/mol
# Density = 2.025976 g / cm^3
# Si number density = 20.305976 Si / 1000 Ang^3
#
#
#
# Elastic Constant Matrix: (Units=GPa)
#
#
# Indices 1 2 3 4 5 6 
#
# 1 183.5155 -3.0686 -15.5086 0.0000 0.0000 -0.0003
# 2 -3.0686 30.4884 9.6995 0.0000 0.0000 0.0000
# 3 -15.5086 9.6995 91.0991 0.0000 0.0000 -0.0001
# 4 0.0000 0.0000 0.0000 21.0819 0.0000 -0.0001
# 5 0.0000 0.0000 0.0000 0.0000 31.8169 0.0000
# 6 -0.0003 0.0000 -0.0001 -0.0001 0.0000 -128.3470
#
#
#
# Elastic Compliance Matrix: (Units=1/GPa)
#
#
# Indices 1 2 3 4 5 6 
#
# 1 0.005531 0.000266 0.000913 0.000000 0.000000 0.000000
# 2 0.000266 0.033962 -0.003571 0.000000 0.000000 0.000000
# 3 0.000913 -0.003571 0.011513 0.000000 0.000000 0.000000
# 4 0.000000 0.000000 0.000000 0.047434 0.000000 0.000000
# 5 0.000000 0.000000 0.000000 0.000000 0.031430 0.000000
# 6 0.000000 0.000000 0.000000 0.000000 0.000000 -0.007791
#
#
# Mechanical properties :
#
#
# Convention : Reuss Voigt Hill
#
# Bulk Modulus (GPa) = 21.63435 31.92753 26.78094
# Shear Modulus (GPa) = 35.14483 5.84240 20.49362
#
# Velocity S-wave (km/s) = 4.16476 1.69807 3.18030
# Velocity P-wave (km/s) = 5.81414 4.42741 5.16750
#
# Compressibility (1/GPa) = 0.04622279
#
# Stress axis : x y z
#
# Youngs Moduli (GPa) = 180.80717 29.44462 86.86056
#
# Poissons Ratio (x) = -0.00784 -0.07932
# Poissons Ratio (y) = -0.04812 0.31015
# Poissons Ratio (z) = -0.16512 0.10514
#
# Static dielectric constant tensor:
#      x y z
#    x 4.233800 0.000000 0.000000 
#    y 0.000000 3.585850 0.000000 
#    z 0.000000 0.000000 3.733980 
# 
# 
# High freq. dielectric constant tensor:
#      x y z
#    x 1.803140 0.000000 0.000000 
#    y 0.000000 1.752150 0.000000 
#    z 0.000000 0.000000 1.803580 
# 
# From -- ./inp_files/7678.got.cif
#   From: 2010.06.25/outbox.cif.g09.slc.cpg/sg43_4_cif.got.tgz:7678.got - 2010.06.26 16:48:59.
