data_PCOD8187000
_publ_section_title
;
Structure prediction by ZEFSAII (Michael W. Deem and Ramdas Pophale) SiO2 
 PCOD8187000
Probable space group: F D D 2
;
_chemical_formula_sum "Si O2"
_cell_formula_units_Z 96
_cell_length_a 9.458722
_cell_length_b 23.584195
_cell_length_c 21.869504
_cell_angle_alpha 90.000000
_cell_angle_beta 90.000000
_cell_angle_gamma 90.000000
_cell_volume 4878.569000
_symmetry_space_group_name_H-M "F D D 2"
_symmetry_group_IT_number 43
_symmetry_cell_setting 'orthorhombic'
loop_
_space_group_symop_operation_xyz
x,y,z
-x,-y,z
1/4-x,1/4+y,1/4+z
1/4+x,1/4-y,1/4+z
x,1/2+y,1/2+z
-x,1/2-y,1/2+z
1/4-x,3/4+y,3/4+z
1/4+x,3/4-y,3/4+z
1/2+x,y,1/2+z
1/2-x,-y,1/2+z
3/4-x,1/4+y,3/4+z
3/4+x,1/4-y,3/4+z
1/2+x,1/2+y,z
1/2-x,1/2-y,z
3/4-x,3/4+y,1/4+z
3/4+x,3/4-y,1/4+z
loop_
_atom_site_type_symbol
_atom_site_label
_atom_site_fract_x
_atom_site_fract_y
_atom_site_fract_z
Si Si1 0.361459 0.300924 0.762870
Si Si2 0.135227 0.037238 0.927163
Si Si3 0.383830 0.286910 0.582695
Si Si4 0.667552 0.610039 0.661796
Si Si5 0.637592 0.414659 0.650525
Si Si6 0.407785 0.760743 0.941998
O O1 0.250000 0.250000 0.768476
O O2 0.511138 0.280913 0.735151
O O3 0.296408 0.349586 0.719186
O O4 0.397730 0.326458 0.828297
O O5 0.225126 0.016823 0.868030
O O6 0.074599 0.100265 0.917437
O O7 0.000000 0.000000 0.939175
O O8 0.250000 0.250000 0.604445
O O9 0.350906 0.352416 0.600408
O O10 0.411391 0.281228 0.511549
O O11 0.522805 0.574680 0.673600
O O12 0.787108 0.563043 0.651016
O O13 0.746847 0.455079 0.685592
O O14 0.250000 0.750000 0.918878
#
# Coordination Sequence:
#
# PCOD8187000 Si02
#       6
#    16  16  16  16  16  16
#     4  10  20  37  60  84 114 155 192 225 278 343
#     4  10  22  38  60  88 113 147 191 237 285 328
#     4   9  20  38  58  82 112 151 192 228 280 342
#     4  10  19  37  59  82 112 154 193 228 275 343
#     4  10  22  38  57  83 115 152 190 229 284 343
#     4  11  23  36  56  87 115 145 190 241 287 325
#
# _framework density 19.677900999999999
#
# number of rings (size 3 to 8) (size 9 to 14) (size 15 to 20)
#    0.000    2.333    0.000    5.500    0.000    7.333 
#    0.000    5.000    0.000    0.000    0.000    0.000 
#    0.000    0.000    0.000    0.000    0.000    0.000 
#
# Total GULP energy -297523.603298 kJ/mol
# GULP energy per Si atom -12396.816804 kJ/mol
# Density = 1.963311 g / cm^3
# Si number density = 19.677901 Si / 1000 Ang^3
#
#
#
# Elastic Constant Matrix: (Units=GPa)
#
#
# Indices 1 2 3 4 5 6 
#
# 1 138.8525 95.1359 31.0501 0.0000 0.0000 0.0000
# 2 95.1359 125.6396 44.8012 0.0000 0.0000 0.0000
# 3 31.0501 44.8012 88.1914 0.0000 0.0000 0.0000
# 4 0.0000 0.0000 0.0000 12.5413 0.0000 0.0000
# 5 0.0000 0.0000 0.0000 0.0000 17.6401 0.0000
# 6 0.0000 0.0000 0.0000 0.0000 0.0000 48.2989
#
#
#
# Elastic Compliance Matrix: (Units=1/GPa)
#
#
# Indices 1 2 3 4 5 6 
#
# 1 0.014993 -0.011565 0.000597 0.000000 0.000000 0.000000
# 2 -0.011565 0.018641 -0.005398 0.000000 0.000000 0.000000
# 3 0.000597 -0.005398 0.013871 0.000000 0.000000 0.000000
# 4 0.000000 0.000000 0.000000 0.079736 0.000000 0.000000
# 5 0.000000 0.000000 0.000000 0.000000 0.056689 0.000000
# 6 0.000000 0.000000 0.000000 0.000000 0.000000 0.020704
#
#
# Mechanical properties :
#
#
# Convention : Reuss Voigt Hill
#
# Bulk Modulus (GPa) = 67.69648 77.18424 72.44036
# Shear Modulus (GPa) = 20.63625 27.80914 24.22270
#
# Velocity S-wave (km/s) = 3.24188 3.76336 3.51231
# Velocity P-wave (km/s) = 6.96348 7.62842 7.30352
#
# Compressibility (1/GPa) = 0.01477182
#
# Stress axis : x y z
#
# Youngs Moduli (GPa) = 66.70001 53.64377 72.09232
#
# Poissons Ratio (x) = 0.62040 -0.04301
# Poissons Ratio (y) = 0.77140 0.38916
# Poissons Ratio (z) = -0.03980 0.28957
#
# Static dielectric constant tensor:
#      x y z
#    x 3.666810 0.000000 0.000000 
#    y 0.000000 3.681830 0.000000 
#    z 0.000000 0.000000 3.482400 
# 
# 
# High freq. dielectric constant tensor:
#      x y z
#    x 1.767040 0.000000 0.000000 
#    y 0.000000 1.772020 0.000000 
#    z 0.000000 0.000000 1.762150 
# 
# From -- ./inp_files/18821.got.cif
#   From: 2010.06.25/outbox.cif.g09.slc.cpg/sg43_10_cif.got.tgz:18821.got - 2010.06.26 16:48:59.
