data_PCOD8187636
_publ_section_title
;
Structure prediction by ZEFSAII (Michael W. Deem and Ramdas Pophale) SiO2 
 PCOD8187636
Probable space group: F D D 2
;
_chemical_formula_sum "Si O2"
_cell_formula_units_Z 120
_cell_length_a 24.726923
_cell_length_b 9.459814
_cell_length_c 26.452436
_cell_angle_alpha 90.000000
_cell_angle_beta 90.000000
_cell_angle_gamma 90.000000
_cell_volume 6187.544653
_symmetry_space_group_name_H-M "F D D 2"
_symmetry_group_IT_number 43
_symmetry_cell_setting 'orthorhombic'
loop_
_space_group_symop_operation_xyz
x,y,z
-x,-y,z
1/4-x,1/4+y,1/4+z
1/4+x,1/4-y,1/4+z
x,1/2+y,1/2+z
-x,1/2-y,1/2+z
1/4-x,3/4+y,3/4+z
1/4+x,3/4-y,3/4+z
1/2+x,y,1/2+z
1/2-x,-y,1/2+z
3/4-x,1/4+y,3/4+z
3/4+x,1/4-y,3/4+z
1/2+x,1/2+y,z
1/2-x,1/2-y,z
3/4-x,3/4+y,1/4+z
3/4+x,3/4-y,1/4+z
loop_
_atom_site_type_symbol
_atom_site_label
_atom_site_fract_x
_atom_site_fract_y
_atom_site_fract_z
Si Si1 0.639070 0.683964 0.148730
Si Si2 0.812038 0.589568 0.310534
Si Si3 0.027099 0.696549 0.888608
Si Si4 0.075061 0.222767 0.946807
Si Si5 0.376333 0.997455 0.916257
Si Si6 0.395241 0.509821 0.237531
Si Si7 0.311464 0.423961 0.317941
Si Si8 0.750000 0.250000 0.054757
O O1 0.599115 0.729424 0.103692
O O2 0.686448 0.583599 0.126824
O O3 0.605361 0.602518 0.191862
O O4 0.665256 0.824224 0.170323
O O5 0.832919 0.539333 0.256464
O O6 0.751201 0.534549 0.317881
O O7 0.817996 0.756901 0.314730
O O8 0.064449 0.565493 0.905182
O O9 0.995638 0.643428 0.838386
O O10 0.986004 0.731945 0.933646
O O11 0.118483 0.336997 0.927784
O O12 0.351338 0.917252 0.964659
O O13 0.337015 0.981745 0.869041
O O14 0.340637 0.494885 0.270036
O O15 0.447219 0.482443 0.271141
#
# Coordination Sequence:
#
# PCOD8187636 Si02
#       8
#    16  16  16  16  16  16  16   8
#     4  11  24  40  63  94 134 167 216 259 324 388
#     4  11  23  38  67  96 124 172 214 260 318 391
#     4  11  21  42  64  95 124 167 211 272 311 389
#     4  12  24  41  65  96 131 169 214 269 327 372
#     4  11  23  41  62  92 131 161 217 269 317 383
#     4  11  22  39  66  94 123 171 211 266 320 383
#     4  11  21  41  66  93 126 166 219 262 314 389
#     4  12  22  38  74  96 126 162 224 264 332 378
#
# _framework density 19.393799999999999
#
# number of rings (size 3 to 8) (size 9 to 14) (size 15 to 20)
#    0.000    0.800    6.667    2.000    3.733    2.133 
#    0.000    2.000    0.000    0.000    0.000    0.000 
#    0.000    0.000    0.000    0.000    0.000    0.000 
#
# Total GULP energy -372116.286466 kJ/mol
# GULP energy per Si atom -12403.876216 kJ/mol
# Density = 1.934966 g / cm^3
# Si number density = 19.393800 Si / 1000 Ang^3
#
#
#
# Elastic Constant Matrix: (Units=GPa)
#
#
# Indices 1 2 3 4 5 6 
#
# 1 83.6529 36.2415 66.1749 0.0000 0.0000 0.0000
# 2 36.2415 105.9086 45.0867 0.0000 0.0000 0.0000
# 3 66.1749 45.0867 146.3188 0.0000 0.0000 0.0000
# 4 0.0000 0.0000 0.0000 26.1447 0.0000 0.0000
# 5 0.0000 0.0000 0.0000 0.0000 32.4153 0.0000
# 6 0.0000 0.0000 0.0000 0.0000 0.0000 14.6251
#
#
#
# Elastic Compliance Matrix: (Units=1/GPa)
#
#
# Indices 1 2 3 4 5 6 
#
# 1 0.019610 -0.003378 -0.007828 0.000000 0.000000 0.000000
# 2 -0.003378 0.011450 -0.002000 0.000000 0.000000 0.000000
# 3 -0.007828 -0.002000 0.010991 0.000000 0.000000 0.000000
# 4 0.000000 0.000000 0.000000 0.038249 0.000000 0.000000
# 5 0.000000 0.000000 0.000000 0.000000 0.030850 0.000000
# 6 0.000000 0.000000 0.000000 0.000000 0.000000 0.068376
#
#
# Mechanical properties :
#
#
# Convention : Reuss Voigt Hill
#
# Bulk Modulus (GPa) = 63.94648 70.09847 67.02248
# Shear Modulus (GPa) = 23.67980 27.19551 25.43765
#
# Velocity S-wave (km/s) = 3.49807 3.74876 3.62558
# Velocity P-wave (km/s) = 7.02563 7.41356 7.22220
#
# Compressibility (1/GPa) = 0.01563808
#
# Stress axis : x y z
#
# Youngs Moduli (GPa) = 50.99395 87.33927 90.98226
#
# Poissons Ratio (x) = 0.29503 0.71222
# Poissons Ratio (y) = 0.17226 0.18200
# Poissons Ratio (z) = 0.39919 0.17471
#
# Static dielectric constant tensor:
#      x y z
#    x 3.619970 0.000000 0.000000 
#    y 0.000000 3.574140 0.000000 
#    z 0.000000 0.000000 3.723540 
# 
# 
# High freq. dielectric constant tensor:
#      x y z
#    x 1.754800 0.000000 0.000000 
#    y 0.000000 1.745700 0.000000 
#    z 0.000000 0.000000 1.767000 
# 
# From -- ./inp_files/20537.got.cif
#   From: 2010.06.25/outbox.cif.g09.slc.cpg/sg43_11_cif.got.tgz:20537.got - 2010.06.26 16:48:59.
