data_PCOD8187666
_publ_section_title
;
Structure prediction by ZEFSAII (Michael W. Deem and Ramdas Pophale) SiO2 
 PCOD8187666
Probable space group: F D D 2
;
_chemical_formula_sum "Si O2"
_cell_formula_units_Z 112
_cell_length_a 12.621533
_cell_length_b 27.959641
_cell_length_c 14.468320
_cell_angle_alpha 90.000000
_cell_angle_beta 90.000000
_cell_angle_gamma 90.000000
_cell_volume 5105.776540
_symmetry_space_group_name_H-M "F D D 2"
_symmetry_group_IT_number 43
_symmetry_cell_setting 'orthorhombic'
loop_
_space_group_symop_operation_xyz
x,y,z
-x,-y,z
1/4-x,1/4+y,1/4+z
1/4+x,1/4-y,1/4+z
x,1/2+y,1/2+z
-x,1/2-y,1/2+z
1/4-x,3/4+y,3/4+z
1/4+x,3/4-y,3/4+z
1/2+x,y,1/2+z
1/2-x,-y,1/2+z
3/4-x,1/4+y,3/4+z
3/4+x,1/4-y,3/4+z
1/2+x,1/2+y,z
1/2-x,1/2-y,z
3/4-x,3/4+y,1/4+z
3/4+x,3/4-y,1/4+z
loop_
_atom_site_type_symbol
_atom_site_label
_atom_site_fract_x
_atom_site_fract_y
_atom_site_fract_z
Si Si1 0.878989 0.675131 0.793690
Si Si2 0.168139 0.944855 0.744309
Si Si3 0.000000 0.000000 0.650072
Si Si4 0.000000 0.000000 0.261109
Si Si5 0.893917 0.720241 0.367923
Si Si6 0.330792 0.535624 0.948442
Si Si7 0.267123 0.350679 0.295801
Si Si8 0.726811 0.848686 0.621225
O O1 0.844365 0.723519 0.845417
O O2 0.779495 0.658951 0.731556
O O3 0.976781 0.685948 0.726809
O O4 0.919327 0.631741 0.858348
O O5 0.245125 0.954799 0.658749
O O6 0.185172 0.975379 0.839528
O O7 0.180555 0.888618 0.760978
O O8 0.050672 0.957796 0.711174
O O9 0.100957 0.991120 0.192794
O O10 0.013104 0.047103 0.323178
O O11 0.907498 0.738964 0.263223
O O12 0.802792 0.679365 0.369145
O O13 0.437060 0.567588 0.963144
O O14 0.367585 0.375779 0.342440
#
# Coordination Sequence:
#
# PCOD8187666 Si02
#       8
#    16  16   8   8  16  16  16  16
#     4  11  24  48  69 104 144 184 238 294 352 427
#     4  12  26  45  67  99 140 186 226 289 355 414
#     4  12  29  49  66 100 156 190 222 294 368 428
#     4  12  21  39  72 112 134 180 240 302 356 412
#     4  12  23  42  71 103 137 183 237 292 345 423
#     4  11  23  42  74 103 134 180 233 290 351 417
#     4  11  22  42  71 105 131 175 241 295 337 412
#     4  11  24  41  76 104 139 186 239 298 353 417
#
# _framework density 21.935938
#
# number of rings (size 3 to 8) (size 9 to 14) (size 15 to 20)
#    0.000    0.571    5.714    2.143    4.000    0.000 
#    5.143    0.000    0.000    0.000    0.000    0.000 
#    0.000    0.000    0.000    0.000    0.000    0.000 
#
# Total GULP energy -346959.316002 kJ/mol
# GULP energy per Si atom -12391.404143 kJ/mol
# Density = 2.188601 g / cm^3
# Si number density = 21.935938 Si / 1000 Ang^3
#
#
#
# Elastic Constant Matrix: (Units=GPa)
#
#
# Indices 1 2 3 4 5 6 
#
# 1 89.4381 45.6320 44.2425 0.0000 0.0000 0.0000
# 2 45.6320 110.6699 52.8074 0.0000 0.0000 0.0000
# 3 44.2425 52.8074 109.2479 0.0000 0.0000 0.0000
# 4 0.0000 0.0000 0.0000 26.8581 0.0000 0.0000
# 5 0.0000 0.0000 0.0000 0.0000 33.9204 0.0000
# 6 0.0000 0.0000 0.0000 0.0000 0.0000 35.4628
#
#
#
# Elastic Compliance Matrix: (Units=1/GPa)
#
#
# Indices 1 2 3 4 5 6 
#
# 1 0.015476 -0.004407 -0.004137 0.000000 0.000000 0.000000
# 2 -0.004407 0.013000 -0.004499 0.000000 0.000000 0.000000
# 3 -0.004137 -0.004499 0.013004 0.000000 0.000000 0.000000
# 4 0.000000 0.000000 0.000000 0.037233 0.000000 0.000000
# 5 0.000000 0.000000 0.000000 0.000000 0.029481 0.000000
# 6 0.000000 0.000000 0.000000 0.000000 0.000000 0.028199
#
#
# Mechanical properties :
#
#
# Convention : Reuss Voigt Hill
#
# Bulk Modulus (GPa) = 64.96449 66.07994 65.52222
# Shear Modulus (GPa) = 29.83140 30.35986 30.09563
#
# Velocity S-wave (km/s) = 3.69173 3.72428 3.70804
# Velocity P-wave (km/s) = 6.91749 6.97733 6.94747
#
# Compressibility (1/GPa) = 0.01539303
#
# Stress axis : x y z
#
# Youngs Moduli (GPa) = 64.61644 76.92447 76.90191
#
# Poissons Ratio (x) = 0.33901 0.31815
# Poissons Ratio (y) = 0.28477 0.34598
# Poissons Ratio (z) = 0.26732 0.34608
#
# Static dielectric constant tensor:
#      x y z
#    x 4.001190 0.000000 0.000000 
#    y 0.000000 4.063140 0.000000 
#    z 0.000000 0.000000 4.015560 
# 
# 
# High freq. dielectric constant tensor:
#      x y z
#    x 1.858370 0.000000 0.000000 
#    y 0.000000 1.858650 0.000000 
#    z 0.000000 0.000000 1.858890 
# 
# From -- ./inp_files/9802.got.cif
#   From: 2010.06.25/outbox.cif.g09.slc.cpg/sg43_5_cif.got.tgz:9802.got - 2010.06.26 16:48:59.
