data_PCOD8187960
_publ_section_title
;
Structure prediction by ZEFSAII (Michael W. Deem and Ramdas Pophale) SiO2 
 PCOD8187960
Probable space group: I M M 2
;
_chemical_formula_sum "Si O2"
_cell_formula_units_Z 48
_cell_length_a 20.666343
_cell_length_b 11.711784
_cell_length_c 12.200845
_cell_angle_alpha 90.000000
_cell_angle_beta 90.000000
_cell_angle_gamma 90.000000
_cell_volume 2953.089416
_symmetry_space_group_name_H-M "I M M 2"
_symmetry_group_IT_number 44
_symmetry_cell_setting 'orthorhombic'
loop_
_space_group_symop_operation_xyz
x,y,z
-x,-y,z
-x,y,z
x,-y,z
1/2+x,1/2+y,1/2+z
1/2-x,1/2-y,1/2+z
1/2-x,1/2+y,1/2+z
1/2+x,1/2-y,1/2+z
loop_
_atom_site_type_symbol
_atom_site_label
_atom_site_fract_x
_atom_site_fract_y
_atom_site_fract_z
Si Si1 0.151161 0.719435 0.516070
Si Si2 0.575846 0.000000 0.971695
Si Si3 0.671330 0.632541 0.823766
Si Si4 0.835307 0.694541 0.139160
Si Si5 0.218227 0.758535 0.920654
Si Si6 0.806248 0.128234 0.705606
Si Si7 0.423847 0.000000 0.717412
O O1 0.104125 0.612399 0.529647
O O2 0.127904 0.804398 0.417569
O O3 0.224097 0.675329 0.486676
O O4 0.151449 0.788007 0.630178
O O5 0.500000 0.000000 0.990350
O O6 0.595629 0.000000 0.844804
O O7 0.654189 0.500000 0.819111
O O8 0.655742 0.687537 0.705784
O O9 0.747357 0.651961 0.856306
O O10 0.769530 0.632900 0.176434
O O11 0.895575 0.612923 0.161775
O O12 0.834666 0.717484 0.008694
O O13 0.183291 0.839709 0.832933
O O14 0.831166 0.000000 0.686409
O O15 0.500000 0.000000 0.699610
#
# Coordination Sequence:
#
# PCOD8187960 Si02
#       7
#     8   4   8   8   8   8   4
#     4   9  19  30  47  78  97 135 167 211 251 307
#     4  11  20  36  55  73 107 141 171 215 252 306
#     4   9  17  28  44  70 100 128 159 209 262 299
#     4  10  18  31  47  72 106 131 169 210 257 305
#     4   8  19  28  46  76  99 135 161 207 253 316
#     4  10  17  31  52  73 105 137 163 209 260 315
#     4  11  20  32  55  75  99 139 179 209 250 310
#
# _framework density 16.254163999999999
#
# number of rings (size 3 to 8) (size 9 to 14) (size 15 to 20)
#    1.000    1.500    2.500    0.500    2.333    0.667 
#   12.000    0.000    0.000    5.500    0.000    0.000 
#    0.000    0.000    0.000    0.000    0.000    0.000 
#
# Total GULP energy -297442.211980 kJ/mol
# GULP energy per Si atom -12393.425499 kJ/mol
# Density = 1.621717 g / cm^3
# Si number density = 16.254164 Si / 1000 Ang^3
#
#
#
# Elastic Constant Matrix: (Units=GPa)
#
#
# Indices 1 2 3 4 5 6 
#
# 1 49.2113 38.8940 28.2471 0.0000 0.0000 0.0000
# 2 38.8940 138.6361 56.6160 0.0000 0.0000 0.0000
# 3 28.2471 56.6160 119.8895 0.0000 0.0000 0.0000
# 4 0.0000 0.0000 0.0000 19.2076 0.0000 0.0000
# 5 0.0000 0.0000 0.0000 0.0000 15.5177 0.0000
# 6 0.0000 0.0000 0.0000 0.0000 0.0000 16.3680
#
#
#
# Elastic Compliance Matrix: (Units=1/GPa)
#
#
# Indices 1 2 3 4 5 6 
#
# 1 0.027233 -0.006219 -0.003479 0.000000 0.000000 0.000000
# 2 -0.006219 0.010357 -0.003426 0.000000 0.000000 0.000000
# 3 -0.003479 -0.003426 0.010778 0.000000 0.000000 0.000000
# 4 0.000000 0.000000 0.000000 0.052063 0.000000 0.000000
# 5 0.000000 0.000000 0.000000 0.000000 0.064442 0.000000
# 6 0.000000 0.000000 0.000000 0.000000 0.000000 0.061095
#
#
# Mechanical properties :
#
#
# Convention : Reuss Voigt Hill
#
# Bulk Modulus (GPa) = 45.20806 61.69456 53.45131
# Shear Modulus (GPa) = 19.26113 22.48399 20.87256
#
# Velocity S-wave (km/s) = 3.44611 3.72328 3.58737
# Velocity P-wave (km/s) = 6.61119 7.51813 7.07920
#
# Compressibility (1/GPa) = 0.02211995
#
# Stress axis : x y z
#
# Youngs Moduli (GPa) = 36.72004 96.55457 92.77757
#
# Poissons Ratio (x) = 0.60050 0.32281
# Poissons Ratio (y) = 0.22837 0.31781
# Poissons Ratio (z) = 0.12776 0.33075
#
# Static dielectric constant tensor:
#      x y z
#    x 2.556310 0.000000 0.000000 
#    y 0.000000 2.878720 0.000000 
#    z 0.000000 0.000000 3.159050 
# 
# 
# High freq. dielectric constant tensor:
#      x y z
#    x 1.561460 0.000000 0.000000 
#    y 0.000000 1.620260 0.000000 
#    z 0.000000 0.000000 1.629350 
# 
# From -- ./inp_files/14277.got.cif
#   From: 2010.03.12/outbox.cif.g09.slc.cpg/sg44_8_cif.got.tgz:14277.got - 2010.04.14 02:36:11.
