data_PCOD8187586
_publ_section_title
;
Structure prediction by ZEFSAII (Michael W. Deem and Ramdas Pophale) SiO2 
 PCOD8187586
Probable space group: F D D 2
;
_chemical_formula_sum "Si O2"
_cell_formula_units_Z 104
_cell_length_a 26.735211
_cell_length_b 19.009368
_cell_length_c 8.114071
_cell_angle_alpha 90.000000
_cell_angle_beta 90.000000
_cell_angle_gamma 90.000000
_cell_volume 4123.728818
_symmetry_space_group_name_H-M "F D D 2"
_symmetry_group_IT_number 43
_symmetry_cell_setting 'orthorhombic'
loop_
_space_group_symop_operation_xyz
x,y,z
-x,-y,z
1/4-x,1/4+y,1/4+z
1/4+x,1/4-y,1/4+z
x,1/2+y,1/2+z
-x,1/2-y,1/2+z
1/4-x,3/4+y,3/4+z
1/4+x,3/4-y,3/4+z
1/2+x,y,1/2+z
1/2-x,-y,1/2+z
3/4-x,1/4+y,3/4+z
3/4+x,1/4-y,3/4+z
1/2+x,1/2+y,z
1/2-x,1/2-y,z
3/4-x,3/4+y,1/4+z
3/4+x,3/4-y,1/4+z
loop_
_atom_site_type_symbol
_atom_site_label
_atom_site_fract_x
_atom_site_fract_y
_atom_site_fract_z
Si Si1 0.846767 0.294521 0.962010
Si Si2 0.484645 0.748407 0.216237
Si Si3 0.839176 0.918599 0.239944
Si Si4 0.242133 0.148778 0.025976
Si Si5 0.172578 0.014885 0.775853
Si Si6 0.155329 0.671286 0.334291
Si Si7 0.750000 0.750000 0.293070
O O1 0.866334 0.365831 0.871871
O O2 0.788965 0.288226 0.910541
O O3 0.872263 0.222087 0.902114
O O4 0.855744 0.295225 0.156795
O O5 0.454296 0.715787 0.067676
O O6 0.474177 0.833136 0.221170
O O7 0.464769 0.715636 0.386854
O O8 0.544311 0.735661 0.181810
O O9 0.812460 0.873766 0.100345
O O10 0.272879 0.192819 0.162417
O O11 0.214713 0.189562 0.873986
O O12 0.145094 0.087425 0.821638
O O13 0.132788 0.957350 0.715086
#
# Coordination Sequence:
#
# PCOD8187586 Si02
#       7
#    16  16  16  16  16  16   8
#     4  11  23  47  69 101 141 183 238 298 361 435
#     4  11  21  42  71 101 135 186 235 293 352 440
#     4  11  23  45  67 102 137 181 235 291 361 431
#     4  10  25  44  67 104 139 183 238 288 371 426
#     4  11  24  43  72 102 144 186 245 294 369 434
#     4  11  23  44  69 105 139 187 240 298 359 440
#     4  10  26  48  66 102 148 180 232 300 358 428
#
# _framework density 25.219894
#
# number of rings (size 3 to 8) (size 9 to 14) (size 15 to 20)
#    0.000    1.231    4.615    0.000    0.000    8.000 
#   13.846    0.000    0.000    0.000    0.000    0.000 
#    0.000    0.000    0.000    0.000    0.000    0.000 
#
# Total GULP energy -322133.316983 kJ/mol
# GULP energy per Si atom -12389.742961 kJ/mol
# Density = 2.516249 g / cm^3
# Si number density = 25.219894 Si / 1000 Ang^3
#
#
#
# Elastic Constant Matrix: (Units=GPa)
#
#
# Indices 1 2 3 4 5 6 
#
# 1 46.2657 49.1219 12.2568 -0.0001 -0.0001 0.0000
# 2 49.1219 136.3789 30.2069 -0.0001 0.0002 0.0000
# 3 12.2568 30.2069 41.1847 -0.0004 0.0007 0.0001
# 4 -0.0001 -0.0001 -0.0004 39.1321 0.0004 0.0001
# 5 -0.0001 0.0002 0.0007 0.0004 43.1997 0.0000
# 6 0.0000 0.0000 0.0001 0.0001 0.0000 51.8355
#
#
#
# Elastic Compliance Matrix: (Units=1/GPa)
#
#
# Indices 1 2 3 4 5 6 
#
# 1 0.035066 -0.012320 -0.001400 0.000000 0.000000 0.000000
# 2 -0.012320 0.013083 -0.005929 0.000000 0.000000 0.000000
# 3 -0.001400 -0.005929 0.029046 0.000000 0.000000 0.000000
# 4 0.000000 0.000000 0.000000 0.025554 0.000000 0.000000
# 5 0.000000 0.000000 0.000000 0.000000 0.023148 0.000000
# 6 0.000000 0.000000 0.000000 0.000000 0.000000 0.019292
#
#
# Mechanical properties :
#
#
# Convention : Reuss Voigt Hill
#
# Bulk Modulus (GPa) = 26.38721 45.22229 35.80475
# Shear Modulus (GPa) = 25.36509 35.64970 30.50739
#
# Velocity S-wave (km/s) = 3.17481 3.76381 3.48178
# Velocity P-wave (km/s) = 4.89130 6.07111 5.51286
#
# Compressibility (1/GPa) = 0.03789714
#
# Stress axis : x y z
#
# Youngs Moduli (GPa) = 28.51766 76.43239 34.42777
#
# Poissons Ratio (x) = 0.94167 0.04818
# Poissons Ratio (y) = 0.35135 0.20414
# Poissons Ratio (z) = 0.03991 0.45320
#
# Static dielectric constant tensor:
#      x y z
#    x 4.229550 0.000000 0.000000 
#    y 0.000000 4.702180 0.000000 
#    z 0.000000 0.000000 4.878640 
# 
# 
# High freq. dielectric constant tensor:
#      x y z
#    x 1.980720 0.000000 0.000000 
#    y 0.000000 2.006940 0.000000 
#    z 0.000000 0.000000 2.023420 
# 
# From -- ./inp_files/4268.got.cif
#   From: 2010.06.25/outbox.cif.g09.slc.cpg/sg43_3_cif.got.tgz:4268.got - 2010.06.26 16:48:59.
