data_PCOD8187010
_publ_section_title
;
Structure prediction by ZEFSAII (Michael W. Deem and Ramdas Pophale) SiO2 
 PCOD8187010
Probable space group: F D D 2
;
_chemical_formula_sum "Si O2"
_cell_formula_units_Z 128
_cell_length_a 10.844375
_cell_length_b 21.546375
_cell_length_c 27.223983
_cell_angle_alpha 90.000000
_cell_angle_beta 90.000000
_cell_angle_gamma 90.000000
_cell_volume 6361.073390
_symmetry_space_group_name_H-M "F D D 2"
_symmetry_group_IT_number 43
_symmetry_cell_setting 'orthorhombic'
loop_
_space_group_symop_operation_xyz
x,y,z
-x,-y,z
1/4-x,1/4+y,1/4+z
1/4+x,1/4-y,1/4+z
x,1/2+y,1/2+z
-x,1/2-y,1/2+z
1/4-x,3/4+y,3/4+z
1/4+x,3/4-y,3/4+z
1/2+x,y,1/2+z
1/2-x,-y,1/2+z
3/4-x,1/4+y,3/4+z
3/4+x,1/4-y,3/4+z
1/2+x,1/2+y,z
1/2-x,1/2-y,z
3/4-x,3/4+y,1/4+z
3/4+x,3/4-y,1/4+z
loop_
_atom_site_type_symbol
_atom_site_label
_atom_site_fract_x
_atom_site_fract_y
_atom_site_fract_z
Si Si1 0.032447 0.565426 0.019480
Si Si2 0.947821 0.321066 0.495097
Si Si3 0.065822 0.763732 0.184798
Si Si4 0.632617 0.286924 0.077872
Si Si5 0.516038 0.669331 0.325714
Si Si6 0.130231 0.524648 0.162100
Si Si7 0.304464 0.118855 0.980667
Si Si8 0.340432 0.805662 0.732263
O O1 0.139357 0.600559 0.048683
O O2 0.000000 0.500000 0.046248
O O3 0.071598 0.547621 0.963250
O O4 0.915485 0.611590 0.019925
O O5 0.937761 0.271540 0.451847
O O6 0.811339 0.348041 0.507999
O O7 0.015525 0.287965 0.541064
O O8 0.028353 0.377884 0.476149
O O9 0.095965 0.752287 0.128017
O O10 0.024342 0.699328 0.210344
O O11 0.946212 0.807188 0.190842
O O12 0.750000 0.250000 0.054549
O O13 0.668280 0.356797 0.093299
O O14 0.483905 0.715800 0.370237
O O15 0.602829 0.705017 0.286843
O O16 0.102676 0.591034 0.185499
O O17 0.000000 0.500000 0.140670
O O18 0.250000 0.750000 0.720705
#
# Coordination Sequence:
#
# PCOD8187010 Si02
#       8
#    16  16  16  16  16  16  16  16
#     4   9  18  32  60  93 111 153 207 254 298 356
#     4  10  23  41  59  90 128 166 196 253 326 367
#     4  10  19  37  65  88 117 155 217 254 302 360
#     4  11  23  40  61  91 123 159 210 259 302 373
#     4  10  21  37  60  90 121 154 206 253 301 367
#     4  10  21  38  57  85 126 156 198 247 311 368
#     4  10  19  37  64  83 122 165 199 255 303 374
#     4  10  20  41  63  84 122 161 200 257 308 367
#
# _framework density 20.122389999999999
#
# number of rings (size 3 to 8) (size 9 to 14) (size 15 to 20)
#    0.000    2.000    1.250    3.000    1.750    0.000 
#    6.750    3.125    0.000    0.000    0.000    0.000 
#    0.000    0.000    0.000    0.000    0.000    0.000 
#
# Total GULP energy -396674.207573 kJ/mol
# GULP energy per Si atom -12396.068987 kJ/mol
# Density = 2.007659 g / cm^3
# Si number density = 20.122390 Si / 1000 Ang^3
#
#
#
# Elastic Constant Matrix: (Units=GPa)
#
#
# Indices 1 2 3 4 5 6 
#
# 1 118.7843 28.3571 44.3232 0.0000 0.0000 0.0000
# 2 28.3571 57.3571 23.5498 0.0000 0.0000 0.0000
# 3 44.3232 23.5498 86.1005 0.0000 0.0000 0.0000
# 4 0.0000 0.0000 0.0000 16.4895 0.0000 0.0000
# 5 0.0000 0.0000 0.0000 0.0000 26.3147 0.0000
# 6 0.0000 0.0000 0.0000 0.0000 0.0000 41.1704
#
#
#
# Elastic Compliance Matrix: (Units=1/GPa)
#
#
# Indices 1 2 3 4 5 6 
#
# 1 0.011014 -0.003512 -0.004709 0.000000 0.000000 0.000000
# 2 -0.003512 0.020760 -0.003870 0.000000 0.000000 0.000000
# 3 -0.004709 -0.003870 0.015097 0.000000 0.000000 0.000000
# 4 0.000000 0.000000 0.000000 0.060645 0.000000 0.000000
# 5 0.000000 0.000000 0.000000 0.000000 0.038002 0.000000
# 6 0.000000 0.000000 0.000000 0.000000 0.000000 0.024289
#
#
# Mechanical properties :
#
#
# Convention : Reuss Voigt Hill
#
# Bulk Modulus (GPa) = 44.07551 50.52245 47.29898
# Shear Modulus (GPa) = 24.80739 27.86238 26.33488
#
# Velocity S-wave (km/s) = 3.51497 3.72512 3.62157
# Velocity P-wave (km/s) = 6.19876 6.60788 6.40659
#
# Compressibility (1/GPa) = 0.02268834
#
# Stress axis : x y z
#
# Youngs Moduli (GPa) = 90.79130 48.16967 66.23708
#
# Poissons Ratio (x) = 0.16916 0.31194
# Poissons Ratio (y) = 0.31884 0.25636
# Poissons Ratio (z) = 0.42758 0.18643
#
# Static dielectric constant tensor:
#      x y z
#    x 3.964340 0.000000 0.000000 
#    y 0.000000 3.626360 0.000000 
#    z 0.000000 0.000000 3.333950 
# 
# 
# High freq. dielectric constant tensor:
#      x y z
#    x 1.798670 0.000000 0.000000 
#    y 0.000000 1.786140 0.000000 
#    z 0.000000 0.000000 1.759280 
# 
# From -- ./inp_files/25339.got.cif
#   From: 2010.06.25/outbox.cif.g09.slc.cpg/sg43_13_cif.got.tgz:25339.got - 2010.06.26 16:48:59.
