data_PCOD8187548
_publ_section_title
;
Structure prediction by ZEFSAII (Michael W. Deem and Ramdas Pophale) SiO2 
 PCOD8187548
Probable space group: F D D 2
;
_chemical_formula_sum "Si O2"
_cell_formula_units_Z 72
_cell_length_a 13.910514
_cell_length_b 7.271829
_cell_length_c 33.338150
_cell_angle_alpha 90.000000
_cell_angle_beta 90.000000
_cell_angle_gamma 90.000000
_cell_volume 3372.316533
_symmetry_space_group_name_H-M "F D D 2"
_symmetry_group_IT_number 43
_symmetry_cell_setting 'orthorhombic'
loop_
_space_group_symop_operation_xyz
x,y,z
-x,-y,z
1/4-x,1/4+y,1/4+z
1/4+x,1/4-y,1/4+z
x,1/2+y,1/2+z
-x,1/2-y,1/2+z
1/4-x,3/4+y,3/4+z
1/4+x,3/4-y,3/4+z
1/2+x,y,1/2+z
1/2-x,-y,1/2+z
3/4-x,1/4+y,3/4+z
3/4+x,1/4-y,3/4+z
1/2+x,1/2+y,z
1/2-x,1/2-y,z
3/4-x,3/4+y,1/4+z
3/4+x,3/4-y,1/4+z
loop_
_atom_site_type_symbol
_atom_site_label
_atom_site_fract_x
_atom_site_fract_y
_atom_site_fract_z
Si Si1 0.250000 0.250000 0.548350
Si Si2 0.020109 0.294827 0.362162
Si Si3 0.395937 0.914467 0.682871
Si Si4 0.643272 0.246729 0.426510
Si Si5 0.099672 0.556654 0.990310
O O1 0.204750 0.407652 0.576215
O O2 0.172792 0.138206 0.522576
O O3 0.933530 0.219038 0.390722
O O4 0.000000 0.500000 0.345380
O O5 0.119324 0.305897 0.386701
O O6 0.380941 0.704810 0.695835
O O7 0.500000 0.000000 0.692311
O O8 0.320856 0.028378 0.710021
O O9 0.750000 0.250000 0.406753
O O10 0.858387 0.108179 0.463028
O O11 0.000000 0.500000 0.012083
#
# Coordination Sequence:
#
# PCOD8187548 Si02
#       5
#     8  16  16  16  16
#     4  12  26  44  64  96 150 180 222 286 350 420
#     4  10  24  43  66  95 136 176 228 283 341 405
#     4  11  21  41  70 100 124 169 230 287 335 403
#     4  11  21  38  72  99 123 171 233 281 338 402
#     4  12  24  42  67  98 135 181 224 284 349 407
#
# _framework density 21.350308999999999
#
# number of rings (size 3 to 8) (size 9 to 14) (size 15 to 20)
#    0.000    0.889    5.556    1.333    0.000    3.556 
#    4.000    0.000    0.000    0.000    0.000    0.000 
#    0.000    0.000    0.000    0.000    0.000    0.000 
#
# Total GULP energy -223043.195112 kJ/mol
# GULP energy per Si atom -12391.288617 kJ/mol
# Density = 2.130171 g / cm^3
# Si number density = 21.350309 Si / 1000 Ang^3
#
#
#
# Elastic Constant Matrix: (Units=GPa)
#
#
# Indices 1 2 3 4 5 6 
#
# 1 98.4179 34.5696 31.7389 0.0000 0.0000 0.0000
# 2 34.5696 168.7454 80.4345 0.0000 0.0000 0.0000
# 3 31.7389 80.4345 101.3832 0.0000 0.0000 0.0000
# 4 0.0000 0.0000 0.0000 30.8084 0.0000 0.0000
# 5 0.0000 0.0000 0.0000 0.0000 19.6093 0.0000
# 6 0.0000 0.0000 0.0000 0.0000 0.0000 30.5509
#
#
#
# Elastic Compliance Matrix: (Units=1/GPa)
#
#
# Indices 1 2 3 4 5 6 
#
# 1 0.011410 -0.001021 -0.002762 0.000000 0.000000 0.000000
# 2 -0.001021 0.009621 -0.007314 0.000000 0.000000 0.000000
# 3 -0.002762 -0.007314 0.016531 0.000000 0.000000 0.000000
# 4 0.000000 0.000000 0.000000 0.032459 0.000000 0.000000
# 5 0.000000 0.000000 0.000000 0.000000 0.050996 0.000000
# 6 0.000000 0.000000 0.000000 0.000000 0.000000 0.032732
#
#
# Mechanical properties :
#
#
# Convention : Reuss Voigt Hill
#
# Bulk Modulus (GPa) = 65.06681 73.55918 69.31299
# Shear Modulus (GPa) = 27.61425 30.98061 29.29743
#
# Velocity S-wave (km/s) = 3.60027 3.81341 3.70837
# Velocity P-wave (km/s) = 6.91553 7.34287 7.13240
#
# Compressibility (1/GPa) = 0.01536882
#
# Stress axis : x y z
#
# Youngs Moduli (GPa) = 87.64169 103.93463 60.49324
#
# Poissons Ratio (x) = 0.10611 0.16708
# Poissons Ratio (y) = 0.08948 0.44243
# Poissons Ratio (z) = 0.24207 0.76015
#
# Static dielectric constant tensor:
#      x y z
#    x 4.070850 0.000000 0.000000 
#    y 0.000000 4.315010 0.000000 
#    z 0.000000 0.000000 3.637090 
# 
# 
# High freq. dielectric constant tensor:
#      x y z
#    x 1.841070 0.000000 0.000000 
#    y 0.000000 1.867820 0.000000 
#    z 0.000000 0.000000 1.805970 
# 
# From -- ./inp_files/25486.got.cif
#   From: 2010.06.25/outbox.cif.g09.slc.cpg/sg43_13_cif.got.tgz:25486.got - 2010.06.26 16:48:59.
