data_PCOD8187875
_publ_section_title
;
Structure prediction by ZEFSAII (Michael W. Deem and Ramdas Pophale) SiO2 
 PCOD8187875
Probable space group: I M M 2
;
_chemical_formula_sum "Si O2"
_cell_formula_units_Z 40
_cell_length_a 9.159583
_cell_length_b 11.715703
_cell_length_c 20.384716
_cell_angle_alpha 90.000000
_cell_angle_beta 90.000000
_cell_angle_gamma 90.000000
_cell_volume 2187.503322
_symmetry_space_group_name_H-M "I M M 2"
_symmetry_group_IT_number 44
_symmetry_cell_setting 'orthorhombic'
loop_
_space_group_symop_operation_xyz
x,y,z
-x,-y,z
-x,y,z
x,-y,z
1/2+x,1/2+y,1/2+z
1/2-x,1/2-y,1/2+z
1/2-x,1/2+y,1/2+z
1/2+x,1/2-y,1/2+z
loop_
_atom_site_type_symbol
_atom_site_label
_atom_site_fract_x
_atom_site_fract_y
_atom_site_fract_z
Si Si1 0.673909 0.130309 0.659140
Si Si2 0.335944 0.500000 0.500527
Si Si3 0.831153 0.251300 0.028745
Si Si4 0.827167 0.282688 0.294772
Si Si5 0.172963 0.870519 0.409992
Si Si6 0.672649 0.000000 0.869650
O O1 0.500000 0.132348 0.657645
O O2 0.735281 0.183517 0.591759
O O3 0.732200 0.208784 0.719911
O O4 0.729824 0.000000 0.666737
O O5 0.500000 0.500000 0.470992
O O6 0.312238 0.615571 0.542559
O O7 0.217560 0.500000 0.444344
O O8 0.000000 0.283622 0.018370
O O9 0.745882 0.289880 0.963994
O O10 0.781482 0.170095 0.336136
O O11 0.761680 0.389744 0.334042
O O12 0.000000 0.291915 0.291778
O O13 0.000000 0.860162 0.419054
O O14 0.227457 0.000000 0.418651
O O15 0.500000 0.000000 0.866113
#
# Coordination Sequence:
#
# PCOD8187875 Si02
#       6
#     8   4   8   8   8   4
#     4   9  16  28  47  71  96 124 162 202 237 280
#     4  10  20  32  46  72 104 127 156 200 242 285
#     4  10  20  33  50  72  99 131 163 197 241 289
#     4   9  16  28  48  74  97 120 158 205 243 280
#     4  10  20  33  50  74 101 127 160 202 243 285
#     4  10  16  28  54  76  90 119 162 202 242 287
#
# _framework density 18.285686999999999
#
# number of rings (size 3 to 8) (size 9 to 14) (size 15 to 20)
#    0.000    2.400    3.000    0.600    0.000    1.200 
#    1.800    0.000    0.000    2.400    0.000    0.000 
#    0.000    0.000    0.000    0.000    0.000    0.000 
#
# Total GULP energy -247838.125016 kJ/mol
# GULP energy per Si atom -12391.906251 kJ/mol
# Density = 1.824407 g / cm^3
# Si number density = 18.285687 Si / 1000 Ang^3
#
#
#
# Elastic Constant Matrix: (Units=GPa)
#
#
# Indices 1 2 3 4 5 6 
#
# 1 14.6970 18.5298 16.3168 0.0000 0.0000 0.0000
# 2 18.5298 118.5391 53.4402 0.0000 0.0000 0.0000
# 3 16.3168 53.4402 135.9964 0.0000 0.0000 0.0000
# 4 0.0000 0.0000 0.0000 36.9509 0.0000 0.0000
# 5 0.0000 0.0000 0.0000 0.0000 18.3088 0.0000
# 6 0.0000 0.0000 0.0000 0.0000 0.0000 15.4716
#
#
#
# Elastic Compliance Matrix: (Units=1/GPa)
#
#
# Indices 1 2 3 4 5 6 
#
# 1 0.089017 -0.011059 -0.006334 0.000000 0.000000 0.000000
# 2 -0.011059 0.011626 -0.003242 0.000000 0.000000 0.000000
# 3 -0.006334 -0.003242 0.009387 0.000000 0.000000 0.000000
# 4 0.000000 0.000000 0.000000 0.027063 0.000000 0.000000
# 5 0.000000 0.000000 0.000000 0.000000 0.054619 0.000000
# 6 0.000000 0.000000 0.000000 0.000000 0.000000 0.064634
#
#
# Mechanical properties :
#
#
# Convention : Reuss Voigt Hill
#
# Bulk Modulus (GPa) = 14.54350 49.53401 32.03876
# Shear Modulus (GPa) = 15.59886 26.20932 20.90409
#
# Velocity S-wave (km/s) = 2.92389 3.79003 3.38478
# Velocity P-wave (km/s) = 4.40109 6.80443 5.73018
#
# Compressibility (1/GPa) = 0.06875925
#
# Stress axis : x y z
#
# Youngs Moduli (GPa) = 11.23384 86.01255 106.53071
#
# Poissons Ratio (x) = 0.95123 0.67481
# Poissons Ratio (y) = 0.12424 0.34534
# Poissons Ratio (z) = 0.07116 0.27882
#
# Static dielectric constant tensor:
#      x y z
#    x 2.894730 0.000000 0.000000 
#    y 0.000000 3.656990 0.000000 
#    z 0.000000 0.000000 3.574030 
# 
# 
# High freq. dielectric constant tensor:
#      x y z
#    x 1.654060 0.000000 0.000000 
#    y 0.000000 1.716640 0.000000 
#    z 0.000000 0.000000 1.710560 
# 
# From -- ./inp_files/22760.got.cif
#   From: 2010.03.12/outbox.cif.g09.slc.cpg/sg44_12_cif.got.tgz:22760.got - 2010.04.14 02:36:11.
