data_PCOD8187787
_publ_section_title
;
Structure prediction by ZEFSAII (Michael W. Deem and Ramdas Pophale) SiO2 
 PCOD8187787
Probable space group: F D D 2
;
_chemical_formula_sum "Si O2"
_cell_formula_units_Z 72
_cell_length_a 16.941623
_cell_length_b 16.151869
_cell_length_c 10.968474
_cell_angle_alpha 90.000000
_cell_angle_beta 90.000000
_cell_angle_gamma 90.000000
_cell_volume 3001.400890
_symmetry_space_group_name_H-M "F D D 2"
_symmetry_group_IT_number 43
_symmetry_cell_setting 'orthorhombic'
loop_
_space_group_symop_operation_xyz
x,y,z
-x,-y,z
1/4-x,1/4+y,1/4+z
1/4+x,1/4-y,1/4+z
x,1/2+y,1/2+z
-x,1/2-y,1/2+z
1/4-x,3/4+y,3/4+z
1/4+x,3/4-y,3/4+z
1/2+x,y,1/2+z
1/2-x,-y,1/2+z
3/4-x,1/4+y,3/4+z
3/4+x,1/4-y,3/4+z
1/2+x,1/2+y,z
1/2-x,1/2-y,z
3/4-x,3/4+y,1/4+z
3/4+x,3/4-y,1/4+z
loop_
_atom_site_type_symbol
_atom_site_label
_atom_site_fract_x
_atom_site_fract_y
_atom_site_fract_z
Si Si1 0.828402 0.198110 0.424410
Si Si2 0.157920 0.487604 0.940722
Si Si3 0.202854 0.903963 0.896193
Si Si4 0.000000 0.500000 0.803001
Si Si5 0.337638 0.716664 0.699283
O O1 0.750000 0.250000 0.400746
O O2 0.801810 0.101948 0.424711
O O3 0.896097 0.225964 0.328046
O O4 0.864385 0.208354 0.559016
O O5 0.214969 0.549494 0.865357
O O6 0.071867 0.474827 0.886911
O O7 0.156084 0.870163 0.774375
O O8 0.149699 0.961416 0.987415
O O9 0.222778 0.822973 0.968814
O O10 0.250000 0.750000 0.714437
#
# Coordination Sequence:
#
# PCOD8187787 Si02
#       5
#    16  16  16   8  16
#     4  11  26  49  76 113 150 203 256 318 385 454
#     4  12  26  49  77 111 154 202 256 317 382 464
#     4  12  27  49  77 110 154 202 256 319 385 462
#     4  12  26  48  72 108 150 204 258 308 388 452
#     4  11  26  49  75 111 153 199 256 317 383 456
#
# _framework density 23.988797999999999
#
# number of rings (size 3 to 8) (size 9 to 14) (size 15 to 20)
#    0.000    0.444    4.444    2.667    9.333    0.000 
#    8.000    0.000    0.000    0.000    0.000    0.000 
#    0.000    0.000    0.000    0.000    0.000    0.000 
#
# Total GULP energy -223103.968893 kJ/mol
# GULP energy per Si atom -12394.664938 kJ/mol
# Density = 2.393420 g / cm^3
# Si number density = 23.988798 Si / 1000 Ang^3
#
#
#
# Elastic Constant Matrix: (Units=GPa)
#
#
# Indices 1 2 3 4 5 6 
#
# 1 92.3291 31.9508 39.4806 0.0000 0.0000 0.0000
# 2 31.9508 162.5579 60.4115 0.0000 0.0000 0.0000
# 3 39.4806 60.4115 110.0198 0.0000 0.0000 0.0000
# 4 0.0000 0.0000 0.0000 30.7455 0.0000 0.0000
# 5 0.0000 0.0000 0.0000 0.0000 2.3515 0.0000
# 6 0.0000 0.0000 0.0000 0.0000 0.0000 54.9530
#
#
#
# Elastic Compliance Matrix: (Units=1/GPa)
#
#
# Indices 1 2 3 4 5 6 
#
# 1 0.012929 -0.001026 -0.004076 0.000000 0.000000 0.000000
# 2 -0.001026 0.007810 -0.003920 0.000000 0.000000 0.000000
# 3 -0.004076 -0.003920 0.012705 0.000000 0.000000 0.000000
# 4 0.000000 0.000000 0.000000 0.032525 0.000000 0.000000
# 5 0.000000 0.000000 0.000000 0.000000 0.425253 0.000000
# 6 0.000000 0.000000 0.000000 0.000000 0.000000 0.018197
#
#
# Mechanical properties :
#
#
# Convention : Reuss Voigt Hill
#
# Bulk Modulus (GPa) = 64.94155 69.84363 67.39259
# Shear Modulus (GPa) = 9.38795 33.14759 21.26777
#
# Velocity S-wave (km/s) = 1.98040 3.72128 2.98076
# Velocity P-wave (km/s) = 5.68856 6.90234 6.32463
#
# Compressibility (1/GPa) = 0.01539846
#
# Stress axis : x y z
#
# Youngs Moduli (GPa) = 77.34597 128.03622 78.71213
#
# Poissons Ratio (x) = 0.13142 0.32082
# Poissons Ratio (y) = 0.07939 0.30857
# Poissons Ratio (z) = 0.31526 0.50194
#
# Static dielectric constant tensor:
#      x y z
#    x 4.629960 0.000000 0.000000 
#    y 0.000000 4.978910 0.000000 
#    z 0.000000 0.000000 4.631190 
# 
# 
# High freq. dielectric constant tensor:
#      x y z
#    x 1.951140 0.000000 0.000000 
#    y 0.000000 1.978070 0.000000 
#    z 0.000000 0.000000 1.941000 
# 
# From -- ./inp_files/6016.got.cif
#   From: 2010.06.25/outbox.cif.g09.slc.cpg/sg43_4_cif.got.tgz:6016.got - 2010.06.26 16:48:59.
