data_PCOD8187163
_publ_section_title
;
Structure prediction by ZEFSAII (Michael W. Deem and Ramdas Pophale) SiO2 
 PCOD8187163
Probable space group: F D D 2
;
_chemical_formula_sum "Si O2"
_cell_formula_units_Z 112
_cell_length_a 30.150409
_cell_length_b 14.832140
_cell_length_c 11.436743
_cell_angle_alpha 90.000000
_cell_angle_beta 90.000000
_cell_angle_gamma 90.000000
_cell_volume 5114.455285
_symmetry_space_group_name_H-M "F D D 2"
_symmetry_group_IT_number 43
_symmetry_cell_setting 'orthorhombic'
loop_
_space_group_symop_operation_xyz
x,y,z
-x,-y,z
1/4-x,1/4+y,1/4+z
1/4+x,1/4-y,1/4+z
x,1/2+y,1/2+z
-x,1/2-y,1/2+z
1/4-x,3/4+y,3/4+z
1/4+x,3/4-y,3/4+z
1/2+x,y,1/2+z
1/2-x,-y,1/2+z
3/4-x,1/4+y,3/4+z
3/4+x,1/4-y,3/4+z
1/2+x,1/2+y,z
1/2-x,1/2-y,z
3/4-x,3/4+y,1/4+z
3/4+x,3/4-y,1/4+z
loop_
_atom_site_type_symbol
_atom_site_label
_atom_site_fract_x
_atom_site_fract_y
_atom_site_fract_z
Si Si1 0.608367 0.187540 0.738710
Si Si2 0.909393 0.680369 0.033180
Si Si3 0.528588 0.076680 0.796842
Si Si4 0.952316 0.505704 0.047515
Si Si5 0.478996 0.755739 0.366598
Si Si6 0.072906 0.789763 0.963233
Si Si7 0.078198 0.657798 0.177897
O O1 0.610529 0.259688 0.635623
O O2 0.569101 0.113789 0.718371
O O3 0.655754 0.137662 0.736704
O O4 0.598858 0.238448 0.859757
O O5 0.946290 0.611210 0.075802
O O6 0.933468 0.745700 0.940264
O O7 0.874766 0.601827 0.993464
O O8 0.495039 0.157535 0.826244
O O9 0.500000 0.000000 0.727936
O O10 0.548176 0.028213 0.912622
O O11 0.921547 0.441702 0.123265
O O12 0.000000 0.500000 0.103423
O O13 0.520370 0.801646 0.435393
O O14 0.464101 0.819182 0.259340
O O15 0.080138 0.733783 0.080122
#
# Coordination Sequence:
#
# PCOD8187163 Si02
#       7
#    16  16  16  16  16  16  16
#     4  11  27  45  71 105 149 190 234 315 382 432
#     4  12  26  45  72 104 149 187 250 303 372 437
#     4  10  20  42  72  99 134 186 243 299 352 443
#     4  11  21  42  69  98 130 186 242 291 352 437
#     4  11  25  44  74 107 144 189 250 304 365 433
#     4  11  27  48  73 107 149 193 248 303 373 447
#     4  12  26  42  75 105 138 198 244 305 363 447
#
# _framework density 21.898716
#
# number of rings (size 3 to 8) (size 9 to 14) (size 15 to 20)
#    0.000    0.857    5.714    1.714   14.000    0.000 
#    0.000    0.000    0.000    0.000    0.000    0.000 
#    0.000    0.000    0.000    0.000    0.000    0.000 
#
# Total GULP energy -346928.005186 kJ/mol
# GULP energy per Si atom -12390.285900 kJ/mol
# Density = 2.184887 g / cm^3
# Si number density = 21.898716 Si / 1000 Ang^3
#
#
#
# Elastic Constant Matrix: (Units=GPa)
#
#
# Indices 1 2 3 4 5 6 
#
# 1 104.0682 27.4443 49.4229 0.0000 0.0000 0.0000
# 2 27.4443 88.5617 47.4799 0.0000 0.0000 0.0000
# 3 49.4229 47.4799 95.4835 0.0000 0.0000 0.0000
# 4 0.0000 0.0000 0.0000 71.1964 0.0000 0.0000
# 5 0.0000 0.0000 0.0000 0.0000 21.1694 0.0000
# 6 0.0000 0.0000 0.0000 0.0000 0.0000 49.4900
#
#
#
# Elastic Compliance Matrix: (Units=1/GPa)
#
#
# Indices 1 2 3 4 5 6 
#
# 1 0.012762 -0.000564 -0.006325 0.000000 0.000000 0.000000
# 2 -0.000564 0.015421 -0.007376 0.000000 0.000000 0.000000
# 3 -0.006325 -0.007376 0.017415 0.000000 0.000000 0.000000
# 4 0.000000 0.000000 0.000000 0.014046 0.000000 0.000000
# 5 0.000000 0.000000 0.000000 0.000000 0.047238 0.000000
# 6 0.000000 0.000000 0.000000 0.000000 0.000000 0.020206
#
#
# Mechanical properties :
#
#
# Convention : Reuss Voigt Hill
#
# Bulk Modulus (GPa) = 58.59275 59.64528 59.11901
# Shear Modulus (GPa) = 30.99683 39.28892 35.14287
#
# Velocity S-wave (km/s) = 3.76635 4.24030 4.01033
# Velocity P-wave (km/s) = 6.76226 7.16028 6.96411
#
# Compressibility (1/GPa) = 0.01706696
#
# Stress axis : x y z
#
# Youngs Moduli (GPa) = 78.35995 64.84722 57.42181
#
# Poissons Ratio (x) = 0.03655 0.36321
# Poissons Ratio (y) = 0.04416 0.42357
# Poissons Ratio (z) = 0.49565 0.47834
#
# Static dielectric constant tensor:
#      x y z
#    x 4.167610 0.000000 0.000000 
#    y 0.000000 2.837180 0.000000 
#    z 0.000000 0.000000 3.784490 
# 
# 
# High freq. dielectric constant tensor:
#      x y z
#    x 1.873780 0.000000 0.000000 
#    y 0.000000 1.868360 0.000000 
#    z 0.000000 0.000000 1.836740 
# 
# From -- ./inp_files/8298.got.cif
#   From: 2010.06.25/outbox.cif.g09.slc.cpg/sg43_5_cif.got.tgz:8298.got - 2010.06.26 16:48:59.
