data_PCOD8187431
_publ_section_title
;
Structure prediction by ZEFSAII (Michael W. Deem and Ramdas Pophale) SiO2 
 PCOD8187431
Probable space group: F D D 2
;
_chemical_formula_sum "Si O2"
_cell_formula_units_Z 88
_cell_length_a 22.623117
_cell_length_b 10.881963
_cell_length_c 15.105624
_cell_angle_alpha 90.000000
_cell_angle_beta 90.000000
_cell_angle_gamma 90.000000
_cell_volume 3718.761763
_symmetry_space_group_name_H-M "F D D 2"
_symmetry_group_IT_number 43
_symmetry_cell_setting 'orthorhombic'
loop_
_space_group_symop_operation_xyz
x,y,z
-x,-y,z
1/4-x,1/4+y,1/4+z
1/4+x,1/4-y,1/4+z
x,1/2+y,1/2+z
-x,1/2-y,1/2+z
1/4-x,3/4+y,3/4+z
1/4+x,3/4-y,3/4+z
1/2+x,y,1/2+z
1/2-x,-y,1/2+z
3/4-x,1/4+y,3/4+z
3/4+x,1/4-y,3/4+z
1/2+x,1/2+y,z
1/2-x,1/2-y,z
3/4-x,3/4+y,1/4+z
3/4+x,3/4-y,1/4+z
loop_
_atom_site_type_symbol
_atom_site_label
_atom_site_fract_x
_atom_site_fract_y
_atom_site_fract_z
Si Si1 0.750000 0.250000 0.324420
Si Si2 0.750000 0.750000 0.101765
Si Si3 0.426829 0.863769 0.209212
Si Si4 0.695802 0.079993 0.730443
Si Si5 0.405882 0.588421 0.174113
Si Si6 0.201409 0.583070 0.192554
Si Si7 0.750000 0.750000 0.544321
O O1 0.777684 0.137865 0.379691
O O2 0.800786 0.306242 0.263196
O O3 0.698093 0.687803 0.158820
O O4 0.788643 0.652333 0.047307
O O5 0.411912 0.720980 0.219401
O O6 0.368605 0.944640 0.183324
O O7 0.671790 0.140723 0.820941
O O8 0.659436 0.964348 0.690566
O O9 0.763788 0.031866 0.735445
O O10 0.445404 0.486003 0.225460
O O11 0.234857 0.630159 0.103231
#
# Coordination Sequence:
#
# PCOD8187431 Si02
#       7
#     8   8  16  16  16  16   8
#     4  10  22  44  66 110 138 192 244 312 358 450
#     4  11  29  47  69 108 150 188 249 313 381 435
#     4  11  25  44  71 105 144 190 251 306 372 442
#     4  12  26  48  72 105 147 192 244 308 378 450
#     4  12  25  47  73 105 143 190 247 303 375 458
#     4  11  23  43  73 101 142 190 244 299 373 436
#     4  11  25  41  71 106 142 186 241 303 367 447
#
# _framework density 23.663792000000001
#
# number of rings (size 3 to 8) (size 9 to 14) (size 15 to 20)
#    0.000    0.727    1.818    6.000    5.091    2.909 
#    3.273    0.000    0.000    0.000    0.000    0.000 
#    0.000    0.000    0.000    0.000    0.000    0.000 
#
# Total GULP energy -272574.951780 kJ/mol
# GULP energy per Si atom -12389.770535 kJ/mol
# Density = 2.360993 g / cm^3
# Si number density = 23.663792 Si / 1000 Ang^3
#
#
#
# Elastic Constant Matrix: (Units=GPa)
#
#
# Indices 1 2 3 4 5 6 
#
# 1 123.4099 36.7075 53.7867 0.0000 0.0000 0.0000
# 2 36.7075 91.0503 54.6134 0.0000 0.0000 0.0000
# 3 53.7867 54.6134 161.6109 0.0000 0.0000 0.0000
# 4 0.0000 0.0000 0.0000 8.8245 0.0000 0.0000
# 5 0.0000 0.0000 0.0000 0.0000 30.8202 0.0000
# 6 0.0000 0.0000 0.0000 0.0000 0.0000 38.1334
#
#
#
# Elastic Compliance Matrix: (Units=1/GPa)
#
#
# Indices 1 2 3 4 5 6 
#
# 1 0.009923 -0.002533 -0.002446 0.000000 0.000000 0.000000
# 2 -0.002533 0.014422 -0.004031 0.000000 0.000000 0.000000
# 3 -0.002446 -0.004031 0.008364 0.000000 0.000000 0.000000
# 4 0.000000 0.000000 0.000000 0.113322 0.000000 0.000000
# 5 0.000000 0.000000 0.000000 0.000000 0.032446 0.000000
# 6 0.000000 0.000000 0.000000 0.000000 0.000000 0.026224
#
#
# Mechanical properties :
#
#
# Convention : Reuss Voigt Hill
#
# Bulk Modulus (GPa) = 68.08070 74.03182 71.05626
# Shear Modulus (GPa) = 21.96681 30.95318 26.45999
#
# Velocity S-wave (km/s) = 3.05009 3.62061 3.34752
# Velocity P-wave (km/s) = 6.42156 6.98793 6.71072
#
# Compressibility (1/GPa) = 0.01468845
#
# Stress axis : x y z
#
# Youngs Moduli (GPa) = 100.77832 69.33989 119.56042
#
# Poissons Ratio (x) = 0.17564 0.29250
# Poissons Ratio (y) = 0.25527 0.48189
# Poissons Ratio (z) = 0.24655 0.27948
#
# Static dielectric constant tensor:
#      x y z
#    x 4.315660 0.000000 0.000000 
#    y 0.000000 4.013240 0.000000 
#    z 0.000000 0.000000 4.460410 
# 
# 
# High freq. dielectric constant tensor:
#      x y z
#    x 1.941680 0.000000 0.000000 
#    y 0.000000 1.920430 0.000000 
#    z 0.000000 0.000000 1.954790 
# 
# From -- ./inp_files/9607.got.cif
#   From: 2010.06.25/outbox.cif.g09.slc.cpg/sg43_5_cif.got.tgz:9607.got - 2010.06.26 16:48:59.
