data_PCOD8187468
_publ_section_title
;
Structure prediction by ZEFSAII (Michael W. Deem and Ramdas Pophale) SiO2 
 PCOD8187468
Probable space group: F D D 2
;
_chemical_formula_sum "Si O2"
_cell_formula_units_Z 72
_cell_length_a 17.942364
_cell_length_b 22.886141
_cell_length_c 7.642569
_cell_angle_alpha 90.000000
_cell_angle_beta 90.000000
_cell_angle_gamma 90.000000
_cell_volume 3138.279361
_symmetry_space_group_name_H-M "F D D 2"
_symmetry_group_IT_number 43
_symmetry_cell_setting 'orthorhombic'
loop_
_space_group_symop_operation_xyz
x,y,z
-x,-y,z
1/4-x,1/4+y,1/4+z
1/4+x,1/4-y,1/4+z
x,1/2+y,1/2+z
-x,1/2-y,1/2+z
1/4-x,3/4+y,3/4+z
1/4+x,3/4-y,3/4+z
1/2+x,y,1/2+z
1/2-x,-y,1/2+z
3/4-x,1/4+y,3/4+z
3/4+x,1/4-y,3/4+z
1/2+x,1/2+y,z
1/2-x,1/2-y,z
3/4-x,3/4+y,1/4+z
3/4+x,3/4-y,1/4+z
loop_
_atom_site_type_symbol
_atom_site_label
_atom_site_fract_x
_atom_site_fract_y
_atom_site_fract_z
Si Si1 0.250000 0.250000 0.960950
Si Si2 0.575818 0.679215 0.366346
Si Si3 0.643503 0.289708 0.738330
Si Si4 0.264157 0.879677 0.422863
Si Si5 0.761948 0.870259 0.324680
O O1 0.259934 0.311361 0.856306
O O2 0.324599 0.248502 0.078690
O O3 0.592862 0.748270 0.359848
O O4 0.542930 0.666397 0.556243
O O5 0.650272 0.640868 0.340006
O O6 0.514341 0.667852 0.215483
O O7 0.596747 0.343564 0.655434
O O8 0.712046 0.312352 0.858991
O O9 0.240640 0.886842 0.625260
#
# Coordination Sequence:
#
# PCOD8187468 Si02
#       5
#     8  16  16  16  16
#     4  10  22  50  72 100 160 188 236 318 362 424
#     4  12  26  44  73 106 140 193 246 296 373 441
#     4  11  21  47  71 102 149 195 231 312 369 429
#     4  11  26  45  74 107 143 193 244 297 373 436
#     4  11  24  48  67 101 152 185 239 305 367 428
#
# _framework density 22.942506000000002
#
# number of rings (size 3 to 8) (size 9 to 14) (size 15 to 20)
#    0.000    0.889    6.667    0.000    9.333    0.000 
#    4.000    2.222    0.000    0.000    0.000    0.000 
#    0.000    0.000    0.000    0.000    0.000    0.000 
#
# Total GULP energy -223101.962638 kJ/mol
# GULP energy per Si atom -12394.553480 kJ/mol
# Density = 2.289029 g / cm^3
# Si number density = 22.942506 Si / 1000 Ang^3
#
#
#
# Elastic Constant Matrix: (Units=GPa)
#
#
# Indices 1 2 3 4 5 6 
#
# 1 123.1268 33.0750 39.9907 0.0003 -0.0001 -0.0001
# 2 33.0750 92.7887 22.1955 0.0002 -0.0001 -0.0001
# 3 39.9907 22.1955 97.9337 0.0008 -0.0003 -0.0002
# 4 0.0003 0.0002 0.0008 21.9366 -0.0003 -0.0002
# 5 -0.0001 -0.0001 -0.0003 -0.0003 28.2745 0.0001
# 6 -0.0001 -0.0001 -0.0002 -0.0002 0.0001 50.6954
#
#
#
# Elastic Compliance Matrix: (Units=1/GPa)
#
#
# Indices 1 2 3 4 5 6 
#
# 1 0.009977 -0.002730 -0.003456 0.000000 0.000000 0.000000
# 2 -0.002730 0.012142 -0.001637 0.000000 0.000000 0.000000
# 3 -0.003456 -0.001637 0.011993 0.000000 0.000000 0.000000
# 4 0.000000 0.000000 0.000000 0.045586 0.000000 0.000000
# 5 0.000000 0.000000 0.000000 0.000000 0.035368 0.000000
# 6 0.000000 0.000000 0.000000 0.000000 0.000000 0.019726
#
#
# Mechanical properties :
#
#
# Convention : Reuss Voigt Hill
#
# Bulk Modulus (GPa) = 54.14972 56.04129 55.09550
# Shear Modulus (GPa) = 31.93011 34.75384 33.34197
#
# Velocity S-wave (km/s) = 3.73466 3.89630 3.81633
# Velocity P-wave (km/s) = 6.50004 6.68740 6.59439
#
# Compressibility (1/GPa) = 0.01846732
#
# Stress axis : x y z
#
# Youngs Moduli (GPa) = 100.22696 82.35976 83.38159
#
# Poissons Ratio (x) = 0.22483 0.28813
# Poissons Ratio (y) = 0.27361 0.13650
# Poissons Ratio (z) = 0.34633 0.13483
#
# Static dielectric constant tensor:
#      x y z
#    x 4.392280 0.000000 0.000000 
#    y 0.000000 4.305280 0.000000 
#    z 0.000000 0.000000 3.803560 
# 
# 
# High freq. dielectric constant tensor:
#      x y z
#    x 1.921890 0.000000 0.000000 
#    y 0.000000 1.908990 0.000000 
#    z 0.000000 0.000000 1.872550 
# 
# From -- ./inp_files/2348.got.cif
#   From: 2010.06.25/outbox.cif.g09.slc.cpg/sg43_2_cif.got.tgz:2348.got - 2010.06.26 16:48:59.
