data_PCOD8187277
_publ_section_title
;
Structure prediction by ZEFSAII (Michael W. Deem and Ramdas Pophale) SiO2 
 PCOD8187277
Probable space group: F D D 2
;
_chemical_formula_sum "Si O2"
_cell_formula_units_Z 96
_cell_length_a 23.487962
_cell_length_b 10.070466
_cell_length_c 16.221429
_cell_angle_alpha 90.000000
_cell_angle_beta 90.000000
_cell_angle_gamma 90.000000
_cell_volume 3836.931211
_symmetry_space_group_name_H-M "F D D 2"
_symmetry_group_IT_number 43
_symmetry_cell_setting 'orthorhombic'
loop_
_space_group_symop_operation_xyz
x,y,z
-x,-y,z
1/4-x,1/4+y,1/4+z
1/4+x,1/4-y,1/4+z
x,1/2+y,1/2+z
-x,1/2-y,1/2+z
1/4-x,3/4+y,3/4+z
1/4+x,3/4-y,3/4+z
1/2+x,y,1/2+z
1/2-x,-y,1/2+z
3/4-x,1/4+y,3/4+z
3/4+x,1/4-y,3/4+z
1/2+x,1/2+y,z
1/2-x,1/2-y,z
3/4-x,3/4+y,1/4+z
3/4+x,3/4-y,1/4+z
loop_
_atom_site_type_symbol
_atom_site_label
_atom_site_fract_x
_atom_site_fract_y
_atom_site_fract_z
Si Si1 0.558752 0.433298 0.134940
Si Si2 0.088955 0.598497 0.786208
Si Si3 0.500174 0.297635 0.721554
Si Si4 0.338446 0.325926 0.859258
Si Si5 0.831960 0.370219 0.170083
Si Si6 0.293149 0.644021 0.631029
O O1 0.500000 0.500000 0.103923
O O2 0.592530 0.527487 0.197867
O O3 0.547188 0.297470 0.182706
O O4 0.598743 0.407508 0.056596
O O5 0.044817 0.718307 0.778607
O O6 0.066275 0.498035 0.857224
O O7 0.529440 0.377463 0.647383
O O8 0.469000 0.397616 0.783094
O O9 0.355992 0.179971 0.893341
O O10 0.331811 0.312567 0.761462
O O11 0.389118 0.430905 0.886100
O O12 0.786042 0.492823 0.165829
O O13 0.250000 0.750000 0.674693
#
# Coordination Sequence:
#
# PCOD8187277 Si02
#       6
#    16  16  16  16  16  16
#     4  10  23  43  67 105 138 187 228 290 357 418
#     4  11  22  45  74 101 145 179 240 300 350 424
#     4  11  23  45  72 100 143 189 228 304 361 419
#     4  10  23  42  70 102 141 181 247 288 367 440
#     4  10  21  42  71 101 136 187 235 299 350 434
#     4  10  22  41  70  97 144 186 235 295 366 428
#
# _framework density 25.019995999999999
#
# number of rings (size 3 to 8) (size 9 to 14) (size 15 to 20)
#    1.000    0.667    1.667    3.000    0.000    5.333 
#    6.000    0.000    3.667    0.000    0.000    0.000 
#    0.000    0.000    0.000    0.000    0.000    0.000 
#
# Total GULP energy -297472.795935 kJ/mol
# GULP energy per Si atom -12394.699831 kJ/mol
# Density = 2.496305 g / cm^3
# Si number density = 25.019996 Si / 1000 Ang^3
#
#
#
# Elastic Constant Matrix: (Units=GPa)
#
#
# Indices 1 2 3 4 5 6 
#
# 1 65.7640 -8.5703 29.6771 0.0000 0.0000 0.0000
# 2 -8.5703 53.6925 14.5053 0.0000 0.0000 0.0000
# 3 29.6771 14.5053 104.3746 0.0000 0.0000 0.0000
# 4 0.0000 0.0000 0.0000 21.8891 0.0000 0.0000
# 5 0.0000 0.0000 0.0000 0.0000 50.8648 0.0000
# 6 0.0000 0.0000 0.0000 0.0000 0.0000 36.8598
#
#
#
# Elastic Compliance Matrix: (Units=1/GPa)
#
#
# Indices 1 2 3 4 5 6 
#
# 1 0.018448 0.004532 -0.005875 0.000000 0.000000 0.000000
# 2 0.004532 0.020464 -0.004133 0.000000 0.000000 0.000000
# 3 -0.005875 -0.004133 0.011826 0.000000 0.000000 0.000000
# 4 0.000000 0.000000 0.000000 0.045685 0.000000 0.000000
# 5 0.000000 0.000000 0.000000 0.000000 0.019660 0.000000
# 6 0.000000 0.000000 0.000000 0.000000 0.000000 0.027130
#
#
# Mechanical properties :
#
#
# Convention : Reuss Voigt Hill
#
# Bulk Modulus (GPa) = 25.13443 32.78393 28.95918
# Shear Modulus (GPa) = 29.86393 34.47067 32.16730
#
# Velocity S-wave (km/s) = 3.45860 3.71580 3.58951
# Velocity P-wave (km/s) = 5.10067 5.61614 5.36460
#
# Compressibility (1/GPa) = 0.03978606
#
# Stress axis : x y z
#
# Youngs Moduli (GPa) = 54.20729 48.86542 84.56184
#
# Poissons Ratio (x) = -0.22145 0.49681
# Poissons Ratio (y) = -0.24566 0.34946
# Poissons Ratio (z) = 0.31847 0.20194
#
# Static dielectric constant tensor:
#      x y z
#    x 4.583460 0.000000 0.000000 
#    y 0.000000 4.467950 0.000000 
#    z 0.000000 0.000000 4.122860 
# 
# 
# High freq. dielectric constant tensor:
#      x y z
#    x 1.992670 0.000000 0.000000 
#    y 0.000000 1.995090 0.000000 
#    z 0.000000 0.000000 1.987430 
# 
# From -- ./inp_files/14834.got.cif
#   From: 2010.06.25/outbox.cif.g09.slc.cpg/sg43_8_cif.got.tgz:14834.got - 2010.06.26 16:48:59.
