data_PCOD8187286
_publ_section_title
;
Structure prediction by ZEFSAII (Michael W. Deem and Ramdas Pophale) SiO2 
 PCOD8187286
Probable space group: F D D 2
;
_chemical_formula_sum "Si O2"
_cell_formula_units_Z 104
_cell_length_a 22.893525
_cell_length_b 10.407680
_cell_length_c 20.897743
_cell_angle_alpha 90.000000
_cell_angle_beta 90.000000
_cell_angle_gamma 90.000000
_cell_volume 4979.273508
_symmetry_space_group_name_H-M "F D D 2"
_symmetry_group_IT_number 43
_symmetry_cell_setting 'orthorhombic'
loop_
_space_group_symop_operation_xyz
x,y,z
-x,-y,z
1/4-x,1/4+y,1/4+z
1/4+x,1/4-y,1/4+z
x,1/2+y,1/2+z
-x,1/2-y,1/2+z
1/4-x,3/4+y,3/4+z
1/4+x,3/4-y,3/4+z
1/2+x,y,1/2+z
1/2-x,-y,1/2+z
3/4-x,1/4+y,3/4+z
3/4+x,1/4-y,3/4+z
1/2+x,1/2+y,z
1/2-x,1/2-y,z
3/4-x,3/4+y,1/4+z
3/4+x,3/4-y,1/4+z
loop_
_atom_site_type_symbol
_atom_site_label
_atom_site_fract_x
_atom_site_fract_y
_atom_site_fract_z
Si Si1 0.000000 0.000000 0.362471
Si Si2 0.326089 0.546793 0.188374
Si Si3 0.856818 0.587775 0.352504
Si Si4 0.363242 0.827463 0.401825
Si Si5 0.026019 0.633182 0.487614
Si Si6 0.588461 0.323196 0.286856
Si Si7 0.557506 0.554834 0.759689
O O1 0.955567 0.915615 0.404357
O O2 0.040131 0.911861 0.318715
O O3 0.356874 0.453176 0.135487
O O4 0.278264 0.480675 0.234125
O O5 0.376711 0.595465 0.234729
O O6 0.839584 0.475856 0.402703
O O7 0.801702 0.635997 0.310028
O O8 0.892525 0.496737 0.305120
O O9 0.425902 0.819976 0.437050
O O10 0.368139 0.748147 0.336052
O O11 0.313704 0.751722 0.439201
O O12 0.000000 0.500000 0.463298
O O13 0.554245 0.208082 0.251999
O O14 0.500000 0.500000 0.792766
#
# Coordination Sequence:
#
# PCOD8187286 Si02
#       7
#     8  16  16  16  16  16  16
#     4  12  26  44  66  94 144 178 220 284 354 406
#     4  12  26  43  68 100 138 183 225 285 349 411
#     4  10  24  41  68  98 132 168 232 279 336 417
#     4  10  21  43  66  96 126 170 231 282 331 420
#     4  11  23  44  70  97 130 183 224 277 347 399
#     4  11  25  42  66  98 134 176 227 281 346 414
#     4  10  22  41  67  93 125 174 228 279 341 402
#
# _framework density 20.886581
#
# number of rings (size 3 to 8) (size 9 to 14) (size 15 to 20)
#    0.000    1.231    3.077    1.846    8.615    2.462 
#    4.154    0.000    0.000    0.000    0.000    0.000 
#    0.000    0.000    0.000    0.000    0.000    0.000 
#
# Total GULP energy -322179.601861 kJ/mol
# GULP energy per Si atom -12391.523148 kJ/mol
# Density = 2.083904 g / cm^3
# Si number density = 20.886581 Si / 1000 Ang^3
#
#
#
# Elastic Constant Matrix: (Units=GPa)
#
#
# Indices 1 2 3 4 5 6 
#
# 1 67.5071 23.9614 25.3558 0.0000 0.0000 0.0000
# 2 23.9614 117.7495 36.8672 0.0000 0.0000 0.0000
# 3 25.3558 36.8672 79.8466 0.0000 0.0000 0.0000
# 4 0.0000 0.0000 0.0000 -27.4012 0.0000 0.0000
# 5 0.0000 0.0000 0.0000 0.0000 31.0884 0.0000
# 6 0.0000 0.0000 0.0000 0.0000 0.0000 34.9037
#
#
#
# Elastic Compliance Matrix: (Units=1/GPa)
#
#
# Indices 1 2 3 4 5 6 
#
# 1 0.017252 -0.002099 -0.004509 0.000000 0.000000 0.000000
# 2 -0.002099 0.010183 -0.004035 0.000000 0.000000 0.000000
# 3 -0.004509 -0.004035 0.015819 0.000000 0.000000 0.000000
# 4 0.000000 0.000000 0.000000 -0.036495 0.000000 0.000000
# 5 0.000000 0.000000 0.000000 0.000000 0.032166 0.000000
# 6 0.000000 0.000000 0.000000 0.000000 0.000000 0.028650
#
#
# Mechanical properties :
#
#
# Convention : Reuss Voigt Hill
#
# Bulk Modulus (GPa) = 45.52227 48.60800 47.06513
# Shear Modulus (GPa) = 51.98277 19.64609 35.81443
#
# Velocity S-wave (km/s) = 4.99421 3.07026 4.14540
# Velocity P-wave (km/s) = 7.42284 5.99096 6.74500
#
# Compressibility (1/GPa) = 0.02196727
#
# Stress axis : x y z
#
# Youngs Moduli (GPa) = 57.96444 98.20136 63.21428
#
# Poissons Ratio (x) = 0.20610 0.28506
# Poissons Ratio (y) = 0.12166 0.25509
# Poissons Ratio (z) = 0.26138 0.39628
#
# Static dielectric constant tensor:
#      x y z
#    x 3.969360 0.000000 0.000000 
#    y 0.000000 5.062420 0.000000 
#    z 0.000000 0.000000 4.045860 
# 
# 
# High freq. dielectric constant tensor:
#      x y z
#    x 1.812540 0.000000 0.000000 
#    y 0.000000 1.838060 0.000000 
#    z 0.000000 0.000000 1.815530 
# 
# From -- ./inp_files/18869.got.cif
#   From: 2010.06.25/outbox.cif.g09.slc.cpg/sg43_10_cif.got.tgz:18869.got - 2010.06.26 16:48:59.
