data_PCOD8187363
_publ_section_title
;
Structure prediction by ZEFSAII (Michael W. Deem and Ramdas Pophale) SiO2 
 PCOD8187363
Probable space group: F D D 2
;
_chemical_formula_sum "Si O2"
_cell_formula_units_Z 120
_cell_length_a 9.025230
_cell_length_b 28.058568
_cell_length_c 22.800748
_cell_angle_alpha 90.000000
_cell_angle_beta 90.000000
_cell_angle_gamma 90.000000
_cell_volume 5773.948096
_symmetry_space_group_name_H-M "F D D 2"
_symmetry_group_IT_number 43
_symmetry_cell_setting 'orthorhombic'
loop_
_space_group_symop_operation_xyz
x,y,z
-x,-y,z
1/4-x,1/4+y,1/4+z
1/4+x,1/4-y,1/4+z
x,1/2+y,1/2+z
-x,1/2-y,1/2+z
1/4-x,3/4+y,3/4+z
1/4+x,3/4-y,3/4+z
1/2+x,y,1/2+z
1/2-x,-y,1/2+z
3/4-x,1/4+y,3/4+z
3/4+x,1/4-y,3/4+z
1/2+x,1/2+y,z
1/2-x,1/2-y,z
3/4-x,3/4+y,1/4+z
3/4+x,3/4-y,1/4+z
loop_
_atom_site_type_symbol
_atom_site_label
_atom_site_fract_x
_atom_site_fract_y
_atom_site_fract_z
Si Si1 0.658283 0.026621 0.660010
Si Si2 0.629337 0.929508 0.248189
Si Si3 0.250000 0.250000 0.213045
Si Si4 0.065564 0.080359 0.049362
Si Si5 0.617471 0.961417 0.798915
Si Si6 0.217557 0.466556 0.367673
Si Si7 0.926329 0.691004 0.939999
Si Si8 0.562894 0.617135 0.357172
O O1 0.713068 0.057331 0.717074
O O2 0.656254 0.064340 0.607019
O O3 0.500000 0.000000 0.668626
O O4 0.780631 0.985317 0.647676
O O5 0.611658 0.874603 0.265953
O O6 0.620405 0.958884 0.308769
O O7 0.497728 0.942331 0.203631
O O8 0.170644 0.287640 0.254212
O O9 0.133051 0.222136 0.173892
O O10 0.897547 0.092827 0.068830
O O11 0.737689 0.950063 0.750195
O O12 0.549552 0.910579 0.815268
O O13 0.500000 0.000000 0.773270
O O14 0.687525 0.985398 0.857325
O O15 0.318236 0.420620 0.381951
O O16 0.974146 0.641329 0.910480
#
# Coordination Sequence:
#
# PCOD8187363 Si02
#       8
#    16  16   8  16  16  16  16  16
#     4  12  24  46  72  96 136 184 235 278 342 424
#     4  11  27  42  70 105 132 175 235 292 338 404
#     4  12  24  40  68  92 144 172 220 286 344 414
#     4  11  26  43  65 100 134 182 226 279 348 409
#     4  10  22  40  66  93 129 174 219 272 331 413
#     4  10  23  41  66  95 133 178 224 274 346 411
#     4  12  23  41  71  97 131 171 226 283 343 396
#     4  10  24  39  65  99 129 171 229 268 341 410
#
# _framework density 20.783007000000001
#
# number of rings (size 3 to 8) (size 9 to 14) (size 15 to 20)
#    0.000    1.067    3.333    1.600   11.200    1.067 
#    0.000    0.000    0.000    0.000    0.000    0.000 
#    0.000    0.000    0.000    0.000    0.000    0.000 
#
# Total GULP energy -371890.572044 kJ/mol
# GULP energy per Si atom -12396.352401 kJ/mol
# Density = 2.073570 g / cm^3
# Si number density = 20.783007 Si / 1000 Ang^3
#
#
#
# Elastic Constant Matrix: (Units=GPa)
#
#
# Indices 1 2 3 4 5 6 
#
# 1 89.6200 36.9514 30.9619 0.0000 0.0000 0.0000
# 2 36.9514 125.3875 53.6166 0.0000 0.0000 0.0000
# 3 30.9619 53.6166 92.8280 0.0000 0.0000 0.0000
# 4 0.0000 0.0000 0.0000 42.9403 0.0000 0.0000
# 5 0.0000 0.0000 0.0000 0.0000 21.5107 0.0000
# 6 0.0000 0.0000 0.0000 0.0000 0.0000 34.3898
#
#
#
# Elastic Compliance Matrix: (Units=1/GPa)
#
#
# Indices 1 2 3 4 5 6 
#
# 1 0.013255 -0.002677 -0.002875 0.000000 0.000000 0.000000
# 2 -0.002677 0.011132 -0.005537 0.000000 0.000000 0.000000
# 3 -0.002875 -0.005537 0.014929 0.000000 0.000000 0.000000
# 4 0.000000 0.000000 0.000000 0.023288 0.000000 0.000000
# 5 0.000000 0.000000 0.000000 0.000000 0.046489 0.000000
# 6 0.000000 0.000000 0.000000 0.000000 0.000000 0.029078
#
#
# Mechanical properties :
#
#
# Convention : Reuss Voigt Hill
#
# Bulk Modulus (GPa) = 58.34587 61.21059 59.77823
# Shear Modulus (GPa) = 30.10930 32.18853 31.14891
#
# Velocity S-wave (km/s) = 3.81037 3.93974 3.87559
# Velocity P-wave (km/s) = 6.89154 7.08601 6.98945
#
# Compressibility (1/GPa) = 0.01713917
#
# Stress axis : x y z
#
# Youngs Moduli (GPa) = 75.44210 89.83369 66.98160
#
# Poissons Ratio (x) = 0.24048 0.19257
# Poissons Ratio (y) = 0.20195 0.37086
# Poissons Ratio (z) = 0.21689 0.49738
#
# Static dielectric constant tensor:
#      x y z
#    x 3.803380 0.000000 0.000000 
#    y 0.000000 4.282150 0.000000 
#    z 0.000000 0.000000 3.686210 
# 
# 
# High freq. dielectric constant tensor:
#      x y z
#    x 1.802850 0.000000 0.000000 
#    y 0.000000 1.829770 0.000000 
#    z 0.000000 0.000000 1.803690 
# 
# From -- ./inp_files/20525.got.cif
#   From: 2010.06.25/outbox.cif.g09.slc.cpg/sg43_11_cif.got.tgz:20525.got - 2010.06.26 16:48:59.
