data_PCOD8187693
_publ_section_title
;
Structure prediction by ZEFSAII (Michael W. Deem and Ramdas Pophale) SiO2 
 PCOD8187693
Probable space group: F D D 2
;
_chemical_formula_sum "Si O2"
_cell_formula_units_Z 64
_cell_length_a 10.856074
_cell_length_b 10.855983
_cell_length_c 26.897222
_cell_angle_alpha 90.000000
_cell_angle_beta 90.000000
_cell_angle_gamma 90.000000
_cell_volume 3169.927847
_symmetry_space_group_name_H-M "F D D 2"
_symmetry_group_IT_number 43
_symmetry_cell_setting 'orthorhombic'
loop_
_space_group_symop_operation_xyz
x,y,z
-x,-y,z
1/4-x,1/4+y,1/4+z
1/4+x,1/4-y,1/4+z
x,1/2+y,1/2+z
-x,1/2-y,1/2+z
1/4-x,3/4+y,3/4+z
1/4+x,3/4-y,3/4+z
1/2+x,y,1/2+z
1/2-x,-y,1/2+z
3/4-x,1/4+y,3/4+z
3/4+x,1/4-y,3/4+z
1/2+x,1/2+y,z
1/2-x,1/2-y,z
3/4-x,3/4+y,1/4+z
3/4+x,3/4-y,1/4+z
loop_
_atom_site_type_symbol
_atom_site_label
_atom_site_fract_x
_atom_site_fract_y
_atom_site_fract_z
Si Si1 0.249728 0.946200 0.062650
Si Si2 0.803797 0.499633 0.812663
Si Si3 0.601095 0.601060 0.885450
Si Si4 0.348113 0.348147 0.995934
O O1 0.367925 0.867860 0.044179
O O2 0.144910 0.855148 0.084072
O O3 0.289313 0.037077 0.106253
O O4 0.193255 0.018722 0.015867
O O5 0.712964 0.539189 0.856286
O O6 0.731245 0.443126 0.765894
O O7 0.500000 0.500000 0.897969
O O8 0.653155 0.653173 0.936755
O O9 0.250000 0.250000 0.016879
#
# Coordination Sequence:
#
# PCOD8187693 Si02
#       4
#    16  16  16  16
#     4  11  23  42  66  94 133 173 218 280 328 393
#     4  11  23  42  66  94 133 173 218 280 328 393
#     4  12  24  42  68  97 133 180 221 277 334 394
#     4  12  24  42  68  97 133 180 221 277 334 394
#
# _framework density 20.189733
#
# number of rings (size 3 to 8) (size 9 to 14) (size 15 to 20)
#    0.000    0.500    5.000    4.500    0.000    2.000 
#    0.000    0.000    0.000    0.000    0.000    0.000 
#    0.000    0.000    0.000    0.000    0.000    0.000 
#
# Total GULP energy -198473.382278 kJ/mol
# GULP energy per Si atom -12404.586392 kJ/mol
# Density = 2.014378 g / cm^3
# Si number density = 20.189733 Si / 1000 Ang^3
#
#
#
# Elastic Constant Matrix: (Units=GPa)
#
#
# Indices 1 2 3 4 5 6 
#
# 1 122.3990 56.6613 34.9602 0.0000 0.0000 0.0000
# 2 56.6613 122.3308 34.9274 0.0000 0.0000 0.0000
# 3 34.9602 34.9274 114.6636 0.0000 0.0000 0.0000
# 4 0.0000 0.0000 0.0000 23.7841 0.0000 0.0000
# 5 0.0000 0.0000 0.0000 0.0000 23.7645 0.0000
# 6 0.0000 0.0000 0.0000 0.0000 0.0000 53.8946
#
#
#
# Elastic Compliance Matrix: (Units=1/GPa)
#
#
# Indices 1 2 3 4 5 6 
#
# 1 0.010778 -0.004440 -0.001934 0.000000 0.000000 0.000000
# 2 -0.004440 0.010782 -0.001931 0.000000 0.000000 0.000000
# 3 -0.001934 -0.001931 0.009899 0.000000 0.000000 0.000000
# 4 0.000000 0.000000 0.000000 0.042045 0.000000 0.000000
# 5 0.000000 0.000000 0.000000 0.000000 0.042080 0.000000
# 6 0.000000 0.000000 0.000000 0.000000 0.000000 0.018555
#
#
# Mechanical properties :
#
#
# Convention : Reuss Voigt Hill
#
# Bulk Modulus (GPa) = 67.33848 68.05458 67.69653
# Shear Modulus (GPa) = 32.11378 35.81161 33.96270
#
# Velocity S-wave (km/s) = 3.99256 4.21616 4.10588
# Velocity P-wave (km/s) = 7.39454 7.58169 7.48870
#
# Compressibility (1/GPa) = 0.01485035
#
# Stress axis : x y z
#
# Youngs Moduli (GPa) = 92.78487 92.74482 101.02237
#
# Poissons Ratio (x) = 0.41178 0.19534
# Poissons Ratio (y) = 0.41196 0.19504
# Poissons Ratio (z) = 0.17941 0.17906
#
# Static dielectric constant tensor:
#      x y z
#    x 4.052400 0.000000 0.000000 
#    y 0.000000 4.052510 0.000000 
#    z 0.000000 0.000000 3.330190 
# 
# 
# High freq. dielectric constant tensor:
#      x y z
#    x 1.811910 0.000000 0.000000 
#    y 0.000000 1.811910 0.000000 
#    z 0.000000 0.000000 1.766270 
# 
# From -- ./inp_files/20811.got.cif
#   From: 2010.06.25/outbox.cif.g09.slc.cpg/sg43_11_cif.got.tgz:20811.got - 2010.06.26 16:48:59.
