data_PCOD8187653
_publ_section_title
;
Structure prediction by ZEFSAII (Michael W. Deem and Ramdas Pophale) SiO2 
 PCOD8187653
Probable space group: F D D 2
;
_chemical_formula_sum "Si O2"
_cell_formula_units_Z 96
_cell_length_a 15.945028
_cell_length_b 15.847704
_cell_length_c 19.630943
_cell_angle_alpha 90.000000
_cell_angle_beta 90.000000
_cell_angle_gamma 90.000000
_cell_volume 4960.583898
_symmetry_space_group_name_H-M "F D D 2"
_symmetry_group_IT_number 43
_symmetry_cell_setting 'orthorhombic'
loop_
_space_group_symop_operation_xyz
x,y,z
-x,-y,z
1/4-x,1/4+y,1/4+z
1/4+x,1/4-y,1/4+z
x,1/2+y,1/2+z
-x,1/2-y,1/2+z
1/4-x,3/4+y,3/4+z
1/4+x,3/4-y,3/4+z
1/2+x,y,1/2+z
1/2-x,-y,1/2+z
3/4-x,1/4+y,3/4+z
3/4+x,1/4-y,3/4+z
1/2+x,1/2+y,z
1/2-x,1/2-y,z
3/4-x,3/4+y,1/4+z
3/4+x,3/4-y,1/4+z
loop_
_atom_site_type_symbol
_atom_site_label
_atom_site_fract_x
_atom_site_fract_y
_atom_site_fract_z
Si Si1 0.434281 0.932848 0.527030
Si Si2 0.994186 0.640454 0.931906
Si Si3 0.501802 0.739546 0.806153
Si Si4 0.267466 0.999682 0.315005
Si Si5 0.814717 0.679638 0.118247
Si Si6 0.362997 0.995981 0.929186
O O1 0.344694 0.970031 0.544679
O O2 0.449519 0.844807 0.563639
O O3 0.449440 0.917924 0.447741
O O4 0.500000 0.000000 0.556429
O O5 0.985705 0.685685 0.859619
O O6 0.077651 0.584998 0.930916
O O7 0.913530 0.581752 0.944037
O O8 0.998849 0.710736 0.990716
O O9 0.548872 0.657110 0.830851
O O10 0.542011 0.769201 0.735490
O O11 0.338511 0.949155 0.355089
O O12 0.180294 0.995366 0.355600
O O13 0.750000 0.750000 0.089237
#
# Coordination Sequence:
#
# PCOD8187653 Si02
#       6
#    16  16  16  16  16  16
#     4  11  24  41  63  95 131 167 205 254 319 381
#     4  11  25  43  64  92 126 166 211 261 316 377
#     4  12  22  42  67  93 126 164 210 260 319 376
#     4  12  22  42  67  93 126 164 210 260 319 376
#     4  11  22  38  64  96 126 159 204 265 310 372
#     4  11  25  43  64  92 126 166 211 261 316 377
#
# _framework density 19.352561000000001
#
# number of rings (size 3 to 8) (size 9 to 14) (size 15 to 20)
#    0.000    0.667    6.667    2.000    0.000    0.000 
#    3.000    1.667    0.000    0.000    0.000    0.000 
#    0.000    0.000    0.000    0.000    0.000    0.000 
#
# Total GULP energy -297736.979934 kJ/mol
# GULP energy per Si atom -12405.707497 kJ/mol
# Density = 1.930851 g / cm^3
# Si number density = 19.352561 Si / 1000 Ang^3
#
#
#
# Elastic Constant Matrix: (Units=GPa)
#
#
# Indices 1 2 3 4 5 6 
#
# 1 130.1138 44.6895 32.6066 0.0000 0.0000 0.0000
# 2 44.6895 103.4641 31.0731 0.0000 0.0000 0.0000
# 3 32.6066 31.0731 88.5290 0.0000 0.0000 0.0000
# 4 0.0000 0.0000 0.0000 30.7796 0.0000 0.0000
# 5 0.0000 0.0000 0.0000 0.0000 36.4284 0.0000
# 6 0.0000 0.0000 0.0000 0.0000 0.0000 26.5970
#
#
#
# Elastic Compliance Matrix: (Units=1/GPa)
#
#
# Indices 1 2 3 4 5 6 
#
# 1 0.009419 -0.003383 -0.002282 0.000000 0.000000 0.000000
# 2 -0.003383 0.012019 -0.002973 0.000000 0.000000 0.000000
# 3 -0.002282 -0.002973 0.013180 0.000000 0.000000 0.000000
# 4 0.000000 0.000000 0.000000 0.032489 0.000000 0.000000
# 5 0.000000 0.000000 0.000000 0.000000 0.027451 0.000000
# 6 0.000000 0.000000 0.000000 0.000000 0.000000 0.037598
#
#
# Mechanical properties :
#
#
# Convention : Reuss Voigt Hill
#
# Bulk Modulus (GPa) = 57.66045 59.87167 58.76606
# Shear Modulus (GPa) = 32.21383 33.01020 32.61202
#
# Velocity S-wave (km/s) = 4.08435 4.13453 4.10951
# Velocity P-wave (km/s) = 7.21817 7.33464 7.27664
#
# Compressibility (1/GPa) = 0.01734291
#
# Stress axis : x y z
#
# Youngs Moduli (GPa) = 106.16343 83.19975 75.87532
#
# Poissons Ratio (x) = 0.28149 0.17313
# Poissons Ratio (y) = 0.35918 0.22554
# Poissons Ratio (z) = 0.24225 0.24732
#
# Static dielectric constant tensor:
#      x y z
#    x 3.621010 0.000000 0.000000 
#    y 0.000000 3.685660 0.000000 
#    z 0.000000 0.000000 3.540290 
# 
# 
# High freq. dielectric constant tensor:
#      x y z
#    x 1.766450 0.000000 0.000000 
#    y 0.000000 1.764690 0.000000 
#    z 0.000000 0.000000 1.756540 
# 
# From -- ./inp_files/14238.got.cif
#   From: 2010.06.25/outbox.cif.g09.slc.cpg/sg43_8_cif.got.tgz:14238.got - 2010.06.26 16:48:59.
