data_PCOD8187684
_publ_section_title
;
Structure prediction by ZEFSAII (Michael W. Deem and Ramdas Pophale) SiO2 
 PCOD8187684
Probable space group: F D D 2
;
_chemical_formula_sum "Si O2"
_cell_formula_units_Z 96
_cell_length_a 15.696294
_cell_length_b 25.842128
_cell_length_c 10.339452
_cell_angle_alpha 90.000000
_cell_angle_beta 90.000000
_cell_angle_gamma 90.000000
_cell_volume 4193.946821
_symmetry_space_group_name_H-M "F D D 2"
_symmetry_group_IT_number 43
_symmetry_cell_setting 'orthorhombic'
loop_
_space_group_symop_operation_xyz
x,y,z
-x,-y,z
1/4-x,1/4+y,1/4+z
1/4+x,1/4-y,1/4+z
x,1/2+y,1/2+z
-x,1/2-y,1/2+z
1/4-x,3/4+y,3/4+z
1/4+x,3/4-y,3/4+z
1/2+x,y,1/2+z
1/2-x,-y,1/2+z
3/4-x,1/4+y,3/4+z
3/4+x,1/4-y,3/4+z
1/2+x,1/2+y,z
1/2-x,1/2-y,z
3/4-x,3/4+y,1/4+z
3/4+x,3/4-y,1/4+z
loop_
_atom_site_type_symbol
_atom_site_label
_atom_site_fract_x
_atom_site_fract_y
_atom_site_fract_z
Si Si1 0.250000 0.750000 0.195521
Si Si2 0.120915 0.328102 0.613573
Si Si3 0.100514 0.323070 0.128552
Si Si4 0.153289 0.689196 0.400317
Si Si5 0.972032 0.715041 0.374190
Si Si6 0.250768 0.075924 0.612959
Si Si7 0.750000 0.750000 0.100086
O O1 0.175756 0.775461 0.111984
O O2 0.210548 0.702456 0.276317
O O3 0.072219 0.323045 0.477345
O O4 0.055081 0.330394 0.732476
O O5 0.182451 0.377419 0.618750
O O6 0.132324 0.381122 0.152240
O O7 0.027333 0.311660 0.233261
O O8 0.173651 0.280898 0.171176
O O9 0.063865 0.322351 0.984151
O O10 0.212328 0.701899 0.521155
O O11 0.070649 0.725083 0.410218
O O12 0.939369 0.774511 0.365271
#
# Coordination Sequence:
#
# PCOD8187684 Si02
#       7
#     8  16  16  16  16  16   8
#     4  11  22  47  76 104 144 190 252 288 366 450
#     4  12  29  47  74 114 147 191 242 314 365 438
#     4  12  26  44  77 105 139 200 243 300 360 449
#     4  11  23  44  73 104 140 196 244 294 355 448
#     4  12  28  46  74 106 153 187 239 308 372 424
#     4  12  27  50  75 106 147 194 247 296 368 443
#     4  11  24  45  70 108 146 184 252 302 360 436
#
# _framework density 22.890132999999999
#
# number of rings (size 3 to 8) (size 9 to 14) (size 15 to 20)
#    0.000    0.333    5.000    3.000    7.000    2.000 
#    0.000    0.000    0.000    0.000    0.000    0.000 
#    0.000    0.000    0.000    0.000    0.000    0.000 
#
# Total GULP energy -297395.059616 kJ/mol
# GULP energy per Si atom -12391.460817 kJ/mol
# Density = 2.283803 g / cm^3
# Si number density = 22.890133 Si / 1000 Ang^3
#
#
#
# Elastic Constant Matrix: (Units=GPa)
#
#
# Indices 1 2 3 4 5 6 
#
# 1 94.2097 34.8297 34.2487 0.0000 0.0000 0.0000
# 2 34.8297 146.5747 40.9828 0.0000 0.0000 0.0000
# 3 34.2487 40.9828 100.8987 0.0001 0.0000 0.0000
# 4 0.0000 0.0000 0.0001-4073.9614 0.0000 0.0000
# 5 0.0000 0.0000 0.0000 0.0000 28.6802 0.0000
# 6 0.0000 0.0000 0.0000 0.0000 0.0000 52.5875
#
#
#
# Elastic Compliance Matrix: (Units=1/GPa)
#
#
# Indices 1 2 3 4 5 6 
#
# 1 0.012624 -0.002032 -0.003459 0.000000 0.000000 0.000000
# 2 -0.002032 0.008024 -0.002569 0.000000 0.000000 0.000000
# 3 -0.003459 -0.002569 0.012129 0.000000 0.000000 0.000000
# 4 0.000000 0.000000 0.000000 -0.000245 0.000000 0.000000
# 5 0.000000 0.000000 0.000000 0.000000 0.034867 0.000000
# 6 0.000000 0.000000 0.000000 0.000000 0.000000 0.019016
#
#
# Mechanical properties :
#
#
# Convention : Reuss Voigt Hill
#
# Bulk Modulus (GPa) = 60.04532 62.42286 61.23409
# Shear Modulus (GPa) = 46.25889 -783.09730 -368.41921
#
# Velocity S-wave (km/s) = 4.50033 -18.51632 -12.70041
# Velocity P-wave (km/s) = 7.30020 20.73183 13.72071
#
# Compressibility (1/GPa) = 0.01665409
#
# Stress axis : x y z
#
# Youngs Moduli (GPa) = 79.21647 124.62970 82.44889
#
# Poissons Ratio (x) = 0.25330 0.28522
# Poissons Ratio (y) = 0.16100 0.21183
# Poissons Ratio (z) = 0.27404 0.32020
#
# Static dielectric constant tensor:
#      x y z
#    x 4.073950 0.000000 0.000000 
#    y 0.000000 4.603120 0.000000 
#    z 0.000000 0.000000 3.950790 
# 
# 
# High freq. dielectric constant tensor:
#      x y z
#    x 1.906690 0.000000 0.000000 
#    y 0.000000 1.925890 0.000000 
#    z 0.000000 0.000000 1.891630 
# 
# From -- ./inp_files/6300.got.cif
#   From: 2010.06.25/outbox.cif.g09.slc.cpg/sg43_4_cif.got.tgz:6300.got - 2010.06.26 16:48:59.
