data_PCOD8187359
_publ_section_title
;
Structure prediction by ZEFSAII (Michael W. Deem and Ramdas Pophale) SiO2 
 PCOD8187359
Probable space group: F D D 2
;
_chemical_formula_sum "Si O2"
_cell_formula_units_Z 120
_cell_length_a 24.632952
_cell_length_b 22.847803
_cell_length_c 10.361396
_cell_angle_alpha 90.000000
_cell_angle_beta 90.000000
_cell_angle_gamma 90.000000
_cell_volume 5831.485208
_symmetry_space_group_name_H-M "F D D 2"
_symmetry_group_IT_number 43
_symmetry_cell_setting 'orthorhombic'
loop_
_space_group_symop_operation_xyz
x,y,z
-x,-y,z
1/4-x,1/4+y,1/4+z
1/4+x,1/4-y,1/4+z
x,1/2+y,1/2+z
-x,1/2-y,1/2+z
1/4-x,3/4+y,3/4+z
1/4+x,3/4-y,3/4+z
1/2+x,y,1/2+z
1/2-x,-y,1/2+z
3/4-x,1/4+y,3/4+z
3/4+x,1/4-y,3/4+z
1/2+x,1/2+y,z
1/2-x,1/2-y,z
3/4-x,3/4+y,1/4+z
3/4+x,3/4-y,1/4+z
loop_
_atom_site_type_symbol
_atom_site_label
_atom_site_fract_x
_atom_site_fract_y
_atom_site_fract_z
Si Si1 0.250000 0.750000 0.418780
Si Si2 0.352386 0.373674 0.437992
Si Si3 0.696242 0.941220 0.097767
Si Si4 0.904975 0.278280 0.787644
Si Si5 0.016056 0.821686 0.349709
Si Si6 0.213035 0.372093 0.831054
Si Si7 0.440435 0.663660 0.928987
Si Si8 0.648868 0.199044 0.535615
O O1 0.244850 0.810621 0.340797
O O2 0.304825 0.754385 0.501184
O O3 0.358972 0.308805 0.377509
O O4 0.302591 0.376328 0.539122
O O5 0.407516 0.393376 0.507142
O O6 0.337365 0.416484 0.318884
O O7 0.744340 0.918125 0.191054
O O8 0.638170 0.929883 0.164226
O O9 0.701762 0.011038 0.079334
O O10 0.699429 0.905891 0.963369
O O11 0.918428 0.217173 0.848544
O O12 0.886398 0.267334 0.642152
O O13 0.958023 0.319633 0.778124
O O14 0.003063 0.835512 0.499709
O O15 0.426409 0.607203 0.846806
#
# Coordination Sequence:
#
# PCOD8187359 Si02
#       8
#     8  16  16  16  16  16  16  16
#     4  12  26  44  58 100 146 166 218 274 350 410
#     4  10  22  40  64  97 128 169 217 280 341 389
#     4  11  24  40  69  93 128 179 228 279 338 400
#     4   9  22  40  66  96 127 169 231 272 327 413
#     4  10  23  41  68  92 128 169 232 274 336 394
#     4  11  26  42  62 102 130 179 225 282 337 416
#     4  10  22  41  66  94 130 171 230 276 327 417
#     4  11  24  40  64  96 130 179 214 281 339 401
#
# _framework density 20.577947999999999
#
# number of rings (size 3 to 8) (size 9 to 14) (size 15 to 20)
#    0.000    1.600    1.333    1.600   13.067    1.067 
#    0.000    1.333    0.000    0.000    0.000    0.000 
#    0.000    0.000    0.000    0.000    0.000    0.000 
#
# Total GULP energy -371924.756093 kJ/mol
# GULP energy per Si atom -12397.491870 kJ/mol
# Density = 2.053111 g / cm^3
# Si number density = 20.577948 Si / 1000 Ang^3
#
#
#
# Elastic Constant Matrix: (Units=GPa)
#
#
# Indices 1 2 3 4 5 6 
#
# 1 97.2661 38.3242 39.2980 0.0004 -0.0003 -0.0001
# 2 38.3242 73.0989 33.6816 0.0011 -0.0007 -0.0003
# 3 39.2980 33.6816 96.3438 0.0026 -0.0015 -0.0007
# 4 0.0004 0.0011 0.0026 25.1270 -0.0009 -0.0005
# 5 -0.0003 -0.0007 -0.0015 -0.0009 42.3718 0.0002
# 6 -0.0001 -0.0003 -0.0007 -0.0005 0.0002 32.4969
#
#
#
# Elastic Compliance Matrix: (Units=1/GPa)
#
#
# Indices 1 2 3 4 5 6 
#
# 1 0.014010 -0.005617 -0.003751 0.000000 0.000000 0.000000
# 2 -0.005617 0.018559 -0.004197 0.000000 0.000000 0.000000
# 3 -0.003751 -0.004197 0.013377 -0.000001 0.000000 0.000000
# 4 0.000000 0.000000 -0.000001 0.039798 0.000001 0.000001
# 5 0.000000 0.000000 0.000000 0.000001 0.023601 0.000000
# 6 0.000000 0.000000 0.000000 0.000001 0.000000 0.030772
#
#
# Mechanical properties :
#
#
# Convention : Reuss Voigt Hill
#
# Bulk Modulus (GPa) = 53.14676 54.36849 53.75763
# Shear Modulus (GPa) = 28.81570 30.35948 29.58759
#
# Velocity S-wave (km/s) = 3.74614 3.84518 3.79599
# Velocity P-wave (km/s) = 6.67792 6.79647 6.73745
#
# Compressibility (1/GPa) = 0.01881582
#
# Stress axis : x y z
#
# Youngs Moduli (GPa) = 71.37995 53.88318 74.75675
#
# Poissons Ratio (x) = 0.30264 0.28040
# Poissons Ratio (y) = 0.40092 0.31376
# Poissons Ratio (z) = 0.26773 0.22615
#
# Static dielectric constant tensor:
#      x y z
#    x 4.030820 0.000000 0.000000 
#    y 0.000000 3.627270 0.000000 
#    z 0.000000 0.000000 3.881100 
# 
# 
# High freq. dielectric constant tensor:
#      x y z
#    x 1.815460 0.000000 0.000000 
#    y 0.000000 1.796710 0.000000 
#    z 0.000000 0.000000 1.809080 
# 
# From -- ./inp_files/4328.got.cif
#   From: 2010.06.25/outbox.cif.g09.slc.cpg/sg43_3_cif.got.tgz:4328.got - 2010.06.26 16:48:59.
