data_PCOD8187342
_publ_section_title
;
Structure prediction by ZEFSAII (Michael W. Deem and Ramdas Pophale) SiO2 
 PCOD8187342
Probable space group: F D D 2
;
_chemical_formula_sum "Si O2"
_cell_formula_units_Z 104
_cell_length_a 15.376800
_cell_length_b 15.250452
_cell_length_c 21.665604
_cell_angle_alpha 90.000000
_cell_angle_beta 90.000000
_cell_angle_gamma 90.000000
_cell_volume 5080.652391
_symmetry_space_group_name_H-M "F D D 2"
_symmetry_group_IT_number 43
_symmetry_cell_setting 'orthorhombic'
loop_
_space_group_symop_operation_xyz
x,y,z
-x,-y,z
1/4-x,1/4+y,1/4+z
1/4+x,1/4-y,1/4+z
x,1/2+y,1/2+z
-x,1/2-y,1/2+z
1/4-x,3/4+y,3/4+z
1/4+x,3/4-y,3/4+z
1/2+x,y,1/2+z
1/2-x,-y,1/2+z
3/4-x,1/4+y,3/4+z
3/4+x,1/4-y,3/4+z
1/2+x,1/2+y,z
1/2-x,1/2-y,z
3/4-x,3/4+y,1/4+z
3/4+x,3/4-y,1/4+z
loop_
_atom_site_type_symbol
_atom_site_label
_atom_site_fract_x
_atom_site_fract_y
_atom_site_fract_z
Si Si1 0.533774 0.341240 0.150940
Si Si2 0.823357 0.182414 0.799140
Si Si3 0.301660 0.543276 0.121016
Si Si4 0.293663 0.344204 0.528971
Si Si5 0.000000 0.000000 0.648690
Si Si6 0.020033 0.673139 0.074803
Si Si7 0.422791 0.766546 0.471446
O O1 0.457462 0.383281 0.110872
O O2 0.619347 0.400605 0.147375
O O3 0.509094 0.344358 0.223053
O O4 0.547971 0.242004 0.128187
O O5 0.750000 0.250000 0.776320
O O6 0.913600 0.228832 0.817295
O O7 0.839010 0.117127 0.742248
O O8 0.233287 0.611252 0.092810
O O9 0.253380 0.488343 0.174063
O O10 0.250000 0.250000 0.521339
O O11 0.397799 0.339265 0.529869
O O12 0.915986 0.983687 0.690836
O O13 0.986225 0.083987 0.605210
O O14 0.941738 0.707526 0.031758
#
# Coordination Sequence:
#
# PCOD8187342 Si02
#       7
#    16  16  16  16   8  16  16
#     4  10  22  39  66  98 133 162 213 270 322 377
#     4   9  22  40  64  99 132 168 211 262 319 386
#     4  11  21  40  68  97 128 172 213 266 329 373
#     4  12  22  38  70 100 127 167 215 271 323 375
#     4  12  28  46  64  92 128 176 216 258 334 394
#     4  11  25  45  64  97 129 169 215 270 323 391
#     4  11  25  46  65  92 133 167 218 270 318 396
#
# _framework density 20.469811
#
# number of rings (size 3 to 8) (size 9 to 14) (size 15 to 20)
#    0.000    1.231    4.615    1.385    2.154    2.462 
#    4.154    0.000    0.000    0.000    0.000    0.000 
#    0.000    0.000    0.000    0.000    0.000    0.000 
#
# Total GULP energy -322470.701712 kJ/mol
# GULP energy per Si atom -12402.719297 kJ/mol
# Density = 2.042322 g / cm^3
# Si number density = 20.469811 Si / 1000 Ang^3
#
#
#
# Elastic Constant Matrix: (Units=GPa)
#
#
# Indices 1 2 3 4 5 6 
#
# 1 91.3813 29.9626 27.9677 0.0000 0.0000 0.0000
# 2 29.9626 111.9018 50.2282 0.0000 0.0000 0.0000
# 3 27.9677 50.2282 99.3897 0.0000 0.0000 0.0000
# 4 0.0000 0.0000 0.0000 34.8999 0.0000 0.0000
# 5 0.0000 0.0000 0.0000 0.0000 6.1912 0.0000
# 6 0.0000 0.0000 0.0000 0.0000 0.0000 24.7234
#
#
#
# Elastic Compliance Matrix: (Units=1/GPa)
#
#
# Indices 1 2 3 4 5 6 
#
# 1 0.012405 -0.002269 -0.002344 0.000000 0.000000 0.000000
# 2 -0.002269 0.011973 -0.005412 0.000000 0.000000 0.000000
# 3 -0.002344 -0.005412 0.013456 0.000000 0.000000 0.000000
# 4 0.000000 0.000000 0.000000 0.028653 0.000000 0.000000
# 5 0.000000 0.000000 0.000000 0.000000 0.161520 0.000000
# 6 0.000000 0.000000 0.000000 0.000000 0.000000 0.040447
#
#
# Mechanical properties :
#
#
# Convention : Reuss Voigt Hill
#
# Bulk Modulus (GPa) = 56.23294 57.66556 56.94925
# Shear Modulus (GPa) = 16.98177 26.13052 21.55615
#
# Velocity S-wave (km/s) = 2.88340 3.57675 3.24862
# Velocity P-wave (km/s) = 6.21419 6.72976 6.47711
#
# Compressibility (1/GPa) = 0.01778317
#
# Stress axis : x y z
#
# Youngs Moduli (GPa) = 80.61548 83.51793 74.31550
#
# Poissons Ratio (x) = 0.18954 0.17417
# Poissons Ratio (y) = 0.18295 0.40222
# Poissons Ratio (z) = 0.18894 0.45203
#
# Static dielectric constant tensor:
#      x y z
#    x 3.604440 0.000000 0.000000 
#    y 0.000000 3.761330 0.000000 
#    z 0.000000 0.000000 3.682640 
# 
# 
# High freq. dielectric constant tensor:
#      x y z
#    x 1.794410 0.000000 0.000000 
#    y 0.000000 1.800970 0.000000 
#    z 0.000000 0.000000 1.804930 
# 
# From -- ./inp_files/18003.got.cif
#   From: 2010.06.25/outbox.cif.g09.slc.cpg/sg43_10_cif.got.tgz:18003.got - 2010.06.26 16:48:59.
