data_PCOD8187383
_publ_section_title
;
Structure prediction by ZEFSAII (Michael W. Deem and Ramdas Pophale) SiO2 
 PCOD8187383
Probable space group: F D D 2
;
_chemical_formula_sum "Si O2"
_cell_formula_units_Z 88
_cell_length_a 30.727155
_cell_length_b 19.110509
_cell_length_c 7.227689
_cell_angle_alpha 90.000000
_cell_angle_beta 90.000000
_cell_angle_gamma 90.000000
_cell_volume 4244.182621
_symmetry_space_group_name_H-M "F D D 2"
_symmetry_group_IT_number 43
_symmetry_cell_setting 'orthorhombic'
loop_
_space_group_symop_operation_xyz
x,y,z
-x,-y,z
1/4-x,1/4+y,1/4+z
1/4+x,1/4-y,1/4+z
x,1/2+y,1/2+z
-x,1/2-y,1/2+z
1/4-x,3/4+y,3/4+z
1/4+x,3/4-y,3/4+z
1/2+x,y,1/2+z
1/2-x,-y,1/2+z
3/4-x,1/4+y,3/4+z
3/4+x,1/4-y,3/4+z
1/2+x,1/2+y,z
1/2-x,1/2-y,z
3/4-x,3/4+y,1/4+z
3/4+x,3/4-y,1/4+z
loop_
_atom_site_type_symbol
_atom_site_label
_atom_site_fract_x
_atom_site_fract_y
_atom_site_fract_z
Si Si1 0.463546 0.643086 0.549660
Si Si2 0.750000 0.250000 0.832070
Si Si3 0.414183 0.781022 0.515498
Si Si4 0.214794 0.373880 0.538481
Si Si5 0.065918 0.476008 0.292320
Si Si6 0.553163 0.135711 0.188580
O O1 0.425246 0.699528 0.541832
O O2 0.485189 0.640686 0.345974
O O3 0.444491 0.567197 0.605452
O O4 0.502384 0.660446 0.697372
O O5 0.782853 0.203854 0.955598
O O6 0.717221 0.202920 0.705324
O O7 0.448862 0.824085 0.632259
O O8 0.365774 0.791193 0.593592
O O9 0.418134 0.808023 0.302602
O O10 0.183384 0.380438 0.719992
O O11 0.058998 0.558492 0.269452
#
# Coordination Sequence:
#
# PCOD8187383 Si02
#       6
#    16   8  16  16  16  16
#     4  10  22  41  68  94 132 180 221 267 347 411
#     4  12  20  44  70  92 134 186 230 268 346 428
#     4  12  23  42  66 101 137 166 227 297 339 394
#     4  10  23  41  69  92 128 179 228 268 340 424
#     4  12  22  42  69  96 134 181 224 286 343 410
#     4  10  22  45  66  92 136 178 224 273 346 416
#
# _framework density 20.734262999999999
#
# number of rings (size 3 to 8) (size 9 to 14) (size 15 to 20)
#    1.091    0.000    3.636    3.273    0.000    0.000 
#    9.818    0.000    0.000    0.000    0.000    0.000 
#    0.000    0.000    0.000    0.000    0.000    0.000 
#
# Total GULP energy -272552.678043 kJ/mol
# GULP energy per Si atom -12388.758093 kJ/mol
# Density = 2.068707 g / cm^3
# Si number density = 20.734263 Si / 1000 Ang^3
#
#
#
# Elastic Constant Matrix: (Units=GPa)
#
#
# Indices 1 2 3 4 5 6 
#
# 1 115.2408 27.9695 36.0437 -0.0001 0.0000 0.0000
# 2 27.9695 89.5985 32.9306 0.0001 0.0000 0.0000
# 3 36.0437 32.9306 102.6459 0.0003 0.0003 0.0001
# 4 -0.0001 0.0001 0.0003 29.3628 0.0001 0.0000
# 5 0.0000 0.0000 0.0003 0.0001 14.2666 -0.0001
# 6 0.0000 0.0000 0.0001 0.0000 -0.0001 26.1528
#
#
#
# Elastic Compliance Matrix: (Units=1/GPa)
#
#
# Indices 1 2 3 4 5 6 
#
# 1 0.010083 -0.002093 -0.002869 0.000000 0.000000 0.000000
# 2 -0.002093 0.013087 -0.003464 0.000000 0.000000 0.000000
# 3 -0.002869 -0.003464 0.011861 0.000000 0.000000 0.000000
# 4 0.000000 0.000000 0.000000 0.034057 0.000000 0.000000
# 5 0.000000 0.000000 0.000000 0.000000 0.070094 0.000000
# 6 0.000000 0.000000 0.000000 0.000000 0.000000 0.038237
#
#
# Mechanical properties :
#
#
# Convention : Reuss Voigt Hill
#
# Bulk Modulus (GPa) = 55.00706 55.70811 55.35758
# Shear Modulus (GPa) = 24.95884 27.99253 26.47569
#
# Velocity S-wave (km/s) = 3.47327 3.67830 3.57726
# Velocity P-wave (km/s) = 6.53238 6.70566 6.61959
#
# Compressibility (1/GPa) = 0.01817948
#
# Stress axis : x y z
#
# Youngs Moduli (GPa) = 99.17860 76.41001 84.31066
#
# Poissons Ratio (x) = 0.15993 0.24189
# Poissons Ratio (y) = 0.20758 0.29202
# Poissons Ratio (z) = 0.28455 0.26466
#
# Static dielectric constant tensor:
#      x y z
#    x 3.656130 0.000000 0.000000 
#    y 0.000000 3.594830 0.000000 
#    z 0.000000 0.000000 3.796120 
# 
# 
# High freq. dielectric constant tensor:
#      x y z
#    x 1.797540 0.000000 0.000000 
#    y 0.000000 1.801550 0.000000 
#    z 0.000000 0.000000 1.805550 
# 
# From -- ./inp_files/4695.got.cif
#   From: 2010.06.25/outbox.cif.g09.slc.cpg/sg43_3_cif.got.tgz:4695.got - 2010.06.26 16:48:59.
