data_PCOD8187874
_publ_section_title
;
Structure prediction by ZEFSAII (Michael W. Deem and Ramdas Pophale) SiO2 
 PCOD8187874
Probable space group: I M M 2
;
_chemical_formula_sum "Si O2"
_cell_formula_units_Z 52
_cell_length_a 9.312143
_cell_length_b 11.979581
_cell_length_c 25.152929
_cell_angle_alpha 90.000000
_cell_angle_beta 90.000000
_cell_angle_gamma 90.000000
_cell_volume 2805.949366
_symmetry_space_group_name_H-M "I M M 2"
_symmetry_group_IT_number 44
_symmetry_cell_setting 'orthorhombic'
loop_
_space_group_symop_operation_xyz
x,y,z
-x,-y,z
-x,y,z
x,-y,z
1/2+x,1/2+y,1/2+z
1/2-x,1/2-y,1/2+z
1/2-x,1/2+y,1/2+z
1/2+x,1/2-y,1/2+z
loop_
_atom_site_type_symbol
_atom_site_label
_atom_site_fract_x
_atom_site_fract_y
_atom_site_fract_z
Si Si1 0.162975 0.000000 0.225721
Si Si2 0.248226 0.000000 0.108525
Si Si3 0.171963 0.721990 0.732188
Si Si4 0.330396 0.375194 0.327962
Si Si5 0.159470 0.742378 0.615559
Si Si6 0.329638 0.281587 0.439547
Si Si7 0.158357 0.000000 0.994271
Si Si8 0.168522 0.870134 0.514866
O O1 0.153770 0.000000 0.161660
O O2 0.249018 0.107110 0.247224
O O3 0.000000 0.000000 0.247725
O O4 0.346851 0.109573 0.105612
O O5 0.144758 0.000000 0.057719
O O6 0.221814 0.814338 0.774473
O O7 0.226918 0.764670 0.674073
O O8 0.000000 0.701148 0.732120
O O9 0.500000 0.386478 0.327502
O O10 0.262943 0.500000 0.330721
O O11 0.283987 0.300570 0.378399
O O12 0.236538 0.808243 0.567210
O O13 0.000000 0.791103 0.616758
O O14 0.500000 0.264799 0.446349
O O15 0.267511 0.387735 0.472625
O O16 0.249677 0.172960 0.462241
O O17 0.000000 0.000000 0.968566
O O18 0.000000 0.844417 0.508333
O O19 0.200242 0.000000 0.521157
#
# Coordination Sequence:
#
# PCOD8187874 Si02
#       8
#     4   4   8   8   8   8   4   8
#     4  10  20  33  50  75 108 141 173 208 248 305
#     4  10  16  28  49  75 100 134 168 208 250 302
#     4   9  18  33  54  78 103 134 171 214 258 304
#     4   9  17  32  56  82 103 125 165 219 266 303
#     4   9  17  29  48  75 103 132 167 208 254 300
#     4  10  19  34  55  78 103 130 166 212 259 306
#     4  10  17  27  49  78 103 127 156 204 259 301
#     4  10  21  36  51  72 106 142 172 206 250 306
#
# _framework density 18.532052
#
# number of rings (size 3 to 8) (size 9 to 14) (size 15 to 20)
#    0.000    2.462    2.308    0.692    0.000    2.769 
#    1.385    4.231    0.000    1.385    0.000    0.000 
#    0.000    0.000    0.000    0.000    0.000    0.000 
#
# Total GULP energy -322233.923059 kJ/mol
# GULP energy per Si atom -12393.612425 kJ/mol
# Density = 1.848987 g / cm^3
# Si number density = 18.532052 Si / 1000 Ang^3
#
#
#
# Elastic Constant Matrix: (Units=GPa)
#
#
# Indices 1 2 3 4 5 6 
#
# 1 43.2121 29.2585 22.7968 0.0000 0.0000 0.0000
# 2 29.2585 124.0212 77.5017 0.0000 0.0000 0.0000
# 3 22.7968 77.5017 141.4813 0.0000 0.0000 0.0000
# 4 0.0000 0.0000 0.0000 34.1133 0.0000 0.0000
# 5 0.0000 0.0000 0.0000 0.0000 19.9443 0.0000
# 6 0.0000 0.0000 0.0000 0.0000 0.0000 19.2154
#
#
#
# Elastic Compliance Matrix: (Units=1/GPa)
#
#
# Indices 1 2 3 4 5 6 
#
# 1 0.027708 -0.005697 -0.001344 0.000000 0.000000 0.000000
# 2 -0.005697 0.013431 -0.006440 0.000000 0.000000 0.000000
# 3 -0.001344 -0.006440 0.010812 0.000000 0.000000 0.000000
# 4 0.000000 0.000000 0.000000 0.029314 0.000000 0.000000
# 5 0.000000 0.000000 0.000000 0.000000 0.050140 0.000000
# 6 0.000000 0.000000 0.000000 0.000000 0.000000 0.052042
#
#
# Mechanical properties :
#
#
# Convention : Reuss Voigt Hill
#
# Bulk Modulus (GPa) = 40.01498 63.09208 51.55353
# Shear Modulus (GPa) = 22.85844 26.59843 24.72844
#
# Velocity S-wave (km/s) = 3.51587 3.79260 3.65685
# Velocity P-wave (km/s) = 6.17422 7.30049 6.76085
#
# Compressibility (1/GPa) = 0.02499064
#
# Stress axis : x y z
#
# Youngs Moduli (GPa) = 36.09073 74.45329 92.48898
#
# Poissons Ratio (x) = 0.42416 0.12429
# Poissons Ratio (y) = 0.20561 0.59558
# Poissons Ratio (z) = 0.04850 0.47944
#
# Static dielectric constant tensor:
#      x y z
#    x 2.931550 0.000000 0.000000 
#    y 0.000000 3.436440 0.000000 
#    z 0.000000 0.000000 3.564070 
# 
# 
# High freq. dielectric constant tensor:
#      x y z
#    x 1.670860 0.000000 0.000000 
#    y 0.000000 1.716340 0.000000 
#    z 0.000000 0.000000 1.725750 
# 
# From -- ./inp_files/26124.got.cif
#   From: 2010.03.12/outbox.cif.g09.slc.cpg/sg44_14_cif.got.tgz:26124.got - 2010.04.14 02:36:11.
