data_PCOD8187967
_publ_section_title
;
Structure prediction by ZEFSAII (Michael W. Deem and Ramdas Pophale) SiO2 
 PCOD8187967
Probable space group: I M M 2
;
_chemical_formula_sum "Si O2"
_cell_formula_units_Z 64
_cell_length_a 8.644711
_cell_length_b 15.570893
_cell_length_c 24.095695
_cell_angle_alpha 90.000000
_cell_angle_beta 90.000000
_cell_angle_gamma 90.000000
_cell_volume 3243.421989
_symmetry_space_group_name_H-M "I M M 2"
_symmetry_group_IT_number 44
_symmetry_cell_setting 'orthorhombic'
loop_
_space_group_symop_operation_xyz
x,y,z
-x,-y,z
-x,y,z
x,-y,z
1/2+x,1/2+y,1/2+z
1/2-x,1/2-y,1/2+z
1/2-x,1/2+y,1/2+z
1/2+x,1/2-y,1/2+z
loop_
_atom_site_type_symbol
_atom_site_label
_atom_site_fract_x
_atom_site_fract_y
_atom_site_fract_z
Si Si1 0.182949 0.344138 0.899870
Si Si2 0.183552 0.095063 0.777474
Si Si3 0.683888 0.905434 0.516378
Si Si4 0.683718 0.246849 0.206199
Si Si5 0.821996 0.596847 0.511421
Si Si6 0.684093 0.905044 0.282939
Si Si7 0.817737 0.755916 0.085012
Si Si8 0.182779 0.146867 0.898831
O O1 0.252462 0.386551 0.844259
O O2 0.231306 0.245528 0.902869
O O3 0.000000 0.353459 0.898290
O O4 0.250022 0.391421 0.954251
O O5 0.249962 0.165991 0.734647
O O6 0.243333 0.111446 0.839884
O O7 0.000000 0.102475 0.778333
O O8 0.237342 0.000000 0.758060
O O9 0.500000 0.898668 0.514451
O O10 0.748008 0.831143 0.556637
O O11 0.736808 0.000000 0.537450
O O12 0.500000 0.247813 0.207402
O O13 0.749429 0.165185 0.240101
O O14 0.738813 0.236811 0.144034
O O15 0.799610 0.500000 0.534368
O O16 0.720570 0.661556 0.547900
O O17 0.768465 0.596686 0.447644
O O18 0.000000 0.625105 0.515627
O O19 0.500000 0.898377 0.284894
O O20 0.737327 0.000000 0.263822
O O21 0.000000 0.750880 0.092734
O O22 0.000000 0.133277 0.905650
#
# Coordination Sequence:
#
# PCOD8187967 Si02
#       8
#     8   8   8   8   8   8   8   8
#     4   9  14  25  49  81 110 136 170 213 265 322
#     4   9  17  30  52  81 111 145 184 226 272 324
#     4   9  17  30  51  80 111 138 170 220 275 325
#     4  10  20  35  53  75 107 144 186 229 270 320
#     4  11  24  40  58  82 112 146 183 226 282 342
#     4   9  16  27  48  78 108 136 169 214 265 316
#     4  11  23  39  58  80 107 143 190 235 279 327
#     4  10  17  31  57  87 114 143 182 227 275 326
#
# _framework density 19.732246
#
# number of rings (size 3 to 8) (size 9 to 14) (size 15 to 20)
#    0.000    2.250    2.500    1.500    0.000    4.000 
#    0.000    1.875    0.000    1.875    0.000    0.000 
#    0.000    0.000    0.000    0.000    0.000    0.000 
#
# Total GULP energy -396714.069566 kJ/mol
# GULP energy per Si atom -12397.314674 kJ/mol
# Density = 1.968733 g / cm^3
# Si number density = 19.732246 Si / 1000 Ang^3
#
#
#
# Elastic Constant Matrix: (Units=GPa)
#
#
# Indices 1 2 3 4 5 6 
#
# 1 10.7076 14.5196 0.6940 0.0000 0.0000 0.0000
# 2 14.5196 144.7868 57.1745 0.0000 0.0000 0.0000
# 3 0.6940 57.1745 121.2394 0.0000 0.0000 0.0000
# 4 0.0000 0.0000 0.0000 17.3383 0.0000 0.0000
# 5 0.0000 0.0000 0.0000 0.0000 23.2505 0.0000
# 6 0.0000 0.0000 0.0000 0.0000 0.0000 11.9619
#
#
#
# Elastic Compliance Matrix: (Units=1/GPa)
#
#
# Indices 1 2 3 4 5 6 
#
# 1 0.111183 -0.013392 0.005679 0.000000 0.000000 0.000000
# 2 -0.013392 0.010100 -0.004687 0.000000 0.000000 0.000000
# 3 0.005679 -0.004687 0.010426 0.000000 0.000000 0.000000
# 4 0.000000 0.000000 0.000000 0.057676 0.000000 0.000000
# 5 0.000000 0.000000 0.000000 0.000000 0.043010 0.000000
# 6 0.000000 0.000000 0.000000 0.000000 0.000000 0.083599
#
#
# Mechanical properties :
#
#
# Convention : Reuss Voigt Hill
#
# Bulk Modulus (GPa) = 9.35366 46.83446 28.09406
# Shear Modulus (GPa) = 13.28268 24.13319 18.70793
#
# Velocity S-wave (km/s) = 2.59732 3.50098 3.08245
# Velocity P-wave (km/s) = 3.70747 6.33475 5.19010
#
# Compressibility (1/GPa) = 0.10690997
#
# Stress axis : x y z
#
# Youngs Moduli (GPa) = 8.99415 99.00617 95.91670
#
# Poissons Ratio (x) = 1.32593 -0.54473
# Poissons Ratio (y) = 0.12045 0.44951
# Poissons Ratio (z) = -0.05108 0.46399
#
# Static dielectric constant tensor:
#      x y z
#    x 2.997130 0.000000 0.000000 
#    y 0.000000 3.915520 0.000000 
#    z 0.000000 0.000000 3.673660 
# 
# 
# High freq. dielectric constant tensor:
#      x y z
#    x 1.707640 0.000000 0.000000 
#    y 0.000000 1.788800 0.000000 
#    z 0.000000 0.000000 1.770600 
# 
# From -- ./inp_files/25082.got.cif
#   From: 2010.03.12/outbox.cif.g09.slc.cpg/sg44_13_cif.got.tgz:25082.got - 2010.04.14 02:36:11.
