data_PCOD8187854
_publ_section_title
;
Structure prediction by ZEFSAII (Michael W. Deem and Ramdas Pophale) SiO2 
 PCOD8187854
Probable space group: F D D 2
;
_chemical_formula_sum "Si O2"
_cell_formula_units_Z 88
_cell_length_a 16.272636
_cell_length_b 27.609298
_cell_length_c 7.892366
_cell_angle_alpha 90.000000
_cell_angle_beta 90.000000
_cell_angle_gamma 90.000000
_cell_volume 3545.851073
_symmetry_space_group_name_H-M "F D D 2"
_symmetry_group_IT_number 43
_symmetry_cell_setting 'orthorhombic'
loop_
_space_group_symop_operation_xyz
x,y,z
-x,-y,z
1/4-x,1/4+y,1/4+z
1/4+x,1/4-y,1/4+z
x,1/2+y,1/2+z
-x,1/2-y,1/2+z
1/4-x,3/4+y,3/4+z
1/4+x,3/4-y,3/4+z
1/2+x,y,1/2+z
1/2-x,-y,1/2+z
3/4-x,1/4+y,3/4+z
3/4+x,1/4-y,3/4+z
1/2+x,1/2+y,z
1/2-x,1/2-y,z
3/4-x,3/4+y,1/4+z
3/4+x,3/4-y,1/4+z
loop_
_atom_site_type_symbol
_atom_site_label
_atom_site_fract_x
_atom_site_fract_y
_atom_site_fract_z
Si Si1 0.647561 0.176078 0.616920
Si Si2 0.933003 0.103095 0.511056
Si Si3 0.656500 0.828196 0.551026
Si Si4 0.527285 0.685974 0.594651
Si Si5 0.741989 0.034971 0.982114
Si Si6 0.000000 0.000000 0.091681
O O1 0.684444 0.180253 0.427585
O O2 0.633676 0.120822 0.685843
O O3 0.558685 0.200725 0.590762
O O4 0.707358 0.207642 0.734014
O O5 0.852442 0.099039 0.395973
O O6 0.011489 0.096868 0.390840
O O7 0.940858 0.157139 0.590416
O O8 0.591387 0.814467 0.697949
O O9 0.680740 0.778466 0.451993
O O10 0.524706 0.728055 0.731195
O O11 0.540503 0.705327 0.405798
#
# Coordination Sequence:
#
# PCOD8187854 Si02
#       6
#    16  16  16  16  16   8
#     4  12  29  49  82 121 159 217 270 338 399 498
#     4  12  29  50  81 114 162 207 272 327 408 478
#     4  12  27  53  82 121 160 216 262 346 401 495
#     4  12  28  49  78 116 155 214 257 338 390 489
#     4  12  26  50  81 113 162 201 270 323 412 469
#     4  12  30  52  84 120 174 210 276 336 422 484
#
# _framework density 24.817737999999999
#
# number of rings (size 3 to 8) (size 9 to 14) (size 15 to 20)
#    0.000    0.000    1.818    6.545   10.182    3.636 
#    0.000    0.000    0.000    0.000    0.000    0.000 
#    0.000    0.000    0.000    0.000    0.000    0.000 
#
# Total GULP energy -272676.307565 kJ/mol
# GULP energy per Si atom -12394.377617 kJ/mol
# Density = 2.476125 g / cm^3
# Si number density = 24.817738 Si / 1000 Ang^3
#
#
#
# Elastic Constant Matrix: (Units=GPa)
#
#
# Indices 1 2 3 4 5 6 
#
# 1 109.4181 57.0354 48.3257 0.0000 0.0000 0.0000
# 2 57.0354 135.5710 35.0031 0.0000 0.0001 0.0000
# 3 48.3257 35.0031 124.3449 0.0000 0.0001 0.0000
# 4 0.0000 0.0000 0.0000 29.8623 0.0000 0.0000
# 5 0.0000 0.0001 0.0001 0.0000 33.4396 0.0000
# 6 0.0000 0.0000 0.0000 0.0000 0.0000 51.4193
#
#
#
# Elastic Compliance Matrix: (Units=1/GPa)
#
#
# Indices 1 2 3 4 5 6 
#
# 1 0.013222 -0.004568 -0.003853 0.000000 0.000000 0.000000
# 2 -0.004568 0.009532 -0.000908 0.000000 0.000000 0.000000
# 3 -0.003853 -0.000908 0.009795 0.000000 0.000000 0.000000
# 4 0.000000 0.000000 0.000000 0.033487 0.000000 0.000000
# 5 0.000000 0.000000 0.000000 0.000000 0.029905 0.000000
# 6 0.000000 0.000000 0.000000 0.000000 0.000000 0.019448
#
#
# Mechanical properties :
#
#
# Convention : Reuss Voigt Hill
#
# Bulk Modulus (GPa) = 71.98358 72.22916 72.10637
# Shear Modulus (GPa) = 36.05501 38.20890 37.13195
#
# Velocity S-wave (km/s) = 3.81569 3.92801 3.87225
# Velocity P-wave (km/s) = 6.96279 7.05261 7.00785
#
# Compressibility (1/GPa) = 0.01389206
#
# Stress axis : x y z
#
# Youngs Moduli (GPa) = 75.63231 104.90584 102.09156
#
# Poissons Ratio (x) = 0.47918 0.39333
# Poissons Ratio (y) = 0.34547 0.09271
# Poissons Ratio (z) = 0.29139 0.09527
#
# Static dielectric constant tensor:
#      x y z
#    x 4.614670 0.000000 0.000000 
#    y 0.000000 5.009740 0.000000 
#    z 0.000000 0.000000 4.552780 
# 
# 
# High freq. dielectric constant tensor:
#      x y z
#    x 1.993850 0.000000 0.000000 
#    y 0.000000 2.002170 0.000000 
#    z 0.000000 0.000000 1.997670 
# 
# From -- ./inp_files/2905.got.cif
#   From: 2010.06.25/outbox.cif.g09.slc.cpg/sg43_2_cif.got.tgz:2905.got - 2010.06.26 16:48:59.
