data_PCOD8187458
_publ_section_title
;
Structure prediction by ZEFSAII (Michael W. Deem and Ramdas Pophale) SiO2 
 PCOD8187458
Probable space group: F D D 2
;
_chemical_formula_sum "Si O2"
_cell_formula_units_Z 88
_cell_length_a 14.188357
_cell_length_b 25.477517
_cell_length_c 10.024965
_cell_angle_alpha 90.000000
_cell_angle_beta 90.000000
_cell_angle_gamma 90.000000
_cell_volume 3623.865517
_symmetry_space_group_name_H-M "F D D 2"
_symmetry_group_IT_number 43
_symmetry_cell_setting 'orthorhombic'
loop_
_space_group_symop_operation_xyz
x,y,z
-x,-y,z
1/4-x,1/4+y,1/4+z
1/4+x,1/4-y,1/4+z
x,1/2+y,1/2+z
-x,1/2-y,1/2+z
1/4-x,3/4+y,3/4+z
1/4+x,3/4-y,3/4+z
1/2+x,y,1/2+z
1/2-x,-y,1/2+z
3/4-x,1/4+y,3/4+z
3/4+x,1/4-y,3/4+z
1/2+x,1/2+y,z
1/2-x,1/2-y,z
3/4-x,3/4+y,1/4+z
3/4+x,3/4-y,1/4+z
loop_
_atom_site_type_symbol
_atom_site_label
_atom_site_fract_x
_atom_site_fract_y
_atom_site_fract_z
Si Si1 0.138716 0.442759 0.864970
Si Si2 0.500000 0.000000 0.690709
Si Si3 0.162684 0.319041 0.255256
Si Si4 0.614187 0.886233 0.481684
Si Si5 0.062042 0.807326 0.206055
Si Si6 0.823651 0.407871 0.238081
O O1 0.042884 0.453791 0.782961
O O2 0.185642 0.495341 0.924483
O O3 0.106855 0.403211 0.983724
O O4 0.211815 0.413778 0.765103
O O5 0.410272 0.982051 0.600217
O O6 0.274250 0.328993 0.258838
O O7 0.102205 0.363202 0.331537
O O8 0.125317 0.311059 0.107436
O O9 0.618388 0.838985 0.591188
O O10 0.706393 0.922087 0.478005
O O11 0.109141 0.815439 0.351046
#
# Coordination Sequence:
#
# PCOD8187458 Si02
#       6
#    16   8  16  16  16  16
#     4  12  29  50  78 110 155 203 254 310 386 454
#     4  12  26  48  78 104 142 208 252 302 388 466
#     4  11  24  45  72 110 150 194 249 315 369 446
#     4  10  22  45  78 109 155 199 251 304 377 460
#     4  11  24  48  77 111 150 204 248 315 381 453
#     4  12  28  48  75 113 155 191 261 317 374 452
#
# _framework density 24.283460999999999
#
# number of rings (size 3 to 8) (size 9 to 14) (size 15 to 20)
#    0.000    0.727    1.818    5.455    7.636    2.909 
#    3.273    0.000    0.000    0.000    0.000    0.000 
#    0.000    0.000    0.000    0.000    0.000    0.000 
#
# Total GULP energy -272682.824739 kJ/mol
# GULP energy per Si atom -12394.673852 kJ/mol
# Density = 2.422819 g / cm^3
# Si number density = 24.283461 Si / 1000 Ang^3
#
#
#
# Elastic Constant Matrix: (Units=GPa)
#
#
# Indices 1 2 3 4 5 6 
#
# 1 85.6077 44.1538 45.1600 0.0000 0.0000 0.0000
# 2 44.1538 109.1006 26.3898 0.0000 0.0000 0.0000
# 3 45.1600 26.3898 157.3711 0.0000 0.0000 0.0000
# 4 0.0000 0.0000 0.0000 41.6307 0.0000 0.0000
# 5 0.0000 0.0000 0.0000 0.0000 46.9125 0.0000
# 6 0.0000 0.0000 0.0000 0.0000 0.0000 31.4636
#
#
#
# Elastic Compliance Matrix: (Units=1/GPa)
#
#
# Indices 1 2 3 4 5 6 
#
# 1 0.016704 -0.005838 -0.003815 0.000000 0.000000 0.000000
# 2 -0.005838 0.011593 -0.000269 0.000000 0.000000 0.000000
# 3 -0.003815 -0.000269 0.007494 0.000000 0.000000 0.000000
# 4 0.000000 0.000000 0.000000 0.024021 0.000000 0.000000
# 5 0.000000 0.000000 0.000000 0.000000 0.021316 0.000000
# 6 0.000000 0.000000 0.000000 0.000000 0.000000 0.031783
#
#
# Mechanical properties :
#
#
# Convention : Reuss Voigt Hill
#
# Bulk Modulus (GPa) = 62.69775 64.83184 63.76479
# Shear Modulus (GPa) = 36.21329 39.75974 37.98652
#
# Velocity S-wave (km/s) = 3.86589 4.05077 3.95941
# Velocity P-wave (km/s) = 6.76772 6.97382 6.87154
#
# Compressibility (1/GPa) = 0.01594954
#
# Stress axis : x y z
#
# Youngs Moduli (GPa) = 59.86443 86.25554 133.43705
#
# Poissons Ratio (x) = 0.50353 0.50902
# Poissons Ratio (y) = 0.34947 0.03588
# Poissons Ratio (z) = 0.22836 0.02320
#
# Static dielectric constant tensor:
#      x y z
#    x 4.212060 0.000000 0.000000 
#    y 0.000000 4.316820 0.000000 
#    z 0.000000 0.000000 4.577800 
# 
# 
# High freq. dielectric constant tensor:
#      x y z
#    x 1.962850 0.000000 0.000000 
#    y 0.000000 1.963440 0.000000 
#    z 0.000000 0.000000 1.976660 
# 
# From -- ./inp_files/6155.got.cif
#   From: 2010.06.25/outbox.cif.g09.slc.cpg/sg43_4_cif.got.tgz:6155.got - 2010.06.26 16:48:59.
