data_PCOD8187919
_publ_section_title
;
Structure prediction by ZEFSAII (Michael W. Deem and Ramdas Pophale) SiO2 
 PCOD8187919
Probable space group: I M M 2
;
_chemical_formula_sum "Si O2"
_cell_formula_units_Z 40
_cell_length_a 9.078098
_cell_length_b 9.768488
_cell_length_c 25.618782
_cell_angle_alpha 90.000000
_cell_angle_beta 90.000000
_cell_angle_gamma 90.000000
_cell_volume 2271.855434
_symmetry_space_group_name_H-M "I M M 2"
_symmetry_group_IT_number 44
_symmetry_cell_setting 'orthorhombic'
loop_
_space_group_symop_operation_xyz
x,y,z
-x,-y,z
-x,y,z
x,-y,z
1/2+x,1/2+y,1/2+z
1/2-x,1/2-y,1/2+z
1/2-x,1/2+y,1/2+z
1/2+x,1/2-y,1/2+z
loop_
_atom_site_type_symbol
_atom_site_label
_atom_site_fract_x
_atom_site_fract_y
_atom_site_fract_z
Si Si1 0.674724 0.000000 0.000000
Si Si2 0.828696 0.000000 0.720532
Si Si3 0.324967 0.500000 0.881600
Si Si4 0.825675 0.500000 0.330490
Si Si5 0.667592 0.000000 0.273274
Si Si6 0.674565 0.500000 0.610559
Si Si7 0.325556 0.788936 0.914522
Si Si8 0.829812 0.706076 0.683269
O O1 0.724396 0.134500 0.967271
O O2 0.500000 0.000000 0.011393
O O3 0.766342 0.000000 0.052304
O O4 0.787158 0.865923 0.686908
O O5 0.742222 0.000000 0.773950
O O6 0.000000 0.000000 0.734795
O O7 0.500000 0.500000 0.880693
O O8 0.275186 0.500000 0.821950
O O9 0.264411 0.633638 0.912248
O O10 0.769887 0.367512 0.362739
O O11 0.000000 0.500000 0.324238
O O12 0.700352 0.865091 0.238945
O O13 0.500000 0.000000 0.293412
O O14 0.500000 0.500000 0.610509
O O15 0.730819 0.637102 0.638938
O O16 0.500000 0.791191 0.913437
O O17 0.000000 0.685353 0.667291
#
# Coordination Sequence:
#
# PCOD8187919 Si02
#       8
#     4   4   4   4   4   4   8   8
#     4   9  17  35  56  67  86 123 160 197 247 297
#     4  10  19  31  50  76 103 132 167 203 239 284
#     4  10  17  27  45  71  99 124 159 201 233 271
#     4   9  16  28  45  68 101 137 165 190 231 282
#     4   9  17  29  45  68 101 137 165 190 231 284
#     4  11  22  36  55  76  94 119 162 209 255 302
#     4   8  16  29  47  70  94 125 163 197 231 281
#     4   9  19  35  52  72 100 133 168 202 239 290
#
# _framework density 17.606753000000001
#
# number of rings (size 3 to 8) (size 9 to 14) (size 15 to 20)
#    0.000    2.800    0.000    3.900    0.000    2.400 
#    0.000    4.000    0.000    3.600    0.000    0.000 
#    0.000    0.000    0.000    0.000    0.000    0.000 
#
# Total GULP energy -247931.741673 kJ/mol
# GULP energy per Si atom -12396.587084 kJ/mol
# Density = 1.756668 g / cm^3
# Si number density = 17.606753 Si / 1000 Ang^3
#
#
#
# Elastic Constant Matrix: (Units=GPa)
#
#
# Indices 1 2 3 4 5 6 
#
# 1 58.5660 44.9600 51.4788 0.0000 0.0000 0.0000
# 2 44.9600 179.4030 73.3724 0.0000 0.0000 0.0000
# 3 51.4788 73.3724 122.7144 0.0000 0.0000 0.0000
# 4 0.0000 0.0000 0.0000 9.9483 0.0000 0.0000
# 5 0.0000 0.0000 0.0000 0.0000 30.0379 0.0000
# 6 0.0000 0.0000 0.0000 0.0000 0.0000 13.3277
#
#
#
# Elastic Compliance Matrix: (Units=1/GPa)
#
#
# Indices 1 2 3 4 5 6 
#
# 1 0.028179 -0.002948 -0.010058 0.000000 0.000000 0.000000
# 2 -0.002948 0.007687 -0.003359 0.000000 0.000000 0.000000
# 3 -0.010058 -0.003359 0.014377 0.000000 0.000000 0.000000
# 4 0.000000 0.000000 0.000000 0.100520 0.000000 0.000000
# 5 0.000000 0.000000 0.000000 0.000000 0.033291 0.000000
# 6 0.000000 0.000000 0.000000 0.000000 0.000000 0.075031
#
#
# Mechanical properties :
#
#
# Convention : Reuss Voigt Hill
#
# Bulk Modulus (GPa) = 57.10601 77.81175 67.45888
# Shear Modulus (GPa) = 16.79797 23.38759 20.09278
#
# Velocity S-wave (km/s) = 3.09214 3.64858 3.38183
# Velocity P-wave (km/s) = 6.72704 7.87653 7.32437
#
# Compressibility (1/GPa) = 0.01751129
#
# Stress axis : x y z
#
# Youngs Moduli (GPa) = 35.48696 130.09390 69.55542
#
# Poissons Ratio (x) = 0.38356 0.69962
# Poissons Ratio (y) = 0.10463 0.23365
# Poissons Ratio (z) = 0.35694 0.43701
#
# Static dielectric constant tensor:
#      x y z
#    x 2.984820 0.000000 0.000000 
#    y 0.000000 3.933530 0.000000 
#    z 0.000000 0.000000 3.061700 
# 
# 
# High freq. dielectric constant tensor:
#      x y z
#    x 1.653310 0.000000 0.000000 
#    y 0.000000 1.693930 0.000000 
#    z 0.000000 0.000000 1.664450 
# 
# From -- ./inp_files/26002.got.cif
#   From: 2010.03.12/outbox.cif.g09.slc.cpg/sg44_14_cif.got.tgz:26002.got - 2010.04.14 02:36:11.
