data_PCOD8187833
_publ_section_title
;
Structure prediction by ZEFSAII (Michael W. Deem and Ramdas Pophale) SiO2 
 PCOD8187833
Probable space group: F D D 2
;
_chemical_formula_sum "Si O2"
_cell_formula_units_Z 56
_cell_length_a 5.079705
_cell_length_b 23.571528
_cell_length_c 16.055367
_cell_angle_alpha 90.000000
_cell_angle_beta 90.000000
_cell_angle_gamma 90.000000
_cell_volume 1922.411984
_symmetry_space_group_name_H-M "F D D 2"
_symmetry_group_IT_number 43
_symmetry_cell_setting 'orthorhombic'
loop_
_space_group_symop_operation_xyz
x,y,z
-x,-y,z
1/4-x,1/4+y,1/4+z
1/4+x,1/4-y,1/4+z
x,1/2+y,1/2+z
-x,1/2-y,1/2+z
1/4-x,3/4+y,3/4+z
1/4+x,3/4-y,3/4+z
1/2+x,y,1/2+z
1/2-x,-y,1/2+z
3/4-x,1/4+y,3/4+z
3/4+x,1/4-y,3/4+z
1/2+x,1/2+y,z
1/2-x,1/2-y,z
3/4-x,3/4+y,1/4+z
3/4+x,3/4-y,1/4+z
loop_
_atom_site_type_symbol
_atom_site_label
_atom_site_fract_x
_atom_site_fract_y
_atom_site_fract_z
Si Si1 0.827084 0.593705 0.791020
Si Si2 0.750000 0.750000 0.261083
Si Si3 0.500000 0.000000 0.899506
Si Si4 0.095273 0.332648 0.383821
Si Si5 0.250000 0.750000 0.465237
O O1 0.984863 0.614968 0.706696
O O2 0.675726 0.638904 0.849620
O O3 0.584623 0.552789 0.770933
O O4 0.041199 0.556888 0.843247
O O5 0.499517 0.760166 0.205385
O O6 0.789339 0.811324 0.309833
O O7 0.999421 0.270188 0.412350
#
# Coordination Sequence:
#
# PCOD8187833 Si02
#       5
#    16   8   8  16   8
#     4  12  29  55  90 129 180 241 303 382 471 556
#     4  12  28  56  89 129 180 232 302 386 458 556
#     4  12  28  56  89 129 180 232 302 386 458 556
#     4  12  29  55  90 129 180 241 303 382 471 556
#     4  12  24  56  88 120 188 222 302 378 450 540
#
# _framework density 29.130072999999999
#
# number of rings (size 3 to 8) (size 9 to 14) (size 15 to 20)
#    0.000    0.000    5.714    1.714    4.000    9.143 
#    0.000    5.714    0.000    0.000    0.000    0.000 
#    0.000    0.000    0.000    0.000    0.000    0.000 
#
# Total GULP energy -173441.349071 kJ/mol
# GULP energy per Si atom -12388.667791 kJ/mol
# Density = 2.906377 g / cm^3
# Si number density = 29.130073 Si / 1000 Ang^3
#
#
#
# Elastic Constant Matrix: (Units=GPa)
#
#
# Indices 1 2 3 4 5 6 
#
# 1 142.0484 7.5360 72.2245 0.0000 0.0000 0.0000
# 2 7.5360 62.3847 50.1349 0.0000 0.0000 0.0000
# 3 72.2245 50.1349 172.3525 0.0000 0.0000 0.0000
# 4 0.0000 0.0000 0.0000 734.3825 0.0000 0.0000
# 5 0.0000 0.0000 0.0000 0.0000 80.6083 0.0000
# 6 0.0000 0.0000 0.0000 0.0000 0.0000 57.9425
#
#
#
# Elastic Compliance Matrix: (Units=1/GPa)
#
#
# Indices 1 2 3 4 5 6 
#
# 1 0.009261 0.002610 -0.004640 0.000000 0.000000 0.000000
# 2 0.002610 0.021656 -0.007393 0.000000 0.000000 0.000000
# 3 -0.004640 -0.007393 0.009897 0.000000 0.000000 0.000000
# 4 0.000000 0.000000 0.000000 0.001362 0.000000 0.000000
# 5 0.000000 0.000000 0.000000 0.000000 0.012406 0.000000
# 6 0.000000 0.000000 0.000000 0.000000 0.000000 0.017259
#
#
# Mechanical properties :
#
#
# Convention : Reuss Voigt Hill
#
# Bulk Modulus (GPa) = 45.52185 70.73071 58.12628
# Shear Modulus (GPa) = 51.01662 191.04599 121.03130
#
# Velocity S-wave (km/s) = 4.18944 8.10717 6.45281
# Velocity P-wave (km/s) = 6.25003 10.58152 8.68998
#
# Compressibility (1/GPa) = 0.02196747
#
# Stress axis : x y z
#
# Youngs Moduli (GPa) = 107.98508 46.17723 101.04103
#
# Poissons Ratio (x) = -0.12053 0.46882
# Poissons Ratio (y) = -0.28186 0.74701
# Poissons Ratio (z) = 0.50104 0.34139
#
# Static dielectric constant tensor:
#      x y z
#    x 4.852050 0.000000 0.000000 
#    y 0.000000 3.533820 0.000000 
#    z 0.000000 0.000000 6.149600 
# 
# 
# High freq. dielectric constant tensor:
#      x y z
#    x 2.196950 0.000000 0.000000 
#    y 0.000000 2.183110 0.000000 
#    z 0.000000 0.000000 2.204300 
# 
# From -- ./inp_files/12141.got.cif
#   From: 2010.06.25/outbox.cif.g09.slc.cpg/sg43_7_cif.got.tgz:12141.got - 2010.06.26 16:48:59.
