data_PCOD8187643
_publ_section_title
;
Structure prediction by ZEFSAII (Michael W. Deem and Ramdas Pophale) SiO2 
 PCOD8187643
Probable space group: F D D 2
;
_chemical_formula_sum "Si O2"
_cell_formula_units_Z 112
_cell_length_a 29.990580
_cell_length_b 16.702290
_cell_length_c 10.211423
_cell_angle_alpha 90.000000
_cell_angle_beta 90.000000
_cell_angle_gamma 90.000000
_cell_volume 5115.017828
_symmetry_space_group_name_H-M "F D D 2"
_symmetry_group_IT_number 43
_symmetry_cell_setting 'orthorhombic'
loop_
_space_group_symop_operation_xyz
x,y,z
-x,-y,z
1/4-x,1/4+y,1/4+z
1/4+x,1/4-y,1/4+z
x,1/2+y,1/2+z
-x,1/2-y,1/2+z
1/4-x,3/4+y,3/4+z
1/4+x,3/4-y,3/4+z
1/2+x,y,1/2+z
1/2-x,-y,1/2+z
3/4-x,1/4+y,3/4+z
3/4+x,1/4-y,3/4+z
1/2+x,1/2+y,z
1/2-x,1/2-y,z
3/4-x,3/4+y,1/4+z
3/4+x,3/4-y,1/4+z
loop_
_atom_site_type_symbol
_atom_site_label
_atom_site_fract_x
_atom_site_fract_y
_atom_site_fract_z
Si Si1 0.431624 0.189352 0.391980
Si Si2 0.617859 0.208618 0.220694
Si Si3 0.968200 0.851746 0.317534
Si Si4 0.941909 0.573424 0.170631
Si Si5 0.462211 0.893428 0.110285
Si Si6 0.087016 0.510950 0.716585
Si Si7 0.191510 0.596178 0.928232
O O1 0.449819 0.261909 0.302710
O O2 0.436287 0.104544 0.318812
O O3 0.379429 0.199574 0.403790
O O4 0.454512 0.193817 0.536898
O O5 0.645559 0.166188 0.338151
O O6 0.571040 0.163930 0.190453
O O7 0.652950 0.215087 0.103122
O O8 0.600735 0.300274 0.246129
O O9 0.952910 0.887319 0.456714
O O10 0.948414 0.916986 0.217933
O O11 0.020219 0.845966 0.287007
O O12 0.952991 0.480435 0.168296
O O13 0.984778 0.625105 0.121313
O O14 0.069629 0.436517 0.631272
#
# Coordination Sequence:
#
# PCOD8187643 Si02
#       7
#    16  16  16  16  16  16  16
#     4  11  25  44  66 101 143 177 229 299 353 424
#     4  11  21  43  71  99 137 182 233 293 354 424
#     4  12  23  44  70  97 136 187 233 292 353 426
#     4  11  25  43  68 103 139 183 229 296 360 414
#     4  11  23  43  71 102 138 177 245 289 343 440
#     4  11  22  42  69  95 136 177 233 283 354 434
#     4  11  24  42  68 104 137 183 238 293 355 427
#
# _framework density 21.896307
#
# number of rings (size 3 to 8) (size 9 to 14) (size 15 to 20)
#    0.000    0.857    4.286    4.714    2.000    2.286 
#   10.286    0.000    0.000    0.000    0.000    0.000 
#    0.000    0.000    0.000    0.000    0.000    0.000 
#
# Total GULP energy -346915.806323 kJ/mol
# GULP energy per Si atom -12389.850226 kJ/mol
# Density = 2.184647 g / cm^3
# Si number density = 21.896307 Si / 1000 Ang^3
#
#
#
# Elastic Constant Matrix: (Units=GPa)
#
#
# Indices 1 2 3 4 5 6 
#
# 1 120.0452 30.0732 34.5163 0.0000 0.0000 0.0000
# 2 30.0732 104.3827 30.2810 0.0000 0.0000 0.0000
# 3 34.5163 30.2810 59.9154 0.0000 0.0000 0.0000
# 4 0.0000 0.0000 0.0000 29.8976 0.0000 0.0000
# 5 0.0000 0.0000 0.0000 0.0000 34.3895 0.0000
# 6 0.0000 0.0000 0.0000 0.0000 0.0000 42.3907
#
#
#
# Elastic Compliance Matrix: (Units=1/GPa)
#
#
# Indices 1 2 3 4 5 6 
#
# 1 0.010166 -0.001441 -0.005128 0.000000 0.000000 0.000000
# 2 -0.001441 0.011430 -0.004947 0.000000 0.000000 0.000000
# 3 -0.005128 -0.004947 0.022144 0.000000 0.000000 0.000000
# 4 0.000000 0.000000 0.000000 0.033447 0.000000 0.000000
# 5 0.000000 0.000000 0.000000 0.000000 0.029079 0.000000
# 6 0.000000 0.000000 0.000000 0.000000 0.000000 0.023590
#
#
# Mechanical properties :
#
#
# Convention : Reuss Voigt Hill
#
# Bulk Modulus (GPa) = 48.28840 52.67602 50.48221
# Shear Modulus (GPa) = 31.29091 33.96709 32.62900
#
# Velocity S-wave (km/s) = 3.78438 3.94289 3.86445
# Velocity P-wave (km/s) = 6.41845 6.69610 6.55874
#
# Compressibility (1/GPa) = 0.02070891
#
# Stress axis : x y z
#
# Youngs Moduli (GPa) = 98.37058 87.48654 45.15837
#
# Poissons Ratio (x) = 0.12608 0.23157
# Poissons Ratio (y) = 0.14177 0.22338
# Poissons Ratio (z) = 0.50443 0.43276
#
# Static dielectric constant tensor:
#      x y z
#    x 4.115850 0.000000 0.000000 
#    y 0.000000 4.508310 0.000000 
#    z 0.000000 0.000000 3.747520 
# 
# 
# High freq. dielectric constant tensor:
#      x y z
#    x 1.871060 0.000000 0.000000 
#    y 0.000000 1.876540 0.000000 
#    z 0.000000 0.000000 1.826100 
# 
# From -- ./inp_files/8286.got.cif
#   From: 2010.06.25/outbox.cif.g09.slc.cpg/sg43_5_cif.got.tgz:8286.got - 2010.06.26 16:48:59.
