data_PCOD8187913
_publ_section_title
;
Structure prediction by ZEFSAII (Michael W. Deem and Ramdas Pophale) SiO2 
 PCOD8187913
Probable space group: I M M 2
;
_chemical_formula_sum "Si O2"
_cell_formula_units_Z 64
_cell_length_a 8.889608
_cell_length_b 14.474241
_cell_length_c 28.422466
_cell_angle_alpha 90.000000
_cell_angle_beta 90.000000
_cell_angle_gamma 90.000000
_cell_volume 3657.128039
_symmetry_space_group_name_H-M "I M M 2"
_symmetry_group_IT_number 44
_symmetry_cell_setting 'orthorhombic'
loop_
_space_group_symop_operation_xyz
x,y,z
-x,-y,z
-x,y,z
x,-y,z
1/2+x,1/2+y,1/2+z
1/2-x,1/2-y,1/2+z
1/2-x,1/2+y,1/2+z
1/2+x,1/2-y,1/2+z
loop_
_atom_site_type_symbol
_atom_site_label
_atom_site_fract_x
_atom_site_fract_y
_atom_site_fract_z
Si Si1 0.321945 0.398177 0.080910
Si Si2 0.325879 0.892828 0.021809
Si Si3 0.176385 0.894451 0.474917
Si Si4 0.821799 0.778655 0.939185
Si Si5 0.678712 0.603231 0.352760
Si Si6 0.675389 0.605632 0.620600
Si Si7 0.321262 0.396507 0.248261
Si Si8 0.679223 0.269686 0.164340
O O1 0.500000 0.403997 0.084439
O O2 0.255454 0.500000 0.091976
O O3 0.260738 0.325974 0.118917
O O4 0.275712 0.368133 0.028251
O O5 0.500000 0.864273 0.022165
O O6 0.259572 0.868796 0.072545
O O7 0.302291 0.000000 0.009649
O O8 0.240552 0.833815 0.983354
O O9 0.265621 0.827069 0.439869
O O10 0.000000 0.879673 0.467636
O O11 0.221368 0.000000 0.463530
O O12 0.758362 0.825397 0.891394
O O13 0.000000 0.781513 0.940732
O O14 0.500000 0.602778 0.353851
O O15 0.737959 0.500000 0.364539
O O16 0.734043 0.632667 0.300530
O O17 0.500000 0.624702 0.613678
O O18 0.706515 0.500000 0.635149
O O19 0.743492 0.669192 0.662096
O O20 0.500000 0.397816 0.246054
O O21 0.262452 0.500000 0.236167
O O22 0.260103 0.322547 0.210638
O O23 0.500000 0.258781 0.164893
#
# Coordination Sequence:
#
# PCOD8187913 Si02
#       8
#     8   8   8   8   8   8   8   8
#     4   8  14  25  42  66  93 117 142 175 219 272
#     4  10  20  33  49  70  97 127 160 199 239 282
#     4   9  18  32  47  63  90 128 163 195 234 282
#     4  11  20  29  47  72  97 127 162 200 243 290
#     4   8  15  28  45  68  99 129 155 188 234 287
#     4  10  21  35  48  64  92 129 163 195 235 282
#     4   8  14  26  46  73 101 125 152 189 233 282
#     4  10  17  26  48  76  95 116 151 193 233 275
#
# _framework density 17.500070999999998
#
# number of rings (size 3 to 8) (size 9 to 14) (size 15 to 20)
#    0.000    2.750    0.000    4.125    0.000    4.750 
#    0.000    0.000    0.000    4.500    0.000    8.750 
#    0.000    0.000    0.000    0.000    0.000    0.000 
#
# Total GULP energy -396699.299441 kJ/mol
# GULP energy per Si atom -12396.853108 kJ/mol
# Density = 1.746024 g / cm^3
# Si number density = 17.500071 Si / 1000 Ang^3
#
#
#
# Elastic Constant Matrix: (Units=GPa)
#
#
# Indices 1 2 3 4 5 6 
#
# 1 43.1056 38.3973 29.0347 0.0000 0.0000 0.0000
# 2 38.3973 123.2004 87.6860 0.0000 0.0000 0.0000
# 3 29.0347 87.6860 109.8565 0.0000 0.0000 0.0000
# 4 0.0000 0.0000 0.0000 32.0029 0.0000 0.0000
# 5 0.0000 0.0000 0.0000 0.0000 15.2239 0.0000
# 6 0.0000 0.0000 0.0000 0.0000 0.0000 26.2057
#
#
#
# Elastic Compliance Matrix: (Units=1/GPa)
#
#
# Indices 1 2 3 4 5 6 
#
# 1 0.032178 -0.009205 -0.001157 0.000000 0.000000 0.000000
# 2 -0.009205 0.021427 -0.014670 0.000000 0.000000 0.000000
# 3 -0.001157 -0.014670 0.021118 0.000000 0.000000 0.000000
# 4 0.000000 0.000000 0.000000 0.031247 0.000000 0.000000
# 5 0.000000 0.000000 0.000000 0.000000 0.065686 0.000000
# 6 0.000000 0.000000 0.000000 0.000000 0.000000 0.038160
#
#
# Mechanical properties :
#
#
# Convention : Reuss Voigt Hill
#
# Bulk Modulus (GPa) = 40.55385 65.15537 52.85461
# Shear Modulus (GPa) = 18.64987 22.75613 20.70300
#
# Velocity S-wave (km/s) = 3.26805 3.60994 3.44324
# Velocity P-wave (km/s) = 6.12079 7.39513 6.78793
#
# Compressibility (1/GPa) = 0.02465857
#
# Stress axis : x y z
#
# Youngs Moduli (GPa) = 31.07722 46.67087 47.35390
#
# Poissons Ratio (x) = 0.42962 0.05479
# Poissons Ratio (y) = 0.28607 0.69466
# Poissons Ratio (z) = 0.03596 0.68464
#
# Static dielectric constant tensor:
#      x y z
#    x 2.892090 0.000000 0.000000 
#    y 0.000000 3.487170 0.000000 
#    z 0.000000 0.000000 3.389040 
# 
# 
# High freq. dielectric constant tensor:
#      x y z
#    x 1.641910 0.000000 0.000000 
#    y 0.000000 1.682410 0.000000 
#    z 0.000000 0.000000 1.660060 
# 
# From -- ./inp_files/25165.got.cif
#   From: 2010.03.12/outbox.cif.g09.slc.cpg/sg44_13_cif.got.tgz:25165.got - 2010.04.14 02:36:11.
