data_PCOD8187385
_publ_section_title
;
Structure prediction by ZEFSAII (Michael W. Deem and Ramdas Pophale) SiO2 
 PCOD8187385
Probable space group: F D D 2
;
_chemical_formula_sum "Si O2"
_cell_formula_units_Z 96
_cell_length_a 20.200706
_cell_length_b 10.698468
_cell_length_c 20.760188
_cell_angle_alpha 90.000000
_cell_angle_beta 90.000000
_cell_angle_gamma 90.000000
_cell_volume 4486.621385
_symmetry_space_group_name_H-M "F D D 2"
_symmetry_group_IT_number 43
_symmetry_cell_setting 'orthorhombic'
loop_
_space_group_symop_operation_xyz
x,y,z
-x,-y,z
1/4-x,1/4+y,1/4+z
1/4+x,1/4-y,1/4+z
x,1/2+y,1/2+z
-x,1/2-y,1/2+z
1/4-x,3/4+y,3/4+z
1/4+x,3/4-y,3/4+z
1/2+x,y,1/2+z
1/2-x,-y,1/2+z
3/4-x,1/4+y,3/4+z
3/4+x,1/4-y,3/4+z
1/2+x,1/2+y,z
1/2-x,1/2-y,z
3/4-x,3/4+y,1/4+z
3/4+x,3/4-y,1/4+z
loop_
_atom_site_type_symbol
_atom_site_label
_atom_site_fract_x
_atom_site_fract_y
_atom_site_fract_z
Si Si1 0.601230 0.432908 0.542560
Si Si2 0.566702 0.449258 0.037788
Si Si3 0.426241 0.221834 0.371409
Si Si4 0.243957 0.894039 0.502364
Si Si5 0.388158 0.222361 0.169416
Si Si6 0.029385 0.177692 0.499181
O O1 0.667179 0.433573 0.498861
O O2 0.617969 0.386763 0.615584
O O3 0.569603 0.570669 0.537791
O O4 0.548663 0.335418 0.512771
O O5 0.500000 0.500000 0.070653
O O6 0.627980 0.436194 0.084476
O O7 0.583974 0.542698 0.977178
O O8 0.557033 0.307869 0.020430
O O9 0.482692 0.165258 0.325678
O O10 0.459275 0.316355 0.422517
O O11 0.377538 0.109388 0.392486
O O12 0.250000 0.750000 0.483664
O O13 0.287829 0.970753 0.450415
#
# Coordination Sequence:
#
# PCOD8187385 Si02
#       6
#    16  16  16  16  16  16
#     4  11  24  45  61 103 139 174 221 277 353 403
#     4  10  22  41  70  96 123 180 228 276 335 400
#     4  10  22  46  66  96 129 174 232 273 329 406
#     4  11  24  41  69 100 127 181 224 276 340 395
#     4  10  23  41  67  98 134 167 228 279 331 407
#     4  10  25  43  63  97 136 175 219 281 343 397
#
# _framework density 21.396946
#
# number of rings (size 3 to 8) (size 9 to 14) (size 15 to 20)
#    0.000    1.667    1.667    1.000    9.333    2.667 
#    6.000    5.833    0.000    0.000    0.000    0.000 
#    0.000    0.000    0.000    0.000    0.000    0.000 
#
# Total GULP energy -297380.792444 kJ/mol
# GULP energy per Si atom -12390.866352 kJ/mol
# Density = 2.134825 g / cm^3
# Si number density = 21.396946 Si / 1000 Ang^3
#
#
#
# Elastic Constant Matrix: (Units=GPa)
#
#
# Indices 1 2 3 4 5 6 
#
# 1 147.8098 36.8644 31.7857 0.0000 0.0000 0.0000
# 2 36.8644 51.5548 31.7357 0.0000 0.0000 0.0000
# 3 31.7857 31.7357 79.6587 0.0000 0.0000 0.0000
# 4 0.0000 0.0000 0.0000 24.2544 0.0000 0.0000
# 5 0.0000 0.0000 0.0000 0.0000 19.6574 0.0000
# 6 0.0000 0.0000 0.0000 0.0000 0.0000 28.1632
#
#
#
# Elastic Compliance Matrix: (Units=1/GPa)
#
#
# Indices 1 2 3 4 5 6 
#
# 1 0.008328 -0.005180 -0.001260 0.000000 0.000000 0.000000
# 2 -0.005180 0.028921 -0.009455 0.000000 0.000000 0.000000
# 3 -0.001260 -0.009455 0.016823 0.000000 0.000000 0.000000
# 4 0.000000 0.000000 0.000000 0.041230 0.000000 0.000000
# 5 0.000000 0.000000 0.000000 0.000000 0.050871 0.000000
# 6 0.000000 0.000000 0.000000 0.000000 0.000000 0.035507
#
#
# Mechanical properties :
#
#
# Convention : Reuss Voigt Hill
#
# Bulk Modulus (GPa) = 44.87670 53.31054 49.09362
# Shear Modulus (GPa) = 22.63498 26.32417 24.47957
#
# Velocity S-wave (km/s) = 3.25600 3.51134 3.38608
# Velocity P-wave (km/s) = 5.92911 6.43494 6.18720
#
# Compressibility (1/GPa) = 0.02228328
#
# Stress axis : x y z
#
# Youngs Moduli (GPa) = 120.07461 34.57706 59.44227
#
# Poissons Ratio (x) = 0.17910 0.07487
# Poissons Ratio (y) = 0.62195 0.56204
# Poissons Ratio (z) = 0.15124 0.32693
#
# Static dielectric constant tensor:
#      x y z
#    x 4.227260 0.000000 0.000000 
#    y 0.000000 4.057290 0.000000 
#    z 0.000000 0.000000 4.158170 
# 
# 
# High freq. dielectric constant tensor:
#      x y z
#    x 1.855080 0.000000 0.000000 
#    y 0.000000 1.830550 0.000000 
#    z 0.000000 0.000000 1.836260 
# 
# From -- ./inp_files/18316.got.cif
#   From: 2010.06.25/outbox.cif.g09.slc.cpg/sg43_10_cif.got.tgz:18316.got - 2010.06.26 16:48:59.
