data_PCOD8187727
_publ_section_title
;
Structure prediction by ZEFSAII (Michael W. Deem and Ramdas Pophale) SiO2 
 PCOD8187727
Probable space group: F D D 2
;
_chemical_formula_sum "Si O2"
_cell_formula_units_Z 96
_cell_length_a 12.492626
_cell_length_b 22.340332
_cell_length_c 14.996554
_cell_angle_alpha 90.000000
_cell_angle_beta 90.000000
_cell_angle_gamma 90.000000
_cell_volume 4185.379444
_symmetry_space_group_name_H-M "F D D 2"
_symmetry_group_IT_number 43
_symmetry_cell_setting 'orthorhombic'
loop_
_space_group_symop_operation_xyz
x,y,z
-x,-y,z
1/4-x,1/4+y,1/4+z
1/4+x,1/4-y,1/4+z
x,1/2+y,1/2+z
-x,1/2-y,1/2+z
1/4-x,3/4+y,3/4+z
1/4+x,3/4-y,3/4+z
1/2+x,y,1/2+z
1/2-x,-y,1/2+z
3/4-x,1/4+y,3/4+z
3/4+x,1/4-y,3/4+z
1/2+x,1/2+y,z
1/2-x,1/2-y,z
3/4-x,3/4+y,1/4+z
3/4+x,3/4-y,1/4+z
loop_
_atom_site_type_symbol
_atom_site_label
_atom_site_fract_x
_atom_site_fract_y
_atom_site_fract_z
Si Si1 0.044976 0.777588 0.975620
Si Si2 0.750000 0.250000 0.085805
Si Si3 0.987350 0.582468 0.458840
Si Si4 0.000000 0.500000 0.131838
Si Si5 0.337398 0.490154 0.029174
Si Si6 0.872312 0.810615 0.736462
Si Si7 0.362572 0.190971 0.031706
O O1 0.054243 0.744769 0.880372
O O2 0.012503 0.846302 0.959268
O O3 0.157882 0.778987 0.026043
O O4 0.954129 0.742508 0.032107
O O5 0.802604 0.300723 0.147977
O O6 0.065094 0.557535 0.536536
O O7 0.036844 0.555353 0.367898
O O8 0.871138 0.551994 0.478364
O O9 0.901902 0.516589 0.068596
O O10 0.964095 0.445986 0.195543
O O11 0.247069 0.455071 0.970301
O O12 0.837957 0.875426 0.771879
#
# Coordination Sequence:
#
# PCOD8187727 Si02
#       7
#    16   8  16   8  16  16  16
#     4  12  27  49  74 109 149 192 245 299 373 436
#     4  11  28  46  69 108 142 194 235 302 376 419
#     4  11  26  45  78 108 148 190 247 303 363 435
#     4  11  24  44  69 104 138 190 245 290 356 427
#     4  11  24  48  72 109 145 192 245 303 356 436
#     4  11  26  46  70 104 147 191 248 295 360 436
#     4  12  25  45  74 106 143 195 241 299 358 435
#
# _framework density 22.936989000000001
#
# number of rings (size 3 to 8) (size 9 to 14) (size 15 to 20)
#    0.000    0.667    3.333    3.000    9.333    4.000 
#    3.000    0.000    0.000    0.000    0.000    0.000 
#    0.000    0.000    0.000    0.000    0.000    0.000 
#
# Total GULP energy -297523.019840 kJ/mol
# GULP energy per Si atom -12396.792493 kJ/mol
# Density = 2.288478 g / cm^3
# Si number density = 22.936989 Si / 1000 Ang^3
#
#
#
# Elastic Constant Matrix: (Units=GPa)
#
#
# Indices 1 2 3 4 5 6 
#
# 1 125.5756 54.5220 45.0590 0.0000 0.0000 0.0000
# 2 54.5220 144.2754 45.4533 0.0000 0.0000 0.0000
# 3 45.0590 45.4533 125.6162 0.0000 0.0000 0.0000
# 4 0.0000 0.0000 0.0000 1208.3797 0.0000 0.0000
# 5 0.0000 0.0000 0.0000 0.0000 31.3797 0.0000
# 6 0.0000 0.0000 0.0000 0.0000 0.0000 32.7545
#
#
#
# Elastic Compliance Matrix: (Units=1/GPa)
#
#
# Indices 1 2 3 4 5 6 
#
# 1 0.010205 -0.003051 -0.002557 0.000000 0.000000 0.000000
# 2 -0.003051 0.008735 -0.002066 0.000000 0.000000 0.000000
# 3 -0.002557 -0.002066 0.009626 0.000000 0.000000 0.000000
# 4 0.000000 0.000000 0.000000 0.000828 0.000000 0.000000
# 5 0.000000 0.000000 0.000000 0.000000 0.031868 0.000000
# 6 0.000000 0.000000 0.000000 0.000000 0.000000 0.030530
#
#
# Mechanical properties :
#
#
# Convention : Reuss Voigt Hill
#
# Bulk Modulus (GPa) = 75.65529 76.17067 75.91298
# Shear Modulus (GPa) = 44.82453 271.19829 158.01141
#
# Velocity S-wave (km/s) = 4.42548 10.88544 8.30896
# Velocity P-wave (km/s) = 7.69212 13.83009 11.19018
#
# Compressibility (1/GPa) = 0.01321785
#
# Stress axis : x y z
#
# Youngs Moduli (GPa) = 97.98649 114.47907 103.89042
#
# Poissons Ratio (x) = 0.34930 0.26562
# Poissons Ratio (y) = 0.29898 0.21467
# Poissons Ratio (z) = 0.25052 0.23655
#
# Static dielectric constant tensor:
#      x y z
#    x 4.358680 0.000000 0.000000 
#    y 0.000000 -65.721750 0.000000 
#    z 0.000000 0.000000 4.237980 
# 
# 
# High freq. dielectric constant tensor:
#      x y z
#    x 1.915620 0.000000 0.000000 
#    y 0.000000 1.893800 0.000000 
#    z 0.000000 0.000000 1.919200 
# 
# From -- ./inp_files/10114.got.cif
#   From: 2010.06.25/outbox.cif.g09.slc.cpg/sg43_6_cif.got.tgz:10114.got - 2010.06.26 16:48:59.
