data_PCOD8187367
_publ_section_title
;
Structure prediction by ZEFSAII (Michael W. Deem and Ramdas Pophale) SiO2 
 PCOD8187367
Probable space group: F D D 2
;
_chemical_formula_sum "Si O2"
_cell_formula_units_Z 112
_cell_length_a 10.486232
_cell_length_b 32.530370
_cell_length_c 15.222066
_cell_angle_alpha 90.000000
_cell_angle_beta 90.000000
_cell_angle_gamma 90.000000
_cell_volume 5192.566480
_symmetry_space_group_name_H-M "F D D 2"
_symmetry_group_IT_number 43
_symmetry_cell_setting 'orthorhombic'
loop_
_space_group_symop_operation_xyz
x,y,z
-x,-y,z
1/4-x,1/4+y,1/4+z
1/4+x,1/4-y,1/4+z
x,1/2+y,1/2+z
-x,1/2-y,1/2+z
1/4-x,3/4+y,3/4+z
1/4+x,3/4-y,3/4+z
1/2+x,y,1/2+z
1/2-x,-y,1/2+z
3/4-x,1/4+y,3/4+z
3/4+x,1/4-y,3/4+z
1/2+x,1/2+y,z
1/2-x,1/2-y,z
3/4-x,3/4+y,1/4+z
3/4+x,3/4-y,1/4+z
loop_
_atom_site_type_symbol
_atom_site_label
_atom_site_fract_x
_atom_site_fract_y
_atom_site_fract_z
Si Si1 0.345852 0.081797 0.727530
Si Si2 0.263580 0.839288 0.802257
Si Si3 0.890281 0.743294 0.431637
Si Si4 0.547323 0.405893 0.419728
Si Si5 0.817241 0.929369 0.320394
Si Si6 0.125235 0.225839 0.174714
Si Si7 0.255212 0.452978 0.020847
O O1 0.461487 0.087780 0.657290
O O2 0.385628 0.094996 0.825062
O O3 0.222793 0.109061 0.701561
O O4 0.302534 0.034299 0.725279
O O5 0.296623 0.885620 0.771514
O O6 0.352515 0.805127 0.756277
O O7 0.118273 0.830591 0.774695
O O8 0.750000 0.750000 0.384315
O O9 0.858778 0.710019 0.506103
O O10 0.996576 0.725175 0.365750
O O11 0.406457 0.425672 0.407299
O O12 0.624895 0.430211 0.494772
O O13 0.680753 0.948726 0.345601
O O14 0.250000 0.250000 0.142212
O O15 0.024928 0.261055 0.200242
#
# Coordination Sequence:
#
# PCOD8187367 Si02
#       7
#    16  16  16  16  16  16  16
#     4  11  23  44  66 102 135 178 232 283 344 417
#     4  10  22  40  69  95 131 178 231 278 342 415
#     4  12  21  41  69 101 130 182 240 283 337 419
#     4  11  26  41  69 101 138 182 224 294 357 407
#     4  11  25  39  71  98 139 176 238 280 347 418
#     4  10  22  42  67 101 132 178 226 287 339 409
#     4  11  22  42  68  95 135 174 229 283 343 409
#
# _framework density 21.569296000000001
#
# number of rings (size 3 to 8) (size 9 to 14) (size 15 to 20)
#    0.000    1.143    4.286    1.286   10.000    1.143 
#    5.143    0.000    3.143    0.000    0.000    0.000 
#    0.000    0.000    0.000    0.000    0.000    0.000 
#
# Total GULP energy -347093.625065 kJ/mol
# GULP energy per Si atom -12396.200895 kJ/mol
# Density = 2.152020 g / cm^3
# Si number density = 21.569296 Si / 1000 Ang^3
#
#
#
# Elastic Constant Matrix: (Units=GPa)
#
#
# Indices 1 2 3 4 5 6 
#
# 1 90.5234 66.5953 33.5137 0.0000 0.0000 0.0000
# 2 66.5953 183.6100 42.4119 0.0000 0.0000 0.0000
# 3 33.5137 42.4119 77.5619 0.0000 0.0000 0.0000
# 4 0.0000 0.0000 0.0000 33.5908 0.0000 0.0000
# 5 0.0000 0.0000 0.0000 0.0000 36.2472 0.0000
# 6 0.0000 0.0000 0.0000 0.0000 0.0000 35.8026
#
#
#
# Elastic Compliance Matrix: (Units=1/GPa)
#
#
# Indices 1 2 3 4 5 6 
#
# 1 0.016255 -0.004891 -0.004349 0.000000 0.000000 0.000000
# 2 -0.004891 0.007705 -0.002100 0.000000 0.000000 0.000000
# 3 -0.004349 -0.002100 0.015920 0.000000 0.000000 0.000000
# 4 0.000000 0.000000 0.000000 0.029770 0.000000 0.000000
# 5 0.000000 0.000000 0.000000 0.000000 0.027588 0.000000
# 6 0.000000 0.000000 0.000000 0.000000 0.000000 0.027931
#
#
# Mechanical properties :
#
#
# Convention : Reuss Voigt Hill
#
# Bulk Modulus (GPa) = 58.13794 70.74857 64.44325
# Shear Modulus (GPa) = 32.55530 35.07309 33.81419
#
# Velocity S-wave (km/s) = 3.88923 4.03682 3.96372
# Velocity P-wave (km/s) = 6.86882 7.38916 7.13374
#
# Compressibility (1/GPa) = 0.01720047
#
# Stress axis : x y z
#
# Youngs Moduli (GPa) = 61.51829 129.77855 62.81213
#
# Poissons Ratio (x) = 0.63477 0.27318
# Poissons Ratio (y) = 0.30090 0.13191
# Poissons Ratio (z) = 0.26756 0.27254
#
# Static dielectric constant tensor:
#      x y z
#    x 3.598550 0.000000 0.000000 
#    y 0.000000 4.361940 0.000000 
#    z 0.000000 0.000000 3.684600 
# 
# 
# High freq. dielectric constant tensor:
#      x y z
#    x 1.813780 0.000000 0.000000 
#    y 0.000000 1.876010 0.000000 
#    z 0.000000 0.000000 1.830480 
# 
# From -- ./inp_files/9763.got.cif
#   From: 2010.06.25/outbox.cif.g09.slc.cpg/sg43_5_cif.got.tgz:9763.got - 2010.06.26 16:48:59.
