data_PCOD8187672
_publ_section_title
;
Structure prediction by ZEFSAII (Michael W. Deem and Ramdas Pophale) SiO2 
 PCOD8187672
Probable space group: F D D 2
;
_chemical_formula_sum "Si O2"
_cell_formula_units_Z 88
_cell_length_a 16.510230
_cell_length_b 26.243468
_cell_length_c 9.009473
_cell_angle_alpha 90.000000
_cell_angle_beta 90.000000
_cell_angle_gamma 90.000000
_cell_volume 3903.675749
_symmetry_space_group_name_H-M "F D D 2"
_symmetry_group_IT_number 43
_symmetry_cell_setting 'orthorhombic'
loop_
_space_group_symop_operation_xyz
x,y,z
-x,-y,z
1/4-x,1/4+y,1/4+z
1/4+x,1/4-y,1/4+z
x,1/2+y,1/2+z
-x,1/2-y,1/2+z
1/4-x,3/4+y,3/4+z
1/4+x,3/4-y,3/4+z
1/2+x,y,1/2+z
1/2-x,-y,1/2+z
3/4-x,1/4+y,3/4+z
3/4+x,1/4-y,3/4+z
1/2+x,1/2+y,z
1/2-x,1/2-y,z
3/4-x,3/4+y,1/4+z
3/4+x,3/4-y,1/4+z
loop_
_atom_site_type_symbol
_atom_site_label
_atom_site_fract_x
_atom_site_fract_y
_atom_site_fract_z
Si Si1 0.617137 0.508674 0.174080
Si Si2 0.435049 0.076811 0.198674
Si Si3 0.922242 0.105759 0.180439
Si Si4 0.496144 0.158922 0.399597
Si Si5 0.750000 0.750000 0.179706
Si Si6 0.712562 0.818469 0.670642
O O1 0.624529 0.447964 0.159089
O O2 0.704179 0.535512 0.159967
O O3 0.574417 0.519593 0.333739
O O4 0.560363 0.530892 0.040846
O O5 0.473981 0.131385 0.243744
O O6 0.341187 0.082921 0.161827
O O7 0.445946 0.037397 0.332191
O O8 0.479259 0.052808 0.055381
O O9 0.859523 0.147780 0.237837
O O10 0.991741 0.103959 0.302722
O O11 0.961442 0.122255 0.025849
#
# Coordination Sequence:
#
# PCOD8187672 Si02
#       6
#    16  16  16  16   8  16
#     4  11  23  46  71  97 131 194 222 278 338 430
#     4  12  25  45  64 108 131 179 220 300 339 408
#     4  11  22  44  68  98 130 189 222 272 337 421
#     4  11  24  47  74  97 144 177 236 277 353 407
#     4  12  24  44  72  90 140 174 236 272 352 404
#     4  11  24  42  68  94 138 169 224 282 340 391
#
# _framework density 22.542857000000001
#
# number of rings (size 3 to 8) (size 9 to 14) (size 15 to 20)
#    0.000    0.727    3.636    4.364    2.545    0.000 
#   13.091    0.000    0.000    0.000    0.000    0.000 
#    0.000    0.000    0.000    0.000    0.000    0.000 
#
# Total GULP energy -272830.170674 kJ/mol
# GULP energy per Si atom -12401.371394 kJ/mol
# Density = 2.249155 g / cm^3
# Si number density = 22.542857 Si / 1000 Ang^3
#
#
#
# Elastic Constant Matrix: (Units=GPa)
#
#
# Indices 1 2 3 4 5 6 
#
# 1 139.1380 33.4639 38.9392 0.0000 0.0000 0.0000
# 2 33.4639 79.0767 22.9919 0.0000 0.0000 0.0000
# 3 38.9392 22.9919 105.2678 0.0000 0.0000 0.0000
# 4 0.0000 0.0000 0.0000 19.5295 0.0000 0.0000
# 5 0.0000 0.0000 0.0000 0.0000 32.6492 0.0000
# 6 0.0000 0.0000 0.0000 0.0000 0.0000 28.2758
#
#
#
# Elastic Compliance Matrix: (Units=1/GPa)
#
#
# Indices 1 2 3 4 5 6 
#
# 1 0.008597 -0.002897 -0.002547 0.000000 0.000000 0.000000
# 2 -0.002897 0.014480 -0.002091 0.000000 0.000000 0.000000
# 3 -0.002547 -0.002091 0.010898 0.000000 0.000000 0.000000
# 4 0.000000 0.000000 0.000000 0.051205 0.000000 0.000000
# 5 0.000000 0.000000 0.000000 0.000000 0.030629 0.000000
# 6 0.000000 0.000000 0.000000 0.000000 0.000000 0.035366
#
#
# Mechanical properties :
#
#
# Convention : Reuss Voigt Hill
#
# Bulk Modulus (GPa) = 52.89776 57.14137 55.01956
# Shear Modulus (GPa) = 28.97763 31.29673 30.13718
#
# Velocity S-wave (km/s) = 3.58920 3.73006 3.66031
# Velocity P-wave (km/s) = 6.37909 6.62978 6.50565
#
# Compressibility (1/GPa) = 0.01890439
#
# Stress axis : x y z
#
# Youngs Moduli (GPa) = 116.32209 69.06073 91.75600
#
# Poissons Ratio (x) = 0.20010 0.23372
# Poissons Ratio (y) = 0.33703 0.19185
# Poissons Ratio (z) = 0.29629 0.14440
#
# Static dielectric constant tensor:
#      x y z
#    x 4.098270 0.000000 0.000000 
#    y 0.000000 3.998750 0.000000 
#    z 0.000000 0.000000 4.242320 
# 
# 
# High freq. dielectric constant tensor:
#      x y z
#    x 1.888250 0.000000 0.000000 
#    y 0.000000 1.888820 0.000000 
#    z 0.000000 0.000000 1.896050 
# 
# From -- ./inp_files/2926.got.cif
#   From: 2010.06.25/outbox.cif.g09.slc.cpg/sg43_2_cif.got.tgz:2926.got - 2010.06.26 16:48:59.
