data_PCOD8187050
_publ_section_title
;
Structure prediction by ZEFSAII (Michael W. Deem and Ramdas Pophale) SiO2 
 PCOD8187050
Probable space group: F D D 2
;
_chemical_formula_sum "Si O2"
_cell_formula_units_Z 112
_cell_length_a 29.507738
_cell_length_b 13.066364
_cell_length_c 13.280374
_cell_angle_alpha 90.000000
_cell_angle_beta 90.000000
_cell_angle_gamma 90.000000
_cell_volume 5120.365668
_symmetry_space_group_name_H-M "F D D 2"
_symmetry_group_IT_number 43
_symmetry_cell_setting 'orthorhombic'
loop_
_space_group_symop_operation_xyz
x,y,z
-x,-y,z
1/4-x,1/4+y,1/4+z
1/4+x,1/4-y,1/4+z
x,1/2+y,1/2+z
-x,1/2-y,1/2+z
1/4-x,3/4+y,3/4+z
1/4+x,3/4-y,3/4+z
1/2+x,y,1/2+z
1/2-x,-y,1/2+z
3/4-x,1/4+y,3/4+z
3/4+x,1/4-y,3/4+z
1/2+x,1/2+y,z
1/2-x,1/2-y,z
3/4-x,3/4+y,1/4+z
3/4+x,3/4-y,1/4+z
loop_
_atom_site_type_symbol
_atom_site_label
_atom_site_fract_x
_atom_site_fract_y
_atom_site_fract_z
Si Si1 0.173528 0.947354 0.148240
Si Si2 0.105740 0.051365 0.891582
Si Si3 0.374615 0.476710 0.677523
Si Si4 0.425680 0.001389 0.596896
Si Si5 0.857919 0.260284 0.207863
Si Si6 0.202002 0.024827 0.361865
Si Si7 0.952299 0.786171 0.181125
O O1 0.167227 0.823676 0.141128
O O2 0.124652 0.001673 0.143554
O O3 0.197458 0.988893 0.247092
O O4 0.203881 0.970434 0.051882
O O5 0.091655 0.025149 0.776000
O O6 0.095731 0.168958 0.923342
O O7 0.159796 0.029245 0.891965
O O8 0.078179 0.988050 0.974402
O O9 0.401982 0.474149 0.572422
O O10 0.341195 0.376673 0.686038
O O11 0.450794 0.901435 0.637167
O O12 0.452755 0.102411 0.626941
O O13 0.911733 0.268213 0.181871
O O14 0.250828 0.983635 0.397142
#
# Coordination Sequence:
#
# PCOD8187050 Si02
#       7
#    16  16  16  16  16  16  16
#     4  10  21  39  65  87 117 159 208 256 307 370
#     4  10  20  37  62  89 118 158 211 247 301 369
#     4  10  20  35  63  89 116 160 208 250 294 373
#     4  10  20  39  64  89 114 161 214 256 294 369
#     4  10  20  38  62  89 118 159 211 246 297 378
#     4  11  23  38  61  91 124 157 201 263 319 356
#     4  11  23  38  60  91 124 157 200 267 313 361
#
# _framework density 21.873439000000001
#
# number of rings (size 3 to 8) (size 9 to 14) (size 15 to 20)
#    0.000    1.714    2.857    3.000    4.000    1.143 
#    0.000    0.714    0.000    0.000    0.000    0.000 
#    0.000    0.000    0.000    0.000    0.000    0.000 
#
# Total GULP energy -346956.566921 kJ/mol
# GULP energy per Si atom -12391.305961 kJ/mol
# Density = 2.182365 g / cm^3
# Si number density = 21.873439 Si / 1000 Ang^3
#
#
#
# Elastic Constant Matrix: (Units=GPa)
#
#
# Indices 1 2 3 4 5 6 
#
# 1 85.2785 5.6313 36.0970 0.0000 0.0000 0.0000
# 2 5.6313 77.5243 19.2543 0.0000 0.0000 0.0000
# 3 36.0970 19.2543 141.3151 0.0000 0.0000 0.0000
# 4 0.0000 0.0000 0.0000 39.0723 0.0000 0.0000
# 5 0.0000 0.0000 0.0000 0.0000 19.4159 0.0000
# 6 0.0000 0.0000 0.0000 0.0000 0.0000 8.8363
#
#
#
# Elastic Compliance Matrix: (Units=1/GPa)
#
#
# Indices 1 2 3 4 5 6 
#
# 1 0.013149 -0.000125 -0.003342 0.000000 0.000000 0.000000
# 2 -0.000125 0.013352 -0.001787 0.000000 0.000000 0.000000
# 3 -0.003342 -0.001787 0.008173 0.000000 0.000000 0.000000
# 4 0.000000 0.000000 0.000000 0.025594 0.000000 0.000000
# 5 0.000000 0.000000 0.000000 0.000000 0.051504 0.000000
# 6 0.000000 0.000000 0.000000 0.000000 0.000000 0.113169
#
#
# Mechanical properties :
#
#
# Convention : Reuss Voigt Hill
#
# Bulk Modulus (GPa) = 41.37974 47.34258 44.36116
# Shear Modulus (GPa) = 20.53342 29.67392 25.10367
#
# Velocity S-wave (km/s) = 3.06721 3.68723 3.39142
# Velocity P-wave (km/s) = 5.61271 6.31018 5.97164
#
# Compressibility (1/GPa) = 0.02416642
#
# Stress axis : x y z
#
# Youngs Moduli (GPa) = 76.05117 74.89424 122.34677
#
# Poissons Ratio (x) = 0.00938 0.40884
# Poissons Ratio (y) = 0.00952 0.21867
# Poissons Ratio (z) = 0.25414 0.13386
#
# Static dielectric constant tensor:
#      x y z
#    x 3.382680 0.000000 0.000000 
#    y 0.000000 4.149600 0.000000 
#    z 0.000000 0.000000 4.229560 
# 
# 
# High freq. dielectric constant tensor:
#      x y z
#    x 1.791050 0.000000 0.000000 
#    y 0.000000 1.874990 0.000000 
#    z 0.000000 0.000000 1.883810 
# 
# From -- ./inp_files/11716.got.cif
#   From: 2010.06.25/outbox.cif.g09.slc.cpg/sg43_6_cif.got.tgz:11716.got - 2010.06.26 16:48:59.
