data_PCOD8187382
_publ_section_title
;
Structure prediction by ZEFSAII (Michael W. Deem and Ramdas Pophale) SiO2 
 PCOD8187382
Probable space group: F D D 2
;
_chemical_formula_sum "Si O2"
_cell_formula_units_Z 80
_cell_length_a 23.542169
_cell_length_b 12.944650
_cell_length_c 11.405842
_cell_angle_alpha 90.000000
_cell_angle_beta 90.000000
_cell_angle_gamma 90.000000
_cell_volume 3475.874894
_symmetry_space_group_name_H-M "F D D 2"
_symmetry_group_IT_number 43
_symmetry_cell_setting 'orthorhombic'
loop_
_space_group_symop_operation_xyz
x,y,z
-x,-y,z
1/4-x,1/4+y,1/4+z
1/4+x,1/4-y,1/4+z
x,1/2+y,1/2+z
-x,1/2-y,1/2+z
1/4-x,3/4+y,3/4+z
1/4+x,3/4-y,3/4+z
1/2+x,y,1/2+z
1/2-x,-y,1/2+z
3/4-x,1/4+y,3/4+z
3/4+x,1/4-y,3/4+z
1/2+x,1/2+y,z
1/2-x,1/2-y,z
3/4-x,3/4+y,1/4+z
3/4+x,3/4-y,1/4+z
loop_
_atom_site_type_symbol
_atom_site_label
_atom_site_fract_x
_atom_site_fract_y
_atom_site_fract_z
Si Si1 0.660267 0.505246 0.129490
Si Si2 0.195240 0.316240 0.978676
Si Si3 0.797469 0.675044 0.489412
Si Si4 0.652693 0.620398 0.887135
Si Si5 0.744592 0.499039 0.334521
O O1 0.596652 0.508833 0.177682
O O2 0.708535 0.536696 0.223011
O O3 0.672574 0.387583 0.093404
O O4 0.665730 0.581049 0.018855
O O5 0.250000 0.250000 0.016085
O O6 0.159376 0.244565 0.887987
O O7 0.206759 0.425994 0.918524
O O8 0.159918 0.338754 0.096742
O O9 0.750000 0.750000 0.544497
O O10 0.765341 0.602020 0.397885
O O11 0.699211 0.567782 0.800069
#
# Coordination Sequence:
#
# PCOD8187382 Si02
#       5
#    16  16  16  16  16
#     4  11  24  43  67  99 131 169 221 270 327 392
#     4  10  23  42  66  96 131 174 219 266 327 392
#     4  11  25  43  66  95 130 172 214 267 327 387
#     4  10  22  41  67  97 130 174 218 268 327 391
#     4  10  24  43  64  95 132 171 218 271 328 390
#
# _framework density 23.015788000000001
#
# number of rings (size 3 to 8) (size 9 to 14) (size 15 to 20)
#    0.000    1.600    0.000    3.600    0.000   17.600 
#    0.000    0.000    0.000    0.000    0.000    0.000 
#    0.000    0.000    0.000    0.000    0.000    0.000 
#
# Total GULP energy -247975.863225 kJ/mol
# GULP energy per Si atom -12398.793161 kJ/mol
# Density = 2.296340 g / cm^3
# Si number density = 23.015788 Si / 1000 Ang^3
#
#
#
# Elastic Constant Matrix: (Units=GPa)
#
#
# Indices 1 2 3 4 5 6 
#
# 1 160.0709 73.3812 69.2478 0.0000 0.0000 0.0000
# 2 73.3812 112.7687 36.7805 0.0000 0.0000 0.0000
# 3 69.2478 36.7805 91.7842 0.0000 0.0000 0.0000
# 4 0.0000 0.0000 0.0000 11.2404 0.0000 0.0000
# 5 0.0000 0.0000 0.0000 0.0000 31.9545 0.0000
# 6 0.0000 0.0000 0.0000 0.0000 0.0000 45.5102
#
#
#
# Elastic Compliance Matrix: (Units=1/GPa)
#
#
# Indices 1 2 3 4 5 6 
#
# 1 0.011549 -0.005376 -0.006559 0.000000 0.000000 0.000000
# 2 -0.005376 0.012703 -0.001035 0.000000 0.000000 0.000000
# 3 -0.006559 -0.001035 0.016258 0.000000 0.000000 0.000000
# 4 0.000000 0.000000 0.000000 0.088965 0.000000 0.000000
# 5 0.000000 0.000000 0.000000 0.000000 0.031294 0.000000
# 6 0.000000 0.000000 0.000000 0.000000 0.000000 0.021973
#
#
# Mechanical properties :
#
#
# Convention : Reuss Voigt Hill
#
# Bulk Modulus (GPa) = 68.62723 80.38252 74.50487
# Shear Modulus (GPa) = 23.41480 30.08867 26.75173
#
# Velocity S-wave (km/s) = 3.19303 3.61959 3.41298
# Velocity P-wave (km/s) = 6.59364 7.24357 6.92624
#
# Compressibility (1/GPa) = 0.01457148
#
# Stress axis : x y z
#
# Youngs Moduli (GPa) = 86.58500 78.71857 61.50667
#
# Poissons Ratio (x) = 0.42320 0.40344
# Poissons Ratio (y) = 0.46549 0.06363
# Poissons Ratio (z) = 0.56793 0.08144
#
# Static dielectric constant tensor:
#      x y z
#    x 4.428860 0.000000 0.000000 
#    y 0.000000 4.292280 0.000000 
#    z 0.000000 0.000000 3.833470 
# 
# 
# High freq. dielectric constant tensor:
#      x y z
#    x 1.929430 0.000000 0.000000 
#    y 0.000000 1.918420 0.000000 
#    z 0.000000 0.000000 1.878980 
# 
# From -- ./inp_files/6069.got.cif
#   From: 2010.06.25/outbox.cif.g09.slc.cpg/sg43_4_cif.got.tgz:6069.got - 2010.06.26 16:48:59.
