data_PCOD8187498
_publ_section_title
;
Structure prediction by ZEFSAII (Michael W. Deem and Ramdas Pophale) SiO2 
 PCOD8187498
Probable space group: F D D 2
;
_chemical_formula_sum "Si O2"
_cell_formula_units_Z 104
_cell_length_a 24.353211
_cell_length_b 24.205722
_cell_length_c 7.692184
_cell_angle_alpha 90.000000
_cell_angle_beta 90.000000
_cell_angle_gamma 90.000000
_cell_volume 4534.442895
_symmetry_space_group_name_H-M "F D D 2"
_symmetry_group_IT_number 43
_symmetry_cell_setting 'orthorhombic'
loop_
_space_group_symop_operation_xyz
x,y,z
-x,-y,z
1/4-x,1/4+y,1/4+z
1/4+x,1/4-y,1/4+z
x,1/2+y,1/2+z
-x,1/2-y,1/2+z
1/4-x,3/4+y,3/4+z
1/4+x,3/4-y,3/4+z
1/2+x,y,1/2+z
1/2-x,-y,1/2+z
3/4-x,1/4+y,3/4+z
3/4+x,1/4-y,3/4+z
1/2+x,1/2+y,z
1/2-x,1/2-y,z
3/4-x,3/4+y,1/4+z
3/4+x,3/4-y,1/4+z
loop_
_atom_site_type_symbol
_atom_site_label
_atom_site_fract_x
_atom_site_fract_y
_atom_site_fract_z
Si Si1 0.214457 0.937465 0.924050
Si Si2 0.906921 0.495633 0.811507
Si Si3 0.710893 0.467641 0.307115
Si Si4 0.000000 0.000000 0.572233
Si Si5 0.466252 0.618899 0.640644
Si Si6 0.872208 0.889969 0.167979
Si Si7 0.812761 0.862854 0.502634
O O1 0.159383 0.910335 0.844226
O O2 0.254769 0.885901 0.943123
O O3 0.240772 0.986453 0.812066
O O4 0.196784 0.962593 0.106399
O O5 0.846454 0.512074 0.893363
O O6 0.902454 0.449154 0.660873
O O7 0.936131 0.547590 0.720019
O O8 0.947916 0.477108 0.964084
O O9 0.730609 0.409196 0.386359
O O10 0.017211 0.944993 0.679507
O O11 0.432113 0.640927 0.803655
O O12 0.430992 0.624893 0.460699
O O13 0.859883 0.887601 0.377605
#
# Coordination Sequence:
#
# PCOD8187498 Si02
#       7
#    16  16  16   8  16  16  16
#     4  11  24  42  69 101 142 177 239 283 350 409
#     4  11  21  42  75  95 140 186 229 282 353 413
#     4  11  22  40  70 103 131 180 234 291 331 419
#     4  10  24  48  66 102 146 192 222 288 362 428
#     4  10  25  45  67 102 140 176 238 278 352 412
#     4  12  23  45  69 104 137 179 232 289 340 416
#     4  10  23  44  66 101 134 183 220 287 347 406
#
# _framework density 22.935562999999998
#
# number of rings (size 3 to 8) (size 9 to 14) (size 15 to 20)
#    0.000    1.231    3.077    3.692    0.000    2.462 
#    0.000    4.615    0.000    0.000    0.000    0.000 
#    0.000    0.000    0.000    0.000    0.000    0.000 
#
# Total GULP energy -322188.930554 kJ/mol
# GULP energy per Si atom -12391.881944 kJ/mol
# Density = 2.288336 g / cm^3
# Si number density = 22.935563 Si / 1000 Ang^3
#
#
#
# Elastic Constant Matrix: (Units=GPa)
#
#
# Indices 1 2 3 4 5 6 
#
# 1 96.9773 32.0637 18.6461 0.0327 -0.0401 -0.0182
# 2 32.0637 133.9247 31.4519 0.0042 -0.0237 -0.0097
# 3 18.6461 31.4519 49.1192 0.0704 -0.0788 -0.0277
# 4 0.0327 0.0042 0.0704 26.7170 -0.0257 0.0022
# 5 -0.0401 -0.0237 -0.0788 -0.0257 24.3381 0.0215
# 6 -0.0182 -0.0097 -0.0277 0.0022 0.0215 51.1810
#
#
#
# Elastic Compliance Matrix: (Units=1/GPa)
#
#
# Indices 1 2 3 4 5 6 
#
# 1 0.011582 -0.002048 -0.003085 -0.000006 0.000007 0.000002
# 2 -0.002048 0.009151 -0.005082 0.000014 -0.000011 -0.000002
# 3 -0.003085 -0.005082 0.024784 -0.000061 0.000070 0.000011
# 4 -0.000006 0.000014 -0.000061 0.037430 0.000039 -0.000002
# 5 0.000007 -0.000011 0.000070 0.000039 0.041088 -0.000017
# 6 0.000002 -0.000002 0.000011 -0.000002 -0.000017 0.019539
#
#
# Mechanical properties :
#
#
# Convention : Reuss Voigt Hill
#
# Bulk Modulus (GPa) = 39.86244 49.37162 44.61703
# Shear Modulus (GPa) = 29.00809 33.63786 31.32297
#
# Velocity S-wave (km/s) = 3.56021 3.83381 3.69954
# Velocity P-wave (km/s) = 5.85816 6.41642 6.14363
#
# Compressibility (1/GPa) = 0.02508627
#
# Stress axis : x y z
#
# Youngs Moduli (GPa) = 86.33978 109.28051 40.34866
#
# Poissons Ratio (x) = 0.22385 0.12448
# Poissons Ratio (y) = 0.17686 0.20505
# Poissons Ratio (z) = 0.26636 0.55535
#
# Static dielectric constant tensor:
#      x y z
#    x 4.311130 -0.000030 -0.000080 
#    y -0.000030 4.408950 -0.000050 
#    z -0.000080 -0.000050 3.809190 
# 
# 
# High freq. dielectric constant tensor:
#      x y z
#    x 1.907730 0.000010 0.000010 
#    y 0.000010 1.930600 -0.000010 
#    z 0.000010 -0.000010 1.861620 
# 
# From -- ./inp_files/3375.got.cif
#   From: 2010.06.25/outbox.cif.g09.slc.cpg/sg43_2_cif.got.tgz:3375.got - 2010.06.26 16:48:59.
