data_PCOD8187573
_publ_section_title
;
Structure prediction by ZEFSAII (Michael W. Deem and Ramdas Pophale) SiO2 
 PCOD8187573
Probable space group: F D D 2
;
_chemical_formula_sum "Si O2"
_cell_formula_units_Z 56
_cell_length_a 31.897304
_cell_length_b 4.960108
_cell_length_c 14.208474
_cell_angle_alpha 90.000000
_cell_angle_beta 90.000000
_cell_angle_gamma 90.000000
_cell_volume 2247.980539
_symmetry_space_group_name_H-M "F D D 2"
_symmetry_group_IT_number 43
_symmetry_cell_setting 'orthorhombic'
loop_
_space_group_symop_operation_xyz
x,y,z
-x,-y,z
1/4-x,1/4+y,1/4+z
1/4+x,1/4-y,1/4+z
x,1/2+y,1/2+z
-x,1/2-y,1/2+z
1/4-x,3/4+y,3/4+z
1/4+x,3/4-y,3/4+z
1/2+x,y,1/2+z
1/2-x,-y,1/2+z
3/4-x,1/4+y,3/4+z
3/4+x,1/4-y,3/4+z
1/2+x,1/2+y,z
1/2-x,1/2-y,z
3/4-x,3/4+y,1/4+z
3/4+x,3/4-y,1/4+z
loop_
_atom_site_type_symbol
_atom_site_label
_atom_site_fract_x
_atom_site_fract_y
_atom_site_fract_z
Si Si1 0.915607 0.913448 0.910730
Si Si2 0.100130 0.089066 0.527522
Si Si3 0.773310 0.003527 0.387457
Si Si4 0.750000 0.250000 0.569743
O O1 0.891967 0.792412 0.820117
O O2 0.959536 0.058869 0.884069
O O3 0.924048 0.658906 0.978401
O O4 0.888983 0.159929 0.957782
O O5 0.072378 0.222333 0.611554
O O6 0.750000 0.750000 0.342169
O O7 0.750000 0.250000 0.337132
O O8 0.764663 0.005189 0.500646
#
# Coordination Sequence:
#
# PCOD8187573 Si02
#       4
#    16  16  16   8
#     4  12  28  48  77 110 152 201 253 314 373 461
#     4  12  27  49  75 108 155 197 257 307 389 438
#     4  10  24  45  75 103 150 190 244 308 371 443
#     4  10  28  44  80 108 154 188 260 298 384 440
#
# _framework density 24.911245999999998
#
# number of rings (size 3 to 8) (size 9 to 14) (size 15 to 20)
#    0.857    0.000    0.000    5.143   10.000    2.286 
#    0.000    0.000    0.000    0.000    0.000    0.000 
#    0.000    0.000    0.000    0.000    0.000    0.000 
#
# Total GULP energy -173435.301258 kJ/mol
# GULP energy per Si atom -12388.235804 kJ/mol
# Density = 2.485455 g / cm^3
# Si number density = 24.911246 Si / 1000 Ang^3
#
#
#
# Elastic Constant Matrix: (Units=GPa)
#
#
# Indices 1 2 3 4 5 6 
#
# 1 132.4480 38.4260 53.4411 0.0001 0.0009 0.0003
# 2 38.4260 170.7351 51.1842 0.0012 -0.0007 0.0009
# 3 53.4411 51.1842 106.8105 0.0006 -0.0002 0.0000
# 4 0.0001 0.0012 0.0006 24.6049 -0.0005 0.0005
# 5 0.0009 -0.0007 -0.0002 -0.0005 23.3269 -0.0008
# 6 0.0003 0.0009 0.0000 0.0005 -0.0008 38.0369
#
#
#
# Elastic Compliance Matrix: (Units=1/GPa)
#
#
# Indices 1 2 3 4 5 6 
#
# 1 0.009562 -0.000838 -0.004382 0.000000 0.000000 0.000000
# 2 -0.000838 0.006913 -0.002893 0.000000 0.000000 0.000000
# 3 -0.004382 -0.002893 0.012942 0.000000 0.000000 0.000000
# 4 0.000000 0.000000 0.000000 0.040642 0.000001 0.000000
# 5 0.000000 0.000000 0.000000 0.000001 0.042869 0.000001
# 6 0.000000 0.000000 0.000000 0.000000 0.000001 0.026290
#
#
# Mechanical properties :
#
#
# Convention : Reuss Voigt Hill
#
# Bulk Modulus (GPa) = 75.82460 77.34402 76.58431
# Shear Modulus (GPa) = 31.28098 34.98990 33.13544
#
# Velocity S-wave (km/s) = 3.54743 3.75184 3.65106
# Velocity P-wave (km/s) = 6.87626 7.06284 6.97017
#
# Compressibility (1/GPa) = 0.01318833
#
# Stress axis : x y z
#
# Youngs Moduli (GPa) = 104.58601 144.65339 77.27058
#
# Poissons Ratio (x) = 0.12124 0.33862
# Poissons Ratio (y) = 0.08766 0.22358
# Poissons Ratio (z) = 0.45833 0.41854
#
# Static dielectric constant tensor:
#      x y z
#    x 4.174380 0.000000 0.000000 
#    y 0.000000 4.469970 0.000000 
#    z 0.000000 0.000000 4.390310 
# 
# 
# High freq. dielectric constant tensor:
#      x y z
#    x 1.978250 0.000000 0.000000 
#    y 0.000000 1.995760 0.000000 
#    z 0.000000 0.000000 1.989040 
# 
# From -- ./inp_files/11577.got.cif
#   From: 2010.06.25/outbox.cif.g09.slc.cpg/sg43_6_cif.got.tgz:11577.got - 2010.06.26 16:48:59.
