data_PCOD8187428
_publ_section_title
;
Structure prediction by ZEFSAII (Michael W. Deem and Ramdas Pophale) SiO2 
 PCOD8187428
Probable space group: F D D 2
;
_chemical_formula_sum "Si O2"
_cell_formula_units_Z 80
_cell_length_a 10.557813
_cell_length_b 11.515360
_cell_length_c 33.892429
_cell_angle_alpha 90.000000
_cell_angle_beta 90.000000
_cell_angle_gamma 90.000000
_cell_volume 4120.540434
_symmetry_space_group_name_H-M "F D D 2"
_symmetry_group_IT_number 43
_symmetry_cell_setting 'orthorhombic'
loop_
_space_group_symop_operation_xyz
x,y,z
-x,-y,z
1/4-x,1/4+y,1/4+z
1/4+x,1/4-y,1/4+z
x,1/2+y,1/2+z
-x,1/2-y,1/2+z
1/4-x,3/4+y,3/4+z
1/4+x,3/4-y,3/4+z
1/2+x,y,1/2+z
1/2-x,-y,1/2+z
3/4-x,1/4+y,3/4+z
3/4+x,1/4-y,3/4+z
1/2+x,1/2+y,z
1/2-x,1/2-y,z
3/4-x,3/4+y,1/4+z
3/4+x,3/4-y,1/4+z
loop_
_atom_site_type_symbol
_atom_site_label
_atom_site_fract_x
_atom_site_fract_y
_atom_site_fract_z
Si Si1 0.000000 0.500000 0.783591
Si Si2 0.267616 0.386679 0.323572
Si Si3 0.984651 0.362250 0.662261
Si Si4 0.890125 0.205547 0.239169
Si Si5 0.750000 0.250000 0.699374
Si Si6 0.581471 0.892949 0.256767
O O1 0.092354 0.578910 0.809616
O O2 0.091434 0.423218 0.756109
O O3 0.250000 0.250000 0.321158
O O4 0.258721 0.433257 0.368109
O O5 0.153790 0.436719 0.296340
O O6 0.842998 0.323958 0.672299
O O7 0.000000 0.500000 0.665388
O O8 0.079609 0.296938 0.692368
O O9 0.750000 0.250000 0.246367
O O10 0.984611 0.287408 0.263924
O O11 0.685283 0.349306 0.725735
O O12 0.500000 0.000000 0.239387
#
# Coordination Sequence:
#
# PCOD8187428 Si02
#       6
#     8  16  16  16   8  16
#     4  12  22  42  63  90 124 160 206 260 291 376
#     4  11  22  41  61  91 125 162 200 251 313 357
#     4  10  23  39  63  87 126 162 196 255 303 361
#     4  11  23  39  65  93 120 164 208 248 306 360
#     4  10  22  44  59  90 120 162 208 246 301 362
#     4  11  22  39  66  90 123 159 208 254 299 366
#
# _framework density 19.414929999999998
#
# number of rings (size 3 to 8) (size 9 to 14) (size 15 to 20)
#    0.000    1.200    4.000    2.400    5.600    0.000 
#    0.000    0.000    0.000    0.000    0.000    0.000 
#    0.000    0.000    0.000    0.000    0.000    0.000 
#
# Total GULP energy -247977.176103 kJ/mol
# GULP energy per Si atom -12398.858805 kJ/mol
# Density = 1.937074 g / cm^3
# Si number density = 19.414930 Si / 1000 Ang^3
#
#
#
# Elastic Constant Matrix: (Units=GPa)
#
#
# Indices 1 2 3 4 5 6 
#
# 1 147.1678 49.7958 72.6250 0.0000 0.0000 0.0000
# 2 49.7958 91.9452 42.2502 0.0000 0.0000 0.0000
# 3 72.6250 42.2502 136.8614 0.0000 0.0000 0.0000
# 4 0.0000 0.0000 0.0000 5.3382 0.0000 0.0000
# 5 0.0000 0.0000 0.0000 0.0000 15.5524 0.0000
# 6 0.0000 0.0000 0.0000 0.0000 0.0000 46.5949
#
#
#
# Elastic Compliance Matrix: (Units=1/GPa)
#
#
# Indices 1 2 3 4 5 6 
#
# 1 0.010088 -0.003500 -0.004272 0.000000 0.000000 0.000000
# 2 -0.003500 0.013888 -0.002430 0.000000 0.000000 0.000000
# 3 -0.004272 -0.002430 0.010324 0.000000 0.000000 0.000000
# 4 0.000000 0.000000 0.000000 0.187328 0.000000 0.000000
# 5 0.000000 0.000000 0.000000 0.000000 0.064299 0.000000
# 6 0.000000 0.000000 0.000000 0.000000 0.000000 0.021462
#
#
# Mechanical properties :
#
#
# Convention : Reuss Voigt Hill
#
# Bulk Modulus (GPa) = 71.97008 78.36849 75.16928
# Shear Modulus (GPa) = 15.04100 27.58400 21.31250
#
# Velocity S-wave (km/s) = 2.78639 3.77339 3.31681
# Velocity P-wave (km/s) = 6.89216 7.70956 7.31229
#
# Compressibility (1/GPa) = 0.01389466
#
# Stress axis : x y z
#
# Youngs Moduli (GPa) = 99.13131 72.00320 96.86123
#
# Poissons Ratio (x) = 0.25201 0.41384
# Poissons Ratio (y) = 0.34696 0.23539
# Poissons Ratio (z) = 0.42354 0.17498
#
# Static dielectric constant tensor:
#      x y z
#    x 3.705800 0.000000 0.000000 
#    y 0.000000 3.526730 0.000000 
#    z 0.000000 0.000000 3.703790 
# 
# 
# High freq. dielectric constant tensor:
#      x y z
#    x 1.767020 0.000000 0.000000 
#    y 0.000000 1.755730 0.000000 
#    z 0.000000 0.000000 1.748590 
# 
# From -- ./inp_files/28400.got.cif
#   From: 2010.06.25/outbox.cif.g09.slc.cpg/sg43_15_cif.got.tgz:28400.got - 2010.06.26 16:48:59.
