data_PCOD8187274
_publ_section_title
;
Structure prediction by ZEFSAII (Michael W. Deem and Ramdas Pophale) SiO2 
 PCOD8187274
Probable space group: F D D 2
;
_chemical_formula_sum "Si O2"
_cell_formula_units_Z 72
_cell_length_a 10.469755
_cell_length_b 10.792849
_cell_length_c 26.868302
_cell_angle_alpha 90.000000
_cell_angle_beta 90.000000
_cell_angle_gamma 90.000000
_cell_volume 3036.077415
_symmetry_space_group_name_H-M "F D D 2"
_symmetry_group_IT_number 43
_symmetry_cell_setting 'orthorhombic'
loop_
_space_group_symop_operation_xyz
x,y,z
-x,-y,z
1/4-x,1/4+y,1/4+z
1/4+x,1/4-y,1/4+z
x,1/2+y,1/2+z
-x,1/2-y,1/2+z
1/4-x,3/4+y,3/4+z
1/4+x,3/4-y,3/4+z
1/2+x,y,1/2+z
1/2-x,-y,1/2+z
3/4-x,1/4+y,3/4+z
3/4+x,1/4-y,3/4+z
1/2+x,1/2+y,z
1/2-x,1/2-y,z
3/4-x,3/4+y,1/4+z
3/4+x,3/4-y,1/4+z
loop_
_atom_site_type_symbol
_atom_site_label
_atom_site_fract_x
_atom_site_fract_y
_atom_site_fract_z
Si Si1 0.623337 0.924203 0.129540
Si Si2 0.466103 0.368133 0.427919
Si Si3 0.020026 0.130260 0.240879
Si Si4 0.906368 0.885389 0.769639
Si Si5 0.500000 0.000000 0.449932
O O1 0.603321 0.862664 0.075776
O O2 0.637114 0.810943 0.167684
O O3 0.500000 0.000000 0.146435
O O4 0.746782 0.013270 0.137450
O O5 0.500000 0.500000 0.403162
O O6 0.316024 0.360600 0.440778
O O7 0.542769 0.356958 0.480380
O O8 0.172835 0.144878 0.230611
O O9 0.978382 0.253521 0.269230
O O10 0.000000 0.000000 0.271428
O O11 0.000000 0.000000 0.760008
#
# Coordination Sequence:
#
# PCOD8187274 Si02
#       5
#    16  16  16  16   8
#     4  12  23  42  70 100 141 185 240 292 359 432
#     4  10  21  42  69  96 134 183 232 292 360 423
#     4  11  23  42  69  98 138 176 236 293 362 419
#     4  11  24  44  69 104 141 190 239 296 360 436
#     4  12  24  44  70 104 136 186 236 300 360 430
#
# _framework density 23.714808999999999
#
# number of rings (size 3 to 8) (size 9 to 14) (size 15 to 20)
#    0.000    0.889    3.333    6.667    0.000    0.889 
#    0.000    4.444    0.000    0.000    0.000    0.000 
#    0.000    0.000    0.000    0.000    0.000    0.000 
#
# Total GULP energy -223105.071802 kJ/mol
# GULP energy per Si atom -12394.726211 kJ/mol
# Density = 2.366083 g / cm^3
# Si number density = 23.714809 Si / 1000 Ang^3
#
#
#
# Elastic Constant Matrix: (Units=GPa)
#
#
# Indices 1 2 3 4 5 6 
#
# 1 112.3908 27.8551 8.9020 0.0000 0.0000 0.0000
# 2 27.8551 159.2101 10.0201 0.0000 0.0000 0.0000
# 3 8.9020 10.0201 62.2861 0.0000 0.0000 0.0000
# 4 0.0000 0.0000 0.0000 36.8295 0.0000 0.0000
# 5 0.0000 0.0000 0.0000 0.0000 11.5705 0.0000
# 6 0.0000 0.0000 0.0000 0.0000 0.0000 55.0445
#
#
#
# Elastic Compliance Matrix: (Units=1/GPa)
#
#
# Indices 1 2 3 4 5 6 
#
# 1 0.009373 -0.001571 -0.001087 0.000000 0.000000 0.000000
# 2 -0.001571 0.006609 -0.000839 0.000000 0.000000 0.000000
# 3 -0.001087 -0.000839 0.016345 0.000000 0.000000 0.000000
# 4 0.000000 0.000000 0.000000 0.027152 0.000000 0.000000
# 5 0.000000 0.000000 0.000000 0.000000 0.086427 0.000000
# 6 0.000000 0.000000 0.000000 0.000000 0.000000 0.018167
#
#
# Mechanical properties :
#
#
# Convention : Reuss Voigt Hill
#
# Bulk Modulus (GPa) = 39.47378 47.49349 43.48363
# Shear Modulus (GPa) = 27.85343 39.82955 33.84149
#
# Velocity S-wave (km/s) = 3.43084 4.10264 3.78169
# Velocity P-wave (km/s) = 5.68995 6.52017 6.11916
#
# Compressibility (1/GPa) = 0.02533327
#
# Stress axis : x y z
#
# Youngs Moduli (GPa) = 106.68838 151.31498 61.18013
#
# Poissons Ratio (x) = 0.23779 0.06649
# Poissons Ratio (y) = 0.16766 0.05130
# Poissons Ratio (z) = 0.11595 0.12689
#
# Static dielectric constant tensor:
#      x y z
#    x 4.200750 0.000000 0.000000 
#    y 0.000000 4.880800 0.000000 
#    z 0.000000 0.000000 3.741440 
# 
# 
# High freq. dielectric constant tensor:
#      x y z
#    x 1.938930 0.000000 0.000000 
#    y 0.000000 1.975160 0.000000 
#    z 0.000000 0.000000 1.890490 
# 
# From -- ./inp_files/24843.got.cif
#   From: 2010.06.25/outbox.cif.g09.slc.cpg/sg43_13_cif.got.tgz:24843.got - 2010.06.26 16:48:59.
