data_PCOD8187229
_publ_section_title
;
Structure prediction by ZEFSAII (Michael W. Deem and Ramdas Pophale) SiO2 
 PCOD8187229
Probable space group: F D D 2
;
_chemical_formula_sum "Si O2"
_cell_formula_units_Z 64
_cell_length_a 7.600131
_cell_length_b 14.453019
_cell_length_c 26.937377
_cell_angle_alpha 90.000000
_cell_angle_beta 90.000000
_cell_angle_gamma 90.000000
_cell_volume 2958.931806
_symmetry_space_group_name_H-M "F D D 2"
_symmetry_group_IT_number 43
_symmetry_cell_setting 'orthorhombic'
loop_
_space_group_symop_operation_xyz
x,y,z
-x,-y,z
1/4-x,1/4+y,1/4+z
1/4+x,1/4-y,1/4+z
x,1/2+y,1/2+z
-x,1/2-y,1/2+z
1/4-x,3/4+y,3/4+z
1/4+x,3/4-y,3/4+z
1/2+x,y,1/2+z
1/2-x,-y,1/2+z
3/4-x,1/4+y,3/4+z
3/4+x,1/4-y,3/4+z
1/2+x,1/2+y,z
1/2-x,1/2-y,z
3/4-x,3/4+y,1/4+z
3/4+x,3/4-y,1/4+z
loop_
_atom_site_type_symbol
_atom_site_label
_atom_site_fract_x
_atom_site_fract_y
_atom_site_fract_z
Si Si1 0.643004 0.926477 0.335110
Si Si2 0.623767 0.831464 0.672922
Si Si3 0.379686 0.331956 0.262751
Si Si4 0.954268 0.237919 0.359537
O O1 0.767651 0.967405 0.377985
O O2 0.753785 0.911674 0.284753
O O3 0.560772 0.833875 0.359153
O O4 0.500000 0.000000 0.319144
O O5 0.750000 0.750000 0.693721
O O6 0.492377 0.865661 0.716075
O O7 0.722739 0.922558 0.653233
O O8 0.250000 0.250000 0.245910
O O9 0.518043 0.305748 0.305552
O O10 0.750000 0.250000 0.370129
#
# Coordination Sequence:
#
# PCOD8187229 Si02
#       4
#    16  16  16  16
#     4  10  21  41  65  90 125 164 204 257 312 364
#     4  11  21  37  63  91 125 166 206 251 309 373
#     4   9  20  38  61  90 125 163 206 254 307 371
#     4  10  21  40  62  89 126 163 204 258 309 366
#
# _framework density 21.629428000000001
#
# number of rings (size 3 to 8) (size 9 to 14) (size 15 to 20)
#    0.000    2.000    0.000    5.250    0.000    0.000 
#    0.000   26.250    0.000    0.000    0.000    0.000 
#    0.000    0.000    0.000    0.000    0.000    0.000 
#
# Total GULP energy -198382.622370 kJ/mol
# GULP energy per Si atom -12398.913898 kJ/mol
# Density = 2.158020 g / cm^3
# Si number density = 21.629428 Si / 1000 Ang^3
#
#
#
# Elastic Constant Matrix: (Units=GPa)
#
#
# Indices 1 2 3 4 5 6 
#
# 1 159.1055 57.6411 83.0572 0.0000 0.0000 0.0000
# 2 57.6411 104.1325 54.5770 0.0000 0.0000 0.0000
# 3 83.0572 54.5770 128.4553 0.0000 0.0000 0.0000
# 4 0.0000 0.0000 0.0000 10.5008 0.0000 0.0000
# 5 0.0000 0.0000 0.0000 0.0000 25.5368 0.0000
# 6 0.0000 0.0000 0.0000 0.0000 0.0000 41.1242
#
#
#
# Elastic Compliance Matrix: (Units=1/GPa)
#
#
# Indices 1 2 3 4 5 6 
#
# 1 0.010078 -0.002783 -0.005334 0.000000 0.000000 0.000000
# 2 -0.002783 0.013123 -0.003776 0.000000 0.000000 0.000000
# 3 -0.005334 -0.003776 0.012838 0.000000 0.000000 0.000000
# 4 0.000000 0.000000 0.000000 0.095231 0.000000 0.000000
# 5 0.000000 0.000000 0.000000 0.000000 0.039159 0.000000
# 6 0.000000 0.000000 0.000000 0.000000 0.000000 0.024317
#
#
# Mechanical properties :
#
#
# Convention : Reuss Voigt Hill
#
# Bulk Modulus (GPa) = 81.61367 86.91601 84.26484
# Shear Modulus (GPa) = 22.46037 28.52690 25.49364
#
# Velocity S-wave (km/s) = 3.22594 3.63560 3.43688
# Velocity P-wave (km/s) = 7.18959 7.60886 7.40220
#
# Compressibility (1/GPa) = 0.01225285
#
# Stress axis : x y z
#
# Youngs Moduli (GPa) = 99.22950 76.20399 77.89486
#
# Poissons Ratio (x) = 0.21207 0.41547
# Poissons Ratio (y) = 0.27615 0.29414
# Poissons Ratio (z) = 0.52926 0.28775
#
# Static dielectric constant tensor:
#      x y z
#    x 4.403970 0.000000 0.000000 
#    y 0.000000 3.862000 0.000000 
#    z 0.000000 0.000000 3.700420 
# 
# 
# High freq. dielectric constant tensor:
#      x y z
#    x 1.866990 0.000000 0.000000 
#    y 0.000000 1.836030 0.000000 
#    z 0.000000 0.000000 1.842910 
# 
# From -- ./inp_files/19920.got.cif
#   From: 2010.06.25/outbox.cif.g09.slc.cpg/sg43_10_cif.got.tgz:19920.got - 2010.06.26 16:48:59.
