data_PCOD8187805
_publ_section_title
;
Structure prediction by ZEFSAII (Michael W. Deem and Ramdas Pophale) SiO2 
 PCOD8187805
Probable space group: F D D 2
;
_chemical_formula_sum "Si O2"
_cell_formula_units_Z 112
_cell_length_a 14.321104
_cell_length_b 27.010886
_cell_length_c 12.722637
_cell_angle_alpha 90.000000
_cell_angle_beta 90.000000
_cell_angle_gamma 90.000000
_cell_volume 4921.443059
_symmetry_space_group_name_H-M "F D D 2"
_symmetry_group_IT_number 43
_symmetry_cell_setting 'orthorhombic'
loop_
_space_group_symop_operation_xyz
x,y,z
-x,-y,z
1/4-x,1/4+y,1/4+z
1/4+x,1/4-y,1/4+z
x,1/2+y,1/2+z
-x,1/2-y,1/2+z
1/4-x,3/4+y,3/4+z
1/4+x,3/4-y,3/4+z
1/2+x,y,1/2+z
1/2-x,-y,1/2+z
3/4-x,1/4+y,3/4+z
3/4+x,1/4-y,3/4+z
1/2+x,1/2+y,z
1/2-x,1/2-y,z
3/4-x,3/4+y,1/4+z
3/4+x,3/4-y,1/4+z
loop_
_atom_site_type_symbol
_atom_site_label
_atom_site_fract_x
_atom_site_fract_y
_atom_site_fract_z
Si Si1 0.000000 0.500000 0.285571
Si Si2 0.882883 0.641784 0.805241
Si Si3 0.048220 0.927347 0.465629
Si Si4 0.250000 0.750000 0.049290
Si Si5 0.342632 0.499012 0.615760
Si Si6 0.115646 0.265302 0.374464
Si Si7 0.909306 0.565058 0.446555
Si Si8 0.261531 0.136290 0.371033
O O1 0.907398 0.491002 0.217177
O O2 0.983633 0.547692 0.359330
O O3 0.882436 0.612103 0.914515
O O4 0.773069 0.646930 0.786542
O O5 0.930649 0.695561 0.816546
O O6 0.937483 0.610855 0.716281
O O7 0.103967 0.967817 0.531208
O O8 0.985987 0.952659 0.374193
O O9 0.158468 0.739530 0.978149
O O10 0.244150 0.524334 0.643885
O O11 0.133501 0.231152 0.272319
O O12 0.169147 0.317084 0.365012
O O13 0.819477 0.585556 0.382941
O O14 0.951909 0.611150 0.513106
#
# Coordination Sequence:
#
# PCOD8187805 Si02
#       8
#     8  16  16   8  16  16  16  16
#     4  12  26  54  68 102 166 196 244 326 380 458
#     4  12  24  47  80 110 148 197 262 317 381 465
#     4  12  26  48  75 110 150 199 258 317 381 462
#     4  12  22  46  76 106 150 192 250 318 374 456
#     4  12  28  50  74 109 158 202 254 319 391 447
#     4  12  25  48  73 114 151 200 252 322 387 450
#     4  12  26  48  76 109 156 199 254 316 382 465
#     4  12  25  45  77 114 145 196 261 310 386 462
#
# _framework density 22.757552
#
# number of rings (size 3 to 8) (size 9 to 14) (size 15 to 20)
#    0.000    0.000    8.571    0.857    4.000    2.286 
#    0.000    0.000    0.000    0.000    0.000    0.000 
#    0.000    0.000    0.000    0.000    0.000    0.000 
#
# Total GULP energy -347173.930352 kJ/mol
# GULP energy per Si atom -12399.068941 kJ/mol
# Density = 2.270575 g / cm^3
# Si number density = 22.757552 Si / 1000 Ang^3
#
#
#
# Elastic Constant Matrix: (Units=GPa)
#
#
# Indices 1 2 3 4 5 6 
#
# 1 99.8570 26.0997 45.2353 0.0000 0.0000 0.0000
# 2 26.0997 105.4896 52.6847 0.0000 0.0000 0.0000
# 3 45.2353 52.6847 96.0383 0.0000 0.0000 0.0000
# 4 0.0000 0.0000 0.0000 32.9714 0.0000 0.0000
# 5 0.0000 0.0000 0.0000 0.0000 32.5387 0.0000
# 6 0.0000 0.0000 0.0000 0.0000 0.0000 37.7434
#
#
#
# Elastic Compliance Matrix: (Units=1/GPa)
#
#
# Indices 1 2 3 4 5 6 
#
# 1 0.012734 -0.000214 -0.005881 0.000000 0.000000 0.000000
# 2 -0.000214 0.013061 -0.007064 0.000000 0.000000 0.000000
# 3 -0.005881 -0.007064 0.017058 0.000000 0.000000 0.000000
# 4 0.000000 0.000000 0.000000 0.030329 0.000000 0.000000
# 5 0.000000 0.000000 0.000000 0.000000 0.030733 0.000000
# 6 0.000000 0.000000 0.000000 0.000000 0.000000 0.026495
#
#
# Mechanical properties :
#
#
# Convention : Reuss Voigt Hill
#
# Bulk Modulus (GPa) = 60.47654 61.04713 60.76184
# Shear Modulus (GPa) = 30.81896 32.47503 31.64699
#
# Velocity S-wave (km/s) = 3.68398 3.78166 3.73314
# Velocity P-wave (km/s) = 6.68787 6.77873 6.73345
#
# Compressibility (1/GPa) = 0.01653534
#
# Stress axis : x y z
#
# Youngs Moduli (GPa) = 78.52903 76.56673 58.62457
#
# Poissons Ratio (x) = 0.01635 0.34476
# Poissons Ratio (y) = 0.01677 0.41413
# Poissons Ratio (z) = 0.46181 0.54088
#
# Static dielectric constant tensor:
#      x y z
#    x 4.165340 0.000000 0.000000 
#    y 0.000000 4.089550 0.000000 
#    z 0.000000 0.000000 4.266970 
# 
# 
# High freq. dielectric constant tensor:
#      x y z
#    x 1.895020 0.000000 0.000000 
#    y 0.000000 1.902840 0.000000 
#    z 0.000000 0.000000 1.902080 
# 
# From -- ./inp_files/6356.got.cif
#   From: 2010.06.25/outbox.cif.g09.slc.cpg/sg43_4_cif.got.tgz:6356.got - 2010.06.26 16:48:59.
