data_PCOD8187615
_publ_section_title
;
Structure prediction by ZEFSAII (Michael W. Deem and Ramdas Pophale) SiO2 
 PCOD8187615
Probable space group: F D D 2
;
_chemical_formula_sum "Si O2"
_cell_formula_units_Z 104
_cell_length_a 27.365780
_cell_length_b 10.805598
_cell_length_c 16.383837
_cell_angle_alpha 90.000000
_cell_angle_beta 90.000000
_cell_angle_gamma 90.000000
_cell_volume 4844.759872
_symmetry_space_group_name_H-M "F D D 2"
_symmetry_group_IT_number 43
_symmetry_cell_setting 'orthorhombic'
loop_
_space_group_symop_operation_xyz
x,y,z
-x,-y,z
1/4-x,1/4+y,1/4+z
1/4+x,1/4-y,1/4+z
x,1/2+y,1/2+z
-x,1/2-y,1/2+z
1/4-x,3/4+y,3/4+z
1/4+x,3/4-y,3/4+z
1/2+x,y,1/2+z
1/2-x,-y,1/2+z
3/4-x,1/4+y,3/4+z
3/4+x,1/4-y,3/4+z
1/2+x,1/2+y,z
1/2-x,1/2-y,z
3/4-x,3/4+y,1/4+z
3/4+x,3/4-y,1/4+z
loop_
_atom_site_type_symbol
_atom_site_label
_atom_site_fract_x
_atom_site_fract_y
_atom_site_fract_z
Si Si1 0.641607 0.992605 0.531000
Si Si2 0.506287 0.861809 0.294815
Si Si3 0.571134 0.174767 0.610652
Si Si4 0.000000 0.500000 0.701922
Si Si5 0.497057 0.362102 0.600606
Si Si6 0.644940 0.494921 0.368067
Si Si7 0.677763 0.074468 0.039416
O O1 0.692379 0.046629 0.567234
O O2 0.600651 0.096842 0.544555
O O3 0.643597 0.966599 0.434560
O O4 0.626309 0.868249 0.577181
O O5 0.500974 0.866422 0.198024
O O6 0.462548 0.777942 0.331469
O O7 0.500000 0.000000 0.331736
O O8 0.524799 0.101529 0.645784
O O9 0.545180 0.291278 0.566261
O O10 0.040802 0.439808 0.758128
O O11 0.500000 0.500000 0.563459
O O12 0.447032 0.291150 0.577179
O O13 0.609657 0.377303 0.355737
O O14 0.648103 0.514808 0.464510
#
# Coordination Sequence:
#
# PCOD8187615 Si02
#       7
#    16  16  16   8  16  16  16
#     4  11  19  33  59  87 116 153 206 252 304 373
#     4   9  19  36  57  83 114 156 198 246 306 377
#     4  11  20  34  61  88 117 161 205 253 310 378
#     4  12  16  36  58  88 112 160 204 242 326 368
#     4   9  19  36  57  83 114 156 198 246 306 377
#     4  11  19  33  59  87 116 153 206 252 304 373
#     4  11  20  34  61  88 117 161 205 253 310 378
#
# _framework density 21.466491000000001
#
# number of rings (size 3 to 8) (size 9 to 14) (size 15 to 20)
#    0.000    1.538    7.692    0.000    0.000    1.231 
#    0.000    0.000   16.923    0.000    0.000    0.000 
#    0.000    0.000    0.000    0.000    0.000    0.000 
#
# Total GULP energy -322343.605838 kJ/mol
# GULP energy per Si atom -12397.830994 kJ/mol
# Density = 2.141763 g / cm^3
# Si number density = 21.466491 Si / 1000 Ang^3
#
#
#
# Elastic Constant Matrix: (Units=GPa)
#
#
# Indices 1 2 3 4 5 6 
#
# 1 126.9627 74.4340 24.0114 0.0000 0.0000 0.0000
# 2 74.4340 161.0155 18.3340 0.0000 0.0000 0.0000
# 3 24.0114 18.3340 22.0453 0.0000 0.0000 0.0000
# 4 0.0000 0.0000 0.0000 -125.5205 0.0000 0.0000
# 5 0.0000 0.0000 0.0000 0.0000 28.1577 0.0000
# 6 0.0000 0.0000 0.0000 0.0000 0.0000 52.5474
#
#
#
# Elastic Compliance Matrix: (Units=1/GPa)
#
#
# Indices 1 2 3 4 5 6 
#
# 1 0.012429 -0.004644 -0.009675 0.000000 0.000000 0.000000
# 2 -0.004644 0.008595 -0.002090 0.000000 0.000000 0.000000
# 3 -0.009675 -0.002090 0.057637 0.000000 0.000000 0.000000
# 4 0.000000 0.000000 0.000000 -0.007967 0.000000 0.000000
# 5 0.000000 0.000000 0.000000 0.000000 0.035514 0.000000
# 6 0.000000 0.000000 0.000000 0.000000 0.000000 0.019030
#
#
# Mechanical properties :
#
#
# Convention : Reuss Voigt Hill
#
# Bulk Modulus (GPa) = 21.81357 60.39802 41.10580
# Shear Modulus (GPa) = 28.84527 3.91986 16.38257
#
# Velocity S-wave (km/s) = 3.66968 1.35278 2.76555
# Velocity P-wave (km/s) = 5.30463 5.53507 5.42108
#
# Compressibility (1/GPa) = 0.04584302
#
# Stress axis : x y z
#
# Youngs Moduli (GPa) = 80.45951 116.34210 17.34985
#
# Poissons Ratio (x) = 0.54027 0.16786
# Poissons Ratio (y) = 0.37364 0.03627
# Poissons Ratio (z) = 0.77845 0.24319
#
# Static dielectric constant tensor:
#      x y z
#    x 4.199440 0.000000 0.000000 
#    y 0.000000 6.300000 0.000000 
#    z 0.000000 0.000000 3.251380 
# 
# 
# High freq. dielectric constant tensor:
#      x y z
#    x 1.857600 0.000000 0.000000 
#    y 0.000000 1.867310 0.000000 
#    z 0.000000 0.000000 1.778220 
# 
# From -- ./inp_files/15048.got.cif
#   From: 2010.06.25/outbox.cif.g09.slc.cpg/sg43_8_cif.got.tgz:15048.got - 2010.06.26 16:48:59.
