data_PCOD8187908
_publ_section_title
;
Structure prediction by ZEFSAII (Michael W. Deem and Ramdas Pophale) SiO2 
 PCOD8187908
Probable space group: I M M 2
;
_chemical_formula_sum "Si O2"
_cell_formula_units_Z 64
_cell_length_a 27.952060
_cell_length_b 9.145308
_cell_length_c 14.673078
_cell_angle_alpha 90.000000
_cell_angle_beta 90.000000
_cell_angle_gamma 90.000000
_cell_volume 3750.881833
_symmetry_space_group_name_H-M "I M M 2"
_symmetry_group_IT_number 44
_symmetry_cell_setting 'orthorhombic'
loop_
_space_group_symop_operation_xyz
x,y,z
-x,-y,z
-x,y,z
x,-y,z
1/2+x,1/2+y,1/2+z
1/2-x,1/2-y,1/2+z
1/2-x,1/2+y,1/2+z
1/2+x,1/2-y,1/2+z
loop_
_atom_site_type_symbol
_atom_site_label
_atom_site_fract_x
_atom_site_fract_y
_atom_site_fract_z
Si Si1 0.447263 0.673847 0.694840
Si Si2 0.863118 0.174306 0.067839
Si Si3 0.944618 0.830026 0.399477
Si Si4 0.674989 0.172280 0.197082
Si Si5 0.364061 0.827823 0.008537
Si Si6 0.217123 0.168915 0.400739
Si Si7 0.720122 0.671709 0.694008
Si Si8 0.828367 0.670773 0.898292
O O1 0.500000 0.733392 0.669114
O O2 0.447795 0.500000 0.696425
O O3 0.410186 0.732896 0.620106
O O4 0.433307 0.725624 0.796955
O O5 0.817889 0.238752 0.123536
O O6 0.863243 0.000000 0.062047
O O7 0.862059 0.240062 0.966855
O O8 0.912074 0.741996 0.469738
O O9 0.000000 0.801293 0.423702
O O10 0.931842 0.000000 0.409257
O O11 0.727454 0.240708 0.175346
O O12 0.657130 0.226037 0.296437
O O13 0.683022 0.000000 0.205912
O O14 0.638147 0.211982 0.116590
O O15 0.315624 0.769550 0.963373
O O16 0.365998 0.000000 0.993144
O O17 0.203293 0.205051 0.296690
O O18 0.272712 0.206003 0.417559
O O19 0.206399 0.000000 0.422987
O O20 0.721500 0.500000 0.677857
O O21 0.838762 0.500000 0.910686
#
# Coordination Sequence:
#
# PCOD8187908 Si02
#       8
#     8   8   8   8   8   8   8   8
#     4   8  15  29  49  71  93 120 153 183 218 275
#     4  10  17  26  46  71  91 114 148 191 233 271
#     4   9  18  34  54  72  92 120 151 182 221 275
#     4   8  16  30  44  60  87 124 157 182 217 268
#     4  11  20  29  47  72  95 120 152 192 232 268
#     4   9  17  30  47  66  91 125 159 187 220 268
#     4   8  14  26  44  64  88 120 155 184 216 269
#     4   9  18  32  47  63  89 125 161 193 223 263
#
# _framework density 17.062653999999998
#
# number of rings (size 3 to 8) (size 9 to 14) (size 15 to 20)
#    0.000    3.000    0.000    4.125    0.000    3.750 
#    0.000    3.750    0.000    4.125    0.000    3.500 
#    0.000    0.000    0.000    0.000    0.000    0.000 
#
# Total GULP energy -396621.727535 kJ/mol
# GULP energy per Si atom -12394.428985 kJ/mol
# Density = 1.702382 g / cm^3
# Si number density = 17.062654 Si / 1000 Ang^3
#
#
#
# Elastic Constant Matrix: (Units=GPa)
#
#
# Indices 1 2 3 4 5 6 
#
# 1 95.6522 34.9533 81.6615 0.0000 0.0000 0.0000
# 2 34.9533 42.4914 41.6173 0.0000 0.0000 0.0000
# 3 81.6615 41.6173 141.1274 0.0000 0.0000 0.0000
# 4 0.0000 0.0000 0.0000 25.9022 0.0000 0.0000
# 5 0.0000 0.0000 0.0000 0.0000 29.0189 0.0000
# 6 0.0000 0.0000 0.0000 0.0000 0.0000 19.5085
#
#
#
# Elastic Compliance Matrix: (Units=1/GPa)
#
#
# Indices 1 2 3 4 5 6 
#
# 1 0.022478 -0.008087 -0.010622 0.000000 0.000000 0.000000
# 2 -0.008087 0.036001 -0.005937 0.000000 0.000000 0.000000
# 3 -0.010622 -0.005937 0.014983 0.000000 0.000000 0.000000
# 4 0.000000 0.000000 0.000000 0.038607 0.000000 0.000000
# 5 0.000000 0.000000 0.000000 0.000000 0.034460 0.000000
# 6 0.000000 0.000000 0.000000 0.000000 0.000000 0.051260
#
#
# Mechanical properties :
#
#
# Convention : Reuss Voigt Hill
#
# Bulk Modulus (GPa) = 41.37292 66.19282 53.78287
# Shear Modulus (GPa) = 19.59729 22.95516 21.27622
#
# Velocity S-wave (km/s) = 3.39270 3.67187 3.53504
# Velocity P-wave (km/s) = 6.29663 7.54023 6.94632
#
# Compressibility (1/GPa) = 0.02417040
#
# Stress axis : x y z
#
# Youngs Moduli (GPa) = 44.48830 27.77663 66.74353
#
# Poissons Ratio (x) = 0.22463 0.70893
# Poissons Ratio (y) = 0.35978 0.39626
# Poissons Ratio (z) = 0.47254 0.16491
#
# Static dielectric constant tensor:
#      x y z
#    x 3.249360 0.000000 0.000000 
#    y 0.000000 2.779460 0.000000 
#    z 0.000000 0.000000 3.340640 
# 
# 
# High freq. dielectric constant tensor:
#      x y z
#    x 1.643670 0.000000 0.000000 
#    y 0.000000 1.619640 0.000000 
#    z 0.000000 0.000000 1.662780 
# 
# From -- ./inp_files/19712.got.cif
#   From: 2010.03.12/outbox.cif.g09.slc.cpg/sg44_10_cif.got.tgz:19712.got - 2010.04.14 02:36:11.
