data_PCOD8187424
_publ_section_title
;
Structure prediction by ZEFSAII (Michael W. Deem and Ramdas Pophale) SiO2 
 PCOD8187424
Probable space group: F D D 2
;
_chemical_formula_sum "Si O2"
_cell_formula_units_Z 72
_cell_length_a 30.661046
_cell_length_b 7.134563
_cell_length_c 16.302677
_cell_angle_alpha 90.000000
_cell_angle_beta 90.000000
_cell_angle_gamma 90.000000
_cell_volume 3566.262181
_symmetry_space_group_name_H-M "F D D 2"
_symmetry_group_IT_number 43
_symmetry_cell_setting 'orthorhombic'
loop_
_space_group_symop_operation_xyz
x,y,z
-x,-y,z
1/4-x,1/4+y,1/4+z
1/4+x,1/4-y,1/4+z
x,1/2+y,1/2+z
-x,1/2-y,1/2+z
1/4-x,3/4+y,3/4+z
1/4+x,3/4-y,3/4+z
1/2+x,y,1/2+z
1/2-x,-y,1/2+z
3/4-x,1/4+y,3/4+z
3/4+x,1/4-y,3/4+z
1/2+x,1/2+y,z
1/2-x,1/2-y,z
3/4-x,3/4+y,1/4+z
3/4+x,3/4-y,1/4+z
loop_
_atom_site_type_symbol
_atom_site_label
_atom_site_fract_x
_atom_site_fract_y
_atom_site_fract_z
Si Si1 0.587454 0.245555 0.263760
Si Si2 0.501063 0.717829 0.862185
Si Si3 0.795613 0.650954 0.466839
Si Si4 0.922595 0.050305 0.620383
Si Si5 0.500000 0.500000 0.504205
O O1 0.546034 0.268422 0.320871
O O2 0.586459 0.452152 0.221812
O O3 0.628103 0.194826 0.319913
O O4 0.582156 0.082869 0.198088
O O5 0.500000 0.500000 0.878164
O O6 0.461996 0.792651 0.803679
O O7 0.500821 0.814247 0.949970
O O8 0.750000 0.750000 0.438708
O O9 0.811623 0.505031 0.398403
O O10 0.958264 0.967682 0.560142
#
# Coordination Sequence:
#
# PCOD8187424 Si02
#       5
#    16  16  16  16   8
#     4  11  24  42  68  99 138 173 224 283 331 400
#     4  11  21  41  69  95 133 176 218 272 335 396
#     4  10  22  43  71  96 134 182 222 277 336 399
#     4  12  26  43  69  99 137 177 229 279 338 400
#     4  12  24  40  68 100 128 178 226 272 332 406
#
# _framework density 20.189205000000001
#
# number of rings (size 3 to 8) (size 9 to 14) (size 15 to 20)
#    0.000    0.889    5.556    4.000    0.000    6.222 
#    0.000    0.000    0.000    0.000    0.000    0.000 
#    0.000    0.000    0.000    0.000    0.000    0.000 
#
# Total GULP energy -223151.869034 kJ/mol
# GULP energy per Si atom -12397.326057 kJ/mol
# Density = 2.014325 g / cm^3
# Si number density = 20.189205 Si / 1000 Ang^3
#
#
#
# Elastic Constant Matrix: (Units=GPa)
#
#
# Indices 1 2 3 4 5 6 
#
# 1 69.6213 36.8980 49.2230 0.0000 0.0001 0.0000
# 2 36.8980 160.9551 53.7217 0.0000 0.0002 0.0001
# 3 49.2230 53.7217 103.6963 0.0000 0.0000 0.0000
# 4 0.0000 0.0000 0.0000 74.1423 0.0000 0.0000
# 5 0.0001 0.0002 0.0000 0.0000 110.1085 -0.0002
# 6 0.0000 0.0001 0.0000 0.0000 -0.0002 33.7121
#
#
#
# Elastic Compliance Matrix: (Units=1/GPa)
#
#
# Indices 1 2 3 4 5 6 
#
# 1 0.022085 -0.001891 -0.009504 0.000000 0.000000 0.000000
# 2 -0.001891 0.007674 -0.003078 0.000000 0.000000 0.000000
# 3 -0.009504 -0.003078 0.015749 0.000000 0.000000 0.000000
# 4 0.000000 0.000000 0.000000 0.013488 0.000000 0.000000
# 5 0.000000 0.000000 0.000000 0.000000 0.009082 0.000000
# 6 0.000000 0.000000 0.000000 0.000000 0.000000 0.029663
#
#
# Mechanical properties :
#
#
# Convention : Reuss Voigt Hill
#
# Bulk Modulus (GPa) = 60.37590 68.21758 64.29674
# Shear Modulus (GPa) = 37.81972 56.55458 47.18715
#
# Velocity S-wave (km/s) = 4.33282 5.29841 4.83975
# Velocity P-wave (km/s) = 7.41627 8.44354 7.94652
#
# Compressibility (1/GPa) = 0.01656290
#
# Stress axis : x y z
#
# Youngs Moduli (GPa) = 45.28020 130.31541 63.49441
#
# Poissons Ratio (x) = 0.24639 0.60343
# Poissons Ratio (y) = 0.08561 0.19543
# Poissons Ratio (z) = 0.43033 0.40111
#
# Static dielectric constant tensor:
#      x y z
#    x 2.669950 0.000000 0.000000 
#    y 0.000000 0.861690 0.000000 
#    z 0.000000 0.000000 3.731120 
# 
# 
# High freq. dielectric constant tensor:
#      x y z
#    x 1.780720 0.000000 0.000000 
#    y 0.000000 1.808880 0.000000 
#    z 0.000000 0.000000 1.792890 
# 
# From -- ./inp_files/9086.got.cif
#   From: 2010.06.25/outbox.cif.g09.slc.cpg/sg43_5_cif.got.tgz:9086.got - 2010.06.26 16:48:59.
