data_PCOD8187299
_publ_section_title
;
Structure prediction by ZEFSAII (Michael W. Deem and Ramdas Pophale) SiO2 
 PCOD8187299
Probable space group: F D D 2
;
_chemical_formula_sum "Si O2"
_cell_formula_units_Z 104
_cell_length_a 22.513154
_cell_length_b 8.318137
_cell_length_c 23.429175
_cell_angle_alpha 90.000000
_cell_angle_beta 90.000000
_cell_angle_gamma 90.000000
_cell_volume 4387.523012
_symmetry_space_group_name_H-M "F D D 2"
_symmetry_group_IT_number 43
_symmetry_cell_setting 'orthorhombic'
loop_
_space_group_symop_operation_xyz
x,y,z
-x,-y,z
1/4-x,1/4+y,1/4+z
1/4+x,1/4-y,1/4+z
x,1/2+y,1/2+z
-x,1/2-y,1/2+z
1/4-x,3/4+y,3/4+z
1/4+x,3/4-y,3/4+z
1/2+x,y,1/2+z
1/2-x,-y,1/2+z
3/4-x,1/4+y,3/4+z
3/4+x,1/4-y,3/4+z
1/2+x,1/2+y,z
1/2-x,1/2-y,z
3/4-x,3/4+y,1/4+z
3/4+x,3/4-y,1/4+z
loop_
_atom_site_type_symbol
_atom_site_label
_atom_site_fract_x
_atom_site_fract_y
_atom_site_fract_z
Si Si1 0.067278 0.176652 0.491970
Si Si2 0.680712 0.070188 0.208770
Si Si3 0.500000 0.000000 0.293745
Si Si4 0.664241 0.305911 0.921923
Si Si5 0.878278 0.288844 0.566715
Si Si6 0.154575 0.299640 0.860423
Si Si7 0.233003 0.980059 0.445186
O O1 0.104147 0.314057 0.459086
O O2 0.084901 0.179621 0.559268
O O3 0.999143 0.210916 0.474776
O O4 0.087545 0.003497 0.469421
O O5 0.660336 0.048562 0.142442
O O6 0.642141 0.948309 0.249009
O O7 0.557973 0.962667 0.331155
O O8 0.480326 0.842379 0.258245
O O9 0.652229 0.309778 0.853466
O O10 0.698960 0.471776 0.934044
O O11 0.696926 0.144460 0.939701
O O12 0.913626 0.128060 0.585895
O O13 0.206791 0.340490 0.904920
#
# Coordination Sequence:
#
# PCOD8187299 Si02
#       7
#    16  16   8  16  16  16  16
#     4  10  22  41  68 104 141 180 250 300 379 449
#     4  10  21  44  69 101 137 193 243 303 373 461
#     4  12  24  46  70 104 144 190 240 308 368 466
#     4  11  24  43  65 109 142 182 241 320 362 449
#     4  11  25  41  68 104 141 180 251 299 380 443
#     4  11  21  45  72  96 138 205 241 301 374 469
#     4  11  23  44  71  97 142 188 247 292 375 451
#
# _framework density 23.703578
#
# number of rings (size 3 to 8) (size 9 to 14) (size 15 to 20)
#    0.000    1.231    3.077    2.769    2.154    3.692 
#    0.000    1.538    0.000    0.000    0.000    0.000 
#    0.000    0.000    0.000    0.000    0.000    0.000 
#
# Total GULP energy -322132.914936 kJ/mol
# GULP energy per Si atom -12389.727498 kJ/mol
# Density = 2.364963 g / cm^3
# Si number density = 23.703578 Si / 1000 Ang^3
#
#
#
# Elastic Constant Matrix: (Units=GPa)
#
#
# Indices 1 2 3 4 5 6 
#
# 1 127.8441 31.5080 52.9641 0.0000 0.0000 0.0000
# 2 31.5080 65.4465 19.4227 -0.0001 0.0000 0.0000
# 3 52.9641 19.4227 104.3351 0.0000 0.0000 0.0000
# 4 0.0000 -0.0001 0.0000 27.5032 0.0000 0.0000
# 5 0.0000 0.0000 0.0000 0.0000 24.6106 0.0000
# 6 0.0000 0.0000 0.0000 0.0000 0.0000 39.3602
#
#
#
# Elastic Compliance Matrix: (Units=1/GPa)
#
#
# Indices 1 2 3 4 5 6 
#
# 1 0.010709 -0.003750 -0.004738 0.000000 0.000000 0.000000
# 2 -0.003750 0.017486 -0.001352 0.000000 0.000000 0.000000
# 3 -0.004738 -0.001352 0.012241 0.000000 0.000000 0.000000
# 4 0.000000 0.000000 0.000000 0.036359 0.000000 0.000000
# 5 0.000000 0.000000 0.000000 0.000000 0.040633 0.000000
# 6 0.000000 0.000000 0.000000 0.000000 0.000000 0.025406
#
#
# Mechanical properties :
#
#
# Convention : Reuss Voigt Hill
#
# Bulk Modulus (GPa) = 48.17565 56.15729 52.16647
# Shear Modulus (GPa) = 29.51009 31.21020 30.36015
#
# Velocity S-wave (km/s) = 3.53223 3.63256 3.58274
# Velocity P-wave (km/s) = 6.08308 6.42937 6.25862
#
# Compressibility (1/GPa) = 0.02075737
#
# Stress axis : x y z
#
# Youngs Moduli (GPa) = 93.37813 57.18876 81.68947
#
# Poissons Ratio (x) = 0.21443 0.38707
# Poissons Ratio (y) = 0.35012 0.11042
# Poissons Ratio (z) = 0.44246 0.07731
#
# Static dielectric constant tensor:
#      x y z
#    x 4.491520 0.000000 0.000000 
#    y 0.000000 4.057320 0.000000 
#    z 0.000000 0.000000 4.352940 
# 
# 
# High freq. dielectric constant tensor:
#      x y z
#    x 1.952810 0.000000 0.000000 
#    y 0.000000 1.921700 0.000000 
#    z 0.000000 0.000000 1.932970 
# 
# From -- ./inp_files/18850.got.cif
#   From: 2010.06.25/outbox.cif.g09.slc.cpg/sg43_10_cif.got.tgz:18850.got - 2010.06.26 16:48:59.
