data_PCOD8187319
_publ_section_title
;
Structure prediction by ZEFSAII (Michael W. Deem and Ramdas Pophale) SiO2 
 PCOD8187319
Probable space group: F D D 2
;
_chemical_formula_sum "Si O2"
_cell_formula_units_Z 120
_cell_length_a 9.085546
_cell_length_b 20.536523
_cell_length_c 32.069964
_cell_angle_alpha 90.000000
_cell_angle_beta 90.000000
_cell_angle_gamma 90.000000
_cell_volume 5983.791050
_symmetry_space_group_name_H-M "F D D 2"
_symmetry_group_IT_number 43
_symmetry_cell_setting 'orthorhombic'
loop_
_space_group_symop_operation_xyz
x,y,z
-x,-y,z
1/4-x,1/4+y,1/4+z
1/4+x,1/4-y,1/4+z
x,1/2+y,1/2+z
-x,1/2-y,1/2+z
1/4-x,3/4+y,3/4+z
1/4+x,3/4-y,3/4+z
1/2+x,y,1/2+z
1/2-x,-y,1/2+z
3/4-x,1/4+y,3/4+z
3/4+x,1/4-y,3/4+z
1/2+x,1/2+y,z
1/2-x,1/2-y,z
3/4-x,3/4+y,1/4+z
3/4+x,3/4-y,1/4+z
loop_
_atom_site_type_symbol
_atom_site_label
_atom_site_fract_x
_atom_site_fract_y
_atom_site_fract_z
Si Si1 0.000000 0.000000 0.890020
Si Si2 0.215485 0.899580 0.727160
Si Si3 0.960377 0.298286 0.707102
Si Si4 0.644739 0.101874 0.335397
Si Si5 0.521883 0.072551 0.156370
Si Si6 0.267011 0.125099 0.708365
Si Si7 0.731902 0.433782 0.514092
Si Si8 0.340048 0.523120 0.272664
O O1 0.983582 0.936203 0.860750
O O2 0.142463 0.996775 0.920573
O O3 0.358247 0.861040 0.712557
O O4 0.106935 0.912393 0.688963
O O5 0.131580 0.856669 0.761252
O O6 0.255398 0.966527 0.748905
O O7 0.980410 0.259062 0.751515
O O8 0.117543 0.323138 0.689816
O O9 0.763013 0.130411 0.367037
O O10 0.579793 0.164340 0.309814
O O11 0.732074 0.048171 0.308702
O O12 0.687940 0.080773 0.173715
O O13 0.500000 0.000000 0.140185
O O14 0.362716 0.081441 0.740033
O O15 0.137941 0.164176 0.730354
O O16 0.500000 0.500000 0.289540
#
# Coordination Sequence:
#
# PCOD8187319 Si02
#       8
#     8  16  16  16  16  16  16  16
#     4  12  22  42  64  94 128 178 214 270 320 394
#     4  11  20  40  68  89 117 168 223 257 312 389
#     4  12  21  39  70  94 122 161 227 271 311 381
#     4  11  25  39  61  94 133 172 210 266 339 380
#     4  11  22  41  65  91 131 171 209 265 330 397
#     4  10  22  37  65  96 119 161 221 270 311 379
#     4  10  22  39  60  93 125 166 207 263 322 386
#     4  11  22  39  64  94 128 168 222 269 316 382
#
# _framework density 20.054176999999999
#
# number of rings (size 3 to 8) (size 9 to 14) (size 15 to 20)
#    0.000    1.067    5.333    2.000    0.000    3.200 
#    0.000    0.000    2.933    0.000    0.000    0.000 
#    0.000    0.000    0.000    0.000    0.000    0.000 
#
# Total GULP energy -371833.903147 kJ/mol
# GULP energy per Si atom -12394.463438 kJ/mol
# Density = 2.000853 g / cm^3
# Si number density = 20.054177 Si / 1000 Ang^3
#
#
#
# Elastic Constant Matrix: (Units=GPa)
#
#
# Indices 1 2 3 4 5 6 
#
# 1 99.0595 30.7192 31.0680 0.0000 0.0000 0.0000
# 2 30.7192 94.0440 35.4145 0.0000 0.0000 0.0000
# 3 31.0680 35.4145 89.7140 0.0000 0.0000 0.0000
# 4 0.0000 0.0000 0.0000 35.0884 0.0000 0.0000
# 5 0.0000 0.0000 0.0000 0.0000 10.2814 0.0000
# 6 0.0000 0.0000 0.0000 0.0000 0.0000 40.7717
#
#
#
# Elastic Compliance Matrix: (Units=1/GPa)
#
#
# Indices 1 2 3 4 5 6 
#
# 1 0.011898 -0.002743 -0.003038 0.000000 0.000000 0.000000
# 2 -0.002743 0.013122 -0.004230 0.000000 0.000000 0.000000
# 3 -0.003038 -0.004230 0.013868 0.000000 0.000000 0.000000
# 4 0.000000 0.000000 0.000000 0.028499 0.000000 0.000000
# 5 0.000000 0.000000 0.000000 0.000000 0.097263 0.000000
# 6 0.000000 0.000000 0.000000 0.000000 0.000000 0.024527
#
#
# Mechanical properties :
#
#
# Convention : Reuss Voigt Hill
#
# Bulk Modulus (GPa) = 53.00061 53.02452 53.01256
# Shear Modulus (GPa) = 23.20310 29.60268 26.40289
#
# Velocity S-wave (km/s) = 3.40519 3.84622 3.63240
# Velocity P-wave (km/s) = 6.47661 6.79872 6.63962
#
# Compressibility (1/GPa) = 0.01886771
#
# Stress axis : x y z
#
# Youngs Moduli (GPa) = 84.04668 76.20696 72.10657
#
# Poissons Ratio (x) = 0.20900 0.21904
# Poissons Ratio (y) = 0.23050 0.30503
# Poissons Ratio (z) = 0.25531 0.32237
#
# Static dielectric constant tensor:
#      x y z
#    x 3.716720 0.000000 0.000000 
#    y 0.000000 3.791870 0.000000 
#    z 0.000000 0.000000 3.582070 
# 
# 
# High freq. dielectric constant tensor:
#      x y z
#    x 1.787160 0.000000 0.000000 
#    y 0.000000 1.795070 0.000000 
#    z 0.000000 0.000000 1.759200 
# 
# From -- ./inp_files/24480.got.cif
#   From: 2010.06.25/outbox.cif.g09.slc.cpg/sg43_13_cif.got.tgz:24480.got - 2010.06.26 16:48:59.
