data_PCOD8187842
_publ_section_title
;
Structure prediction by ZEFSAII (Michael W. Deem and Ramdas Pophale) SiO2 
 PCOD8187842
Probable space group: F D D 2
;
_chemical_formula_sum "Si O2"
_cell_formula_units_Z 88
_cell_length_a 23.811455
_cell_length_b 11.579608
_cell_length_c 13.321014
_cell_angle_alpha 90.000000
_cell_angle_beta 90.000000
_cell_angle_gamma 90.000000
_cell_volume 3672.967421
_symmetry_space_group_name_H-M "F D D 2"
_symmetry_group_IT_number 43
_symmetry_cell_setting 'orthorhombic'
loop_
_space_group_symop_operation_xyz
x,y,z
-x,-y,z
1/4-x,1/4+y,1/4+z
1/4+x,1/4-y,1/4+z
x,1/2+y,1/2+z
-x,1/2-y,1/2+z
1/4-x,3/4+y,3/4+z
1/4+x,3/4-y,3/4+z
1/2+x,y,1/2+z
1/2-x,-y,1/2+z
3/4-x,1/4+y,3/4+z
3/4+x,1/4-y,3/4+z
1/2+x,1/2+y,z
1/2-x,1/2-y,z
3/4-x,3/4+y,1/4+z
3/4+x,3/4-y,1/4+z
loop_
_atom_site_type_symbol
_atom_site_label
_atom_site_fract_x
_atom_site_fract_y
_atom_site_fract_z
Si Si1 0.371414 0.444092 0.640660
Si Si2 0.500000 0.000000 0.623767
Si Si3 0.459588 0.812246 0.771589
Si Si4 0.904874 0.444319 0.466538
Si Si5 0.534607 0.598180 0.773195
Si Si6 0.810957 0.236416 0.195632
O O1 0.355643 0.555540 0.708575
O O2 0.417891 0.364893 0.695260
O O3 0.391614 0.476319 0.530076
O O4 0.319217 0.355794 0.632623
O O5 0.497016 0.887782 0.695103
O O6 0.442879 0.991100 0.558528
O O7 0.404572 0.760456 0.716429
O O8 0.499905 0.709079 0.808865
O O9 0.437311 0.880127 0.868646
O O10 0.939353 0.473586 0.366585
O O11 0.500000 0.500000 0.714526
O O12 0.750000 0.250000 0.246644
#
# Coordination Sequence:
#
# PCOD8187842 Si02
#       6
#    16   8  16  16  16  16
#     4  12  27  50  80 112 152 209 263 330 384 473
#     4  12  30  50  78 118 162 204 260 338 388 476
#     4  12  30  49  75 119 157 204 262 323 398 466
#     4  12  27  48  80 112 151 206 265 319 393 464
#     4  12  25  49  75 112 152 201 264 320 391 465
#     4  12  29  50  79 115 158 206 264 327 400 466
#
# _framework density 23.958829999999999
#
# number of rings (size 3 to 8) (size 9 to 14) (size 15 to 20)
#    0.000    0.000    5.455    2.727    5.091    1.455 
#    0.000    0.000    0.000    0.000    0.000    0.000 
#    0.000    0.000    0.000    0.000    0.000    0.000 
#
# Total GULP energy -272609.794989 kJ/mol
# GULP energy per Si atom -12391.354318 kJ/mol
# Density = 2.390430 g / cm^3
# Si number density = 23.958830 Si / 1000 Ang^3
#
#
#
# Elastic Constant Matrix: (Units=GPa)
#
#
# Indices 1 2 3 4 5 6 
#
# 1 82.5791 59.0337 30.0385 0.0000 0.0000 0.0000
# 2 59.0337 159.8624 40.9905 0.0000 0.0000 0.0000
# 3 30.0385 40.9905 107.5977 0.0000 0.0000 0.0000
# 4 0.0000 0.0000 0.0000 54.7018 0.0000 0.0000
# 5 0.0000 0.0000 0.0000 0.0000 27.5718 0.0000
# 6 0.0000 0.0000 0.0000 0.0000 0.0000 56.0097
#
#
#
# Elastic Compliance Matrix: (Units=1/GPa)
#
#
# Indices 1 2 3 4 5 6 
#
# 1 0.017096 -0.005640 -0.002624 0.000000 0.000000 0.000000
# 2 -0.005640 0.008793 -0.001775 0.000000 0.000000 0.000000
# 3 -0.002624 -0.001775 0.010703 0.000000 0.000000 0.000000
# 4 0.000000 0.000000 0.000000 0.018281 0.000000 0.000000
# 5 0.000000 0.000000 0.000000 0.000000 0.036269 0.000000
# 6 0.000000 0.000000 0.000000 0.000000 0.000000 0.017854
#
#
# Mechanical properties :
#
#
# Convention : Reuss Voigt Hill
#
# Bulk Modulus (GPa) = 60.55854 67.79606 64.17730
# Shear Modulus (GPa) = 37.15250 42.32177 39.73713
#
# Velocity S-wave (km/s) = 3.94214 4.20746 4.07696
# Velocity P-wave (km/s) = 6.78613 7.20846 7.00048
#
# Compressibility (1/GPa) = 0.01651295
#
# Stress axis : x y z
#
# Youngs Moduli (GPa) = 58.49206 113.72057 93.43376
#
# Poissons Ratio (x) = 0.64144 0.24518
# Poissons Ratio (y) = 0.32992 0.16587
# Poissons Ratio (z) = 0.15349 0.20189
#
# Static dielectric constant tensor:
#      x y z
#    x 4.832200 0.000000 0.000000 
#    y 0.000000 1.191650 0.000000 
#    z 0.000000 0.000000 4.246150 
# 
# 
# High freq. dielectric constant tensor:
#      x y z
#    x 1.977160 0.000000 0.000000 
#    y 0.000000 1.958880 0.000000 
#    z 0.000000 0.000000 1.945970 
# 
# From -- ./inp_files/11201.got.cif
#   From: 2010.06.25/outbox.cif.g09.slc.cpg/sg43_6_cif.got.tgz:11201.got - 2010.06.26 16:48:59.
