data_PCOD8187350
_publ_section_title
;
Structure prediction by ZEFSAII (Michael W. Deem and Ramdas Pophale) SiO2 
 PCOD8187350
Probable space group: F D D 2
;
_chemical_formula_sum "Si O2"
_cell_formula_units_Z 112
_cell_length_a 15.036861
_cell_length_b 11.296804
_cell_length_c 28.905062
_cell_angle_alpha 90.000000
_cell_angle_beta 90.000000
_cell_angle_gamma 90.000000
_cell_volume 4910.058700
_symmetry_space_group_name_H-M "F D D 2"
_symmetry_group_IT_number 43
_symmetry_cell_setting 'orthorhombic'
loop_
_space_group_symop_operation_xyz
x,y,z
-x,-y,z
1/4-x,1/4+y,1/4+z
1/4+x,1/4-y,1/4+z
x,1/2+y,1/2+z
-x,1/2-y,1/2+z
1/4-x,3/4+y,3/4+z
1/4+x,3/4-y,3/4+z
1/2+x,y,1/2+z
1/2-x,-y,1/2+z
3/4-x,1/4+y,3/4+z
3/4+x,1/4-y,3/4+z
1/2+x,1/2+y,z
1/2-x,1/2-y,z
3/4-x,3/4+y,1/4+z
3/4+x,3/4-y,1/4+z
loop_
_atom_site_type_symbol
_atom_site_label
_atom_site_fract_x
_atom_site_fract_y
_atom_site_fract_z
Si Si1 0.850930 0.232228 0.917840
Si Si2 0.838579 0.432874 0.283904
Si Si3 0.152152 0.762270 0.629354
Si Si4 0.935647 0.395434 0.845851
Si Si5 0.730995 0.010921 0.021139
Si Si6 0.899192 0.283191 0.013582
Si Si7 0.840040 0.680495 0.231271
O O1 0.750000 0.250000 0.931744
O O2 0.881771 0.348437 0.889595
O O3 0.861478 0.116243 0.887495
O O4 0.910126 0.213943 0.964610
O O5 0.842933 0.428994 0.339604
O O6 0.916084 0.350301 0.263529
O O7 0.738591 0.390387 0.272660
O O8 0.848881 0.562444 0.261574
O O9 0.250000 0.750000 0.607537
O O10 0.158649 0.842496 0.675851
O O11 0.869258 0.443772 0.805868
O O12 0.000000 0.500000 0.863351
O O13 0.992638 0.285056 0.824846
O O14 0.820154 0.003987 0.990886
O O15 0.681900 0.128722 0.004125
O O16 0.750000 0.750000 0.246267
#
# Coordination Sequence:
#
# PCOD8187350 Si02
#       7
#    16  16  16  16  16  16  16
#     4  12  23  40  67  94 121 164 219 268 315 378
#     4  12  24  41  66  94 129 172 213 263 324 387
#     4  11  23  40  64  95 126 161 214 272 320 374
#     4  10  22  40  63  91 129 168 213 267 324 387
#     4  11  23  42  62  91 131 170 207 262 326 387
#     4  11  24  43  63  92 132 172 212 264 322 383
#     4  11  23  42  67  95 126 165 218 270 322 382
#
# _framework density 22.810317999999999
#
# number of rings (size 3 to 8) (size 9 to 14) (size 15 to 20)
#    0.000    0.857    0.000    9.857    0.000    2.286 
#    0.000    6.429    0.000    0.000    0.000    0.000 
#    0.000    0.000    0.000    0.000    0.000    0.000 
#
# Total GULP energy -347190.704501 kJ/mol
# GULP energy per Si atom -12399.668018 kJ/mol
# Density = 2.275840 g / cm^3
# Si number density = 22.810318 Si / 1000 Ang^3
#
#
#
# Elastic Constant Matrix: (Units=GPa)
#
#
# Indices 1 2 3 4 5 6 
#
# 1 145.5384 22.3471 34.6289 0.0000 0.0000 0.0000
# 2 22.3471 62.4521 17.8191 0.0000 0.0000 0.0000
# 3 34.6289 17.8191 113.0134 0.0000 0.0000 0.0000
# 4 0.0000 0.0000 0.0000 24.2560 0.0000 0.0000
# 5 0.0000 0.0000 0.0000 0.0000 24.7262 0.0000
# 6 0.0000 0.0000 0.0000 0.0000 0.0000 39.9807
#
#
#
# Elastic Compliance Matrix: (Units=1/GPa)
#
#
# Indices 1 2 3 4 5 6 
#
# 1 0.007684 -0.002176 -0.002011 0.000000 0.000000 0.000000
# 2 -0.002176 0.017383 -0.002074 0.000000 0.000000 0.000000
# 3 -0.002011 -0.002074 0.009792 0.000000 0.000000 0.000000
# 4 0.000000 0.000000 0.000000 0.041227 0.000000 0.000000
# 5 0.000000 0.000000 0.000000 0.000000 0.040443 0.000000
# 6 0.000000 0.000000 0.000000 0.000000 0.000000 0.025012
#
#
# Mechanical properties :
#
#
# Convention : Reuss Voigt Hill
#
# Bulk Modulus (GPa) = 44.77078 52.28823 48.52951
# Shear Modulus (GPa) = 30.95834 34.20650 32.58242
#
# Velocity S-wave (km/s) = 3.68803 3.87668 3.78353
# Velocity P-wave (km/s) = 6.14861 6.55828 6.35674
#
# Compressibility (1/GPa) = 0.02233600
#
# Stress axis : x y z
#
# Youngs Moduli (GPa) = 130.14621 57.52901 102.12576
#
# Poissons Ratio (x) = 0.12516 0.20541
# Poissons Ratio (y) = 0.28314 0.21182
# Poissons Ratio (z) = 0.26177 0.11932
#
# Static dielectric constant tensor:
#      x y z
#    x 4.495500 0.000000 0.000000 
#    y 0.000000 4.212060 0.000000 
#    z 0.000000 0.000000 3.979370 
# 
# 
# High freq. dielectric constant tensor:
#      x y z
#    x 1.917020 0.000000 0.000000 
#    y 0.000000 1.894620 0.000000 
#    z 0.000000 0.000000 1.896590 
# 
# From -- ./inp_files/28632.got.cif
#   From: 2010.06.25/outbox.cif.g09.slc.cpg/sg43_15_cif.got.tgz:28632.got - 2010.06.26 16:48:59.
