data_PCOD8187792
_publ_section_title
;
Structure prediction by ZEFSAII (Michael W. Deem and Ramdas Pophale) SiO2 
 PCOD8187792
Probable space group: F D D 2
;
_chemical_formula_sum "Si O2"
_cell_formula_units_Z 64
_cell_length_a 7.982446
_cell_length_b 17.219651
_cell_length_c 19.622131
_cell_angle_alpha 90.000000
_cell_angle_beta 90.000000
_cell_angle_gamma 90.000000
_cell_volume 2697.158726
_symmetry_space_group_name_H-M "F D D 2"
_symmetry_group_IT_number 43
_symmetry_cell_setting 'orthorhombic'
loop_
_space_group_symop_operation_xyz
x,y,z
-x,-y,z
1/4-x,1/4+y,1/4+z
1/4+x,1/4-y,1/4+z
x,1/2+y,1/2+z
-x,1/2-y,1/2+z
1/4-x,3/4+y,3/4+z
1/4+x,3/4-y,3/4+z
1/2+x,y,1/2+z
1/2-x,-y,1/2+z
3/4-x,1/4+y,3/4+z
3/4+x,1/4-y,3/4+z
1/2+x,1/2+y,z
1/2-x,1/2-y,z
3/4-x,3/4+y,1/4+z
3/4+x,3/4-y,1/4+z
loop_
_atom_site_type_symbol
_atom_site_label
_atom_site_fract_x
_atom_site_fract_y
_atom_site_fract_z
Si Si1 0.109945 0.932796 0.932570
Si Si2 0.934772 0.771319 0.571397
Si Si3 0.804340 0.021419 0.676847
Si Si4 0.362932 0.437804 0.549680
O O1 0.184362 0.968918 0.862856
O O2 0.987785 0.861799 0.914587
O O3 0.252523 0.908853 0.986309
O O4 0.000000 0.000000 0.967941
O O5 0.750000 0.750000 0.596807
O O6 0.960617 0.863727 0.581685
O O7 0.951428 0.755695 0.491501
O O8 0.745988 0.974930 0.609007
O O9 0.000000 0.000000 0.686329
O O10 0.500000 0.500000 0.524109
#
# Coordination Sequence:
#
# PCOD8187792 Si02
#       4
#    16  16  16  16
#     4  12  27  46  77 110 148 199 253 308 378 447
#     4  12  27  48  75 112 150 198 252 313 373 447
#     4  11  27  48  75 108 151 194 252 311 373 444
#     4  11  27  47  75 107 151 196 248 311 375 444
#
# _framework density 23.728673000000001
#
# number of rings (size 3 to 8) (size 9 to 14) (size 15 to 20)
#    0.000    0.500    2.500    4.500   14.000    1.000 
#    0.000    0.000    0.000    0.000    0.000    0.000 
#    0.000    0.000    0.000    0.000    0.000    0.000 
#
# Total GULP energy -198375.417252 kJ/mol
# GULP energy per Si atom -12398.463578 kJ/mol
# Density = 2.367467 g / cm^3
# Si number density = 23.728673 Si / 1000 Ang^3
#
#
#
# Elastic Constant Matrix: (Units=GPa)
#
#
# Indices 1 2 3 4 5 6 
#
# 1 112.0649 63.5087 29.6651 0.0000 0.0000 0.0000
# 2 63.5087 214.4465 46.2039 0.0000 0.0000 0.0000
# 3 29.6651 46.2039 120.6789 0.0000 0.0000 0.0000
# 4 0.0000 0.0000 0.0000 31.2496 0.0000 0.0000
# 5 0.0000 0.0000 0.0000 0.0000 39.0964 0.0000
# 6 0.0000 0.0000 0.0000 0.0000 0.0000 51.3731
#
#
#
# Elastic Compliance Matrix: (Units=1/GPa)
#
#
# Indices 1 2 3 4 5 6 
#
# 1 0.010995 -0.002914 -0.001587 0.000000 0.000000 0.000000
# 2 -0.002914 0.005855 -0.001525 0.000000 0.000000 0.000000
# 3 -0.001587 -0.001525 0.009261 0.000000 0.000000 0.000000
# 4 0.000000 0.000000 0.000000 0.032000 0.000000 0.000000
# 5 0.000000 0.000000 0.000000 0.000000 0.025578 0.000000
# 6 0.000000 0.000000 0.000000 0.000000 0.000000 0.019465
#
#
# Mechanical properties :
#
#
# Convention : Reuss Voigt Hill
#
# Bulk Modulus (GPa) = 71.13698 80.66065 75.89881
# Shear Modulus (GPa) = 41.70386 44.86466 43.28426
#
# Velocity S-wave (km/s) = 4.19684 4.35298 4.27562
# Velocity P-wave (km/s) = 7.31635 7.70268 7.51200
#
# Compressibility (1/GPa) = 0.01405739
#
# Stress axis : x y z
#
# Youngs Moduli (GPa) = 90.94988 170.79823 107.98512
#
# Poissons Ratio (x) = 0.49775 0.17137
# Poissons Ratio (y) = 0.26505 0.16470
# Poissons Ratio (z) = 0.14434 0.26051
#
# Static dielectric constant tensor:
#      x y z
#    x 4.138390 0.000000 0.000000 
#    y 0.000000 4.562580 0.000000 
#    z 0.000000 0.000000 4.308100 
# 
# 
# High freq. dielectric constant tensor:
#      x y z
#    x 1.936990 0.000000 0.000000 
#    y 0.000000 1.961790 0.000000 
#    z 0.000000 0.000000 1.942930 
# 
# From -- ./inp_files/16121.got.cif
#   From: 2010.06.25/outbox.cif.g09.slc.cpg/sg43_9_cif.got.tgz:16121.got - 2010.06.26 16:48:59.
