data_PCOD8187824
_publ_section_title
;
Structure prediction by ZEFSAII (Michael W. Deem and Ramdas Pophale) SiO2 
 PCOD8187824
Probable space group: F D D 2
;
_chemical_formula_sum "Si O2"
_cell_formula_units_Z 56
_cell_length_a 11.468565
_cell_length_b 26.258724
_cell_length_c 8.505027
_cell_angle_alpha 90.000000
_cell_angle_beta 90.000000
_cell_angle_gamma 90.000000
_cell_volume 2561.287886
_symmetry_space_group_name_H-M "F D D 2"
_symmetry_group_IT_number 43
_symmetry_cell_setting 'orthorhombic'
loop_
_space_group_symop_operation_xyz
x,y,z
-x,-y,z
1/4-x,1/4+y,1/4+z
1/4+x,1/4-y,1/4+z
x,1/2+y,1/2+z
-x,1/2-y,1/2+z
1/4-x,3/4+y,3/4+z
1/4+x,3/4-y,3/4+z
1/2+x,y,1/2+z
1/2-x,-y,1/2+z
3/4-x,1/4+y,3/4+z
3/4+x,1/4-y,3/4+z
1/2+x,1/2+y,z
1/2-x,1/2-y,z
3/4-x,3/4+y,1/4+z
3/4+x,3/4-y,1/4+z
loop_
_atom_site_type_symbol
_atom_site_label
_atom_site_fract_x
_atom_site_fract_y
_atom_site_fract_z
Si Si1 0.597638 0.692327 0.814220
Si Si2 0.454918 0.772611 0.977237
Si Si3 0.178053 0.827366 0.500719
Si Si4 0.000000 0.000000 0.008399
O O1 0.520226 0.718592 0.950384
O O2 0.589996 0.725380 0.655896
O O3 0.547145 0.636053 0.786899
O O4 0.731335 0.691519 0.869766
O O5 0.345237 0.778872 0.863453
O O6 0.546263 0.818420 0.938466
O O7 0.187454 0.793586 0.657725
#
# Coordination Sequence:
#
# PCOD8187824 Si02
#       4
#    16  16  16   8
#     4  12  24  48  74 101 147 188 241 294 368 413
#     4  12  25  46  72 105 142 189 235 298 351 437
#     4  12  24  49  69 103 147 186 237 309 345 435
#     4  12  26  46  70 106 142 188 238 292 368 416
#
# _framework density 21.864001999999999
#
# number of rings (size 3 to 8) (size 9 to 14) (size 15 to 20)
#    0.000    0.000    8.571    0.000    4.000    0.000 
#   15.429    0.000    0.000    0.000    0.000    0.000 
#    0.000    0.000    0.000    0.000    0.000    0.000 
#
# Total GULP energy -173674.695724 kJ/mol
# GULP energy per Si atom -12405.335409 kJ/mol
# Density = 2.181424 g / cm^3
# Si number density = 21.864002 Si / 1000 Ang^3
#
#
#
# Elastic Constant Matrix: (Units=GPa)
#
#
# Indices 1 2 3 4 5 6 
#
# 1 128.9807 27.6359 66.9174 0.0000 0.0000 0.0000
# 2 27.6359 135.4114 63.2803 0.0000 0.0000 0.0000
# 3 66.9174 63.2803 147.6484 0.0000 0.0000 0.0000
# 4 0.0000 0.0000 0.0000 33.4807 0.0000 0.0000
# 5 0.0000 0.0000 0.0000 0.0000 37.9647 0.0000
# 6 0.0000 0.0000 0.0000 0.0000 0.0000 27.9173
#
#
#
# Elastic Compliance Matrix: (Units=1/GPa)
#
#
# Indices 1 2 3 4 5 6 
#
# 1 0.010138 0.000098 -0.004636 0.000000 0.000000 0.000000
# 2 0.000098 0.009235 -0.004002 0.000000 0.000000 0.000000
# 3 -0.004636 -0.004002 0.010590 0.000000 0.000000 0.000000
# 4 0.000000 0.000000 0.000000 0.029868 0.000000 0.000000
# 5 0.000000 0.000000 0.000000 0.000000 0.026340 0.000000
# 6 0.000000 0.000000 0.000000 0.000000 0.000000 0.035820
#
#
# Mechanical properties :
#
#
# Convention : Reuss Voigt Hill
#
# Bulk Modulus (GPa) = 77.63852 80.85642 79.24747
# Shear Modulus (GPa) = 34.87559 36.81967 35.84763
#
# Velocity S-wave (km/s) = 3.99822 4.10815 4.05356
# Velocity P-wave (km/s) = 7.54329 7.71779 7.63104
#
# Compressibility (1/GPa) = 0.01288021
#
# Stress axis : x y z
#
# Youngs Moduli (GPa) = 98.64220 108.27926 94.43222
#
# Poissons Ratio (x) = -0.01058 0.43783
# Poissons Ratio (y) = -0.00964 0.37796
# Poissons Ratio (z) = 0.45735 0.43338
#
# Static dielectric constant tensor:
#      x y z
#    x 4.207450 0.000000 0.000000 
#    y 0.000000 3.973090 0.000000 
#    z 0.000000 0.000000 4.002770 
# 
# 
# High freq. dielectric constant tensor:
#      x y z
#    x 1.879990 0.000000 0.000000 
#    y 0.000000 1.853120 0.000000 
#    z 0.000000 0.000000 1.858020 
# 
# From -- ./inp_files/1850.got.cif
#   From: 2010.06.25/outbox.cif.g09.slc.cpg/sg43_1_cif.got.tgz:1850.got - 2010.06.26 16:48:59.
