data_PCOD8187334
_publ_section_title
;
Structure prediction by ZEFSAII (Michael W. Deem and Ramdas Pophale) SiO2 
 PCOD8187334
Probable space group: F D D 2
;
_chemical_formula_sum "Si O2"
_cell_formula_units_Z 112
_cell_length_a 14.104831
_cell_length_b 30.658010
_cell_length_c 11.839977
_cell_angle_alpha 90.000000
_cell_angle_beta 90.000000
_cell_angle_gamma 90.000000
_cell_volume 5119.914484
_symmetry_space_group_name_H-M "F D D 2"
_symmetry_group_IT_number 43
_symmetry_cell_setting 'orthorhombic'
loop_
_space_group_symop_operation_xyz
x,y,z
-x,-y,z
1/4-x,1/4+y,1/4+z
1/4+x,1/4-y,1/4+z
x,1/2+y,1/2+z
-x,1/2-y,1/2+z
1/4-x,3/4+y,3/4+z
1/4+x,3/4-y,3/4+z
1/2+x,y,1/2+z
1/2-x,-y,1/2+z
3/4-x,1/4+y,3/4+z
3/4+x,1/4-y,3/4+z
1/2+x,1/2+y,z
1/2-x,1/2-y,z
3/4-x,3/4+y,1/4+z
3/4+x,3/4-y,1/4+z
loop_
_atom_site_type_symbol
_atom_site_label
_atom_site_fract_x
_atom_site_fract_y
_atom_site_fract_z
Si Si1 0.140248 0.631678 0.823000
Si Si2 0.942888 0.821787 0.111183
Si Si3 0.407879 0.527629 0.188991
Si Si4 0.241093 0.004494 0.023543
Si Si5 0.791857 0.572565 0.863408
Si Si6 0.581665 0.467621 0.653978
Si Si7 0.782512 0.855650 0.724216
O O1 0.107072 0.646572 0.700363
O O2 0.224735 0.598409 0.799211
O O3 0.177605 0.673435 0.894064
O O4 0.058382 0.605374 0.891315
O O5 0.991940 0.782099 0.177273
O O6 0.868782 0.807146 0.015296
O O7 0.500000 0.500000 0.222421
O O8 0.353213 0.499430 0.096532
O O9 0.342411 0.532162 0.299427
O O10 0.335402 0.002515 0.100018
O O11 0.235517 0.052433 0.968328
O O12 0.716042 0.598251 0.788783
O O13 0.872541 0.606950 0.900065
O O14 0.500000 0.500000 0.695726
O O15 0.537104 0.434985 0.560492
#
# Coordination Sequence:
#
# PCOD8187334 Si02
#       7
#    16  16  16  16  16  16  16
#     4  10  22  41  62  88 123 166 210 259 318 383
#     4  11  24  41  64  93 127 164 211 268 320 378
#     4  10  22  40  63  90 122 161 207 256 312 375
#     4  10  23  42  63  90 126 167 208 259 319 382
#     4  10  22  39  63  90 121 161 208 257 305 370
#     4  11  25  42  64  95 130 170 214 265 322 384
#     4  10  22  41  64  90 123 167 214 260 315 382
#
# _framework density 21.875364999999999
#
# number of rings (size 3 to 8) (size 9 to 14) (size 15 to 20)
#    0.000    1.714    0.000    3.429    0.000   16.000 
#    0.000    0.000    0.000    0.000    0.000    0.000 
#    0.000    0.000    0.000    0.000    0.000    0.000 
#
# Total GULP energy -347184.890854 kJ/mol
# GULP energy per Si atom -12399.460388 kJ/mol
# Density = 2.182558 g / cm^3
# Si number density = 21.875365 Si / 1000 Ang^3
#
#
#
# Elastic Constant Matrix: (Units=GPa)
#
#
# Indices 1 2 3 4 5 6 
#
# 1 69.2685 59.3222 46.2433 0.0000 0.0000 0.0000
# 2 59.3222 84.9703 47.6065 0.0000 0.0000 0.0000
# 3 46.2433 47.6065 123.2313 0.0000 0.0000 0.0000
# 4 0.0000 0.0000 0.0000 36.0147 0.0000 0.0000
# 5 0.0000 0.0000 0.0000 0.0000 18.2916 0.0000
# 6 0.0000 0.0000 0.0000 0.0000 0.0000 41.9446
#
#
#
# Elastic Compliance Matrix: (Units=1/GPa)
#
#
# Indices 1 2 3 4 5 6 
#
# 1 0.038313 -0.023857 -0.005161 0.000000 0.000000 0.000000
# 2 -0.023857 0.029875 -0.002589 0.000000 0.000000 0.000000
# 3 -0.005161 -0.002589 0.011052 0.000000 0.000000 0.000000
# 4 0.000000 0.000000 0.000000 0.027766 0.000000 0.000000
# 5 0.000000 0.000000 0.000000 0.000000 0.054670 0.000000
# 6 0.000000 0.000000 0.000000 0.000000 0.000000 0.023841
#
#
# Mechanical properties :
#
#
# Convention : Reuss Voigt Hill
#
# Bulk Modulus (GPa) = 62.39650 64.86825 63.63237
# Shear Modulus (GPa) = 19.67937 27.53671 23.60804
#
# Velocity S-wave (km/s) = 3.00261 3.55181 3.28869
# Velocity P-wave (km/s) = 6.37232 6.82190 6.60094
#
# Compressibility (1/GPa) = 0.01602654
#
# Stress axis : x y z
#
# Youngs Moduli (GPa) = 26.10056 33.47268 90.48480
#
# Poissons Ratio (x) = 0.79856 0.46698
# Poissons Ratio (y) = 0.62268 0.23425
# Poissons Ratio (z) = 0.13470 0.08665
#
# Static dielectric constant tensor:
#      x y z
#    x 3.802520 0.000000 0.000000 
#    y 0.000000 3.984880 0.000000 
#    z 0.000000 0.000000 4.083920 
# 
# 
# High freq. dielectric constant tensor:
#      x y z
#    x 1.850670 0.000000 0.000000 
#    y 0.000000 1.862480 0.000000 
#    z 0.000000 0.000000 1.873030 
# 
# From -- ./inp_files/6324.got.cif
#   From: 2010.06.25/outbox.cif.g09.slc.cpg/sg43_4_cif.got.tgz:6324.got - 2010.06.26 16:48:59.
