data_PCOD8187808
_publ_section_title
;
Structure prediction by ZEFSAII (Michael W. Deem and Ramdas Pophale) SiO2 
 PCOD8187808
Probable space group: F D D 2
;
_chemical_formula_sum "Si O2"
_cell_formula_units_Z 96
_cell_length_a 30.088781
_cell_length_b 10.927336
_cell_length_c 14.583352
_cell_angle_alpha 90.000000
_cell_angle_beta 90.000000
_cell_angle_gamma 90.000000
_cell_volume 4794.863510
_symmetry_space_group_name_H-M "F D D 2"
_symmetry_group_IT_number 43
_symmetry_cell_setting 'orthorhombic'
loop_
_space_group_symop_operation_xyz
x,y,z
-x,-y,z
1/4-x,1/4+y,1/4+z
1/4+x,1/4-y,1/4+z
x,1/2+y,1/2+z
-x,1/2-y,1/2+z
1/4-x,3/4+y,3/4+z
1/4+x,3/4-y,3/4+z
1/2+x,y,1/2+z
1/2-x,-y,1/2+z
3/4-x,1/4+y,3/4+z
3/4+x,1/4-y,3/4+z
1/2+x,1/2+y,z
1/2-x,1/2-y,z
3/4-x,3/4+y,1/4+z
3/4+x,3/4-y,1/4+z
loop_
_atom_site_type_symbol
_atom_site_label
_atom_site_fract_x
_atom_site_fract_y
_atom_site_fract_z
Si Si1 0.126902 0.617977 0.218840
Si Si2 0.122125 0.101169 0.922745
Si Si3 0.801091 0.744343 0.309521
Si Si4 0.449526 0.697399 0.200400
Si Si5 0.699638 0.446205 0.970124
Si Si6 0.449683 0.006285 0.862263
O O1 0.132981 0.496707 0.158087
O O2 0.127526 0.556860 0.318819
O O3 0.080128 0.682126 0.200195
O O4 0.166619 0.714677 0.196808
O O5 0.167340 0.062862 0.974460
O O6 0.080567 0.032824 0.970050
O O7 0.750000 0.750000 0.277533
O O8 0.811535 0.875379 0.356172
O O9 0.811060 0.640637 0.384235
O O10 0.500216 0.742817 0.207768
O O11 0.441364 0.610024 0.286656
O O12 0.690601 0.374459 0.065167
O O13 0.500000 0.000000 0.900192
#
# Coordination Sequence:
#
# PCOD8187808 Si02
#       6
#    16  16  16  16  16  16
#     4  12  23  39  58  89 130 154 185 245 305 352
#     4  12  23  39  58  89 130 154 185 245 305 352
#     4   9  19  40  64  84 112 158 209 242 280 350
#     4   9  19  39  65  86 112 157 206 244 282 347
#     4   9  19  39  65  86 112 157 206 244 282 347
#     4   9  19  40  64  84 112 158 209 242 280 350
#
# _framework density 20.021426000000002
#
# number of rings (size 3 to 8) (size 9 to 14) (size 15 to 20)
#    0.000    2.000    3.333    3.000    0.000    0.667 
#    6.000    0.000    0.000    0.000    0.000    0.000 
#    0.000    0.000    0.000    0.000    0.000    0.000 
#
# Total GULP energy -297489.715905 kJ/mol
# GULP energy per Si atom -12395.404829 kJ/mol
# Density = 1.997586 g / cm^3
# Si number density = 20.021426 Si / 1000 Ang^3
#
#
#
# Elastic Constant Matrix: (Units=GPa)
#
#
# Indices 1 2 3 4 5 6 
#
# 1 139.5529 56.7385 49.3724 0.0000 0.0000 0.0000
# 2 56.7385 76.1547 11.3305 0.0000 0.0000 0.0000
# 3 49.3724 11.3305 79.8145 0.0000 0.0000 0.0000
# 4 0.0000 0.0000 0.0000 18.7436 0.0000 0.0000
# 5 0.0000 0.0000 0.0000 0.0000 30.2870 0.0000
# 6 0.0000 0.0000 0.0000 0.0000 0.0000 35.4254
#
#
#
# Elastic Compliance Matrix: (Units=1/GPa)
#
#
# Indices 1 2 3 4 5 6 
#
# 1 0.013186 -0.008796 -0.006908 0.000000 0.000000 0.000000
# 2 -0.008796 0.019283 0.002704 0.000000 0.000000 0.000000
# 3 -0.006908 0.002704 0.016418 0.000000 0.000000 0.000000
# 4 0.000000 0.000000 0.000000 0.053352 0.000000 0.000000
# 5 0.000000 0.000000 0.000000 0.000000 0.033017 0.000000
# 6 0.000000 0.000000 0.000000 0.000000 0.000000 0.028228
#
#
# Mechanical properties :
#
#
# Convention : Reuss Voigt Hill
#
# Bulk Modulus (GPa) = 43.69442 58.93388 51.31415
# Shear Modulus (GPa) = 25.36598 28.76323 27.06460
#
# Velocity S-wave (km/s) = 3.56327 3.79439 3.68065
# Velocity P-wave (km/s) = 6.22900 6.97824 6.61424
#
# Compressibility (1/GPa) = 0.02288622
#
# Stress axis : x y z
#
# Youngs Moduli (GPa) = 75.83717 51.86026 60.90705
#
# Poissons Ratio (x) = 0.45619 0.42075
# Poissons Ratio (y) = 0.66710 -0.16469
# Poissons Ratio (z) = 0.52389 -0.14023
#
# Static dielectric constant tensor:
#      x y z
#    x 3.645320 0.000000 0.000000 
#    y 0.000000 3.422580 0.000000 
#    z 0.000000 0.000000 3.450270 
# 
# 
# High freq. dielectric constant tensor:
#      x y z
#    x 1.786770 0.000000 0.000000 
#    y 0.000000 1.771080 0.000000 
#    z 0.000000 0.000000 1.767990 
# 
# From -- ./inp_files/7928.got.cif
#   From: 2010.06.25/outbox.cif.g09.slc.cpg/sg43_4_cif.got.tgz:7928.got - 2010.06.26 16:48:59.
