data_PCOD8187003
_publ_section_title
;
Structure prediction by ZEFSAII (Michael W. Deem and Ramdas Pophale) SiO2 
 PCOD8187003
Probable space group: F D D 2
;
_chemical_formula_sum "Si O2"
_cell_formula_units_Z 104
_cell_length_a 9.669266
_cell_length_b 21.280986
_cell_length_c 26.928532
_cell_angle_alpha 90.000000
_cell_angle_beta 90.000000
_cell_angle_gamma 90.000000
_cell_volume 5541.124810
_symmetry_space_group_name_H-M "F D D 2"
_symmetry_group_IT_number 43
_symmetry_cell_setting 'orthorhombic'
loop_
_space_group_symop_operation_xyz
x,y,z
-x,-y,z
1/4-x,1/4+y,1/4+z
1/4+x,1/4-y,1/4+z
x,1/2+y,1/2+z
-x,1/2-y,1/2+z
1/4-x,3/4+y,3/4+z
1/4+x,3/4-y,3/4+z
1/2+x,y,1/2+z
1/2-x,-y,1/2+z
3/4-x,1/4+y,3/4+z
3/4+x,1/4-y,3/4+z
1/2+x,1/2+y,z
1/2-x,1/2-y,z
3/4-x,3/4+y,1/4+z
3/4+x,3/4-y,1/4+z
loop_
_atom_site_type_symbol
_atom_site_label
_atom_site_fract_x
_atom_site_fract_y
_atom_site_fract_z
Si Si1 0.725996 0.840881 0.241380
Si Si2 0.414507 0.881201 0.384633
Si Si3 0.626378 0.624952 0.680668
Si Si4 0.490482 0.073663 0.276756
Si Si5 0.000000 0.500000 0.957162
Si Si6 0.225225 0.479229 0.519431
Si Si7 0.587180 0.258053 0.374512
O O1 0.729082 0.833461 0.181657
O O2 0.668569 0.906371 0.264688
O O3 0.622528 0.789033 0.263302
O O4 0.885508 0.832374 0.256150
O O5 0.248977 0.883809 0.391553
O O6 0.459738 0.912794 0.332788
O O7 0.472397 0.810173 0.388476
O O8 0.580403 0.615337 0.738031
O O9 0.721708 0.686910 0.675084
O O10 0.703511 0.560359 0.665553
O O11 0.500000 0.000000 0.265062
O O12 0.863959 0.485435 0.988259
O O13 0.266236 0.467956 0.575339
O O14 0.750000 0.250000 0.367137
#
# Coordination Sequence:
#
# PCOD8187003 Si02
#       7
#    16  16  16  16   8  16  16
#     4  10  22  40  57  94 121 157 210 263 297 377
#     4  10  19  37  62  87 119 162 207 248 318 365
#     4  10  22  36  60  93 122 159 210 257 300 386
#     4  11  21  38  64  93 124 163 212 258 312 377
#     4  12  20  40  62  90 126 166 208 260 324 368
#     4  11  21  38  64  86 123 163 208 252 309 379
#     4  10  19  37  64  86 116 165 207 246 306 385
#
# _framework density 18.768753
#
# number of rings (size 3 to 8) (size 9 to 14) (size 15 to 20)
#    0.000    1.538    5.385    2.308    4.308    0.000 
#    5.538    0.000    0.000    2.769    0.000    0.000 
#    0.000    0.000    0.000    0.000    0.000    0.000 
#
# Total GULP energy -322167.671126 kJ/mol
# GULP energy per Si atom -12391.064274 kJ/mol
# Density = 1.872603 g / cm^3
# Si number density = 18.768753 Si / 1000 Ang^3
#
#
#
# Elastic Constant Matrix: (Units=GPa)
#
#
# Indices 1 2 3 4 5 6 
#
# 1 73.2571 40.4874 13.0617 0.0000 0.0000 0.0000
# 2 40.4874 120.8714 22.5412 0.0000 0.0000 0.0000
# 3 13.0617 22.5412 92.8124 0.0000 0.0000 0.0000
# 4 0.0000 0.0000 0.0000 31.1043 0.0000 0.0000
# 5 0.0000 0.0000 0.0000 0.0000 21.3305 0.0000
# 6 0.0000 0.0000 0.0000 0.0000 0.0000 37.0849
#
#
#
# Elastic Compliance Matrix: (Units=1/GPa)
#
#
# Indices 1 2 3 4 5 6 
#
# 1 0.016848 -0.005448 -0.001048 0.000000 0.000000 0.000000
# 2 -0.005448 0.010427 -0.001766 0.000000 0.000000 0.000000
# 3 -0.001048 -0.001766 0.011351 0.000000 0.000000 0.000000
# 4 0.000000 0.000000 0.000000 0.032150 0.000000 0.000000
# 5 0.000000 0.000000 0.000000 0.000000 0.046881 0.000000
# 6 0.000000 0.000000 0.000000 0.000000 0.000000 0.026965
#
#
# Mechanical properties :
#
#
# Convention : Reuss Voigt Hill
#
# Bulk Modulus (GPa) = 45.24283 48.79126 47.01705
# Shear Modulus (GPa) = 29.67106 31.96066 30.81586
#
# Velocity S-wave (km/s) = 3.98034 4.13106 4.05640
# Velocity P-wave (km/s) = 6.72918 6.98617 6.85888
#
# Compressibility (1/GPa) = 0.02210295
#
# Stress axis : x y z
#
# Youngs Moduli (GPa) = 59.35256 95.90034 88.09987
#
# Poissons Ratio (x) = 0.52248 0.09232
# Poissons Ratio (y) = 0.32336 0.15556
# Poissons Ratio (z) = 0.06220 0.16934
#
# Static dielectric constant tensor:
#      x y z
#    x 4.117160 0.000000 0.000000 
#    y 0.000000 3.787000 0.000000 
#    z 0.000000 0.000000 3.469960 
# 
# 
# High freq. dielectric constant tensor:
#      x y z
#    x 1.702530 0.000000 0.000000 
#    y 0.000000 1.737340 0.000000 
#    z 0.000000 0.000000 1.728830 
# 
# From -- ./inp_files/24333.got.cif
#   From: 2010.06.25/outbox.cif.g09.slc.cpg/sg43_13_cif.got.tgz:24333.got - 2010.06.26 16:48:59.
