data_PCOD8187099
_publ_section_title
;
Structure prediction by ZEFSAII (Michael W. Deem and Ramdas Pophale) SiO2 
 PCOD8187099
Probable space group: F D D 2
;
_chemical_formula_sum "Si O2"
_cell_formula_units_Z 120
_cell_length_a 22.171797
_cell_length_b 27.210583
_cell_length_c 9.868670
_cell_angle_alpha 90.000000
_cell_angle_beta 90.000000
_cell_angle_gamma 90.000000
_cell_volume 5953.842848
_symmetry_space_group_name_H-M "F D D 2"
_symmetry_group_IT_number 43
_symmetry_cell_setting 'orthorhombic'
loop_
_space_group_symop_operation_xyz
x,y,z
-x,-y,z
1/4-x,1/4+y,1/4+z
1/4+x,1/4-y,1/4+z
x,1/2+y,1/2+z
-x,1/2-y,1/2+z
1/4-x,3/4+y,3/4+z
1/4+x,3/4-y,3/4+z
1/2+x,y,1/2+z
1/2-x,-y,1/2+z
3/4-x,1/4+y,3/4+z
3/4+x,1/4-y,3/4+z
1/2+x,1/2+y,z
1/2-x,1/2-y,z
3/4-x,3/4+y,1/4+z
3/4+x,3/4-y,1/4+z
loop_
_atom_site_type_symbol
_atom_site_label
_atom_site_fract_x
_atom_site_fract_y
_atom_site_fract_z
Si Si1 0.139764 0.302904 0.399740
Si Si2 0.175514 0.197826 0.460193
Si Si3 0.742481 0.064863 0.569600
Si Si4 0.742428 0.380374 0.848407
Si Si5 0.199271 0.411539 0.801701
Si Si6 0.648709 0.313155 0.212711
Si Si7 0.250000 0.750000 0.163015
Si Si8 0.273663 0.453437 0.572627
O O1 0.165470 0.247721 0.372758
O O2 0.079838 0.310783 0.310844
O O3 0.186916 0.343183 0.351037
O O4 0.123905 0.308135 0.559374
O O5 0.194709 0.151010 0.367107
O O6 0.115284 0.188500 0.547696
O O7 0.230958 0.204606 0.564989
O O8 0.760368 0.091669 0.707109
O O9 0.772870 0.096700 0.450306
O O10 0.770823 0.011223 0.547756
O O11 0.735453 0.422145 0.963306
O O12 0.191386 0.359683 0.729601
O O13 0.248215 0.443538 0.721083
O O14 0.692556 0.267177 0.249561
O O15 0.593333 0.313462 0.316351
#
# Coordination Sequence:
#
# PCOD8187099 Si02
#       8
#    16  16  16  16  16  16   8  16
#     4  11  21  42  66 101 124 170 225 279 326 392
#     4  11  19  40  73  95 127 166 231 278 319 396
#     4  12  26  40  61  97 140 168 212 277 339 397
#     4  12  23  42  69  99 125 172 228 275 330 387
#     4  12  24  40  66  98 133 177 215 274 340 398
#     4  11  22  41  72  94 129 172 231 274 323 401
#     4  10  20  38  70 102 118 164 232 284 316 376
#     4  12  23  43  67  96 131 175 223 269 329 398
#
# _framework density 20.155049999999999
#
# number of rings (size 3 to 8) (size 9 to 14) (size 15 to 20)
#    0.000    0.533    8.000    2.400    0.000    1.067 
#    2.400    0.000    2.933    0.000    0.000    0.000 
#    0.000    0.000    0.000    0.000    0.000    0.000 
#
# Total GULP energy -371974.891845 kJ/mol
# GULP energy per Si atom -12399.163061 kJ/mol
# Density = 2.010918 g / cm^3
# Si number density = 20.155050 Si / 1000 Ang^3
#
#
#
# Elastic Constant Matrix: (Units=GPa)
#
#
# Indices 1 2 3 4 5 6 
#
# 1 113.2905 24.3334 34.7359 -0.0003 0.0005 0.0002
# 2 24.3334 107.6950 31.7935 -0.0002 0.0004 0.0001
# 3 34.7359 31.7935 86.3879 -0.0017 0.0025 0.0009
# 4 -0.0003 -0.0002 -0.0017 19.9953 0.0007 0.0001
# 5 0.0005 0.0004 0.0025 0.0007 30.5197 -0.0003
# 6 0.0002 0.0001 0.0009 0.0001 -0.0003 34.1453
#
#
#
# Elastic Compliance Matrix: (Units=1/GPa)
#
#
# Indices 1 2 3 4 5 6 
#
# 1 0.010211 -0.001229 -0.003654 0.000000 0.000000 0.000000
# 2 -0.001229 0.010565 -0.003394 0.000000 0.000000 0.000000
# 3 -0.003654 -0.003394 0.014294 0.000001 -0.000001 0.000000
# 4 0.000000 0.000000 0.000001 0.050012 -0.000001 0.000000
# 5 0.000000 0.000000 -0.000001 -0.000001 0.032766 0.000000
# 6 0.000000 0.000000 0.000000 0.000000 0.000000 0.029287
#
#
# Mechanical properties :
#
#
# Convention : Reuss Voigt Hill
#
# Bulk Modulus (GPa) = 54.00391 54.34432 54.17411
# Shear Modulus (GPa) = 29.43610 31.36612 30.40111
#
# Velocity S-wave (km/s) = 3.82577 3.94920 3.88798
# Velocity P-wave (km/s) = 6.80939 6.91495 6.86237
#
# Compressibility (1/GPa) = 0.01851718
#
# Stress axis : x y z
#
# Youngs Moduli (GPa) = 97.93397 94.65095 69.95937
#
# Poissons Ratio (x) = 0.11628 0.25560
# Poissons Ratio (y) = 0.12031 0.23747
# Poissons Ratio (z) = 0.35781 0.32128
#
# Static dielectric constant tensor:
#      x y z
#    x 3.797870 0.000000 0.000000 
#    y 0.000000 3.869090 0.000000 
#    z 0.000000 0.000000 3.280320 
# 
# 
# High freq. dielectric constant tensor:
#      x y z
#    x 1.803370 0.000000 0.000000 
#    y 0.000000 1.806750 0.000000 
#    z 0.000000 0.000000 1.743530 
# 
# From -- ./inp_files/3878.got.cif
#   From: 2010.06.25/outbox.cif.g09.slc.cpg/sg43_2_cif.got.tgz:3878.got - 2010.06.26 16:48:59.
