data_PCOD8187831
_publ_section_title
;
Structure prediction by ZEFSAII (Michael W. Deem and Ramdas Pophale) SiO2 
 PCOD8187831
Probable space group: F D D 2
;
_chemical_formula_sum "Si O2"
_cell_formula_units_Z 40
_cell_length_a 8.313486
_cell_length_b 19.365028
_cell_length_c 7.042070
_cell_angle_alpha 90.000000
_cell_angle_beta 90.000000
_cell_angle_gamma 90.000000
_cell_volume 1133.709111
_symmetry_space_group_name_H-M "F D D 2"
_symmetry_group_IT_number 43
_symmetry_cell_setting 'orthorhombic'
loop_
_space_group_symop_operation_xyz
x,y,z
-x,-y,z
1/4-x,1/4+y,1/4+z
1/4+x,1/4-y,1/4+z
x,1/2+y,1/2+z
-x,1/2-y,1/2+z
1/4-x,3/4+y,3/4+z
1/4+x,3/4-y,3/4+z
1/2+x,y,1/2+z
1/2-x,-y,1/2+z
3/4-x,1/4+y,3/4+z
3/4+x,1/4-y,3/4+z
1/2+x,1/2+y,z
1/2-x,1/2-y,z
3/4-x,3/4+y,1/4+z
3/4+x,3/4-y,1/4+z
loop_
_atom_site_type_symbol
_atom_site_label
_atom_site_fract_x
_atom_site_fract_y
_atom_site_fract_z
Si Si1 0.295773 0.392785 0.547760
Si Si2 0.070708 0.705185 0.368276
Si Si3 0.000000 0.500000 0.475054
O O1 0.351669 0.354499 0.350969
O O2 0.380491 0.467914 0.557191
O O3 0.358666 0.354957 0.739139
O O4 0.127663 0.700797 0.592087
O O5 0.873771 0.705088 0.355553
#
# Coordination Sequence:
#
# PCOD8187831 Si02
#       3
#    16  16   8
#     4  12  24  51  84 119 169 218 285 344 426 501
#     4  12  26  55  79 132 158 241 261 382 390 555
#     4  12  28  52  86 112 184 206 304 316 470 460
#
# _framework density 35.282418999999997
#
# number of rings (size 3 to 8) (size 9 to 14) (size 15 to 20)
#    0.000    0.000    8.000    0.000    0.000    4.800 
#   14.400    0.000    0.000    0.000    0.000    0.000 
#    0.000    0.000    0.000    0.000    0.000    0.000 
#
# Total GULP energy -124018.807073 kJ/mol
# GULP energy per Si atom -12401.880707 kJ/mol
# Density = 3.520211 g / cm^3
# Si number density = 35.282419 Si / 1000 Ang^3
#
#
#
# Elastic Constant Matrix: (Units=GPa)
#
#
# Indices 1 2 3 4 5 6 
#
# 1 268.6442 66.9730 98.6181 0.0000 0.0000 0.0000
# 2 66.9730 152.4500 48.4482 0.0000 0.0000 0.0000
# 3 98.6181 48.4482 288.8675 0.0000 0.0000 0.0000
# 4 0.0000 0.0000 0.0000 54.1743 0.0000 0.0000
# 5 0.0000 0.0000 0.0000 0.0000 77.2129 0.0000
# 6 0.0000 0.0000 0.0000 0.0000 0.0000 64.9755
#
#
#
# Elastic Compliance Matrix: (Units=1/GPa)
#
#
# Indices 1 2 3 4 5 6 
#
# 1 0.004601 -0.001608 -0.001301 0.000000 0.000000 0.000000
# 2 -0.001608 0.007491 -0.000707 0.000000 0.000000 0.000000
# 3 -0.001301 -0.000707 0.004025 0.000000 0.000000 0.000000
# 4 0.000000 0.000000 0.000000 0.018459 0.000000 0.000000
# 5 0.000000 0.000000 0.000000 0.000000 0.012951 0.000000
# 6 0.000000 0.000000 0.000000 0.000000 0.000000 0.015390
#
#
# Mechanical properties :
#
#
# Convention : Reuss Voigt Hill
#
# Bulk Modulus (GPa) = 112.56649 126.44892 119.50771
# Shear Modulus (GPa) = 68.38984 72.33404 70.36194
#
# Velocity S-wave (km/s) = 4.40745 4.53276 4.47055
# Velocity P-wave (km/s) = 7.60753 7.95685 7.78415
#
# Compressibility (1/GPa) = 0.00888364
#
# Stress axis : x y z
#
# Youngs Moduli (GPa) = 217.35304 133.49995 248.47071
#
# Poissons Ratio (x) = 0.21463 0.32327
# Poissons Ratio (y) = 0.34944 0.17578
# Poissons Ratio (z) = 0.28279 0.09444
#
# Static dielectric constant tensor:
#      x y z
#    x 9.085190 0.000000 0.000000 
#    y 0.000000 7.177010 0.000000 
#    z 0.000000 0.000000 7.133080 
# 
# 
# High freq. dielectric constant tensor:
#      x y z
#    x 2.584650 0.000000 0.000000 
#    y 0.000000 2.520010 0.000000 
#    z 0.000000 0.000000 2.515620 
# 
# From -- ./inp_files/1649.got.cif
#   From: 2010.06.25/outbox.cif.g09.slc.cpg/sg43_1_cif.got.tgz:1649.got - 2010.06.26 16:48:59.
