data_PCOD8187097
_publ_section_title
;
Structure prediction by ZEFSAII (Michael W. Deem and Ramdas Pophale) SiO2 
 PCOD8187097
Probable space group: F D D 2
;
_chemical_formula_sum "Si O2"
_cell_formula_units_Z 120
_cell_length_a 10.012747
_cell_length_b 21.257720
_cell_length_c 26.974930
_cell_angle_alpha 90.000000
_cell_angle_beta 90.000000
_cell_angle_gamma 90.000000
_cell_volume 5741.564545
_symmetry_space_group_name_H-M "F D D 2"
_symmetry_group_IT_number 43
_symmetry_cell_setting 'orthorhombic'
loop_
_space_group_symop_operation_xyz
x,y,z
-x,-y,z
1/4-x,1/4+y,1/4+z
1/4+x,1/4-y,1/4+z
x,1/2+y,1/2+z
-x,1/2-y,1/2+z
1/4-x,3/4+y,3/4+z
1/4+x,3/4-y,3/4+z
1/2+x,y,1/2+z
1/2-x,-y,1/2+z
3/4-x,1/4+y,3/4+z
3/4+x,1/4-y,3/4+z
1/2+x,1/2+y,z
1/2-x,1/2-y,z
3/4-x,3/4+y,1/4+z
3/4+x,3/4-y,1/4+z
loop_
_atom_site_type_symbol
_atom_site_label
_atom_site_fract_x
_atom_site_fract_y
_atom_site_fract_z
Si Si1 0.849032 0.377008 0.723950
Si Si2 0.466079 0.811127 0.817631
Si Si3 0.532391 0.235405 0.001487
Si Si4 0.750000 0.750000 0.969252
Si Si5 0.815121 0.315304 0.916731
Si Si6 0.300953 0.887282 0.439674
Si Si7 0.714160 0.393706 0.332935
Si Si8 0.373687 0.295302 0.771685
O O1 0.848976 0.446545 0.747075
O O2 0.705831 0.353493 0.704736
O O3 0.902118 0.330296 0.765601
O O4 0.959251 0.378631 0.679181
O O5 0.352580 0.814538 0.859226
O O6 0.579911 0.854867 0.840136
O O7 0.526995 0.741861 0.808829
O O8 0.374316 0.243594 0.005431
O O9 0.561291 0.186009 0.955911
O O10 0.579112 0.206119 0.053307
O O11 0.732539 0.687271 0.936040
O O12 0.750000 0.250000 0.929909
O O13 0.277947 0.914318 0.384936
O O14 0.205669 0.927812 0.475211
O O15 0.822180 0.355004 0.301613
O O16 0.250000 0.250000 0.754463
#
# Coordination Sequence:
#
# PCOD8187097 Si02
#       8
#    16  16  16   8  16  16  16  16
#     4  10  24  42  65  98 130 175 224 280 327 413
#     4  11  24  40  68  93 130 179 218 271 341 405
#     4  10  20  42  63  94 129 164 225 277 323 392
#     4  10  20  38  68  90 124 170 216 276 324 386
#     4  10  22  40  65  91 126 171 223 276 322 396
#     4  11  24  41  68  96 135 172 220 280 342 393
#     4  11  23  41  67  98 127 172 224 277 335 400
#     4  10  25  44  65  99 135 171 223 277 332 408
#
# _framework density 20.900227000000001
#
# number of rings (size 3 to 8) (size 9 to 14) (size 15 to 20)
#    0.000    1.600    2.667    0.800   10.267    0.000 
#    4.800    0.000    0.000    0.000    0.000    0.000 
#    0.000    0.000    0.000    0.000    0.000    0.000 
#
# Total GULP energy -371881.626260 kJ/mol
# GULP energy per Si atom -12396.054209 kJ/mol
# Density = 2.085266 g / cm^3
# Si number density = 20.900227 Si / 1000 Ang^3
#
#
#
# Elastic Constant Matrix: (Units=GPa)
#
#
# Indices 1 2 3 4 5 6 
#
# 1 109.5112 25.5689 49.1734 0.0000 0.0000 0.0000
# 2 25.5689 45.9082 23.4975 0.0000 0.0000 0.0000
# 3 49.1734 23.4975 120.7866 0.0000 0.0000 0.0000
# 4 0.0000 0.0000 0.0000 18.0689 0.0000 0.0000
# 5 0.0000 0.0000 0.0000 0.0000 38.0407 0.0000
# 6 0.0000 0.0000 0.0000 0.0000 0.0000 23.6316
#
#
#
# Elastic Compliance Matrix: (Units=1/GPa)
#
#
# Indices 1 2 3 4 5 6 
#
# 1 0.012005 -0.004648 -0.003983 0.000000 0.000000 0.000000
# 2 -0.004648 0.025991 -0.003164 0.000000 0.000000 0.000000
# 3 -0.003983 -0.003164 0.010516 0.000000 0.000000 0.000000
# 4 0.000000 0.000000 0.000000 0.055344 0.000000 0.000000
# 5 0.000000 0.000000 0.000000 0.000000 0.026288 0.000000
# 6 0.000000 0.000000 0.000000 0.000000 0.000000 0.042316
#
#
# Mechanical properties :
#
#
# Convention : Reuss Voigt Hill
#
# Bulk Modulus (GPa) = 40.12499 52.52063 46.32281
# Shear Modulus (GPa) = 24.46700 27.81265 26.13982
#
# Velocity S-wave (km/s) = 3.42520 3.65188 3.54035
# Velocity P-wave (km/s) = 5.90616 6.55480 6.23891
#
# Compressibility (1/GPa) = 0.02492213
#
# Stress axis : x y z
#
# Youngs Moduli (GPa) = 83.29693 38.47545 95.09105
#
# Poissons Ratio (x) = 0.17882 0.37878
# Poissons Ratio (y) = 0.38713 0.30087
# Poissons Ratio (z) = 0.33180 0.12174
#
# Static dielectric constant tensor:
#      x y z
#    x 4.232240 0.000000 0.000000 
#    y 0.000000 3.746490 0.000000 
#    z 0.000000 0.000000 3.607720 
# 
# 
# High freq. dielectric constant tensor:
#      x y z
#    x 1.836700 0.000000 0.000000 
#    y 0.000000 1.804820 0.000000 
#    z 0.000000 0.000000 1.805400 
# 
# From -- ./inp_files/21257.got.cif
#   From: 2010.06.25/outbox.cif.g09.slc.cpg/sg43_11_cif.got.tgz:21257.got - 2010.06.26 16:48:59.
