data_PCOD8187776
_publ_section_title
;
Structure prediction by ZEFSAII (Michael W. Deem and Ramdas Pophale) SiO2 
 PCOD8187776
Probable space group: F D D 2
;
_chemical_formula_sum "Si O2"
_cell_formula_units_Z 64
_cell_length_a 4.850405
_cell_length_b 25.265811
_cell_length_c 18.485462
_cell_angle_alpha 90.000000
_cell_angle_beta 90.000000
_cell_angle_gamma 90.000000
_cell_volume 2265.382573
_symmetry_space_group_name_H-M "F D D 2"
_symmetry_group_IT_number 43
_symmetry_cell_setting 'orthorhombic'
loop_
_space_group_symop_operation_xyz
x,y,z
-x,-y,z
1/4-x,1/4+y,1/4+z
1/4+x,1/4-y,1/4+z
x,1/2+y,1/2+z
-x,1/2-y,1/2+z
1/4-x,3/4+y,3/4+z
1/4+x,3/4-y,3/4+z
1/2+x,y,1/2+z
1/2-x,-y,1/2+z
3/4-x,1/4+y,3/4+z
3/4+x,1/4-y,3/4+z
1/2+x,1/2+y,z
1/2-x,1/2-y,z
3/4-x,3/4+y,1/4+z
3/4+x,3/4-y,1/4+z
loop_
_atom_site_type_symbol
_atom_site_label
_atom_site_fract_x
_atom_site_fract_y
_atom_site_fract_z
Si Si1 0.434811 0.599129 0.516720
Si Si2 0.560331 0.061578 0.800587
Si Si3 0.248114 0.463258 0.152706
Si Si4 0.183710 0.188310 0.182550
O O1 0.294739 0.571691 0.583648
O O2 0.719520 0.568806 0.498478
O O3 0.515337 0.658229 0.544876
O O4 0.220245 0.593901 0.448785
O O5 0.696286 0.073665 0.722457
O O6 0.772487 0.083724 0.860932
O O7 0.500000 0.000000 0.814253
O O8 0.500000 0.500000 0.133135
O O9 0.000000 0.500000 0.175918
O O10 0.250000 0.250000 0.172617
#
# Coordination Sequence:
#
# PCOD8187776 Si02
#       4
#    16  16  16  16
#     4  12  28  51  81 119 159 212 275 337 406 491
#     4  11  29  53  80 118 168 214 269 338 409 491
#     4  11  25  50  80 115 160 209 263 334 409 482
#     4  12  27  52  84 118 160 213 274 339 407 484
#
# _framework density 28.251297000000001
#
# number of rings (size 3 to 8) (size 9 to 14) (size 15 to 20)
#    0.000    0.500    0.000    6.750    0.000   20.000 
#    0.000    7.500    0.000    0.000    0.000    0.000 
#    0.000    0.000    0.000    0.000    0.000    0.000 
#
# Total GULP energy -198428.393873 kJ/mol
# GULP energy per Si atom -12401.774617 kJ/mol
# Density = 2.818700 g / cm^3
# Si number density = 28.251297 Si / 1000 Ang^3
#
#
#
# Elastic Constant Matrix: (Units=GPa)
#
#
# Indices 1 2 3 4 5 6 
#
# 1 216.6078 75.6714 60.6026 0.0000 0.0000 0.0000
# 2 75.6714 129.8483 43.0177 0.0000 0.0000 0.0000
# 3 60.6026 43.0177 156.9298 0.0000 0.0000 0.0000
# 4 0.0000 0.0000 0.0000 16.2584 0.0000 0.0000
# 5 0.0000 0.0000 0.0000 0.0000 37.5886 0.0000
# 6 0.0000 0.0000 0.0000 0.0000 0.0000 61.2931
#
#
#
# Elastic Compliance Matrix: (Units=1/GPa)
#
#
# Indices 1 2 3 4 5 6 
#
# 1 0.006110 -0.003057 -0.001522 0.000000 0.000000 0.000000
# 2 -0.003057 0.010000 -0.001561 0.000000 0.000000 0.000000
# 3 -0.001522 -0.001561 0.007388 0.000000 0.000000 0.000000
# 4 0.000000 0.000000 0.000000 0.061506 0.000000 0.000000
# 5 0.000000 0.000000 0.000000 0.000000 0.026604 0.000000
# 6 0.000000 0.000000 0.000000 0.000000 0.000000 0.016315
#
#
# Mechanical properties :
#
#
# Convention : Reuss Voigt Hill
#
# Bulk Modulus (GPa) = 89.13115 95.77437 92.45276
# Shear Modulus (GPa) = 34.73642 44.63431 39.68537
#
# Velocity S-wave (km/s) = 3.51030 3.97911 3.75204
# Velocity P-wave (km/s) = 6.93163 7.42197 7.18098
#
# Compressibility (1/GPa) = 0.01121942
#
# Stress axis : x y z
#
# Youngs Moduli (GPa) = 163.65959 100.00298 135.35930
#
# Poissons Ratio (x) = 0.30568 0.20598
# Poissons Ratio (y) = 0.50026 0.21125
# Poissons Ratio (z) = 0.24904 0.15607
#
# Static dielectric constant tensor:
#      x y z
#    x 5.580580 0.000000 0.000000 
#    y 0.000000 5.276030 0.000000 
#    z 0.000000 0.000000 5.453510 
# 
# 
# High freq. dielectric constant tensor:
#      x y z
#    x 2.170690 0.000000 0.000000 
#    y 0.000000 2.148110 0.000000 
#    z 0.000000 0.000000 2.159240 
# 
# From -- ./inp_files/15578.got.cif
#   From: 2010.06.25/outbox.cif.g09.slc.cpg/sg43_8_cif.got.tgz:15578.got - 2010.06.26 16:48:59.
