data_PCOD8187093
_publ_section_title
;
Structure prediction by ZEFSAII (Michael W. Deem and Ramdas Pophale) SiO2 
 PCOD8187093
Probable space group: F D D 2
;
_chemical_formula_sum "Si O2"
_cell_formula_units_Z 120
_cell_length_a 17.085838
_cell_length_b 19.889701
_cell_length_c 16.586053
_cell_angle_alpha 90.000000
_cell_angle_beta 90.000000
_cell_angle_gamma 90.000000
_cell_volume 5636.475032
_symmetry_space_group_name_H-M "F D D 2"
_symmetry_group_IT_number 43
_symmetry_cell_setting 'orthorhombic'
loop_
_space_group_symop_operation_xyz
x,y,z
-x,-y,z
1/4-x,1/4+y,1/4+z
1/4+x,1/4-y,1/4+z
x,1/2+y,1/2+z
-x,1/2-y,1/2+z
1/4-x,3/4+y,3/4+z
1/4+x,3/4-y,3/4+z
1/2+x,y,1/2+z
1/2-x,-y,1/2+z
3/4-x,1/4+y,3/4+z
3/4+x,1/4-y,3/4+z
1/2+x,1/2+y,z
1/2-x,1/2-y,z
3/4-x,3/4+y,1/4+z
3/4+x,3/4-y,1/4+z
loop_
_atom_site_type_symbol
_atom_site_label
_atom_site_fract_x
_atom_site_fract_y
_atom_site_fract_z
Si Si1 0.086054 0.708928 0.161750
Si Si2 0.000000 0.000000 0.449343
Si Si3 0.425861 0.450378 0.129769
Si Si4 0.826646 0.709969 0.200749
Si Si5 0.016080 0.228038 0.388152
Si Si6 0.162507 0.905423 0.582987
Si Si7 0.213436 0.440720 0.457453
Si Si8 0.745127 0.378211 0.280616
O O1 0.179120 0.717815 0.149624
O O2 0.061480 0.664235 0.239850
O O3 0.066301 0.666999 0.083783
O O4 0.043118 0.781225 0.166557
O O5 0.957589 0.942158 0.502174
O O6 0.500000 0.500000 0.136027
O O7 0.347298 0.485649 0.165352
O O8 0.445950 0.384651 0.180966
O O9 0.404811 0.426471 0.038119
O O10 0.750000 0.750000 0.219416
O O11 0.803999 0.659216 0.129054
O O12 0.896855 0.758733 0.174554
O O13 0.032271 0.189966 0.304144
O O14 0.985771 0.174649 0.453592
O O15 0.943658 0.279875 0.381251
O O16 0.069510 0.894409 0.583930
#
# Coordination Sequence:
#
# PCOD8187093 Si02
#       8
#    16   8  16  16  16  16  16  16
#     4  10  23  43  66  95 132 172 226 271 331 405
#     4  10  26  44  66  92 134 166 222 282 318 406
#     4  10  23  41  68 101 132 175 221 274 341 402
#     4  10  20  38  65 100 133 165 221 271 327 394
#     4  10  24  43  65  97 141 168 229 280 324 405
#     4  10  22  42  65  96 132 175 215 275 330 394
#     4  10  21  42  67  96 135 175 215 285 326 401
#     4  11  24  46  66  97 130 179 222 276 336 400
#
# _framework density 21.289902000000001
#
# number of rings (size 3 to 8) (size 9 to 14) (size 15 to 20)
#    0.000    1.867    1.333    0.800    3.733    7.467 
#    6.000    0.000    0.000    0.000    0.000    0.000 
#    0.000    0.000    0.000    0.000    0.000    0.000 
#
# Total GULP energy -371809.634318 kJ/mol
# GULP energy per Si atom -12393.654477 kJ/mol
# Density = 2.124145 g / cm^3
# Si number density = 21.289902 Si / 1000 Ang^3
#
#
#
# Elastic Constant Matrix: (Units=GPa)
#
#
# Indices 1 2 3 4 5 6 
#
# 1 116.1887 52.8413 40.5251 0.0000 0.0000 0.0000
# 2 52.8413 150.3568 71.3179 0.0000 0.0000 0.0000
# 3 40.5251 71.3179 85.4984 0.0000 0.0000 0.0000
# 4 0.0000 0.0000 0.0000 57.0903 0.0000 0.0000
# 5 0.0000 0.0000 0.0000 0.0000 31.6989 0.0000
# 6 0.0000 0.0000 0.0000 0.0000 0.0000 33.7627
#
#
#
# Elastic Compliance Matrix: (Units=1/GPa)
#
#
# Indices 1 2 3 4 5 6 
#
# 1 0.010754 -0.002253 -0.003218 0.000000 0.000000 0.000000
# 2 -0.002253 0.011477 -0.008506 0.000000 0.000000 0.000000
# 3 -0.003218 -0.008506 0.020316 0.000000 0.000000 0.000000
# 4 0.000000 0.000000 0.000000 0.017516 0.000000 0.000000
# 5 0.000000 0.000000 0.000000 0.000000 0.031547 0.000000
# 6 0.000000 0.000000 0.000000 0.000000 0.000000 0.029618
#
#
# Mechanical properties :
#
#
# Convention : Reuss Voigt Hill
#
# Bulk Modulus (GPa) = 68.52057 75.71251 72.11654
# Shear Modulus (GPa) = 32.45787 37.00102 34.72944
#
# Velocity S-wave (km/s) = 3.90881 4.17341 4.04327
# Velocity P-wave (km/s) = 7.25438 7.67222 7.46623
#
# Compressibility (1/GPa) = 0.01459416
#
# Stress axis : x y z
#
# Youngs Moduli (GPa) = 92.99175 87.13028 49.22172
#
# Poissons Ratio (x) = 0.19630 0.15838
# Poissons Ratio (y) = 0.20951 0.41866
# Poissons Ratio (z) = 0.29923 0.74110
#
# Static dielectric constant tensor:
#      x y z
#    x 3.843840 0.000000 0.000000 
#    y 0.000000 3.908650 0.000000 
#    z 0.000000 0.000000 3.827640 
# 
# 
# High freq. dielectric constant tensor:
#      x y z
#    x 1.842870 0.000000 0.000000 
#    y 0.000000 1.835450 0.000000 
#    z 0.000000 0.000000 1.827150 
# 
# From -- ./inp_files/14281.got.cif
#   From: 2010.06.25/outbox.cif.g09.slc.cpg/sg43_8_cif.got.tgz:14281.got - 2010.06.26 16:48:59.
