data_PCOD8187415
_publ_section_title
;
Structure prediction by ZEFSAII (Michael W. Deem and Ramdas Pophale) SiO2 
 PCOD8187415
Probable space group: F D D 2
;
_chemical_formula_sum "Si O2"
_cell_formula_units_Z 64
_cell_length_a 33.399076
_cell_length_b 13.445067
_cell_length_c 7.324956
_cell_angle_alpha 90.000000
_cell_angle_beta 90.000000
_cell_angle_gamma 90.000000
_cell_volume 3289.292108
_symmetry_space_group_name_H-M "F D D 2"
_symmetry_group_IT_number 43
_symmetry_cell_setting 'orthorhombic'
loop_
_space_group_symop_operation_xyz
x,y,z
-x,-y,z
1/4-x,1/4+y,1/4+z
1/4+x,1/4-y,1/4+z
x,1/2+y,1/2+z
-x,1/2-y,1/2+z
1/4-x,3/4+y,3/4+z
1/4+x,3/4-y,3/4+z
1/2+x,y,1/2+z
1/2-x,-y,1/2+z
3/4-x,1/4+y,3/4+z
3/4+x,1/4-y,3/4+z
1/2+x,1/2+y,z
1/2-x,1/2-y,z
3/4-x,3/4+y,1/4+z
3/4+x,3/4-y,1/4+z
loop_
_atom_site_type_symbol
_atom_site_label
_atom_site_fract_x
_atom_site_fract_y
_atom_site_fract_z
Si Si1 0.969435 0.208460 0.716990
Si Si2 0.422240 0.591628 0.004164
Si Si3 0.913906 0.366125 0.584277
Si Si4 0.053474 0.781674 0.331193
O O1 0.957817 0.131079 0.874975
O O2 0.943199 0.311210 0.730702
O O3 0.961599 0.161187 0.515383
O O4 0.016035 0.232986 0.727822
O O5 0.380961 0.617323 0.906179
O O6 0.429144 0.476282 0.042375
O O7 0.422910 0.644662 0.199943
O O8 0.915835 0.305891 0.392254
#
# Coordination Sequence:
#
# PCOD8187415 Si02
#       4
#    16  16  16  16
#     4  10  22  43  63  96 132 171 223 277 325 397
#     4  12  21  45  65  93 140 165 222 280 326 398
#     4  10  24  40  66  99 126 174 223 270 333 395
#     4  10  23  42  66  94 133 175 221 274 336 388
#
# _framework density 19.457073000000001
#
# number of rings (size 3 to 8) (size 9 to 14) (size 15 to 20)
#    1.500    0.000    5.000    0.000    0.000    8.000 
#    4.500    2.500    0.000    0.000    0.000    0.000 
#    0.000    0.000    0.000    0.000    0.000    0.000 
#
# Total GULP energy -198300.678557 kJ/mol
# GULP energy per Si atom -12393.792410 kJ/mol
# Density = 1.941279 g / cm^3
# Si number density = 19.457073 Si / 1000 Ang^3
#
#
#
# Elastic Constant Matrix: (Units=GPa)
#
#
# Indices 1 2 3 4 5 6 
#
# 1 43.4835 -0.8474 19.9973 0.0000 0.0000 0.0000
# 2 -0.8474 102.4865 46.4545 0.0000 0.0000 0.0000
# 3 19.9973 46.4545 117.2690 0.0000 0.0000 0.0000
# 4 0.0000 0.0000 0.0000 37.8381 0.0000 0.0000
# 5 0.0000 0.0000 0.0000 0.0000 44.9064 0.0000
# 6 0.0000 0.0000 0.0000 0.0000 0.0000 15.4202
#
#
#
# Elastic Compliance Matrix: (Units=1/GPa)
#
#
# Indices 1 2 3 4 5 6 
#
# 1 0.025537 0.002663 -0.005410 0.000000 0.000000 0.000000
# 2 0.002663 0.012171 -0.005275 0.000000 0.000000 0.000000
# 3 -0.005410 -0.005275 0.011540 0.000000 0.000000 0.000000
# 4 0.000000 0.000000 0.000000 0.026428 0.000000 0.000000
# 5 0.000000 0.000000 0.000000 0.000000 0.022269 0.000000
# 6 0.000000 0.000000 0.000000 0.000000 0.000000 0.064850
#
#
# Mechanical properties :
#
#
# Convention : Reuss Voigt Hill
#
# Bulk Modulus (GPa) = 30.11730 43.82754 36.97242
# Shear Modulus (GPa) = 26.32890 32.80859 29.56874
#
# Velocity S-wave (km/s) = 3.68255 4.11080 3.90255
# Velocity P-wave (km/s) = 5.79603 6.71608 6.27294
#
# Compressibility (1/GPa) = 0.03320351
#
# Stress axis : x y z
#
# Youngs Moduli (GPa) = 39.15899 82.16531 86.65771
#
# Poissons Ratio (x) = -0.21882 0.46879
# Poissons Ratio (y) = -0.10429 0.45715
# Poissons Ratio (z) = 0.21184 0.43345
#
# Static dielectric constant tensor:
#      x y z
#    x 3.412930 0.000000 0.000000 
#    y 0.000000 3.455200 0.000000 
#    z 0.000000 0.000000 3.653360 
# 
# 
# High freq. dielectric constant tensor:
#      x y z
#    x 1.759340 0.000000 0.000000 
#    y 0.000000 1.740200 0.000000 
#    z 0.000000 0.000000 1.762780 
# 
# From -- ./inp_files/4619.got.cif
#   From: 2010.06.25/outbox.cif.g09.slc.cpg/sg43_3_cif.got.tgz:4619.got - 2010.06.26 16:48:59.
