data_PCOD8187394
_publ_section_title
;
Structure prediction by ZEFSAII (Michael W. Deem and Ramdas Pophale) SiO2 
 PCOD8187394
Probable space group: F D D 2
;
_chemical_formula_sum "Si O2"
_cell_formula_units_Z 48
_cell_length_a 10.975089
_cell_length_b 14.177685
_cell_length_c 12.990242
_cell_angle_alpha 90.000000
_cell_angle_beta 90.000000
_cell_angle_gamma 90.000000
_cell_volume 2021.299253
_symmetry_space_group_name_H-M "F D D 2"
_symmetry_group_IT_number 43
_symmetry_cell_setting 'orthorhombic'
loop_
_space_group_symop_operation_xyz
x,y,z
-x,-y,z
1/4-x,1/4+y,1/4+z
1/4+x,1/4-y,1/4+z
x,1/2+y,1/2+z
-x,1/2-y,1/2+z
1/4-x,3/4+y,3/4+z
1/4+x,3/4-y,3/4+z
1/2+x,y,1/2+z
1/2-x,-y,1/2+z
3/4-x,1/4+y,3/4+z
3/4+x,1/4-y,3/4+z
1/2+x,1/2+y,z
1/2-x,1/2-y,z
3/4-x,3/4+y,1/4+z
3/4+x,3/4-y,1/4+z
loop_
_atom_site_type_symbol
_atom_site_label
_atom_site_fract_x
_atom_site_fract_y
_atom_site_fract_z
Si Si1 0.803605 0.847304 0.486780
Si Si2 0.844661 0.324147 0.592410
Si Si3 0.029845 0.255564 0.889444
O O1 0.750000 0.750000 0.535325
O O2 0.701968 0.903424 0.421543
O O3 0.914202 0.820315 0.414797
O O4 0.857658 0.920657 0.571232
O O5 0.750000 0.250000 0.643405
O O6 0.766820 0.418428 0.570297
O O7 0.895323 0.280605 0.486912
#
# Coordination Sequence:
#
# PCOD8187394 Si02
#       3
#    16  16  16
#     4  10  22  42  66  94 131 174 221 277 338 402
#     4  11  24  43  69  99 134 181 231 283 340 406
#     4  11  24  43  67  97 133 175 224 280 340 406
#
# _framework density 23.747101000000001
#
# number of rings (size 3 to 8) (size 9 to 14) (size 15 to 20)
#    0.000    1.333    0.000    6.000    0.000   10.667 
#    0.000    0.000    0.000    0.000    0.000    0.000 
#    0.000    0.000    0.000    0.000    0.000    0.000 
#
# Total GULP energy -148748.308511 kJ/mol
# GULP energy per Si atom -12395.692376 kJ/mol
# Density = 2.369305 g / cm^3
# Si number density = 23.747101 Si / 1000 Ang^3
#
#
#
# Elastic Constant Matrix: (Units=GPa)
#
#
# Indices 1 2 3 4 5 6 
#
# 1 80.3437 50.3402 18.8565 0.0000 0.0000 0.0000
# 2 50.3402 185.8863 84.2035 0.0000 0.0000 0.0000
# 3 18.8565 84.2035 99.8470 0.0000 0.0000 0.0000
# 4 0.0000 0.0000 0.0000 62.9797 0.0000 0.0000
# 5 0.0000 0.0000 0.0000 0.0000 21.9209 0.0000
# 6 0.0000 0.0000 0.0000 0.0000 0.0000 48.7853
#
#
#
# Elastic Compliance Matrix: (Units=1/GPa)
#
#
# Indices 1 2 3 4 5 6 
#
# 1 0.015047 -0.004511 0.000962 0.000000 0.000000 0.000000
# 2 -0.004511 0.010057 -0.007630 0.000000 0.000000 0.000000
# 3 0.000962 -0.007630 0.016268 0.000000 0.000000 0.000000
# 4 0.000000 0.000000 0.000000 0.015878 0.000000 0.000000
# 5 0.000000 0.000000 0.000000 0.000000 0.045619 0.000000
# 6 0.000000 0.000000 0.000000 0.000000 0.000000 0.020498
#
#
# Mechanical properties :
#
#
# Convention : Reuss Voigt Hill
#
# Bulk Modulus (GPa) = 52.58746 74.76415 63.67581
# Shear Modulus (GPa) = 32.88137 40.91565 36.89851
#
# Velocity S-wave (km/s) = 3.72512 4.15538 3.94612
# Velocity P-wave (km/s) = 6.37926 7.38747 6.90180
#
# Compressibility (1/GPa) = 0.01901594
#
# Stress axis : x y z
#
# Youngs Moduli (GPa) = 66.45855 99.42952 61.47075
#
# Poissons Ratio (x) = 0.44851 -0.05916
# Poissons Ratio (y) = 0.29979 0.46901
# Poissons Ratio (z) = -0.06396 0.75862
#
# Static dielectric constant tensor:
#      x y z
#    x 4.315460 0.000000 0.000000 
#    y 0.000000 4.903450 0.000000 
#    z 0.000000 0.000000 3.861150 
# 
# 
# High freq. dielectric constant tensor:
#      x y z
#    x 1.934210 0.000000 0.000000 
#    y 0.000000 1.976030 0.000000 
#    z 0.000000 0.000000 1.919620 
# 
# From -- ./inp_files/5395.got.cif
#   From: 2010.06.25/outbox.cif.g09.slc.cpg/sg43_3_cif.got.tgz:5395.got - 2010.06.26 16:48:59.
