data_PCOD8187493
_publ_section_title
;
Structure prediction by ZEFSAII (Michael W. Deem and Ramdas Pophale) SiO2 
 PCOD8187493
Probable space group: F D D 2
;
_chemical_formula_sum "Si O2"
_cell_formula_units_Z 120
_cell_length_a 31.413045
_cell_length_b 18.384591
_cell_length_c 10.158754
_cell_angle_alpha 90.000000
_cell_angle_beta 90.000000
_cell_angle_gamma 90.000000
_cell_volume 5866.842816
_symmetry_space_group_name_H-M "F D D 2"
_symmetry_group_IT_number 43
_symmetry_cell_setting 'orthorhombic'
loop_
_space_group_symop_operation_xyz
x,y,z
-x,-y,z
1/4-x,1/4+y,1/4+z
1/4+x,1/4-y,1/4+z
x,1/2+y,1/2+z
-x,1/2-y,1/2+z
1/4-x,3/4+y,3/4+z
1/4+x,3/4-y,3/4+z
1/2+x,y,1/2+z
1/2-x,-y,1/2+z
3/4-x,1/4+y,3/4+z
3/4+x,1/4-y,3/4+z
1/2+x,1/2+y,z
1/2-x,1/2-y,z
3/4-x,3/4+y,1/4+z
3/4+x,3/4-y,1/4+z
loop_
_atom_site_type_symbol
_atom_site_label
_atom_site_fract_x
_atom_site_fract_y
_atom_site_fract_z
Si Si1 0.100542 0.250000 0.425430
Si Si2 0.500000 0.500000 0.675430
Si Si3 0.610057 0.873393 0.828175
Si Si4 0.549058 0.735281 0.163650
Si Si5 0.431451 0.602424 0.592814
Si Si6 0.950942 0.235281 0.187210
Si Si7 0.889943 0.873393 0.022685
Si Si8 0.431451 0.897576 0.258047
O O1 0.130638 0.182197 0.464301
O O2 0.070414 0.228177 0.305609
O O3 0.070415 0.271823 0.545252
O O4 0.130638 0.317803 0.386559
O O5 0.471938 0.550651 0.581839
O O6 0.471938 0.449349 0.769021
O O7 0.573680 0.818643 0.784326
O O8 0.653809 0.833356 0.875661
O O9 0.595258 0.914375 0.961271
O O10 0.552322 0.814802 0.100941
O O11 0.500000 0.711224 0.175430
O O12 0.573680 0.681357 0.066534
O O13 0.403809 0.583356 0.725199
O O14 0.947678 0.314802 0.249919
O O15 0.904742 0.914375 0.889589
#
# Coordination Sequence:
#
# PCOD8187493 Si02
#       8
#    16   8  16  16  16  16  16  16
#     4  10  24  42  62 100 126 170 216 260 332 388
#     4  12  24  40  62  98 132 154 224 278 306 380
#     4  10  23  43  68  91 131 172 212 261 328 394
#     4  11  23  42  67  95 130 168 217 269 320 387
#     4  10  24  41  66  94 124 172 217 263 324 380
#     4  11  23  42  67  95 130 168 217 269 320 387
#     4  10  23  43  68  91 131 172 212 261 328 394
#     4  10  24  41  66  94 124 172 217 263 324 380
#
# _framework density 20.453931999999998
#
# number of rings (size 3 to 8) (size 9 to 14) (size 15 to 20)
#    0.000    1.600    1.333    1.600   14.933    0.000 
#    4.800    0.000    0.000    0.000    0.000    0.000 
#    0.000    0.000    0.000    0.000    0.000    0.000 
#
# Total GULP energy -372026.055450 kJ/mol
# GULP energy per Si atom -12400.868515 kJ/mol
# Density = 2.040738 g / cm^3
# Si number density = 20.453932 Si / 1000 Ang^3
#
#
#
# Elastic Constant Matrix: (Units=GPa)
#
#
# Indices 1 2 3 4 5 6 
#
# 1 144.6825 71.7850 33.3840 0.0000 0.0000 0.0000
# 2 71.7850 108.5496 43.4247 0.0000 0.0000 0.0000
# 3 33.3840 43.4247 93.8929 0.0000 0.0000 0.0000
# 4 0.0000 0.0000 0.0000 27.7928 0.0000 0.0000
# 5 0.0000 0.0000 0.0000 0.0000 16.1093 0.0000
# 6 0.0000 0.0000 0.0000 0.0000 0.0000 48.0056
#
#
#
# Elastic Compliance Matrix: (Units=1/GPa)
#
#
# Indices 1 2 3 4 5 6 
#
# 1 0.010317 -0.006571 -0.000629 0.000000 0.000000 0.000000
# 2 -0.006571 0.015489 -0.004827 0.000000 0.000000 0.000000
# 3 -0.000629 -0.004827 0.013107 0.000000 0.000000 0.000000
# 4 0.000000 0.000000 0.000000 0.035981 0.000000 0.000000
# 5 0.000000 0.000000 0.000000 0.000000 0.062076 0.000000
# 6 0.000000 0.000000 0.000000 0.000000 0.000000 0.020831
#
#
# Mechanical properties :
#
#
# Convention : Reuss Voigt Hill
#
# Bulk Modulus (GPa) = 67.30449 71.59028 69.44738
# Shear Modulus (GPa) = 26.76545 31.61695 29.19120
#
# Velocity S-wave (km/s) = 3.62134 3.93589 3.78189
# Velocity P-wave (km/s) = 7.10369 7.46536 7.28677
#
# Compressibility (1/GPa) = 0.01485785
#
# Stress axis : x y z
#
# Youngs Moduli (GPa) = 96.92571 64.56187 76.29704
#
# Poissons Ratio (x) = 0.42425 0.04801
# Poissons Ratio (y) = 0.63691 0.36830
# Poissons Ratio (z) = 0.06099 0.31165
#
# Static dielectric constant tensor:
#      x y z
#    x 3.958810 0.000000 0.000000 
#    y 0.000000 3.592070 0.000000 
#    z 0.000000 0.000000 3.734190 
# 
# 
# High freq. dielectric constant tensor:
#      x y z
#    x 1.811140 0.000000 0.000000 
#    y 0.000000 1.793810 0.000000 
#    z 0.000000 0.000000 1.798460 
# 
# From -- ./inp_files/8388.got.cif
#   From: 2010.06.25/outbox.cif.g09.slc.cpg/sg43_5_cif.got.tgz:8388.got - 2010.06.26 16:48:59.
