data_PCOD8187178
_publ_section_title
;
Structure prediction by ZEFSAII (Michael W. Deem and Ramdas Pophale) SiO2 
 PCOD8187178
Probable space group: F D D 2
;
_chemical_formula_sum "Si O2"
_cell_formula_units_Z 80
_cell_length_a 5.731259
_cell_length_b 38.288473
_cell_length_c 18.600666
_cell_angle_alpha 90.000000
_cell_angle_beta 90.000000
_cell_angle_gamma 90.000000
_cell_volume 4081.751640
_symmetry_space_group_name_H-M "F D D 2"
_symmetry_group_IT_number 43
_symmetry_cell_setting 'orthorhombic'
loop_
_space_group_symop_operation_xyz
x,y,z
-x,-y,z
1/4-x,1/4+y,1/4+z
1/4+x,1/4-y,1/4+z
x,1/2+y,1/2+z
-x,1/2-y,1/2+z
1/4-x,3/4+y,3/4+z
1/4+x,3/4-y,3/4+z
1/2+x,y,1/2+z
1/2-x,-y,1/2+z
3/4-x,1/4+y,3/4+z
3/4+x,1/4-y,3/4+z
1/2+x,1/2+y,z
1/2-x,1/2-y,z
3/4-x,3/4+y,1/4+z
3/4+x,3/4-y,1/4+z
loop_
_atom_site_type_symbol
_atom_site_label
_atom_site_fract_x
_atom_site_fract_y
_atom_site_fract_z
Si Si1 0.153641 0.571648 0.747600
Si Si2 0.930174 0.109312 0.636207
Si Si3 0.750000 0.250000 0.622360
Si Si4 0.183148 0.867766 0.232556
Si Si5 0.854219 0.323210 0.646083
Si Si6 0.750000 0.250000 0.039145
O O1 0.275429 0.578508 0.670705
O O2 0.342334 0.569836 0.811292
O O3 0.998176 0.605166 0.767432
O O4 0.010559 0.535370 0.741528
O O5 0.921946 0.103189 0.550648
O O6 0.182338 0.108931 0.673498
O O7 0.840058 0.147681 0.657834
O O8 0.761292 0.285102 0.671008
O O9 0.498537 0.252174 0.581035
O O10 0.076663 0.833791 0.193810
#
# Coordination Sequence:
#
# PCOD8187178 Si02
#       6
#    16  16   8  16  16   8
#     4  10  21  36  60  95 119 161 212 260 309 373
#     4  11  21  36  61  90 126 159 209 257 313 364
#     4  10  22  38  64  95 125 162 214 262 312 376
#     4  11  21  36  61  90 126 159 209 257 313 364
#     4  10  21  36  60  95 119 161 212 260 309 373
#     4  10  22  38  64  95 125 162 214 262 312 376
#
# _framework density 19.599430000000002
#
# number of rings (size 3 to 8) (size 9 to 14) (size 15 to 20)
#    0.000    1.600    4.000    1.200    5.600    0.000 
#    0.000    0.000    0.000    7.200    0.000    0.000 
#    0.000    0.000    0.000    0.000    0.000    0.000 
#
# Total GULP energy -247785.889275 kJ/mol
# GULP energy per Si atom -12389.294464 kJ/mol
# Density = 1.955482 g / cm^3
# Si number density = 19.599430 Si / 1000 Ang^3
#
#
#
# Elastic Constant Matrix: (Units=GPa)
#
#
# Indices 1 2 3 4 5 6 
#
# 1 87.0767 30.9363 16.5750 0.0000 0.0000 0.0000
# 2 30.9363 145.2542 26.9161 0.0000 0.0000 0.0000
# 3 16.5750 26.9161 84.1669 0.0000 0.0000 0.0000
# 4 0.0000 0.0000 0.0000 26.0005 0.0000 0.0000
# 5 0.0000 0.0000 0.0000 0.0000 28.3611 0.0000
# 6 0.0000 0.0000 0.0000 0.0000 0.0000 29.8284
#
#
#
# Elastic Compliance Matrix: (Units=1/GPa)
#
#
# Indices 1 2 3 4 5 6 
#
# 1 0.012658 -0.002375 -0.001733 0.000000 0.000000 0.000000
# 2 -0.002375 0.007764 -0.002015 0.000000 0.000000 0.000000
# 3 -0.001733 -0.002015 0.012867 0.000000 0.000000 0.000000
# 4 0.000000 0.000000 0.000000 0.038461 0.000000 0.000000
# 5 0.000000 0.000000 0.000000 0.000000 0.035260 0.000000
# 6 0.000000 0.000000 0.000000 0.000000 0.000000 0.033525
#
#
# Mechanical properties :
#
#
# Convention : Reuss Voigt Hill
#
# Bulk Modulus (GPa) = 47.52368 51.70583 49.61475
# Shear Modulus (GPa) = 31.29031 32.97604 32.13317
#
# Velocity S-wave (km/s) = 3.99995 4.10628 4.05346
# Velocity P-wave (km/s) = 6.75521 6.99433 6.87581
#
# Compressibility (1/GPa) = 0.02104214
#
# Stress axis : x y z
#
# Youngs Moduli (GPa) = 79.00313 128.80545 77.71867
#
# Poissons Ratio (x) = 0.30587 0.13471
# Poissons Ratio (y) = 0.18761 0.15661
# Poissons Ratio (z) = 0.13694 0.25956
#
# Static dielectric constant tensor:
#      x y z
#    x 3.707470 0.000000 0.000000 
#    y 0.000000 3.934630 0.000000 
#    z 0.000000 0.000000 3.297870 
# 
# 
# High freq. dielectric constant tensor:
#      x y z
#    x 1.775010 0.000000 0.000000 
#    y 0.000000 1.762130 0.000000 
#    z 0.000000 0.000000 1.732100 
# 
# From -- ./inp_files/19519.got.cif
#   From: 2010.06.25/outbox.cif.g09.slc.cpg/sg43_10_cif.got.tgz:19519.got - 2010.06.26 16:48:59.
