data_PCOD8187012
_publ_section_title
;
Structure prediction by ZEFSAII (Michael W. Deem and Ramdas Pophale) SiO2 
 PCOD8187012
Probable space group: F D D 2
;
_chemical_formula_sum "Si O2"
_cell_formula_units_Z 88
_cell_length_a 12.978123
_cell_length_b 12.246805
_cell_length_c 27.233252
_cell_angle_alpha 90.000000
_cell_angle_beta 90.000000
_cell_angle_gamma 90.000000
_cell_volume 4328.467824
_symmetry_space_group_name_H-M "F D D 2"
_symmetry_group_IT_number 43
_symmetry_cell_setting 'orthorhombic'
loop_
_space_group_symop_operation_xyz
x,y,z
-x,-y,z
1/4-x,1/4+y,1/4+z
1/4+x,1/4-y,1/4+z
x,1/2+y,1/2+z
-x,1/2-y,1/2+z
1/4-x,3/4+y,3/4+z
1/4+x,3/4-y,3/4+z
1/2+x,y,1/2+z
1/2-x,-y,1/2+z
3/4-x,1/4+y,3/4+z
3/4+x,1/4-y,3/4+z
1/2+x,1/2+y,z
1/2-x,1/2-y,z
3/4-x,3/4+y,1/4+z
3/4+x,3/4-y,1/4+z
loop_
_atom_site_type_symbol
_atom_site_label
_atom_site_fract_x
_atom_site_fract_y
_atom_site_fract_z
Si Si1 0.918732 0.359884 0.551870
Si Si2 0.497974 0.657403 0.949351
Si Si3 0.500000 0.000000 0.363309
Si Si4 0.225046 0.370139 0.475259
Si Si5 0.641522 0.899191 0.574821
Si Si6 0.682121 0.849042 0.682654
O O1 0.916499 0.367022 0.491889
O O2 0.845887 0.269320 0.576434
O O3 0.884315 0.472881 0.576484
O O4 0.036949 0.331461 0.564682
O O5 0.531637 0.605793 0.896958
O O6 0.389475 0.592787 0.958877
O O7 0.476667 0.786530 0.952570
O O8 0.250000 0.250000 0.455338
O O9 0.229199 0.376467 0.534214
O O10 0.317946 0.437376 0.450907
O O11 0.689474 0.856535 0.624509
O O12 0.750000 0.750000 0.702520
#
# Coordination Sequence:
#
# PCOD8187012 Si02
#       6
#    16  16   8  16  16  16
#     4  10  22  35  63  90 119 160 219 254 311 373
#     4  10  21  39  59  92 121 162 215 259 311 386
#     4  12  20  38  64  90 124 162 202 280 308 358
#     4   9  19  35  60  84 116 161 208 252 294 364
#     4  10  19  38  58  88 116 162 211 250 296 382
#     4  11  22  36  60  90 125 161 204 256 319 374
#
# _framework density 20.330518000000001
#
# number of rings (size 3 to 8) (size 9 to 14) (size 15 to 20)
#    0.000    1.818    1.818    3.818    5.091    1.455 
#    0.000    0.000    0.000    0.000    0.000    0.000 
#    0.000    0.000    0.000    0.000    0.000    0.000 
#
# Total GULP energy -272627.113386 kJ/mol
# GULP energy per Si atom -12392.141518 kJ/mol
# Density = 2.028425 g / cm^3
# Si number density = 20.330518 Si / 1000 Ang^3
#
#
#
# Elastic Constant Matrix: (Units=GPa)
#
#
# Indices 1 2 3 4 5 6 
#
# 1 87.7621 41.4808 57.9854 0.0000 0.0000 0.0000
# 2 41.4808 75.9461 21.1777 0.0000 0.0000 0.0000
# 3 57.9854 21.1777 116.6358 0.0000 0.0000 0.0000
# 4 0.0000 0.0000 0.0000 27.2321 0.0000 0.0000
# 5 0.0000 0.0000 0.0000 0.0000 35.8060 0.0000
# 6 0.0000 0.0000 0.0000 0.0000 0.0000 30.0846
#
#
#
# Elastic Compliance Matrix: (Units=1/GPa)
#
#
# Indices 1 2 3 4 5 6 
#
# 1 0.021907 -0.009405 -0.009184 0.000000 0.000000 0.000000
# 2 -0.009405 0.017907 0.001424 0.000000 0.000000 0.000000
# 3 -0.009184 0.001424 0.012881 0.000000 0.000000 0.000000
# 4 0.000000 0.000000 0.000000 0.036721 0.000000 0.000000
# 5 0.000000 0.000000 0.000000 0.000000 0.027928 0.000000
# 6 0.000000 0.000000 0.000000 0.000000 0.000000 0.033240
#
#
# Mechanical properties :
#
#
# Convention : Reuss Voigt Hill
#
# Bulk Modulus (GPa) = 54.44645 57.95910 56.20278
# Shear Modulus (GPa) = 26.17332 29.27119 27.72225
#
# Velocity S-wave (km/s) = 3.59192 3.79854 3.69667
# Velocity P-wave (km/s) = 6.63636 6.91440 6.77680
#
# Compressibility (1/GPa) = 0.01836667
#
# Stress axis : x y z
#
# Youngs Moduli (GPa) = 45.64712 55.84483 77.63542
#
# Poissons Ratio (x) = 0.52520 0.71297
# Poissons Ratio (y) = 0.42929 -0.11056
# Poissons Ratio (z) = 0.41920 -0.07953
#
# Static dielectric constant tensor:
#      x y z
#    x 3.833150 0.000000 0.000000 
#    y 0.000000 3.497950 0.000000 
#    z 0.000000 0.000000 3.806100 
# 
# 
# High freq. dielectric constant tensor:
#      x y z
#    x 1.775340 0.000000 0.000000 
#    y 0.000000 1.772920 0.000000 
#    z 0.000000 0.000000 1.804110 
# 
# From -- ./inp_files/24975.got.cif
#   From: 2010.06.25/outbox.cif.g09.slc.cpg/sg43_13_cif.got.tgz:24975.got - 2010.06.26 16:48:59.
