data_PCOD8187542
_publ_section_title
;
Structure prediction by ZEFSAII (Michael W. Deem and Ramdas Pophale) SiO2 
 PCOD8187542
Probable space group: F D D 2
;
_chemical_formula_sum "Si O2"
_cell_formula_units_Z 104
_cell_length_a 23.075523
_cell_length_b 22.852470
_cell_length_c 9.166205
_cell_angle_alpha 90.000000
_cell_angle_beta 90.000000
_cell_angle_gamma 90.000000
_cell_volume 4833.639605
_symmetry_space_group_name_H-M "F D D 2"
_symmetry_group_IT_number 43
_symmetry_cell_setting 'orthorhombic'
loop_
_space_group_symop_operation_xyz
x,y,z
-x,-y,z
1/4-x,1/4+y,1/4+z
1/4+x,1/4-y,1/4+z
x,1/2+y,1/2+z
-x,1/2-y,1/2+z
1/4-x,3/4+y,3/4+z
1/4+x,3/4-y,3/4+z
1/2+x,y,1/2+z
1/2-x,-y,1/2+z
3/4-x,1/4+y,3/4+z
3/4+x,1/4-y,3/4+z
1/2+x,1/2+y,z
1/2-x,1/2-y,z
3/4-x,3/4+y,1/4+z
3/4+x,3/4-y,1/4+z
loop_
_atom_site_type_symbol
_atom_site_label
_atom_site_fract_x
_atom_site_fract_y
_atom_site_fract_z
Si Si1 0.712077 0.971230 0.308590
Si Si2 0.750000 0.250000 0.548752
Si Si3 0.163316 0.714114 0.089235
Si Si4 0.855998 0.311160 0.404634
Si Si5 0.694099 0.456786 0.145796
Si Si6 0.812074 0.153228 0.746921
Si Si7 0.715040 0.829960 0.562070
O O1 0.650411 0.984747 0.230909
O O2 0.703544 0.979495 0.482012
O O3 0.730431 0.904368 0.263308
O O4 0.759912 0.016187 0.256452
O O5 0.791289 0.291448 0.449965
O O6 0.787155 0.204389 0.644930
O O7 0.133586 0.686812 0.231365
O O8 0.216014 0.673480 0.034540
O O9 0.189234 0.775326 0.150285
O O10 0.119556 0.721694 0.954504
O O11 0.874057 0.378027 0.450989
O O12 0.700487 0.387177 0.153383
O O13 0.818384 0.177482 0.909200
#
# Coordination Sequence:
#
# PCOD8187542 Si02
#       7
#    16   8  16  16  16  16  16
#     4   9  23  45  62 106 137 174 238 289 347 424
#     4  12  22  44  78  92 144 196 226 302 364 426
#     4  11  24  43  68 101 139 181 236 291 348 432
#     4  10  25  44  62 108 141 177 245 292 353 423
#     4  11  23  44  73  94 138 188 223 293 354 415
#     4   9  24  42  66 104 139 179 241 294 351 427
#     4  10  24  42  67 103 136 181 239 284 357 426
#
# _framework density 21.515878000000001
#
# number of rings (size 3 to 8) (size 9 to 14) (size 15 to 20)
#    0.923    0.923    0.000    2.769    4.308    8.615 
#    0.000    0.000    0.000    0.000    0.000    0.000 
#    0.000    0.000    0.000    0.000    0.000    0.000 
#
# Total GULP energy -322134.954195 kJ/mol
# GULP energy per Si atom -12389.805931 kJ/mol
# Density = 2.146691 g / cm^3
# Si number density = 21.515878 Si / 1000 Ang^3
#
#
#
# Elastic Constant Matrix: (Units=GPa)
#
#
# Indices 1 2 3 4 5 6 
#
# 1 124.7818 48.3921 44.1783 0.0013 -0.0008 -0.0003
# 2 48.3921 90.1584 37.4189 0.0036 -0.0010 -0.0019
# 3 44.1783 37.4189 122.1826 0.0127 -0.0059 -0.0059
# 4 0.0013 0.0036 0.0127 23.4270 -0.0048 -0.0044
# 5 -0.0008 -0.0010 -0.0059 -0.0048 35.9875 0.0023
# 6 -0.0003 -0.0019 -0.0059 -0.0044 0.0023 41.1130
#
#
#
# Elastic Compliance Matrix: (Units=1/GPa)
#
#
# Indices 1 2 3 4 5 6 
#
# 1 0.010711 -0.004745 -0.002420 0.000001 0.000000 0.000000
# 2 -0.004745 0.014809 -0.002820 -0.000001 0.000000 0.000000
# 3 -0.002420 -0.002820 0.009923 -0.000005 0.000001 0.000001
# 4 0.000001 -0.000001 -0.000005 0.042686 0.000006 0.000005
# 5 0.000000 0.000000 0.000001 0.000006 0.027787 -0.000002
# 6 0.000000 0.000000 0.000001 0.000005 -0.000002 0.024323
#
#
# Mechanical properties :
#
#
# Convention : Reuss Voigt Hill
#
# Bulk Modulus (GPa) = 64.62362 66.34458 65.48410
# Shear Modulus (GPa) = 32.18238 33.91440 33.04839
#
# Velocity S-wave (km/s) = 3.87169 3.97451 3.92344
# Velocity P-wave (km/s) = 7.07723 7.20863 7.14323
#
# Compressibility (1/GPa) = 0.01547422
#
# Stress axis : x y z
#
# Youngs Moduli (GPa) = 93.36452 67.52876 100.77730
#
# Poissons Ratio (x) = 0.32040 0.24385
# Poissons Ratio (y) = 0.44298 0.28415
# Poissons Ratio (z) = 0.22591 0.19040
#
# Static dielectric constant tensor:
#      x y z
#    x 3.723050 0.000000 0.000000 
#    y 0.000000 3.835480 -0.000010 
#    z 0.000000 -0.000010 3.709210 
# 
# 
# High freq. dielectric constant tensor:
#      x y z
#    x 1.833720 0.000000 0.000000 
#    y 0.000000 1.844280 0.000000 
#    z 0.000000 0.000000 1.849370 
# 
# From -- ./inp_files/3818.got.cif
#   From: 2010.06.25/outbox.cif.g09.slc.cpg/sg43_2_cif.got.tgz:3818.got - 2010.06.26 16:48:59.
