data_PCOD8187098
_publ_section_title
;
Structure prediction by ZEFSAII (Michael W. Deem and Ramdas Pophale) SiO2 
 PCOD8187098
Probable space group: F D D 2
;
_chemical_formula_sum "Si O2"
_cell_formula_units_Z 120
_cell_length_a 23.956719
_cell_length_b 25.599622
_cell_length_c 9.824122
_cell_angle_alpha 90.000000
_cell_angle_beta 90.000000
_cell_angle_gamma 90.000000
_cell_volume 6024.966529
_symmetry_space_group_name_H-M "F D D 2"
_symmetry_group_IT_number 43
_symmetry_cell_setting 'orthorhombic'
loop_
_space_group_symop_operation_xyz
x,y,z
-x,-y,z
1/4-x,1/4+y,1/4+z
1/4+x,1/4-y,1/4+z
x,1/2+y,1/2+z
-x,1/2-y,1/2+z
1/4-x,3/4+y,3/4+z
1/4+x,3/4-y,3/4+z
1/2+x,y,1/2+z
1/2-x,-y,1/2+z
3/4-x,1/4+y,3/4+z
3/4+x,1/4-y,3/4+z
1/2+x,1/2+y,z
1/2-x,1/2-y,z
3/4-x,3/4+y,1/4+z
3/4+x,3/4-y,1/4+z
loop_
_atom_site_type_symbol
_atom_site_label
_atom_site_fract_x
_atom_site_fract_y
_atom_site_fract_z
Si Si1 0.535061 0.326303 0.426430
Si Si2 0.750000 0.250000 0.116505
Si Si3 0.092197 0.936496 0.483870
Si Si4 0.845168 0.751609 0.273623
Si Si5 0.991130 0.682594 0.619159
Si Si6 0.490385 0.932911 0.614949
Si Si7 0.648272 0.979994 0.243918
Si Si8 0.176126 0.474273 0.765405
O O1 0.558714 0.382102 0.473368
O O2 0.506788 0.322979 0.280197
O O3 0.586403 0.285848 0.429566
O O4 0.483769 0.308306 0.521466
O O5 0.699023 0.235610 0.215310
O O6 0.764409 0.198149 0.026131
O O7 0.121337 0.942015 0.630875
O O8 0.136625 0.940320 0.362202
O O9 0.821867 0.692450 0.300152
O O10 0.790257 0.782533 0.310435
O O11 0.898015 0.767844 0.366914
O O12 0.855684 0.760175 0.115692
O O13 0.987537 0.623361 0.570280
O O14 0.938364 0.717333 0.572130
O O15 0.047091 0.704934 0.556771
#
# Coordination Sequence:
#
# PCOD8187098 Si02
#       8
#    16   8  16  16  16  16  16  16
#     4  11  24  42  67  97 135 173 229 269 331 403
#     4  10  20  38  68  94 130 162 228 268 318 412
#     4  12  24  45  66 102 131 180 217 280 339 395
#     4  10  21  43  65  91 135 169 219 274 331 394
#     4  11  22  42  66  97 128 175 229 273 325 402
#     4  10  21  40  66  98 123 173 228 266 324 413
#     4  11  26  42  64  99 136 172 218 277 336 394
#     4  11  22  43  69  92 129 178 224 275 326 400
#
# _framework density 19.917123
#
# number of rings (size 3 to 8) (size 9 to 14) (size 15 to 20)
#    0.000    1.333    6.667    0.000    1.867    3.200 
#    7.200    0.000    0.000    0.000    0.000    0.000 
#    0.000    0.000    0.000    0.000    0.000    0.000 
#
# Total GULP energy -371708.986213 kJ/mol
# GULP energy per Si atom -12390.299540 kJ/mol
# Density = 1.987179 g / cm^3
# Si number density = 19.917123 Si / 1000 Ang^3
#
#
#
# Elastic Constant Matrix: (Units=GPa)
#
#
# Indices 1 2 3 4 5 6 
#
# 1 98.3896 48.7890 36.7184 -0.0002 0.0001 0.0000
# 2 48.7890 115.1901 29.2923 0.0002 0.0001 -0.0001
# 3 36.7184 29.2923 105.5327 0.0002 -0.0020 -0.0002
# 4 -0.0002 0.0002 0.0002 14.7981 -0.0012 0.0000
# 5 0.0001 0.0001 -0.0020 -0.0012 -5.2254 0.0003
# 6 0.0000 -0.0001 -0.0002 0.0000 0.0003 31.0896
#
#
#
# Elastic Compliance Matrix: (Units=1/GPa)
#
#
# Indices 1 2 3 4 5 6 
#
# 1 0.013947 -0.005028 -0.003457 0.000000 0.000001 0.000000
# 2 -0.005028 0.011153 -0.001346 0.000000 0.000001 0.000000
# 3 -0.003457 -0.001346 0.011052 0.000000 -0.000004 0.000000
# 4 0.000000 0.000000 0.000000 0.067576 -0.000016 0.000000
# 5 0.000001 0.000001 -0.000004 -0.000016 -0.191374 0.000002
# 6 0.000000 0.000000 0.000000 0.000000 0.000002 0.032165
#
#
# Mechanical properties :
#
#
# Convention : Reuss Voigt Hill
#
# Bulk Modulus (GPa) = 60.64406 60.96795 60.80601
# Shear Modulus (GPa) = -164.90796 21.75331 -71.57733
#
# Velocity S-wave (km/s) = -9.10916 3.30842 -6.00130
# Velocity P-wave (km/s) = 8.95106 6.72841 4.17433
#
# Compressibility (1/GPa) = 0.01648966
#
# Stress axis : x y z
#
# Youngs Moduli (GPa) = 71.69893 89.65883 90.47937
#
# Poissons Ratio (x) = 0.45083 0.31279
# Poissons Ratio (y) = 0.36052 0.12181
# Poissons Ratio (z) = 0.24787 0.12071
#
# Static dielectric constant tensor:
#      x y z
#    x 3.863590 0.000000 0.000000 
#    y 0.000000 4.396880 0.000000 
#    z 0.000000 0.000000 3.667060 
# 
# 
# High freq. dielectric constant tensor:
#      x y z
#    x 1.786640 0.000000 0.000000 
#    y 0.000000 1.775150 0.000000 
#    z 0.000000 0.000000 1.769600 
# 
# From -- ./inp_files/3903.got.cif
#   From: 2010.06.25/outbox.cif.g09.slc.cpg/sg43_2_cif.got.tgz:3903.got - 2010.06.26 16:48:59.
