data_PCOD8187181
_publ_section_title
;
Structure prediction by ZEFSAII (Michael W. Deem and Ramdas Pophale) SiO2 
 PCOD8187181
Probable space group: F D D 2
;
_chemical_formula_sum "Si O2"
_cell_formula_units_Z 88
_cell_length_a 13.812510
_cell_length_b 25.748881
_cell_length_c 12.884020
_cell_angle_alpha 90.000000
_cell_angle_beta 90.000000
_cell_angle_gamma 90.000000
_cell_volume 4582.287731
_symmetry_space_group_name_H-M "F D D 2"
_symmetry_group_IT_number 43
_symmetry_cell_setting 'orthorhombic'
loop_
_space_group_symop_operation_xyz
x,y,z
-x,-y,z
1/4-x,1/4+y,1/4+z
1/4+x,1/4-y,1/4+z
x,1/2+y,1/2+z
-x,1/2-y,1/2+z
1/4-x,3/4+y,3/4+z
1/4+x,3/4-y,3/4+z
1/2+x,y,1/2+z
1/2-x,-y,1/2+z
3/4-x,1/4+y,3/4+z
3/4+x,1/4-y,3/4+z
1/2+x,1/2+y,z
1/2-x,1/2-y,z
3/4-x,3/4+y,1/4+z
3/4+x,3/4-y,1/4+z
loop_
_atom_site_type_symbol
_atom_site_label
_atom_site_fract_x
_atom_site_fract_y
_atom_site_fract_z
Si Si1 0.250000 0.250000 0.428210
Si Si2 0.139294 0.835007 0.217147
Si Si3 0.153774 0.066775 0.085623
Si Si4 0.492340 0.339962 0.047137
Si Si5 0.018964 0.745765 0.173863
Si Si6 0.822090 0.823918 0.590988
O O1 0.158051 0.264674 0.358374
O O2 0.241101 0.197513 0.495633
O O3 0.087670 0.780779 0.249290
O O4 0.122109 0.871515 0.315522
O O5 0.253700 0.829067 0.192567
O O6 0.087259 0.858271 0.112729
O O7 0.090872 0.116849 0.053816
O O8 0.227537 0.081580 0.177635
O O9 0.212025 0.048610 0.984298
O O10 0.455675 0.285214 0.100403
O O11 0.093539 0.717561 0.098740
#
# Coordination Sequence:
#
# PCOD8187181 Si02
#       6
#     8  16  16  16  16  16
#     4  12  18  36  64  86 112 164 214 250 300 368
#     4  10  21  36  64  91 117 160 217 258 302 381
#     4  12  24  38  65  93 130 165 210 271 319 379
#     4  10  22  40  60  97 124 162 221 257 315 389
#     4  10  24  39  60  97 129 162 208 268 319 374
#     4  12  20  39  63  92 121 160 211 261 309 384
#
# _framework density 19.204381000000001
#
# number of rings (size 3 to 8) (size 9 to 14) (size 15 to 20)
#    1.091    0.000    7.273    0.000    5.091    1.455 
#    0.000    0.000    0.000    0.000    0.000    0.000 
#    0.000    0.000    0.000    0.000    0.000    0.000 
#
# Total GULP energy -272555.717134 kJ/mol
# GULP energy per Si atom -12388.896233 kJ/mol
# Density = 1.916067 g / cm^3
# Si number density = 19.204381 Si / 1000 Ang^3
#
#
#
# Elastic Constant Matrix: (Units=GPa)
#
#
# Indices 1 2 3 4 5 6 
#
# 1 70.1708 49.2139 35.7872 0.0000 0.0000 0.0000
# 2 49.2139 114.8428 34.8950 0.0000 0.0000 0.0000
# 3 35.7872 34.8950 45.1376 0.0000 0.0000 0.0000
# 4 0.0000 0.0000 0.0000 34.5203 0.0000 0.0000
# 5 0.0000 0.0000 0.0000 0.0000 21.8317 0.0000
# 6 0.0000 0.0000 0.0000 0.0000 0.0000 42.5530
#
#
#
# Elastic Compliance Matrix: (Units=1/GPa)
#
#
# Indices 1 2 3 4 5 6 
#
# 1 0.027388 -0.006716 -0.016522 0.000000 0.000000 0.000000
# 2 -0.006716 0.013028 -0.004747 0.000000 0.000000 0.000000
# 3 -0.016522 -0.004747 0.038923 0.000000 0.000000 0.000000
# 4 0.000000 0.000000 0.000000 0.028968 0.000000 0.000000
# 5 0.000000 0.000000 0.000000 0.000000 0.045805 0.000000
# 6 0.000000 0.000000 0.000000 0.000000 0.000000 0.023500
#
#
# Mechanical properties :
#
#
# Convention : Reuss Voigt Hill
#
# Bulk Modulus (GPa) = 42.79142 52.21593 47.50367
# Shear Modulus (GPa) = 20.71492 27.13134 23.92313
#
# Velocity S-wave (km/s) = 3.28785 3.76276 3.53329
# Velocity P-wave (km/s) = 6.06167 6.79164 6.43701
#
# Compressibility (1/GPa) = 0.02336917
#
# Stress axis : x y z
#
# Youngs Moduli (GPa) = 36.51294 76.75786 25.69149
#
# Poissons Ratio (x) = 0.51553 0.42447
# Poissons Ratio (y) = 0.24523 0.12195
# Poissons Ratio (z) = 0.60326 0.36435
#
# Static dielectric constant tensor:
#      x y z
#    x 3.315170 0.000000 0.000000 
#    y 0.000000 3.592370 0.000000 
#    z 0.000000 0.000000 3.137760 
# 
# 
# High freq. dielectric constant tensor:
#      x y z
#    x 1.728660 0.000000 0.000000 
#    y 0.000000 1.756710 0.000000 
#    z 0.000000 0.000000 1.715990 
# 
# From -- ./inp_files/6258.got.cif
#   From: 2010.06.25/outbox.cif.g09.slc.cpg/sg43_4_cif.got.tgz:6258.got - 2010.06.26 16:48:59.
