data_PCOD8187004
_publ_section_title
;
Structure prediction by ZEFSAII (Michael W. Deem and Ramdas Pophale) SiO2 
 PCOD8187004
Probable space group: F D D 2
;
_chemical_formula_sum "Si O2"
_cell_formula_units_Z 120
_cell_length_a 13.250490
_cell_length_b 22.781679
_cell_length_c 20.642677
_cell_angle_alpha 90.000000
_cell_angle_beta 90.000000
_cell_angle_gamma 90.000000
_cell_volume 6231.372079
_symmetry_space_group_name_H-M "F D D 2"
_symmetry_group_IT_number 43
_symmetry_cell_setting 'orthorhombic'
loop_
_space_group_symop_operation_xyz
x,y,z
-x,-y,z
1/4-x,1/4+y,1/4+z
1/4+x,1/4-y,1/4+z
x,1/2+y,1/2+z
-x,1/2-y,1/2+z
1/4-x,3/4+y,3/4+z
1/4+x,3/4-y,3/4+z
1/2+x,y,1/2+z
1/2-x,-y,1/2+z
3/4-x,1/4+y,3/4+z
3/4+x,1/4-y,3/4+z
1/2+x,1/2+y,z
1/2-x,1/2-y,z
3/4-x,3/4+y,1/4+z
3/4+x,3/4-y,1/4+z
loop_
_atom_site_type_symbol
_atom_site_label
_atom_site_fract_x
_atom_site_fract_y
_atom_site_fract_z
Si Si1 0.027822 0.346647 0.667540
Si Si2 0.347008 0.431739 0.180631
Si Si3 0.940959 0.309625 0.899150
Si Si4 0.614621 0.555748 0.728812
Si Si5 0.500000 0.500000 0.617638
Si Si6 0.517668 0.354833 0.798454
Si Si7 0.691044 0.014210 0.033557
Si Si8 0.189850 0.439787 0.288553
O O1 0.118940 0.385140 0.640340
O O2 0.077635 0.303990 0.720873
O O3 0.945757 0.393050 0.693698
O O4 0.976222 0.305921 0.612963
O O5 0.371954 0.499465 0.161902
O O6 0.271898 0.404748 0.126195
O O7 0.289788 0.432500 0.247782
O O8 0.022094 0.321475 0.956259
O O9 0.999336 0.306015 0.831880
O O10 0.538546 0.551590 0.666504
O O11 0.576538 0.604293 0.779106
O O12 0.620053 0.494436 0.767976
O O13 0.592619 0.485945 0.569303
O O14 0.506757 0.292250 0.762658
O O15 0.623743 0.381752 0.776578
#
# Coordination Sequence:
#
# PCOD8187004 Si02
#       8
#    16  16  16  16   8  16  16  16
#     4  11  21  37  58  85 120 152 195 251 288 351
#     4   9  20  37  60  82 113 157 196 240 300 356
#     4   9  20  38  58  81 114 159 197 233 301 367
#     4  10  19  37  62  88 110 157 202 239 302 357
#     4  10  20  40  62  78 126 158 196 248 300 362
#     4  10  20  34  59  88 116 149 198 245 298 350
#     4  10  23  37  56  90 118 158 201 242 300 357
#     4  10  20  37  58  84 118 153 194 251 287 355
#
# _framework density 19.257397000000001
#
# number of rings (size 3 to 8) (size 9 to 14) (size 15 to 20)
#    0.000    2.133    1.333    2.000    1.867    1.067 
#    0.000    4.667    5.867    0.000    0.000    0.000 
#    0.000    0.000    0.000    0.000    0.000    0.000 
#
# Total GULP energy -371796.426065 kJ/mol
# GULP energy per Si atom -12393.214202 kJ/mol
# Density = 1.921357 g / cm^3
# Si number density = 19.257397 Si / 1000 Ang^3
#
#
#
# Elastic Constant Matrix: (Units=GPa)
#
#
# Indices 1 2 3 4 5 6 
#
# 1 77.0234 39.2594 33.2366 0.0000 0.0000 0.0000
# 2 39.2594 89.9052 46.9645 0.0000 0.0000 0.0000
# 3 33.2366 46.9645 77.7632 0.0000 0.0000 0.0000
# 4 0.0000 0.0000 0.0000 27.8303 0.0000 0.0000
# 5 0.0000 0.0000 0.0000 0.0000 27.0488 0.0000
# 6 0.0000 0.0000 0.0000 0.0000 0.0000 24.8862
#
#
#
# Elastic Compliance Matrix: (Units=1/GPa)
#
#
# Indices 1 2 3 4 5 6 
#
# 1 0.017594 -0.005485 -0.004207 0.000000 0.000000 0.000000
# 2 -0.005485 0.017959 -0.008502 0.000000 0.000000 0.000000
# 3 -0.004207 -0.008502 0.019792 0.000000 0.000000 0.000000
# 4 0.000000 0.000000 0.000000 0.035932 0.000000 0.000000
# 5 0.000000 0.000000 0.000000 0.000000 0.036970 0.000000
# 6 0.000000 0.000000 0.000000 0.000000 0.000000 0.040183
#
#
# Mechanical properties :
#
#
# Convention : Reuss Voigt Hill
#
# Bulk Modulus (GPa) = 52.75011 53.73477 53.24244
# Shear Modulus (GPa) = 23.68104 24.30181 23.99142
#
# Velocity S-wave (km/s) = 3.51053 3.55624 3.53346
# Velocity P-wave (km/s) = 6.62445 6.69526 6.65995
#
# Compressibility (1/GPa) = 0.01895731
#
# Stress axis : x y z
#
# Youngs Moduli (GPa) = 56.83616 55.68130 50.52441
#
# Poissons Ratio (x) = 0.30543 0.21257
# Poissons Ratio (y) = 0.31176 0.42956
# Poissons Ratio (z) = 0.23912 0.47340
#
# Static dielectric constant tensor:
#      x y z
#    x 3.520350 0.000000 0.000000 
#    y 0.000000 3.447820 0.000000 
#    z 0.000000 0.000000 3.447230 
# 
# 
# High freq. dielectric constant tensor:
#      x y z
#    x 1.751420 0.000000 0.000000 
#    y 0.000000 1.738190 0.000000 
#    z 0.000000 0.000000 1.741870 
# 
# From -- ./inp_files/17699.got.cif
#   From: 2010.06.25/outbox.cif.g09.slc.cpg/sg43_9_cif.got.tgz:17699.got - 2010.06.26 16:48:59.
