data_PCOD8187937
_publ_section_title
;
Structure prediction by ZEFSAII (Michael W. Deem and Ramdas Pophale) SiO2 
 PCOD8187937
Probable space group: I M M 2
;
_chemical_formula_sum "Si O2"
_cell_formula_units_Z 64
_cell_length_a 16.201245
_cell_length_b 22.905374
_cell_length_c 9.722569
_cell_angle_alpha 90.000000
_cell_angle_beta 90.000000
_cell_angle_gamma 90.000000
_cell_volume 3608.002343
_symmetry_space_group_name_H-M "I M M 2"
_symmetry_group_IT_number 44
_symmetry_cell_setting 'orthorhombic'
loop_
_space_group_symop_operation_xyz
x,y,z
-x,-y,z
-x,y,z
x,-y,z
1/2+x,1/2+y,1/2+z
1/2-x,1/2-y,1/2+z
1/2-x,1/2+y,1/2+z
1/2+x,1/2-y,1/2+z
loop_
_atom_site_type_symbol
_atom_site_label
_atom_site_fract_x
_atom_site_fract_y
_atom_site_fract_z
Si Si1 0.318002 0.654817 0.401770
Si Si2 0.906824 0.757581 0.278250
Si Si3 0.092257 0.735257 0.803110
Si Si4 0.404159 0.374966 0.653079
Si Si5 0.907316 0.344366 0.067650
Si Si6 0.807665 0.740222 0.543259
Si Si7 0.735000 0.368718 0.112044
Si Si8 0.405079 0.567785 0.935248
O O1 0.388694 0.698761 0.349006
O O2 0.356035 0.608842 0.511943
O O3 0.247095 0.691636 0.473576
O O4 0.282853 0.618441 0.272499
O O5 0.865958 0.811230 0.194203
O O6 0.896649 0.696739 0.200614
O O7 0.876220 0.756726 0.432990
O O8 0.000000 0.777542 0.291410
O O9 0.151868 0.713816 0.681036
O O10 0.000000 0.734503 0.745436
O O11 0.102414 0.691701 0.928901
O O12 0.500000 0.373054 0.615987
O O13 0.386479 0.420963 0.774363
O O14 0.829579 0.390153 0.075440
O O15 0.000000 0.373426 0.072040
O O16 0.759438 0.799058 0.584907
O O17 0.662528 0.398112 0.024473
O O18 0.500000 0.587485 0.969885
O O19 0.393914 0.500000 0.966519
#
# Coordination Sequence:
#
# PCOD8187937 Si02
#       8
#     8   8   8   8   8   8   8   8
#     4  11  21  30  47  78 110 141 179 215 252 319
#     4  10  17  29  46  69 103 145 177 207 251 308
#     4  10  20  30  42  65 107 147 179 213 249 297
#     4  10  19  33  52  70  99 140 179 218 261 313
#     4  10  19  32  48  74 111 145 174 211 257 313
#     4  11  20  28  45  74 111 140 178 214 252 313
#     4  11  21  33  54  76 107 145 177 220 274 313
#     4  10  23  41  60  81 103 132 179 235 282 322
#
# _framework density 17.738348999999999
#
# number of rings (size 3 to 8) (size 9 to 14) (size 15 to 20)
#    0.000    1.625    5.000    0.750    3.500    2.500 
#    0.000    0.625    0.000    1.875    0.000    0.000 
#    0.000    0.000    0.000    0.000    0.000    0.000 
#
# Total GULP energy -396553.066035 kJ/mol
# GULP energy per Si atom -12392.283314 kJ/mol
# Density = 1.769798 g / cm^3
# Si number density = 17.738349 Si / 1000 Ang^3
#
#
#
# Elastic Constant Matrix: (Units=GPa)
#
#
# Indices 1 2 3 4 5 6 
#
# 1 115.2416 28.9942 54.7393 0.0000 0.0000 0.0000
# 2 28.9942 21.6067 9.6548 0.0000 0.0000 0.0000
# 3 54.7393 9.6548 115.4923 0.0000 0.0000 0.0000
# 4 0.0000 0.0000 0.0000 9.1859 0.0000 0.0000
# 5 0.0000 0.0000 0.0000 0.0000 31.3980 0.0000
# 6 0.0000 0.0000 0.0000 0.0000 0.0000 11.3665
#
#
#
# Elastic Compliance Matrix: (Units=1/GPa)
#
#
# Indices 1 2 3 4 5 6 
#
# 1 0.016493 -0.019363 -0.006199 0.000000 0.000000 0.000000
# 2 -0.019363 0.070809 0.003258 0.000000 0.000000 0.000000
# 3 -0.006199 0.003258 0.011324 0.000000 0.000000 0.000000
# 4 0.000000 0.000000 0.000000 0.108862 0.000000 0.000000
# 5 0.000000 0.000000 0.000000 0.000000 0.031849 0.000000
# 6 0.000000 0.000000 0.000000 0.000000 0.000000 0.087977
#
#
# Mechanical properties :
#
#
# Convention : Reuss Voigt Hill
#
# Bulk Modulus (GPa) = 18.51178 48.79078 33.65128
# Shear Modulus (GPa) = 12.82286 20.98692 16.90489
#
# Velocity S-wave (km/s) = 2.69158 3.44341 3.09044
# Velocity P-wave (km/s) = 4.48532 6.58597 5.63441
#
# Compressibility (1/GPa) = 0.05401966
#
# Stress axis : x y z
#
# Youngs Moduli (GPa) = 60.63088 14.12249 88.30683
#
# Poissons Ratio (x) = 0.27345 0.54738
# Poissons Ratio (y) = 1.17397 -0.28768
# Poissons Ratio (z) = 0.37582 -0.04601
#
# Static dielectric constant tensor:
#      x y z
#    x 3.624090 0.000000 0.000000 
#    y 0.000000 2.692990 0.000000 
#    z 0.000000 0.000000 3.553490 
# 
# 
# High freq. dielectric constant tensor:
#      x y z
#    x 1.705050 0.000000 0.000000 
#    y 0.000000 1.605290 0.000000 
#    z 0.000000 0.000000 1.705210 
# 
# From -- ./inp_files/7561.got.cif
#   From: 2010.03.12/outbox.cif.g09.slc.cpg/sg44_4_cif.got.tgz:7561.got - 2010.04.14 02:36:11.
