data_PCOD8187153
_publ_section_title
;
Structure prediction by ZEFSAII (Michael W. Deem and Ramdas Pophale) SiO2 
 PCOD8187153
Probable space group: F D D 2
;
_chemical_formula_sum "Si O2"
_cell_formula_units_Z 120
_cell_length_a 9.766344
_cell_length_b 22.185429
_cell_length_c 26.180348
_cell_angle_alpha 90.000000
_cell_angle_beta 90.000000
_cell_angle_gamma 90.000000
_cell_volume 5672.509913
_symmetry_space_group_name_H-M "F D D 2"
_symmetry_group_IT_number 43
_symmetry_cell_setting 'orthorhombic'
loop_
_space_group_symop_operation_xyz
x,y,z
-x,-y,z
1/4-x,1/4+y,1/4+z
1/4+x,1/4-y,1/4+z
x,1/2+y,1/2+z
-x,1/2-y,1/2+z
1/4-x,3/4+y,3/4+z
1/4+x,3/4-y,3/4+z
1/2+x,y,1/2+z
1/2-x,-y,1/2+z
3/4-x,1/4+y,3/4+z
3/4+x,1/4-y,3/4+z
1/2+x,1/2+y,z
1/2-x,1/2-y,z
3/4-x,3/4+y,1/4+z
3/4+x,3/4-y,1/4+z
loop_
_atom_site_type_symbol
_atom_site_label
_atom_site_fract_x
_atom_site_fract_y
_atom_site_fract_z
Si Si1 0.750000 0.750000 0.097100
Si Si2 0.528615 0.685090 0.269575
Si Si3 0.810361 0.314549 0.870669
Si Si4 0.220348 0.374352 0.217410
Si Si5 0.551488 0.681330 0.752370
Si Si6 0.901919 0.751889 0.002652
Si Si7 0.217088 0.118398 0.108281
Si Si8 0.691465 0.888730 0.720014
O O1 0.881162 0.733741 0.061653
O O2 0.777195 0.811305 0.127254
O O3 0.572022 0.693806 0.328368
O O4 0.657784 0.670724 0.233345
O O5 0.451503 0.746545 0.253918
O O6 0.419014 0.631331 0.262667
O O7 0.750000 0.250000 0.889628
O O8 0.686392 0.349683 0.843286
O O9 0.866961 0.357537 0.915291
O O10 0.213371 0.431081 0.255281
O O11 0.236513 0.409222 0.162446
O O12 0.079439 0.338156 0.219781
O O13 0.557606 0.650681 0.809266
O O14 0.683601 0.658704 0.721045
O O15 0.750000 0.750000 0.975303
O O16 0.008028 0.706450 0.977995
#
# Coordination Sequence:
#
# PCOD8187153 Si02
#       8
#     8  16  16  16  16  16  16  16
#     4  10  20  42  66  92 132 176 232 276 336 410
#     4  12  26  43  71 102 141 192 230 292 359 426
#     4  12  24  47  74 105 142 188 249 289 354 443
#     4  12  23  42  74 100 129 191 240 277 352 427
#     4  12  24  49  66  99 149 178 237 290 354 427
#     4  10  20  44  67  93 136 178 223 295 337 406
#     4  12  23  41  70 102 131 182 235 285 336 431
#     4  12  26  44  68 108 142 177 230 313 354 403
#
# _framework density 21.154657
#
# number of rings (size 3 to 8) (size 9 to 14) (size 15 to 20)
#    0.400    0.000    8.000    1.600    1.867    1.067 
#    0.000    0.000    2.933    0.000    0.000    0.000 
#    0.000    0.000    0.000    0.000    0.000    0.000 
#
# Total GULP energy -371775.526619 kJ/mol
# GULP energy per Si atom -12392.517554 kJ/mol
# Density = 2.110651 g / cm^3
# Si number density = 21.154657 Si / 1000 Ang^3
#
#
#
# Elastic Constant Matrix: (Units=GPa)
#
#
# Indices 1 2 3 4 5 6 
#
# 1 101.6006 36.5149 30.3492 0.0000 0.0000 0.0000
# 2 36.5149 123.8331 16.1872 0.0000 0.0000 0.0000
# 3 30.3492 16.1872 70.0880 0.0000 0.0000 0.0000
# 4 0.0000 0.0000 0.0000 25.6865 0.0000 0.0000
# 5 0.0000 0.0000 0.0000 0.0000 26.9565 0.0000
# 6 0.0000 0.0000 0.0000 0.0000 0.0000 48.3034
#
#
#
# Elastic Compliance Matrix: (Units=1/GPa)
#
#
# Indices 1 2 3 4 5 6 
#
# 1 0.012314 -0.003025 -0.004633 0.000000 0.000000 0.000000
# 2 -0.003025 0.009070 -0.000785 0.000000 0.000000 0.000000
# 3 -0.004633 -0.000785 0.016455 0.000000 0.000000 0.000000
# 4 0.000000 0.000000 0.000000 0.038931 0.000000 0.000000
# 5 0.000000 0.000000 0.000000 0.000000 0.037097 0.000000
# 6 0.000000 0.000000 0.000000 0.000000 0.000000 0.020702
#
#
# Mechanical properties :
#
#
# Convention : Reuss Voigt Hill
#
# Bulk Modulus (GPa) = 47.72747 51.29161 49.50954
# Shear Modulus (GPa) = 31.55759 34.35395 32.95577
#
# Velocity S-wave (km/s) = 3.86652 4.03419 3.95124
# Velocity P-wave (km/s) = 6.52253 6.78220 6.65363
#
# Compressibility (1/GPa) = 0.02095229
#
# Stress axis : x y z
#
# Youngs Moduli (GPa) = 81.20978 110.25300 60.77051
#
# Poissons Ratio (x) = 0.33355 0.28157
# Poissons Ratio (y) = 0.24569 0.04769
# Poissons Ratio (z) = 0.37627 0.08652
#
# Static dielectric constant tensor:
#      x y z
#    x 3.829480 0.000000 0.000000 
#    y 0.000000 3.848550 0.000000 
#    z 0.000000 0.000000 3.684910 
# 
# 
# High freq. dielectric constant tensor:
#      x y z
#    x 1.822600 0.000000 0.000000 
#    y 0.000000 1.841960 0.000000 
#    z 0.000000 0.000000 1.816480 
# 
# From -- ./inp_files/28132.got.cif
#   From: 2010.06.25/outbox.cif.g09.slc.cpg/sg43_15_cif.got.tgz:28132.got - 2010.06.26 16:48:59.
