data_PCOD8187708
_publ_section_title
;
Structure prediction by ZEFSAII (Michael W. Deem and Ramdas Pophale) SiO2 
 PCOD8187708
Probable space group: F D D 2
;
_chemical_formula_sum "Si O2"
_cell_formula_units_Z 88
_cell_length_a 27.214407
_cell_length_b 11.816403
_cell_length_c 11.603580
_cell_angle_alpha 90.000000
_cell_angle_beta 90.000000
_cell_angle_gamma 90.000000
_cell_volume 3731.437490
_symmetry_space_group_name_H-M "F D D 2"
_symmetry_group_IT_number 43
_symmetry_cell_setting 'orthorhombic'
loop_
_space_group_symop_operation_xyz
x,y,z
-x,-y,z
1/4-x,1/4+y,1/4+z
1/4+x,1/4-y,1/4+z
x,1/2+y,1/2+z
-x,1/2-y,1/2+z
1/4-x,3/4+y,3/4+z
1/4+x,3/4-y,3/4+z
1/2+x,y,1/2+z
1/2-x,-y,1/2+z
3/4-x,1/4+y,3/4+z
3/4+x,1/4-y,3/4+z
1/2+x,1/2+y,z
1/2-x,1/2-y,z
3/4-x,3/4+y,1/4+z
3/4+x,3/4-y,1/4+z
loop_
_atom_site_type_symbol
_atom_site_label
_atom_site_fract_x
_atom_site_fract_y
_atom_site_fract_z
Si Si1 0.164344 0.624180 0.301560
Si Si2 0.500000 0.000000 0.572119
Si Si3 0.406074 0.019230 0.442370
Si Si4 0.163238 0.876123 0.364486
Si Si5 0.497467 0.762748 0.678118
Si Si6 0.671937 0.989873 0.617553
O O1 0.117579 0.582506 0.372588
O O2 0.179939 0.748246 0.341990
O O3 0.142135 0.630647 0.169890
O O4 0.210418 0.541151 0.330440
O O5 0.454737 0.964513 0.493219
O O6 0.514389 0.888733 0.643508
O O7 0.371203 0.066984 0.543848
O O8 0.416194 0.124688 0.359850
O O9 0.204256 0.935147 0.445486
O O10 0.167989 0.943935 0.245351
O O11 0.473605 0.781552 0.803961
#
# Coordination Sequence:
#
# PCOD8187708 Si02
#       6
#    16   8  16  16  16  16
#     4  11  25  45  74 103 152 181 248 306 375 436
#     4  12  24  44  72 100 138 186 252 278 364 438
#     4  11  23  44  70 101 137 194 230 298 360 451
#     4  12  25  46  74 109 142 194 243 313 371 438
#     4  11  26  48  69 108 144 200 241 306 372 454
#     4  11  24  47  70 101 147 182 248 293 375 438
#
# _framework density 23.583404000000002
#
# number of rings (size 3 to 8) (size 9 to 14) (size 15 to 20)
#    0.000    0.727    1.818    7.091    2.545    1.455 
#    3.273    0.000    0.000    0.000    0.000    0.000 
#    0.000    0.000    0.000    0.000    0.000    0.000 
#
# Total GULP energy -272712.801567 kJ/mol
# GULP energy per Si atom -12396.036435 kJ/mol
# Density = 2.352973 g / cm^3
# Si number density = 23.583404 Si / 1000 Ang^3
#
#
#
# Elastic Constant Matrix: (Units=GPa)
#
#
# Indices 1 2 3 4 5 6 
#
# 1 56.6616 22.0066 11.4687 0.0000 0.0000 0.0000
# 2 22.0066 141.8897 24.4399 0.0000 0.0000 0.0000
# 3 11.4687 24.4399 89.0690 0.0000 0.0000 0.0000
# 4 0.0000 0.0000 0.0000 21.7579 0.0000 0.0000
# 5 0.0000 0.0000 0.0000 0.0000 65.2284 0.0000
# 6 0.0000 0.0000 0.0000 0.0000 0.0000 35.8539
#
#
#
# Elastic Compliance Matrix: (Units=1/GPa)
#
#
# Indices 1 2 3 4 5 6 
#
# 1 0.019028 -0.002655 -0.001722 0.000000 0.000000 0.000000
# 2 -0.002655 0.007768 -0.001790 0.000000 0.000000 0.000000
# 3 -0.001722 -0.001790 0.011940 0.000000 0.000000 0.000000
# 4 0.000000 0.000000 0.000000 0.045960 0.000000 0.000000
# 5 0.000000 0.000000 0.000000 0.000000 0.015331 0.000000
# 6 0.000000 0.000000 0.000000 0.000000 0.000000 0.027891
#
#
# Mechanical properties :
#
#
# Convention : Reuss Voigt Hill
#
# Bulk Modulus (GPa) = 37.87305 44.82788 41.35047
# Shear Modulus (GPa) = 33.54555 39.88170 36.71363
#
# Velocity S-wave (km/s) = 3.77559 4.11675 3.94986
# Velocity P-wave (km/s) = 5.92460 6.45340 6.19464
#
# Compressibility (1/GPa) = 0.02640400
#
# Stress axis : x y z
#
# Youngs Moduli (GPa) = 52.55375 128.73819 83.75221
#
# Poissons Ratio (x) = 0.34175 0.14419
# Poissons Ratio (y) = 0.13951 0.14988
# Poissons Ratio (z) = 0.09048 0.23039
#
# Static dielectric constant tensor:
#      x y z
#    x 4.416520 0.000000 0.000000 
#    y 0.000000 4.339950 0.000000 
#    z 0.000000 0.000000 4.397520 
# 
# 
# High freq. dielectric constant tensor:
#      x y z
#    x 1.933520 0.000000 0.000000 
#    y 0.000000 1.946540 0.000000 
#    z 0.000000 0.000000 1.929640 
# 
# From -- ./inp_files/5747.got.cif
#   From: 2010.06.25/outbox.cif.g09.slc.cpg/sg43_3_cif.got.tgz:5747.got - 2010.06.26 16:48:59.
