data_PCOD8187807
_publ_section_title
;
Structure prediction by ZEFSAII (Michael W. Deem and Ramdas Pophale) SiO2 
 PCOD8187807
Probable space group: F D D 2
;
_chemical_formula_sum "Si O2"
_cell_formula_units_Z 56
_cell_length_a 13.856003
_cell_length_b 26.728592
_cell_length_c 6.581925
_cell_angle_alpha 90.000000
_cell_angle_beta 90.000000
_cell_angle_gamma 90.000000
_cell_volume 2437.625474
_symmetry_space_group_name_H-M "F D D 2"
_symmetry_group_IT_number 43
_symmetry_cell_setting 'orthorhombic'
loop_
_space_group_symop_operation_xyz
x,y,z
-x,-y,z
1/4-x,1/4+y,1/4+z
1/4+x,1/4-y,1/4+z
x,1/2+y,1/2+z
-x,1/2-y,1/2+z
1/4-x,3/4+y,3/4+z
1/4+x,3/4-y,3/4+z
1/2+x,y,1/2+z
1/2-x,-y,1/2+z
3/4-x,1/4+y,3/4+z
3/4+x,1/4-y,3/4+z
1/2+x,1/2+y,z
1/2-x,1/2-y,z
3/4-x,3/4+y,1/4+z
3/4+x,3/4-y,1/4+z
loop_
_atom_site_type_symbol
_atom_site_label
_atom_site_fract_x
_atom_site_fract_y
_atom_site_fract_z
Si Si1 0.904183 0.273874 0.665050
Si Si2 0.043196 0.818042 0.453689
Si Si3 0.512154 0.427166 0.586777
Si Si4 0.500000 0.500000 0.228667
O O1 0.979216 0.232120 0.582285
O O2 0.837257 0.298748 0.493332
O O3 0.842243 0.244496 0.834067
O O4 0.971177 0.317803 0.760439
O O5 0.154597 0.811211 0.402374
O O6 0.027290 0.867885 0.582391
O O7 0.523048 0.450939 0.363512
#
# Coordination Sequence:
#
# PCOD8187807 Si02
#       4
#    16  16  16   8
#     4  12  27  50  77 112 155 200 256 324 380 463
#     4  12  27  47  77 110 151 202 253 317 389 452
#     4  12  27  49  73 113 150 202 262 311 387 463
#     4  12  22  52  74 104 156 196 252 324 370 460
#
# _framework density 22.973175000000001
#
# number of rings (size 3 to 8) (size 9 to 14) (size 15 to 20)
#    0.000    0.000    5.714    3.429    8.000    2.286 
#    0.000    0.000    0.000    0.000    0.000    0.000 
#    0.000    0.000    0.000    0.000    0.000    0.000 
#
# Total GULP energy -173600.216477 kJ/mol
# GULP energy per Si atom -12400.015463 kJ/mol
# Density = 2.292089 g / cm^3
# Si number density = 22.973175 Si / 1000 Ang^3
#
#
#
# Elastic Constant Matrix: (Units=GPa)
#
#
# Indices 1 2 3 4 5 6 
#
# 1 93.7514 48.1428 46.0988 0.0001 -0.0003 0.0001
# 2 48.1428 153.2636 62.4439 0.0000 0.0000 0.0000
# 3 46.0988 62.4439 121.9562 0.0001 -0.0007 0.0001
# 4 0.0001 0.0000 0.0001 35.4615 0.0000 0.0000
# 5 -0.0003 0.0000 -0.0007 0.0000 37.8028 0.0000
# 6 0.0001 0.0000 0.0001 0.0000 0.0000 20.3487
#
#
#
# Elastic Compliance Matrix: (Units=1/GPa)
#
#
# Indices 1 2 3 4 5 6 
#
# 1 0.014013 -0.002835 -0.003845 0.000000 0.000000 0.000000
# 2 -0.002835 0.008818 -0.003443 0.000000 0.000000 0.000000
# 3 -0.003845 -0.003443 0.011416 0.000000 0.000000 0.000000
# 4 0.000000 0.000000 0.000000 0.028200 0.000000 0.000000
# 5 0.000000 0.000000 0.000000 0.000000 0.026453 0.000000
# 6 0.000000 0.000000 0.000000 0.000000 0.000000 0.049143
#
#
# Mechanical properties :
#
#
# Convention : Reuss Voigt Hill
#
# Bulk Modulus (GPa) = 71.42855 75.81578 73.62216
# Shear Modulus (GPa) = 30.68279 32.87497 31.77888
#
# Velocity S-wave (km/s) = 3.65854 3.78698 3.72331
# Velocity P-wave (km/s) = 7.00044 7.22462 7.11342
#
# Compressibility (1/GPa) = 0.01400000
#
# Stress axis : x y z
#
# Youngs Moduli (GPa) = 71.36152 113.40155 87.59429
#
# Poissons Ratio (x) = 0.32151 0.33682
# Poissons Ratio (y) = 0.20232 0.30163
# Poissons Ratio (z) = 0.27440 0.39049
#
# Static dielectric constant tensor:
#      x y z
#    x 4.254030 0.000000 0.000000 
#    y 0.000000 4.618090 0.000000 
#    z 0.000000 0.000000 4.453530 
# 
# 
# High freq. dielectric constant tensor:
#      x y z
#    x 1.927790 0.000000 0.000000 
#    y 0.000000 1.907670 0.000000 
#    z 0.000000 0.000000 1.913400 
# 
# From -- ./inp_files/317.got.cif
#   From: 2010.06.25/outbox.cif.g09.slc.cpg/sg43_1_cif.got.tgz:317.got - 2010.06.26 16:48:59.
