data_PCOD8187139
_publ_section_title
;
Structure prediction by ZEFSAII (Michael W. Deem and Ramdas Pophale) SiO2 
 PCOD8187139
Probable space group: F D D 2
;
_chemical_formula_sum "Si O2"
_cell_formula_units_Z 88
_cell_length_a 21.357690
_cell_length_b 7.069857
_cell_length_c 24.381809
_cell_angle_alpha 90.000000
_cell_angle_beta 90.000000
_cell_angle_gamma 90.000000
_cell_volume 3681.551100
_symmetry_space_group_name_H-M "F D D 2"
_symmetry_group_IT_number 43
_symmetry_cell_setting 'orthorhombic'
loop_
_space_group_symop_operation_xyz
x,y,z
-x,-y,z
1/4-x,1/4+y,1/4+z
1/4+x,1/4-y,1/4+z
x,1/2+y,1/2+z
-x,1/2-y,1/2+z
1/4-x,3/4+y,3/4+z
1/4+x,3/4-y,3/4+z
1/2+x,y,1/2+z
1/2-x,-y,1/2+z
3/4-x,1/4+y,3/4+z
3/4+x,1/4-y,3/4+z
1/2+x,1/2+y,z
1/2-x,1/2-y,z
3/4-x,3/4+y,1/4+z
3/4+x,3/4-y,1/4+z
loop_
_atom_site_type_symbol
_atom_site_label
_atom_site_fract_x
_atom_site_fract_y
_atom_site_fract_z
Si Si1 0.374130 0.095886 0.046800
Si Si2 0.933649 0.594154 0.379846
Si Si3 0.930308 0.969861 0.325300
Si Si4 0.832616 0.102107 0.962375
Si Si5 0.500000 0.500000 0.593714
Si Si6 0.952476 0.263730 0.190700
O O1 0.344015 0.285313 0.071081
O O2 0.348390 0.925824 0.086467
O O3 0.450002 0.104404 0.053305
O O4 0.350414 0.089511 0.983601
O O5 0.933937 0.826340 0.377239
O O6 0.889600 0.514627 0.428022
O O7 0.000000 0.500000 0.391126
O O8 0.891692 0.887483 0.273527
O O9 0.000000 0.000000 0.301408
O O10 0.812583 0.294254 0.930917
O O11 0.773445 0.958584 0.964145
O O12 0.455952 0.363128 0.631113
#
# Coordination Sequence:
#
# PCOD8187139 Si02
#       6
#    16  16  16  16   8  16
#     4  11  24  41  66 102 134 176 230 281 337 407
#     4  12  23  38  68 101 130 170 229 275 332 405
#     4  11  21  42  66  90 132 175 215 272 337 399
#     4  10  20  41  64  94 130 176 219 268 342 403
#     4  12  24  42  68 102 134 176 236 278 336 410
#     4  10  21  40  68  91 133 177 219 279 340 399
#
# _framework density 23.90297
#
# number of rings (size 3 to 8) (size 9 to 14) (size 15 to 20)
#    0.000    1.091    7.273    1.091    3.818    0.000 
#    0.000    7.273    2.000    0.000    0.000    0.000 
#    0.000    0.000    0.000    0.000    0.000    0.000 
#
# Total GULP energy -272557.745122 kJ/mol
# GULP energy per Si atom -12388.988415 kJ/mol
# Density = 2.384857 g / cm^3
# Si number density = 23.902970 Si / 1000 Ang^3
#
#
#
# Elastic Constant Matrix: (Units=GPa)
#
#
# Indices 1 2 3 4 5 6 
#
# 1 145.5078 9.2082 60.1484 0.0002 0.0000 -0.0004
# 2 9.2082 49.3150 7.1431 0.0005 0.0001 -0.0009
# 3 60.1484 7.1431 84.8962 0.0000 0.0000 0.0000
# 4 0.0002 0.0005 0.0000 16.3397 0.0000 -0.0002
# 5 0.0000 0.0001 0.0000 0.0000 49.9038 0.0000
# 6 -0.0004 -0.0009 0.0000 -0.0002 0.0000 8.0058
#
#
#
# Elastic Compliance Matrix: (Units=1/GPa)
#
#
# Indices 1 2 3 4 5 6 
#
# 1 0.009752 -0.000830 -0.006840 0.000000 0.000000 0.000000
# 2 -0.000830 0.020599 -0.001145 -0.000001 0.000000 0.000002
# 3 -0.006840 -0.001145 0.016721 0.000000 0.000000 -0.000001
# 4 0.000000 -0.000001 0.000000 0.061201 0.000000 0.000002
# 5 0.000000 0.000000 0.000000 0.000000 0.020039 0.000000
# 6 0.000000 0.000002 -0.000001 0.000002 0.000000 0.124909
#
#
# Mechanical properties :
#
#
# Convention : Reuss Voigt Hill
#
# Bulk Modulus (GPa) = 33.96434 48.07982 41.02208
# Shear Modulus (GPa) = 17.81489 28.39782 23.10635
#
# Velocity S-wave (km/s) = 2.73298 3.45054 3.11251
# Velocity P-wave (km/s) = 4.91925 6.00277 5.48782
#
# Compressibility (1/GPa) = 0.02944264
#
# Stress axis : x y z
#
# Youngs Moduli (GPa) = 102.54003 48.54685 59.80432
#
# Poissons Ratio (x) = 0.04031 0.40904
# Poissons Ratio (y) = 0.08514 0.06847
# Poissons Ratio (z) = 0.70133 0.05558
#
# Static dielectric constant tensor:
#      x y z
#    x 4.349280 0.000000 0.000000 
#    y 0.000000 4.400920 0.000000 
#    z 0.000000 0.000000 3.769330 
# 
# 
# High freq. dielectric constant tensor:
#      x y z
#    x 1.945940 0.000000 0.000000 
#    y 0.000000 1.947830 0.000000 
#    z 0.000000 0.000000 1.919110 
# 
# From -- ./inp_files/22341.got.cif
#   From: 2010.06.25/outbox.cif.g09.slc.cpg/sg43_12_cif.got.tgz:22341.got - 2010.06.26 16:48:59.
