data_PCOD8187289
_publ_section_title
;
Structure prediction by ZEFSAII (Michael W. Deem and Ramdas Pophale) SiO2 
 PCOD8187289
Probable space group: F D D 2
;
_chemical_formula_sum "Si O2"
_cell_formula_units_Z 120
_cell_length_a 29.009046
_cell_length_b 22.093229
_cell_length_c 8.681304
_cell_angle_alpha 90.000000
_cell_angle_beta 90.000000
_cell_angle_gamma 90.000000
_cell_volume 5563.878086
_symmetry_space_group_name_H-M "F D D 2"
_symmetry_group_IT_number 43
_symmetry_cell_setting 'orthorhombic'
loop_
_space_group_symop_operation_xyz
x,y,z
-x,-y,z
1/4-x,1/4+y,1/4+z
1/4+x,1/4-y,1/4+z
x,1/2+y,1/2+z
-x,1/2-y,1/2+z
1/4-x,3/4+y,3/4+z
1/4+x,3/4-y,3/4+z
1/2+x,y,1/2+z
1/2-x,-y,1/2+z
3/4-x,1/4+y,3/4+z
3/4+x,1/4-y,3/4+z
1/2+x,1/2+y,z
1/2-x,1/2-y,z
3/4-x,3/4+y,1/4+z
3/4+x,3/4-y,1/4+z
loop_
_atom_site_type_symbol
_atom_site_label
_atom_site_fract_x
_atom_site_fract_y
_atom_site_fract_z
Si Si1 0.500000 0.000000 0.875000
Si Si2 0.404373 0.021608 0.382103
Si Si3 0.553447 0.278031 0.556331
Si Si4 0.144567 0.115571 0.329197
Si Si5 0.863314 0.066230 0.346971
Si Si6 0.787455 0.483587 0.945200
Si Si7 0.920413 0.963954 0.171595
Si Si8 0.562115 0.917594 0.084966
O O1 0.531728 0.038837 0.760985
O O2 0.475557 0.051084 0.976742
O O3 0.412298 0.071866 0.513248
O O4 0.434976 0.040880 0.237338
O O5 0.352383 0.003825 0.337244
O O6 0.426095 0.967079 0.484816
O O7 0.516043 0.238266 0.649444
O O8 0.541886 0.277018 0.376482
O O9 0.550714 0.347281 0.619001
O O10 0.116103 0.123734 0.490449
O O11 0.188259 0.072177 0.357333
O O12 0.108285 0.096708 0.198820
O O13 0.888001 0.081166 0.507033
O O14 0.811592 0.046196 0.389980
O O15 0.888709 0.013732 0.254865
#
# Coordination Sequence:
#
# PCOD8187289 Si02
#       8
#     8  16  16  16  16  16  16  16
#     4  10  24  42  66 100 128 178 238 278 346 424
#     4  11  24  44  66 100 139 182 228 288 357 420
#     4  12  27  43  68 106 142 176 240 290 350 420
#     4  10  21  43  70  91 136 184 227 274 361 419
#     4   9  19  41  65  91 128 182 224 272 343 417
#     4  11  25  42  67 103 139 177 233 294 343 420
#     4   9  21  39  65  93 128 173 224 277 339 418
#     4  11  23  44  68  98 140 184 227 294 351 429
#
# _framework density 21.567689000000001
#
# number of rings (size 3 to 8) (size 9 to 14) (size 15 to 20)
#    0.000    1.600    2.667    0.800    9.333    0.533 
#    0.000    0.000    0.000    0.000    0.000    0.000 
#    0.000    0.000    0.000    0.000    0.000    0.000 
#
# Total GULP energy -371748.890016 kJ/mol
# GULP energy per Si atom -12391.629667 kJ/mol
# Density = 2.151860 g / cm^3
# Si number density = 21.567689 Si / 1000 Ang^3
#
#
#
# Elastic Constant Matrix: (Units=GPa)
#
#
# Indices 1 2 3 4 5 6 
#
# 1 100.1929 24.7198 40.8546 0.0001 -0.0001 0.0000
# 2 24.7198 58.5720 16.1940 0.0020 -0.0008 0.0004
# 3 40.8546 16.1940 139.0202 0.0071 -0.0022 0.0003
# 4 0.0001 0.0020 0.0071 38.7442 -0.0012 0.0000
# 5 -0.0001 -0.0008 -0.0022 -0.0012 32.6240 0.0000
# 6 0.0000 0.0004 0.0003 0.0000 0.0000 23.9243
#
#
#
# Elastic Compliance Matrix: (Units=1/GPa)
#
#
# Indices 1 2 3 4 5 6 
#
# 1 0.012322 -0.004339 -0.003116 0.000001 0.000000 0.000000
# 2 -0.004339 0.019169 -0.000958 -0.000001 0.000000 0.000000
# 3 -0.003116 -0.000958 0.008220 -0.000001 0.000001 0.000000
# 4 0.000001 -0.000001 -0.000001 0.025810 0.000001 0.000000
# 5 0.000000 0.000000 0.000001 0.000001 0.030652 0.000000
# 6 0.000000 0.000000 0.000000 0.000000 0.000000 0.041799
#
#
# Mechanical properties :
#
#
# Convention : Reuss Voigt Hill
#
# Bulk Modulus (GPa) = 43.69407 51.25802 47.47605
# Shear Modulus (GPa) = 30.78332 33.45960 32.12146
#
# Velocity S-wave (km/s) = 3.78205 3.94302 3.86337
# Velocity P-wave (km/s) = 6.27494 6.67440 6.47775
#
# Compressibility (1/GPa) = 0.02288640
#
# Stress axis : x y z
#
# Youngs Moduli (GPa) = 81.15793 52.16758 121.64886
#
# Poissons Ratio (x) = 0.22635 0.37901
# Poissons Ratio (y) = 0.35213 0.11652
# Poissons Ratio (z) = 0.25286 0.04997
#
# Static dielectric constant tensor:
#      x y z
#    x 3.789710 0.000000 0.000000 
#    y 0.000000 4.205090 -0.000020 
#    z 0.000000 -0.000020 4.200820 
# 
# 
# High freq. dielectric constant tensor:
#      x y z
#    x 1.830630 0.000000 0.000000 
#    y 0.000000 1.843680 0.000000 
#    z 0.000000 0.000000 1.862150 
# 
# From -- ./inp_files/3886.got.cif
#   From: 2010.06.25/outbox.cif.g09.slc.cpg/sg43_2_cif.got.tgz:3886.got - 2010.06.26 16:48:59.
