data_PCOD8187326
_publ_section_title
;
Structure prediction by ZEFSAII (Michael W. Deem and Ramdas Pophale) SiO2 
 PCOD8187326
Probable space group: F D D 2
;
_chemical_formula_sum "Si O2"
_cell_formula_units_Z 112
_cell_length_a 10.732010
_cell_length_b 20.822247
_cell_length_c 22.758202
_cell_angle_alpha 90.000000
_cell_angle_beta 90.000000
_cell_angle_gamma 90.000000
_cell_volume 5085.651665
_symmetry_space_group_name_H-M "F D D 2"
_symmetry_group_IT_number 43
_symmetry_cell_setting 'orthorhombic'
loop_
_space_group_symop_operation_xyz
x,y,z
-x,-y,z
1/4-x,1/4+y,1/4+z
1/4+x,1/4-y,1/4+z
x,1/2+y,1/2+z
-x,1/2-y,1/2+z
1/4-x,3/4+y,3/4+z
1/4+x,3/4-y,3/4+z
1/2+x,y,1/2+z
1/2-x,-y,1/2+z
3/4-x,1/4+y,3/4+z
3/4+x,1/4-y,3/4+z
1/2+x,1/2+y,z
1/2-x,1/2-y,z
3/4-x,3/4+y,1/4+z
3/4+x,3/4-y,1/4+z
loop_
_atom_site_type_symbol
_atom_site_label
_atom_site_fract_x
_atom_site_fract_y
_atom_site_fract_z
Si Si1 0.369887 0.712619 0.989300
Si Si2 0.433676 0.375471 0.636534
Si Si3 0.873976 0.463279 0.239078
Si Si4 0.745097 0.093575 0.038842
Si Si5 0.631092 0.517094 0.102974
Si Si6 0.345168 0.598295 0.566929
Si Si7 0.867612 0.011288 0.461162
O O1 0.250000 0.750000 0.015461
O O2 0.358149 0.713955 0.919618
O O3 0.504768 0.742359 0.004384
O O4 0.354904 0.641150 0.016714
O O5 0.351707 0.418096 0.681906
O O6 0.367693 0.368940 0.572078
O O7 0.570415 0.407300 0.625877
O O8 0.459827 0.305064 0.665265
O O9 0.899510 0.421599 0.296791
O O10 0.000000 0.500000 0.225171
O O11 0.787869 0.046103 0.090838
O O12 0.702528 0.054400 0.980127
O O13 0.500000 0.500000 0.071737
O O14 0.700951 0.578766 0.075958
O O15 0.403805 0.550498 0.519507
O O16 0.000000 0.000000 0.429093
#
# Coordination Sequence:
#
# PCOD8187326 Si02
#       7
#    16  16  16  16  16  16  16
#     4  11  24  42  66 100 135 175 231 281 343 418
#     4  11  22  40  71  99 131 179 230 280 347 403
#     4  11  24  41  68 100 132 178 233 279 344 420
#     4  11  23  42  68  96 137 182 221 287 341 409
#     4  10  23  42  65  91 132 181 218 274 349 401
#     4  10  22  42  65  97 133 171 226 287 333 412
#     4  10  22  38  67 102 132 173 236 273 336 421
#
# _framework density 22.022742000000001
#
# number of rings (size 3 to 8) (size 9 to 14) (size 15 to 20)
#    0.000    1.429    2.857    1.714    6.000    1.714 
#    5.143    0.000    0.000    0.000    0.000    0.000 
#    0.000    0.000    0.000    0.000    0.000    0.000 
#
# Total GULP energy -346911.625977 kJ/mol
# GULP energy per Si atom -12389.700928 kJ/mol
# Density = 2.197262 g / cm^3
# Si number density = 22.022742 Si / 1000 Ang^3
#
#
#
# Elastic Constant Matrix: (Units=GPa)
#
#
# Indices 1 2 3 4 5 6 
#
# 1 149.7617 57.6312 37.3907 0.0000 0.0000 0.0000
# 2 57.6312 116.0048 51.7197 0.0000 0.0000 0.0000
# 3 37.3907 51.7197 76.5300 0.0000 0.0000 0.0000
# 4 0.0000 0.0000 0.0000 25.4520 0.0000 0.0000
# 5 0.0000 0.0000 0.0000 0.0000 25.8022 0.0000
# 6 0.0000 0.0000 0.0000 0.0000 0.0000 43.1929
#
#
#
# Elastic Compliance Matrix: (Units=1/GPa)
#
#
# Indices 1 2 3 4 5 6 
#
# 1 0.008434 -0.003367 -0.001845 0.000000 0.000000 0.000000
# 2 -0.003367 0.013682 -0.007601 0.000000 0.000000 0.000000
# 3 -0.001845 -0.007601 0.019105 0.000000 0.000000 0.000000
# 4 0.000000 0.000000 0.000000 0.039290 0.000000 0.000000
# 5 0.000000 0.000000 0.000000 0.000000 0.038756 0.000000
# 6 0.000000 0.000000 0.000000 0.000000 0.000000 0.023152
#
#
# Mechanical properties :
#
#
# Convention : Reuss Voigt Hill
#
# Bulk Modulus (GPa) = 64.12713 70.64221 67.38467
# Shear Modulus (GPa) = 28.86099 31.92641 30.39370
#
# Velocity S-wave (km/s) = 3.62402 3.81163 3.71901
# Velocity P-wave (km/s) = 6.83324 7.17760 7.00753
#
# Compressibility (1/GPa) = 0.01559402
#
# Stress axis : x y z
#
# Youngs Moduli (GPa) = 118.57199 73.08735 52.34184
#
# Poissons Ratio (x) = 0.24611 0.09656
# Poissons Ratio (y) = 0.39928 0.39787
# Poissons Ratio (z) = 0.21874 0.55557
#
# Static dielectric constant tensor:
#      x y z
#    x 4.102750 0.000000 0.000000 
#    y 0.000000 4.036450 0.000000 
#    z 0.000000 0.000000 3.769900 
# 
# 
# High freq. dielectric constant tensor:
#      x y z
#    x 1.861350 0.000000 0.000000 
#    y 0.000000 1.862820 0.000000 
#    z 0.000000 0.000000 1.852590 
# 
# From -- ./inp_files/21165.got.cif
#   From: 2010.06.25/outbox.cif.g09.slc.cpg/sg43_11_cif.got.tgz:21165.got - 2010.06.26 16:48:59.
