data_PCOD8187730
_publ_section_title
;
Structure prediction by ZEFSAII (Michael W. Deem and Ramdas Pophale) SiO2 
 PCOD8187730
Probable space group: F D D 2
;
_chemical_formula_sum "Si O2"
_cell_formula_units_Z 96
_cell_length_a 13.273168
_cell_length_b 20.784685
_cell_length_c 15.010173
_cell_angle_alpha 90.000000
_cell_angle_beta 90.000000
_cell_angle_gamma 90.000000
_cell_volume 4140.985751
_symmetry_space_group_name_H-M "F D D 2"
_symmetry_group_IT_number 43
_symmetry_cell_setting 'orthorhombic'
loop_
_space_group_symop_operation_xyz
x,y,z
-x,-y,z
1/4-x,1/4+y,1/4+z
1/4+x,1/4-y,1/4+z
x,1/2+y,1/2+z
-x,1/2-y,1/2+z
1/4-x,3/4+y,3/4+z
1/4+x,3/4-y,3/4+z
1/2+x,y,1/2+z
1/2-x,-y,1/2+z
3/4-x,1/4+y,3/4+z
3/4+x,1/4-y,3/4+z
1/2+x,1/2+y,z
1/2-x,1/2-y,z
3/4-x,3/4+y,1/4+z
3/4+x,3/4-y,1/4+z
loop_
_atom_site_type_symbol
_atom_site_label
_atom_site_fract_x
_atom_site_fract_y
_atom_site_fract_z
Si Si1 0.243849 0.322378 0.890640
Si Si2 0.215402 0.003276 0.411220
Si Si3 0.300272 0.098397 0.055032
Si Si4 0.120889 0.151469 0.526808
Si Si5 0.572695 0.438434 0.925820
Si Si6 0.344025 0.628681 0.092205
O O1 0.250000 0.250000 0.920676
O O2 0.355399 0.350121 0.871843
O O3 0.175913 0.331328 0.801934
O O4 0.183334 0.357090 0.969457
O O5 0.217485 0.973582 0.512781
O O6 0.189662 0.949598 0.339565
O O7 0.322943 0.033843 0.389923
O O8 0.135506 0.059510 0.395517
O O9 0.208580 0.130574 0.109323
O O10 0.240637 0.148732 0.543729
O O11 0.089454 0.171015 0.425818
O O12 0.500000 0.500000 0.931683
O O13 0.581886 0.403890 0.021576
#
# Coordination Sequence:
#
# PCOD8187730 Si02
#       6
#    16  16  16  16  16  16
#     4  11  24  44  75 105 143 196 251 307 376 446
#     4  11  26  47  74 106 146 202 256 314 379 465
#     4  11  26  47  73 108 150 197 252 316 377 463
#     4  11  24  45  73 106 150 196 258 312 378 452
#     4  12  28  48  75 113 159 195 255 314 399 463
#     4  12  26  47  72 114 151 203 250 320 386 459
#
# _framework density 23.182884999999999
#
# number of rings (size 3 to 8) (size 9 to 14) (size 15 to 20)
#    0.000    0.667    1.667    6.000    4.667    4.000 
#    0.000    0.000    0.000    0.000    0.000    0.000 
#    0.000    0.000    0.000    0.000    0.000    0.000 
#
# Total GULP energy -297365.525839 kJ/mol
# GULP energy per Si atom -12390.230243 kJ/mol
# Density = 2.313012 g / cm^3
# Si number density = 23.182885 Si / 1000 Ang^3
#
#
#
# Elastic Constant Matrix: (Units=GPa)
#
#
# Indices 1 2 3 4 5 6 
#
# 1 96.6832 35.9820 26.0044 0.0000 0.0000 0.0000
# 2 35.9820 97.7982 34.0547 0.0000 0.0000 0.0000
# 3 26.0044 34.0547 141.8154 0.0000 0.0000 0.0000
# 4 0.0000 0.0000 0.0000 12.9735 0.0000 0.0000
# 5 0.0000 0.0000 0.0000 0.0000 34.9825 0.0000
# 6 0.0000 0.0000 0.0000 0.0000 0.0000 40.5107
#
#
#
# Elastic Compliance Matrix: (Units=1/GPa)
#
#
# Indices 1 2 3 4 5 6 
#
# 1 0.012188 -0.004044 -0.001264 0.000000 0.000000 0.000000
# 2 -0.004044 0.012500 -0.002260 0.000000 0.000000 0.000000
# 3 -0.001264 -0.002260 0.007826 0.000000 0.000000 0.000000
# 4 0.000000 0.000000 0.000000 0.077080 0.000000 0.000000
# 5 0.000000 0.000000 0.000000 0.000000 0.028586 0.000000
# 6 0.000000 0.000000 0.000000 0.000000 0.000000 0.024685
#
#
# Mechanical properties :
#
#
# Convention : Reuss Voigt Hill
#
# Bulk Modulus (GPa) = 57.54433 58.70879 58.12656
# Shear Modulus (GPa) = 27.20439 33.71037 30.45738
#
# Velocity S-wave (km/s) = 3.42931 3.81741 3.62855
# Velocity P-wave (km/s) = 6.36836 6.69398 6.53320
#
# Compressibility (1/GPa) = 0.01737791
#
# Stress axis : x y z
#
# Youngs Moduli (GPa) = 82.04743 79.99944 127.78103
#
# Poissons Ratio (x) = 0.32353 0.16148
# Poissons Ratio (y) = 0.33182 0.28880
# Poissons Ratio (z) = 0.10369 0.18081
#
# Static dielectric constant tensor:
#      x y z
#    x 4.158570 0.000000 0.000000 
#    y 0.000000 4.543150 0.000000 
#    z 0.000000 0.000000 4.413620 
# 
# 
# High freq. dielectric constant tensor:
#      x y z
#    x 1.917680 0.000000 0.000000 
#    y 0.000000 1.923470 0.000000 
#    z 0.000000 0.000000 1.930930 
# 
# From -- ./inp_files/10077.got.cif
#   From: 2010.06.25/outbox.cif.g09.slc.cpg/sg43_6_cif.got.tgz:10077.got - 2010.06.26 16:48:59.
