data_PCOD8187592
_publ_section_title
;
Structure prediction by ZEFSAII (Michael W. Deem and Ramdas Pophale) SiO2 
 PCOD8187592
Probable space group: F D D 2
;
_chemical_formula_sum "Si O2"
_cell_formula_units_Z 88
_cell_length_a 11.183326
_cell_length_b 22.454872
_cell_length_c 15.299496
_cell_angle_alpha 90.000000
_cell_angle_beta 90.000000
_cell_angle_gamma 90.000000
_cell_volume 3842.011790
_symmetry_space_group_name_H-M "F D D 2"
_symmetry_group_IT_number 43
_symmetry_cell_setting 'orthorhombic'
loop_
_space_group_symop_operation_xyz
x,y,z
-x,-y,z
1/4-x,1/4+y,1/4+z
1/4+x,1/4-y,1/4+z
x,1/2+y,1/2+z
-x,1/2-y,1/2+z
1/4-x,3/4+y,3/4+z
1/4+x,3/4-y,3/4+z
1/2+x,y,1/2+z
1/2-x,-y,1/2+z
3/4-x,1/4+y,3/4+z
3/4+x,1/4-y,3/4+z
1/2+x,1/2+y,z
1/2-x,1/2-y,z
3/4-x,3/4+y,1/4+z
3/4+x,3/4-y,1/4+z
loop_
_atom_site_type_symbol
_atom_site_label
_atom_site_fract_x
_atom_site_fract_y
_atom_site_fract_z
Si Si1 0.064246 0.312785 0.317270
Si Si2 0.407772 0.625304 0.479514
Si Si3 0.563356 0.671021 0.136231
Si Si4 0.653558 0.133536 0.031464
Si Si5 0.250000 0.750000 0.705567
Si Si6 0.483959 0.757009 0.990642
O O1 0.169124 0.359686 0.335181
O O2 0.129616 0.263724 0.259264
O O3 0.960333 0.342110 0.259540
O O4 0.012011 0.284298 0.405287
O O5 0.522799 0.601351 0.533803
O O6 0.446666 0.611500 0.380249
O O7 0.401078 0.697861 0.491328
O O8 0.496337 0.656113 0.226707
O O9 0.699970 0.694890 0.149007
O O10 0.485699 0.715847 0.076906
O O11 0.635592 0.201003 0.992270
#
# Coordination Sequence:
#
# PCOD8187592 Si02
#       6
#    16  16  16  16   8  16
#     4  12  25  44  74 102 144 188 237 300 361 445
#     4  10  25  48  71 104 148 186 248 308 364 439
#     4  12  25  44  74 102 144 188 237 300 361 445
#     4  10  25  48  71 104 148 186 248 308 364 439
#     4  12  26  44  70 104 136 186 238 282 368 430
#     4  10  25  46  70 108 140 188 247 296 374 436
#
# _framework density 22.904665000000001
#
# number of rings (size 3 to 8) (size 9 to 14) (size 15 to 20)
#    1.091    0.000    0.000    5.455   10.182    0.000 
#    0.000    6.364    0.000    0.000    0.000    0.000 
#    0.000    0.000    0.000    0.000    0.000    0.000 
#
# Total GULP energy -272635.963344 kJ/mol
# GULP energy per Si atom -12392.543788 kJ/mol
# Density = 2.285253 g / cm^3
# Si number density = 22.904665 Si / 1000 Ang^3
#
#
#
# Elastic Constant Matrix: (Units=GPa)
#
#
# Indices 1 2 3 4 5 6 
#
# 1 71.5842 30.0380 2.3910 0.0000 0.0000 0.0000
# 2 30.0380 110.5169 37.1961 0.0000 0.0000 0.0000
# 3 2.3910 37.1961 96.0523 0.0000 0.0000 0.0000
# 4 0.0000 0.0000 0.0000 41.5513 0.0000 0.0000
# 5 0.0000 0.0000 0.0000 0.0000 38.0869 0.0000
# 6 0.0000 0.0000 0.0000 0.0000 0.0000 36.3207
#
#
#
# Elastic Compliance Matrix: (Units=1/GPa)
#
#
# Indices 1 2 3 4 5 6 
#
# 1 0.015947 -0.004830 0.001474 0.000000 0.000000 0.000000
# 2 -0.004830 0.011868 -0.004475 0.000000 0.000000 0.000000
# 3 0.001474 -0.004475 0.012107 0.000000 0.000000 0.000000
# 4 0.000000 0.000000 0.000000 0.024067 0.000000 0.000000
# 5 0.000000 0.000000 0.000000 0.000000 0.026256 0.000000
# 6 0.000000 0.000000 0.000000 0.000000 0.000000 0.027532
#
#
# Mechanical properties :
#
#
# Convention : Reuss Voigt Hill
#
# Bulk Modulus (GPa) = 41.22388 46.37817 43.80102
# Shear Modulus (GPa) = 35.32885 37.09368 36.21126
#
# Velocity S-wave (km/s) = 3.93164 4.02864 3.98044
# Velocity P-wave (km/s) = 6.21671 6.47551 6.34743
#
# Compressibility (1/GPa) = 0.02425779
#
# Stress axis : x y z
#
# Youngs Moduli (GPa) = 62.70672 84.26347 82.59390
#
# Poissons Ratio (x) = 0.40702 -0.12171
# Poissons Ratio (y) = 0.30290 0.36965
# Poissons Ratio (z) = -0.09240 0.37712
#
# Static dielectric constant tensor:
#      x y z
#    x 3.841590 0.000000 0.000000 
#    y 0.000000 4.173430 0.000000 
#    z 0.000000 0.000000 3.994240 
# 
# 
# High freq. dielectric constant tensor:
#      x y z
#    x 1.891110 0.000000 0.000000 
#    y 0.000000 1.910540 0.000000 
#    z 0.000000 0.000000 1.911230 
# 
# From -- ./inp_files/9595.got.cif
#   From: 2010.06.25/outbox.cif.g09.slc.cpg/sg43_5_cif.got.tgz:9595.got - 2010.06.26 16:48:59.
