data_PCOD8187037
_publ_section_title
;
Structure prediction by ZEFSAII (Michael W. Deem and Ramdas Pophale) SiO2 
 PCOD8187037
Probable space group: F D D 2
;
_chemical_formula_sum "Si O2"
_cell_formula_units_Z 112
_cell_length_a 24.915956
_cell_length_b 22.573702
_cell_length_c 10.135123
_cell_angle_alpha 90.000000
_cell_angle_beta 90.000000
_cell_angle_gamma 90.000000
_cell_volume 5700.452963
_symmetry_space_group_name_H-M "F D D 2"
_symmetry_group_IT_number 43
_symmetry_cell_setting 'orthorhombic'
loop_
_space_group_symop_operation_xyz
x,y,z
-x,-y,z
1/4-x,1/4+y,1/4+z
1/4+x,1/4-y,1/4+z
x,1/2+y,1/2+z
-x,1/2-y,1/2+z
1/4-x,3/4+y,3/4+z
1/4+x,3/4-y,3/4+z
1/2+x,y,1/2+z
1/2-x,-y,1/2+z
3/4-x,1/4+y,3/4+z
3/4+x,1/4-y,3/4+z
1/2+x,1/2+y,z
1/2-x,1/2-y,z
3/4-x,3/4+y,1/4+z
3/4+x,3/4-y,1/4+z
loop_
_atom_site_type_symbol
_atom_site_label
_atom_site_fract_x
_atom_site_fract_y
_atom_site_fract_z
Si Si1 0.655622 0.027876 0.424820
Si Si2 0.170716 0.409410 0.589097
Si Si3 0.180317 0.604640 0.929323
Si Si4 0.719876 0.081070 0.647874
Si Si5 0.213203 0.800573 0.665912
Si Si6 0.721280 0.035665 0.162301
Si Si7 0.025664 0.057618 0.213382
O O1 0.673692 0.074853 0.536780
O O2 0.597744 0.046145 0.364010
O O3 0.696339 0.036100 0.305780
O O4 0.657659 0.959561 0.478107
O O5 0.119563 0.400614 0.684804
O O6 0.223705 0.426159 0.670637
O O7 0.175441 0.341416 0.534624
O O8 0.188403 0.574189 0.786420
O O9 0.232964 0.641351 0.952989
O O10 0.179273 0.557648 0.049721
O O11 0.755391 0.139668 0.634230
O O12 0.763535 0.030573 0.623810
O O13 0.250000 0.750000 0.600136
O O14 0.204887 0.786365 0.820583
O O15 0.000000 0.000000 0.288300
#
# Coordination Sequence:
#
# PCOD8187037 Si02
#       7
#    16  16  16  16  16  16  16
#     4  11  21  36  59  83 113 152 192 242 300 355
#     4  10  20  36  58  82 113 153 198 240 296 368
#     4  10  20  36  59  83 112 150 192 243 295 351
#     4  10  20  36  58  83 111 150 194 238 295 366
#     4  10  20  33  54  84 112 142 190 241 285 343
#     4  10  22  37  55  84 116 148 192 245 298 354
#     4   9  17  32  53  81 108 137 186 239 281 341
#
# _framework density 19.647561
#
# number of rings (size 3 to 8) (size 9 to 14) (size 15 to 20)
#    0.000    2.000    0.000    6.857    0.000    3.429 
#    0.000    2.857    0.000    4.286    0.000    0.000 
#    0.000    0.000    0.000    0.000    0.000    0.000 
#
# Total GULP energy -346940.763635 kJ/mol
# GULP energy per Si atom -12390.741558 kJ/mol
# Density = 1.960284 g / cm^3
# Si number density = 19.647561 Si / 1000 Ang^3
#
#
#
# Elastic Constant Matrix: (Units=GPa)
#
#
# Indices 1 2 3 4 5 6 
#
# 1 103.6261 22.5141 36.6107 0.0002 -0.0002 -0.0002
# 2 22.5141 91.4399 28.2086 0.0005 -0.0004 -0.0003
# 3 36.6107 28.2086 76.8896 0.0017 -0.0014 -0.0010
# 4 0.0002 0.0005 0.0017 25.3099 -0.0006 -0.0004
# 5 -0.0002 -0.0004 -0.0014 -0.0006 23.6483 0.0005
# 6 -0.0002 -0.0003 -0.0010 -0.0004 0.0005 31.1107
#
#
#
# Elastic Compliance Matrix: (Units=1/GPa)
#
#
# Indices 1 2 3 4 5 6 
#
# 1 0.011740 -0.001315 -0.005108 0.000000 0.000000 0.000000
# 2 -0.001315 0.012479 -0.003952 0.000000 0.000000 0.000000
# 3 -0.005108 -0.003952 0.016888 -0.000001 0.000001 0.000000
# 4 0.000000 0.000000 -0.000001 0.039510 0.000001 0.000001
# 5 0.000000 0.000000 0.000001 0.000001 0.042286 -0.000001
# 6 0.000000 0.000000 0.000000 0.000001 -0.000001 0.032143
#
#
# Mechanical properties :
#
#
# Convention : Reuss Voigt Hill
#
# Bulk Modulus (GPa) = 49.12203 49.62471 49.37337
# Shear Modulus (GPa) = 27.38494 28.32193 27.85343
#
# Velocity S-wave (km/s) = 3.73742 3.80083 3.76926
# Velocity P-wave (km/s) = 6.60911 6.67637 6.64283
#
# Compressibility (1/GPa) = 0.02035746
#
# Stress axis : x y z
#
# Youngs Moduli (GPa) = 85.17670 80.13393 59.21518
#
# Poissons Ratio (x) = 0.10538 0.30245
# Poissons Ratio (y) = 0.11201 0.23402
# Poissons Ratio (z) = 0.43505 0.31670
#
# Static dielectric constant tensor:
#      x y z
#    x 3.718300 0.000000 0.000000 
#    y 0.000000 3.851550 0.000000 
#    z 0.000000 0.000000 3.589540 
# 
# 
# High freq. dielectric constant tensor:
#      x y z
#    x 1.779840 0.000000 0.000000 
#    y 0.000000 1.770690 0.000000 
#    z 0.000000 0.000000 1.726920 
# 
# From -- ./inp_files/7246.got.cif
#   From: 2010.06.25/outbox.cif.g09.slc.cpg/sg43_4_cif.got.tgz:7246.got - 2010.06.26 16:48:59.
