data_PCOD8187335
_publ_section_title
;
Structure prediction by ZEFSAII (Michael W. Deem and Ramdas Pophale) SiO2 
 PCOD8187335
Probable space group: F D D 2
;
_chemical_formula_sum "Si O2"
_cell_formula_units_Z 96
_cell_length_a 23.486417
_cell_length_b 14.535309
_cell_length_c 13.735763
_cell_angle_alpha 90.000000
_cell_angle_beta 90.000000
_cell_angle_gamma 90.000000
_cell_volume 4689.146755
_symmetry_space_group_name_H-M "F D D 2"
_symmetry_group_IT_number 43
_symmetry_cell_setting 'orthorhombic'
loop_
_space_group_symop_operation_xyz
x,y,z
-x,-y,z
1/4-x,1/4+y,1/4+z
1/4+x,1/4-y,1/4+z
x,1/2+y,1/2+z
-x,1/2-y,1/2+z
1/4-x,3/4+y,3/4+z
1/4+x,3/4-y,3/4+z
1/2+x,y,1/2+z
1/2-x,-y,1/2+z
3/4-x,1/4+y,3/4+z
3/4+x,1/4-y,3/4+z
1/2+x,1/2+y,z
1/2-x,1/2-y,z
3/4-x,3/4+y,1/4+z
3/4+x,3/4-y,1/4+z
loop_
_atom_site_type_symbol
_atom_site_label
_atom_site_fract_x
_atom_site_fract_y
_atom_site_fract_z
Si Si1 0.518140 0.351906 0.658640
Si Si2 0.300625 0.811519 0.600669
Si Si3 0.157129 0.943691 0.956246
Si Si4 0.645364 0.517529 0.163642
Si Si5 0.809185 0.795912 0.727282
Si Si6 0.398920 0.372366 0.583651
O O1 0.545627 0.424355 0.734509
O O2 0.533831 0.246203 0.685590
O O3 0.542229 0.375639 0.553237
O O4 0.450065 0.364182 0.661812
O O5 0.250000 0.750000 0.642960
O O6 0.360167 0.762876 0.631002
O O7 0.300379 0.913542 0.649807
O O8 0.160123 0.833084 0.937401
O O9 0.134817 0.958957 0.066322
O O10 0.660336 0.452617 0.251619
O O11 0.750000 0.750000 0.689190
O O12 0.850820 0.721550 0.779977
O O13 0.840084 0.848647 0.638444
#
# Coordination Sequence:
#
# PCOD8187335 Si02
#       6
#    16  16  16  16  16  16
#     4  10  22  39  63  95 119 164 220 269 310 388
#     4   9  19  36  58  85 121 152 206 274 306 365
#     4   9  20  37  58  87 120 158 206 264 317 369
#     4   9  20  37  58  84 123 161 199 262 317 385
#     4  10  24  42  65  94 127 170 213 268 318 387
#     4  11  22  43  62  89 133 166 216 259 326 377
#
# _framework density 20.472808000000001
#
# number of rings (size 3 to 8) (size 9 to 14) (size 15 to 20)
#    1.000    1.333    0.000    2.500    4.667    1.333 
#   15.000    0.833    0.000    0.000    0.000    0.000 
#    0.000    0.000    0.000    0.000    0.000    0.000 
#
# Total GULP energy -297316.544643 kJ/mol
# GULP energy per Si atom -12388.189360 kJ/mol
# Density = 2.042621 g / cm^3
# Si number density = 20.472808 Si / 1000 Ang^3
#
#
#
# Elastic Constant Matrix: (Units=GPa)
#
#
# Indices 1 2 3 4 5 6 
#
# 1 64.4574 4.3402 30.1818 0.0000 0.0000 0.0000
# 2 4.3402 56.4487 14.4788 0.0000 0.0000 0.0000
# 3 30.1818 14.4788 90.2084 0.0000 0.0000 0.0000
# 4 0.0000 0.0000 0.0000 21.6421 0.0000 0.0000
# 5 0.0000 0.0000 0.0000 0.0000 29.2307 0.0000
# 6 0.0000 0.0000 0.0000 0.0000 0.0000 31.0377
#
#
#
# Elastic Compliance Matrix: (Units=1/GPa)
#
#
# Indices 1 2 3 4 5 6 
#
# 1 0.018398 0.000171 -0.006183 0.000000 0.000000 0.000000
# 2 0.000171 0.018477 -0.003023 0.000000 0.000000 0.000000
# 3 -0.006183 -0.003023 0.013639 0.000000 0.000000 0.000000
# 4 0.000000 0.000000 0.000000 0.046206 0.000000 0.000000
# 5 0.000000 0.000000 0.000000 0.000000 0.034211 0.000000
# 6 0.000000 0.000000 0.000000 0.000000 0.000000 0.032219
#
#
# Mechanical properties :
#
#
# Convention : Reuss Voigt Hill
#
# Bulk Modulus (GPa) = 30.82125 34.34624 32.58375
# Shear Modulus (GPa) = 26.03697 27.18968 26.61333
#
# Velocity S-wave (km/s) = 3.57008 3.64825 3.60937
# Velocity P-wave (km/s) = 5.66404 5.87871 5.77237
#
# Compressibility (1/GPa) = 0.03244515
#
# Stress axis : x y z
#
# Youngs Moduli (GPa) = 54.35450 54.12016 73.31730
#
# Poissons Ratio (x) = -0.00927 0.45332
# Poissons Ratio (y) = -0.00931 0.22164
# Poissons Ratio (z) = 0.33607 0.16361
#
# Static dielectric constant tensor:
#      x y z
#    x 3.490200 0.000000 0.000000 
#    y 0.000000 3.678310 0.000000 
#    z 0.000000 0.000000 3.619490 
# 
# 
# High freq. dielectric constant tensor:
#      x y z
#    x 1.767500 0.000000 0.000000 
#    y 0.000000 1.800080 0.000000 
#    z 0.000000 0.000000 1.801990 
# 
# From -- ./inp_files/10917.got.cif
#   From: 2010.06.25/outbox.cif.g09.slc.cpg/sg43_6_cif.got.tgz:10917.got - 2010.06.26 16:48:59.
