data_PCOD8187676
_publ_section_title
;
Structure prediction by ZEFSAII (Michael W. Deem and Ramdas Pophale) SiO2 
 PCOD8187676
Probable space group: F D D 2
;
_chemical_formula_sum "Si O2"
_cell_formula_units_Z 80
_cell_length_a 11.753294
_cell_length_b 22.565257
_cell_length_c 11.962175
_cell_angle_alpha 90.000000
_cell_angle_beta 90.000000
_cell_angle_gamma 90.000000
_cell_volume 3172.561398
_symmetry_space_group_name_H-M "F D D 2"
_symmetry_group_IT_number 43
_symmetry_cell_setting 'orthorhombic'
loop_
_space_group_symop_operation_xyz
x,y,z
-x,-y,z
1/4-x,1/4+y,1/4+z
1/4+x,1/4-y,1/4+z
x,1/2+y,1/2+z
-x,1/2-y,1/2+z
1/4-x,3/4+y,3/4+z
1/4+x,3/4-y,3/4+z
1/2+x,y,1/2+z
1/2-x,-y,1/2+z
3/4-x,1/4+y,3/4+z
3/4+x,1/4-y,3/4+z
1/2+x,1/2+y,z
1/2-x,1/2-y,z
3/4-x,3/4+y,1/4+z
3/4+x,3/4-y,1/4+z
loop_
_atom_site_type_symbol
_atom_site_label
_atom_site_fract_x
_atom_site_fract_y
_atom_site_fract_z
Si Si1 0.276330 0.819388 0.398590
Si Si2 0.159859 0.076280 0.479621
Si Si3 0.362899 0.657712 0.988446
Si Si4 0.485979 0.203476 0.295795
Si Si5 0.533279 0.068353 0.399996
O O1 0.250000 0.750000 0.396890
O O2 0.189594 0.848376 0.311162
O O3 0.405155 0.832505 0.351732
O O4 0.251066 0.842444 0.524964
O O5 0.238705 0.132841 0.467666
O O6 0.112588 0.059564 0.357693
O O7 0.227113 0.019733 0.523817
O O8 0.390885 0.706092 0.892958
O O9 0.455416 0.604546 0.985956
O O10 0.420135 0.175350 0.184605
O O11 0.500000 0.000000 0.408930
#
# Coordination Sequence:
#
# PCOD8187676 Si02
#       5
#    16  16  16  16  16
#     4   9  23  45  69 103 145 192 245 303 378 447
#     4  11  25  46  69 108 150 189 251 320 372 455
#     4  12  24  45  71 108 146 191 255 303 379 464
#     4  11  24  45  75 103 147 201 247 309 376 456
#     4  11  22  44  77 104 143 199 247 301 380 458
#
# _framework density 25.216218000000001
#
# number of rings (size 3 to 8) (size 9 to 14) (size 15 to 20)
#    0.000    1.200    4.000    1.200    5.600    1.600 
#    3.600    5.000    0.000    0.000    0.000    0.000 
#    0.000    0.000    0.000    0.000    0.000    0.000 
#
# Total GULP energy -247974.025414 kJ/mol
# GULP energy per Si atom -12398.701271 kJ/mol
# Density = 2.515883 g / cm^3
# Si number density = 25.216218 Si / 1000 Ang^3
#
#
#
# Elastic Constant Matrix: (Units=GPa)
#
#
# Indices 1 2 3 4 5 6 
#
# 1 145.9711 20.6368 64.1516 0.0000 0.0000 0.0000
# 2 20.6368 45.1289 42.7123 0.0000 0.0000 0.0000
# 3 64.1516 42.7123 173.0433 0.0000 0.0000 0.0000
# 4 0.0000 0.0000 0.0000 43.8436 0.0000 0.0000
# 5 0.0000 0.0000 0.0000 0.0000 36.7306 0.0000
# 6 0.0000 0.0000 0.0000 0.0000 0.0000 43.1386
#
#
#
# Elastic Compliance Matrix: (Units=1/GPa)
#
#
# Indices 1 2 3 4 5 6 
#
# 1 0.008229 -0.001143 -0.002769 0.000000 0.000000 0.000000
# 2 -0.001143 0.029072 -0.006752 0.000000 0.000000 0.000000
# 3 -0.002769 -0.006752 0.008472 0.000000 0.000000 0.000000
# 4 0.000000 0.000000 0.000000 0.022808 0.000000 0.000000
# 5 0.000000 0.000000 0.000000 0.000000 0.027225 0.000000
# 6 0.000000 0.000000 0.000000 0.000000 0.000000 0.023181
#
#
# Mechanical properties :
#
#
# Convention : Reuss Voigt Hill
#
# Bulk Modulus (GPa) = 40.90669 68.79384 54.85027
# Shear Modulus (GPa) = 33.67839 40.51873 37.09856
#
# Velocity S-wave (km/s) = 3.65853 4.01290 3.83981
# Velocity P-wave (km/s) = 5.83987 6.98656 6.43879
#
# Compressibility (1/GPa) = 0.02444588
#
# Stress axis : x y z
#
# Youngs Moduli (GPa) = 121.52167 34.39750 118.03632
#
# Poissons Ratio (x) = 0.03930 0.32680
# Poissons Ratio (y) = 0.13885 0.79701
# Poissons Ratio (z) = 0.33645 0.23226
#
# Static dielectric constant tensor:
#      x y z
#    x 4.938230 0.000000 0.000000 
#    y 0.000000 4.514880 0.000000 
#    z 0.000000 0.000000 4.977600 
# 
# 
# High freq. dielectric constant tensor:
#      x y z
#    x 2.013350 0.000000 0.000000 
#    y 0.000000 2.027110 0.000000 
#    z 0.000000 0.000000 2.016020 
# 
# From -- ./inp_files/5701.got.cif
#   From: 2010.06.25/outbox.cif.g09.slc.cpg/sg43_3_cif.got.tgz:5701.got - 2010.06.26 16:48:59.
