data_PCOD8187860
_publ_section_title
;
Structure prediction by ZEFSAII (Michael W. Deem and Ramdas Pophale) SiO2 
 PCOD8187860
Probable space group: F D D 2
;
_chemical_formula_sum "Si O2"
_cell_formula_units_Z 56
_cell_length_a 4.933938
_cell_length_b 15.616957
_cell_length_c 28.098367
_cell_angle_alpha 90.000000
_cell_angle_beta 90.000000
_cell_angle_gamma 90.000000
_cell_volume 2165.066214
_symmetry_space_group_name_H-M "F D D 2"
_symmetry_group_IT_number 43
_symmetry_cell_setting 'orthorhombic'
loop_
_space_group_symop_operation_xyz
x,y,z
-x,-y,z
1/4-x,1/4+y,1/4+z
1/4+x,1/4-y,1/4+z
x,1/2+y,1/2+z
-x,1/2-y,1/2+z
1/4-x,3/4+y,3/4+z
1/4+x,3/4-y,3/4+z
1/2+x,y,1/2+z
1/2-x,-y,1/2+z
3/4-x,1/4+y,3/4+z
3/4+x,1/4-y,3/4+z
1/2+x,1/2+y,z
1/2-x,1/2-y,z
3/4-x,3/4+y,1/4+z
3/4+x,3/4-y,1/4+z
loop_
_atom_site_type_symbol
_atom_site_label
_atom_site_fract_x
_atom_site_fract_y
_atom_site_fract_z
Si Si1 0.611567 0.893282 0.234780
Si Si2 0.750000 0.250000 0.935055
Si Si3 0.137219 0.842558 0.290633
Si Si4 0.065573 0.402274 0.894265
O O1 0.338912 0.909235 0.264977
O O2 0.536157 0.841242 0.186450
O O3 0.835944 0.847344 0.268552
O O4 0.734668 0.983780 0.217233
O O5 0.687992 0.161054 0.907129
O O6 0.250000 0.750000 0.277258
O O7 0.172931 0.859094 0.346311
O O8 0.000000 0.500000 0.881524
#
# Coordination Sequence:
#
# PCOD8187860 Si02
#       4
#    16   8  16  16
#     4  12  28  53  82 120 166 219 275 350 419 495
#     4  12  28  54  86 118 170 226 276 362 410 510
#     4  12  29  51  88 122 168 219 281 344 426 505
#     4  12  31  54  84 125 172 221 285 350 427 507
#
# _framework density 25.865261
#
# number of rings (size 3 to 8) (size 9 to 14) (size 15 to 20)
#    0.000    0.000    2.857    4.286   14.000    0.000 
#    0.000    0.000    3.143    0.000    0.000    0.000 
#    0.000    0.000    0.000    0.000    0.000    0.000 
#
# Total GULP energy -173457.778726 kJ/mol
# GULP energy per Si atom -12389.841338 kJ/mol
# Density = 2.580639 g / cm^3
# Si number density = 25.865261 Si / 1000 Ang^3
#
#
#
# Elastic Constant Matrix: (Units=GPa)
#
#
# Indices 1 2 3 4 5 6 
#
# 1 133.1649 18.9613 54.8263 0.0000 0.0000 0.0000
# 2 18.9613 131.2435 5.7234 0.0000 0.0000 0.0000
# 3 54.8263 5.7234 186.1339 0.0000 0.0000 0.0000
# 4 0.0000 0.0000 0.0000 37.5202 0.0000 0.0000
# 5 0.0000 0.0000 0.0000 0.0000 10.7026 0.0000
# 6 0.0000 0.0000 0.0000 0.0000 0.0000 42.3488
#
#
#
# Elastic Compliance Matrix: (Units=1/GPa)
#
#
# Indices 1 2 3 4 5 6 
#
# 1 0.008715 -0.001149 -0.002532 0.000000 0.000000 0.000000
# 2 -0.001149 0.007781 0.000099 0.000000 0.000000 0.000000
# 3 -0.002532 0.000099 0.006115 0.000000 0.000000 0.000000
# 4 0.000000 0.000000 0.000000 0.026652 0.000000 0.000000
# 5 0.000000 0.000000 0.000000 0.000000 0.093435 0.000000
# 6 0.000000 0.000000 0.000000 0.000000 0.000000 0.023613
#
#
# Mechanical properties :
#
#
# Convention : Reuss Voigt Hill
#
# Bulk Modulus (GPa) = 64.73014 67.72937 66.22975
# Shear Modulus (GPa) = 27.99157 42.84973 35.42065
#
# Velocity S-wave (km/s) = 3.29326 4.07461 3.70459
# Velocity P-wave (km/s) = 6.28816 6.95550 6.63023
#
# Compressibility (1/GPa) = 0.01544875
#
# Stress axis : x y z
#
# Youngs Moduli (GPa) = 114.73866 128.51713 163.52720
#
# Poissons Ratio (x) = 0.14763 0.41402
# Poissons Ratio (y) = 0.13181 -0.01621
# Poissons Ratio (z) = 0.29050 -0.01274
#
# Static dielectric constant tensor:
#      x y z
#    x 5.288480 0.000000 0.000000 
#    y 0.000000 4.641090 0.000000 
#    z 0.000000 0.000000 4.774920 
# 
# 
# High freq. dielectric constant tensor:
#      x y z
#    x 2.046790 0.000000 0.000000 
#    y 0.000000 2.051550 0.000000 
#    z 0.000000 0.000000 2.045590 
# 
# From -- ./inp_files/26992.got.cif
#   From: 2010.06.25/outbox.cif.g09.slc.cpg/sg43_14_cif.got.tgz:26992.got - 2010.06.26 16:48:59.
