data_PCOD8187947
_publ_section_title
;
Structure prediction by ZEFSAII (Michael W. Deem and Ramdas Pophale) SiO2 
 PCOD8187947
Probable space group: I M M 2
;
_chemical_formula_sum "Si O2"
_cell_formula_units_Z 48
_cell_length_a 9.330549
_cell_length_b 18.512181
_cell_length_c 15.022634
_cell_angle_alpha 90.000000
_cell_angle_beta 90.000000
_cell_angle_gamma 90.000000
_cell_volume 2594.841723
_symmetry_space_group_name_H-M "I M M 2"
_symmetry_group_IT_number 44
_symmetry_cell_setting 'orthorhombic'
loop_
_space_group_symop_operation_xyz
x,y,z
-x,-y,z
-x,y,z
x,-y,z
1/2+x,1/2+y,1/2+z
1/2-x,1/2-y,1/2+z
1/2-x,1/2+y,1/2+z
1/2+x,1/2-y,1/2+z
loop_
_atom_site_type_symbol
_atom_site_label
_atom_site_fract_x
_atom_site_fract_y
_atom_site_fract_z
Si Si1 0.661754 0.119408 0.635060
Si Si2 0.835735 0.252279 0.676675
Si Si3 0.667202 0.157287 0.010461
Si Si4 0.337090 0.922655 0.439014
Si Si5 0.669842 0.000000 0.961283
Si Si6 0.172018 0.731490 0.880087
Si Si7 0.828818 0.500000 0.263505
O O1 0.500000 0.143023 0.656717
O O2 0.753209 0.190758 0.624065
O O3 0.669464 0.073939 0.545263
O O4 0.728219 0.071535 0.714458
O O5 0.811247 0.322327 0.614340
O O6 0.779813 0.260284 0.777441
O O7 0.000000 0.230096 0.679963
O O8 0.500000 0.163063 0.982689
O O9 0.723247 0.074198 0.006979
O O10 0.755268 0.207547 0.941664
O O11 0.500000 0.921272 0.404922
O O12 0.265586 0.848360 0.404640
O O13 0.267935 0.000000 0.405709
O O14 0.500000 0.000000 0.958569
O O15 0.733444 0.000000 0.861985
O O16 0.000000 0.735949 0.893859
O O17 0.000000 0.500000 0.257637
#
# Coordination Sequence:
#
# PCOD8187947 Si02
#       7
#     8   8   8   8   4   8   4
#     4  10  17  29  52  76  98 129 168 206 249 303
#     4  10  21  34  49  75 107 134 164 209 259 302
#     4  10  20  36  55  75 103 137 172 212 255 302
#     4   9  16  29  50  76 102 129 166 211 251 294
#     4   9  18  32  49  72 102 133 168 211 255 296
#     4  10  20  35  54  77 104 135 171 211 255 304
#     4   9  16  26  47  78 100 119 164 221 253 284
#
# _framework density 18.498237
#
# number of rings (size 3 to 8) (size 9 to 14) (size 15 to 20)
#    0.000    2.333    2.500    1.000    0.000    2.000 
#    1.500    0.833    0.000    4.500    0.000    0.000 
#    0.000    0.000    0.000    0.000    0.000    0.000 
#
# Total GULP energy -297353.011121 kJ/mol
# GULP energy per Si atom -12389.708797 kJ/mol
# Density = 1.845613 g / cm^3
# Si number density = 18.498237 Si / 1000 Ang^3
#
#
#
# Elastic Constant Matrix: (Units=GPa)
#
#
# Indices 1 2 3 4 5 6 
#
# 1 27.2159 30.8311 23.0154 0.0000 0.0000 0.0000
# 2 30.8311 163.4860 43.5763 0.0001 0.0000 0.0000
# 3 23.0154 43.5763 88.9045 0.0001 0.0000 0.0000
# 4 0.0000 0.0001 0.0001 31.8245 0.0000 0.0000
# 5 0.0000 0.0000 0.0000 0.0000 18.8698 0.0000
# 6 0.0000 0.0000 0.0000 0.0000 0.0000 20.2727
#
#
#
# Elastic Compliance Matrix: (Units=1/GPa)
#
#
# Indices 1 2 3 4 5 6 
#
# 1 0.053855 -0.007408 -0.010311 0.000000 0.000000 0.000000
# 2 -0.007408 0.008055 -0.002030 0.000000 0.000000 0.000000
# 3 -0.010311 -0.002030 0.014912 0.000000 0.000000 0.000000
# 4 0.000000 0.000000 0.000000 0.031422 0.000000 0.000000
# 5 0.000000 0.000000 0.000000 0.000000 0.052995 0.000000
# 6 0.000000 0.000000 0.000000 0.000000 0.000000 0.049327
#
#
# Mechanical properties :
#
#
# Convention : Reuss Voigt Hill
#
# Bulk Modulus (GPa) = 26.79250 52.71688 39.75469
# Shear Modulus (GPa) = 19.04719 26.33898 22.69309
#
# Velocity S-wave (km/s) = 3.21234 3.77751 3.50633
# Velocity P-wave (km/s) = 5.31734 6.89828 6.15875
#
# Compressibility (1/GPa) = 0.03732387
#
# Stress axis : x y z
#
# Youngs Moduli (GPa) = 18.56850 124.14737 67.05817
#
# Poissons Ratio (x) = 0.91967 0.69142
# Poissons Ratio (y) = 0.13755 0.13615
# Poissons Ratio (z) = 0.19146 0.25206
#
# Static dielectric constant tensor:
#      x y z
#    x 3.014250 0.000000 0.000000 
#    y 0.000000 3.652500 0.000000 
#    z 0.000000 0.000000 3.461880 
# 
# 
# High freq. dielectric constant tensor:
#      x y z
#    x 1.667400 0.000000 0.000000 
#    y 0.000000 1.733040 0.000000 
#    z 0.000000 0.000000 1.716650 
# 
# From -- ./inp_files/16149.got.cif
#   From: 2010.03.12/outbox.cif.g09.slc.cpg/sg44_9_cif.got.tgz:16149.got - 2010.04.14 02:36:11.
