data_PCOD8187161
_publ_section_title
;
Structure prediction by ZEFSAII (Michael W. Deem and Ramdas Pophale) SiO2 
 PCOD8187161
Probable space group: F D D 2
;
_chemical_formula_sum "Si O2"
_cell_formula_units_Z 120
_cell_length_a 25.466759
_cell_length_b 26.239120
_cell_length_c 8.219308
_cell_angle_alpha 90.000000
_cell_angle_beta 90.000000
_cell_angle_gamma 90.000000
_cell_volume 5492.349927
_symmetry_space_group_name_H-M "F D D 2"
_symmetry_group_IT_number 43
_symmetry_cell_setting 'orthorhombic'
loop_
_space_group_symop_operation_xyz
x,y,z
-x,-y,z
1/4-x,1/4+y,1/4+z
1/4+x,1/4-y,1/4+z
x,1/2+y,1/2+z
-x,1/2-y,1/2+z
1/4-x,3/4+y,3/4+z
1/4+x,3/4-y,3/4+z
1/2+x,y,1/2+z
1/2-x,-y,1/2+z
3/4-x,1/4+y,3/4+z
3/4+x,1/4-y,3/4+z
1/2+x,1/2+y,z
1/2-x,1/2-y,z
3/4-x,3/4+y,1/4+z
3/4+x,3/4-y,1/4+z
loop_
_atom_site_type_symbol
_atom_site_label
_atom_site_fract_x
_atom_site_fract_y
_atom_site_fract_z
Si Si1 0.290149 0.450838 0.848670
Si Si2 0.868467 0.094629 0.279421
Si Si3 0.980742 0.101916 0.129076
Si Si4 0.330923 0.285085 0.788567
Si Si5 0.000000 0.000000 0.284342
Si Si6 0.218748 0.446228 0.547269
Si Si7 0.150249 0.312883 0.971342
Si Si8 0.009614 0.396816 0.267504
O O1 0.266452 0.457860 0.669242
O O2 0.349301 0.427673 0.834727
O O3 0.291464 0.504454 0.939076
O O4 0.253903 0.410418 0.946349
O O5 0.928103 0.102610 0.230799
O O6 0.870548 0.064661 0.453389
O O7 0.834528 0.065096 0.146308
O O8 0.846094 0.150847 0.312303
O O9 0.010018 0.048919 0.169397
O O10 0.017717 0.148976 0.180294
O O11 0.962467 0.106127 0.941894
O O12 0.300821 0.254886 0.647323
O O13 0.354288 0.245577 0.917384
O O14 0.291326 0.321785 0.883755
O O15 0.204394 0.325812 0.063205
#
# Coordination Sequence:
#
# PCOD8187161 Si02
#       8
#    16  16  16  16   8  16  16  16
#     4  12  27  45  73 105 144 190 239 288 374 423
#     4  11  25  46  71 100 140 188 234 288 357 440
#     4  11  26  44  69 105 141 183 239 293 356 429
#     4  11  23  42  72 100 134 185 236 291 357 425
#     4  10  20  42  68  98 134 178 232 290 348 410
#     4  12  26  48  70 104 148 191 236 301 359 432
#     4  12  24  43  75  98 135 189 233 291 357 429
#     4  12  25  46  71 106 144 182 240 301 354 435
#
# _framework density 21.848571
#
# number of rings (size 3 to 8) (size 9 to 14) (size 15 to 20)
#    0.000    0.533    5.333    2.400    5.600    4.267 
#    0.000    0.000    0.000    0.000    0.000    0.000 
#    0.000    0.000    0.000    0.000    0.000    0.000 
#
# Total GULP energy -372055.059318 kJ/mol
# GULP energy per Si atom -12401.835311 kJ/mol
# Density = 2.179884 g / cm^3
# Si number density = 21.848571 Si / 1000 Ang^3
#
#
#
# Elastic Constant Matrix: (Units=GPa)
#
#
# Indices 1 2 3 4 5 6 
#
# 1 78.8087 31.3275 13.4089 0.0024 -0.0097 -0.0042
# 2 31.3275 147.8258 45.7481 -0.0026 -0.0068 -0.0057
# 3 13.4089 45.7481 93.0891 0.0055 -0.0322 -0.0161
# 4 0.0024 -0.0026 0.0055 42.6148 -0.0165 -0.0085
# 5 -0.0097 -0.0068 -0.0322 -0.0165 29.6034 0.0130
# 6 -0.0042 -0.0057 -0.0161 -0.0085 0.0130 27.9323
#
#
#
# Elastic Compliance Matrix: (Units=1/GPa)
#
#
# Indices 1 2 3 4 5 6 
#
# 1 0.013890 -0.002741 -0.000654 -0.000001 0.000003 0.000001
# 2 -0.002741 0.008519 -0.003792 0.000001 -0.000003 -0.000001
# 3 -0.000654 -0.003792 0.012700 -0.000002 0.000013 0.000006
# 4 -0.000001 0.000001 -0.000002 0.023466 0.000013 0.000007
# 5 0.000003 -0.000003 0.000013 0.000013 0.033780 -0.000016
# 6 0.000001 -0.000001 0.000006 0.000007 -0.000016 0.035801
#
#
# Mechanical properties :
#
#
# Convention : Reuss Voigt Hill
#
# Bulk Modulus (GPa) = 48.22610 55.63253 51.92932
# Shear Modulus (GPa) = 33.45801 35.31270 34.38535
#
# Velocity S-wave (km/s) = 3.91750 4.02462 3.97142
# Velocity P-wave (km/s) = 6.52558 6.86402 6.69694
#
# Compressibility (1/GPa) = 0.02073566
#
# Stress axis : x y z
#
# Youngs Moduli (GPa) = 71.99498 117.38297 78.74016
#
# Poissons Ratio (x) = 0.32178 0.05146
# Poissons Ratio (y) = 0.19736 0.29857
# Poissons Ratio (z) = 0.04705 0.44509
#
# Static dielectric constant tensor:
#      x y z
#    x 3.825440 0.000010 0.000030 
#    y 0.000010 4.213220 -0.000020 
#    z 0.000030 -0.000020 3.806380 
# 
# 
# High freq. dielectric constant tensor:
#      x y z
#    x 1.855230 0.000000 0.000000 
#    y 0.000000 1.875230 0.000000 
#    z 0.000000 0.000000 1.855580 
# 
# From -- ./inp_files/4356.got.cif
#   From: 2010.06.25/outbox.cif.g09.slc.cpg/sg43_3_cif.got.tgz:4356.got - 2010.06.26 16:48:59.
