data_PCOD8187312
_publ_section_title
;
Structure prediction by ZEFSAII (Michael W. Deem and Ramdas Pophale) SiO2 
 PCOD8187312
Probable space group: F D D 2
;
_chemical_formula_sum "Si O2"
_cell_formula_units_Z 120
_cell_length_a 27.444807
_cell_length_b 16.903849
_cell_length_c 11.514802
_cell_angle_alpha 90.000000
_cell_angle_beta 90.000000
_cell_angle_gamma 90.000000
_cell_volume 5341.980030
_symmetry_space_group_name_H-M "F D D 2"
_symmetry_group_IT_number 43
_symmetry_cell_setting 'orthorhombic'
loop_
_space_group_symop_operation_xyz
x,y,z
-x,-y,z
1/4-x,1/4+y,1/4+z
1/4+x,1/4-y,1/4+z
x,1/2+y,1/2+z
-x,1/2-y,1/2+z
1/4-x,3/4+y,3/4+z
1/4+x,3/4-y,3/4+z
1/2+x,y,1/2+z
1/2-x,-y,1/2+z
3/4-x,1/4+y,3/4+z
3/4+x,1/4-y,3/4+z
1/2+x,1/2+y,z
1/2-x,1/2-y,z
3/4-x,3/4+y,1/4+z
3/4+x,3/4-y,1/4+z
loop_
_atom_site_type_symbol
_atom_site_label
_atom_site_fract_x
_atom_site_fract_y
_atom_site_fract_z
Si Si1 0.344193 0.888016 0.475110
Si Si2 0.186538 0.958198 0.649337
Si Si3 0.500000 0.000000 0.876137
Si Si4 0.596749 0.552149 0.271567
Si Si5 0.684882 0.484290 0.375684
Si Si6 0.468018 0.631976 0.955648
Si Si7 0.105233 0.471683 0.532714
Si Si8 0.519827 0.357104 0.531658
O O1 0.385131 0.820303 0.452421
O O2 0.322662 0.896693 0.605514
O O3 0.298261 0.869161 0.396758
O O4 0.366967 0.973648 0.437907
O O5 0.226516 0.887537 0.663218
O O6 0.186125 0.982837 0.514695
O O7 0.204985 0.033838 0.718523
O O8 0.459839 0.956404 0.799009
O O9 0.524777 0.932943 0.952121
O O10 0.627893 0.486053 0.342134
O O11 0.603583 0.533177 0.137846
O O12 0.614147 0.641112 0.303657
O O13 0.709991 0.561085 0.317415
O O14 0.713692 0.409889 0.319347
O O15 0.451332 0.545211 0.999617
#
# Coordination Sequence:
#
# PCOD8187312 Si02
#       8
#    16  16   8  16  16  16  16  16
#     4  12  23  48  74 109 145 196 245 304 376 455
#     4  11  25  45  75 106 147 199 245 308 381 451
#     4  12  28  44  66 110 142 192 246 302 360 450
#     4  11  25  43  74 106 148 188 247 312 373 439
#     4  10  21  47  71  99 147 192 239 304 373 442
#     4  10  23  44  72 106 142 192 249 309 372 445
#     4  11  23  46  72 107 145 189 244 311 369 447
#     4  11  26  46  73 103 146 196 246 299 370 441
#
# _framework density 22.463581000000001
#
# number of rings (size 3 to 8) (size 9 to 14) (size 15 to 20)
#    0.000    1.067    4.000    2.400    5.600    1.600 
#    9.600    0.000    0.000    0.000    0.000    0.000 
#    0.000    0.000    0.000    0.000    0.000    0.000 
#
# Total GULP energy -371648.497356 kJ/mol
# GULP energy per Si atom -12388.283245 kJ/mol
# Density = 2.241245 g / cm^3
# Si number density = 22.463581 Si / 1000 Ang^3
#
#
#
# Elastic Constant Matrix: (Units=GPa)
#
#
# Indices 1 2 3 4 5 6 
#
# 1 86.4329 20.8052 19.6148 0.0000 0.0000 0.0000
# 2 20.8052 85.8155 18.3612 0.0000 0.0000 0.0000
# 3 19.6148 18.3612 84.0235 0.0000 0.0000 0.0000
# 4 0.0000 0.0000 0.0000 26.9581 0.0000 0.0000
# 5 0.0000 0.0000 0.0000 0.0000 -99.5039 0.0000
# 6 0.0000 0.0000 0.0000 0.0000 0.0000 28.4024
#
#
#
# Elastic Compliance Matrix: (Units=1/GPa)
#
#
# Indices 1 2 3 4 5 6 
#
# 1 0.012736 -0.002572 -0.002411 0.000000 0.000000 0.000000
# 2 -0.002572 0.012744 -0.002184 0.000000 0.000000 0.000000
# 3 -0.002411 -0.002184 0.012942 0.000000 0.000000 0.000000
# 4 0.000000 0.000000 0.000000 0.037095 0.000000 0.000000
# 5 0.000000 0.000000 0.000000 0.000000 -0.010050 0.000000
# 6 0.000000 0.000000 0.000000 0.000000 0.000000 0.035208
#
#
# Mechanical properties :
#
#
# Convention : Reuss Voigt Hill
#
# Bulk Modulus (GPa) = 41.51692 41.53715 41.52703
# Shear Modulus (GPa) = 40.63780 4.33735 22.48758
#
# Velocity S-wave (km/s) = 4.25791 1.39105 3.16740
# Velocity P-wave (km/s) = 6.53415 4.59468 5.64828
#
# Compressibility (1/GPa) = 0.02408657
#
# Stress axis : x y z
#
# Youngs Moduli (GPa) = 78.51815 78.46949 77.26986
#
# Poissons Ratio (x) = 0.20181 0.18631
# Poissons Ratio (y) = 0.20193 0.16879
# Poissons Ratio (z) = 0.18932 0.17141
#
# Static dielectric constant tensor:
#      x y z
#    x 4.904230 0.000000 0.000000 
#    y 0.000000 3.937280 0.000000 
#    z 0.000000 0.000000 4.086600 
# 
# 
# High freq. dielectric constant tensor:
#      x y z
#    x 1.898370 0.000000 0.000000 
#    y 0.000000 1.873840 0.000000 
#    z 0.000000 0.000000 1.890260 
# 
# From -- ./inp_files/6815.got.cif
#   From: 2010.06.25/outbox.cif.g09.slc.cpg/sg43_4_cif.got.tgz:6815.got - 2010.06.26 16:48:59.
