data_PCOD8187496
_publ_section_title
;
Structure prediction by ZEFSAII (Michael W. Deem and Ramdas Pophale) SiO2 
 PCOD8187496
Probable space group: F D D 2
;
_chemical_formula_sum "Si O2"
_cell_formula_units_Z 120
_cell_length_a 18.362497
_cell_length_b 23.953562
_cell_length_c 12.907167
_cell_angle_alpha 90.000000
_cell_angle_beta 90.000000
_cell_angle_gamma 90.000000
_cell_volume 5677.181399
_symmetry_space_group_name_H-M "F D D 2"
_symmetry_group_IT_number 43
_symmetry_cell_setting 'orthorhombic'
loop_
_space_group_symop_operation_xyz
x,y,z
-x,-y,z
1/4-x,1/4+y,1/4+z
1/4+x,1/4-y,1/4+z
x,1/2+y,1/2+z
-x,1/2-y,1/2+z
1/4-x,3/4+y,3/4+z
1/4+x,3/4-y,3/4+z
1/2+x,y,1/2+z
1/2-x,-y,1/2+z
3/4-x,1/4+y,3/4+z
3/4+x,1/4-y,3/4+z
1/2+x,1/2+y,z
1/2-x,1/2-y,z
3/4-x,3/4+y,1/4+z
3/4+x,3/4-y,1/4+z
loop_
_atom_site_type_symbol
_atom_site_label
_atom_site_fract_x
_atom_site_fract_y
_atom_site_fract_z
Si Si1 0.606531 0.707085 0.672650
Si Si2 0.651249 0.830511 0.904628
Si Si3 0.663354 0.251699 0.585970
Si Si4 0.316833 0.209431 0.305293
Si Si5 0.545172 0.166083 0.573496
Si Si6 0.567851 0.756588 0.459297
Si Si7 0.750000 0.750000 0.780147
Si Si8 0.267537 0.452045 0.532978
O O1 0.582402 0.643306 0.689048
O O2 0.603373 0.722144 0.552164
O O3 0.687620 0.721860 0.710696
O O4 0.546248 0.739314 0.739071
O O5 0.720093 0.800071 0.851813
O O6 0.584953 0.834109 0.824087
O O7 0.628444 0.795947 0.006742
O O8 0.750000 0.250000 0.573229
O O9 0.641386 0.269496 0.702293
O O10 0.626787 0.191514 0.563598
O O11 0.250000 0.250000 0.330525
O O12 0.290434 0.146760 0.282870
O O13 0.369952 0.207389 0.403323
O O14 0.492950 0.201425 0.499728
O O15 0.520516 0.166664 0.693025
O O16 0.537403 0.711996 0.377326
#
# Coordination Sequence:
#
# PCOD8187496 Si02
#       8
#    16  16  16  16  16  16   8  16
#     4  10  26  41  68  98 131 182 219 274 342 395
#     4  11  23  42  72  95 133 175 216 287 334 397
#     4  11  24  44  67 106 134 175 238 280 348 411
#     4  11  28  44  69 101 137 181 236 283 346 413
#     4  11  25  46  69  96 142 184 225 293 338 414
#     4  11  24  45  69  97 138 180 227 278 343 409
#     4  10  24  46  60 104 134 164 232 268 326 418
#     4  10  23  44  63  99 130 169 236 262 337 411
#
# _framework density 21.137250000000002
#
# number of rings (size 3 to 8) (size 9 to 14) (size 15 to 20)
#    0.000    1.333    3.333    0.000   10.267    0.000 
#    2.400    0.000    0.000    0.000    0.000    0.000 
#    0.000    0.000    0.000    0.000    0.000    0.000 
#
# Total GULP energy -372120.924394 kJ/mol
# GULP energy per Si atom -12404.030813 kJ/mol
# Density = 2.108914 g / cm^3
# Si number density = 21.137250 Si / 1000 Ang^3
#
#
#
# Elastic Constant Matrix: (Units=GPa)
#
#
# Indices 1 2 3 4 5 6 
#
# 1 96.4557 32.2815 29.9901 0.0000 0.0000 0.0000
# 2 32.2815 129.2281 18.8532 0.0000 0.0000 0.0000
# 3 29.9901 18.8532 110.3496 0.0000 0.0000 0.0000
# 4 0.0000 0.0000 0.0000 21.5411 0.0000 0.0000
# 5 0.0000 0.0000 0.0000 0.0000 34.2651 0.0000
# 6 0.0000 0.0000 0.0000 0.0000 0.0000 25.4363
#
#
#
# Elastic Compliance Matrix: (Units=1/GPa)
#
#
# Indices 1 2 3 4 5 6 
#
# 1 0.012128 -0.002614 -0.002850 0.000000 0.000000 0.000000
# 2 -0.002614 0.008499 -0.000742 0.000000 0.000000 0.000000
# 3 -0.002850 -0.000742 0.009963 0.000000 0.000000 0.000000
# 4 0.000000 0.000000 0.000000 0.046423 0.000000 0.000000
# 5 0.000000 0.000000 0.000000 0.000000 0.029184 0.000000
# 6 0.000000 0.000000 0.000000 0.000000 0.000000 0.039314
#
#
# Mechanical properties :
#
#
# Convention : Reuss Voigt Hill
#
# Bulk Modulus (GPa) = 55.00393 55.36479 55.18436
# Shear Modulus (GPa) = 30.49106 33.24242 31.86674
#
# Velocity S-wave (km/s) = 3.80218 3.97002 3.88701
# Velocity P-wave (km/s) = 6.73455 6.87493 6.80510
#
# Compressibility (1/GPa) = 0.01818052
#
# Stress axis : x y z
#
# Youngs Moduli (GPa) = 82.45205 117.65482 100.36876
#
# Poissons Ratio (x) = 0.30754 0.28601
# Poissons Ratio (y) = 0.21553 0.07445
# Poissons Ratio (z) = 0.23495 0.08727
#
# Static dielectric constant tensor:
#      x y z
#    x 3.800890 0.000000 0.000000 
#    y 0.000000 3.659650 0.000000 
#    z 0.000000 0.000000 4.107120 
# 
# 
# High freq. dielectric constant tensor:
#      x y z
#    x 1.832150 0.000000 0.000000 
#    y 0.000000 1.818440 0.000000 
#    z 0.000000 0.000000 1.847490 
# 
# From -- ./inp_files/7209.got.cif
#   From: 2010.06.25/outbox.cif.g09.slc.cpg/sg43_4_cif.got.tgz:7209.got - 2010.06.26 16:48:59.
