data_PCOD8187837
_publ_section_title
;
Structure prediction by ZEFSAII (Michael W. Deem and Ramdas Pophale) SiO2 
 PCOD8187837
Probable space group: F D D 2
;
_chemical_formula_sum "Si O2"
_cell_formula_units_Z 120
_cell_length_a 26.402880
_cell_length_b 22.604915
_cell_length_c 8.907932
_cell_angle_alpha 90.000000
_cell_angle_beta 90.000000
_cell_angle_gamma 90.000000
_cell_volume 5316.564332
_symmetry_space_group_name_H-M "F D D 2"
_symmetry_group_IT_number 43
_symmetry_cell_setting 'orthorhombic'
loop_
_space_group_symop_operation_xyz
x,y,z
-x,-y,z
1/4-x,1/4+y,1/4+z
1/4+x,1/4-y,1/4+z
x,1/2+y,1/2+z
-x,1/2-y,1/2+z
1/4-x,3/4+y,3/4+z
1/4+x,3/4-y,3/4+z
1/2+x,y,1/2+z
1/2-x,-y,1/2+z
3/4-x,1/4+y,3/4+z
3/4+x,1/4-y,3/4+z
1/2+x,1/2+y,z
1/2-x,1/2-y,z
3/4-x,3/4+y,1/4+z
3/4+x,3/4-y,1/4+z
loop_
_atom_site_type_symbol
_atom_site_label
_atom_site_fract_x
_atom_site_fract_y
_atom_site_fract_z
Si Si1 0.250000 0.250000 0.957240
Si Si2 0.961051 0.214931 0.416834
Si Si3 0.292783 0.688370 0.711922
Si Si4 0.159754 0.229910 0.458597
Si Si5 0.695917 0.521005 0.316118
Si Si6 0.191846 0.170741 0.737131
Si Si7 0.569206 0.899536 0.466517
Si Si8 0.143672 0.927169 0.700982
O O1 0.232391 0.194617 0.856915
O O2 0.298654 0.226286 0.056660
O O3 0.961864 0.222860 0.238438
O O4 0.947530 0.148925 0.463349
O O5 0.920784 0.260684 0.491119
O O6 0.016675 0.226785 0.481141
O O7 0.319210 0.715964 0.858741
O O8 0.231595 0.689516 0.727003
O O9 0.313000 0.622367 0.691917
O O10 0.110765 0.248525 0.550232
O O11 0.200102 0.207032 0.582457
O O12 0.145978 0.173634 0.352727
O O13 0.698888 0.583120 0.231995
O O14 0.134185 0.181946 0.791238
O O15 0.599907 0.908104 0.315073
#
# Coordination Sequence:
#
# PCOD8187837 Si02
#       8
#     8  16  16  16  16  16  16  16
#     4  12  28  48  74 110 148 202 250 316 384 448
#     4  12  30  51  75 115 152 200 257 313 386 453
#     4  12  25  46  79 107 149 197 254 308 372 465
#     4  12  26  48  74 110 146 198 252 309 374 453
#     4  12  28  49  75 109 155 198 254 314 381 455
#     4  12  29  48  76 108 156 197 254 317 377 460
#     4  12  25  49  71 113 148 201 248 309 381 450
#     4  12  27  47  79 110 155 199 247 316 384 458
#
# _framework density 22.570965999999999
#
# number of rings (size 3 to 8) (size 9 to 14) (size 15 to 20)
#    0.000    0.000    8.000    0.000   11.200    0.000 
#    2.400    0.000    0.000    0.000    0.000    0.000 
#    0.000    0.000    0.000    0.000    0.000    0.000 
#
# Total GULP energy -371984.100254 kJ/mol
# GULP energy per Si atom -12399.470008 kJ/mol
# Density = 2.251959 g / cm^3
# Si number density = 22.570966 Si / 1000 Ang^3
#
#
#
# Elastic Constant Matrix: (Units=GPa)
#
#
# Indices 1 2 3 4 5 6 
#
# 1 87.4255 40.4948 36.1145 -0.0003 0.0001 0.0002
# 2 40.4948 121.9464 43.9324 0.0036 -0.0017 -0.0012
# 3 36.1145 43.9324 124.2953 0.0087 -0.0050 -0.0029
# 4 -0.0003 0.0036 0.0087 38.1325 -0.0026 -0.0017
# 5 0.0001 -0.0017 -0.0050 -0.0026 32.6312 0.0013
# 6 0.0002 -0.0012 -0.0029 -0.0017 0.0013 32.2638
#
#
#
# Elastic Compliance Matrix: (Units=1/GPa)
#
#
# Indices 1 2 3 4 5 6 
#
# 1 0.014346 -0.003738 -0.002847 0.000001 -0.000001 0.000000
# 2 -0.003738 0.010371 -0.002579 0.000000 0.000000 0.000000
# 3 -0.002847 -0.002579 0.009784 -0.000002 0.000001 0.000001
# 4 0.000001 0.000000 -0.000002 0.026224 0.000002 0.000001
# 5 -0.000001 0.000000 0.000001 0.000002 0.030646 -0.000001
# 6 0.000000 0.000000 0.000001 0.000001 -0.000001 0.030995
#
#
# Mechanical properties :
#
#
# Convention : Reuss Voigt Hill
#
# Bulk Modulus (GPa) = 61.83605 63.86117 62.84861
# Shear Modulus (GPa) = 34.22656 34.81387 34.52022
#
# Velocity S-wave (km/s) = 3.89832 3.93162 3.91501
# Velocity P-wave (km/s) = 6.90784 6.99751 6.95282
#
# Compressibility (1/GPa) = 0.01617180
#
# Stress axis : x y z
#
# Youngs Moduli (GPa) = 69.70648 96.42318 102.20479
#
# Poissons Ratio (x) = 0.36045 0.29097
# Poissons Ratio (y) = 0.26058 0.26364
# Poissons Ratio (z) = 0.19845 0.24872
#
# Static dielectric constant tensor:
#      x y z
#    x 3.977810 0.000000 0.000000 
#    y 0.000000 4.199290 0.000000 
#    z 0.000000 0.000000 4.234790 
# 
# 
# High freq. dielectric constant tensor:
#      x y z
#    x 1.881890 0.000000 0.000000 
#    y 0.000000 1.909070 0.000000 
#    z 0.000000 0.000000 1.903410 
# 
# From -- ./inp_files/4336.got.cif
#   From: 2010.06.25/outbox.cif.g09.slc.cpg/sg43_3_cif.got.tgz:4336.got - 2010.06.26 16:48:59.
