data_PCOD8187537
_publ_section_title
;
Structure prediction by ZEFSAII (Michael W. Deem and Ramdas Pophale) SiO2 
 PCOD8187537
Probable space group: F D D 2
;
_chemical_formula_sum "Si O2"
_cell_formula_units_Z 120
_cell_length_a 24.906657
_cell_length_b 7.374894
_cell_length_c 26.277412
_cell_angle_alpha 90.000000
_cell_angle_beta 90.000000
_cell_angle_gamma 90.000000
_cell_volume 4826.738970
_symmetry_space_group_name_H-M "F D D 2"
_symmetry_group_IT_number 43
_symmetry_cell_setting 'orthorhombic'
loop_
_space_group_symop_operation_xyz
x,y,z
-x,-y,z
1/4-x,1/4+y,1/4+z
1/4+x,1/4-y,1/4+z
x,1/2+y,1/2+z
-x,1/2-y,1/2+z
1/4-x,3/4+y,3/4+z
1/4+x,3/4-y,3/4+z
1/2+x,y,1/2+z
1/2-x,-y,1/2+z
3/4-x,1/4+y,3/4+z
3/4+x,1/4-y,3/4+z
1/2+x,1/2+y,z
1/2-x,1/2-y,z
3/4-x,3/4+y,1/4+z
3/4+x,3/4-y,1/4+z
loop_
_atom_site_type_symbol
_atom_site_label
_atom_site_fract_x
_atom_site_fract_y
_atom_site_fract_z
Si Si1 0.664701 0.501314 0.402990
Si Si2 0.703120 0.110553 0.178106
Si Si3 0.916989 0.238827 0.719011
Si Si4 0.352992 0.427616 0.774671
Si Si5 0.256403 0.446110 0.090214
Si Si6 0.377605 0.397394 0.117794
Si Si7 0.818122 0.369883 0.012731
Si Si8 0.500000 0.000000 0.167294
O O1 0.604324 0.434254 0.410985
O O2 0.664949 0.673461 0.366023
O O3 0.692140 0.559773 0.456061
O O4 0.703246 0.340658 0.382054
O O5 0.750000 0.250000 0.164531
O O6 0.700683 0.075066 0.239122
O O7 0.719760 0.941910 0.142073
O O8 0.892977 0.063763 0.746093
O O9 0.877721 0.308152 0.673904
O O10 0.923428 0.401579 0.760195
O O11 0.974077 0.165585 0.699480
O O12 0.342707 0.507145 0.830385
O O13 0.378873 0.227476 0.782709
O O14 0.250000 0.250000 0.064237
O O15 0.318941 0.470033 0.102643
O O16 0.232522 0.591309 0.049986
#
# Coordination Sequence:
#
# PCOD8187537 Si02
#       8
#    16  16  16  16  16  16  16   8
#     4  10  24  46  71 113 159 201 264 329 401 474
#     4  11  23  45  74 113 161 206 253 329 407 483
#     4  11  26  48  76 111 155 206 255 334 403 475
#     4  11  24  48  74 110 159 200 261 321 405 478
#     4  12  24  40  77 118 157 202 264 335 407 470
#     4  11  25  47  73 115 158 200 269 326 399 497
#     4  10  24  41  71 117 156 190 254 334 398 469
#     4  12  24  48  82  98 160 210 270 326 410 474
#
# _framework density 24.861508000000001
#
# number of rings (size 3 to 8) (size 9 to 14) (size 15 to 20)
#    0.000    1.067    5.333    0.800    4.667    2.133 
#    1.200    0.000    8.800    0.000    0.000    0.000 
#    0.000    0.000    0.000    0.000    0.000    0.000 
#
# Total GULP energy -371696.670748 kJ/mol
# GULP energy per Si atom -12389.889025 kJ/mol
# Density = 2.480492 g / cm^3
# Si number density = 24.861508 Si / 1000 Ang^3
#
#
#
# Elastic Constant Matrix: (Units=GPa)
#
#
# Indices 1 2 3 4 5 6 
#
# 1 122.0140 49.3460 35.9484 0.0007 -0.0007 -0.0010
# 2 49.3460 143.0619 24.1789 0.0016 -0.0012 -0.0014
# 3 35.9484 24.1789 98.4466 0.0001 -0.0001 -0.0003
# 4 0.0007 0.0016 0.0001 45.9093 -0.0002 -0.0007
# 5 -0.0007 -0.0012 -0.0001 -0.0002 22.7025 0.0008
# 6 -0.0010 -0.0014 -0.0003 -0.0007 0.0008 35.6614
#
#
#
# Elastic Compliance Matrix: (Units=1/GPa)
#
#
# Indices 1 2 3 4 5 6 
#
# 1 0.010318 -0.003049 -0.003019 0.000000 0.000000 0.000000
# 2 -0.003049 0.008194 -0.000899 0.000000 0.000000 0.000000
# 3 -0.003019 -0.000899 0.011481 0.000000 0.000000 0.000000
# 4 0.000000 0.000000 0.000000 0.021782 0.000000 0.000000
# 5 0.000000 0.000000 0.000000 0.000000 0.044048 -0.000001
# 6 0.000000 0.000000 0.000000 0.000000 -0.000001 0.028042
#
#
# Mechanical properties :
#
#
# Convention : Reuss Voigt Hill
#
# Bulk Modulus (GPa) = 62.27005 64.71880 63.49443
# Shear Modulus (GPa) = 34.92806 37.79124 36.35965
#
# Velocity S-wave (km/s) = 3.75227 3.90304 3.82840
# Velocity P-wave (km/s) = 6.62374 6.81174 6.71840
#
# Compressibility (1/GPa) = 0.01605909
#
# Stress axis : x y z
#
# Youngs Moduli (GPa) = 96.91536 122.04713 87.10036
#
# Poissons Ratio (x) = 0.37210 0.26295
# Poissons Ratio (y) = 0.29548 0.07831
# Poissons Ratio (z) = 0.29259 0.10973
#
# Static dielectric constant tensor:
#      x y z
#    x 4.471610 0.000000 0.000000 
#    y 0.000000 5.267670 0.000000 
#    z 0.000000 0.000000 4.868910 
# 
# 
# High freq. dielectric constant tensor:
#      x y z
#    x 1.978110 0.000000 0.000000 
#    y 0.000000 2.009710 0.000000 
#    z 0.000000 0.000000 1.977020 
# 
# From -- ./inp_files/26593.got.cif
#   From: 2010.06.25/outbox.cif.g09.slc.cpg/sg43_14_cif.got.tgz:26593.got - 2010.06.26 16:48:59.
