data_PCOD8187555
_publ_section_title
;
Structure prediction by ZEFSAII (Michael W. Deem and Ramdas Pophale) SiO2 
 PCOD8187555
Probable space group: F D D 2
;
_chemical_formula_sum "Si O2"
_cell_formula_units_Z 120
_cell_length_a 16.059798
_cell_length_b 12.479526
_cell_length_c 26.048109
_cell_angle_alpha 90.000000
_cell_angle_beta 90.000000
_cell_angle_gamma 90.000000
_cell_volume 5220.527276
_symmetry_space_group_name_H-M "F D D 2"
_symmetry_group_IT_number 43
_symmetry_cell_setting 'orthorhombic'
loop_
_space_group_symop_operation_xyz
x,y,z
-x,-y,z
1/4-x,1/4+y,1/4+z
1/4+x,1/4-y,1/4+z
x,1/2+y,1/2+z
-x,1/2-y,1/2+z
1/4-x,3/4+y,3/4+z
1/4+x,3/4-y,3/4+z
1/2+x,y,1/2+z
1/2-x,-y,1/2+z
3/4-x,1/4+y,3/4+z
3/4+x,1/4-y,3/4+z
1/2+x,1/2+y,z
1/2-x,1/2-y,z
3/4-x,3/4+y,1/4+z
3/4+x,3/4-y,1/4+z
loop_
_atom_site_type_symbol
_atom_site_label
_atom_site_fract_x
_atom_site_fract_y
_atom_site_fract_z
Si Si1 0.250000 0.250000 0.553261
Si Si2 0.439260 0.796966 0.565760
Si Si3 0.604433 0.292248 0.121671
Si Si4 0.087476 0.949946 0.539319
Si Si5 0.339447 0.201931 0.897374
Si Si6 0.548419 0.149847 0.455354
Si Si7 0.796999 0.418779 0.974420
Si Si8 0.369437 0.316951 0.173639
O O1 0.309731 0.186176 0.592426
O O2 0.195065 0.172295 0.517771
O O3 0.535026 0.812452 0.579567
O O4 0.419100 0.675299 0.550537
O O5 0.427246 0.868620 0.515001
O O6 0.385570 0.842406 0.613421
O O7 0.588244 0.175602 0.146572
O O8 0.595652 0.368331 0.172199
O O9 0.114254 0.008201 0.591285
O O10 0.160166 0.973832 0.497691
O O11 0.000000 0.000000 0.519314
O O12 0.250000 0.250000 0.914422
O O13 0.411693 0.238700 0.936515
O O14 0.448315 0.149960 0.446424
O O15 0.586460 0.053876 0.422710
O O16 0.700641 0.432793 0.959527
#
# Coordination Sequence:
#
# PCOD8187555 Si02
#       8
#     8  16  16  16  16  16  16  16
#     4  12  24  44  62  96 134 176 220 274 332 416
#     4  11  21  42  67  94 133 177 216 284 335 386
#     4  11  23  42  64  96 134 168 225 276 333 398
#     4  11  20  38  69  98 128 168 223 284 340 379
#     4  11  19  41  68  99 130 162 220 293 333 378
#     4  11  23  41  68  96 134 181 219 271 338 400
#     4  11  24  43  66  93 135 178 217 280 335 400
#     4  10  24  44  60  96 140 172 228 266 327 422
#
# _framework density 22.986183
#
# number of rings (size 3 to 8) (size 9 to 14) (size 15 to 20)
#    0.000    1.067    5.333    2.400    0.933    1.067 
#    7.200    6.667    0.000    0.000    0.000    0.000 
#    0.000    0.000    0.000    0.000    0.000    0.000 
#
# Total GULP energy -371909.820683 kJ/mol
# GULP energy per Si atom -12396.994023 kJ/mol
# Density = 2.293387 g / cm^3
# Si number density = 22.986183 Si / 1000 Ang^3
#
#
#
# Elastic Constant Matrix: (Units=GPa)
#
#
# Indices 1 2 3 4 5 6 
#
# 1 112.6567 3.9527 77.6494 0.0000 0.0000 0.0000
# 2 3.9527 19.7542 7.0777 0.0000 0.0000 0.0000
# 3 77.6494 7.0777 151.6194 0.0000 0.0000 0.0000
# 4 0.0000 0.0000 0.0000 23.2173 0.0000 0.0000
# 5 0.0000 0.0000 0.0000 0.0000 38.8564 0.0000
# 6 0.0000 0.0000 0.0000 0.0000 0.0000 29.5204
#
#
#
# Elastic Compliance Matrix: (Units=1/GPa)
#
#
# Indices 1 2 3 4 5 6 
#
# 1 0.013720 -0.000232 -0.007016 0.000000 0.000000 0.000000
# 2 -0.000232 0.051487 -0.002285 0.000000 0.000000 0.000000
# 3 -0.007016 -0.002285 0.010295 0.000000 0.000000 0.000000
# 4 0.000000 0.000000 0.000000 0.043071 0.000000 0.000000
# 5 0.000000 0.000000 0.000000 0.000000 0.025736 0.000000
# 6 0.000000 0.000000 0.000000 0.000000 0.000000 0.033875
#
#
# Mechanical properties :
#
#
# Convention : Reuss Voigt Hill
#
# Bulk Modulus (GPa) = 17.71858 51.26554 34.49206
# Shear Modulus (GPa) = 23.14151 31.34217 27.24184
#
# Velocity S-wave (km/s) = 3.17639 3.69660 3.44632
# Velocity P-wave (km/s) = 4.60192 6.36953 5.55647
#
# Compressibility (1/GPa) = 0.05643793
#
# Stress axis : x y z
#
# Youngs Moduli (GPa) = 72.88429 19.42238 97.13292
#
# Poissons Ratio (x) = 0.00450 0.68147
# Poissons Ratio (y) = 0.01688 0.22193
# Poissons Ratio (z) = 0.51135 0.04438
#
# Static dielectric constant tensor:
#      x y z
#    x 4.171060 0.000000 0.000000 
#    y 0.000000 3.883180 0.000000 
#    z 0.000000 0.000000 4.452990 
# 
# 
# High freq. dielectric constant tensor:
#      x y z
#    x 1.907230 0.000000 0.000000 
#    y 0.000000 1.880100 0.000000 
#    z 0.000000 0.000000 1.930030 
# 
# From -- ./inp_files/21844.got.cif
#   From: 2010.06.25/outbox.cif.g09.slc.cpg/sg43_11_cif.got.tgz:21844.got - 2010.06.26 16:48:59.
