data_PCOD8187772
_publ_section_title
;
Structure prediction by ZEFSAII (Michael W. Deem and Ramdas Pophale) SiO2 
 PCOD8187772
Probable space group: F D D 2
;
_chemical_formula_sum "Si O2"
_cell_formula_units_Z 64
_cell_length_a 17.694828
_cell_length_b 11.855016
_cell_length_c 13.026839
_cell_angle_alpha 90.000000
_cell_angle_beta 90.000000
_cell_angle_gamma 90.000000
_cell_volume 2732.672181
_symmetry_space_group_name_H-M "F D D 2"
_symmetry_group_IT_number 43
_symmetry_cell_setting 'orthorhombic'
loop_
_space_group_symop_operation_xyz
x,y,z
-x,-y,z
1/4-x,1/4+y,1/4+z
1/4+x,1/4-y,1/4+z
x,1/2+y,1/2+z
-x,1/2-y,1/2+z
1/4-x,3/4+y,3/4+z
1/4+x,3/4-y,3/4+z
1/2+x,y,1/2+z
1/2-x,-y,1/2+z
3/4-x,1/4+y,3/4+z
3/4+x,1/4-y,3/4+z
1/2+x,1/2+y,z
1/2-x,1/2-y,z
3/4-x,3/4+y,1/4+z
3/4+x,3/4-y,1/4+z
loop_
_atom_site_type_symbol
_atom_site_label
_atom_site_fract_x
_atom_site_fract_y
_atom_site_fract_z
Si Si1 0.580065 0.943459 0.644360
Si Si2 0.324718 0.686101 0.704574
Si Si3 0.407305 0.304168 0.597628
Si Si4 0.684497 0.065180 0.268597
O O1 0.574823 0.809068 0.660628
O O2 0.616183 0.992349 0.746436
O O3 0.500000 0.000000 0.626671
O O4 0.621348 0.989222 0.540055
O O5 0.250000 0.750000 0.664502
O O6 0.300267 0.566465 0.752201
O O7 0.375837 0.661488 0.607676
O O8 0.484430 0.366892 0.557949
O O9 0.350207 0.380433 0.664840
#
# Coordination Sequence:
#
# PCOD8187772 Si02
#       4
#    16  16  16  16
#     4  11  25  48  76 106 149 207 260 315 393 481
#     4  11  25  48  76 106 149 207 260 315 393 481
#     4  12  28  47  77 115 157 202 263 334 402 472
#     4  12  28  47  77 115 157 202 263 334 402 472
#
# _framework density 23.420297999999999
#
# number of rings (size 3 to 8) (size 9 to 14) (size 15 to 20)
#    0.000    0.500    5.000    3.000    7.000    2.000 
#    0.000    0.000    0.000    0.000    0.000    0.000 
#    0.000    0.000    0.000    0.000    0.000    0.000 
#
# Total GULP energy -198312.802387 kJ/mol
# GULP energy per Si atom -12394.550149 kJ/mol
# Density = 2.336699 g / cm^3
# Si number density = 23.420298 Si / 1000 Ang^3
#
#
#
# Elastic Constant Matrix: (Units=GPa)
#
#
# Indices 1 2 3 4 5 6 
#
# 1 68.0083 16.9689 34.3520 0.0000 0.0000 0.0000
# 2 16.9689 100.8323 1.7309 0.0000 0.0000 0.0000
# 3 34.3520 1.7309 126.9124 0.0000 0.0000 0.0000
# 4 0.0000 0.0000 0.0000 34.6745 0.0000 0.0000
# 5 0.0000 0.0000 0.0000 0.0000 39.9913 0.0000
# 6 0.0000 0.0000 0.0000 0.0000 0.0000 31.1674
#
#
#
# Elastic Compliance Matrix: (Units=1/GPa)
#
#
# Indices 1 2 3 4 5 6 
#
# 1 0.017854 -0.002922 -0.004793 0.000000 0.000000 0.000000
# 2 -0.002922 0.010398 0.000649 0.000000 0.000000 0.000000
# 3 -0.004793 0.000649 0.009168 0.000000 0.000000 0.000000
# 4 0.000000 0.000000 0.000000 0.028840 0.000000 0.000000
# 5 0.000000 0.000000 0.000000 0.000000 0.025005 0.000000
# 6 0.000000 0.000000 0.000000 0.000000 0.000000 0.032085
#
#
# Mechanical properties :
#
#
# Convention : Reuss Voigt Hill
#
# Bulk Modulus (GPa) = 42.94021 44.65072 43.79546
# Shear Modulus (GPa) = 34.42463 37.34671 35.88567
#
# Velocity S-wave (km/s) = 3.83804 3.99761 3.91864
# Velocity P-wave (km/s) = 6.16564 6.35722 6.26216
#
# Compressibility (1/GPa) = 0.02328820
#
# Stress axis : x y z
#
# Youngs Moduli (GPa) = 56.00926 96.17124 109.07630
#
# Poissons Ratio (x) = 0.28105 0.52278
# Poissons Ratio (y) = 0.16368 -0.07081
# Poissons Ratio (z) = 0.26844 -0.06243
#
# Static dielectric constant tensor:
#      x y z
#    x 4.163790 0.000000 0.000000 
#    y 0.000000 4.288930 0.000000 
#    z 0.000000 0.000000 4.346490 
# 
# 
# High freq. dielectric constant tensor:
#      x y z
#    x 1.916500 0.000000 0.000000 
#    y 0.000000 1.932040 0.000000 
#    z 0.000000 0.000000 1.943150 
# 
# From -- ./inp_files/5480.got.cif
#   From: 2010.06.25/outbox.cif.g09.slc.cpg/sg43_3_cif.got.tgz:5480.got - 2010.06.26 16:48:59.
