data_PCOD8187920
_publ_section_title
;
Structure prediction by ZEFSAII (Michael W. Deem and Ramdas Pophale) SiO2 
 PCOD8187920
Probable space group: I M M 2
;
_chemical_formula_sum "Si O2"
_cell_formula_units_Z 64
_cell_length_a 30.098232
_cell_length_b 9.541459
_cell_length_c 14.517454
_cell_angle_alpha 90.000000
_cell_angle_beta 90.000000
_cell_angle_gamma 90.000000
_cell_volume 4169.137634
_symmetry_space_group_name_H-M "I M M 2"
_symmetry_group_IT_number 44
_symmetry_cell_setting 'orthorhombic'
loop_
_space_group_symop_operation_xyz
x,y,z
-x,-y,z
-x,y,z
x,-y,z
1/2+x,1/2+y,1/2+z
1/2-x,1/2-y,1/2+z
1/2-x,1/2+y,1/2+z
1/2+x,1/2-y,1/2+z
loop_
_atom_site_type_symbol
_atom_site_label
_atom_site_fract_x
_atom_site_fract_y
_atom_site_fract_z
Si Si1 0.951946 0.166167 0.594400
Si Si2 0.278269 0.657618 0.522283
Si Si3 0.550833 0.663195 0.885021
Si Si4 0.362348 0.664712 0.174717
Si Si5 0.370596 0.162936 0.829965
Si Si6 0.794885 0.834944 0.823553
Si Si7 0.788348 0.334422 0.204141
Si Si8 0.175354 0.655208 0.518248
O O1 0.941852 0.215783 0.490267
O O2 0.913313 0.218812 0.664020
O O3 0.000000 0.226420 0.626977
O O4 0.954544 0.000000 0.593982
O O5 0.295699 0.500000 0.544887
O O6 0.299655 0.721398 0.428058
O O7 0.289274 0.759137 0.605960
O O8 0.226915 0.650873 0.496685
O O9 0.500000 0.692209 0.854911
O O10 0.562257 0.500000 0.875674
O O11 0.583898 0.749023 0.818149
O O12 0.359773 0.500000 0.157049
O O13 0.341380 0.704654 0.273286
O O14 0.331971 0.734247 0.098106
O O15 0.335265 0.202152 0.751280
O O16 0.382756 0.000000 0.825455
O O17 0.349418 0.205723 0.927069
O O18 0.752593 0.774922 0.766093
O O19 0.787480 0.000000 0.829493
O O20 0.782812 0.500000 0.188227
O O21 0.158744 0.500000 0.547998
#
# Coordination Sequence:
#
# PCOD8187920 Si02
#       8
#     8   8   8   8   8   8   8   8
#     4   8  14  24  39  63  91 113 140 182 222 255
#     4  10  19  32  45  61  89 121 150 186 228 265
#     4   9  17  29  45  66  93 120 148 188 228 262
#     4  10  17  27  46  65  83 119 156 178 212 268
#     4  10  19  30  45  65  92 125 152 181 226 273
#     4   9  17  29  45  64  87 115 150 187 224 263
#     4  10  19  32  47  65  89 118 153 191 223 260
#     4  10  18  27  41  62  90 119 145 181 225 260
#
# _framework density 15.350897
#
# number of rings (size 3 to 8) (size 9 to 14) (size 15 to 20)
#    0.000    2.500    3.750    0.750    0.000    0.750 
#    0.000    1.250    0.000    0.375    0.000    0.875 
#    0.000    3.000    0.000    0.000    0.000    0.000 
#
# Total GULP energy -396584.984953 kJ/mol
# GULP energy per Si atom -12393.280780 kJ/mol
# Density = 1.531596 g / cm^3
# Si number density = 15.350897 Si / 1000 Ang^3
#
#
#
# Elastic Constant Matrix: (Units=GPa)
#
#
# Indices 1 2 3 4 5 6 
#
# 1 99.2710 29.3063 42.3275 0.0000 0.0000 0.0000
# 2 29.3063 33.4820 29.3836 0.0000 0.0000 0.0000
# 3 42.3275 29.3836 92.5079 0.0000 0.0000 0.0000
# 4 0.0000 0.0000 0.0000 20.9131 0.0000 0.0000
# 5 0.0000 0.0000 0.0000 0.0000 21.6578 0.0000
# 6 0.0000 0.0000 0.0000 0.0000 0.0000 19.5187
#
#
#
# Elastic Compliance Matrix: (Units=1/GPa)
#
#
# Indices 1 2 3 4 5 6 
#
# 1 0.014392 -0.009453 -0.003582 0.000000 0.000000 0.000000
# 2 -0.009453 0.047619 -0.010800 0.000000 0.000000 0.000000
# 3 -0.003582 -0.010800 0.015880 0.000000 0.000000 0.000000
# 4 0.000000 0.000000 0.000000 0.047817 0.000000 0.000000
# 5 0.000000 0.000000 0.000000 0.000000 0.046173 0.000000
# 6 0.000000 0.000000 0.000000 0.000000 0.000000 0.051233
#
#
# Mechanical properties :
#
#
# Convention : Reuss Voigt Hill
#
# Bulk Modulus (GPa) = 33.09159 47.47730 40.28445
# Shear Modulus (GPa) = 17.80271 20.70082 19.25177
#
# Velocity S-wave (km/s) = 3.40916 3.67619 3.54519
# Velocity P-wave (km/s) = 6.09098 7.00102 6.56180
#
# Compressibility (1/GPa) = 0.03021916
#
# Stress axis : x y z
#
# Youngs Moduli (GPa) = 69.48533 21.00010 62.97423
#
# Poissons Ratio (x) = 0.19851 0.22560
# Poissons Ratio (y) = 0.65683 0.68013
# Poissons Ratio (z) = 0.24892 0.22680
#
# Static dielectric constant tensor:
#      x y z
#    x 3.137480 0.000000 0.000000 
#    y 0.000000 2.741510 0.000000 
#    z 0.000000 0.000000 2.857360 
# 
# 
# High freq. dielectric constant tensor:
#      x y z
#    x 1.585970 0.000000 0.000000 
#    y 0.000000 1.566790 0.000000 
#    z 0.000000 0.000000 1.564250 
# 
# From -- ./inp_files/17084.got.cif
#   From: 2010.03.12/outbox.cif.g09.slc.cpg/sg44_9_cif.got.tgz:17084.got - 2010.04.14 02:36:11.
