data_PCOD8187469
_publ_section_title
;
Structure prediction by ZEFSAII (Michael W. Deem and Ramdas Pophale) SiO2 
 PCOD8187469
Probable space group: F D D 2
;
_chemical_formula_sum "Si O2"
_cell_formula_units_Z 72
_cell_length_a 11.911523
_cell_length_b 17.844932
_cell_length_c 12.532429
_cell_angle_alpha 90.000000
_cell_angle_beta 90.000000
_cell_angle_gamma 90.000000
_cell_volume 2663.897093
_symmetry_space_group_name_H-M "F D D 2"
_symmetry_group_IT_number 43
_symmetry_cell_setting 'orthorhombic'
loop_
_space_group_symop_operation_xyz
x,y,z
-x,-y,z
1/4-x,1/4+y,1/4+z
1/4+x,1/4-y,1/4+z
x,1/2+y,1/2+z
-x,1/2-y,1/2+z
1/4-x,3/4+y,3/4+z
1/4+x,3/4-y,3/4+z
1/2+x,y,1/2+z
1/2-x,-y,1/2+z
3/4-x,1/4+y,3/4+z
3/4+x,1/4-y,3/4+z
1/2+x,1/2+y,z
1/2-x,1/2-y,z
3/4-x,3/4+y,1/4+z
3/4+x,3/4-y,1/4+z
loop_
_atom_site_type_symbol
_atom_site_label
_atom_site_fract_x
_atom_site_fract_y
_atom_site_fract_z
Si Si1 0.094879 0.868392 0.692040
Si Si2 0.250000 0.750000 0.119863
Si Si3 0.895742 0.649391 0.956706
Si Si4 0.055084 0.216444 0.295067
Si Si5 0.708633 0.086492 0.823431
O O1 0.127052 0.829993 0.580425
O O2 0.075506 0.804387 0.781055
O O3 0.188088 0.925203 0.740533
O O4 0.979083 0.909199 0.660401
O O5 0.305046 0.815156 0.192417
O O6 0.149975 0.784134 0.045346
O O7 0.976488 0.708234 0.899022
O O8 0.172131 0.173397 0.313182
O O9 0.991590 0.180434 0.194361
#
# Coordination Sequence:
#
# PCOD8187469 Si02
#       5
#    16   8  16  16  16
#     4  12  26  46  76 120 158 209 280 352 403 488
#     4  10  22  50  74 108 160 224 266 322 432 526
#     4  11  25  48  77 111 161 217 271 334 428 490
#     4  11  25  50  75 114 161 215 271 333 419 505
#     4  11  24  48  76 116 158 210 272 336 418 484
#
# _framework density 27.028072999999999
#
# number of rings (size 3 to 8) (size 9 to 14) (size 15 to 20)
#    0.000    0.889    2.222    4.667    0.000    3.556 
#   24.000    0.000    0.000    0.000    0.000    0.000 
#    0.000    0.000    0.000    0.000    0.000    0.000 
#
# Total GULP energy -223169.883494 kJ/mol
# GULP energy per Si atom -12398.326861 kJ/mol
# Density = 2.696656 g / cm^3
# Si number density = 27.028073 Si / 1000 Ang^3
#
#
#
# Elastic Constant Matrix: (Units=GPa)
#
#
# Indices 1 2 3 4 5 6 
#
# 1 173.8024 30.0151 40.3893 0.0000 0.0000 0.0000
# 2 30.0151 90.9133 26.2392 0.0000 0.0000 0.0000
# 3 40.3893 26.2392 117.7488 0.0000 0.0000 0.0000
# 4 0.0000 0.0000 0.0000 40.8941 0.0000 0.0000
# 5 0.0000 0.0000 0.0000 0.0000 39.7195 0.0000
# 6 0.0000 0.0000 0.0000 0.0000 0.0000 42.0012
#
#
#
# Elastic Compliance Matrix: (Units=1/GPa)
#
#
# Indices 1 2 3 4 5 6 
#
# 1 0.006462 -0.001596 -0.001861 0.000000 0.000000 0.000000
# 2 -0.001596 0.012150 -0.002160 0.000000 0.000000 0.000000
# 3 -0.001861 -0.002160 0.009612 0.000000 0.000000 0.000000
# 4 0.000000 0.000000 0.000000 0.024453 0.000000 0.000000
# 5 0.000000 0.000000 0.000000 0.000000 0.025177 0.000000
# 6 0.000000 0.000000 0.000000 0.000000 0.000000 0.023809
#
#
# Mechanical properties :
#
#
# Convention : Reuss Voigt Hill
#
# Bulk Modulus (GPa) = 58.85843 63.97241 61.41542
# Shear Modulus (GPa) = 42.17275 43.57769 42.87522
#
# Velocity S-wave (km/s) = 3.95439 4.01972 3.98719
# Velocity P-wave (km/s) = 6.53251 6.72788 6.63091
#
# Compressibility (1/GPa) = 0.01698992
#
# Stress axis : x y z
#
# Youngs Moduli (GPa) = 154.75699 82.30518 104.03408
#
# Poissons Ratio (x) = 0.13138 0.19358
# Poissons Ratio (y) = 0.24704 0.22471
# Poissons Ratio (z) = 0.28796 0.17777
#
# Static dielectric constant tensor:
#      x y z
#    x 5.434380 0.000000 0.000000 
#    y 0.000000 4.717350 0.000000 
#    z 0.000000 0.000000 4.603860 
# 
# 
# High freq. dielectric constant tensor:
#      x y z
#    x 2.103780 0.000000 0.000000 
#    y 0.000000 2.081580 0.000000 
#    z 0.000000 0.000000 2.080710 
# 
# From -- ./inp_files/5625.got.cif
#   From: 2010.06.25/outbox.cif.g09.slc.cpg/sg43_3_cif.got.tgz:5625.got - 2010.06.26 16:48:59.
