data_PCOD8187309
_publ_section_title
;
Structure prediction by ZEFSAII (Michael W. Deem and Ramdas Pophale) SiO2 
 PCOD8187309
Probable space group: F D D 2
;
_chemical_formula_sum "Si O2"
_cell_formula_units_Z 56
_cell_length_a 9.316339
_cell_length_b 16.456427
_cell_length_c 13.457506
_cell_angle_alpha 90.000000
_cell_angle_beta 90.000000
_cell_angle_gamma 90.000000
_cell_volume 2063.219401
_symmetry_space_group_name_H-M "F D D 2"
_symmetry_group_IT_number 43
_symmetry_cell_setting 'orthorhombic'
loop_
_space_group_symop_operation_xyz
x,y,z
-x,-y,z
1/4-x,1/4+y,1/4+z
1/4+x,1/4-y,1/4+z
x,1/2+y,1/2+z
-x,1/2-y,1/2+z
1/4-x,3/4+y,3/4+z
1/4+x,3/4-y,3/4+z
1/2+x,y,1/2+z
1/2-x,-y,1/2+z
3/4-x,1/4+y,3/4+z
3/4+x,1/4-y,3/4+z
1/2+x,1/2+y,z
1/2-x,1/2-y,z
3/4-x,3/4+y,1/4+z
3/4+x,3/4-y,1/4+z
loop_
_atom_site_type_symbol
_atom_site_label
_atom_site_fract_x
_atom_site_fract_y
_atom_site_fract_z
Si Si1 0.250000 0.750000 0.613940
Si Si2 0.912238 0.228187 0.366053
Si Si3 0.636784 0.849455 0.293265
Si Si4 0.664028 0.675798 0.478170
O O1 0.322742 0.681110 0.683544
O O2 0.141900 0.697416 0.543486
O O3 0.750000 0.250000 0.392155
O O4 0.926654 0.157004 0.285868
O O5 0.988895 0.306969 0.322850
O O6 0.995841 0.197391 0.464895
O O7 0.767123 0.831492 0.367885
O O8 0.750000 0.750000 0.533227
#
# Coordination Sequence:
#
# PCOD8187309 Si02
#       4
#     8  16  16  16
#     4  12  24  48  84 112 154 208 268 318 402 468
#     4  11  24  44  72 114 149 196 262 320 387 462
#     4  11  22  48  78 108 153 207 255 325 387 478
#     4  10  21  46  75 103 154 202 254 317 397 461
#
# _framework density 27.142047000000002
#
# number of rings (size 3 to 8) (size 9 to 14) (size 15 to 20)
#    0.000    1.143    7.143    0.000    0.000    3.429 
#   18.000    0.000    0.000    0.000    0.000    0.000 
#    0.000    0.000    0.000    0.000    0.000    0.000 
#
# Total GULP energy -173558.318769 kJ/mol
# GULP energy per Si atom -12397.022769 kJ/mol
# Density = 2.708027 g / cm^3
# Si number density = 27.142047 Si / 1000 Ang^3
#
#
#
# Elastic Constant Matrix: (Units=GPa)
#
#
# Indices 1 2 3 4 5 6 
#
# 1 193.2209 65.1360 34.8656 0.0000 0.0000 0.0000
# 2 65.1360 192.9050 65.7830 0.0000 0.0000 0.0000
# 3 34.8656 65.7830 79.9605 0.0000 0.0000 0.0000
# 4 0.0000 0.0000 0.0000 68.4919 0.0000 0.0000
# 5 0.0000 0.0000 0.0000 0.0000 -9.7648 0.0000
# 6 0.0000 0.0000 0.0000 0.0000 0.0000 54.4924
#
#
#
# Elastic Compliance Matrix: (Units=1/GPa)
#
#
# Indices 1 2 3 4 5 6 
#
# 1 0.005937 -0.001559 -0.001306 0.000000 0.000000 0.000000
# 2 -0.001559 0.007615 -0.005585 0.000000 0.000000 0.000000
# 3 -0.001306 -0.005585 0.017670 0.000000 0.000000 0.000000
# 4 0.000000 0.000000 0.000000 0.014600 0.000000 0.000000
# 5 0.000000 0.000000 0.000000 0.000000 -0.102408 0.000000
# 6 0.000000 0.000000 0.000000 0.000000 0.000000 0.018351
#
#
# Mechanical properties :
#
#
# Convention : Reuss Voigt Hill
#
# Bulk Modulus (GPa) = 69.82300 88.62841 79.22571
# Shear Modulus (GPa) = -301.90495 42.66403 -129.62046
#
# Velocity S-wave (km/s) = -10.55807 3.96899 -6.91809
# Velocity P-wave (km/s) = 11.08376 7.32996 5.87883
#
# Compressibility (1/GPa) = 0.01432193
#
# Stress axis : x y z
#
# Youngs Moduli (GPa) = 168.44403 131.32152 56.59265
#
# Poissons Ratio (x) = 0.20477 0.07390
# Poissons Ratio (y) = 0.26265 0.31606
# Poissons Ratio (z) = 0.21995 0.73341
#
# Static dielectric constant tensor:
#      x y z
#    x 4.833350 0.000000 0.000000 
#    y 0.000000 6.158980 0.000000 
#    z 0.000000 0.000000 4.820340 
# 
# 
# High freq. dielectric constant tensor:
#      x y z
#    x 2.098030 0.000000 0.000000 
#    y 0.000000 2.128670 0.000000 
#    z 0.000000 0.000000 2.083010 
# 
# From -- ./inp_files/10805.got.cif
#   From: 2010.06.25/outbox.cif.g09.slc.cpg/sg43_6_cif.got.tgz:10805.got - 2010.06.26 16:48:59.
