data_PCOD8187180
_publ_section_title
;
Structure prediction by ZEFSAII (Michael W. Deem and Ramdas Pophale) SiO2 
 PCOD8187180
Probable space group: F D D 2
;
_chemical_formula_sum "Si O2"
_cell_formula_units_Z 80
_cell_length_a 9.108342
_cell_length_b 24.820854
_cell_length_c 15.161014
_cell_angle_alpha 90.000000
_cell_angle_beta 90.000000
_cell_angle_gamma 90.000000
_cell_volume 3427.553939
_symmetry_space_group_name_H-M "F D D 2"
_symmetry_group_IT_number 43
_symmetry_cell_setting 'orthorhombic'
loop_
_space_group_symop_operation_xyz
x,y,z
-x,-y,z
1/4-x,1/4+y,1/4+z
1/4+x,1/4-y,1/4+z
x,1/2+y,1/2+z
-x,1/2-y,1/2+z
1/4-x,3/4+y,3/4+z
1/4+x,3/4-y,3/4+z
1/2+x,y,1/2+z
1/2-x,-y,1/2+z
3/4-x,1/4+y,3/4+z
3/4+x,1/4-y,3/4+z
1/2+x,1/2+y,z
1/2-x,1/2-y,z
3/4-x,3/4+y,1/4+z
3/4+x,3/4-y,1/4+z
loop_
_atom_site_type_symbol
_atom_site_label
_atom_site_fract_x
_atom_site_fract_y
_atom_site_fract_z
Si Si1 0.915007 0.168979 0.600680
Si Si2 0.728327 0.160848 0.851677
Si Si3 0.486974 0.827991 0.460589
Si Si4 0.594718 0.847848 0.900670
Si Si5 0.000000 0.000000 0.657418
Si Si6 0.500000 0.000000 0.460623
O O1 0.829562 0.119955 0.643256
O O2 0.858281 0.167872 0.500645
O O3 0.879075 0.225708 0.648644
O O4 0.088523 0.154440 0.615272
O O5 0.766736 0.102906 0.808901
O O6 0.848345 0.182793 0.921558
O O7 0.578668 0.150842 0.903091
O O8 0.690710 0.202622 0.773375
O O9 0.389712 0.773740 0.463740
O O10 0.674496 0.797721 0.848234
#
# Coordination Sequence:
#
# PCOD8187180 Si02
#       6
#    16  16  16  16   8   8
#     4  10  21  38  60  86 120 163 209 255 311 376
#     4  11  22  39  63  93 127 163 208 266 323 375
#     4  10  21  39  62  89 122 165 208 257 314 377
#     4  11  22  38  61  91 125 163 208 265 318 374
#     4  10  21  36  62  88 119 164 214 250 301 376
#     4  10  21  38  62  88 119 168 216 252 305 390
#
# _framework density 23.340259
#
# number of rings (size 3 to 8) (size 9 to 14) (size 15 to 20)
#    0.000    1.600    0.000    6.600    0.000    3.200 
#    0.000    0.000    0.000   10.800    0.000    1.400 
#    0.000    0.000    0.000    0.000    0.000    0.000 
#
# Total GULP energy -247765.709382 kJ/mol
# GULP energy per Si atom -12388.285469 kJ/mol
# Density = 2.328714 g / cm^3
# Si number density = 23.340259 Si / 1000 Ang^3
#
#
#
# Elastic Constant Matrix: (Units=GPa)
#
#
# Indices 1 2 3 4 5 6 
#
# 1 159.8114 42.0297 7.1899 0.0000 0.0000 0.0000
# 2 42.0297 104.9556 12.8535 0.0000 0.0000 0.0000
# 3 7.1899 12.8535 62.2746 0.0000 0.0000 0.0000
# 4 0.0000 0.0000 0.0000 20.0862 0.0000 0.0000
# 5 0.0000 0.0000 0.0000 0.0000 23.1652 0.0000
# 6 0.0000 0.0000 0.0000 0.0000 0.0000 46.7668
#
#
#
# Elastic Compliance Matrix: (Units=1/GPa)
#
#
# Indices 1 2 3 4 5 6 
#
# 1 0.006997 -0.002773 -0.000235 0.000000 0.000000 0.000000
# 2 -0.002773 0.010874 -0.001924 0.000000 0.000000 0.000000
# 3 -0.000235 -0.001924 0.016482 0.000000 0.000000 0.000000
# 4 0.000000 0.000000 0.000000 0.049785 0.000000 0.000000
# 5 0.000000 0.000000 0.000000 0.000000 0.043168 0.000000
# 6 0.000000 0.000000 0.000000 0.000000 0.000000 0.021383
#
#
# Mechanical properties :
#
#
# Convention : Reuss Voigt Hill
#
# Bulk Modulus (GPa) = 40.83677 50.13196 45.48436
# Shear Modulus (GPa) = 29.99067 35.66819 32.82943
#
# Velocity S-wave (km/s) = 3.58848 3.91344 3.75448
# Velocity P-wave (km/s) = 5.89100 6.47653 6.19069
#
# Compressibility (1/GPa) = 0.02448774
#
# Stress axis : x y z
#
# Youngs Moduli (GPa) = 142.91177 91.96206 60.67127
#
# Poissons Ratio (x) = 0.25503 0.01429
# Poissons Ratio (y) = 0.39633 0.11674
# Poissons Ratio (z) = 0.03365 0.17696
#
# Static dielectric constant tensor:
#      x y z
#    x 4.550990 0.000000 0.000000 
#    y 0.000000 4.643680 0.000000 
#    z 0.000000 0.000000 4.008950 
# 
# 
# High freq. dielectric constant tensor:
#      x y z
#    x 1.927920 0.000000 0.000000 
#    y 0.000000 1.926650 0.000000 
#    z 0.000000 0.000000 1.895670 
# 
# From -- ./inp_files/12782.got.cif
#   From: 2010.06.25/outbox.cif.g09.slc.cpg/sg43_7_cif.got.tgz:12782.got - 2010.06.26 16:48:59.
