data_PCOD8187517
_publ_section_title
;
Structure prediction by ZEFSAII (Michael W. Deem and Ramdas Pophale) SiO2 
 PCOD8187517
Probable space group: F D D 2
;
_chemical_formula_sum "Si O2"
_cell_formula_units_Z 120
_cell_length_a 20.607357
_cell_length_b 27.815878
_cell_length_c 8.216038
_cell_angle_alpha 90.000000
_cell_angle_beta 90.000000
_cell_angle_gamma 90.000000
_cell_volume 4709.529341
_symmetry_space_group_name_H-M "F D D 2"
_symmetry_group_IT_number 43
_symmetry_cell_setting 'orthorhombic'
loop_
_space_group_symop_operation_xyz
x,y,z
-x,-y,z
1/4-x,1/4+y,1/4+z
1/4+x,1/4-y,1/4+z
x,1/2+y,1/2+z
-x,1/2-y,1/2+z
1/4-x,3/4+y,3/4+z
1/4+x,3/4-y,3/4+z
1/2+x,y,1/2+z
1/2-x,-y,1/2+z
3/4-x,1/4+y,3/4+z
3/4+x,1/4-y,3/4+z
1/2+x,1/2+y,z
1/2-x,1/2-y,z
3/4-x,3/4+y,1/4+z
3/4+x,3/4-y,1/4+z
loop_
_atom_site_type_symbol
_atom_site_label
_atom_site_fract_x
_atom_site_fract_y
_atom_site_fract_z
Si Si1 0.749868 0.657685 0.207270
Si Si2 0.412176 0.555080 0.214866
Si Si3 0.192690 0.378054 0.689592
Si Si4 0.712793 0.038394 0.169021
Si Si5 0.626512 0.363112 0.856081
Si Si6 0.750000 0.250000 0.513503
Si Si7 0.917240 0.237771 0.774760
Si Si8 0.913155 0.978198 0.492910
O O1 0.725544 0.666539 0.395914
O O2 0.696026 0.634984 0.085174
O O3 0.817166 0.626299 0.218995
O O4 0.771353 0.707049 0.128415
O O5 0.359570 0.591488 0.300430
O O6 0.427353 0.511270 0.336737
O O7 0.382006 0.532249 0.047200
O O8 0.261035 0.406668 0.686938
O O9 0.155607 0.382651 0.520500
O O10 0.203953 0.322487 0.738349
O O11 0.679507 0.022668 0.336504
O O12 0.661668 0.036201 0.019935
O O13 0.767737 0.000331 0.123824
O O14 0.615835 0.306375 0.867751
O O15 0.811787 0.259077 0.396363
#
# Coordination Sequence:
#
# PCOD8187517 Si02
#       8
#    16  16  16  16  16   8  16  16
#     4  11  26  49  74 111 148 201 253 322 388 477
#     4  10  23  46  77 103 147 191 255 307 388 453
#     4  10  25  42  70 113 139 195 249 314 376 466
#     4  11  25  44  75 102 152 186 261 309 385 468
#     4  11  25  44  77 103 151 193 258 313 395 463
#     4  12  30  46  68 108 154 194 252 314 394 468
#     4  11  23  45  71 109 141 202 243 325 382 472
#     4  12  26  46  72 107 147 202 246 320 382 467
#
# _framework density 25.480252
#
# number of rings (size 3 to 8) (size 9 to 14) (size 15 to 20)
#    0.000    1.067    1.333    4.000    7.467    3.200 
#    2.400    0.000    0.000    0.000    0.000    0.000 
#    0.000    0.000    0.000    0.000    0.000    0.000 
#
# Total GULP energy -371729.414864 kJ/mol
# GULP energy per Si atom -12390.980495 kJ/mol
# Density = 2.542226 g / cm^3
# Si number density = 25.480252 Si / 1000 Ang^3
#
#
#
# Elastic Constant Matrix: (Units=GPa)
#
#
# Indices 1 2 3 4 5 6 
#
# 1 143.4772 35.0842 21.9796 0.0016 0.0013 -0.0002
# 2 35.0842 93.3043 24.6011 0.0025 -0.0022 -0.0011
# 3 21.9796 24.6011 72.2865 0.0069 0.0011 -0.0008
# 4 0.0016 0.0025 0.0069 27.5493 -0.0037 -0.0011
# 5 0.0013 -0.0022 0.0011 -0.0037 31.4269 0.0006
# 6 -0.0002 -0.0011 -0.0008 -0.0011 0.0006 40.9196
#
#
#
# Elastic Compliance Matrix: (Units=1/GPa)
#
#
# Indices 1 2 3 4 5 6 
#
# 1 0.007823 -0.002543 -0.001513 0.000000 0.000000 0.000000
# 2 -0.002543 0.012601 -0.003515 0.000000 0.000001 0.000000
# 3 -0.001513 -0.003515 0.015490 -0.000003 -0.000001 0.000000
# 4 0.000000 0.000000 -0.000003 0.036299 0.000004 0.000001
# 5 0.000000 0.000001 -0.000001 0.000004 0.031820 0.000000
# 6 0.000000 0.000000 0.000000 0.000001 0.000000 0.024438
#
#
# Mechanical properties :
#
#
# Convention : Reuss Voigt Hill
#
# Bulk Modulus (GPa) = 48.14261 52.48866 50.31563
# Shear Modulus (GPa) = 33.21433 35.13935 34.17684
#
# Velocity S-wave (km/s) = 3.61436 3.71763 3.66636
# Velocity P-wave (km/s) = 6.02937 6.25077 6.14107
#
# Compressibility (1/GPa) = 0.02077162
#
# Stress axis : x y z
#
# Youngs Moduli (GPa) = 127.82240 79.36158 64.55637
#
# Poissons Ratio (x) = 0.20179 0.09770
# Poissons Ratio (y) = 0.32501 0.22693
# Poissons Ratio (z) = 0.19345 0.27897
#
# Static dielectric constant tensor:
#      x y z
#    x 4.886570 0.000000 0.000010 
#    y 0.000000 4.729150 0.000000 
#    z 0.000010 0.000000 4.271530 
# 
# 
# High freq. dielectric constant tensor:
#      x y z
#    x 2.035990 0.000000 0.000000 
#    y 0.000000 2.021040 0.000000 
#    z 0.000000 0.000000 1.993420 
# 
# From -- ./inp_files/3918.got.cif
#   From: 2010.06.25/outbox.cif.g09.slc.cpg/sg43_2_cif.got.tgz:3918.got - 2010.06.26 16:48:59.
