data_PCOD8187826
_publ_section_title
;
Structure prediction by ZEFSAII (Michael W. Deem and Ramdas Pophale) SiO2 
 PCOD8187826
Probable space group: F D D 2
;
_chemical_formula_sum "Si O2"
_cell_formula_units_Z 72
_cell_length_a 32.402918
_cell_length_b 17.543493
_cell_length_c 5.244874
_cell_angle_alpha 90.000000
_cell_angle_beta 90.000000
_cell_angle_gamma 90.000000
_cell_volume 2981.502989
_symmetry_space_group_name_H-M "F D D 2"
_symmetry_group_IT_number 43
_symmetry_cell_setting 'orthorhombic'
loop_
_space_group_symop_operation_xyz
x,y,z
-x,-y,z
1/4-x,1/4+y,1/4+z
1/4+x,1/4-y,1/4+z
x,1/2+y,1/2+z
-x,1/2-y,1/2+z
1/4-x,3/4+y,3/4+z
1/4+x,3/4-y,3/4+z
1/2+x,y,1/2+z
1/2-x,-y,1/2+z
3/4-x,1/4+y,3/4+z
3/4+x,1/4-y,3/4+z
1/2+x,1/2+y,z
1/2-x,1/2-y,z
3/4-x,3/4+y,1/4+z
3/4+x,3/4-y,1/4+z
loop_
_atom_site_type_symbol
_atom_site_label
_atom_site_fract_x
_atom_site_fract_y
_atom_site_fract_z
Si Si1 0.719319 0.881385 0.208760
Si Si2 0.441336 0.651426 0.936247
Si Si3 0.500000 0.500000 0.324299
Si Si4 0.431033 0.002990 0.198307
Si Si5 0.412228 0.229669 0.951102
O O1 0.761337 0.921803 0.111575
O O2 0.731612 0.822455 0.428397
O O3 0.687502 0.946309 0.292016
O O4 0.696360 0.833139 0.991780
O O5 0.436267 0.558674 0.946622
O O6 0.411359 0.677574 0.704795
O O7 0.431407 0.688151 0.207111
O O8 0.462153 0.536344 0.486379
O O9 0.383651 0.001957 0.113785
#
# Coordination Sequence:
#
# PCOD8187826 Si02
#       5
#    16  16   8  16  16
#     4  12  26  49  77 107 153 207 254 311 391 469
#     4  12  26  52  73 115 153 202 253 320 392 462
#     4  12  24  48  82 106 156 208 270 304 392 484
#     4  12  27  48  77 111 148 211 256 322 384 474
#     4  12  31  45  79 115 158 191 263 331 385 447
#
# _framework density 24.148896000000001
#
# number of rings (size 3 to 8) (size 9 to 14) (size 15 to 20)
#    0.000    0.000    4.444    4.000    9.333    0.000 
#    0.000    0.000    0.000    0.000    0.000    0.000 
#    0.000    0.000    0.000    0.000    0.000    0.000 
#
# Total GULP energy -223151.648925 kJ/mol
# GULP energy per Si atom -12397.313829 kJ/mol
# Density = 2.409393 g / cm^3
# Si number density = 24.148896 Si / 1000 Ang^3
#
#
#
# Elastic Constant Matrix: (Units=GPa)
#
#
# Indices 1 2 3 4 5 6 
#
# 1 182.6105 41.9474 26.9994 0.0003 -0.0007 -0.0006
# 2 41.9474 89.5145 45.1633 -0.0032 -0.0046 -0.0030
# 3 26.9994 45.1633 111.4500 -0.0036 -0.0099 -0.0057
# 4 0.0003 -0.0032 -0.0036 35.1280 -0.0036 -0.0027
# 5 -0.0007 -0.0046 -0.0099 -0.0036 24.2739 -0.0022
# 6 -0.0006 -0.0030 -0.0057 -0.0027 -0.0022 43.1019
#
#
#
# Elastic Compliance Matrix: (Units=1/GPa)
#
#
# Indices 1 2 3 4 5 6 
#
# 1 0.006151 -0.002678 -0.000405 0.000000 0.000000 0.000000
# 2 -0.002678 0.015209 -0.005514 0.000001 0.000001 0.000000
# 3 -0.000405 -0.005514 0.011305 0.000001 0.000004 0.000001
# 4 0.000000 0.000001 0.000001 0.028467 0.000004 0.000002
# 5 0.000000 0.000001 0.000004 0.000004 0.041196 0.000002
# 6 0.000000 0.000000 0.000001 0.000002 0.000002 0.023201
#
#
# Mechanical properties :
#
#
# Convention : Reuss Voigt Hill
#
# Bulk Modulus (GPa) = 64.63953 67.97724 66.30839
# Shear Modulus (GPa) = 33.81097 38.46510 36.13804
#
# Velocity S-wave (km/s) = 3.74586 3.99536 3.87262
# Velocity P-wave (km/s) = 6.74787 7.03521 6.89304
#
# Compressibility (1/GPa) = 0.01547041
#
# Stress axis : x y z
#
# Youngs Moduli (GPa) = 162.56949 65.75253 88.45450
#
# Poissons Ratio (x) = 0.17610 0.03581
# Poissons Ratio (y) = 0.43540 0.48776
# Poissons Ratio (z) = 0.06582 0.36257
#
# Static dielectric constant tensor:
#      x y z
#    x 4.643120 0.000000 0.000000 
#    y 0.000000 4.465010 0.000000 
#    z 0.000000 0.000000 4.084140 
# 
# 
# High freq. dielectric constant tensor:
#      x y z
#    x 1.975710 0.000000 0.000000 
#    y 0.000000 1.969430 0.000000 
#    z 0.000000 0.000000 1.943760 
# 
# From -- ./inp_files/1338.got.cif
#   From: 2010.06.25/outbox.cif.g09.slc.cpg/sg43_1_cif.got.tgz:1338.got - 2010.06.26 16:48:59.
