data_PCOD8187598
_publ_section_title
;
Structure prediction by ZEFSAII (Michael W. Deem and Ramdas Pophale) SiO2 
 PCOD8187598
Probable space group: F D D 2
;
_chemical_formula_sum "Si O2"
_cell_formula_units_Z 64
_cell_length_a 27.182403
_cell_length_b 4.990041
_cell_length_c 18.911593
_cell_angle_alpha 90.000000
_cell_angle_beta 90.000000
_cell_angle_gamma 90.000000
_cell_volume 2565.193163
_symmetry_space_group_name_H-M "F D D 2"
_symmetry_group_IT_number 43
_symmetry_cell_setting 'orthorhombic'
loop_
_space_group_symop_operation_xyz
x,y,z
-x,-y,z
1/4-x,1/4+y,1/4+z
1/4+x,1/4-y,1/4+z
x,1/2+y,1/2+z
-x,1/2-y,1/2+z
1/4-x,3/4+y,3/4+z
1/4+x,3/4-y,3/4+z
1/2+x,y,1/2+z
1/2-x,-y,1/2+z
3/4-x,1/4+y,3/4+z
3/4+x,1/4-y,3/4+z
1/2+x,1/2+y,z
1/2-x,1/2-y,z
3/4-x,3/4+y,1/4+z
3/4+x,3/4-y,1/4+z
loop_
_atom_site_type_symbol
_atom_site_label
_atom_site_fract_x
_atom_site_fract_y
_atom_site_fract_z
Si Si1 0.305249 0.842338 0.447170
Si Si2 0.943869 0.585524 0.353015
Si Si3 0.847716 0.348861 0.173908
Si Si4 0.715972 0.993426 0.303799
O O1 0.250000 0.750000 0.453077
O O2 0.316371 0.962908 0.525125
O O3 0.342964 0.594656 0.432071
O O4 0.309127 0.053827 0.381683
O O5 0.913602 0.310954 0.361645
O O6 0.000000 0.500000 0.367698
O O7 0.925523 0.808790 0.408786
O O8 0.825892 0.468410 0.246130
O O9 0.750000 0.750000 0.280346
O O10 0.750000 0.250000 0.310414
#
# Coordination Sequence:
#
# PCOD8187598 Si02
#       4
#    16  16  16  16
#     4  10  26  45  66  99 141 183 229 286 351 421
#     4  11  25  45  71 103 139 180 232 294 356 423
#     4  12  24  44  72 102 136 184 235 289 353 426
#     4  11  24  44  68  98 136 179 229 289 352 420
#
# _framework density 24.949387000000002
#
# number of rings (size 3 to 8) (size 9 to 14) (size 15 to 20)
#    0.000    1.000    0.000    6.000    0.000   18.000 
#    0.000    0.000    0.000    0.000    0.000    0.000 
#    0.000    0.000    0.000    0.000    0.000    0.000 
#
# Total GULP energy -198277.135652 kJ/mol
# GULP energy per Si atom -12392.320978 kJ/mol
# Density = 2.489260 g / cm^3
# Si number density = 24.949387 Si / 1000 Ang^3
#
#
#
# Elastic Constant Matrix: (Units=GPa)
#
#
# Indices 1 2 3 4 5 6 
#
# 1 161.5753 41.2951 36.8948 -0.0021 0.0000 -0.0005
# 2 41.2951 112.2329 11.3932 0.0145 0.0005 0.0016
# 3 36.8948 11.3932 138.1051 -0.0005 0.0003 -0.0007
# 4 -0.0021 0.0145 -0.0005 25.1759 0.0029 0.0035
# 5 0.0000 0.0005 0.0003 0.0029 25.4385 -0.0025
# 6 -0.0005 0.0016 -0.0007 0.0035 -0.0025 28.1970
#
#
#
# Elastic Compliance Matrix: (Units=1/GPa)
#
#
# Indices 1 2 3 4 5 6 
#
# 1 0.007216 -0.002480 -0.001723 0.000002 0.000000 0.000000
# 2 -0.002480 0.009838 -0.000149 -0.000006 0.000000 -0.000001
# 3 -0.001723 -0.000149 0.007714 0.000000 0.000000 0.000000
# 4 0.000002 -0.000006 0.000000 0.039721 -0.000005 -0.000005
# 5 0.000000 0.000000 0.000000 -0.000005 0.039310 0.000003
# 6 0.000000 -0.000001 0.000000 -0.000005 0.000003 0.035465
#
#
# Mechanical properties :
#
#
# Convention : Reuss Voigt Hill
#
# Bulk Modulus (GPa) = 62.25608 65.67552 63.96580
# Shear Modulus (GPa) = 32.61092 37.25096 34.93094
#
# Velocity S-wave (km/s) = 3.61928 3.86821 3.74581
# Velocity P-wave (km/s) = 6.51711 6.80671 6.66349
#
# Compressibility (1/GPa) = 0.01606269
#
# Stress axis : x y z
#
# Youngs Moduli (GPa) = 138.57184 101.64902 129.64243
#
# Poissons Ratio (x) = 0.25212 0.22341
# Poissons Ratio (y) = 0.34370 0.01931
# Poissons Ratio (z) = 0.23880 0.01514
#
# Static dielectric constant tensor:
#      x y z
#    x 4.711240 -0.000030 0.000000 
#    y -0.000030 3.289080 0.000010 
#    z 0.000000 0.000010 5.693680 
# 
# 
# High freq. dielectric constant tensor:
#      x y z
#    x 2.012510 0.000000 0.000000 
#    y 0.000000 1.953950 0.000000 
#    z 0.000000 0.000000 2.022080 
# 
# From -- ./inp_files/18476.got.cif
#   From: 2010.06.25/outbox.cif.g09.slc.cpg/sg43_10_cif.got.tgz:18476.got - 2010.06.26 16:48:59.
