data_PCOD8187661
_publ_section_title
;
Structure prediction by ZEFSAII (Michael W. Deem and Ramdas Pophale) SiO2 
 PCOD8187661
Probable space group: F D D 2
;
_chemical_formula_sum "Si O2"
_cell_formula_units_Z 80
_cell_length_a 12.356342
_cell_length_b 22.287185
_cell_length_c 11.926989
_cell_angle_alpha 90.000000
_cell_angle_beta 90.000000
_cell_angle_gamma 90.000000
_cell_volume 3284.550602
_symmetry_space_group_name_H-M "F D D 2"
_symmetry_group_IT_number 43
_symmetry_cell_setting 'orthorhombic'
loop_
_space_group_symop_operation_xyz
x,y,z
-x,-y,z
1/4-x,1/4+y,1/4+z
1/4+x,1/4-y,1/4+z
x,1/2+y,1/2+z
-x,1/2-y,1/2+z
1/4-x,3/4+y,3/4+z
1/4+x,3/4-y,3/4+z
1/2+x,y,1/2+z
1/2-x,-y,1/2+z
3/4-x,1/4+y,3/4+z
3/4+x,1/4-y,3/4+z
1/2+x,1/2+y,z
1/2-x,1/2-y,z
3/4-x,3/4+y,1/4+z
3/4+x,3/4-y,1/4+z
loop_
_atom_site_type_symbol
_atom_site_label
_atom_site_fract_x
_atom_site_fract_y
_atom_site_fract_z
Si Si1 0.587402 0.660899 0.862140
Si Si2 0.057375 0.730728 0.819462
Si Si3 0.021913 0.927128 0.206735
Si Si4 0.765613 0.634842 0.681422
Si Si5 0.361359 0.838322 0.610484
O O1 0.511670 0.709792 0.801246
O O2 0.695128 0.649458 0.790704
O O3 0.517411 0.600016 0.871786
O O4 0.616820 0.684855 0.985184
O O5 0.164408 0.736011 0.904036
O O6 0.103233 0.712190 0.697987
O O7 0.981375 0.678879 0.873332
O O8 0.107816 0.871200 0.209464
O O9 0.993645 0.937815 0.337721
O O10 0.921186 0.902215 0.134059
#
# Coordination Sequence:
#
# PCOD8187661 Si02
#       5
#    16  16  16  16  16
#     4  12  23  39  69  91 131 167 213 277 321 375
#     4   9  23  40  63  89 130 169 209 253 335 386
#     4   9  18  42  58  82 131 160 203 262 301 392
#     4   9  20  38  60  87 125 163 208 260 310 378
#     4  11  22  41  61  96 126 164 220 271 314 381
#
# _framework density 24.356452999999998
#
# number of rings (size 3 to 8) (size 9 to 14) (size 15 to 20)
#    1.200    0.800    2.000    1.200    2.800    0.800 
#    0.000   11.000    4.400    0.000    0.000    0.000 
#    0.000    0.000    0.000    0.000    0.000    0.000 
#
# Total GULP energy -247791.251342 kJ/mol
# GULP energy per Si atom -12389.562567 kJ/mol
# Density = 2.430102 g / cm^3
# Si number density = 24.356453 Si / 1000 Ang^3
#
#
#
# Elastic Constant Matrix: (Units=GPa)
#
#
# Indices 1 2 3 4 5 6 
#
# 1 53.8801 -15.2230 -2.5011 0.0000 0.0000 0.0000
# 2 -15.2230 30.0169 -1.8202 0.0000 0.0000 0.0000
# 3 -2.5011 -1.8202 133.6169 0.0000 0.0000 0.0000
# 4 0.0000 0.0000 0.0000 21.6186 0.0000 0.0000
# 5 0.0000 0.0000 0.0000 0.0000 37.8233 0.0000
# 6 0.0000 0.0000 0.0000 0.0000 0.0000 15.9786
#
#
#
# Elastic Compliance Matrix: (Units=1/GPa)
#
#
# Indices 1 2 3 4 5 6 
#
# 1 0.021705 0.011042 0.000557 0.000000 0.000000 0.000000
# 2 0.011042 0.038959 0.000737 0.000000 0.000000 0.000000
# 3 0.000557 0.000737 0.007505 0.000000 0.000000 0.000000
# 4 0.000000 0.000000 0.000000 0.046256 0.000000 0.000000
# 5 0.000000 0.000000 0.000000 0.000000 0.026439 0.000000
# 6 0.000000 0.000000 0.000000 0.000000 0.000000 0.062584
#
#
# Mechanical properties :
#
#
# Convention : Reuss Voigt Hill
#
# Bulk Modulus (GPa) = 10.77121 19.82500 15.29811
# Shear Modulus (GPa) = 23.84099 30.88799 27.36449
#
# Velocity S-wave (km/s) = 3.13203 3.56499 3.35550
# Velocity P-wave (km/s) = 4.18466 5.01027 4.61596
#
# Compressibility (1/GPa) = 0.09284011
#
# Stress axis : x y z
#
# Youngs Moduli (GPa) = 46.07190 25.66798 133.25248
#
# Poissons Ratio (x) = -0.28341 -0.07418
# Poissons Ratio (y) = -0.50870 -0.09826
# Poissons Ratio (z) = -0.02565 -0.01893
#
# Static dielectric constant tensor:
#      x y z
#    x 4.499980 0.000000 0.000000 
#    y 0.000000 3.995860 0.000000 
#    z 0.000000 0.000000 4.256020 
# 
# 
# High freq. dielectric constant tensor:
#      x y z
#    x 1.977470 0.000000 0.000000 
#    y 0.000000 1.944510 0.000000 
#    z 0.000000 0.000000 1.971120 
# 
# From -- ./inp_files/6048.got.cif
#   From: 2010.06.25/outbox.cif.g09.slc.cpg/sg43_4_cif.got.tgz:6048.got - 2010.06.26 16:48:59.
