data_PCOD8187688
_publ_section_title
;
Structure prediction by ZEFSAII (Michael W. Deem and Ramdas Pophale) SiO2 
 PCOD8187688
Probable space group: F D D 2
;
_chemical_formula_sum "Si O2"
_cell_formula_units_Z 128
_cell_length_a 10.006049
_cell_length_b 23.373438
_cell_length_c 26.531432
_cell_angle_alpha 90.000000
_cell_angle_beta 90.000000
_cell_angle_gamma 90.000000
_cell_volume 6205.058980
_symmetry_space_group_name_H-M "F D D 2"
_symmetry_group_IT_number 43
_symmetry_cell_setting 'orthorhombic'
loop_
_space_group_symop_operation_xyz
x,y,z
-x,-y,z
1/4-x,1/4+y,1/4+z
1/4+x,1/4-y,1/4+z
x,1/2+y,1/2+z
-x,1/2-y,1/2+z
1/4-x,3/4+y,3/4+z
1/4+x,3/4-y,3/4+z
1/2+x,y,1/2+z
1/2-x,-y,1/2+z
3/4-x,1/4+y,3/4+z
3/4+x,1/4-y,3/4+z
1/2+x,1/2+y,z
1/2-x,1/2-y,z
3/4-x,3/4+y,1/4+z
3/4+x,3/4-y,1/4+z
loop_
_atom_site_type_symbol
_atom_site_label
_atom_site_fract_x
_atom_site_fract_y
_atom_site_fract_z
Si Si1 0.013191 0.174194 0.383990
Si Si2 0.994342 0.201076 0.643435
Si Si3 0.880838 0.879416 0.033024
Si Si4 0.763755 0.654752 0.823039
Si Si5 0.755658 0.548924 0.113834
Si Si6 0.369162 0.370584 0.724245
Si Si7 0.736245 0.154751 0.684231
Si Si8 0.763191 0.924194 0.373279
O O1 0.914536 0.171802 0.335928
O O2 0.061244 0.239734 0.382872
O O3 0.936906 0.169236 0.437229
O O4 0.125000 0.125000 0.378635
O O5 0.989626 0.157451 0.597047
O O6 0.841336 0.202491 0.663772
O O7 0.061244 0.260266 0.624398
O O8 0.090625 0.182304 0.688891
O O9 0.840624 0.932304 0.068378
O O10 0.936905 0.830764 0.070041
O O11 0.750000 0.855714 0.003635
O O12 0.995909 0.899218 0.994433
O O13 0.658664 0.702491 0.843497
O O14 0.745909 0.649218 0.762836
O O15 0.760374 0.592549 0.160222
O O16 0.585464 0.171802 0.671342
#
# Coordination Sequence:
#
# PCOD8187688 Si02
#       8
#    16  16  16  16  16  16  16  16
#     4  11  23  38  58  91 133 165 202 270 335 383
#     4   9  19  39  61  87 125 161 207 273 317 379
#     4   9  20  40  60  88 117 160 220 258 311 397
#     4   9  19  38  60  87 120 161 215 253 318 386
#     4   9  19  39  61  87 125 161 207 273 317 379
#     4   9  20  40  60  88 117 160 220 258 311 397
#     4   9  19  38  60  87 120 161 215 253 318 386
#     4  11  23  38  58  91 133 165 202 270 335 383
#
# _framework density 20.628329000000001
#
# number of rings (size 3 to 8) (size 9 to 14) (size 15 to 20)
#    0.000    2.500    0.000    2.250    0.000    6.000 
#   22.500    6.250    0.000    6.000    0.000    0.000 
#    0.000    0.000    0.000    0.000    0.000    0.000 
#
# Total GULP energy -396519.639427 kJ/mol
# GULP energy per Si atom -12391.238732 kJ/mol
# Density = 2.058138 g / cm^3
# Si number density = 20.628329 Si / 1000 Ang^3
#
#
#
# Elastic Constant Matrix: (Units=GPa)
#
#
# Indices 1 2 3 4 5 6 
#
# 1 69.5198 31.3563 38.9655 0.0000 0.0000 0.0000
# 2 31.3563 128.5901 39.0707 0.0000 0.0000 0.0000
# 3 38.9655 39.0707 123.8493 0.0000 0.0000 0.0000
# 4 0.0000 0.0000 0.0000 16.1296 0.0000 0.0000
# 5 0.0000 0.0000 0.0000 0.0000 44.3812 0.0000
# 6 0.0000 0.0000 0.0000 0.0000 0.0000 31.9421
#
#
#
# Elastic Compliance Matrix: (Units=1/GPa)
#
#
# Indices 1 2 3 4 5 6 
#
# 1 0.018472 -0.003029 -0.004856 0.000000 0.000000 0.000000
# 2 -0.003029 0.009098 -0.001917 0.000000 0.000000 0.000000
# 3 -0.004856 -0.001917 0.010207 0.000000 0.000000 0.000000
# 4 0.000000 0.000000 0.000000 0.061998 0.000000 0.000000
# 5 0.000000 0.000000 0.000000 0.000000 0.022532 0.000000
# 6 0.000000 0.000000 0.000000 0.000000 0.000000 0.031307
#
#
# Mechanical properties :
#
#
# Convention : Reuss Voigt Hill
#
# Bulk Modulus (GPa) = 55.02787 60.08267 57.55527
# Shear Modulus (GPa) = 27.88996 32.66169 30.27582
#
# Velocity S-wave (km/s) = 3.68097 3.98344 3.83519
# Velocity P-wave (km/s) = 6.69327 7.09553 6.89733
#
# Compressibility (1/GPa) = 0.01817261
#
# Stress axis : x y z
#
# Youngs Moduli (GPa) = 54.13456 109.91748 97.97198
#
# Poissons Ratio (x) = 0.33293 0.47578
# Poissons Ratio (y) = 0.16397 0.18782
# Poissons Ratio (z) = 0.26289 0.21072
#
# Static dielectric constant tensor:
#      x y z
#    x 3.740100 0.000000 0.000000 
#    y 0.000000 3.513960 0.000000 
#    z 0.000000 0.000000 4.048900 
# 
# 
# High freq. dielectric constant tensor:
#      x y z
#    x 1.795470 0.000000 0.000000 
#    y 0.000000 1.790620 0.000000 
#    z 0.000000 0.000000 1.808830 
# 
# From -- ./inp_files/25342.got.cif
#   From: 2010.06.25/outbox.cif.g09.slc.cpg/sg43_13_cif.got.tgz:25342.got - 2010.06.26 16:48:59.
