data_PCOD8187462
_publ_section_title
;
Structure prediction by ZEFSAII (Michael W. Deem and Ramdas Pophale) SiO2 
 PCOD8187462
Probable space group: F D D 2
;
_chemical_formula_sum "Si O2"
_cell_formula_units_Z 104
_cell_length_a 25.183185
_cell_length_b 18.454263
_cell_length_c 9.624978
_cell_angle_alpha 90.000000
_cell_angle_beta 90.000000
_cell_angle_gamma 90.000000
_cell_volume 4473.084548
_symmetry_space_group_name_H-M "F D D 2"
_symmetry_group_IT_number 43
_symmetry_cell_setting 'orthorhombic'
loop_
_space_group_symop_operation_xyz
x,y,z
-x,-y,z
1/4-x,1/4+y,1/4+z
1/4+x,1/4-y,1/4+z
x,1/2+y,1/2+z
-x,1/2-y,1/2+z
1/4-x,3/4+y,3/4+z
1/4+x,3/4-y,3/4+z
1/2+x,y,1/2+z
1/2-x,-y,1/2+z
3/4-x,1/4+y,3/4+z
3/4+x,1/4-y,3/4+z
1/2+x,1/2+y,z
1/2-x,1/2-y,z
3/4-x,3/4+y,1/4+z
3/4+x,3/4-y,1/4+z
loop_
_atom_site_type_symbol
_atom_site_label
_atom_site_fract_x
_atom_site_fract_y
_atom_site_fract_z
Si Si1 0.527960 0.709700 0.157950
Si Si2 0.099407 0.333157 0.042662
Si Si3 0.250000 0.750000 0.893616
Si Si4 0.665558 0.020799 0.790041
Si Si5 0.149976 0.350935 0.770779
Si Si6 0.345189 0.670266 0.808010
Si Si7 0.755683 0.363639 0.126846
O O1 0.569936 0.772357 0.132566
O O2 0.479291 0.722603 0.052629
O O3 0.562771 0.638462 0.141660
O O4 0.507536 0.696231 0.318451
O O5 0.138228 0.365471 0.160777
O O6 0.137257 0.308560 0.915103
O O7 0.056508 0.387896 0.977883
O O8 0.231294 0.684391 0.992740
O O9 0.301216 0.734762 0.795447
O O10 0.646769 0.052847 0.642810
O O11 0.646702 0.937351 0.801457
O O12 0.642254 0.071796 0.910650
O O13 0.208116 0.329848 0.716727
#
# Coordination Sequence:
#
# PCOD8187462 Si02
#       7
#    16  16   8  16  16  16  16
#     4  11  25  44  71 104 144 196 243 304 379 455
#     4  12  27  42  70 109 150 180 253 308 379 430
#     4  10  22  46  74 102 142 196 252 288 380 462
#     4  12  25  48  80 106 148 195 262 296 387 455
#     4  12  26  45  78 110 144 200 249 315 364 464
#     4  11  27  42  73 106 147 193 244 317 376 447
#     4  11  23  45  74 105 140 200 248 294 374 455
#
# _framework density 23.250176
#
# number of rings (size 3 to 8) (size 9 to 14) (size 15 to 20)
#    0.000    0.615    6.154    1.846    4.308    1.231 
#    0.000    0.769    0.000    0.000    0.000    0.000 
#    0.000    0.000    0.000    0.000    0.000    0.000 
#
# Total GULP energy -322116.941420 kJ/mol
# GULP energy per Si atom -12389.113132 kJ/mol
# Density = 2.319726 g / cm^3
# Si number density = 23.250176 Si / 1000 Ang^3
#
#
#
# Elastic Constant Matrix: (Units=GPa)
#
#
# Indices 1 2 3 4 5 6 
#
# 1 103.3153 6.6820 42.2232 0.0000 0.0000 0.0000
# 2 6.6820 59.4900 0.7945 0.0001 0.0000 0.0000
# 3 42.2232 0.7945 129.5928 0.0002 0.0000 0.0000
# 4 0.0000 0.0001 0.0002 29.0420 0.0000 0.0000
# 5 0.0000 0.0000 0.0000 0.0000 27.9925 0.0000
# 6 0.0000 0.0000 0.0000 0.0000 0.0000 26.2927
#
#
#
# Elastic Compliance Matrix: (Units=1/GPa)
#
#
# Indices 1 2 3 4 5 6 
#
# 1 0.011253 -0.001215 -0.003659 0.000000 0.000000 0.000000
# 2 -0.001215 0.016942 0.000292 0.000000 0.000000 0.000000
# 3 -0.003659 0.000292 0.008907 0.000000 0.000000 0.000000
# 4 0.000000 0.000000 0.000000 0.034433 0.000000 0.000000
# 5 0.000000 0.000000 0.000000 0.000000 0.035724 0.000000
# 6 0.000000 0.000000 0.000000 0.000000 0.000000 0.038033
#
#
# Mechanical properties :
#
#
# Convention : Reuss Voigt Hill
#
# Bulk Modulus (GPa) = 35.79360 43.53306 39.66333
# Shear Modulus (GPa) = 30.53084 32.84533 31.68808
#
# Velocity S-wave (km/s) = 3.62766 3.76266 3.69578
# Velocity P-wave (km/s) = 5.74239 6.13524 5.94206
#
# Compressibility (1/GPa) = 0.02793796
#
# Stress axis : x y z
#
# Youngs Moduli (GPa) = 88.86485 59.02446 112.27347
#
# Poissons Ratio (x) = 0.07172 0.41080
# Poissons Ratio (y) = 0.10798 -0.03279
# Poissons Ratio (z) = 0.32515 -0.01724
#
# Static dielectric constant tensor:
#      x y z
#    x 4.885440 0.000000 0.000000 
#    y 0.000000 5.792900 0.000000 
#    z 0.000000 0.000000 4.521640 
# 
# 
# High freq. dielectric constant tensor:
#      x y z
#    x 1.941300 0.000000 0.000000 
#    y 0.000000 1.899600 0.000000 
#    z 0.000000 0.000000 1.917840 
# 
# From -- ./inp_files/4235.got.cif
#   From: 2010.06.25/outbox.cif.g09.slc.cpg/sg43_3_cif.got.tgz:4235.got - 2010.06.26 16:48:59.
