data_PCOD8187131
_publ_section_title
;
Structure prediction by ZEFSAII (Michael W. Deem and Ramdas Pophale) SiO2 
 PCOD8187131
Probable space group: F D D 2
;
_chemical_formula_sum "Si O2"
_cell_formula_units_Z 104
_cell_length_a 27.210452
_cell_length_b 22.669036
_cell_length_c 7.225566
_cell_angle_alpha 90.000000
_cell_angle_beta 90.000000
_cell_angle_gamma 90.000000
_cell_volume 4456.979951
_symmetry_space_group_name_H-M "F D D 2"
_symmetry_group_IT_number 43
_symmetry_cell_setting 'orthorhombic'
loop_
_space_group_symop_operation_xyz
x,y,z
-x,-y,z
1/4-x,1/4+y,1/4+z
1/4+x,1/4-y,1/4+z
x,1/2+y,1/2+z
-x,1/2-y,1/2+z
1/4-x,3/4+y,3/4+z
1/4+x,3/4-y,3/4+z
1/2+x,y,1/2+z
1/2-x,-y,1/2+z
3/4-x,1/4+y,3/4+z
3/4+x,1/4-y,3/4+z
1/2+x,1/2+y,z
1/2-x,1/2-y,z
3/4-x,3/4+y,1/4+z
3/4+x,3/4-y,1/4+z
loop_
_atom_site_type_symbol
_atom_site_label
_atom_site_fract_x
_atom_site_fract_y
_atom_site_fract_z
Si Si1 0.928566 0.686936 0.795800
Si Si2 0.995006 0.627164 0.078213
Si Si3 0.250000 0.750000 0.517371
Si Si4 0.261610 0.907160 0.729345
Si Si5 0.094262 0.187898 0.933531
Si Si6 0.396633 0.844516 0.022136
Si Si7 0.920638 0.050984 0.983108
O O1 0.961638 0.705296 0.613941
O O2 0.918598 0.742901 0.923508
O O3 0.878233 0.657503 0.722329
O O4 0.955177 0.637079 0.920223
O O5 0.045550 0.650143 0.984175
O O6 0.998221 0.558412 0.139848
O O7 0.981639 0.667366 0.258623
O O8 0.299123 0.744958 0.649781
O O9 0.203272 0.904363 0.764748
O O10 0.286276 0.845810 0.792665
O O11 0.112424 0.166853 0.736148
O O12 0.139033 0.172072 0.065743
O O13 0.368476 0.792642 0.902228
#
# Coordination Sequence:
#
# PCOD8187131 Si02
#       7
#    16  16   8  16  16  16  16
#     4  11  23  39  63  93 127 169 219 267 324 394
#     4  10  21  40  64  90 133 167 214 269 326 389
#     4  10  20  40  68  94 128 174 216 270 334 388
#     4   9  22  39  60  93 131 165 214 274 323 390
#     4  11  23  39  66  94 126 174 220 266 333 389
#     4  10  22  40  59  90 127 164 215 265 319 396
#     4  10  21  42  63  91 130 167 217 267 328 391
#
# _framework density 23.334185000000002
#
# number of rings (size 3 to 8) (size 9 to 14) (size 15 to 20)
#    0.000    1.846    0.000    3.692    4.308    1.231 
#    0.000   26.154    0.000    0.000    0.000    0.000 
#    0.000    0.000    0.000    0.000    0.000    0.000 
#
# Total GULP energy -322097.785873 kJ/mol
# GULP energy per Si atom -12388.376380 kJ/mol
# Density = 2.328108 g / cm^3
# Si number density = 23.334185 Si / 1000 Ang^3
#
#
#
# Elastic Constant Matrix: (Units=GPa)
#
#
# Indices 1 2 3 4 5 6 
#
# 1 100.9298 23.8402 26.5164 -0.0240 -0.0111 -0.0108
# 2 23.8402 71.0781 12.7342 0.1226 -0.0357 -0.0234
# 3 26.5164 12.7342 61.0281 0.1289 -0.0665 -0.0422
# 4 -0.0240 0.1226 0.1289 23.2592 -0.0457 -0.0386
# 5 -0.0111 -0.0357 -0.0665 -0.0457 54.8290 0.0053
# 6 -0.0108 -0.0234 -0.0422 -0.0386 0.0053 32.3286
#
#
#
# Elastic Compliance Matrix: (Units=1/GPa)
#
#
# Indices 1 2 3 4 5 6 
#
# 1 0.011833 -0.003166 -0.004481 0.000054 -0.000005 -0.000004
# 2 -0.003166 0.015463 -0.001851 -0.000075 0.000007 0.000008
# 3 -0.004481 -0.001851 0.018719 -0.000099 0.000021 0.000021
# 4 0.000054 -0.000075 -0.000099 0.042995 0.000036 0.000051
# 5 -0.000005 0.000007 0.000021 0.000036 0.018239 -0.000003
# 6 -0.000004 0.000008 0.000021 0.000051 -0.000003 0.030932
#
#
# Mechanical properties :
#
#
# Convention : Reuss Voigt Hill
#
# Bulk Modulus (GPa) = 37.01015 39.91305 38.46160
# Shear Modulus (GPa) = 30.08739 33.41303 31.75021
#
# Velocity S-wave (km/s) = 3.59473 3.78820 3.69273
# Velocity P-wave (km/s) = 5.75542 6.02296 5.89071
#
# Compressibility (1/GPa) = 0.02701961
#
# Stress axis : x y z
#
# Youngs Moduli (GPa) = 84.50960 64.67179 53.42115
#
# Poissons Ratio (x) = 0.20476 0.23937
# Poissons Ratio (y) = 0.26757 0.09886
# Poissons Ratio (z) = 0.37867 0.11968
#
# Static dielectric constant tensor:
#      x y z
#    x 4.558220 0.000070 0.000050 
#    y 0.000070 3.799290 -0.000100 
#    z 0.000050 -0.000100 4.351370 
# 
# 
# High freq. dielectric constant tensor:
#      x y z
#    x 1.944690 0.000000 0.000000 
#    y 0.000000 1.881370 -0.000010 
#    z 0.000000 -0.000010 1.928650 
# 
# From -- ./inp_files/3830.got.cif
#   From: 2010.06.25/outbox.cif.g09.slc.cpg/sg43_2_cif.got.tgz:3830.got - 2010.06.26 16:48:59.
