data_PCOD8187318
_publ_section_title
;
Structure prediction by ZEFSAII (Michael W. Deem and Ramdas Pophale) SiO2 
 PCOD8187318
Probable space group: F D D 2
;
_chemical_formula_sum "Si O2"
_cell_formula_units_Z 80
_cell_length_a 16.407156
_cell_length_b 22.972838
_cell_length_c 7.673111
_cell_angle_alpha 90.000000
_cell_angle_beta 90.000000
_cell_angle_gamma 90.000000
_cell_volume 2892.140840
_symmetry_space_group_name_H-M "F D D 2"
_symmetry_group_IT_number 43
_symmetry_cell_setting 'orthorhombic'
loop_
_space_group_symop_operation_xyz
x,y,z
-x,-y,z
1/4-x,1/4+y,1/4+z
1/4+x,1/4-y,1/4+z
x,1/2+y,1/2+z
-x,1/2-y,1/2+z
1/4-x,3/4+y,3/4+z
1/4+x,3/4-y,3/4+z
1/2+x,y,1/2+z
1/2-x,-y,1/2+z
3/4-x,1/4+y,3/4+z
3/4+x,1/4-y,3/4+z
1/2+x,1/2+y,z
1/2-x,1/2-y,z
3/4-x,3/4+y,1/4+z
3/4+x,3/4-y,1/4+z
loop_
_atom_site_type_symbol
_atom_site_label
_atom_site_fract_x
_atom_site_fract_y
_atom_site_fract_z
Si Si1 0.025429 0.635004 0.501220
Si Si2 0.952706 0.561575 0.207930
Si Si3 0.550291 0.247488 0.077138
Si Si4 0.687861 0.163928 0.070747
Si Si5 0.646754 0.543491 0.679142
O O1 0.018309 0.592055 0.336472
O O2 0.961966 0.688890 0.492759
O O3 0.008207 0.599055 0.680162
O O4 0.117551 0.657501 0.506082
O O5 0.936677 0.490205 0.240247
O O6 0.979275 0.568721 0.005148
O O7 0.627848 0.213908 0.992436
O O8 0.566549 0.250701 0.281915
O O9 0.468679 0.207274 0.072163
O O10 0.630698 0.107609 0.106318
#
# Coordination Sequence:
#
# PCOD8187318 Si02
#       5
#    16  16  16  16  16
#     4  10  23  40  63  93 122 165 214 253 317 387
#     4  10  23  40  63  93 122 165 214 253 317 387
#     4   9  20  37  60  88 116 165 212 251 313 382
#     4  10  22  36  64  86 124 158 200 270 304 364
#     4   9  20  37  60  88 116 165 212 251 313 382
#
# _framework density 27.661169999999998
#
# number of rings (size 3 to 8) (size 9 to 14) (size 15 to 20)
#    0.000    2.400    0.000    0.000   16.800    0.000 
#    0.000    4.000    8.800    0.000    0.000    0.000 
#    0.000    0.000    0.000    0.000    0.000    0.000 
#
# Total GULP energy -247969.263053 kJ/mol
# GULP energy per Si atom -12398.463153 kJ/mol
# Density = 2.759821 g / cm^3
# Si number density = 27.661170 Si / 1000 Ang^3
#
#
#
# Elastic Constant Matrix: (Units=GPa)
#
#
# Indices 1 2 3 4 5 6 
#
# 1 106.2214 40.5670 41.8236 0.0000 0.0000 0.0000
# 2 40.5670 134.1009 49.3080 0.0000 -0.0001 0.0000
# 3 41.8236 49.3080 124.6277 -0.0002 0.0000 0.0001
# 4 0.0000 0.0000 -0.0002 44.3368 0.0001 0.0000
# 5 0.0000 -0.0001 0.0000 0.0001 35.6659 0.0000
# 6 0.0000 0.0000 0.0001 0.0000 0.0000 48.5255
#
#
#
# Elastic Compliance Matrix: (Units=1/GPa)
#
#
# Indices 1 2 3 4 5 6 
#
# 1 0.011474 -0.002405 -0.002899 0.000000 0.000000 0.000000
# 2 -0.002405 0.009231 -0.002845 0.000000 0.000000 0.000000
# 3 -0.002899 -0.002845 0.010122 0.000000 0.000000 0.000000
# 4 0.000000 0.000000 0.000000 0.022555 0.000000 0.000000
# 5 0.000000 0.000000 0.000000 0.000000 0.028038 0.000000
# 6 0.000000 0.000000 0.000000 0.000000 0.000000 0.020608
#
#
# Mechanical properties :
#
#
# Convention : Reuss Voigt Hill
#
# Bulk Modulus (GPa) = 68.82728 69.81638 69.32183
# Shear Modulus (GPa) = 40.59460 41.25572 40.92516
#
# Velocity S-wave (km/s) = 3.83504 3.86614 3.85062
# Velocity P-wave (km/s) = 6.67430 6.72488 6.69964
#
# Compressibility (1/GPa) = 0.01452912
#
# Stress axis : x y z
#
# Youngs Moduli (GPa) = 87.15104 108.33399 98.79111
#
# Poissons Ratio (x) = 0.26056 0.28640
# Poissons Ratio (y) = 0.20961 0.28105
# Poissons Ratio (z) = 0.25266 0.30820
#
# Static dielectric constant tensor:
#      x y z
#    x 5.187980 0.000000 0.000000 
#    y 0.000000 5.626890 0.000000 
#    z 0.000000 0.000000 4.920940 
# 
# 
# High freq. dielectric constant tensor:
#      x y z
#    x 2.138350 0.000000 0.000000 
#    y 0.000000 2.153530 0.000000 
#    z 0.000000 0.000000 2.097160 
# 
# From -- ./inp_files/2772.got.cif
#   From: 2010.06.25/outbox.cif.g09.slc.cpg/sg43_2_cif.got.tgz:2772.got - 2010.06.26 16:48:59.
