data_PCOD8187511
_publ_section_title
;
Structure prediction by ZEFSAII (Michael W. Deem and Ramdas Pophale) SiO2 
 PCOD8187511
Probable space group: F D D 2
;
_chemical_formula_sum "Si O2"
_cell_formula_units_Z 104
_cell_length_a 22.427379
_cell_length_b 17.052610
_cell_length_c 11.202071
_cell_angle_alpha 90.000000
_cell_angle_beta 90.000000
_cell_angle_gamma 90.000000
_cell_volume 4284.179935
_symmetry_space_group_name_H-M "F D D 2"
_symmetry_group_IT_number 43
_symmetry_cell_setting 'orthorhombic'
loop_
_space_group_symop_operation_xyz
x,y,z
-x,-y,z
1/4-x,1/4+y,1/4+z
1/4+x,1/4-y,1/4+z
x,1/2+y,1/2+z
-x,1/2-y,1/2+z
1/4-x,3/4+y,3/4+z
1/4+x,3/4-y,3/4+z
1/2+x,y,1/2+z
1/2-x,-y,1/2+z
3/4-x,1/4+y,3/4+z
3/4+x,1/4-y,3/4+z
1/2+x,1/2+y,z
1/2-x,1/2-y,z
3/4-x,3/4+y,1/4+z
3/4+x,3/4-y,1/4+z
loop_
_atom_site_type_symbol
_atom_site_label
_atom_site_fract_x
_atom_site_fract_y
_atom_site_fract_z
Si Si1 0.896669 0.582677 0.849830
Si Si2 0.486631 0.844846 0.135041
Si Si3 0.500000 0.500000 0.487293
Si Si4 0.087517 0.282714 0.007884
Si Si5 0.181667 0.722471 0.848930
Si Si6 0.353628 0.635237 0.719924
Si Si7 0.981615 0.587357 0.376073
O O1 0.830547 0.563699 0.902449
O O2 0.901362 0.574391 0.706586
O O3 0.943158 0.521701 0.906387
O O4 0.912873 0.673801 0.879571
O O5 0.520090 0.777367 0.059059
O O6 0.528309 0.860352 0.255729
O O7 0.480705 0.926732 0.066639
O O8 0.119275 0.345433 0.092558
O O9 0.125511 0.201604 0.011963
O O10 0.250000 0.750000 0.874443
O O11 0.139859 0.798862 0.822609
O O12 0.179090 0.669916 0.726170
O O13 0.284276 0.619085 0.695800
O O14 0.000000 0.500000 0.335351
#
# Coordination Sequence:
#
# PCOD8187511 Si02
#       7
#    16  16   8  16  16  16  16
#     4  11  23  45  70 107 144 197 238 312 383 447
#     4  11  23  42  71 105 143 190 252 305 375 444
#     4  10  24  44  68 102 148 192 240 300 388 440
#     4  11  26  43  71 105 147 189 254 308 368 457
#     4   9  21  46  72  98 144 196 239 301 386 440
#     4  10  23  46  67 104 139 197 243 301 366 451
#     4   9  19  41  73  94 135 192 241 290 373 450
#
# _framework density 24.275359000000002
#
# number of rings (size 3 to 8) (size 9 to 14) (size 15 to 20)
#    0.000    2.154    3.077    0.000    8.615    0.000 
#   16.615    0.000    0.000    0.000    0.000    0.000 
#    0.000    0.000    0.000    0.000    0.000    0.000 
#
# Total GULP energy -322111.202657 kJ/mol
# GULP energy per Si atom -12388.892410 kJ/mol
# Density = 2.422011 g / cm^3
# Si number density = 24.275359 Si / 1000 Ang^3
#
#
#
# Elastic Constant Matrix: (Units=GPa)
#
#
# Indices 1 2 3 4 5 6 
#
# 1 82.6095 43.5551 39.1084 0.0000 0.0000 0.0000
# 2 43.5551 77.5248 61.1745 0.0000 0.0000 0.0000
# 3 39.1084 61.1745 164.4017 0.0000 0.0000 0.0000
# 4 0.0000 0.0000 0.0000 29.8005 0.0000 0.0000
# 5 0.0000 0.0000 0.0000 0.0000 37.9664 0.0000
# 6 0.0000 0.0000 0.0000 0.0000 0.0000 24.4635
#
#
#
# Elastic Compliance Matrix: (Units=1/GPa)
#
#
# Indices 1 2 3 4 5 6 
#
# 1 0.017257 -0.009140 -0.000704 0.000000 0.000000 0.000000
# 2 -0.009140 0.023102 -0.006422 0.000000 0.000000 0.000000
# 3 -0.000704 -0.006422 0.008640 0.000000 0.000000 0.000000
# 4 0.000000 0.000000 0.000000 0.033556 0.000000 0.000000
# 5 0.000000 0.000000 0.000000 0.000000 0.026339 0.000000
# 6 0.000000 0.000000 0.000000 0.000000 0.000000 0.040877
#
#
# Mechanical properties :
#
#
# Convention : Reuss Voigt Hill
#
# Bulk Modulus (GPa) = 60.72869 68.02354 64.37612
# Shear Modulus (GPa) = 26.62508 30.49262 28.55885
#
# Velocity S-wave (km/s) = 3.31538 3.54802 3.43367
# Velocity P-wave (km/s) = 6.30290 6.69829 6.50360
#
# Compressibility (1/GPa) = 0.01646668
#
# Stress axis : x y z
#
# Youngs Moduli (GPa) = 57.94596 43.28695 115.74278
#
# Poissons Ratio (x) = 0.39564 0.08151
# Poissons Ratio (y) = 0.52962 0.74330
# Poissons Ratio (z) = 0.04081 0.27799
#
# Static dielectric constant tensor:
#      x y z
#    x 4.685450 0.000000 0.000000 
#    y 0.000000 4.314230 0.000000 
#    z 0.000000 0.000000 4.427350 
# 
# 
# High freq. dielectric constant tensor:
#      x y z
#    x 1.972270 0.000000 0.000000 
#    y 0.000000 1.940580 0.000000 
#    z 0.000000 0.000000 1.965990 
# 
# From -- ./inp_files/7962.got.cif
#   From: 2010.06.25/outbox.cif.g09.slc.cpg/sg43_4_cif.got.tgz:7962.got - 2010.06.26 16:48:59.
