data_PCOD8187869
_publ_section_title
;
Structure prediction by ZEFSAII (Michael W. Deem and Ramdas Pophale) SiO2 
 PCOD8187869
Probable space group: I M M 2
;
_chemical_formula_sum "Si O2"
_cell_formula_units_Z 40
_cell_length_a 8.678610
_cell_length_b 26.248686
_cell_length_c 9.611886
_cell_angle_alpha 90.000000
_cell_angle_beta 90.000000
_cell_angle_gamma 90.000000
_cell_volume 2189.607900
_symmetry_space_group_name_H-M "I M M 2"
_symmetry_group_IT_number 44
_symmetry_cell_setting 'orthorhombic'
loop_
_space_group_symop_operation_xyz
x,y,z
-x,-y,z
-x,y,z
x,-y,z
1/2+x,1/2+y,1/2+z
1/2-x,1/2-y,1/2+z
1/2-x,1/2+y,1/2+z
1/2+x,1/2-y,1/2+z
loop_
_atom_site_type_symbol
_atom_site_label
_atom_site_fract_x
_atom_site_fract_y
_atom_site_fract_z
Si Si1 0.679029 0.703876 0.043270
Si Si2 0.817922 0.500000 0.724425
Si Si3 0.177842 0.900766 0.244427
Si Si4 0.181573 0.000000 0.533904
Si Si5 0.179720 0.601012 0.044248
Si Si6 0.323820 0.711488 0.724666
O O1 0.500000 0.691115 0.045722
O O2 0.764330 0.654628 0.109695
O O3 0.714031 0.753189 0.134429
O O4 0.731040 0.714439 0.884797
O O5 0.745583 0.448478 0.654826
O O6 0.000000 0.500000 0.706007
O O7 0.767392 0.500000 0.885292
O O8 0.279430 0.896842 0.382290
O O9 0.193242 0.846546 0.166157
O O10 0.000000 0.911092 0.284532
O O11 0.235736 0.948377 0.613491
O O12 0.000000 0.000000 0.514488
O O13 0.000000 0.594578 0.068783
O O14 0.500000 0.729995 0.709537
#
# Coordination Sequence:
#
# PCOD8187869 Si02
#       6
#     8   4   8   4   8   8
#     4  10  20  33  49  70  96 126 159 195 236 280
#     4  10  16  22  36  60  87 116 151 186 229 280
#     4   9  16  27  41  60  89 120 151 189 233 277
#     4  10  16  24  38  58  87 118 149 186 231 278
#     4  10  17  26  41  62  89 119 152 189 231 277
#     4   9  19  33  48  69  95 124 159 195 232 279
#
# _framework density 18.268108999999999
#
# number of rings (size 3 to 8) (size 9 to 14) (size 15 to 20)
#    0.000    2.400    0.000    8.400    0.000    4.800 
#    0.000    0.000    0.000    0.000    0.000    1.400 
#    0.000    6.400    0.000    0.000    0.000    0.000 
#
# Total GULP energy -247826.239074 kJ/mol
# GULP energy per Si atom -12391.311954 kJ/mol
# Density = 1.822653 g / cm^3
# Si number density = 18.268109 Si / 1000 Ang^3
#
#
#
# Elastic Constant Matrix: (Units=GPa)
#
#
# Indices 1 2 3 4 5 6 
#
# 1 92.6961 55.2816 17.6986 0.0003 -0.0028 -0.0002
# 2 55.2816 170.2754 31.9955 -0.0006 -0.0010 -0.0001
# 3 17.6986 31.9955 26.0250 0.0104 0.0058 0.0018
# 4 0.0003 -0.0006 0.0104 17.3240 0.0000 0.0002
# 5 -0.0028 -0.0010 0.0058 0.0000 15.0641 0.0010
# 6 -0.0002 -0.0001 0.0018 0.0002 0.0010 39.3716
#
#
#
# Elastic Compliance Matrix: (Units=1/GPa)
#
#
# Indices 1 2 3 4 5 6 
#
# 1 0.013874 -0.003552 -0.005068 0.000003 0.000004 0.000000
# 2 -0.003552 0.008546 -0.008092 0.000005 0.000003 0.000000
# 3 -0.005068 -0.008092 0.051819 -0.000031 -0.000022 -0.000002
# 4 0.000003 0.000005 -0.000031 0.057723 0.000000 0.000000
# 5 0.000004 0.000003 -0.000022 0.000000 0.066383 -0.000002
# 6 0.000000 0.000000 -0.000002 0.000000 -0.000002 0.025399
#
#
# Mechanical properties :
#
#
# Convention : Reuss Voigt Hill
#
# Bulk Modulus (GPa) = 24.50022 55.43863 39.96943
# Shear Modulus (GPa) = 18.46559 26.62001 22.54280
#
# Velocity S-wave (km/s) = 3.18277 3.82145 3.51664
# Velocity P-wave (km/s) = 5.19108 7.06289 6.19805
#
# Compressibility (1/GPa) = 0.04081596
#
# Stress axis : x y z
#
# Youngs Moduli (GPa) = 72.07762 117.00756 19.29785
#
# Poissons Ratio (x) = 0.41561 0.09781
# Poissons Ratio (y) = 0.25602 0.15615
# Poissons Ratio (z) = 0.36531 0.94678
#
# Static dielectric constant tensor:
#      x y z
#    x 3.345610 0.000000 0.000000 
#    y 0.000000 4.592460 -0.000010 
#    z 0.000000 -0.000010 2.599320 
# 
# 
# High freq. dielectric constant tensor:
#      x y z
#    x 1.720990 0.000000 0.000000 
#    y 0.000000 1.746260 0.000000 
#    z 0.000000 0.000000 1.606840 
# 
# From -- ./inp_files/11199.got.cif
#   From: 2010.03.12/outbox.cif.g09.slc.cpg/sg44_6_cif.got.tgz:11199.got - 2010.04.14 02:36:11.
