data_PCOD8187440
_publ_section_title
;
Structure prediction by ZEFSAII (Michael W. Deem and Ramdas Pophale) SiO2 
 PCOD8187440
Probable space group: F D D 2
;
_chemical_formula_sum "Si O2"
_cell_formula_units_Z 72
_cell_length_a 21.812869
_cell_length_b 22.319704
_cell_length_c 5.927101
_cell_angle_alpha 90.000000
_cell_angle_beta 90.000000
_cell_angle_gamma 90.000000
_cell_volume 2885.649304
_symmetry_space_group_name_H-M "F D D 2"
_symmetry_group_IT_number 43
_symmetry_cell_setting 'orthorhombic'
loop_
_space_group_symop_operation_xyz
x,y,z
-x,-y,z
1/4-x,1/4+y,1/4+z
1/4+x,1/4-y,1/4+z
x,1/2+y,1/2+z
-x,1/2-y,1/2+z
1/4-x,3/4+y,3/4+z
1/4+x,3/4-y,3/4+z
1/2+x,y,1/2+z
1/2-x,-y,1/2+z
3/4-x,1/4+y,3/4+z
3/4+x,1/4-y,3/4+z
1/2+x,1/2+y,z
1/2-x,1/2-y,z
3/4-x,3/4+y,1/4+z
3/4+x,3/4-y,1/4+z
loop_
_atom_site_type_symbol
_atom_site_label
_atom_site_fract_x
_atom_site_fract_y
_atom_site_fract_z
Si Si1 0.372240 0.294547 0.569750
Si Si2 0.059532 0.778613 0.403808
Si Si3 0.171087 0.338053 0.065311
Si Si4 0.548240 0.169796 0.688454
Si Si5 0.500000 0.000000 0.015454
O O1 0.406948 0.235866 0.666225
O O2 0.398315 0.351156 0.702865
O O3 0.388135 0.309377 0.308695
O O4 0.299942 0.282429 0.604604
O O5 0.109707 0.798836 0.588250
O O6 0.028030 0.719400 0.504527
O O7 0.008099 0.830340 0.367458
O O8 0.195312 0.354951 0.317552
O O9 0.222081 0.302250 0.923932
#
# Coordination Sequence:
#
# PCOD8187440 Si02
#       5
#    16  16  16  16   8
#     4  10  23  45  71 108 140 193 243 306 371 444
#     4  10  22  44  69 104 144 183 249 300 365 442
#     4  10  25  45  70 109 147 188 249 300 370 449
#     4  11  22  44  76 102 140 198 240 304 372 442
#     4  10  24  50  74 110 160 190 250 320 372 444
#
# _framework density 24.951056000000001
#
# number of rings (size 3 to 8) (size 9 to 14) (size 15 to 20)
#    0.000    1.778    2.222    0.000    3.111    3.556 
#   12.000    5.556    0.000    0.000    0.000    0.000 
#    0.000    0.000    0.000    0.000    0.000    0.000 
#
# Total GULP energy -223036.870512 kJ/mol
# GULP energy per Si atom -12390.937251 kJ/mol
# Density = 2.489427 g / cm^3
# Si number density = 24.951056 Si / 1000 Ang^3
#
#
#
# Elastic Constant Matrix: (Units=GPa)
#
#
# Indices 1 2 3 4 5 6 
#
# 1 166.2142 37.6068 30.4887 0.0082 -0.0402 -0.0408
# 2 37.6068 74.1911 6.7505 0.0136 -0.0858 -0.0345
# 3 30.4887 6.7505 55.4666 0.0815 -0.1379 -0.0578
# 4 0.0082 0.0136 0.0815 39.8125 -0.0107 -0.0116
# 5 -0.0402 -0.0858 -0.1379 -0.0107 33.9360 0.0096
# 6 -0.0408 -0.0345 -0.0578 -0.0116 0.0096 38.5174
#
#
#
# Elastic Compliance Matrix: (Units=1/GPa)
#
#
# Indices 1 2 3 4 5 6 
#
# 1 0.007474 -0.003453 -0.003688 0.000007 -0.000015 -0.000001
# 2 -0.003453 0.015225 0.000045 -0.000005 0.000035 0.000010
# 3 -0.003688 0.000045 0.020051 -0.000040 0.000077 0.000026
# 4 0.000007 -0.000005 -0.000040 0.025118 0.000008 0.000007
# 5 -0.000015 0.000035 0.000077 0.000008 0.029468 -0.000007
# 6 -0.000001 0.000010 0.000026 0.000007 -0.000007 0.025962
#
#
# Mechanical properties :
#
#
# Convention : Reuss Voigt Hill
#
# Bulk Modulus (GPa) = 35.01635 49.50709 42.26172
# Shear Modulus (GPa) = 34.01151 37.18823 35.59987
#
# Velocity S-wave (km/s) = 3.69606 3.86482 3.78138
# Velocity P-wave (km/s) = 5.68146 6.30877 6.00331
#
# Compressibility (1/GPa) = 0.02855809
#
# Stress axis : x y z
#
# Youngs Moduli (GPa) = 133.79531 65.68175 49.87298
#
# Poissons Ratio (x) = 0.22680 0.18394
# Poissons Ratio (y) = 0.46199 -0.00225
# Poissons Ratio (z) = 0.49346 -0.00297
#
# Static dielectric constant tensor:
#      x y z
#    x 4.638640 0.001170 0.001260 
#    y 0.001170 4.676240 -0.002050 
#    z 0.001260 -0.002050 4.609160 
# 
# 
# High freq. dielectric constant tensor:
#      x y z
#    x 1.996460 0.000010 0.000010 
#    y 0.000010 1.994800 -0.000020 
#    z 0.000010 -0.000020 1.978560 
# 
# From -- ./inp_files/741.got.cif
#   From: 2010.06.25/outbox.cif.g09.slc.cpg/sg43_1_cif.got.tgz:741.got - 2010.06.26 16:48:59.
