data_PCOD8187315
_publ_section_title
;
Structure prediction by ZEFSAII (Michael W. Deem and Ramdas Pophale) SiO2 
 PCOD8187315
Probable space group: F D D 2
;
_chemical_formula_sum "Si O2"
_cell_formula_units_Z 64
_cell_length_a 32.536144
_cell_length_b 5.233908
_cell_length_c 17.861950
_cell_angle_alpha 90.000000
_cell_angle_beta 90.000000
_cell_angle_gamma 90.000000
_cell_volume 3041.732621
_symmetry_space_group_name_H-M "F D D 2"
_symmetry_group_IT_number 43
_symmetry_cell_setting 'orthorhombic'
loop_
_space_group_symop_operation_xyz
x,y,z
-x,-y,z
1/4-x,1/4+y,1/4+z
1/4+x,1/4-y,1/4+z
x,1/2+y,1/2+z
-x,1/2-y,1/2+z
1/4-x,3/4+y,3/4+z
1/4+x,3/4-y,3/4+z
1/2+x,y,1/2+z
1/2-x,-y,1/2+z
3/4-x,1/4+y,3/4+z
3/4+x,1/4-y,3/4+z
1/2+x,1/2+y,z
1/2-x,1/2-y,z
3/4-x,3/4+y,1/4+z
3/4+x,3/4-y,1/4+z
loop_
_atom_site_type_symbol
_atom_site_label
_atom_site_fract_x
_atom_site_fract_y
_atom_site_fract_z
Si Si1 0.351390 0.548562 0.678060
Si Si2 0.275449 0.009219 0.076104
Si Si3 0.565784 0.182612 0.169689
Si Si4 0.168760 0.935506 0.846357
O O1 0.313808 0.447312 0.628991
O O2 0.385189 0.323815 0.688426
O O3 0.373699 0.787030 0.635824
O O4 0.335197 0.628166 0.759259
O O5 0.250000 0.750000 0.071769
O O6 0.250000 0.250000 0.109300
O O7 0.289767 0.096708 0.994395
O O8 0.555814 0.451331 0.131146
O O9 0.555257 0.944994 0.113727
#
# Coordination Sequence:
#
# PCOD8187315 Si02
#       4
#    16  16  16  16
#     4  10  23  41  68  99 128 172 232 269 319 401
#     4  12  27  44  67  99 143 175 211 282 353 385
#     4  10  22  42  64  97 122 182 218 267 316 412
#     4  10  22  35  73  90 128 159 242 264 310 374
#
# _framework density 21.040638999999999
#
# number of rings (size 3 to 8) (size 9 to 14) (size 15 to 20)
#    1.500    0.000    2.500    1.500   10.500    0.000 
#    0.000    7.500    0.000    0.000    0.000    0.000 
#    0.000    0.000    0.000    0.000    0.000    0.000 
#
# Total GULP energy -198307.750418 kJ/mol
# GULP energy per Si atom -12394.234401 kJ/mol
# Density = 2.099275 g / cm^3
# Si number density = 21.040639 Si / 1000 Ang^3
#
#
#
# Elastic Constant Matrix: (Units=GPa)
#
#
# Indices 1 2 3 4 5 6 
#
# 1 51.9619 27.1330 2.7988 0.0046 -0.0024 -0.0074
# 2 27.1330 134.0983 16.5983 -0.0031 -0.0064 -0.0103
# 3 2.7988 16.5983 105.0756 0.0007 -0.0027 -0.0051
# 4 0.0046 -0.0031 0.0007 17.2887 -0.0049 -0.0040
# 5 -0.0024 -0.0064 -0.0027 -0.0049 25.5239 0.0007
# 6 -0.0074 -0.0103 -0.0051 -0.0040 0.0007 20.0492
#
#
#
# Elastic Compliance Matrix: (Units=1/GPa)
#
#
# Indices 1 2 3 4 5 6 
#
# 1 0.021520 -0.004369 0.000117 -0.000007 0.000001 0.000006
# 2 -0.004369 0.008493 -0.001225 0.000003 0.000002 0.000002
# 3 0.000117 -0.001225 0.009707 -0.000001 0.000001 0.000002
# 4 -0.000007 0.000003 -0.000001 0.057841 0.000011 0.000011
# 5 0.000001 0.000002 0.000001 0.000011 0.039179 -0.000001
# 6 0.000006 0.000002 0.000002 0.000011 -0.000001 0.049877
#
#
# Mechanical properties :
#
#
# Convention : Reuss Voigt Hill
#
# Bulk Modulus (GPa) = 34.76329 42.68843 38.72586
# Shear Modulus (GPa) = 24.13589 28.87939 26.50764
#
# Velocity S-wave (km/s) = 3.39057 3.70882 3.55326
# Velocity P-wave (km/s) = 5.64675 6.21877 5.93965
#
# Compressibility (1/GPa) = 0.02876598
#
# Stress axis : x y z
#
# Youngs Moduli (GPa) = 46.46883 117.74653 103.01439
#
# Poissons Ratio (x) = 0.51440 -0.01204
# Poissons Ratio (y) = 0.20301 0.12621
# Poissons Ratio (z) = -0.00543 0.14426
#
# Static dielectric constant tensor:
#      x y z
#    x 3.627420 0.000010 0.000000 
#    y 0.000010 3.608440 -0.000010 
#    z 0.000000 -0.000010 3.656730 
# 
# 
# High freq. dielectric constant tensor:
#      x y z
#    x 1.806440 0.000000 0.000000 
#    y 0.000000 1.820150 0.000000 
#    z 0.000000 0.000000 1.822900 
# 
# From -- ./inp_files/12147.got.cif
#   From: 2010.06.25/outbox.cif.g09.slc.cpg/sg43_7_cif.got.tgz:12147.got - 2010.06.26 16:48:59.
