data_PCOD8187017
_publ_section_title
;
Structure prediction by ZEFSAII (Michael W. Deem and Ramdas Pophale) SiO2 
 PCOD8187017
Probable space group: F D D 2
;
_chemical_formula_sum "Si O2"
_cell_formula_units_Z 120
_cell_length_a 30.685674
_cell_length_b 19.783221
_cell_length_c 9.906470
_cell_angle_alpha 90.000000
_cell_angle_beta 90.000000
_cell_angle_gamma 90.000000
_cell_volume 6013.836243
_symmetry_space_group_name_H-M "F D D 2"
_symmetry_group_IT_number 43
_symmetry_cell_setting 'orthorhombic'
loop_
_space_group_symop_operation_xyz
x,y,z
-x,-y,z
1/4-x,1/4+y,1/4+z
1/4+x,1/4-y,1/4+z
x,1/2+y,1/2+z
-x,1/2-y,1/2+z
1/4-x,3/4+y,3/4+z
1/4+x,3/4-y,3/4+z
1/2+x,y,1/2+z
1/2-x,-y,1/2+z
3/4-x,1/4+y,3/4+z
3/4+x,1/4-y,3/4+z
1/2+x,1/2+y,z
1/2-x,1/2-y,z
3/4-x,3/4+y,1/4+z
3/4+x,3/4-y,1/4+z
loop_
_atom_site_type_symbol
_atom_site_label
_atom_site_fract_x
_atom_site_fract_y
_atom_site_fract_z
Si Si1 0.656252 0.986705 0.166880
Si Si2 0.611247 0.118656 0.241151
Si Si3 0.750000 0.750000 0.667093
Si Si4 0.667948 0.696950 0.525268
Si Si5 0.970793 0.368966 0.065052
Si Si6 0.669528 0.489005 0.166787
Si Si7 0.216622 0.003605 0.901865
Si Si8 0.198221 0.563349 0.922723
O O1 0.625518 0.039640 0.250150
O O2 0.697765 0.974779 0.261787
O O3 0.667607 0.019629 0.021875
O O4 0.636614 0.911923 0.132367
O O5 0.644696 0.158151 0.146372
O O6 0.561770 0.116710 0.188551
O O7 0.706042 0.745734 0.578401
O O8 0.755619 0.685217 0.761050
O O9 0.632698 0.737882 0.437083
O O10 0.690429 0.642492 0.428939
O O11 0.010290 0.324487 0.121670
O O12 0.942246 0.333371 0.947297
O O13 0.689762 0.542719 0.269352
O O14 0.679168 0.512336 0.014423
O O15 0.251556 0.950290 0.959902
#
# Coordination Sequence:
#
# PCOD8187017 Si02
#       8
#    16  16   8  16  16  16  16  16
#     4  11  20  37  60  89 122 162 213 262 315 379
#     4  10  20  37  61  87 123 162 212 264 315 372
#     4  12  22  36  62 100 124 156 218 270 324 374
#     4  10  21  36  61  89 118 164 204 265 309 372
#     4  10  21  35  65  91 121 158 212 262 309 372
#     4  10  21  38  62  91 124 163 205 258 311 385
#     4  11  21  37  61  93 123 164 212 252 317 380
#     4  10  19  38  63  85 119 159 215 255 304 372
#
# _framework density 19.953984999999999
#
# number of rings (size 3 to 8) (size 9 to 14) (size 15 to 20)
#    0.000    1.600    4.000    4.800    3.733    0.000 
#    2.400    0.000    0.000    0.000    0.000    0.000 
#    0.000    0.000    0.000    0.000    0.000    0.000 
#
# Total GULP energy -371880.096016 kJ/mol
# GULP energy per Si atom -12396.003201 kJ/mol
# Density = 1.990857 g / cm^3
# Si number density = 19.953985 Si / 1000 Ang^3
#
#
#
# Elastic Constant Matrix: (Units=GPa)
#
#
# Indices 1 2 3 4 5 6 
#
# 1 119.1763 54.7253 39.4527 0.0000 0.0000 0.0000
# 2 54.7253 86.2093 33.3914 0.0000 0.0000 0.0000
# 3 39.4527 33.3914 71.2871 0.0000 0.0000 0.0000
# 4 0.0000 0.0000 0.0000 24.4721 0.0000 0.0000
# 5 0.0000 0.0000 0.0000 0.0000 24.5465 0.0000
# 6 0.0000 0.0000 0.0000 0.0000 0.0000 32.2866
#
#
#
# Elastic Compliance Matrix: (Units=1/GPa)
#
#
# Indices 1 2 3 4 5 6 
#
# 1 0.012702 -0.006524 -0.003974 0.000000 0.000000 0.000000
# 2 -0.006524 0.017522 -0.004597 0.000000 0.000000 0.000000
# 3 -0.003974 -0.004597 0.018380 0.000000 0.000000 0.000000
# 4 0.000000 0.000000 0.000000 0.040863 0.000000 0.000000
# 5 0.000000 0.000000 0.000000 0.000000 0.040739 0.000000
# 6 0.000000 0.000000 0.000000 0.000000 0.000000 0.030973
#
#
# Mechanical properties :
#
#
# Convention : Reuss Voigt Hill
#
# Bulk Modulus (GPa) = 54.30421 59.09015 56.69718
# Shear Modulus (GPa) = 25.31568 26.20127 25.75848
#
# Velocity S-wave (km/s) = 3.56575 3.62758 3.59680
# Velocity P-wave (km/s) = 6.65031 6.87192 6.76202
#
# Compressibility (1/GPa) = 0.01841478
#
# Stress axis : x y z
#
# Youngs Moduli (GPa) = 78.72552 57.07254 54.40657
#
# Poissons Ratio (x) = 0.37235 0.21621
# Poissons Ratio (y) = 0.51362 0.25008
# Poissons Ratio (z) = 0.31285 0.26233
#
# Static dielectric constant tensor:
#      x y z
#    x 3.831090 0.000000 0.000000 
#    y 0.000000 3.668240 0.000000 
#    z 0.000000 0.000000 3.399930 
# 
# 
# High freq. dielectric constant tensor:
#      x y z
#    x 1.785710 0.000000 0.000000 
#    y 0.000000 1.763330 0.000000 
#    z 0.000000 0.000000 1.755950 
# 
# From -- ./inp_files/8030.got.cif
#   From: 2010.06.25/outbox.cif.g09.slc.cpg/sg43_5_cif.got.tgz:8030.got - 2010.06.26 16:48:59.
