data_PCOD8187281
_publ_section_title
;
Structure prediction by ZEFSAII (Michael W. Deem and Ramdas Pophale) SiO2 
 PCOD8187281
Probable space group: F D D 2
;
_chemical_formula_sum "Si O2"
_cell_formula_units_Z 88
_cell_length_a 14.573799
_cell_length_b 26.974237
_cell_length_c 11.543742
_cell_angle_alpha 90.000000
_cell_angle_beta 90.000000
_cell_angle_gamma 90.000000
_cell_volume 4538.042473
_symmetry_space_group_name_H-M "F D D 2"
_symmetry_group_IT_number 43
_symmetry_cell_setting 'orthorhombic'
loop_
_space_group_symop_operation_xyz
x,y,z
-x,-y,z
1/4-x,1/4+y,1/4+z
1/4+x,1/4-y,1/4+z
x,1/2+y,1/2+z
-x,1/2-y,1/2+z
1/4-x,3/4+y,3/4+z
1/4+x,3/4-y,3/4+z
1/2+x,y,1/2+z
1/2-x,-y,1/2+z
3/4-x,1/4+y,3/4+z
3/4+x,1/4-y,3/4+z
1/2+x,1/2+y,z
1/2-x,1/2-y,z
3/4-x,3/4+y,1/4+z
3/4+x,3/4-y,1/4+z
loop_
_atom_site_type_symbol
_atom_site_label
_atom_site_fract_x
_atom_site_fract_y
_atom_site_fract_z
Si Si1 0.336461 0.574750 0.201680
Si Si2 0.250000 0.750000 0.236066
Si Si3 0.983635 0.157091 0.677192
Si Si4 0.366044 0.068890 0.109545
Si Si5 0.034526 0.583235 0.805795
Si Si6 0.824611 0.463496 0.633615
O O1 0.254929 0.575598 0.296733
O O2 0.316279 0.613596 0.100976
O O3 0.431413 0.588002 0.262411
O O4 0.344081 0.521372 0.143012
O O5 0.330012 0.770317 0.317794
O O6 0.206014 0.793055 0.157901
O O7 0.080012 0.150667 0.746305
O O8 0.931576 0.104572 0.682629
O O9 0.922634 0.198089 0.746753
O O10 0.277332 0.050410 0.183396
O O11 0.099415 0.567607 0.700747
#
# Coordination Sequence:
#
# PCOD8187281 Si02
#       6
#    16   8  16  16  16  16
#     4  12  23  42  69  95 126 179 222 277 332 404
#     4  12  20  42  64  96 124 170 226 260 324 410
#     4  10  21  43  60  94 125 169 215 268 328 395
#     4  10  23  39  66  89 132 169 209 273 322 402
#     4  12  24  39  69  95 130 170 224 274 336 397
#     4  10  25  42  63  94 135 163 221 276 329 391
#
# _framework density 19.391621000000001
#
# number of rings (size 3 to 8) (size 9 to 14) (size 15 to 20)
#    1.091    0.000    5.455    0.000    5.091    1.455 
#    0.000    0.000    0.000    0.000    0.000    0.000 
#    0.000    0.000    0.000    0.000    0.000    0.000 
#
# Total GULP energy -272718.866190 kJ/mol
# GULP energy per Si atom -12396.312100 kJ/mol
# Density = 1.934748 g / cm^3
# Si number density = 19.391621 Si / 1000 Ang^3
#
#
#
# Elastic Constant Matrix: (Units=GPa)
#
#
# Indices 1 2 3 4 5 6 
#
# 1 80.0221 43.1828 24.3184 0.0000 0.0000 0.0000
# 2 43.1828 134.9567 62.6515 0.0000 0.0000 0.0000
# 3 24.3184 62.6515 59.0733 0.0000 0.0000 0.0000
# 4 0.0000 0.0000 0.0000 25.1860 0.0000 0.0000
# 5 0.0000 0.0000 0.0000 0.0000 31.5278 0.0000
# 6 0.0000 0.0000 0.0000 0.0000 0.0000 28.3643
#
#
#
# Elastic Compliance Matrix: (Units=1/GPa)
#
#
# Indices 1 2 3 4 5 6 
#
# 1 0.015245 -0.003870 -0.002171 0.000000 0.000000 0.000000
# 2 -0.003870 0.015579 -0.014929 0.000000 0.000000 0.000000
# 3 -0.002171 -0.014929 0.033656 0.000000 0.000000 0.000000
# 4 0.000000 0.000000 0.000000 0.039705 0.000000 0.000000
# 5 0.000000 0.000000 0.000000 0.000000 0.031718 0.000000
# 6 0.000000 0.000000 0.000000 0.000000 0.000000 0.035256
#
#
# Mechanical properties :
#
#
# Convention : Reuss Voigt Hill
#
# Bulk Modulus (GPa) = 44.36969 59.37308 51.87138
# Shear Modulus (GPa) = 22.66433 26.60894 24.63663
#
# Velocity S-wave (km/s) = 3.42244 3.70832 3.56824
# Velocity P-wave (km/s) = 6.20870 7.00142 6.61694
#
# Compressibility (1/GPa) = 0.02253791
#
# Stress axis : x y z
#
# Youngs Moduli (GPa) = 65.59627 64.19002 29.71275
#
# Poissons Ratio (x) = 0.24841 0.06452
# Poissons Ratio (y) = 0.25385 0.44359
# Poissons Ratio (z) = 0.14244 0.95831
#
# Static dielectric constant tensor:
#      x y z
#    x 3.617290 0.000000 0.000000 
#    y 0.000000 3.465610 0.000000 
#    z 0.000000 0.000000 3.399860 
# 
# 
# High freq. dielectric constant tensor:
#      x y z
#    x 1.763240 0.000000 0.000000 
#    y 0.000000 1.755480 0.000000 
#    z 0.000000 0.000000 1.737600 
# 
# From -- ./inp_files/6213.got.cif
#   From: 2010.06.25/outbox.cif.g09.slc.cpg/sg43_4_cif.got.tgz:6213.got - 2010.06.26 16:48:59.
