data_PCOD8187241
_publ_section_title
;
Structure prediction by ZEFSAII (Michael W. Deem and Ramdas Pophale) SiO2 
 PCOD8187241
Probable space group: F D D 2
;
_chemical_formula_sum "Si O2"
_cell_formula_units_Z 80
_cell_length_a 22.470250
_cell_length_b 12.009851
_cell_length_c 14.033933
_cell_angle_alpha 90.000000
_cell_angle_beta 90.000000
_cell_angle_gamma 90.000000
_cell_volume 3787.258269
_symmetry_space_group_name_H-M "F D D 2"
_symmetry_group_IT_number 43
_symmetry_cell_setting 'orthorhombic'
loop_
_space_group_symop_operation_xyz
x,y,z
-x,-y,z
1/4-x,1/4+y,1/4+z
1/4+x,1/4-y,1/4+z
x,1/2+y,1/2+z
-x,1/2-y,1/2+z
1/4-x,3/4+y,3/4+z
1/4+x,3/4-y,3/4+z
1/2+x,y,1/2+z
1/2-x,-y,1/2+z
3/4-x,1/4+y,3/4+z
3/4+x,1/4-y,3/4+z
1/2+x,1/2+y,z
1/2-x,1/2-y,z
3/4-x,3/4+y,1/4+z
3/4+x,3/4-y,1/4+z
loop_
_atom_site_type_symbol
_atom_site_label
_atom_site_fract_x
_atom_site_fract_y
_atom_site_fract_z
Si Si1 0.301961 0.392493 0.081040
Si Si2 0.065046 0.508839 0.154411
Si Si3 0.186699 0.199918 0.473414
Si Si4 0.865178 0.842694 0.274332
Si Si5 0.325816 0.047572 0.034503
O O1 0.331528 0.503828 0.036546
O O2 0.329202 0.337393 0.175709
O O3 0.231595 0.414619 0.096105
O O4 0.311583 0.295736 0.006934
O O5 0.112643 0.440756 0.092514
O O6 0.080540 0.637413 0.182702
O O7 0.000000 0.500000 0.103005
O O8 0.250000 0.250000 0.494250
O O9 0.179194 0.183111 0.360416
O O10 0.140108 0.281753 0.524937
O O11 0.179780 0.082674 0.521466
#
# Coordination Sequence:
#
# PCOD8187241 Si02
#       5
#    16  16  16  16  16
#     4  10  21  40  65  91 126 161 213 260 314 378
#     4  10  23  41  64  90 125 162 208 264 313 378
#     4  11  22  40  63  89 129 162 207 261 310 376
#     4  10  22  39  62  93 121 164 208 256 320 370
#     4  11  22  43  61  92 125 165 210 259 317 378
#
# _framework density 21.123460999999999
#
# number of rings (size 3 to 8) (size 9 to 14) (size 15 to 20)
#    0.000    1.600    2.000    2.400    0.000    5.600 
#   14.400    0.000    0.000    0.000    0.000    0.000 
#    0.000    0.000    0.000    0.000    0.000    0.000 
#
# Total GULP energy -247831.251863 kJ/mol
# GULP energy per Si atom -12391.562593 kJ/mol
# Density = 2.107538 g / cm^3
# Si number density = 21.123461 Si / 1000 Ang^3
#
#
#
# Elastic Constant Matrix: (Units=GPa)
#
#
# Indices 1 2 3 4 5 6 
#
# 1 134.5617 6.3997 25.8205 0.0000 0.0000 0.0000
# 2 6.3997 81.0778 3.6671 0.0000 0.0000 0.0000
# 3 25.8205 3.6671 34.4145 0.0000 0.0000 0.0000
# 4 0.0000 0.0000 0.0000 32.0840 0.0000 0.0000
# 5 0.0000 0.0000 0.0000 0.0000 38.1518 0.0000
# 6 0.0000 0.0000 0.0000 0.0000 0.0000 31.8330
#
#
#
# Elastic Compliance Matrix: (Units=1/GPa)
#
#
# Indices 1 2 3 4 5 6 
#
# 1 0.008694 -0.000393 -0.006481 0.000000 0.000000 0.000000
# 2 -0.000393 0.012411 -0.001028 0.000000 0.000000 0.000000
# 3 -0.006481 -0.001028 0.034029 0.000000 0.000000 0.000000
# 4 0.000000 0.000000 0.000000 0.031168 0.000000 0.000000
# 5 0.000000 0.000000 0.000000 0.000000 0.026211 0.000000
# 6 0.000000 0.000000 0.000000 0.000000 0.000000 0.031414
#
#
# Mechanical properties :
#
#
# Convention : Reuss Voigt Hill
#
# Bulk Modulus (GPa) = 25.42492 35.75872 30.59182
# Shear Modulus (GPa) = 28.92823 34.69154 31.80988
#
# Velocity S-wave (km/s) = 3.70467 4.05695 3.88481
# Velocity P-wave (km/s) = 5.51016 6.23782 5.88525
#
# Compressibility (1/GPa) = 0.03933149
#
# Stress axis : x y z
#
# Youngs Moduli (GPa) = 115.02420 80.57150 29.38628
#
# Poissons Ratio (x) = 0.03167 0.19045
# Poissons Ratio (y) = 0.04522 0.03020
# Poissons Ratio (z) = 0.74546 0.08279
#
# Static dielectric constant tensor:
#      x y z
#    x 4.344500 0.000000 0.000000 
#    y 0.000000 4.096000 0.000000 
#    z 0.000000 0.000000 3.556180 
# 
# 
# High freq. dielectric constant tensor:
#      x y z
#    x 1.837400 0.000000 0.000000 
#    y 0.000000 1.852840 0.000000 
#    z 0.000000 0.000000 1.805630 
# 
# From -- ./inp_files/9522.got.cif
#   From: 2010.06.25/outbox.cif.g09.slc.cpg/sg43_5_cif.got.tgz:9522.got - 2010.06.26 16:48:59.
