data_PCOD8187748
_publ_section_title
;
Structure prediction by ZEFSAII (Michael W. Deem and Ramdas Pophale) SiO2 
 PCOD8187748
Probable space group: F D D 2
;
_chemical_formula_sum "Si O2"
_cell_formula_units_Z 64
_cell_length_a 25.552899
_cell_length_b 13.196413
_cell_length_c 7.554567
_cell_angle_alpha 90.000000
_cell_angle_beta 90.000000
_cell_angle_gamma 90.000000
_cell_volume 2547.449917
_symmetry_space_group_name_H-M "F D D 2"
_symmetry_group_IT_number 43
_symmetry_cell_setting 'orthorhombic'
loop_
_space_group_symop_operation_xyz
x,y,z
-x,-y,z
1/4-x,1/4+y,1/4+z
1/4+x,1/4-y,1/4+z
x,1/2+y,1/2+z
-x,1/2-y,1/2+z
1/4-x,3/4+y,3/4+z
1/4+x,3/4-y,3/4+z
1/2+x,y,1/2+z
1/2-x,-y,1/2+z
3/4-x,1/4+y,3/4+z
3/4+x,1/4-y,3/4+z
1/2+x,1/2+y,z
1/2-x,1/2-y,z
3/4-x,3/4+y,1/4+z
3/4+x,3/4-y,1/4+z
loop_
_atom_site_type_symbol
_atom_site_label
_atom_site_fract_x
_atom_site_fract_y
_atom_site_fract_z
Si Si1 0.164682 0.282079 0.117580
Si Si2 0.442432 0.126746 0.078505
Si Si3 0.055136 0.200139 0.623891
Si Si4 0.589100 0.422442 0.215066
O O1 0.102138 0.286399 0.084600
O O2 0.176037 0.259832 0.324438
O O3 0.190309 0.191929 0.003376
O O4 0.189165 0.389509 0.060012
O O5 0.497218 0.182942 0.050761
O O6 0.433491 0.051851 0.910078
O O7 0.064323 0.317880 0.652207
O O8 0.097748 0.160984 0.480342
#
# Coordination Sequence:
#
# PCOD8187748 Si02
#       4
#    16  16  16  16
#     4  11  24  47  72 108 151 191 251 309 366 455
#     4  11  25  47  74 107 151 191 252 309 372 456
#     4  11  25  47  75 111 148 196 252 309 371 459
#     4  11  25  45  75 105 150 197 244 311 378 440
#
# _framework density 25.123163000000002
#
# number of rings (size 3 to 8) (size 9 to 14) (size 15 to 20)
#    0.000    1.000    0.000    8.250    7.000    0.000 
#    4.500   12.500    0.000    0.000    0.000    0.000 
#    0.000    0.000    0.000    0.000    0.000    0.000 
#
# Total GULP energy -198384.504808 kJ/mol
# GULP energy per Si atom -12399.031551 kJ/mol
# Density = 2.506598 g / cm^3
# Si number density = 25.123163 Si / 1000 Ang^3
#
#
#
# Elastic Constant Matrix: (Units=GPa)
#
#
# Indices 1 2 3 4 5 6 
#
# 1 105.7515 -6.5257 4.0536 0.0000 0.0000 0.0000
# 2 -6.5257 62.2141 14.3947 0.0000 0.0000 0.0000
# 3 4.0536 14.3947 156.5678 0.0000 0.0000 0.0000
# 4 0.0000 0.0000 0.0000 49.3109 0.0000 0.0000
# 5 0.0000 0.0000 0.0000 0.0000 19.1248 0.0000
# 6 0.0000 0.0000 0.0000 0.0000 0.0000 30.8528
#
#
#
# Elastic Compliance Matrix: (Units=1/GPa)
#
#
# Indices 1 2 3 4 5 6 
#
# 1 0.009536 0.001080 -0.000346 0.000000 0.000000 0.000000
# 2 0.001080 0.016545 -0.001549 0.000000 0.000000 0.000000
# 3 -0.000346 -0.001549 0.006538 0.000000 0.000000 0.000000
# 4 0.000000 0.000000 0.000000 0.020280 0.000000 0.000000
# 5 0.000000 0.000000 0.000000 0.000000 0.052288 0.000000
# 6 0.000000 0.000000 0.000000 0.000000 0.000000 0.032412
#
#
# Mechanical properties :
#
#
# Convention : Reuss Voigt Hill
#
# Bulk Modulus (GPa) = 32.26873 38.70873 35.48873
# Shear Modulus (GPa) = 33.43155 40.69840 37.06498
#
# Velocity S-wave (km/s) = 3.65184 4.02923 3.84517
# Velocity P-wave (km/s) = 5.53655 6.08994 5.81982
#
# Compressibility (1/GPa) = 0.03098976
#
# Stress axis : x y z
#
# Youngs Moduli (GPa) = 104.86499 60.44020 152.94261
#
# Poissons Ratio (x) = -0.06530 0.05295
# Poissons Ratio (y) = -0.11329 0.23693
# Poissons Ratio (z) = 0.03631 0.09363
#
# Static dielectric constant tensor:
#      x y z
#    x 4.682690 0.000000 0.000000 
#    y 0.000000 4.265440 0.000000 
#    z 0.000000 0.000000 4.749540 
# 
# 
# High freq. dielectric constant tensor:
#      x y z
#    x 2.002800 0.000000 0.000000 
#    y 0.000000 1.991510 0.000000 
#    z 0.000000 0.000000 2.000480 
# 
# From -- ./inp_files/3601.got.cif
#   From: 2010.06.25/outbox.cif.g09.slc.cpg/sg43_2_cif.got.tgz:3601.got - 2010.06.26 16:48:59.
