data_PCOD8187070
_publ_section_title
;
Structure prediction by ZEFSAII (Michael W. Deem and Ramdas Pophale) SiO2 
 PCOD8187070
Probable space group: F D D 2
;
_chemical_formula_sum "Si O2"
_cell_formula_units_Z 112
_cell_length_a 25.836478
_cell_length_b 22.962742
_cell_length_c 9.192316
_cell_angle_alpha 90.000000
_cell_angle_beta 90.000000
_cell_angle_gamma 90.000000
_cell_volume 5453.583947
_symmetry_space_group_name_H-M "F D D 2"
_symmetry_group_IT_number 43
_symmetry_cell_setting 'orthorhombic'
loop_
_space_group_symop_operation_xyz
x,y,z
-x,-y,z
1/4-x,1/4+y,1/4+z
1/4+x,1/4-y,1/4+z
x,1/2+y,1/2+z
-x,1/2-y,1/2+z
1/4-x,3/4+y,3/4+z
1/4+x,3/4-y,3/4+z
1/2+x,y,1/2+z
1/2-x,-y,1/2+z
3/4-x,1/4+y,3/4+z
3/4+x,1/4-y,3/4+z
1/2+x,1/2+y,z
1/2-x,1/2-y,z
3/4-x,3/4+y,1/4+z
3/4+x,3/4-y,1/4+z
loop_
_atom_site_type_symbol
_atom_site_label
_atom_site_fract_x
_atom_site_fract_y
_atom_site_fract_z
Si Si1 0.539922 0.543127 0.083190
Si Si2 0.589564 0.654301 0.744299
Si Si3 0.310326 0.393221 0.845500
Si Si4 0.648726 0.004015 0.522846
Si Si5 0.237405 0.311544 0.000275
Si Si6 0.052249 0.671557 0.572972
Si Si7 0.223165 0.479500 0.782028
O O1 0.500000 0.500000 0.166599
O O2 0.593904 0.508843 0.101483
O O3 0.541570 0.608560 0.147486
O O4 0.519889 0.550720 0.919718
O O5 0.651824 0.644913 0.740516
O O6 0.563576 0.593879 0.686624
O O7 0.571563 0.708104 0.643550
O O8 0.568498 0.667267 0.905587
O O9 0.265969 0.428346 0.756852
O O10 0.347211 0.436839 0.931942
O O11 0.286149 0.352708 0.969624
O O12 0.649890 0.949554 0.411972
O O13 0.696580 0.996422 0.631787
O O14 0.250000 0.250000 0.921397
O O15 0.001938 0.713044 0.592905
#
# Coordination Sequence:
#
# PCOD8187070 Si02
#       7
#    16  16  16  16  16  16  16
#     4  10  21  35  58  91 121 154 209 265 309 368
#     4  10  20  38  61  94 123 168 210 261 323 383
#     4  10  20  37  63  88 129 164 218 260 312 401
#     4  11  21  38  63  92 121 163 211 263 319 381
#     4   9  18  31  57  88 115 150 206 258 291 351
#     4  10  20  37  65  91 119 165 216 257 317 384
#     4  10  22  38  61  94 132 165 207 267 333 382
#
# _framework density 20.536954000000001
#
# number of rings (size 3 to 8) (size 9 to 14) (size 15 to 20)
#    0.000    2.000    2.857    3.429    4.000    1.143 
#    2.571    0.000   15.714    0.000    0.000    0.000 
#    0.000    0.000    0.000    0.000    0.000    0.000 
#
# Total GULP energy -346957.701710 kJ/mol
# GULP energy per Si atom -12391.346490 kJ/mol
# Density = 2.049021 g / cm^3
# Si number density = 20.536954 Si / 1000 Ang^3
#
#
#
# Elastic Constant Matrix: (Units=GPa)
#
#
# Indices 1 2 3 4 5 6 
#
# 1 132.6219 49.0242 19.1893 0.0003 -0.0002 -0.0001
# 2 49.0242 129.9788 20.2951 0.0005 -0.0001 -0.0004
# 3 19.1893 20.2951 31.4066 -0.0011 0.0009 -0.0006
# 4 0.0003 0.0005 -0.0011 20.4574 0.0003 -0.0006
# 5 -0.0002 -0.0001 0.0009 0.0003 25.2041 0.0003
# 6 -0.0001 -0.0004 -0.0006 -0.0006 0.0003 26.0223
#
#
#
# Elastic Compliance Matrix: (Units=1/GPa)
#
#
# Indices 1 2 3 4 5 6 
#
# 1 0.009139 -0.002864 -0.003733 0.000000 0.000000 0.000000
# 2 -0.002864 0.009455 -0.004360 0.000000 0.000000 0.000000
# 3 -0.003733 -0.004360 0.036939 0.000002 -0.000001 0.000001
# 4 0.000000 0.000000 0.000002 0.048882 -0.000001 0.000001
# 5 0.000000 0.000000 -0.000001 -0.000001 0.039676 0.000000
# 6 0.000000 0.000000 0.000001 0.000001 0.000000 0.038429
#
#
# Mechanical properties :
#
#
# Convention : Reuss Voigt Hill
#
# Bulk Modulus (GPa) = 29.74551 52.33604 41.04077
# Shear Modulus (GPa) = 23.18690 28.03667 25.61179
#
# Velocity S-wave (km/s) = 3.36375 3.69884 3.53527
# Velocity P-wave (km/s) = 5.44075 6.61673 6.05735
#
# Compressibility (1/GPa) = 0.03361852
#
# Stress axis : x y z
#
# Youngs Moduli (GPa) = 109.41977 105.76929 27.07192
#
# Poissons Ratio (x) = 0.30293 0.10106
# Poissons Ratio (y) = 0.31339 0.11802
# Poissons Ratio (z) = 0.40848 0.46111
#
# Static dielectric constant tensor:
#      x y z
#    x 3.807540 0.000000 0.000000 
#    y 0.000000 4.426850 0.000000 
#    z 0.000000 0.000000 3.267190 
# 
# 
# High freq. dielectric constant tensor:
#      x y z
#    x 1.807470 0.000000 0.000000 
#    y 0.000000 1.819570 0.000000 
#    z 0.000000 0.000000 1.748740 
# 
# From -- ./inp_files/8000.got.cif
#   From: 2010.06.25/outbox.cif.g09.slc.cpg/sg43_4_cif.got.tgz:8000.got - 2010.06.26 16:48:59.
