data_PCOD8187361
_publ_section_title
;
Structure prediction by ZEFSAII (Michael W. Deem and Ramdas Pophale) SiO2 
 PCOD8187361
Probable space group: F D D 2
;
_chemical_formula_sum "Si O2"
_cell_formula_units_Z 120
_cell_length_a 9.095816
_cell_length_b 27.126968
_cell_length_c 23.096004
_cell_angle_alpha 90.000000
_cell_angle_beta 90.000000
_cell_angle_gamma 90.000000
_cell_volume 5698.752130
_symmetry_space_group_name_H-M "F D D 2"
_symmetry_group_IT_number 43
_symmetry_cell_setting 'orthorhombic'
loop_
_space_group_symop_operation_xyz
x,y,z
-x,-y,z
1/4-x,1/4+y,1/4+z
1/4+x,1/4-y,1/4+z
x,1/2+y,1/2+z
-x,1/2-y,1/2+z
1/4-x,3/4+y,3/4+z
1/4+x,3/4-y,3/4+z
1/2+x,y,1/2+z
1/2-x,-y,1/2+z
3/4-x,1/4+y,3/4+z
3/4+x,1/4-y,3/4+z
1/2+x,1/2+y,z
1/2-x,1/2-y,z
3/4-x,3/4+y,1/4+z
3/4+x,3/4-y,1/4+z
loop_
_atom_site_type_symbol
_atom_site_label
_atom_site_fract_x
_atom_site_fract_y
_atom_site_fract_z
Si Si1 0.845156 0.023628 0.664110
Si Si2 0.534800 0.928937 0.279034
Si Si3 0.250000 0.250000 0.241346
Si Si4 0.126157 0.076631 0.077131
Si Si5 0.596317 0.954410 0.846851
Si Si6 0.182095 0.475395 0.386675
Si Si7 0.033263 0.689625 0.980229
Si Si8 0.619454 0.618022 0.389323
O O1 0.872827 0.053313 0.723352
O O2 0.757581 0.059310 0.620201
O O3 0.734687 0.978689 0.678171
O O4 0.000000 0.000000 0.639836
O O5 0.567561 0.872433 0.290829
O O6 0.572052 0.963037 0.333973
O O7 0.364770 0.933068 0.265954
O O8 0.150513 0.283816 0.281594
O O9 0.146101 0.219264 0.198409
O O10 0.970094 0.091181 0.106923
O O11 0.598408 0.957068 0.777008
O O12 0.539418 0.898736 0.862221
O O13 0.500000 0.000000 0.868810
O O14 0.753607 0.969003 0.876447
O O15 0.304527 0.434197 0.389445
O O16 0.086360 0.638155 0.953035
#
# Coordination Sequence:
#
# PCOD8187361 Si02
#       8
#    16  16   8  16  16  16  16  16
#     4  10  23  45  69  97 134 177 234 282 340 415
#     4  10  23  42  68 101 120 179 232 284 339 404
#     4  12  26  40  68  94 140 180 214 280 354 414
#     4  11  26  43  64 100 139 176 222 281 351 405
#     4  10  22  40  65  94 128 173 220 277 335 403
#     4  10  22  44  66  92 135 172 228 277 340 416
#     4  11  22  38  70  91 129 168 228 274 336 403
#     4  10  25  39  63 100 131 171 223 272 337 406
#
# _framework density 21.057241999999999
#
# number of rings (size 3 to 8) (size 9 to 14) (size 15 to 20)
#    0.000    1.600    1.333    1.600   10.267    2.133 
#    2.400    0.000    0.000    0.000    0.000    0.000 
#    0.000    0.000    0.000    0.000    0.000    0.000 
#
# Total GULP energy -371674.747950 kJ/mol
# GULP energy per Si atom -12389.158265 kJ/mol
# Density = 2.100931 g / cm^3
# Si number density = 21.057242 Si / 1000 Ang^3
#
#
#
# Elastic Constant Matrix: (Units=GPa)
#
#
# Indices 1 2 3 4 5 6 
#
# 1 68.2462 30.8781 42.0166 0.0000 0.0000 0.0000
# 2 30.8781 77.1749 39.8018 0.0000 0.0000 0.0000
# 3 42.0166 39.8018 111.9891 0.0000 0.0000 0.0000
# 4 0.0000 0.0000 0.0000 92.3094 0.0000 0.0000
# 5 0.0000 0.0000 0.0000 0.0000 21.7586 0.0000
# 6 0.0000 0.0000 0.0000 0.0000 0.0000 22.9006
#
#
#
# Elastic Compliance Matrix: (Units=1/GPa)
#
#
# Indices 1 2 3 4 5 6 
#
# 1 0.020641 -0.005222 -0.005888 0.000000 0.000000 0.000000
# 2 -0.005222 0.017187 -0.004149 0.000000 0.000000 0.000000
# 3 -0.005888 -0.004149 0.012613 0.000000 0.000000 0.000000
# 4 0.000000 0.000000 0.000000 0.010833 0.000000 0.000000
# 5 0.000000 0.000000 0.000000 0.000000 0.045959 0.000000
# 6 0.000000 0.000000 0.000000 0.000000 0.000000 0.043667
#
#
# Mechanical properties :
#
#
# Convention : Reuss Voigt Hill
#
# Bulk Modulus (GPa) = 50.19479 53.64480 51.91980
# Shear Modulus (GPa) = 26.58752 37.04132 31.81442
#
# Velocity S-wave (km/s) = 3.55721 4.19869 3.89119
# Velocity P-wave (km/s) = 6.38441 7.00259 6.70063
#
# Compressibility (1/GPa) = 0.01992239
#
# Stress axis : x y z
#
# Youngs Moduli (GPa) = 48.44840 58.18463 79.28160
#
# Poissons Ratio (x) = 0.30382 0.46683
# Poissons Ratio (y) = 0.25298 0.32896
# Poissons Ratio (z) = 0.28527 0.24142
#
# Static dielectric constant tensor:
#      x y z
#    x 4.173950 0.000000 0.000000 
#    y 0.000000 2.963860 0.000000 
#    z 0.000000 0.000000 3.726160 
# 
# 
# High freq. dielectric constant tensor:
#      x y z
#    x 1.837240 0.000000 0.000000 
#    y 0.000000 1.829180 0.000000 
#    z 0.000000 0.000000 1.814650 
# 
# From -- ./inp_files/20526.got.cif
#   From: 2010.06.25/outbox.cif.g09.slc.cpg/sg43_11_cif.got.tgz:20526.got - 2010.06.26 16:48:59.
