data_PCOD8187332
_publ_section_title
;
Structure prediction by ZEFSAII (Michael W. Deem and Ramdas Pophale) SiO2 
 PCOD8187332
Probable space group: F D D 2
;
_chemical_formula_sum "Si O2"
_cell_formula_units_Z 120
_cell_length_a 18.097523
_cell_length_b 20.047736
_cell_length_c 13.882042
_cell_angle_alpha 90.000000
_cell_angle_beta 90.000000
_cell_angle_gamma 90.000000
_cell_volume 5036.604230
_symmetry_space_group_name_H-M "F D D 2"
_symmetry_group_IT_number 43
_symmetry_cell_setting 'orthorhombic'
loop_
_space_group_symop_operation_xyz
x,y,z
-x,-y,z
1/4-x,1/4+y,1/4+z
1/4+x,1/4-y,1/4+z
x,1/2+y,1/2+z
-x,1/2-y,1/2+z
1/4-x,3/4+y,3/4+z
1/4+x,3/4-y,3/4+z
1/2+x,y,1/2+z
1/2-x,-y,1/2+z
3/4-x,1/4+y,3/4+z
3/4+x,1/4-y,3/4+z
1/2+x,1/2+y,z
1/2-x,1/2-y,z
3/4-x,3/4+y,1/4+z
3/4+x,3/4-y,1/4+z
loop_
_atom_site_type_symbol
_atom_site_label
_atom_site_fract_x
_atom_site_fract_y
_atom_site_fract_z
Si Si1 0.000000 0.000000 0.007690
Si Si2 0.296859 0.951560 0.985055
Si Si3 0.651875 0.952990 0.581222
Si Si4 0.393702 0.527124 0.621872
Si Si5 0.008150 0.637202 0.391613
Si Si6 0.782327 0.651386 0.927346
Si Si7 0.370451 0.323965 0.539280
Si Si8 0.646237 0.565713 0.281331
O O1 0.925015 0.005230 0.071898
O O2 0.005687 0.066164 0.944002
O O3 0.222846 0.986749 0.028149
O O4 0.305930 0.878410 0.035213
O O5 0.365837 0.998234 0.018571
O O6 0.295496 0.938170 0.870887
O O7 0.667427 0.929193 0.689896
O O8 0.647619 0.883617 0.522793
O O9 0.333322 0.575141 0.669785
O O10 0.411214 0.463894 0.691959
O O11 0.466687 0.572199 0.607838
O O12 0.000669 0.624174 0.278160
O O13 0.942784 0.686874 0.430167
O O14 0.821881 0.589423 0.875182
O O15 0.341392 0.247427 0.546895
#
# Coordination Sequence:
#
# PCOD8187332 Si02
#       8
#     8  16  16  16  16  16  16  16
#     4  10  24  42  62  94 132 172 220 278 348 410
#     4  10  22  41  63  92 127 164 216 271 323 397
#     4  10  23  42  63  90 125 163 213 266 323 399
#     4  10  22  40  65  94 130 177 224 275 338 406
#     4  11  23  40  65  95 131 177 224 279 344 413
#     4  10  23  42  63  96 137 172 222 282 340 403
#     4  10  22  39  61  91 124 166 213 263 324 392
#     4  10  23  39  61  93 126 167 212 263 332 392
#
# _framework density 23.825576999999999
#
# number of rings (size 3 to 8) (size 9 to 14) (size 15 to 20)
#    0.000    1.867    0.000    2.400    0.000   14.400 
#    0.000    2.667    0.000    1.600    0.000    0.000 
#    0.000    0.000    0.000    0.000    0.000    0.000 
#
# Total GULP energy -371691.525717 kJ/mol
# GULP energy per Si atom -12389.717524 kJ/mol
# Density = 2.377135 g / cm^3
# Si number density = 23.825577 Si / 1000 Ang^3
#
#
#
# Elastic Constant Matrix: (Units=GPa)
#
#
# Indices 1 2 3 4 5 6 
#
# 1 90.5449 18.5436 32.5585 0.0000 0.0000 0.0000
# 2 18.5436 98.7286 -3.2310 0.0000 0.0000 0.0000
# 3 32.5585 -3.2310 121.9007 0.0000 0.0000 0.0000
# 4 0.0000 0.0000 0.0000 27.6200 0.0000 0.0000
# 5 0.0000 0.0000 0.0000 0.0000 28.0253 0.0000
# 6 0.0000 0.0000 0.0000 0.0000 0.0000 35.1619
#
#
#
# Elastic Compliance Matrix: (Units=1/GPa)
#
#
# Indices 1 2 3 4 5 6 
#
# 1 0.012815 -0.002521 -0.003490 0.000000 0.000000 0.000000
# 2 -0.002521 0.010634 0.000955 0.000000 0.000000 0.000000
# 3 -0.003490 0.000955 0.009161 0.000000 0.000000 0.000000
# 4 0.000000 0.000000 0.000000 0.036206 0.000000 0.000000
# 5 0.000000 0.000000 0.000000 0.000000 0.035682 0.000000
# 6 0.000000 0.000000 0.000000 0.000000 0.000000 0.028440
#
#
# Mechanical properties :
#
#
# Convention : Reuss Voigt Hill
#
# Bulk Modulus (GPa) = 44.44761 45.21292 44.83026
# Shear Modulus (GPa) = 33.21195 35.71499 34.46347
#
# Velocity S-wave (km/s) = 3.73763 3.87592 3.80740
# Velocity P-wave (km/s) = 6.10921 6.24885 6.17942
#
# Compressibility (1/GPa) = 0.02249840
#
# Stress axis : x y z
#
# Youngs Moduli (GPa) = 78.03092 94.04161 109.16096
#
# Poissons Ratio (x) = 0.23710 0.38094
# Poissons Ratio (y) = 0.19674 -0.10428
# Poissons Ratio (z) = 0.27230 -0.08983
#
# Static dielectric constant tensor:
#      x y z
#    x 4.176890 0.000000 0.000000 
#    y 0.000000 4.837520 0.000000 
#    z 0.000000 0.000000 4.110760 
# 
# 
# High freq. dielectric constant tensor:
#      x y z
#    x 1.916500 0.000000 0.000000 
#    y 0.000000 1.979040 0.000000 
#    z 0.000000 0.000000 1.934140 
# 
# From -- ./inp_files/7211.got.cif
#   From: 2010.06.25/outbox.cif.g09.slc.cpg/sg43_4_cif.got.tgz:7211.got - 2010.06.26 16:48:59.
