data_PCOD8187242
_publ_section_title
;
Structure prediction by ZEFSAII (Michael W. Deem and Ramdas Pophale) SiO2 
 PCOD8187242
Probable space group: F D D 2
;
_chemical_formula_sum "Si O2"
_cell_formula_units_Z 112
_cell_length_a 32.319681
_cell_length_b 13.600725
_cell_length_c 10.847000
_cell_angle_alpha 90.000000
_cell_angle_beta 90.000000
_cell_angle_gamma 90.000000
_cell_volume 4768.027650
_symmetry_space_group_name_H-M "F D D 2"
_symmetry_group_IT_number 43
_symmetry_cell_setting 'orthorhombic'
loop_
_space_group_symop_operation_xyz
x,y,z
-x,-y,z
1/4-x,1/4+y,1/4+z
1/4+x,1/4-y,1/4+z
x,1/2+y,1/2+z
-x,1/2-y,1/2+z
1/4-x,3/4+y,3/4+z
1/4+x,3/4-y,3/4+z
1/2+x,y,1/2+z
1/2-x,-y,1/2+z
3/4-x,1/4+y,3/4+z
3/4+x,1/4-y,3/4+z
1/2+x,1/2+y,z
1/2-x,1/2-y,z
3/4-x,3/4+y,1/4+z
3/4+x,3/4-y,1/4+z
loop_
_atom_site_type_symbol
_atom_site_label
_atom_site_fract_x
_atom_site_fract_y
_atom_site_fract_z
Si Si1 0.616382 0.422335 0.087150
Si Si2 0.179707 0.581780 0.169498
Si Si3 0.718945 0.672850 0.443429
Si Si4 0.849345 0.215874 0.294168
Si Si5 0.260891 0.575245 0.710825
Si Si6 0.544336 0.034139 0.257608
Si Si7 0.825684 0.414154 0.608186
O O1 0.574390 0.469440 0.145045
O O2 0.643016 0.362121 0.187011
O O3 0.646819 0.506789 0.032004
O O4 0.602179 0.346395 0.983433
O O5 0.166672 0.680808 0.239389
O O6 0.140487 0.518284 0.125457
O O7 0.210064 0.515470 0.254014
O O8 0.207694 0.595295 0.047705
O O9 0.750000 0.750000 0.506626
O O10 0.745658 0.629214 0.332068
O O11 0.815784 0.167092 0.387866
O O12 0.289631 0.646448 0.626609
O O13 0.220205 0.543201 0.633806
O O14 0.500000 0.000000 0.210900
O O15 0.573004 0.940368 0.291014
#
# Coordination Sequence:
#
# PCOD8187242 Si02
#       7
#    16  16  16  16  16  16  16
#     4  10  21  40  65  92 126 166 209 264 326 385
#     4  11  25  42  66  97 132 177 220 268 330 396
#     4  10  22  42  65  92 129 170 218 271 325 390
#     4  11  24  43  65  96 136 174 218 275 333 394
#     4  10  22  42  65  93 131 174 217 269 326 386
#     4  10  23  43  66  94 131 175 222 275 330 390
#     4  10  22  40  64  92 124 166 215 264 321 385
#
# _framework density 23.489795999999998
#
# number of rings (size 3 to 8) (size 9 to 14) (size 15 to 20)
#    0.000    1.714    0.000    4.714    0.000   12.000 
#    0.000    0.000    0.000    1.714    0.000    0.000 
#    0.000    0.000    0.000    0.000    0.000    0.000 
#
# Total GULP energy -347064.004539 kJ/mol
# GULP energy per Si atom -12395.143019 kJ/mol
# Density = 2.343633 g / cm^3
# Si number density = 23.489796 Si / 1000 Ang^3
#
#
#
# Elastic Constant Matrix: (Units=GPa)
#
#
# Indices 1 2 3 4 5 6 
#
# 1 132.8710 77.4049 47.9409 0.0000 0.0000 0.0000
# 2 77.4049 102.0873 22.8873 0.0000 0.0000 0.0000
# 3 47.9409 22.8873 94.0996 0.0000 0.0000 0.0000
# 4 0.0000 0.0000 0.0000 10.2665 0.0000 0.0000
# 5 0.0000 0.0000 0.0000 0.0000 53.7905 0.0000
# 6 0.0000 0.0000 0.0000 0.0000 0.0000 58.4962
#
#
#
# Elastic Compliance Matrix: (Units=1/GPa)
#
#
# Indices 1 2 3 4 5 6 
#
# 1 0.015707 -0.010699 -0.005400 0.000000 0.000000 0.000000
# 2 -0.010699 0.017648 0.001158 0.000000 0.000000 0.000000
# 3 -0.005400 0.001158 0.013096 0.000000 0.000000 0.000000
# 4 0.000000 0.000000 0.000000 0.097404 0.000000 0.000000
# 5 0.000000 0.000000 0.000000 0.000000 0.018591 0.000000
# 6 0.000000 0.000000 0.000000 0.000000 0.000000 0.017095
#
#
# Mechanical properties :
#
#
# Convention : Reuss Voigt Hill
#
# Bulk Modulus (GPa) = 60.34875 69.50269 64.92572
# Shear Modulus (GPa) = 23.26166 36.56563 29.91365
#
# Velocity S-wave (km/s) = 3.15030 3.94973 3.57245
# Velocity P-wave (km/s) = 6.24338 7.10304 6.68704
#
# Compressibility (1/GPa) = 0.01657035
#
# Stress axis : x y z
#
# Youngs Moduli (GPa) = 63.66505 56.66376 76.35630
#
# Poissons Ratio (x) = 0.60624 0.41233
# Poissons Ratio (y) = 0.68114 -0.08845
# Poissons Ratio (z) = 0.34380 -0.06564
#
# Static dielectric constant tensor:
#      x y z
#    x 4.648690 0.000000 0.000000 
#    y 0.000000 3.912230 0.000000 
#    z 0.000000 0.000000 4.156700 
# 
# 
# High freq. dielectric constant tensor:
#      x y z
#    x 1.953860 0.000000 0.000000 
#    y 0.000000 1.910340 0.000000 
#    z 0.000000 0.000000 1.919600 
# 
# From -- ./inp_files/8272.got.cif
#   From: 2010.06.25/outbox.cif.g09.slc.cpg/sg43_5_cif.got.tgz:8272.got - 2010.06.26 16:48:59.
