data_PCOD8187657
_publ_section_title
;
Structure prediction by ZEFSAII (Michael W. Deem and Ramdas Pophale) SiO2 
 PCOD8187657
Probable space group: F D D 2
;
_chemical_formula_sum "Si O2"
_cell_formula_units_Z 120
_cell_length_a 18.085735
_cell_length_b 13.547598
_cell_length_c 23.782256
_cell_angle_alpha 90.000000
_cell_angle_beta 90.000000
_cell_angle_gamma 90.000000
_cell_volume 5827.087158
_symmetry_space_group_name_H-M "F D D 2"
_symmetry_group_IT_number 43
_symmetry_cell_setting 'orthorhombic'
loop_
_space_group_symop_operation_xyz
x,y,z
-x,-y,z
1/4-x,1/4+y,1/4+z
1/4+x,1/4-y,1/4+z
x,1/2+y,1/2+z
-x,1/2-y,1/2+z
1/4-x,3/4+y,3/4+z
1/4+x,3/4-y,3/4+z
1/2+x,y,1/2+z
1/2-x,-y,1/2+z
3/4-x,1/4+y,3/4+z
3/4+x,1/4-y,3/4+z
1/2+x,1/2+y,z
1/2-x,1/2-y,z
3/4-x,3/4+y,1/4+z
3/4+x,3/4-y,1/4+z
loop_
_atom_site_type_symbol
_atom_site_label
_atom_site_fract_x
_atom_site_fract_y
_atom_site_fract_z
Si Si1 0.133753 0.633294 0.063250
Si Si2 0.064749 0.129488 0.152528
Si Si3 0.537747 0.735196 0.885345
Si Si4 0.595373 0.821069 0.623178
Si Si5 0.536585 0.106283 0.960806
Si Si6 0.750000 0.250000 0.994739
Si Si7 0.580522 0.536614 0.947397
Si Si8 0.390673 0.743790 0.815740
O O1 0.149569 0.530316 0.094589
O O2 0.118843 0.710357 0.112214
O O3 0.060085 0.625370 0.025183
O O4 0.207826 0.668464 0.031581
O O5 0.132360 0.206035 0.156747
O O6 0.076174 0.058800 0.099958
O O7 0.989800 0.185670 0.138885
O O8 0.059082 0.061094 0.207787
O O9 0.517179 0.809038 0.936646
O O10 0.572513 0.638136 0.913308
O O11 0.468406 0.713810 0.844350
O O12 0.636742 0.862679 0.677522
O O13 0.621096 0.889037 0.570037
O O14 0.500000 0.000000 0.953839
O O15 0.500000 0.500000 0.967068
O O16 0.635004 0.544394 0.001505
#
# Coordination Sequence:
#
# PCOD8187657 Si02
#       8
#    16  16  16  16  16   8  16  16
#     4  12  24  39  72  94 133 178 215 277 340 392
#     4  12  22  41  66 102 132 165 223 277 333 404
#     4  11  25  47  63 104 138 173 224 281 337 407
#     4  11  22  40  66 103 130 160 228 286 327 394
#     4  11  23  44  69  97 133 177 225 277 338 403
#     4  12  20  40  70 106 126 158 220 296 346 368
#     4  12  26  43  68  96 138 182 219 270 340 412
#     4  11  23  40  70  98 131 169 217 282 341 385
#
# _framework density 20.593478999999999
#
# number of rings (size 3 to 8) (size 9 to 14) (size 15 to 20)
#    0.000    0.533    5.333    4.800    3.733    1.067 
#    0.000    0.000    2.933    0.000    0.000    0.000 
#    0.000    0.000    0.000    0.000    0.000    0.000 
#
# Total GULP energy -372024.189445 kJ/mol
# GULP energy per Si atom -12400.806315 kJ/mol
# Density = 2.054661 g / cm^3
# Si number density = 20.593479 Si / 1000 Ang^3
#
#
#
# Elastic Constant Matrix: (Units=GPa)
#
#
# Indices 1 2 3 4 5 6 
#
# 1 67.2566 32.9696 18.7077 0.0000 0.0000 0.0000
# 2 32.9696 120.1342 39.7150 0.0000 0.0000 0.0000
# 3 18.7077 39.7150 88.9333 0.0000 0.0000 0.0000
# 4 0.0000 0.0000 0.0000 26.9929 0.0000 0.0000
# 5 0.0000 0.0000 0.0000 0.0000 17.3262 0.0000
# 6 0.0000 0.0000 0.0000 0.0000 0.0000 34.0215
#
#
#
# Elastic Compliance Matrix: (Units=1/GPa)
#
#
# Indices 1 2 3 4 5 6 
#
# 1 0.017420 -0.004188 -0.001794 0.000000 0.000000 0.000000
# 2 -0.004188 0.010772 -0.003930 0.000000 0.000000 0.000000
# 3 -0.001794 -0.003930 0.013377 0.000000 0.000000 0.000000
# 4 0.000000 0.000000 0.000000 0.037047 0.000000 0.000000
# 5 0.000000 0.000000 0.000000 0.000000 0.057716 0.000000
# 6 0.000000 0.000000 0.000000 0.000000 0.000000 0.029393
#
#
# Mechanical properties :
#
#
# Convention : Reuss Voigt Hill
#
# Bulk Modulus (GPa) = 45.98557 51.01207 48.49882
# Shear Modulus (GPa) = 25.93394 27.99692 26.96543
#
# Velocity S-wave (km/s) = 3.55255 3.69115 3.62251
# Velocity P-wave (km/s) = 6.26148 6.55674 6.41081
#
# Compressibility (1/GPa) = 0.02174595
#
# Stress axis : x y z
#
# Youngs Moduli (GPa) = 57.40415 92.82984 74.75649
#
# Poissons Ratio (x) = 0.38874 0.13414
# Poissons Ratio (y) = 0.24039 0.29377
# Poissons Ratio (z) = 0.10301 0.36480
#
# Static dielectric constant tensor:
#      x y z
#    x 3.664020 0.000000 0.000000 
#    y 0.000000 3.682910 0.000000 
#    z 0.000000 0.000000 3.722070 
# 
# 
# High freq. dielectric constant tensor:
#      x y z
#    x 1.801380 0.000000 0.000000 
#    y 0.000000 1.801990 0.000000 
#    z 0.000000 0.000000 1.803380 
# 
# From -- ./inp_files/21825.got.cif
#   From: 2010.06.25/outbox.cif.g09.slc.cpg/sg43_11_cif.got.tgz:21825.got - 2010.06.26 16:48:59.
