data_PCOD8187765
_publ_section_title
;
Structure prediction by ZEFSAII (Michael W. Deem and Ramdas Pophale) SiO2 
 PCOD8187765
Probable space group: F D D 2
;
_chemical_formula_sum "Si O2"
_cell_formula_units_Z 120
_cell_length_a 12.034601
_cell_length_b 26.725642
_cell_length_c 16.992629
_cell_angle_alpha 90.000000
_cell_angle_beta 90.000000
_cell_angle_gamma 90.000000
_cell_volume 5465.380692
_symmetry_space_group_name_H-M "F D D 2"
_symmetry_group_IT_number 43
_symmetry_cell_setting 'orthorhombic'
loop_
_space_group_symop_operation_xyz
x,y,z
-x,-y,z
1/4-x,1/4+y,1/4+z
1/4+x,1/4-y,1/4+z
x,1/2+y,1/2+z
-x,1/2-y,1/2+z
1/4-x,3/4+y,3/4+z
1/4+x,3/4-y,3/4+z
1/2+x,y,1/2+z
1/2-x,-y,1/2+z
3/4-x,1/4+y,3/4+z
3/4+x,1/4-y,3/4+z
1/2+x,1/2+y,z
1/2-x,1/2-y,z
3/4-x,3/4+y,1/4+z
3/4+x,3/4-y,1/4+z
loop_
_atom_site_type_symbol
_atom_site_label
_atom_site_fract_x
_atom_site_fract_y
_atom_site_fract_z
Si Si1 0.685752 0.625212 0.155110
Si Si2 0.672509 0.148516 0.476772
Si Si3 0.996597 0.053506 0.171332
Si Si4 0.000000 0.000000 0.650745
Si Si5 0.593386 0.967987 0.502456
Si Si6 0.380090 0.091476 0.936244
Si Si7 0.338082 0.989932 0.010241
Si Si8 0.850010 0.628660 0.760045
O O1 0.814478 0.613332 0.173447
O O2 0.620240 0.575133 0.176939
O O3 0.630616 0.666819 0.209459
O O4 0.653157 0.646556 0.069563
O O5 0.730065 0.201189 0.453986
O O6 0.756748 0.103480 0.462923
O O7 0.968015 0.045930 0.081649
O O8 0.900019 0.088161 0.202879
O O9 0.000000 0.000000 0.216348
O O10 0.108944 0.005692 0.596839
O O11 0.706103 0.999308 0.516148
O O12 0.500000 0.000000 0.454045
O O13 0.389494 0.111332 0.846777
O O14 0.467155 0.120072 0.994101
O O15 0.392107 0.031046 0.950154
O O16 0.358117 0.933216 0.982317
#
# Coordination Sequence:
#
# PCOD8187765 Si02
#       8
#    16  16  16   8  16  16  16  16
#     4  12  25  49  69 107 143 193 246 305 364 451
#     4  12  27  44  73 104 150 186 249 301 369 453
#     4  11  27  47  72 102 143 197 248 310 373 443
#     4  12  26  46  72 108 142 198 228 320 372 440
#     4  11  25  46  74 101 143 196 241 305 377 441
#     4  12  25  46  73 109 146 199 246 308 378 449
#     4  12  23  47  74 105 149 193 240 302 385 440
#     4  12  25  47  74 107 150 192 256 311 378 449
#
# _framework density 21.956384
#
# number of rings (size 3 to 8) (size 9 to 14) (size 15 to 20)
#    0.000    0.267    5.333    3.200    6.533    1.067 
#    2.400    0.000    0.000    0.000    0.000    0.000 
#    0.000    0.000    0.000    0.000    0.000    0.000 
#
# Total GULP energy -371809.905417 kJ/mol
# GULP energy per Si atom -12393.663514 kJ/mol
# Density = 2.190641 g / cm^3
# Si number density = 21.956384 Si / 1000 Ang^3
#
#
#
# Elastic Constant Matrix: (Units=GPa)
#
#
# Indices 1 2 3 4 5 6 
#
# 1 147.3378 50.1371 29.1012 0.0000 0.0000 0.0000
# 2 50.1371 174.1202 50.8521 0.0000 0.0000 0.0000
# 3 29.1012 50.8521 72.5082 0.0000 0.0000 0.0000
# 4 0.0000 0.0000 0.0000 44.2073 0.0000 0.0000
# 5 0.0000 0.0000 0.0000 0.0000 6.7672 0.0000
# 6 0.0000 0.0000 0.0000 0.0000 0.0000 43.8778
#
#
#
# Elastic Compliance Matrix: (Units=1/GPa)
#
#
# Indices 1 2 3 4 5 6 
#
# 1 0.007735 -0.001661 -0.001940 0.000000 0.000000 0.000000
# 2 -0.001661 0.007579 -0.004649 0.000000 0.000000 0.000000
# 3 -0.001940 -0.004649 0.017830 0.000000 0.000000 0.000000
# 4 0.000000 0.000000 0.000000 0.022621 0.000000 0.000000
# 5 0.000000 0.000000 0.000000 0.000000 0.147772 0.000000
# 6 0.000000 0.000000 0.000000 0.000000 0.000000 0.022791
#
#
# Mechanical properties :
#
#
# Convention : Reuss Voigt Hill
#
# Bulk Modulus (GPa) = 60.07469 72.68301 66.37885
# Shear Modulus (GPa) = 20.13076 36.56217 28.34646
#
# Velocity S-wave (km/s) = 3.03124 4.08514 3.59700
# Velocity P-wave (km/s) = 6.29854 7.44489 6.89557
#
# Compressibility (1/GPa) = 0.01664594
#
# Stress axis : x y z
#
# Youngs Moduli (GPa) = 129.27533 131.94166 56.08378
#
# Poissons Ratio (x) = 0.21914 0.10879
# Poissons Ratio (y) = 0.21471 0.26073
# Poissons Ratio (z) = 0.25077 0.61338
#
# Static dielectric constant tensor:
#      x y z
#    x 4.381730 0.000000 0.000000 
#    y 0.000000 -2.197030 0.000000 
#    z 0.000000 0.000000 3.953440 
# 
# 
# High freq. dielectric constant tensor:
#      x y z
#    x 1.881430 0.000000 0.000000 
#    y 0.000000 1.883290 0.000000 
#    z 0.000000 0.000000 1.846630 
# 
# From -- ./inp_files/13490.got.cif
#   From: 2010.06.25/outbox.cif.g09.slc.cpg/sg43_7_cif.got.tgz:13490.got - 2010.06.26 16:48:59.
