data_PCOD8187660
_publ_section_title
;
Structure prediction by ZEFSAII (Michael W. Deem and Ramdas Pophale) SiO2 
 PCOD8187660
Probable space group: F D D 2
;
_chemical_formula_sum "Si O2"
_cell_formula_units_Z 96
_cell_length_a 19.494003
_cell_length_b 11.459335
_cell_length_c 19.873798
_cell_angle_alpha 90.000000
_cell_angle_beta 90.000000
_cell_angle_gamma 90.000000
_cell_volume 4439.574166
_symmetry_space_group_name_H-M "F D D 2"
_symmetry_group_IT_number 43
_symmetry_cell_setting 'orthorhombic'
loop_
_space_group_symop_operation_xyz
x,y,z
-x,-y,z
1/4-x,1/4+y,1/4+z
1/4+x,1/4-y,1/4+z
x,1/2+y,1/2+z
-x,1/2-y,1/2+z
1/4-x,3/4+y,3/4+z
1/4+x,3/4-y,3/4+z
1/2+x,y,1/2+z
1/2-x,-y,1/2+z
3/4-x,1/4+y,3/4+z
3/4+x,1/4-y,3/4+z
1/2+x,1/2+y,z
1/2-x,1/2-y,z
3/4-x,3/4+y,1/4+z
3/4+x,3/4-y,1/4+z
loop_
_atom_site_type_symbol
_atom_site_label
_atom_site_fract_x
_atom_site_fract_y
_atom_site_fract_z
Si Si1 0.123238 0.834927 0.819380
Si Si2 0.828332 0.910006 0.282268
Si Si3 0.276612 0.567831 0.403664
Si Si4 0.205481 0.358617 0.444397
Si Si5 0.852874 0.290951 0.428315
Si Si6 0.997666 0.861986 0.899808
O O1 0.170613 0.721899 0.808787
O O2 0.161168 0.904503 0.879807
O O3 0.115572 0.911012 0.753012
O O4 0.047492 0.800610 0.845675
O O5 0.905709 0.930333 0.254715
O O6 0.771091 0.921204 0.225004
O O7 0.808160 0.004277 0.338233
O O8 0.254813 0.469828 0.459526
O O9 0.208463 0.644099 0.388782
O O10 0.335139 0.653069 0.433508
O O11 0.250000 0.250000 0.423107
O O12 0.922267 0.310651 0.386296
O O13 0.000000 0.000000 0.887648
#
# Coordination Sequence:
#
# PCOD8187660 Si02
#       6
#    16  16  16  16  16  16
#     4  11  22  40  72  98 136 179 241 282 333 427
#     4  11  23  43  66 101 136 180 238 284 340 422
#     4  11  24  43  65  97 143 182 224 293 358 407
#     4  11  22  40  71 100 132 189 233 283 350 415
#     4  11  24  45  65 108 142 180 226 292 365 411
#     4  11  23  40  70 103 129 184 240 282 340 412
#
# _framework density 21.623695000000001
#
# number of rings (size 3 to 8) (size 9 to 14) (size 15 to 20)
#    0.000    1.000    5.000    2.000    2.333    1.333 
#    0.000    3.333    0.000    0.000    0.000    0.000 
#    0.000    0.000    0.000    0.000    0.000    0.000 
#
# Total GULP energy -297444.503383 kJ/mol
# GULP energy per Si atom -12393.520974 kJ/mol
# Density = 2.157448 g / cm^3
# Si number density = 21.623695 Si / 1000 Ang^3
#
#
#
# Elastic Constant Matrix: (Units=GPa)
#
#
# Indices 1 2 3 4 5 6 
#
# 1 142.1462 60.7978 27.8629 0.0000 0.0000 0.0000
# 2 60.7978 128.7195 31.2801 0.0000 0.0000 0.0000
# 3 27.8629 31.2801 77.9410 0.0000 0.0000 0.0000
# 4 0.0000 0.0000 0.0000 27.7067 0.0000 0.0000
# 5 0.0000 0.0000 0.0000 0.0000 12.1963 0.0000
# 6 0.0000 0.0000 0.0000 0.0000 0.0000 39.1474
#
#
#
# Elastic Compliance Matrix: (Units=1/GPa)
#
#
# Indices 1 2 3 4 5 6 
#
# 1 0.009009 -0.003848 -0.001676 0.000000 0.000000 0.000000
# 2 -0.003848 0.010252 -0.002739 0.000000 0.000000 0.000000
# 3 -0.001676 -0.002739 0.014529 0.000000 0.000000 0.000000
# 4 0.000000 0.000000 0.000000 0.036092 0.000000 0.000000
# 5 0.000000 0.000000 0.000000 0.000000 0.081992 0.000000
# 6 0.000000 0.000000 0.000000 0.000000 0.000000 0.025544
#
#
# Mechanical properties :
#
#
# Convention : Reuss Voigt Hill
#
# Bulk Modulus (GPa) = 57.92548 65.40981 61.66764
# Shear Modulus (GPa) = 25.03754 31.06779 28.05267
#
# Velocity S-wave (km/s) = 3.40645 3.79456 3.60573
# Velocity P-wave (km/s) = 6.50523 7.03655 6.77610
#
# Compressibility (1/GPa) = 0.01726356
#
# Stress axis : x y z
#
# Youngs Moduli (GPa) = 110.99427 97.54269 68.82942
#
# Poissons Ratio (x) = 0.37535 0.11539
# Poissons Ratio (y) = 0.42711 0.18851
# Poissons Ratio (z) = 0.18607 0.26715
#
# Static dielectric constant tensor:
#      x y z
#    x 4.387780 0.000000 0.000000 
#    y 0.000000 3.896400 0.000000 
#    z 0.000000 0.000000 3.755270 
# 
# 
# High freq. dielectric constant tensor:
#      x y z
#    x 1.870030 0.000000 0.000000 
#    y 0.000000 1.838310 0.000000 
#    z 0.000000 0.000000 1.832880 
# 
# From -- ./inp_files/17127.got.cif
#   From: 2010.06.25/outbox.cif.g09.slc.cpg/sg43_9_cif.got.tgz:17127.got - 2010.06.26 16:48:59.
