data_PCOD8187759
_publ_section_title
;
Structure prediction by ZEFSAII (Michael W. Deem and Ramdas Pophale) SiO2 
 PCOD8187759
Probable space group: F D D 2
;
_chemical_formula_sum "Si O2"
_cell_formula_units_Z 120
_cell_length_a 25.475588
_cell_length_b 25.476287
_cell_length_c 9.144318
_cell_angle_alpha 90.000000
_cell_angle_beta 90.000000
_cell_angle_gamma 90.000000
_cell_volume 5934.876280
_symmetry_space_group_name_H-M "F D D 2"
_symmetry_group_IT_number 43
_symmetry_cell_setting 'orthorhombic'
loop_
_space_group_symop_operation_xyz
x,y,z
-x,-y,z
1/4-x,1/4+y,1/4+z
1/4+x,1/4-y,1/4+z
x,1/2+y,1/2+z
-x,1/2-y,1/2+z
1/4-x,3/4+y,3/4+z
1/4+x,3/4-y,3/4+z
1/2+x,y,1/2+z
1/2-x,-y,1/2+z
3/4-x,1/4+y,3/4+z
3/4+x,1/4-y,3/4+z
1/2+x,1/2+y,z
1/2-x,1/2-y,z
3/4-x,3/4+y,1/4+z
3/4+x,3/4-y,1/4+z
loop_
_atom_site_type_symbol
_atom_site_label
_atom_site_fract_x
_atom_site_fract_y
_atom_site_fract_z
Si Si1 0.394145 0.532461 0.855690
Si Si2 0.250000 0.750000 0.729505
Si Si3 0.145394 0.889494 0.095520
Si Si4 0.300270 0.550275 0.354492
Si Si5 0.435554 0.194275 0.022323
Si Si6 0.717533 0.855854 0.353246
Si Si7 0.860511 0.104608 0.613433
Si Si8 0.194284 0.564447 0.936577
O O1 0.449075 0.502390 0.875294
O O2 0.345647 0.493008 0.840457
O O3 0.397259 0.566137 0.707932
O O4 0.385771 0.569997 0.993951
O O5 0.252388 0.699076 0.833710
O O6 0.178026 0.922319 0.211094
O O7 0.107069 0.850057 0.178145
O O8 0.183873 0.852750 0.001033
O O9 0.238141 0.561559 0.368145
O O10 0.327664 0.571964 0.497928
O O11 0.311555 0.488148 0.340801
O O12 0.399945 0.142920 0.030747
O O13 0.452739 0.202721 0.854456
O O14 0.679984 0.864204 0.214999
O O15 0.756983 0.904359 0.368401
#
# Coordination Sequence:
#
# PCOD8187759 Si02
#       8
#    16   8  16  16  16  16  16  16
#     4  11  25  44  68 101 133 178 228 278 341 411
#     4  12  24  44  72  98 140 180 232 286 344 400
#     4  11  25  44  68  99 137 177 226 282 345 405
#     4  12  26  42  70  98 138 182 228 286 344 410
#     4  12  25  44  70 102 141 179 229 284 343 411
#     4  11  25  44  68 101 133 178 228 278 341 411
#     4  11  25  44  68  99 137 177 226 282 345 405
#     4  12  25  44  70 102 141 179 229 284 343 411
#
# _framework density 20.219462
#
# number of rings (size 3 to 8) (size 9 to 14) (size 15 to 20)
#    0.000    0.533    6.667    1.600    3.733    0.000 
#    0.000    0.000    0.000    1.600    0.000    0.000 
#    0.000    0.000    0.000    0.000    0.000    0.000 
#
# Total GULP energy -372148.939995 kJ/mol
# GULP energy per Si atom -12404.964667 kJ/mol
# Density = 2.017344 g / cm^3
# Si number density = 20.219462 Si / 1000 Ang^3
#
#
#
# Elastic Constant Matrix: (Units=GPa)
#
#
# Indices 1 2 3 4 5 6 
#
# 1 108.2403 46.4359 31.9303 -0.1094 -0.0751 0.0006
# 2 46.4359 108.2481 31.9212 -0.0388 -0.0932 -0.0002
# 3 31.9303 31.9212 93.6264 -0.3053 0.0528 0.0052
# 4 -0.1094 -0.0388 -0.3053 379.0913 -2.4317 0.1440
# 5 -0.0751 -0.0932 0.0528 -2.4317 327.6859 -0.0344
# 6 0.0006 -0.0002 0.0052 0.1440 -0.0344 40.2933
#
#
#
# Elastic Compliance Matrix: (Units=1/GPa)
#
#
# Indices 1 2 3 4 5 6 
#
# 1 0.011852 -0.004328 -0.002567 0.000001 0.000002 0.000000
# 2 -0.004328 0.011851 -0.002565 -0.000002 0.000003 0.000000
# 3 -0.002567 -0.002565 0.012430 0.000009 -0.000003 -0.000002
# 4 0.000001 -0.000002 0.000009 0.002638 0.000020 -0.000009
# 5 0.000002 0.000003 -0.000003 0.000020 0.003052 0.000003
# 6 0.000000 0.000000 -0.000002 -0.000009 0.000003 0.024818
#
#
# Mechanical properties :
#
#
# Convention : Reuss Voigt Hill
#
# Bulk Modulus (GPa) = 58.08534 58.96551 58.52542
# Shear Modulus (GPa) = 54.76584 162.73594 108.75089
#
# Velocity S-wave (km/s) = 5.21004 8.98106 7.34180
# Velocity P-wave (km/s) = 8.06117 11.69496 10.04377
#
# Compressibility (1/GPa) = 0.01721605
#
# Stress axis : x y z
#
# Youngs Moduli (GPa) = 84.37108 84.38311 80.44732
#
# Poissons Ratio (x) = 0.36517 0.20648
# Poissons Ratio (y) = 0.36512 0.20631
# Poissons Ratio (z) = 0.21656 0.21641
#
# Static dielectric constant tensor:
#      x y z
#    x 3.463280 -0.002710 0.000340 
#    y -0.002710 3.409250 0.000090 
#    z 0.000340 0.000090 3.764190 
# 
# 
# High freq. dielectric constant tensor:
#      x y z
#    x 1.800590 0.000000 0.000000 
#    y 0.000000 1.800600 0.000000 
#    z 0.000000 0.000000 1.790360 
# 
# From -- ./inp_files/3900.got.cif
#   From: 2010.06.25/outbox.cif.g09.slc.cpg/sg43_2_cif.got.tgz:3900.got - 2010.06.26 16:48:59.
