data_PCOD8187373
_publ_section_title
;
Structure prediction by ZEFSAII (Michael W. Deem and Ramdas Pophale) SiO2 
 PCOD8187373
Probable space group: F D D 2
;
_chemical_formula_sum "Si O2"
_cell_formula_units_Z 64
_cell_length_a 26.612000
_cell_length_b 18.435029
_cell_length_c 6.579095
_cell_angle_alpha 90.000000
_cell_angle_beta 90.000000
_cell_angle_gamma 90.000000
_cell_volume 3227.657899
_symmetry_space_group_name_H-M "F D D 2"
_symmetry_group_IT_number 43
_symmetry_cell_setting 'orthorhombic'
loop_
_space_group_symop_operation_xyz
x,y,z
-x,-y,z
1/4-x,1/4+y,1/4+z
1/4+x,1/4-y,1/4+z
x,1/2+y,1/2+z
-x,1/2-y,1/2+z
1/4-x,3/4+y,3/4+z
1/4+x,3/4-y,3/4+z
1/2+x,y,1/2+z
1/2-x,-y,1/2+z
3/4-x,1/4+y,3/4+z
3/4+x,1/4-y,3/4+z
1/2+x,1/2+y,z
1/2-x,1/2-y,z
3/4-x,3/4+y,1/4+z
3/4+x,3/4-y,1/4+z
loop_
_atom_site_type_symbol
_atom_site_label
_atom_site_fract_x
_atom_site_fract_y
_atom_site_fract_z
Si Si1 0.626230 0.664266 0.200050
Si Si2 0.553981 0.080887 0.955675
Si Si3 0.560287 0.424208 0.318905
Si Si4 0.118658 0.071739 0.814069
O O1 0.582027 0.650743 0.362636
O O2 0.620802 0.598555 0.043683
O O3 0.679326 0.665249 0.325606
O O4 0.618297 0.736926 0.072493
O O5 0.578418 0.004851 0.879985
O O6 0.496949 0.085498 0.886343
O O7 0.564355 0.082945 0.200665
O O8 0.589048 0.360867 0.433563
#
# Coordination Sequence:
#
# PCOD8187373 Si02
#       4
#    16  16  16  16
#     4  11  22  41  64  91 126 163 204 266 316 367
#     4  10  22  41  63  91 123 166 213 253 311 386
#     4  10  22  41  63  91 123 166 213 253 311 386
#     4  11  22  41  64  91 126 163 204 266 316 367
#
# _framework density 19.828619
#
# number of rings (size 3 to 8) (size 9 to 14) (size 15 to 20)
#    0.000    1.500    5.000    0.000    0.000    2.000 
#    9.000    0.000    0.000    0.000    0.000    0.000 
#    0.000    0.000    0.000    0.000    0.000    0.000 
#
# Total GULP energy -198268.180551 kJ/mol
# GULP energy per Si atom -12391.761284 kJ/mol
# Density = 1.978349 g / cm^3
# Si number density = 19.828619 Si / 1000 Ang^3
#
#
#
# Elastic Constant Matrix: (Units=GPa)
#
#
# Indices 1 2 3 4 5 6 
#
# 1 105.4529 49.9608 55.1289 0.0000 0.0000 0.0000
# 2 49.9608 69.3773 25.5482 0.0021 0.0002 0.0002
# 3 55.1289 25.5482 127.2084 0.0051 0.0002 0.0002
# 4 0.0000 0.0021 0.0051 39.6499 0.0002 0.0002
# 5 0.0000 0.0002 0.0002 0.0002 39.0386 0.0000
# 6 0.0000 0.0002 0.0002 0.0002 0.0000 24.4740
#
#
#
# Elastic Compliance Matrix: (Units=1/GPa)
#
#
# Indices 1 2 3 4 5 6 
#
# 1 0.017235 -0.010432 -0.005374 0.000001 0.000000 0.000000
# 2 -0.010432 0.021880 0.000127 -0.000001 0.000000 0.000000
# 3 -0.005374 0.000127 0.010165 -0.000001 0.000000 0.000000
# 4 0.000001 -0.000001 -0.000001 0.025221 0.000000 0.000000
# 5 0.000000 0.000000 0.000000 0.000000 0.025616 0.000000
# 6 0.000000 0.000000 0.000000 0.000000 0.000000 0.040860
#
#
# Mechanical properties :
#
#
# Convention : Reuss Voigt Hill
#
# Bulk Modulus (GPa) = 55.80250 62.59049 59.19650
# Shear Modulus (GPa) = 28.04133 32.05921 30.05027
#
# Velocity S-wave (km/s) = 3.76464 4.02533 3.89717
# Velocity P-wave (km/s) = 6.86296 7.29648 7.08304
#
# Compressibility (1/GPa) = 0.01792034
#
# Stress axis : x y z
#
# Youngs Moduli (GPa) = 58.02166 45.70390 98.38082
#
# Poissons Ratio (x) = 0.47680 0.52869
# Poissons Ratio (y) = 0.60531 -0.01248
# Poissons Ratio (z) = 0.31181 -0.00580
#
# Static dielectric constant tensor:
#      x y z
#    x 3.391980 0.000000 0.000000 
#    y 0.000000 3.785820 0.000000 
#    z 0.000000 0.000000 3.998490 
# 
# 
# High freq. dielectric constant tensor:
#      x y z
#    x 1.744980 0.000000 0.000000 
#    y 0.000000 1.784640 0.000000 
#    z 0.000000 0.000000 1.789860 
# 
# From -- ./inp_files/3092.got.cif
#   From: 2010.06.25/outbox.cif.g09.slc.cpg/sg43_2_cif.got.tgz:3092.got - 2010.06.26 16:48:59.
