data_PCOD8187563
_publ_section_title
;
Structure prediction by ZEFSAII (Michael W. Deem and Ramdas Pophale) SiO2 
 PCOD8187563
Probable space group: F D D 2
;
_chemical_formula_sum "Si O2"
_cell_formula_units_Z 104
_cell_length_a 30.371997
_cell_length_b 7.937670
_cell_length_c 18.860668
_cell_angle_alpha 90.000000
_cell_angle_beta 90.000000
_cell_angle_gamma 90.000000
_cell_volume 4546.984338
_symmetry_space_group_name_H-M "F D D 2"
_symmetry_group_IT_number 43
_symmetry_cell_setting 'orthorhombic'
loop_
_space_group_symop_operation_xyz
x,y,z
-x,-y,z
1/4-x,1/4+y,1/4+z
1/4+x,1/4-y,1/4+z
x,1/2+y,1/2+z
-x,1/2-y,1/2+z
1/4-x,3/4+y,3/4+z
1/4+x,3/4-y,3/4+z
1/2+x,y,1/2+z
1/2-x,-y,1/2+z
3/4-x,1/4+y,3/4+z
3/4+x,1/4-y,3/4+z
1/2+x,1/2+y,z
1/2-x,1/2-y,z
3/4-x,3/4+y,1/4+z
3/4+x,3/4-y,1/4+z
loop_
_atom_site_type_symbol
_atom_site_label
_atom_site_fract_x
_atom_site_fract_y
_atom_site_fract_z
Si Si1 0.251340 0.942642 0.517400
Si Si2 0.325123 0.501745 0.420598
Si Si3 0.331194 0.861180 0.429581
Si Si4 0.375522 0.856374 0.570434
Si Si5 0.250000 0.250000 0.620222
Si Si6 0.702373 0.676677 0.283576
Si Si7 0.668288 0.899915 0.673678
O O1 0.250000 0.750000 0.547195
O O2 0.203926 0.999662 0.490675
O O3 0.285904 0.956345 0.451128
O O4 0.259649 0.076311 0.579033
O O5 0.324837 0.689541 0.385064
O O6 0.300814 0.384528 0.364222
O O7 0.372751 0.437199 0.446929
O O8 0.349246 0.782346 0.504003
O O9 0.363432 0.980976 0.385167
O O10 0.419204 0.917967 0.530610
O O11 0.343888 0.003819 0.600362
O O12 0.295242 0.250622 0.665761
O O13 0.750000 0.750000 0.263431
O O14 0.686915 0.530839 0.230714
#
# Coordination Sequence:
#
# PCOD8187563 Si02
#       7
#    16  16  16  16   8  16  16
#     4  10  24  44  71 108 137 191 248 302 356 441
#     4  10  26  43  74 100 139 187 247 295 361 448
#     4  11  23  44  73 107 146 186 242 302 366 440
#     4  11  23  43  72 104 142 188 238 295 365 435
#     4  12  26  44  74 100 154 184 242 306 370 428
#     4  11  25  46  68  99 145 190 238 301 368 436
#     4  11  26  45  67 108 140 191 238 294 370 442
#
# _framework density 22.872299999999999
#
# number of rings (size 3 to 8) (size 9 to 14) (size 15 to 20)
#    0.000    1.231    3.077    0.923   11.846    3.077 
#    4.154    0.000    0.000    0.000    0.000    0.000 
#    0.000    0.000    0.000    0.000    0.000    0.000 
#
# Total GULP energy -322134.860356 kJ/mol
# GULP energy per Si atom -12389.802321 kJ/mol
# Density = 2.282024 g / cm^3
# Si number density = 22.872300 Si / 1000 Ang^3
#
#
#
# Elastic Constant Matrix: (Units=GPa)
#
#
# Indices 1 2 3 4 5 6 
#
# 1 152.1473 44.6113 53.4051 0.0000 0.0000 0.0000
# 2 44.6113 80.0968 25.6274 0.0000 0.0000 0.0000
# 3 53.4051 25.6274 50.6534 0.0000 0.0000 0.0000
# 4 0.0000 0.0000 0.0000 21.7967 0.0000 0.0000
# 5 0.0000 0.0000 0.0000 0.0000 15.8934 0.0000
# 6 0.0000 0.0000 0.0000 0.0000 0.0000 45.1143
#
#
#
# Elastic Compliance Matrix: (Units=1/GPa)
#
#
# Indices 1 2 3 4 5 6 
#
# 1 0.010961 -0.002872 -0.010103 0.000000 0.000000 0.000000
# 2 -0.002872 0.015649 -0.004889 0.000000 0.000000 0.000000
# 3 -0.010103 -0.004889 0.032868 0.000000 0.000000 0.000000
# 4 0.000000 0.000000 0.000000 0.045879 0.000000 0.000000
# 5 0.000000 0.000000 0.000000 0.000000 0.062919 0.000000
# 6 0.000000 0.000000 0.000000 0.000000 0.000000 0.022166
#
#
# Mechanical properties :
#
#
# Convention : Reuss Voigt Hill
#
# Bulk Modulus (GPa) = 42.10806 58.90947 50.50877
# Shear Modulus (GPa) = 21.35956 27.17778 24.26867
#
# Velocity S-wave (km/s) = 3.05923 3.45082 3.26091
# Velocity P-wave (km/s) = 5.56134 6.45673 6.02569
#
# Compressibility (1/GPa) = 0.02374842
#
# Stress axis : x y z
#
# Youngs Moduli (GPa) = 91.23115 63.90192 30.42497
#
# Poissons Ratio (x) = 0.18355 0.30739
# Poissons Ratio (y) = 0.26205 0.14875
# Poissons Ratio (z) = 0.92174 0.31242
#
# Static dielectric constant tensor:
#      x y z
#    x 4.451990 0.000000 0.000000 
#    y 0.000000 4.193880 0.000000 
#    z 0.000000 0.000000 3.786660 
# 
# 
# High freq. dielectric constant tensor:
#      x y z
#    x 1.927300 0.000000 0.000000 
#    y 0.000000 1.902630 0.000000 
#    z 0.000000 0.000000 1.883590 
# 
# From -- ./inp_files/18870.got.cif
#   From: 2010.06.25/outbox.cif.g09.slc.cpg/sg43_10_cif.got.tgz:18870.got - 2010.06.26 16:48:59.
