data_PCOD8187444
_publ_section_title
;
Structure prediction by ZEFSAII (Michael W. Deem and Ramdas Pophale) SiO2 
 PCOD8187444
Probable space group: F D D 2
;
_chemical_formula_sum "Si O2"
_cell_formula_units_Z 96
_cell_length_a 9.645704
_cell_length_b 22.219255
_cell_length_c 17.902157
_cell_angle_alpha 90.000000
_cell_angle_beta 90.000000
_cell_angle_gamma 90.000000
_cell_volume 3836.796676
_symmetry_space_group_name_H-M "F D D 2"
_symmetry_group_IT_number 43
_symmetry_cell_setting 'orthorhombic'
loop_
_space_group_symop_operation_xyz
x,y,z
-x,-y,z
1/4-x,1/4+y,1/4+z
1/4+x,1/4-y,1/4+z
x,1/2+y,1/2+z
-x,1/2-y,1/2+z
1/4-x,3/4+y,3/4+z
1/4+x,3/4-y,3/4+z
1/2+x,y,1/2+z
1/2-x,-y,1/2+z
3/4-x,1/4+y,3/4+z
3/4+x,1/4-y,3/4+z
1/2+x,1/2+y,z
1/2-x,1/2-y,z
3/4-x,3/4+y,1/4+z
3/4+x,3/4-y,1/4+z
loop_
_atom_site_type_symbol
_atom_site_label
_atom_site_fract_x
_atom_site_fract_y
_atom_site_fract_z
Si Si1 0.779859 0.040244 0.262690
Si Si2 0.000000 0.500000 0.196723
Si Si3 0.250000 0.250000 0.394075
Si Si4 0.929291 0.787162 0.676126
Si Si5 0.896434 0.414668 0.961358
Si Si6 0.848223 0.113160 0.678187
Si Si7 0.322076 0.127476 0.342285
O O1 0.805482 0.009206 0.342684
O O2 0.828902 0.111249 0.271776
O O3 0.865984 0.009523 0.196498
O O4 0.616394 0.033778 0.246211
O O5 0.069220 0.445959 0.147248
O O6 0.287244 0.197749 0.336460
O O7 0.908403 0.731797 0.736315
O O8 0.794310 0.828600 0.672294
O O9 0.059954 0.828145 0.695024
O O10 0.781622 0.396399 0.903004
O O11 0.729997 0.131756 0.620283
O O12 0.795302 0.095364 0.762075
#
# Coordination Sequence:
#
# PCOD8187444 Si02
#       7
#    16   8   8  16  16  16  16
#     4  11  22  43  73 100 139 192 237 296 358 438
#     4  12  22  44  69 101 136 190 236 296 368 436
#     4  10  22  44  71 101 138 182 240 292 354 434
#     4  11  24  44  69 102 144 186 237 295 366 430
#     4  10  24  43  69 102 136 187 240 289 351 447
#     4  12  26  46  68 107 142 189 236 308 366 441
#     4  11  26  44  71 103 142 188 241 296 367 432
#
# _framework density 25.020873000000002
#
# number of rings (size 3 to 8) (size 9 to 14) (size 15 to 20)
#    0.000    1.000    3.333    3.000    4.667    2.000 
#    6.000    0.000    0.000    0.000    0.000    0.000 
#    0.000    0.000    0.000    0.000    0.000    0.000 
#
# Total GULP energy -297345.053246 kJ/mol
# GULP energy per Si atom -12389.377219 kJ/mol
# Density = 2.496392 g / cm^3
# Si number density = 25.020873 Si / 1000 Ang^3
#
#
#
# Elastic Constant Matrix: (Units=GPa)
#
#
# Indices 1 2 3 4 5 6 
#
# 1 106.4606 18.3252 -2.6689 0.0000 0.0000 0.0000
# 2 18.3252 108.4584 -8.0139 0.0000 0.0000 0.0000
# 3 -2.6689 -8.0139 34.3161 0.0000 0.0000 0.0000
# 4 0.0000 0.0000 0.0000 31.1928 0.0000 0.0000
# 5 0.0000 0.0000 0.0000 0.0000 -3.9375 0.0000
# 6 0.0000 0.0000 0.0000 0.0000 0.0000 37.2015
#
#
#
# Elastic Compliance Matrix: (Units=1/GPa)
#
#
# Indices 1 2 3 4 5 6 
#
# 1 0.009679 -0.001608 0.000377 0.000000 0.000000 0.000000
# 2 -0.001608 0.009649 0.002128 0.000000 0.000000 0.000000
# 3 0.000377 0.002128 0.029667 0.000000 0.000000 0.000000
# 4 0.000000 0.000000 0.000000 0.032059 0.000000 0.000000
# 5 0.000000 0.000000 0.000000 0.000000 -0.253968 0.000000
# 6 0.000000 0.000000 0.000000 0.000000 0.000000 0.026881
#
#
# Mechanical properties :
#
#
# Convention : Reuss Voigt Hill
#
# Bulk Modulus (GPa) = 19.68817 29.39110 24.53964
# Shear Modulus (GPa) = -38.19742 28.99753 -4.59995
#
# Velocity S-wave (km/s) = -3.91144 3.40800 -1.35736
# Velocity P-wave (km/s) = 3.53742 5.22093 2.71521
#
# Compressibility (1/GPa) = 0.05079191
#
# Stress axis : x y z
#
# Youngs Moduli (GPa) = 103.31315 103.63769 33.70719
#
# Poissons Ratio (x) = 0.16660 -0.01272
# Poissons Ratio (y) = 0.16608 -0.07174
# Poissons Ratio (z) = -0.03899 -0.22058
#
# Static dielectric constant tensor:
#      x y z
#    x 4.649400 0.000000 0.000000 
#    y 0.000000 6.520660 0.000000 
#    z 0.000000 0.000000 4.051440 
# 
# 
# High freq. dielectric constant tensor:
#      x y z
#    x 2.013830 0.000000 0.000000 
#    y 0.000000 2.025600 0.000000 
#    z 0.000000 0.000000 1.954530 
# 
# From -- ./inp_files/16501.got.cif
#   From: 2010.06.25/outbox.cif.g09.slc.cpg/sg43_9_cif.got.tgz:16501.got - 2010.06.26 16:48:59.
