data_PCOD8187417
_publ_section_title
;
Structure prediction by ZEFSAII (Michael W. Deem and Ramdas Pophale) SiO2 
 PCOD8187417
Probable space group: F D D 2
;
_chemical_formula_sum "Si O2"
_cell_formula_units_Z 56
_cell_length_a 24.938734
_cell_length_b 15.019242
_cell_length_c 7.429108
_cell_angle_alpha 90.000000
_cell_angle_beta 90.000000
_cell_angle_gamma 90.000000
_cell_volume 2782.653238
_symmetry_space_group_name_H-M "F D D 2"
_symmetry_group_IT_number 43
_symmetry_cell_setting 'orthorhombic'
loop_
_space_group_symop_operation_xyz
x,y,z
-x,-y,z
1/4-x,1/4+y,1/4+z
1/4+x,1/4-y,1/4+z
x,1/2+y,1/2+z
-x,1/2-y,1/2+z
1/4-x,3/4+y,3/4+z
1/4+x,3/4-y,3/4+z
1/2+x,y,1/2+z
1/2-x,-y,1/2+z
3/4-x,1/4+y,3/4+z
3/4+x,1/4-y,3/4+z
1/2+x,1/2+y,z
1/2-x,1/2-y,z
3/4-x,3/4+y,1/4+z
3/4+x,3/4-y,1/4+z
loop_
_atom_site_type_symbol
_atom_site_label
_atom_site_fract_x
_atom_site_fract_y
_atom_site_fract_z
Si Si1 0.060096 0.786098 0.355010
Si Si2 0.537635 0.823475 0.455474
Si Si3 0.250000 0.750000 0.581422
Si Si4 0.157423 0.164878 0.903553
O O1 0.998907 0.761228 0.403786
O O2 0.097557 0.702138 0.402824
O O3 0.077263 0.874349 0.460772
O O4 0.065829 0.808462 0.145241
O O5 0.584551 0.836893 0.305057
O O6 0.499695 0.911851 0.456520
O O7 0.197459 0.747039 0.452026
#
# Coordination Sequence:
#
# PCOD8187417 Si02
#       4
#    16  16   8  16
#     4  12  22  43  67  93 129 171 215 264 331 368
#     4  10  22  43  66  94 127 170 213 270 311 393
#     4   8  20  46  58  94 130 160 214 262 304 384
#     4  10  24  41  65  95 129 166 215 268 312 395
#
# _framework density 20.124677999999999
#
# number of rings (size 3 to 8) (size 9 to 14) (size 15 to 20)
#    1.714    0.000    2.857    1.714    0.000    3.429 
#    5.143    0.000    0.000    0.000    0.000    0.000 
#    0.000    0.000    0.000    0.000    0.000    0.000 
#
# Total GULP energy -173505.560594 kJ/mol
# GULP energy per Si atom -12393.254328 kJ/mol
# Density = 2.007887 g / cm^3
# Si number density = 20.124678 Si / 1000 Ang^3
#
#
#
# Elastic Constant Matrix: (Units=GPa)
#
#
# Indices 1 2 3 4 5 6 
#
# 1 81.0814 24.8723 50.2723 0.0000 0.0000 0.0000
# 2 24.8723 59.4203 20.0489 0.0000 0.0000 0.0000
# 3 50.2723 20.0489 138.5889 0.0001 0.0000 0.0000
# 4 0.0000 0.0000 0.0001 40.0296 0.0000 0.0000
# 5 0.0000 0.0000 0.0000 0.0000 27.3733 0.0000
# 6 0.0000 0.0000 0.0000 0.0000 0.0000 32.3318
#
#
#
# Elastic Compliance Matrix: (Units=1/GPa)
#
#
# Indices 1 2 3 4 5 6 
#
# 1 0.017432 -0.005428 -0.005538 0.000000 0.000000 0.000000
# 2 -0.005428 0.019383 -0.000835 0.000000 0.000000 0.000000
# 3 -0.005538 -0.000835 0.009345 0.000000 0.000000 0.000000
# 4 0.000000 0.000000 0.000000 0.024982 0.000000 0.000000
# 5 0.000000 0.000000 0.000000 0.000000 0.036532 0.000000
# 6 0.000000 0.000000 0.000000 0.000000 0.000000 0.030929
#
#
# Mechanical properties :
#
#
# Convention : Reuss Voigt Hill
#
# Bulk Modulus (GPa) = 44.33029 52.16420 48.24725
# Shear Modulus (GPa) = 29.45933 32.20675 30.83304
#
# Velocity S-wave (km/s) = 3.83017 4.00479 3.91845
# Velocity P-wave (km/s) = 6.45259 6.88195 6.67073
#
# Compressibility (1/GPa) = 0.02255794
#
# Stress axis : x y z
#
# Youngs Moduli (GPa) = 57.36508 51.59114 107.00547
#
# Poissons Ratio (x) = 0.28005 0.59261
# Poissons Ratio (y) = 0.31139 0.08935
# Poissons Ratio (z) = 0.31770 0.04308
#
# Static dielectric constant tensor:
#      x y z
#    x 3.403150 0.000000 0.000000 
#    y 0.000000 3.401610 0.000000 
#    z 0.000000 0.000000 3.511490 
# 
# 
# High freq. dielectric constant tensor:
#      x y z
#    x 1.775070 0.000000 0.000000 
#    y 0.000000 1.773940 0.000000 
#    z 0.000000 0.000000 1.781040 
# 
# From -- ./inp_files/470.got.cif
#   From: 2010.06.25/outbox.cif.g09.slc.cpg/sg43_1_cif.got.tgz:470.got - 2010.06.26 16:48:59.
