data_PCOD8187880
_publ_section_title
;
Structure prediction by ZEFSAII (Michael W. Deem and Ramdas Pophale) SiO2 
 PCOD8187880
Probable space group: I M M 2
;
_chemical_formula_sum "Si O2"
_cell_formula_units_Z 46
_cell_length_a 12.042879
_cell_length_b 11.558280
_cell_length_c 17.598917
_cell_angle_alpha 90.000000
_cell_angle_beta 90.000000
_cell_angle_gamma 90.000000
_cell_volume 2449.680680
_symmetry_space_group_name_H-M "I M M 2"
_symmetry_group_IT_number 44
_symmetry_cell_setting 'orthorhombic'
loop_
_space_group_symop_operation_xyz
x,y,z
-x,-y,z
-x,y,z
x,-y,z
1/2+x,1/2+y,1/2+z
1/2-x,1/2-y,1/2+z
1/2-x,1/2+y,1/2+z
1/2+x,1/2-y,1/2+z
loop_
_atom_site_type_symbol
_atom_site_label
_atom_site_fract_x
_atom_site_fract_y
_atom_site_fract_z
Si Si1 0.375784 0.725420 0.891490
Si Si2 0.127002 0.779524 0.668410
Si Si3 0.741467 0.000000 0.638618
Si Si4 0.500000 0.000000 0.574612
Si Si5 0.868393 0.627421 0.529622
Si Si6 0.500000 0.126372 0.424584
Si Si7 0.319289 0.862006 0.311922
Si Si8 0.120550 0.000000 0.491811
O O1 0.500000 0.747489 0.861060
O O2 0.297681 0.705623 0.818991
O O3 0.366937 0.610603 0.940515
O O4 0.335521 0.830392 0.945210
O O5 0.175399 0.714944 0.593891
O O6 0.124254 0.687731 0.736726
O O7 0.000000 0.822993 0.655801
O O8 0.209928 0.887747 0.682680
O O9 0.606856 0.000000 0.630726
O O10 0.782992 0.000000 0.552625
O O11 0.500000 0.886293 0.517291
O O12 0.816354 0.500000 0.541796
O O13 0.000000 0.622775 0.537225
O O14 0.611487 0.180016 0.387385
O O15 0.500000 0.000000 0.385908
O O16 0.302923 0.000000 0.304649
O O17 0.000000 0.000000 0.532570
#
# Coordination Sequence:
#
# PCOD8187880 Si02
#       8
#     8   8   4   2   8   4   8   4
#     4  10  19  32  55  82 109 145 191 245 289 336
#     4  11  22  36  57  84 114 150 188 242 293 350
#     4  12  22  38  58  86 116 150 193 235 296 352
#     4  10  22  38  62  86 114 152 192 252 282 352
#     4   9  18  32  53  82 113 143 183 232 290 342
#     4   8  18  32  56  85 107 139 183 240 283 332
#     4  11  20  35  56  82 115 149 192 238 295 349
#     4  10  16  30  58  88 110 133 184 252 294 324
#
# _framework density 18.777958000000002
#
# number of rings (size 3 to 8) (size 9 to 14) (size 15 to 20)
#    0.261    1.565    3.478    2.348    0.000    0.696 
#    3.130    0.000    0.000    0.000    0.000    1.217 
#    0.000    0.000    0.000    0.000    0.000    0.000 
#
# Total GULP energy -284967.854374 kJ/mol
# GULP energy per Si atom -12389.906712 kJ/mol
# Density = 1.873522 g / cm^3
# Si number density = 18.777958 Si / 1000 Ang^3
#
#
#
# Elastic Constant Matrix: (Units=GPa)
#
#
# Indices 1 2 3 4 5 6 
#
# 1 95.5837 29.2767 26.0255 0.0000 0.0000 0.0000
# 2 29.2767 95.4023 21.6891 0.0000 0.0000 0.0000
# 3 26.0255 21.6891 44.0727 0.0000 0.0000 0.0000
# 4 0.0000 0.0000 0.0000 -49.6246 0.0000 0.0000
# 5 0.0000 0.0000 0.0000 0.0000 27.7001 0.0000
# 6 0.0000 0.0000 0.0000 0.0000 0.0000 16.5887
#
#
#
# Elastic Compliance Matrix: (Units=1/GPa)
#
#
# Indices 1 2 3 4 5 6 
#
# 1 0.012985 -0.002524 -0.006426 0.000000 0.000000 0.000000
# 2 -0.002524 0.012293 -0.004559 0.000000 0.000000 0.000000
# 3 -0.006426 -0.004559 0.028728 0.000000 0.000000 0.000000
# 4 0.000000 0.000000 0.000000 -0.020151 0.000000 0.000000
# 5 0.000000 0.000000 0.000000 0.000000 0.036101 0.000000
# 6 0.000000 0.000000 0.000000 0.000000 0.000000 0.060282
#
#
# Mechanical properties :
#
#
# Convention : Reuss Voigt Hill
#
# Bulk Modulus (GPa) = 37.05334 43.22682 40.14008
# Shear Modulus (GPa) = 30.07512 9.47068 19.77290
#
# Velocity S-wave (km/s) = 4.00636 2.24821 3.24849
# Velocity P-wave (km/s) = 6.41689 5.45978 5.95759
#
# Compressibility (1/GPa) = 0.02698812
#
# Stress axis : x y z
#
# Youngs Moduli (GPa) = 77.01420 81.34741 34.80942
#
# Poissons Ratio (x) = 0.20531 0.22367
# Poissons Ratio (y) = 0.19437 0.15870
# Poissons Ratio (z) = 0.49486 0.37088
#
# Static dielectric constant tensor:
#      x y z
#    x 3.591450 0.000000 0.000000 
#    y 0.000000 3.478720 0.000000 
#    z 0.000000 0.000000 3.161620 
# 
# 
# High freq. dielectric constant tensor:
#      x y z
#    x 1.713200 0.000000 0.000000 
#    y 0.000000 1.717210 0.000000 
#    z 0.000000 0.000000 1.705880 
# 
# From -- ./inp_files/21292.got.cif
#   From: 2010.03.12/outbox.cif.g09.slc.cpg/sg44_11_cif.got.tgz:21292.got - 2010.04.14 02:36:11.
