data_PCOD8187953
_publ_section_title
;
Structure prediction by ZEFSAII (Michael W. Deem and Ramdas Pophale) SiO2 
 PCOD8187953
Probable space group: I M M 2
;
_chemical_formula_sum "Si O2"
_cell_formula_units_Z 64
_cell_length_a 20.894460
_cell_length_b 8.945543
_cell_length_c 19.848689
_cell_angle_alpha 90.000000
_cell_angle_beta 90.000000
_cell_angle_gamma 90.000000
_cell_volume 3709.963922
_symmetry_space_group_name_H-M "I M M 2"
_symmetry_group_IT_number 44
_symmetry_cell_setting 'orthorhombic'
loop_
_space_group_symop_operation_xyz
x,y,z
-x,-y,z
-x,y,z
x,-y,z
1/2+x,1/2+y,1/2+z
1/2-x,1/2-y,1/2+z
1/2-x,1/2+y,1/2+z
1/2+x,1/2-y,1/2+z
loop_
_atom_site_type_symbol
_atom_site_label
_atom_site_fract_x
_atom_site_fract_y
_atom_site_fract_z
Si Si1 0.308368 0.826387 0.489130
Si Si2 0.260503 0.173831 0.347258
Si Si3 0.734343 0.824575 0.200657
Si Si4 0.571423 0.172708 0.574432
Si Si5 0.569976 0.823305 0.980076
Si Si6 0.189598 0.321773 0.561334
Si Si7 0.126373 0.675558 0.339673
Si Si8 0.879265 0.176766 0.203761
O O1 0.309490 0.795658 0.408457
O O2 0.376906 0.774582 0.518644
O O3 0.252216 0.732360 0.522489
O O4 0.295402 0.000000 0.503949
O O5 0.292786 0.219146 0.274985
O O6 0.197270 0.269986 0.358366
O O7 0.239854 0.000000 0.344195
O O8 0.691822 0.761345 0.138861
O O9 0.806773 0.764838 0.192976
O O10 0.736003 0.000000 0.191691
O O11 0.500000 0.200109 0.545205
O O12 0.577711 0.265934 0.642784
O O13 0.582189 0.000000 0.592469
O O14 0.500000 0.759990 0.001071
O O15 0.581825 0.781413 0.902480
O O16 0.571064 0.000000 0.988910
O O17 0.625305 0.754002 0.027853
O O18 0.189492 0.500000 0.556887
O O19 0.128419 0.500000 0.326320
O O20 0.096300 0.755758 0.274404
O O21 0.884296 0.000000 0.207725
#
# Coordination Sequence:
#
# PCOD8187953 Si02
#       8
#     8   8   8   8   8   8   8   8
#     4  10  19  31  50  72  96 126 162 208 248 288
#     4   9  17  30  47  70  99 126 157 199 250 292
#     4   8  15  27  46  70  93 119 149 193 243 286
#     4  10  21  35  49  69  98 133 169 205 251 302
#     4   9  18  30  45  68  97 128 160 197 240 283
#     4  10  17  30  51  71  92 122 162 203 242 291
#     4  10  18  29  47  70  98 131 167 199 236 289
#     4  10  19  32  49  70  99 129 163 203 245 292
#
# _framework density 17.250841999999999
#
# number of rings (size 3 to 8) (size 9 to 14) (size 15 to 20)
#    0.000    2.500    2.500    1.500    0.000    0.750 
#    0.000    1.250    0.000    3.750    0.000    5.250 
#    0.000    0.000    0.000    2.625    0.000    4.500 
#
# Total GULP energy -396595.752261 kJ/mol
# GULP energy per Si atom -12393.617258 kJ/mol
# Density = 1.721158 g / cm^3
# Si number density = 17.250842 Si / 1000 Ang^3
#
#
#
# Elastic Constant Matrix: (Units=GPa)
#
#
# Indices 1 2 3 4 5 6 
#
# 1 115.0475 22.4525 75.5081 0.0000 0.0000 0.0000
# 2 22.4525 34.7886 27.4602 0.0000 0.0000 0.0000
# 3 75.5081 27.4602 138.1201 0.0000 0.0000 0.0000
# 4 0.0000 0.0000 0.0000 19.6923 0.0000 0.0000
# 5 0.0000 0.0000 0.0000 0.0000 24.1091 0.0000
# 6 0.0000 0.0000 0.0000 0.0000 0.0000 15.6245
#
#
#
# Elastic Compliance Matrix: (Units=1/GPa)
#
#
# Indices 1 2 3 4 5 6 
#
# 1 0.013912 -0.003529 -0.006904 0.000000 0.000000 0.000000
# 2 -0.003529 0.034991 -0.005027 0.000000 0.000000 0.000000
# 3 -0.006904 -0.005027 0.012014 0.000000 0.000000 0.000000
# 4 0.000000 0.000000 0.000000 0.050781 0.000000 0.000000
# 5 0.000000 0.000000 0.000000 0.000000 0.041478 0.000000
# 6 0.000000 0.000000 0.000000 0.000000 0.000000 0.064002
#
#
# Mechanical properties :
#
#
# Convention : Reuss Voigt Hill
#
# Bulk Modulus (GPa) = 33.33772 59.86643 46.60208
# Shear Modulus (GPa) = 19.37253 22.72088 21.04671
#
# Velocity S-wave (km/s) = 3.35474 3.63311 3.49670
# Velocity P-wave (km/s) = 5.86284 7.23727 6.58601
#
# Compressibility (1/GPa) = 0.02999605
#
# Stress axis : x y z
#
# Youngs Moduli (GPa) = 71.88083 28.57872 83.23793
#
# Poissons Ratio (x) = 0.10086 0.57465
# Poissons Ratio (y) = 0.25369 0.41846
# Poissons Ratio (z) = 0.49625 0.14367
#
# Static dielectric constant tensor:
#      x y z
#    x 3.228280 0.000000 0.000000 
#    y 0.000000 3.011630 0.000000 
#    z 0.000000 0.000000 3.654840 
# 
# 
# High freq. dielectric constant tensor:
#      x y z
#    x 1.638650 0.000000 0.000000 
#    y 0.000000 1.644530 0.000000 
#    z 0.000000 0.000000 1.676500 
# 
# From -- ./inp_files/23437.got.cif
#   From: 2010.03.12/outbox.cif.g09.slc.cpg/sg44_12_cif.got.tgz:23437.got - 2010.04.14 02:36:11.
