data_PCOD8187257
_publ_section_title
;
Structure prediction by ZEFSAII (Michael W. Deem and Ramdas Pophale) SiO2 
 PCOD8187257
Probable space group: F D D 2
;
_chemical_formula_sum "Si O2"
_cell_formula_units_Z 104
_cell_length_a 30.058668
_cell_length_b 15.072213
_cell_length_c 10.991665
_cell_angle_alpha 90.000000
_cell_angle_beta 90.000000
_cell_angle_gamma 90.000000
_cell_volume 4979.780935
_symmetry_space_group_name_H-M "F D D 2"
_symmetry_group_IT_number 43
_symmetry_cell_setting 'orthorhombic'
loop_
_space_group_symop_operation_xyz
x,y,z
-x,-y,z
1/4-x,1/4+y,1/4+z
1/4+x,1/4-y,1/4+z
x,1/2+y,1/2+z
-x,1/2-y,1/2+z
1/4-x,3/4+y,3/4+z
1/4+x,3/4-y,3/4+z
1/2+x,y,1/2+z
1/2-x,-y,1/2+z
3/4-x,1/4+y,3/4+z
3/4+x,1/4-y,3/4+z
1/2+x,1/2+y,z
1/2-x,1/2-y,z
3/4-x,3/4+y,1/4+z
3/4+x,3/4-y,1/4+z
loop_
_atom_site_type_symbol
_atom_site_label
_atom_site_fract_x
_atom_site_fract_y
_atom_site_fract_z
Si Si1 0.659523 0.990756 0.924810
Si Si2 0.043675 0.736532 0.425007
Si Si3 0.750000 0.250000 0.264438
Si Si4 0.704940 0.921423 0.696168
Si Si5 0.899112 0.911312 0.014315
Si Si6 0.582973 0.898009 0.066683
Si Si7 0.625970 0.399367 0.024520
O O1 0.680948 0.923602 0.827292
O O2 0.651646 0.086528 0.864491
O O3 0.612750 0.951053 0.969138
O O4 0.693769 0.002216 0.034920
O O5 0.055744 0.637473 0.470974
O O6 0.071183 0.803258 0.510174
O O7 0.990935 0.749525 0.438157
O O8 0.728985 0.326291 0.178818
O O9 0.711410 0.205068 0.346200
O O10 0.670176 0.936818 0.588871
O O11 0.890480 0.905075 0.157178
O O12 0.903609 0.015792 0.985258
O O13 0.858357 0.865751 0.942503
#
# Coordination Sequence:
#
# PCOD8187257 Si02
#       7
#    16  16   8  16  16  16  16
#     4  11  23  40  69  94 130 178 228 271 333 414
#     4  10  24  41  65  92 137 174 226 277 333 409
#     4  10  22  40  68  94 130 172 230 280 326 396
#     4  11  24  40  66  99 131 175 229 286 334 401
#     4  11  24  40  67  95 137 178 218 272 351 404
#     4  10  21  41  64 100 128 176 223 276 330 410
#     4  12  23  43  68  98 134 176 221 280 343 408
#
# _framework density 20.884453000000001
#
# number of rings (size 3 to 8) (size 9 to 14) (size 15 to 20)
#    0.000    1.231    4.615    0.923    4.308    0.000 
#    0.000    0.769    0.000    0.000    0.000    0.000 
#    0.000    0.000    0.000    0.000    0.000    0.000 
#
# Total GULP energy -322502.364198 kJ/mol
# GULP energy per Si atom -12403.937085 kJ/mol
# Density = 2.083692 g / cm^3
# Si number density = 20.884453 Si / 1000 Ang^3
#
#
#
# Elastic Constant Matrix: (Units=GPa)
#
#
# Indices 1 2 3 4 5 6 
#
# 1 84.0456 31.7728 26.9369 0.0000 0.0000 0.0000
# 2 31.7728 105.6073 5.9489 0.0000 0.0000 0.0000
# 3 26.9369 5.9489 96.9039 0.0000 0.0000 0.0000
# 4 0.0000 0.0000 0.0000 33.6186 0.0000 0.0000
# 5 0.0000 0.0000 0.0000 0.0000 22.5515 0.0000
# 6 0.0000 0.0000 0.0000 0.0000 0.0000 32.0980
#
#
#
# Elastic Compliance Matrix: (Units=1/GPa)
#
#
# Indices 1 2 3 4 5 6 
#
# 1 0.014719 -0.004213 -0.003833 0.000000 0.000000 0.000000
# 2 -0.004213 0.010707 0.000514 0.000000 0.000000 0.000000
# 3 -0.003833 0.000514 0.011353 0.000000 0.000000 0.000000
# 4 0.000000 0.000000 0.000000 0.029745 0.000000 0.000000
# 5 0.000000 0.000000 0.000000 0.000000 0.044343 0.000000
# 6 0.000000 0.000000 0.000000 0.000000 0.000000 0.031155
#
#
# Mechanical properties :
#
#
# Convention : Reuss Voigt Hill
#
# Bulk Modulus (GPa) = 46.04795 46.20825 46.12810
# Shear Modulus (GPa) = 30.42735 32.44682 31.43709
#
# Velocity S-wave (km/s) = 3.82113 3.94589 3.88401
# Velocity P-wave (km/s) = 6.44708 6.55239 6.49995
#
# Compressibility (1/GPa) = 0.02171649
#
# Stress axis : x y z
#
# Youngs Moduli (GPa) = 67.93805 93.39267 88.07901
#
# Poissons Ratio (x) = 0.39342 0.33761
# Poissons Ratio (y) = 0.28619 -0.04524
# Poissons Ratio (z) = 0.26041 -0.04797
#
# Static dielectric constant tensor:
#      x y z
#    x 3.815900 0.000000 0.000000 
#    y 0.000000 3.890530 0.000000 
#    z 0.000000 0.000000 3.654100 
# 
# 
# High freq. dielectric constant tensor:
#      x y z
#    x 1.811910 0.000000 0.000000 
#    y 0.000000 1.826630 0.000000 
#    z 0.000000 0.000000 1.812190 
# 
# From -- ./inp_files/8358.got.cif
#   From: 2010.06.25/outbox.cif.g09.slc.cpg/sg43_5_cif.got.tgz:8358.got - 2010.06.26 16:48:59.
