data_PCOD8187577
_publ_section_title
;
Structure prediction by ZEFSAII (Michael W. Deem and Ramdas Pophale) SiO2 
 PCOD8187577
Probable space group: F D D 2
;
_chemical_formula_sum "Si O2"
_cell_formula_units_Z 72
_cell_length_a 28.340813
_cell_length_b 11.449086
_cell_length_c 9.294262
_cell_angle_alpha 90.000000
_cell_angle_beta 90.000000
_cell_angle_gamma 90.000000
_cell_volume 3015.768724
_symmetry_space_group_name_H-M "F D D 2"
_symmetry_group_IT_number 43
_symmetry_cell_setting 'orthorhombic'
loop_
_space_group_symop_operation_xyz
x,y,z
-x,-y,z
1/4-x,1/4+y,1/4+z
1/4+x,1/4-y,1/4+z
x,1/2+y,1/2+z
-x,1/2-y,1/2+z
1/4-x,3/4+y,3/4+z
1/4+x,3/4-y,3/4+z
1/2+x,y,1/2+z
1/2-x,-y,1/2+z
3/4-x,1/4+y,3/4+z
3/4+x,1/4-y,3/4+z
1/2+x,1/2+y,z
1/2-x,1/2-y,z
3/4-x,3/4+y,1/4+z
3/4+x,3/4-y,1/4+z
loop_
_atom_site_type_symbol
_atom_site_label
_atom_site_fract_x
_atom_site_fract_y
_atom_site_fract_z
Si Si1 0.641718 0.984159 0.212540
Si Si2 0.323549 0.072020 0.910477
Si Si3 0.576081 0.851028 0.418621
Si Si4 0.250000 0.750000 0.801272
Si Si5 0.027719 0.248773 0.165009
O O1 0.602764 0.061279 0.128193
O O2 0.619754 0.885753 0.317295
O O3 0.680318 0.049315 0.312966
O O4 0.671444 0.933604 0.082339
O O5 0.344304 0.965044 0.813158
O O6 0.267675 0.079427 0.880338
O O7 0.542797 0.761530 0.330916
O O8 0.545501 0.966149 0.455676
O O9 0.234947 0.862148 0.895437
#
# Coordination Sequence:
#
# PCOD8187577 Si02
#       5
#    16  16  16   8  16
#     4  12  24  47  72 106 149 194 246 308 368 446
#     4  11  26  44  71 109 143 191 251 299 375 448
#     4  11  24  45  73 104 151 193 242 309 368 437
#     4  10  24  46  76 108 146 194 244 306 378 438
#     4  11  24  47  76 106 147 195 245 305 377 444
#
# _framework density 23.874510000000001
#
# number of rings (size 3 to 8) (size 9 to 14) (size 15 to 20)
#    0.000    0.889    2.222    5.333    3.111    1.778 
#    0.000    0.000    0.000    0.000    0.000    0.000 
#    0.000    0.000    0.000    0.000    0.000    0.000 
#
# Total GULP energy -223051.810278 kJ/mol
# GULP energy per Si atom -12391.767238 kJ/mol
# Density = 2.382017 g / cm^3
# Si number density = 23.874510 Si / 1000 Ang^3
#
#
#
# Elastic Constant Matrix: (Units=GPa)
#
#
# Indices 1 2 3 4 5 6 
#
# 1 136.1042 42.4669 46.3503 0.0000 0.0000 0.0000
# 2 42.4669 76.4139 29.8866 0.0000 0.0000 0.0000
# 3 46.3503 29.8866 117.7025 0.0000 0.0000 0.0000
# 4 0.0000 0.0000 0.0000 42.6589 0.0000 0.0000
# 5 0.0000 0.0000 0.0000 0.0000 47.6150 0.0000
# 6 0.0000 0.0000 0.0000 0.0000 0.0000 11.2462
#
#
#
# Elastic Compliance Matrix: (Units=1/GPa)
#
#
# Indices 1 2 3 4 5 6 
#
# 1 0.009601 -0.004282 -0.002693 0.000000 0.000000 0.000000
# 2 -0.004282 0.016439 -0.002488 0.000000 0.000000 0.000000
# 3 -0.002693 -0.002488 0.010188 0.000000 0.000000 0.000000
# 4 0.000000 0.000000 0.000000 0.023442 0.000000 0.000000
# 5 0.000000 0.000000 0.000000 0.000000 0.021002 0.000000
# 6 0.000000 0.000000 0.000000 0.000000 0.000000 0.088919
#
#
# Mechanical properties :
#
#
# Convention : Reuss Voigt Hill
#
# Bulk Modulus (GPa) = 57.79826 63.06979 60.43402
# Shear Modulus (GPa) = 25.73541 34.40515 30.07028
#
# Velocity S-wave (km/s) = 3.28677 3.80028 3.55281
# Velocity P-wave (km/s) = 6.21816 6.76245 6.49601
#
# Compressibility (1/GPa) = 0.01730156
#
# Stress axis : x y z
#
# Youngs Moduli (GPa) = 104.15986 60.82910 98.15119
#
# Poissons Ratio (x) = 0.26048 0.26436
# Poissons Ratio (y) = 0.44603 0.24420
# Poissons Ratio (z) = 0.28054 0.15134
#
# Static dielectric constant tensor:
#      x y z
#    x 4.754300 0.000000 0.000000 
#    y 0.000000 4.081310 0.000000 
#    z 0.000000 0.000000 4.419390 
# 
# 
# High freq. dielectric constant tensor:
#      x y z
#    x 1.961040 0.000000 0.000000 
#    y 0.000000 1.923980 0.000000 
#    z 0.000000 0.000000 1.956770 
# 
# From -- ./inp_files/4099.got.cif
#   From: 2010.06.25/outbox.cif.g09.slc.cpg/sg43_3_cif.got.tgz:4099.got - 2010.06.26 16:48:59.
