data_PCOD8187451
_publ_section_title
;
Structure prediction by ZEFSAII (Michael W. Deem and Ramdas Pophale) SiO2 
 PCOD8187451
Probable space group: F D D 2
;
_chemical_formula_sum "Si O2"
_cell_formula_units_Z 88
_cell_length_a 14.980441
_cell_length_b 19.726574
_cell_length_c 13.610391
_cell_angle_alpha 90.000000
_cell_angle_beta 90.000000
_cell_angle_gamma 90.000000
_cell_volume 4022.044453
_symmetry_space_group_name_H-M "F D D 2"
_symmetry_group_IT_number 43
_symmetry_cell_setting 'orthorhombic'
loop_
_space_group_symop_operation_xyz
x,y,z
-x,-y,z
1/4-x,1/4+y,1/4+z
1/4+x,1/4-y,1/4+z
x,1/2+y,1/2+z
-x,1/2-y,1/2+z
1/4-x,3/4+y,3/4+z
1/4+x,3/4-y,3/4+z
1/2+x,y,1/2+z
1/2-x,-y,1/2+z
3/4-x,1/4+y,3/4+z
3/4+x,1/4-y,3/4+z
1/2+x,1/2+y,z
1/2-x,1/2-y,z
3/4-x,3/4+y,1/4+z
3/4+x,3/4-y,1/4+z
loop_
_atom_site_type_symbol
_atom_site_label
_atom_site_fract_x
_atom_site_fract_y
_atom_site_fract_z
Si Si1 0.500000 0.500000 0.614900
Si Si2 0.765588 0.134567 0.220564
Si Si3 0.165635 0.499556 0.257125
Si Si4 0.133505 0.488091 0.479237
Si Si5 0.774844 0.645803 0.298670
Si Si6 0.221963 0.609779 0.007634
O O1 0.529203 0.436546 0.546872
O O2 0.587045 0.515786 0.679977
O O3 0.740332 0.057641 0.247019
O O4 0.870024 0.147527 0.229568
O O5 0.735175 0.151390 0.108824
O O6 0.123303 0.501660 0.364304
O O7 0.212895 0.426567 0.244963
O O8 0.112158 0.558838 0.530775
O O9 0.231866 0.464977 0.516327
O O10 0.064136 0.429084 0.506527
O O11 0.772013 0.644424 0.416706
#
# Coordination Sequence:
#
# PCOD8187451 Si02
#       6
#     8  16  16  16  16  16
#     4  12  26  46  68 104 142 196 234 308 372 438
#     4  12  26  48  68 104 151 190 247 297 373 449
#     4  11  25  46  71 102 140 189 241 299 368 435
#     4  10  22  45  72 106 137 183 248 297 367 432
#     4  10  22  44  76 103 137 185 240 311 355 435
#     4  11  24  47  69 107 145 191 242 301 373 436
#
# _framework density 21.879418999999999
#
# number of rings (size 3 to 8) (size 9 to 14) (size 15 to 20)
#    0.000    1.091    3.636    2.182    0.000    7.273 
#    3.273    0.000    0.000    0.000    0.000    0.000 
#    0.000    0.000    0.000    0.000    0.000    0.000 
#
# Total GULP energy -272785.658210 kJ/mol
# GULP energy per Si atom -12399.348100 kJ/mol
# Density = 2.182962 g / cm^3
# Si number density = 21.879419 Si / 1000 Ang^3
#
#
#
# Elastic Constant Matrix: (Units=GPa)
#
#
# Indices 1 2 3 4 5 6 
#
# 1 88.7429 41.1949 11.7373 0.0000 0.0000 0.0000
# 2 41.1949 147.6692 33.1035 0.0000 0.0000 0.0000
# 3 11.7373 33.1035 129.4561 0.0000 0.0000 0.0000
# 4 0.0000 0.0000 0.0000 27.2120 0.0000 0.0000
# 5 0.0000 0.0000 0.0000 0.0000 30.9637 0.0000
# 6 0.0000 0.0000 0.0000 0.0000 0.0000 46.2389
#
#
#
# Elastic Compliance Matrix: (Units=1/GPa)
#
#
# Indices 1 2 3 4 5 6 
#
# 1 0.012953 -0.003554 -0.000266 0.000000 0.000000 0.000000
# 2 -0.003554 0.008159 -0.001764 0.000000 0.000000 0.000000
# 3 -0.000266 -0.001764 0.008200 0.000000 0.000000 0.000000
# 4 0.000000 0.000000 0.000000 0.036748 0.000000 0.000000
# 5 0.000000 0.000000 0.000000 0.000000 0.032296 0.000000
# 6 0.000000 0.000000 0.000000 0.000000 0.000000 0.021627
#
#
# Mechanical properties :
#
#
# Convention : Reuss Voigt Hill
#
# Bulk Modulus (GPa) = 55.11292 59.77108 57.44200
# Shear Modulus (GPa) = 36.44343 39.53841 37.99092
#
# Velocity S-wave (km/s) = 4.08566 4.25562 4.17151
# Velocity P-wave (km/s) = 6.89209 7.17807 7.03654
#
# Compressibility (1/GPa) = 0.01814457
#
# Stress axis : x y z
#
# Youngs Moduli (GPa) = 77.19955 122.56682 121.95407
#
# Poissons Ratio (x) = 0.43561 0.03239
# Poissons Ratio (y) = 0.27437 0.21514
# Poissons Ratio (z) = 0.02051 0.21622
#
# Static dielectric constant tensor:
#      x y z
#    x 3.976640 0.000000 0.000000 
#    y 0.000000 4.451020 0.000000 
#    z 0.000000 0.000000 4.347290 
# 
# 
# High freq. dielectric constant tensor:
#      x y z
#    x 1.861200 0.000000 0.000000 
#    y 0.000000 1.854610 0.000000 
#    z 0.000000 0.000000 1.882440 
# 
# From -- ./inp_files/10039.got.cif
#   From: 2010.06.25/outbox.cif.g09.slc.cpg/sg43_6_cif.got.tgz:10039.got - 2010.06.26 16:48:59.
