data_PCOD8187753
_publ_section_title
;
Structure prediction by ZEFSAII (Michael W. Deem and Ramdas Pophale) SiO2 
 PCOD8187753
Probable space group: F D D 2
;
_chemical_formula_sum "Si O2"
_cell_formula_units_Z 112
_cell_length_a 25.390413
_cell_length_b 13.167821
_cell_length_c 14.046525
_cell_angle_alpha 90.000000
_cell_angle_beta 90.000000
_cell_angle_gamma 90.000000
_cell_volume 4696.264791
_symmetry_space_group_name_H-M "F D D 2"
_symmetry_group_IT_number 43
_symmetry_cell_setting 'orthorhombic'
loop_
_space_group_symop_operation_xyz
x,y,z
-x,-y,z
1/4-x,1/4+y,1/4+z
1/4+x,1/4-y,1/4+z
x,1/2+y,1/2+z
-x,1/2-y,1/2+z
1/4-x,3/4+y,3/4+z
1/4+x,3/4-y,3/4+z
1/2+x,y,1/2+z
1/2-x,-y,1/2+z
3/4-x,1/4+y,3/4+z
3/4+x,1/4-y,3/4+z
1/2+x,1/2+y,z
1/2-x,1/2-y,z
3/4-x,3/4+y,1/4+z
3/4+x,3/4-y,1/4+z
loop_
_atom_site_type_symbol
_atom_site_label
_atom_site_fract_x
_atom_site_fract_y
_atom_site_fract_z
Si Si1 0.381697 0.027077 0.599220
Si Si2 0.250000 0.250000 0.035288
Si Si3 0.823521 0.575553 0.409619
Si Si4 0.190234 0.428421 0.112170
Si Si5 0.207210 0.048082 0.420956
Si Si6 0.573410 0.401021 0.637149
Si Si7 0.000000 0.500000 0.992796
Si Si8 0.780774 0.537826 0.716575
O O1 0.364143 0.069288 0.497522
O O2 0.417713 0.109672 0.651007
O O3 0.331779 0.998643 0.663156
O O4 0.411441 0.918435 0.589304
O O5 0.215365 0.167838 0.976783
O O6 0.208087 0.311819 0.097851
O O7 0.764087 0.595528 0.446305
O O8 0.823630 0.467065 0.356190
O O9 0.132749 0.435563 0.159611
O O10 0.230454 0.472905 0.187983
O O11 0.186968 0.484927 0.010827
O O12 0.210905 0.971684 0.330393
O O13 0.551139 0.467144 0.551714
O O14 0.979921 0.403991 0.932715
#
# Coordination Sequence:
#
# PCOD8187753 Si02
#       8
#    16   8  16  16  16  16   8  16
#     4  12  27  48  77 107 155 200 254 316 392 452
#     4  11  24  50  72 111 150 186 264 323 364 475
#     4  12  26  49  74 111 151 203 255 323 379 466
#     4  12  28  45  79 108 148 204 247 313 394 453
#     4  12  25  51  73 107 155 192 260 313 383 460
#     4  11  25  45  76 104 146 198 248 314 382 435
#     4  11  24  48  72  99 152 188 250 317 362 459
#     4  12  26  50  71 114 145 197 258 311 383 471
#
# _framework density 23.848741
#
# number of rings (size 3 to 8) (size 9 to 14) (size 15 to 20)
#    0.000    0.286    5.714    2.143    8.000    1.143 
#    2.571    0.000    0.000    0.000    0.000    0.000 
#    0.000    0.000    0.000    0.000    0.000    0.000 
#
# Total GULP energy -347243.945261 kJ/mol
# GULP energy per Si atom -12401.569474 kJ/mol
# Density = 2.379446 g / cm^3
# Si number density = 23.848741 Si / 1000 Ang^3
#
#
#
# Elastic Constant Matrix: (Units=GPa)
#
#
# Indices 1 2 3 4 5 6 
#
# 1 153.8449 37.8202 2.4070 0.0000 0.0000 0.0000
# 2 37.8202 124.0278 1.9411 0.0000 0.0000 0.0000
# 3 2.4070 1.9411 51.8368 0.0000 0.0000 0.0000
# 4 0.0000 0.0000 0.0000 30.3874 0.0000 0.0000
# 5 0.0000 0.0000 0.0000 0.0000 26.2833 0.0000
# 6 0.0000 0.0000 0.0000 0.0000 0.0000 45.4484
#
#
#
# Elastic Compliance Matrix: (Units=1/GPa)
#
#
# Indices 1 2 3 4 5 6 
#
# 1 0.007030 -0.002140 -0.000246 0.000000 0.000000 0.000000
# 2 -0.002140 0.008719 -0.000227 0.000000 0.000000 0.000000
# 3 -0.000246 -0.000227 0.019311 0.000000 0.000000 0.000000
# 4 0.000000 0.000000 0.000000 0.032908 0.000000 0.000000
# 5 0.000000 0.000000 0.000000 0.000000 0.038047 0.000000
# 6 0.000000 0.000000 0.000000 0.000000 0.000000 0.022003
#
#
# Mechanical properties :
#
#
# Convention : Reuss Voigt Hill
#
# Bulk Modulus (GPa) = 33.51938 46.00512 39.76225
# Shear Modulus (GPa) = 34.91879 39.59321 37.25600
#
# Velocity S-wave (km/s) = 3.83061 4.07895 3.95673
# Velocity P-wave (km/s) = 5.80088 6.44329 6.13051
#
# Compressibility (1/GPa) = 0.02983349
#
# Stress axis : x y z
#
# Youngs Moduli (GPa) = 142.24866 114.69518 51.78326
#
# Poissons Ratio (x) = 0.24543 0.01275
# Poissons Ratio (y) = 0.30438 0.01176
# Poissons Ratio (z) = 0.03504 0.02605
#
# Static dielectric constant tensor:
#      x y z
#    x 4.596280 0.000000 0.000000 
#    y 0.000000 4.313510 0.000000 
#    z 0.000000 0.000000 3.975920 
# 
# 
# High freq. dielectric constant tensor:
#      x y z
#    x 1.967790 0.000000 0.000000 
#    y 0.000000 1.954100 0.000000 
#    z 0.000000 0.000000 1.928500 
# 
# From -- ./inp_files/11529.got.cif
#   From: 2010.06.25/outbox.cif.g09.slc.cpg/sg43_6_cif.got.tgz:11529.got - 2010.06.26 16:48:59.
