data_PCOD8187596
_publ_section_title
;
Structure prediction by ZEFSAII (Michael W. Deem and Ramdas Pophale) SiO2 
 PCOD8187596
Probable space group: F D D 2
;
_chemical_formula_sum "Si O2"
_cell_formula_units_Z 56
_cell_length_a 26.550833
_cell_length_b 15.529752
_cell_length_c 6.362812
_cell_angle_alpha 90.000000
_cell_angle_beta 90.000000
_cell_angle_gamma 90.000000
_cell_volume 2623.564604
_symmetry_space_group_name_H-M "F D D 2"
_symmetry_group_IT_number 43
_symmetry_cell_setting 'orthorhombic'
loop_
_space_group_symop_operation_xyz
x,y,z
-x,-y,z
1/4-x,1/4+y,1/4+z
1/4+x,1/4-y,1/4+z
x,1/2+y,1/2+z
-x,1/2-y,1/2+z
1/4-x,3/4+y,3/4+z
1/4+x,3/4-y,3/4+z
1/2+x,y,1/2+z
1/2-x,-y,1/2+z
3/4-x,1/4+y,3/4+z
3/4+x,1/4-y,3/4+z
1/2+x,1/2+y,z
1/2-x,1/2-y,z
3/4-x,3/4+y,1/4+z
3/4+x,3/4-y,1/4+z
loop_
_atom_site_type_symbol
_atom_site_label
_atom_site_fract_x
_atom_site_fract_y
_atom_site_fract_z
Si Si1 0.522980 0.859413 0.786470
Si Si2 0.000000 0.000000 0.603790
Si Si3 0.433340 0.747752 0.632085
Si Si4 0.576992 0.419224 0.895919
O O1 0.482839 0.805228 0.656445
O O2 0.554356 0.921704 0.631158
O O3 0.562836 0.797349 0.904266
O O4 0.493251 0.915757 0.959901
O O5 0.951055 0.010215 0.751382
O O6 0.430252 0.677642 0.815438
O O7 0.385557 0.809481 0.643386
#
# Coordination Sequence:
#
# PCOD8187596 Si02
#       4
#    16   8  16  16
#     4  11  24  47  67 100 140 177 226 290 332 415
#     4  10  26  44  68 100 132 182 226 278 342 400
#     4  11  26  43  70  99 136 180 228 277 353 398
#     4  11  26  43  70 101 135 183 226 286 336 418
#
# _framework density 21.345003999999999
#
# number of rings (size 3 to 8) (size 9 to 14) (size 15 to 20)
#    0.000    1.143    2.857    0.857   12.000    2.286 
#    0.000    0.000    0.000    0.000    0.000    0.000 
#    0.000    0.000    0.000    0.000    0.000    0.000 
#
# Total GULP energy -173682.895104 kJ/mol
# GULP energy per Si atom -12405.921079 kJ/mol
# Density = 2.129642 g / cm^3
# Si number density = 21.345004 Si / 1000 Ang^3
#
#
#
# Elastic Constant Matrix: (Units=GPa)
#
#
# Indices 1 2 3 4 5 6 
#
# 1 122.9094 43.6558 50.4818 0.0000 0.0000 0.0000
# 2 43.6558 78.2680 41.4637 0.0000 0.0000 0.0000
# 3 50.4818 41.4637 132.9244 0.0000 0.0001 0.0000
# 4 0.0000 0.0000 0.0000 36.4539 0.0000 0.0000
# 5 0.0000 0.0000 0.0001 0.0000 28.5901 0.0000
# 6 0.0000 0.0000 0.0000 0.0000 0.0000 38.6275
#
#
#
# Elastic Compliance Matrix: (Units=1/GPa)
#
#
# Indices 1 2 3 4 5 6 
#
# 1 0.010891 -0.004652 -0.002685 0.000000 0.000000 0.000000
# 2 -0.004652 0.017293 -0.003627 0.000000 0.000000 0.000000
# 3 -0.002685 -0.003627 0.009674 0.000000 0.000000 0.000000
# 4 0.000000 0.000000 0.000000 0.027432 0.000000 0.000000
# 5 0.000000 0.000000 0.000000 0.000000 0.034977 0.000000
# 6 0.000000 0.000000 0.000000 0.000000 0.000000 0.025888
#
#
# Mechanical properties :
#
#
# Convention : Reuss Voigt Hill
#
# Bulk Modulus (GPa) = 62.77834 67.25606 65.01720
# Shear Modulus (GPa) = 32.59536 33.96767 33.28151
#
# Velocity S-wave (km/s) = 3.91202 3.99352 3.95298
# Velocity P-wave (km/s) = 7.06260 7.26923 7.16666
#
# Compressibility (1/GPa) = 0.01592906
#
# Stress axis : x y z
#
# Youngs Moduli (GPa) = 91.81569 57.82565 103.36629
#
# Poissons Ratio (x) = 0.26903 0.27754
# Poissons Ratio (y) = 0.42717 0.37496
# Poissons Ratio (z) = 0.24653 0.20976
#
# Static dielectric constant tensor:
#      x y z
#    x 3.725340 0.000000 0.000000 
#    y 0.000000 3.812100 0.000000 
#    z 0.000000 0.000000 4.057070 
# 
# 
# High freq. dielectric constant tensor:
#      x y z
#    x 1.829430 0.000000 0.000000 
#    y 0.000000 1.841790 0.000000 
#    z 0.000000 0.000000 1.851200 
# 
# From -- ./inp_files/311.got.cif
#   From: 2010.06.25/outbox.cif.g09.slc.cpg/sg43_1_cif.got.tgz:311.got - 2010.06.26 16:48:59.
