data_PCOD8187292
_publ_section_title
;
Structure prediction by ZEFSAII (Michael W. Deem and Ramdas Pophale) SiO2 
 PCOD8187292
Probable space group: F D D 2
;
_chemical_formula_sum "Si O2"
_cell_formula_units_Z 96
_cell_length_a 16.570957
_cell_length_b 21.698140
_cell_length_c 11.386636
_cell_angle_alpha 90.000000
_cell_angle_beta 90.000000
_cell_angle_gamma 90.000000
_cell_volume 4094.166826
_symmetry_space_group_name_H-M "F D D 2"
_symmetry_group_IT_number 43
_symmetry_cell_setting 'orthorhombic'
loop_
_space_group_symop_operation_xyz
x,y,z
-x,-y,z
1/4-x,1/4+y,1/4+z
1/4+x,1/4-y,1/4+z
x,1/2+y,1/2+z
-x,1/2-y,1/2+z
1/4-x,3/4+y,3/4+z
1/4+x,3/4-y,3/4+z
1/2+x,y,1/2+z
1/2-x,-y,1/2+z
3/4-x,1/4+y,3/4+z
3/4+x,1/4-y,3/4+z
1/2+x,1/2+y,z
1/2-x,1/2-y,z
3/4-x,3/4+y,1/4+z
3/4+x,3/4-y,1/4+z
loop_
_atom_site_type_symbol
_atom_site_label
_atom_site_fract_x
_atom_site_fract_y
_atom_site_fract_z
Si Si1 0.271059 0.948713 0.121920
Si Si2 0.431960 0.376483 0.197361
Si Si3 0.500000 0.500000 0.254083
Si Si4 0.622787 0.734490 0.698807
Si Si5 0.498274 0.834912 0.460764
Si Si6 0.337977 0.641463 0.502290
Si Si7 0.500000 0.500000 0.634515
O O1 0.320557 0.913737 0.224465
O O2 0.322126 0.958460 0.000347
O O3 0.241268 0.014054 0.170511
O O4 0.199380 0.904734 0.075217
O O5 0.486960 0.438442 0.178468
O O6 0.336273 0.385732 0.194820
O O7 0.461453 0.332977 0.091205
O O8 0.582083 0.501974 0.330330
O O9 0.571859 0.671585 0.677196
O O10 0.684003 0.717067 0.803727
O O11 0.432543 0.874303 0.386835
O O12 0.279420 0.695861 0.467088
#
# Coordination Sequence:
#
# PCOD8187292 Si02
#       7
#    16  16   8  16  16  16   8
#     4  10  23  49  73 100 141 196 249 297 354 453
#     4  12  27  49  69 109 152 190 243 304 383 446
#     4  11  22  43  70 102 144 191 228 301 370 438
#     4   9  19  41  67 102 123 178 249 292 338 420
#     4  11  29  46  72 112 146 189 247 306 379 433
#     4  10  21  43  72  97 136 184 238 304 346 432
#     4   9  20  35  66  98 128 171 242 297 340 398
#
# _framework density 23.447994000000001
#
# number of rings (size 3 to 8) (size 9 to 14) (size 15 to 20)
#    0.000    1.667    1.667    1.000    9.333    2.000 
#    6.000    0.000    0.000    0.000    0.000    0.000 
#    0.000    0.000    0.000    0.000    0.000    0.000 
#
# Total GULP energy -297395.767840 kJ/mol
# GULP energy per Si atom -12391.490327 kJ/mol
# Density = 2.339463 g / cm^3
# Si number density = 23.447994 Si / 1000 Ang^3
#
#
#
# Elastic Constant Matrix: (Units=GPa)
#
#
# Indices 1 2 3 4 5 6 
#
# 1 104.4747 31.6238 44.3248 0.0000 0.0000 0.0000
# 2 31.6238 128.9273 40.8737 0.0000 0.0000 0.0000
# 3 44.3248 40.8737 85.0424 0.0000 0.0000 0.0000
# 4 0.0000 0.0000 0.0000 25.5788 0.0000 0.0000
# 5 0.0000 0.0000 0.0000 0.0000 28.4452 0.0000
# 6 0.0000 0.0000 0.0000 0.0000 0.0000 36.1109
#
#
#
# Elastic Compliance Matrix: (Units=1/GPa)
#
#
# Indices 1 2 3 4 5 6 
#
# 1 0.012438 -0.001175 -0.005918 0.000000 0.000000 0.000000
# 2 -0.001175 0.009262 -0.003839 0.000000 0.000000 0.000000
# 3 -0.005918 -0.003839 0.016689 0.000000 0.000000 0.000000
# 4 0.000000 0.000000 0.000000 0.039095 0.000000 0.000000
# 5 0.000000 0.000000 0.000000 0.000000 0.035155 0.000000
# 6 0.000000 0.000000 0.000000 0.000000 0.000000 0.027692
#
#
# Mechanical properties :
#
#
# Convention : Reuss Voigt Hill
#
# Bulk Modulus (GPa) = 60.51698 61.34322 60.93010
# Shear Modulus (GPa) = 29.81456 31.46846 30.64151
#
# Velocity S-wave (km/s) = 3.56970 3.66738 3.61887
# Velocity P-wave (km/s) = 6.54641 6.64463 6.59570
#
# Compressibility (1/GPa) = 0.01652429
#
# Stress axis : x y z
#
# Youngs Moduli (GPa) = 80.39762 107.97346 59.92074
#
# Poissons Ratio (x) = 0.12683 0.35463
# Poissons Ratio (y) = 0.09444 0.23004
# Poissons Ratio (z) = 0.47582 0.41452
#
# Static dielectric constant tensor:
#      x y z
#    x 4.492740 0.000000 0.000000 
#    y 0.000000 4.341440 0.000000 
#    z 0.000000 0.000000 4.042750 
# 
# 
# High freq. dielectric constant tensor:
#      x y z
#    x 1.926070 0.000000 0.000000 
#    y 0.000000 1.943530 0.000000 
#    z 0.000000 0.000000 1.913690 
# 
# From -- ./inp_files/6699.got.cif
#   From: 2010.06.25/outbox.cif.g09.slc.cpg/sg43_4_cif.got.tgz:6699.got - 2010.06.26 16:48:59.
