data_PCOD8187852
_publ_section_title
;
Structure prediction by ZEFSAII (Michael W. Deem and Ramdas Pophale) SiO2 
 PCOD8187852
Probable space group: F D D 2
;
_chemical_formula_sum "Si O2"
_cell_formula_units_Z 64
_cell_length_a 4.795862
_cell_length_b 21.373819
_cell_length_c 26.043804
_cell_angle_alpha 90.000000
_cell_angle_beta 90.000000
_cell_angle_gamma 90.000000
_cell_volume 2669.643213
_symmetry_space_group_name_H-M "F D D 2"
_symmetry_group_IT_number 43
_symmetry_cell_setting 'orthorhombic'
loop_
_space_group_symop_operation_xyz
x,y,z
-x,-y,z
1/4-x,1/4+y,1/4+z
1/4+x,1/4-y,1/4+z
x,1/2+y,1/2+z
-x,1/2-y,1/2+z
1/4-x,3/4+y,3/4+z
1/4+x,3/4-y,3/4+z
1/2+x,y,1/2+z
1/2-x,-y,1/2+z
3/4-x,1/4+y,3/4+z
3/4+x,1/4-y,3/4+z
1/2+x,1/2+y,z
1/2-x,1/2-y,z
3/4-x,3/4+y,1/4+z
3/4+x,3/4-y,1/4+z
loop_
_atom_site_type_symbol
_atom_site_label
_atom_site_fract_x
_atom_site_fract_y
_atom_site_fract_z
Si Si1 0.500000 0.000000 0.642470
Si Si2 0.500960 0.292793 0.181860
Si Si3 0.033619 0.635353 0.019107
Si Si4 0.000000 0.000000 0.712355
Si Si5 0.717354 0.872275 0.337502
O O1 0.604321 0.941949 0.608324
O O2 0.752395 0.026970 0.677004
O O3 0.750000 0.250000 0.161406
O O4 0.878377 0.162640 0.225711
O O5 0.384887 0.331819 0.133811
O O6 0.250000 0.250000 0.203902
O O7 0.811393 0.603171 0.056962
O O8 0.307319 0.655856 0.050695
O O9 0.880870 0.695774 0.996652
#
# Coordination Sequence:
#
# PCOD8187852 Si02
#       5
#     8  16  16   8  16
#     4  12  26  50  76 105 156 201 256 318 374 454
#     4  12  28  50  74 110 160 200 250 319 385 459
#     4  12  28  48  78 111 151 202 258 313 386 456
#     4  12  26  50  78 105 152 203 258 318 374 452
#     4  12  28  48  75 114 149 205 254 313 385 455
#
# _framework density 23.973239
#
# number of rings (size 3 to 8) (size 9 to 14) (size 15 to 20)
#    0.000    0.000    2.500    6.000   14.000    0.000 
#    0.000    0.000    0.000    0.000    0.000    0.000 
#    0.000    0.000    0.000    0.000    0.000    0.000 
#
# Total GULP energy -198505.597714 kJ/mol
# GULP energy per Si atom -12406.599857 kJ/mol
# Density = 2.391868 g / cm^3
# Si number density = 23.973239 Si / 1000 Ang^3
#
#
#
# Elastic Constant Matrix: (Units=GPa)
#
#
# Indices 1 2 3 4 5 6 
#
# 1 154.8420 43.1115 63.4765 0.0000 0.0000 0.0000
# 2 43.1115 139.8528 62.3133 0.0000 0.0000 0.0000
# 3 63.4765 62.3133 147.0637 0.0000 0.0000 0.0000
# 4 0.0000 0.0000 0.0000 9.4734 0.0000 0.0000
# 5 0.0000 0.0000 0.0000 0.0000 38.6261 0.0000
# 6 0.0000 0.0000 0.0000 0.0000 0.0000 50.7651
#
#
#
# Elastic Compliance Matrix: (Units=1/GPa)
#
#
# Indices 1 2 3 4 5 6 
#
# 1 0.007992 -0.001142 -0.002966 0.000000 0.000000 0.000000
# 2 -0.001142 0.008978 -0.003311 0.000000 0.000000 0.000000
# 3 -0.002966 -0.003311 0.009483 0.000000 0.000000 0.000000
# 4 0.000000 0.000000 0.000000 0.105559 0.000000 0.000000
# 5 0.000000 0.000000 0.000000 0.000000 0.025889 0.000000
# 6 0.000000 0.000000 0.000000 0.000000 0.000000 0.019699
#
#
# Mechanical properties :
#
#
# Convention : Reuss Voigt Hill
#
# Bulk Modulus (GPa) = 86.09710 86.61790 86.35750
# Shear Modulus (GPa) = 25.47012 37.96339 31.71676
#
# Velocity S-wave (km/s) = 3.26304 3.98373 3.64126
# Velocity P-wave (km/s) = 7.08438 7.57428 7.33342
#
# Compressibility (1/GPa) = 0.01161479
#
# Stress axis : x y z
#
# Youngs Moduli (GPa) = 125.12617 111.38651 105.45540
#
# Poissons Ratio (x) = 0.12724 0.31273
# Poissons Ratio (y) = 0.14293 0.34916
# Poissons Ratio (z) = 0.37106 0.36880
#
# Static dielectric constant tensor:
#      x y z
#    x 4.705130 0.000000 0.000000 
#    y 0.000000 4.464240 0.000000 
#    z 0.000000 0.000000 4.526260 
# 
# 
# High freq. dielectric constant tensor:
#      x y z
#    x 1.968730 0.000000 0.000000 
#    y 0.000000 1.949830 0.000000 
#    z 0.000000 0.000000 1.964330 
# 
# From -- ./inp_files/662.got.cif
#   From: 2010.06.25/outbox.cif.g09.slc.cpg/sg43_1_cif.got.tgz:662.got - 2010.06.26 16:48:59.
