data_PCOD8187235
_publ_section_title
;
Structure prediction by ZEFSAII (Michael W. Deem and Ramdas Pophale) SiO2 
 PCOD8187235
Probable space group: F D D 2
;
_chemical_formula_sum "Si O2"
_cell_formula_units_Z 48
_cell_length_a 18.614030
_cell_length_b 16.077462
_cell_length_c 7.426192
_cell_angle_alpha 90.000000
_cell_angle_beta 90.000000
_cell_angle_gamma 90.000000
_cell_volume 2222.409448
_symmetry_space_group_name_H-M "F D D 2"
_symmetry_group_IT_number 43
_symmetry_cell_setting 'orthorhombic'
loop_
_space_group_symop_operation_xyz
x,y,z
-x,-y,z
1/4-x,1/4+y,1/4+z
1/4+x,1/4-y,1/4+z
x,1/2+y,1/2+z
-x,1/2-y,1/2+z
1/4-x,3/4+y,3/4+z
1/4+x,3/4-y,3/4+z
1/2+x,y,1/2+z
1/2-x,-y,1/2+z
3/4-x,1/4+y,3/4+z
3/4+x,1/4-y,3/4+z
1/2+x,1/2+y,z
1/2-x,1/2-y,z
3/4-x,3/4+y,1/4+z
3/4+x,3/4-y,1/4+z
loop_
_atom_site_type_symbol
_atom_site_label
_atom_site_fract_x
_atom_site_fract_y
_atom_site_fract_z
Si Si1 0.847970 0.668384 0.534970
Si Si2 0.254927 0.604451 0.734834
Si Si3 0.803065 0.559074 0.851146
O O1 0.798685 0.668848 0.357601
O O2 0.802522 0.626856 0.694075
O O3 0.869217 0.761988 0.597359
O O4 0.921185 0.618033 0.483670
O O5 0.259743 0.509482 0.814155
O O6 0.289205 0.606472 0.536818
#
# Coordination Sequence:
#
# PCOD8187235 Si02
#       3
#    16  16  16
#     4  10  22  40  66  94 126 176 220 270 338 398
#     4  10  21  40  64  90 134 166 221 275 329 389
#     4  10  21  40  64  90 134 166 221 275 329 389
#
# _framework density 21.598181
#
# number of rings (size 3 to 8) (size 9 to 14) (size 15 to 20)
#    2.000    0.000    3.333    0.000    0.000    9.333 
#    0.000    0.000    0.000    0.000    0.000    0.000 
#    0.000    0.000    0.000    0.000    0.000    0.000 
#
# Total GULP energy -148704.986082 kJ/mol
# GULP energy per Si atom -12392.082173 kJ/mol
# Density = 2.154902 g / cm^3
# Si number density = 21.598181 Si / 1000 Ang^3
#
#
#
# Elastic Constant Matrix: (Units=GPa)
#
#
# Indices 1 2 3 4 5 6 
#
# 1 80.7598 -13.1676 28.3530 0.0000 0.0000 0.0000
# 2 -13.1676 11.1391 5.5852 -0.0001 0.0000 0.0001
# 3 28.3530 5.5852 154.4820 -0.0003 0.0003 0.0005
# 4 0.0000 -0.0001 -0.0003 17.0492 0.0001 0.0003
# 5 0.0000 0.0000 0.0003 0.0001 41.8395 -0.0002
# 6 0.0000 0.0001 0.0005 0.0003 -0.0002 28.0685
#
#
#
# Elastic Compliance Matrix: (Units=1/GPa)
#
#
# Indices 1 2 3 4 5 6 
#
# 1 0.017501 0.022710 -0.004033 0.000000 0.000000 0.000000
# 2 0.022710 0.120901 -0.008539 0.000001 0.000000 0.000000
# 3 -0.004033 -0.008539 0.007522 0.000000 0.000000 0.000000
# 4 0.000000 0.000001 0.000000 0.058654 0.000000 -0.000001
# 5 0.000000 0.000000 0.000000 0.000000 0.023901 0.000000
# 6 0.000000 0.000000 0.000000 -0.000001 0.000000 0.035627
#
#
# Mechanical properties :
#
#
# Convention : Reuss Voigt Hill
#
# Bulk Modulus (GPa) = 6.01684 31.99136 19.00410
# Shear Modulus (GPa) = 16.70953 32.43213 24.57083
#
# Velocity S-wave (km/s) = 2.78448 3.87927 3.37654
# Velocity P-wave (km/s) = 3.62349 5.90840 4.90096
#
# Compressibility (1/GPa) = 0.16620033
#
# Stress axis : x y z
#
# Youngs Moduli (GPa) = 57.13899 8.27123 132.93974
#
# Poissons Ratio (x) = -0.18784 0.53617
# Poissons Ratio (y) = -1.29765 1.13520
# Poissons Ratio (z) = 0.23045 0.07063
#
# Static dielectric constant tensor:
#      x y z
#    x 3.618040 0.000000 0.000000 
#    y 0.000000 3.396010 0.000000 
#    z 0.000000 0.000000 3.694060 
# 
# 
# High freq. dielectric constant tensor:
#      x y z
#    x 1.832250 0.000000 0.000000 
#    y 0.000000 1.815790 0.000000 
#    z 0.000000 0.000000 1.850430 
# 
# From -- ./inp_files/411.got.cif
#   From: 2010.06.25/outbox.cif.g09.slc.cpg/sg43_1_cif.got.tgz:411.got - 2010.06.26 16:48:59.
