data_PCOD8187410
_publ_section_title
;
Structure prediction by ZEFSAII (Michael W. Deem and Ramdas Pophale) SiO2 
 PCOD8187410
Probable space group: F D D 2
;
_chemical_formula_sum "Si O2"
_cell_formula_units_Z 80
_cell_length_a 13.327312
_cell_length_b 12.503590
_cell_length_c 23.394303
_cell_angle_alpha 90.000000
_cell_angle_beta 90.000000
_cell_angle_gamma 90.000000
_cell_volume 3898.408990
_symmetry_space_group_name_H-M "F D D 2"
_symmetry_group_IT_number 43
_symmetry_cell_setting 'orthorhombic'
loop_
_space_group_symop_operation_xyz
x,y,z
-x,-y,z
1/4-x,1/4+y,1/4+z
1/4+x,1/4-y,1/4+z
x,1/2+y,1/2+z
-x,1/2-y,1/2+z
1/4-x,3/4+y,3/4+z
1/4+x,3/4-y,3/4+z
1/2+x,y,1/2+z
1/2-x,-y,1/2+z
3/4-x,1/4+y,3/4+z
3/4+x,1/4-y,3/4+z
1/2+x,1/2+y,z
1/2-x,1/2-y,z
3/4-x,3/4+y,1/4+z
3/4+x,3/4-y,1/4+z
loop_
_atom_site_type_symbol
_atom_site_label
_atom_site_fract_x
_atom_site_fract_y
_atom_site_fract_z
Si Si1 0.786784 0.859008 0.924850
Si Si2 0.509288 0.874174 0.388618
Si Si3 0.112806 0.042675 0.240328
Si Si4 0.816062 0.152085 0.305640
Si Si5 0.528616 0.745025 0.282151
O O1 0.750000 0.750000 0.955331
O O2 0.899427 0.832582 0.904885
O O3 0.720237 0.881748 0.868617
O O4 0.772851 0.957043 0.968182
O O5 0.592076 0.827639 0.430526
O O6 0.552512 0.838725 0.326793
O O7 0.500000 0.000000 0.390303
O O8 0.109881 0.148658 0.280799
O O9 0.187871 0.954449 0.266888
O O10 0.000000 0.000000 0.230201
O O11 0.750000 0.250000 0.280033
O O12 0.928512 0.192396 0.306014
#
# Coordination Sequence:
#
# PCOD8187410 Si02
#       5
#    16  16  16  16  16
#     4  11  23  43  67 102 135 176 237 284 339 422
#     4  12  24  45  67 102 135 181 233 289 351 413
#     4  10  25  45  66 101 140 178 231 283 357 425
#     4  10  22  42  70  99 133 177 233 280 342 420
#     4  11  23  44  66  96 142 179 220 294 345 410
#
# _framework density 20.521191999999999
#
# number of rings (size 3 to 8) (size 9 to 14) (size 15 to 20)
#    0.000    1.200    6.000    0.600    2.800    4.800 
#    3.600    2.000    0.000    0.000    0.000    0.000 
#    0.000    0.000    0.000    0.000    0.000    0.000 
#
# Total GULP energy -247869.105876 kJ/mol
# GULP energy per Si atom -12393.455294 kJ/mol
# Density = 2.047449 g / cm^3
# Si number density = 20.521192 Si / 1000 Ang^3
#
#
#
# Elastic Constant Matrix: (Units=GPa)
#
#
# Indices 1 2 3 4 5 6 
#
# 1 65.6368 31.6229 50.5244 0.0000 0.0000 0.0000
# 2 31.6229 160.3014 77.0582 0.0000 0.0000 0.0000
# 3 50.5244 77.0582 131.0460 0.0000 0.0000 0.0000
# 4 0.0000 0.0000 0.0000 51.4001 0.0000 0.0000
# 5 0.0000 0.0000 0.0000 0.0000 36.0313 0.0000
# 6 0.0000 0.0000 0.0000 0.0000 0.0000 40.1715
#
#
#
# Elastic Compliance Matrix: (Units=1/GPa)
#
#
# Indices 1 2 3 4 5 6 
#
# 1 0.021680 -0.000361 -0.008147 0.000000 0.000000 0.000000
# 2 -0.000361 0.008702 -0.004978 0.000000 0.000000 0.000000
# 3 -0.008147 -0.004978 0.013699 0.000000 0.000000 0.000000
# 4 0.000000 0.000000 0.000000 0.019455 0.000000 0.000000
# 5 0.000000 0.000000 0.000000 0.000000 0.027754 0.000000
# 6 0.000000 0.000000 0.000000 0.000000 0.000000 0.024893
#
#
# Mechanical properties :
#
#
# Convention : Reuss Voigt Hill
#
# Bulk Modulus (GPa) = 58.44319 75.04390 66.74355
# Shear Modulus (GPa) = 33.58902 38.70582 36.14742
#
# Velocity S-wave (km/s) = 4.05012 4.34768 4.20154
# Velocity P-wave (km/s) = 7.10018 7.86457 7.49213
#
# Compressibility (1/GPa) = 0.01711063
#
# Stress axis : x y z
#
# Youngs Moduli (GPa) = 46.12545 114.90996 72.99765
#
# Poissons Ratio (x) = 0.04145 0.59468
# Poissons Ratio (y) = 0.01664 0.36340
# Poissons Ratio (z) = 0.37576 0.57204
#
# Static dielectric constant tensor:
#      x y z
#    x 3.696420 0.000000 0.000000 
#    y 0.000000 4.203220 0.000000 
#    z 0.000000 0.000000 3.693550 
# 
# 
# High freq. dielectric constant tensor:
#      x y z
#    x 1.799090 0.000000 0.000000 
#    y 0.000000 1.825010 0.000000 
#    z 0.000000 0.000000 1.793960 
# 
# From -- ./inp_files/17507.got.cif
#   From: 2010.06.25/outbox.cif.g09.slc.cpg/sg43_9_cif.got.tgz:17507.got - 2010.06.26 16:48:59.
