data_PCOD8187706
_publ_section_title
;
Structure prediction by ZEFSAII (Michael W. Deem and Ramdas Pophale) SiO2 
 PCOD8187706
Probable space group: F D D 2
;
_chemical_formula_sum "Si O2"
_cell_formula_units_Z 120
_cell_length_a 11.110106
_cell_length_b 29.473189
_cell_length_c 16.425551
_cell_angle_alpha 90.000000
_cell_angle_beta 90.000000
_cell_angle_gamma 90.000000
_cell_volume 5378.550846
_symmetry_space_group_name_H-M "F D D 2"
_symmetry_group_IT_number 43
_symmetry_cell_setting 'orthorhombic'
loop_
_space_group_symop_operation_xyz
x,y,z
-x,-y,z
1/4-x,1/4+y,1/4+z
1/4+x,1/4-y,1/4+z
x,1/2+y,1/2+z
-x,1/2-y,1/2+z
1/4-x,3/4+y,3/4+z
1/4+x,3/4-y,3/4+z
1/2+x,y,1/2+z
1/2-x,-y,1/2+z
3/4-x,1/4+y,3/4+z
3/4+x,1/4-y,3/4+z
1/2+x,1/2+y,z
1/2-x,1/2-y,z
3/4-x,3/4+y,1/4+z
3/4+x,3/4-y,1/4+z
loop_
_atom_site_type_symbol
_atom_site_label
_atom_site_fract_x
_atom_site_fract_y
_atom_site_fract_z
Si Si1 0.750000 0.250000 0.764040
Si Si2 0.672136 0.127203 0.148976
Si Si3 0.216247 0.415855 0.327466
Si Si4 0.502524 0.213798 0.830710
Si Si5 0.255039 0.343654 0.195723
Si Si6 0.181463 0.087733 0.817752
Si Si7 0.364476 0.001218 0.237202
Si Si8 0.835606 0.709262 0.677106
O O1 0.637947 0.230564 0.815316
O O2 0.789632 0.207995 0.708483
O O3 0.749492 0.090537 0.097125
O O4 0.567007 0.147358 0.091444
O O5 0.627094 0.102106 0.230032
O O6 0.753488 0.165506 0.190514
O O7 0.255055 0.370354 0.280646
O O8 0.138868 0.403211 0.407753
O O9 0.143361 0.447045 0.266087
O O10 0.329960 0.446078 0.352109
O O11 0.466714 0.242935 0.908598
O O12 0.411798 0.223894 0.756351
O O13 0.156585 0.361944 0.132297
O O14 0.171948 0.032809 0.811701
O O15 0.500000 0.000000 0.206979
O O16 0.750000 0.750000 0.649498
#
# Coordination Sequence:
#
# PCOD8187706 Si02
#       8
#     8  16  16  16  16  16  16  16
#     4  12  26  50  72 104 150 194 250 308 382 444
#     4  11  24  46  72 105 150 189 247 308 378 446
#     4  12  27  47  72 111 149 197 249 308 374 453
#     4  11  26  47  75 108 147 200 248 315 375 457
#     4  12  26  45  78 105 150 193 251 306 376 452
#     4  11  23  43  75 106 142 196 243 311 371 449
#     4  11  24  47  71 107 152 189 252 313 370 443
#     4  12  26  46  72 107 147 197 248 309 375 451
#
# _framework density 22.310842000000001
#
# number of rings (size 3 to 8) (size 9 to 14) (size 15 to 20)
#    0.000    0.533    4.000    3.600    5.600    1.067 
#    6.000    0.000    0.000    0.000    0.000    0.000 
#    0.000    0.000    0.000    0.000    0.000    0.000 
#
# Total GULP energy -371911.228923 kJ/mol
# GULP energy per Si atom -12397.040964 kJ/mol
# Density = 2.226006 g / cm^3
# Si number density = 22.310842 Si / 1000 Ang^3
#
#
#
# Elastic Constant Matrix: (Units=GPa)
#
#
# Indices 1 2 3 4 5 6 
#
# 1 135.8891 48.5622 45.1771 0.0000 0.0000 0.0000
# 2 48.5622 121.8151 42.3778 0.0000 0.0000 0.0000
# 3 45.1771 42.3778 102.8053 0.0000 0.0000 0.0000
# 4 0.0000 0.0000 0.0000 17.1499 0.0000 0.0000
# 5 0.0000 0.0000 0.0000 0.0000 32.6026 0.0000
# 6 0.0000 0.0000 0.0000 0.0000 0.0000 33.2577
#
#
#
# Elastic Compliance Matrix: (Units=1/GPa)
#
#
# Indices 1 2 3 4 5 6 
#
# 1 0.009307 -0.002670 -0.002989 0.000000 0.000000 0.000000
# 2 -0.002670 0.010350 -0.003093 0.000000 0.000000 0.000000
# 3 -0.002989 -0.003093 0.012316 0.000000 0.000000 0.000000
# 4 0.000000 0.000000 0.000000 0.058309 0.000000 0.000000
# 5 0.000000 0.000000 0.000000 0.000000 0.030672 0.000000
# 6 0.000000 0.000000 0.000000 0.000000 0.000000 0.030068
#
#
# Mechanical properties :
#
#
# Convention : Reuss Voigt Hill
#
# Bulk Modulus (GPa) = 69.11992 70.30485 69.71238
# Shear Modulus (GPa) = 28.84348 31.56152 30.20250
#
# Velocity S-wave (km/s) = 3.59945 3.76523 3.68328
# Velocity P-wave (km/s) = 6.95143 7.10511 7.02869
#
# Compressibility (1/GPa) = 0.01446761
#
# Stress axis : x y z
#
# Youngs Moduli (GPa) = 107.44598 96.62138 81.19803
#
# Poissons Ratio (x) = 0.25802 0.24271
# Poissons Ratio (y) = 0.28692 0.25113
# Poissons Ratio (z) = 0.32117 0.29883
#
# Static dielectric constant tensor:
#      x y z
#    x 3.995460 0.000000 0.000000 
#    y 0.000000 4.329260 0.000000 
#    z 0.000000 0.000000 3.911590 
# 
# 
# High freq. dielectric constant tensor:
#      x y z
#    x 1.883370 0.000000 0.000000 
#    y 0.000000 1.886690 0.000000 
#    z 0.000000 0.000000 1.881370 
# 
# From -- ./inp_files/13487.got.cif
#   From: 2010.06.25/outbox.cif.g09.slc.cpg/sg43_7_cif.got.tgz:13487.got - 2010.06.26 16:48:59.
