data_PCOD8187619
_publ_section_title
;
Structure prediction by ZEFSAII (Michael W. Deem and Ramdas Pophale) SiO2 
 PCOD8187619
Probable space group: F D D 2
;
_chemical_formula_sum "Si O2"
_cell_formula_units_Z 112
_cell_length_a 14.161193
_cell_length_b 32.310735
_cell_length_c 12.369056
_cell_angle_alpha 90.000000
_cell_angle_beta 90.000000
_cell_angle_gamma 90.000000
_cell_volume 5659.567382
_symmetry_space_group_name_H-M "F D D 2"
_symmetry_group_IT_number 43
_symmetry_cell_setting 'orthorhombic'
loop_
_space_group_symop_operation_xyz
x,y,z
-x,-y,z
1/4-x,1/4+y,1/4+z
1/4+x,1/4-y,1/4+z
x,1/2+y,1/2+z
-x,1/2-y,1/2+z
1/4-x,3/4+y,3/4+z
1/4+x,3/4-y,3/4+z
1/2+x,y,1/2+z
1/2-x,-y,1/2+z
3/4-x,1/4+y,3/4+z
3/4+x,1/4-y,3/4+z
1/2+x,1/2+y,z
1/2-x,1/2-y,z
3/4-x,3/4+y,1/4+z
3/4+x,3/4-y,1/4+z
loop_
_atom_site_type_symbol
_atom_site_label
_atom_site_fract_x
_atom_site_fract_y
_atom_site_fract_z
Si Si1 0.250000 0.250000 0.399750
Si Si2 0.022474 0.212330 0.755026
Si Si3 0.098489 0.698166 0.036367
Si Si4 0.933917 0.943120 0.960406
Si Si5 0.921775 0.889546 0.618865
Si Si6 0.359368 0.113676 0.104867
Si Si7 0.828851 0.969457 0.652038
Si Si8 0.250000 0.750000 0.533272
O O1 0.173414 0.226561 0.473428
O O2 0.287813 0.211902 0.326775
O O3 0.101830 0.212474 0.661442
O O4 0.045234 0.177301 0.844907
O O5 0.019046 0.255790 0.813923
O O6 0.924848 0.205087 0.692833
O O7 0.994652 0.703615 0.989531
O O8 0.114175 0.647942 0.040763
O O9 0.938327 0.893131 0.947757
O O10 0.999670 0.960518 0.863699
O O11 0.883627 0.885863 0.740053
O O12 0.876141 0.932717 0.581149
O O13 0.033088 0.895972 0.634336
O O14 0.907339 0.998872 0.708140
#
# Coordination Sequence:
#
# PCOD8187619 Si02
#       8
#     8  16  16  16  16  16  16   8
#     4  11  26  43  68  86 138 181 210 257 348 386
#     4  11  23  38  68  94 126 166 218 268 319 380
#     4  11  23  44  63  92 133 173 205 272 325 385
#     4  11  21  41  64  94 126 174 213 260 325 386
#     4  11  20  38  65  90 128 167 207 267 325 374
#     4  11  20  38  64  93 126 162 212 268 320 372
#     4  12  22  39  65 100 123 164 222 263 319 387
#     4  11  20  35  66  94 122 161 216 263 310 382
#
# _framework density 19.789497999999998
#
# number of rings (size 3 to 8) (size 9 to 14) (size 15 to 20)
#    0.000    0.857    8.571    0.857    0.000    2.857 
#    0.000    2.857    0.000    0.000    0.000    0.000 
#    0.000    0.000    0.000    0.000    0.000    0.000 
#
# Total GULP energy -346903.491335 kJ/mol
# GULP energy per Si atom -12389.410405 kJ/mol
# Density = 1.974446 g / cm^3
# Si number density = 19.789498 Si / 1000 Ang^3
#
#
#
# Elastic Constant Matrix: (Units=GPa)
#
#
# Indices 1 2 3 4 5 6 
#
# 1 86.5681 50.4635 30.7153 0.0000 0.0000 0.0000
# 2 50.4635 134.3407 53.8164 0.0000 0.0000 0.0000
# 3 30.7153 53.8164 81.8048 0.0000 0.0000 0.0000
# 4 0.0000 0.0000 0.0000 36.0147 0.0000 0.0000
# 5 0.0000 0.0000 0.0000 0.0000 26.7897 0.0000
# 6 0.0000 0.0000 0.0000 0.0000 0.0000 27.5702
#
#
#
# Elastic Compliance Matrix: (Units=1/GPa)
#
#
# Indices 1 2 3 4 5 6 
#
# 1 0.015202 -0.004649 -0.002649 0.000000 0.000000 0.000000
# 2 -0.004649 0.011529 -0.005839 0.000000 0.000000 0.000000
# 3 -0.002649 -0.005839 0.017060 0.000000 0.000000 0.000000
# 4 0.000000 0.000000 0.000000 0.027766 0.000000 0.000000
# 5 0.000000 0.000000 0.000000 0.000000 0.037328 0.000000
# 6 0.000000 0.000000 0.000000 0.000000 0.000000 0.036271
#
#
# Mechanical properties :
#
#
# Convention : Reuss Voigt Hill
#
# Bulk Modulus (GPa) = 57.08973 63.63376 60.36175
# Shear Modulus (GPa) = 28.20553 29.25614 28.73084
#
# Velocity S-wave (km/s) = 3.77938 3.84913 3.81441
# Velocity P-wave (km/s) = 6.92503 7.20968 7.06879
#
# Compressibility (1/GPa) = 0.01751629
#
# Stress axis : x y z
#
# Youngs Moduli (GPa) = 65.78215 86.73611 58.61554
#
# Poissons Ratio (x) = 0.40324 0.15529
# Poissons Ratio (y) = 0.30582 0.34226
# Poissons Ratio (z) = 0.17428 0.50646
#
# Static dielectric constant tensor:
#      x y z
#    x 3.527100 0.000000 0.000000 
#    y 0.000000 3.832480 0.000000 
#    z 0.000000 0.000000 3.488340 
# 
# 
# High freq. dielectric constant tensor:
#      x y z
#    x 1.764000 0.000000 0.000000 
#    y 0.000000 1.778580 0.000000 
#    z 0.000000 0.000000 1.760030 
# 
# From -- ./inp_files/6345.got.cif
#   From: 2010.06.25/outbox.cif.g09.slc.cpg/sg43_4_cif.got.tgz:6345.got - 2010.06.26 16:48:59.
