data_PCOD8187536
_publ_section_title
;
Structure prediction by ZEFSAII (Michael W. Deem and Ramdas Pophale) SiO2 
 PCOD8187536
Probable space group: F D D 2
;
_chemical_formula_sum "Si O2"
_cell_formula_units_Z 80
_cell_length_a 21.597612
_cell_length_b 13.423824
_cell_length_c 12.184494
_cell_angle_alpha 90.000000
_cell_angle_beta 90.000000
_cell_angle_gamma 90.000000
_cell_volume 3532.559477
_symmetry_space_group_name_H-M "F D D 2"
_symmetry_group_IT_number 43
_symmetry_cell_setting 'orthorhombic'
loop_
_space_group_symop_operation_xyz
x,y,z
-x,-y,z
1/4-x,1/4+y,1/4+z
1/4+x,1/4-y,1/4+z
x,1/2+y,1/2+z
-x,1/2-y,1/2+z
1/4-x,3/4+y,3/4+z
1/4+x,3/4-y,3/4+z
1/2+x,y,1/2+z
1/2-x,-y,1/2+z
3/4-x,1/4+y,3/4+z
3/4+x,1/4-y,3/4+z
1/2+x,1/2+y,z
1/2-x,1/2-y,z
3/4-x,3/4+y,1/4+z
3/4+x,3/4-y,1/4+z
loop_
_atom_site_type_symbol
_atom_site_label
_atom_site_fract_x
_atom_site_fract_y
_atom_site_fract_z
Si Si1 0.639242 0.343344 0.596900
Si Si2 0.683943 0.288698 0.369472
Si Si3 0.208945 0.425880 0.292043
Si Si4 0.825925 0.036322 0.208263
Si Si5 0.800217 0.174266 0.005770
O O1 0.685735 0.315110 0.498615
O O2 0.615521 0.456276 0.583387
O O3 0.673843 0.344730 0.714611
O O4 0.583673 0.264616 0.590477
O O5 0.750000 0.250000 0.331266
O O6 0.665689 0.388461 0.308018
O O7 0.265704 0.468125 0.222522
O O8 0.234751 0.372080 0.400379
O O9 0.887178 0.970585 0.207460
O O10 0.818443 0.092086 0.093717
O O11 0.750000 0.250000 0.058925
#
# Coordination Sequence:
#
# PCOD8187536 Si02
#       5
#    16  16  16  16  16
#     4  10  24  41  69  98 138 180 229 283 349 405
#     4  11  22  41  67 101 132 176 229 283 339 408
#     4  11  25  45  70 102 142 183 236 285 351 418
#     4  12  26  44  73  99 144 182 239 286 360 417
#     4  12  28  46  71 102 141 184 234 294 354 423
#
# _framework density 22.646470000000001
#
# number of rings (size 3 to 8) (size 9 to 14) (size 15 to 20)
#    0.000    0.800    2.000    4.200    8.400    4.000 
#    0.000    0.000    0.000    0.000    0.000    0.000 
#    0.000    0.000    0.000    0.000    0.000    0.000 
#
# Total GULP energy -248036.804148 kJ/mol
# GULP energy per Si atom -12401.840207 kJ/mol
# Density = 2.259493 g / cm^3
# Si number density = 22.646470 Si / 1000 Ang^3
#
#
#
# Elastic Constant Matrix: (Units=GPa)
#
#
# Indices 1 2 3 4 5 6 
#
# 1 104.2643 32.8179 42.1313 0.0000 0.0000 0.0000
# 2 32.8179 80.7875 46.8872 0.0000 0.0000 0.0000
# 3 42.1313 46.8872 125.3555 0.0000 0.0000 0.0000
# 4 0.0000 0.0000 0.0000 49.5528 0.0000 0.0000
# 5 0.0000 0.0000 0.0000 0.0000 22.6612 0.0000
# 6 0.0000 0.0000 0.0000 0.0000 0.0000 36.5406
#
#
#
# Elastic Compliance Matrix: (Units=1/GPa)
#
#
# Indices 1 2 3 4 5 6 
#
# 1 0.011695 -0.003154 -0.002751 0.000000 0.000000 0.000000
# 2 -0.003154 0.016661 -0.005172 0.000000 0.000000 0.000000
# 3 -0.002751 -0.005172 0.010836 0.000000 0.000000 0.000000
# 4 0.000000 0.000000 0.000000 0.020180 0.000000 0.000000
# 5 0.000000 0.000000 0.000000 0.000000 0.044128 0.000000
# 6 0.000000 0.000000 0.000000 0.000000 0.000000 0.027367
#
#
# Mechanical properties :
#
#
# Convention : Reuss Voigt Hill
#
# Bulk Modulus (GPa) = 58.68942 61.56445 60.12694
# Shear Modulus (GPa) = 31.50560 34.32231 32.91396
#
# Velocity S-wave (km/s) = 3.73392 3.89726 3.81646
# Velocity P-wave (km/s) = 6.67542 6.89170 6.78442
#
# Compressibility (1/GPa) = 0.01703885
#
# Stress axis : x y z
#
# Youngs Moduli (GPa) = 85.50304 60.02026 92.28297
#
# Poissons Ratio (x) = 0.18933 0.25386
# Poissons Ratio (y) = 0.26971 0.47725
# Poissons Ratio (z) = 0.23521 0.31040
#
# Static dielectric constant tensor:
#      x y z
#    x 4.027150 0.000000 0.000000 
#    y 0.000000 4.279200 0.000000 
#    z 0.000000 0.000000 4.105020 
# 
# 
# High freq. dielectric constant tensor:
#      x y z
#    x 1.892530 0.000000 0.000000 
#    y 0.000000 1.902650 0.000000 
#    z 0.000000 0.000000 1.906230 
# 
# From -- ./inp_files/6052.got.cif
#   From: 2010.06.25/outbox.cif.g09.slc.cpg/sg43_4_cif.got.tgz:6052.got - 2010.06.26 16:48:59.
