data_PCOD8187214
_publ_section_title
;
Structure prediction by ZEFSAII (Michael W. Deem and Ramdas Pophale) SiO2 
 PCOD8187214
Probable space group: F D D 2
;
_chemical_formula_sum "Si O2"
_cell_formula_units_Z 96
_cell_length_a 22.416567
_cell_length_b 24.832050
_cell_length_c 8.485426
_cell_angle_alpha 90.000000
_cell_angle_beta 90.000000
_cell_angle_gamma 90.000000
_cell_volume 4723.406550
_symmetry_space_group_name_H-M "F D D 2"
_symmetry_group_IT_number 43
_symmetry_cell_setting 'orthorhombic'
loop_
_space_group_symop_operation_xyz
x,y,z
-x,-y,z
1/4-x,1/4+y,1/4+z
1/4+x,1/4-y,1/4+z
x,1/2+y,1/2+z
-x,1/2-y,1/2+z
1/4-x,3/4+y,3/4+z
1/4+x,3/4-y,3/4+z
1/2+x,y,1/2+z
1/2-x,-y,1/2+z
3/4-x,1/4+y,3/4+z
3/4+x,1/4-y,3/4+z
1/2+x,1/2+y,z
1/2-x,1/2-y,z
3/4-x,3/4+y,1/4+z
3/4+x,3/4-y,1/4+z
loop_
_atom_site_type_symbol
_atom_site_label
_atom_site_fract_x
_atom_site_fract_y
_atom_site_fract_z
Si Si1 0.685816 0.909828 0.304320
Si Si2 0.750000 0.250000 0.243130
Si Si3 0.305449 0.319972 0.998802
Si Si4 0.422400 0.449360 0.240819
Si Si5 0.500000 0.000000 0.497588
Si Si6 0.209549 0.516976 0.778419
Si Si7 0.505465 0.178186 0.247573
O O1 0.622074 0.939099 0.312442
O O2 0.682053 0.858845 0.416999
O O3 0.740474 0.946596 0.368369
O O4 0.696703 0.899498 0.115455
O O5 0.702499 0.217783 0.347779
O O6 0.784586 0.205655 0.140611
O O7 0.261151 0.302426 0.139962
O O8 0.292361 0.382149 0.950815
O O9 0.356194 0.459490 0.305899
O O10 0.441434 0.491973 0.106133
O O11 0.222815 0.522450 0.591194
O O12 0.214299 0.455400 0.843028
#
# Coordination Sequence:
#
# PCOD8187214 Si02
#       7
#    16   8  16  16   8  16  16
#     4  10  21  38  69  92 125 166 208 258 325 379
#     4  10  26  40  62  94 128 166 214 268 318 366
#     4  11  21  42  62  92 129 164 213 260 319 389
#     4  11  21  44  64  94 128 165 219 264 314 387
#     4  10  22  38  70  88 122 182 204 262 324 380
#     4  10  23  39  66  97 129 165 219 263 320 378
#     4  10  22  40  59  98 124 171 208 257 323 376
#
# _framework density 20.324314999999999
#
# number of rings (size 3 to 8) (size 9 to 14) (size 15 to 20)
#    1.000    0.667    3.333    1.000    2.333    1.333 
#    0.000    1.667    0.000    0.000    0.000    0.000 
#    0.000    0.000    0.000    0.000    0.000    0.000 
#
# Total GULP energy -297318.980789 kJ/mol
# GULP energy per Si atom -12388.290866 kJ/mol
# Density = 2.027806 g / cm^3
# Si number density = 20.324315 Si / 1000 Ang^3
#
#
#
# Elastic Constant Matrix: (Units=GPa)
#
#
# Indices 1 2 3 4 5 6 
#
# 1 143.4349 54.0111 39.1293 0.0013 0.0002 0.0000
# 2 54.0111 106.7818 50.6111 0.0012 -0.0003 0.0007
# 3 39.1293 50.6111 89.5853 0.0028 -0.0015 0.0001
# 4 0.0013 0.0012 0.0028 37.9594 -0.0021 0.0002
# 5 0.0002 -0.0003 -0.0015 -0.0021 13.0382 0.0010
# 6 0.0000 0.0007 0.0001 0.0002 0.0010 33.2100
#
#
#
# Elastic Compliance Matrix: (Units=1/GPa)
#
#
# Indices 1 2 3 4 5 6 
#
# 1 0.008824 -0.003601 -0.001820 0.000000 0.000000 0.000000
# 2 -0.003601 0.014259 -0.006483 0.000000 0.000000 0.000000
# 3 -0.001820 -0.006483 0.015620 -0.000001 0.000002 0.000000
# 4 0.000000 0.000000 -0.000001 0.026344 0.000004 0.000000
# 5 0.000000 0.000000 0.000002 0.000004 0.076698 -0.000002
# 6 0.000000 0.000000 0.000000 0.000000 -0.000002 0.030111
#
#
# Mechanical properties :
#
#
# Convention : Reuss Voigt Hill
#
# Bulk Modulus (GPa) = 67.13258 69.70056 68.41657
# Shear Modulus (GPa) = 24.92173 29.91155 27.41664
#
# Velocity S-wave (km/s) = 3.50552 3.84045 3.67680
# Velocity P-wave (km/s) = 7.03472 7.35079 7.19449
#
# Compressibility (1/GPa) = 0.01489590
#
# Stress axis : x y z
#
# Youngs Moduli (GPa) = 113.32499 70.13232 64.02087
#
# Poissons Ratio (x) = 0.25253 0.11652
# Poissons Ratio (y) = 0.40805 0.41503
# Poissons Ratio (z) = 0.20625 0.45465
#
# Static dielectric constant tensor:
#      x y z
#    x 3.642300 0.000010 0.000010 
#    y 0.000010 3.468150 -0.000010 
#    z 0.000010 -0.000010 3.576730 
# 
# 
# High freq. dielectric constant tensor:
#      x y z
#    x 1.793150 0.000000 0.000000 
#    y 0.000000 1.780670 0.000000 
#    z 0.000000 0.000000 1.785000 
# 
# From -- ./inp_files/3346.got.cif
#   From: 2010.06.25/outbox.cif.g09.slc.cpg/sg43_2_cif.got.tgz:3346.got - 2010.06.26 16:48:59.
