data_PCOD8187310
_publ_section_title
;
Structure prediction by ZEFSAII (Michael W. Deem and Ramdas Pophale) SiO2 
 PCOD8187310
Probable space group: F D D 2
;
_chemical_formula_sum "Si O2"
_cell_formula_units_Z 120
_cell_length_a 9.003048
_cell_length_b 26.264435
_cell_length_c 21.879780
_cell_angle_alpha 90.000000
_cell_angle_beta 90.000000
_cell_angle_gamma 90.000000
_cell_volume 5173.692100
_symmetry_space_group_name_H-M "F D D 2"
_symmetry_group_IT_number 43
_symmetry_cell_setting 'orthorhombic'
loop_
_space_group_symop_operation_xyz
x,y,z
-x,-y,z
1/4-x,1/4+y,1/4+z
1/4+x,1/4-y,1/4+z
x,1/2+y,1/2+z
-x,1/2-y,1/2+z
1/4-x,3/4+y,3/4+z
1/4+x,3/4-y,3/4+z
1/2+x,y,1/2+z
1/2-x,-y,1/2+z
3/4-x,1/4+y,3/4+z
3/4+x,1/4-y,3/4+z
1/2+x,1/2+y,z
1/2-x,1/2-y,z
3/4-x,3/4+y,1/4+z
3/4+x,3/4-y,1/4+z
loop_
_atom_site_type_symbol
_atom_site_label
_atom_site_fract_x
_atom_site_fract_y
_atom_site_fract_z
Si Si1 0.183813 0.427200 0.236080
Si Si2 0.898113 0.575496 0.469678
Si Si3 0.730307 0.529677 0.363895
Si Si4 0.000000 0.000000 0.066350
Si Si5 0.217995 0.519537 0.149746
Si Si6 0.331490 0.319991 0.628394
Si Si7 0.884597 0.142079 0.481846
Si Si8 0.871528 0.409892 0.050942
O O1 0.281735 0.381013 0.208509
O O2 0.264162 0.448987 0.295477
O O3 0.160376 0.468758 0.182489
O O4 0.018879 0.413335 0.257993
O O5 0.874196 0.546055 0.404670
O O6 0.728721 0.574612 0.493692
O O7 0.004497 0.548047 0.519779
O O8 0.711292 0.468750 0.356524
O O9 0.576304 0.545767 0.396756
O O10 0.864815 0.004856 0.112817
O O11 0.238988 0.563572 0.201689
O O12 0.105610 0.543456 0.099067
O O13 0.409975 0.348955 0.683670
O O14 0.284394 0.361824 0.578642
O O15 0.966701 0.111283 0.534957
#
# Coordination Sequence:
#
# PCOD8187310 Si02
#       8
#    16  16  16   8  16  16  16  16
#     4  12  27  44  72 110 146 192 243 307 380 429
#     4  11  25  45  73 105 145 188 252 304 361 447
#     4  11  24  44  71 101 145 186 241 299 356 444
#     4  10  26  48  74 110 138 206 246 306 382 440
#     4  10  25  45  75 107 149 185 253 304 369 449
#     4  10  22  42  70 103 132 190 237 286 359 430
#     4  11  24  46  69 108 145 190 238 303 370 439
#     4  10  21  46  75  98 147 191 241 296 355 448
#
# _framework density 23.194267
#
# number of rings (size 3 to 8) (size 9 to 14) (size 15 to 20)
#    0.000    1.333    2.667    1.200    5.600    3.200 
#    4.800    1.333    0.000    0.000    0.000    0.000 
#    0.000    0.000    0.000    0.000    0.000    0.000 
#
# Total GULP energy -371715.198565 kJ/mol
# GULP energy per Si atom -12390.506619 kJ/mol
# Density = 2.314148 g / cm^3
# Si number density = 23.194267 Si / 1000 Ang^3
#
#
#
# Elastic Constant Matrix: (Units=GPa)
#
#
# Indices 1 2 3 4 5 6 
#
# 1 92.5873 54.1513 46.2360 0.0000 0.0000 0.0000
# 2 54.1513 130.8310 42.7238 0.0000 0.0000 0.0000
# 3 46.2360 42.7238 80.2305 0.0000 0.0000 0.0000
# 4 0.0000 0.0000 0.0000 32.3457 0.0000 0.0000
# 5 0.0000 0.0000 0.0000 0.0000 33.2750 0.0000
# 6 0.0000 0.0000 0.0000 0.0000 0.0000 34.0944
#
#
#
# Elastic Compliance Matrix: (Units=1/GPa)
#
#
# Indices 1 2 3 4 5 6 
#
# 1 0.017279 -0.004721 -0.007444 0.000000 0.000000 0.000000
# 2 -0.004721 0.010542 -0.002893 0.000000 0.000000 0.000000
# 3 -0.007444 -0.002893 0.018294 0.000000 0.000000 0.000000
# 4 0.000000 0.000000 0.000000 0.030916 0.000000 0.000000
# 5 0.000000 0.000000 0.000000 0.000000 0.030053 0.000000
# 6 0.000000 0.000000 0.000000 0.000000 0.000000 0.029330
#
#
# Mechanical properties :
#
#
# Convention : Reuss Voigt Hill
#
# Bulk Modulus (GPa) = 62.50047 65.54120 64.02083
# Shear Modulus (GPa) = 29.09281 30.64556 29.86919
#
# Velocity S-wave (km/s) = 3.54547 3.63885 3.59246
# Velocity P-wave (km/s) = 6.61555 6.78040 6.69848
#
# Compressibility (1/GPa) = 0.01599988
#
# Stress axis : x y z
#
# Youngs Moduli (GPa) = 57.87376 94.85595 54.66132
#
# Poissons Ratio (x) = 0.44782 0.40688
# Poissons Ratio (y) = 0.27322 0.15815
# Poissons Ratio (z) = 0.43079 0.27444
#
# Static dielectric constant tensor:
#      x y z
#    x 3.798720 0.000000 0.000000 
#    y 0.000000 4.472660 0.000000 
#    z 0.000000 0.000000 4.444290 
# 
# 
# High freq. dielectric constant tensor:
#      x y z
#    x 1.897620 0.000000 0.000000 
#    y 0.000000 1.931030 0.000000 
#    z 0.000000 0.000000 1.918210 
# 
# From -- ./inp_files/20459.got.cif
#   From: 2010.06.25/outbox.cif.g09.slc.cpg/sg43_11_cif.got.tgz:20459.got - 2010.06.26 16:48:59.
