data_PCOD8187352
_publ_section_title
;
Structure prediction by ZEFSAII (Michael W. Deem and Ramdas Pophale) SiO2 
 PCOD8187352
Probable space group: F D D 2
;
_chemical_formula_sum "Si O2"
_cell_formula_units_Z 128
_cell_length_a 24.291990
_cell_length_b 22.404902
_cell_length_c 11.657959
_cell_angle_alpha 90.000000
_cell_angle_beta 90.000000
_cell_angle_gamma 90.000000
_cell_volume 6344.956747
_symmetry_space_group_name_H-M "F D D 2"
_symmetry_group_IT_number 43
_symmetry_cell_setting 'orthorhombic'
loop_
_space_group_symop_operation_xyz
x,y,z
-x,-y,z
1/4-x,1/4+y,1/4+z
1/4+x,1/4-y,1/4+z
x,1/2+y,1/2+z
-x,1/2-y,1/2+z
1/4-x,3/4+y,3/4+z
1/4+x,3/4-y,3/4+z
1/2+x,y,1/2+z
1/2-x,-y,1/2+z
3/4-x,1/4+y,3/4+z
3/4+x,1/4-y,3/4+z
1/2+x,1/2+y,z
1/2-x,1/2-y,z
3/4-x,3/4+y,1/4+z
3/4+x,3/4-y,1/4+z
loop_
_atom_site_type_symbol
_atom_site_label
_atom_site_fract_x
_atom_site_fract_y
_atom_site_fract_z
Si Si1 0.654793 0.545674 0.163260
Si Si2 0.407161 0.756347 0.370214
Si Si3 0.445530 0.534409 0.232320
Si Si4 0.231659 0.609672 0.840663
Si Si5 0.734529 0.998100 0.483322
Si Si6 0.825181 0.418897 0.314135
Si Si7 0.906247 0.877727 0.990146
Si Si8 0.051564 0.460424 0.997811
O O1 0.606318 0.507783 0.217497
O O2 0.694870 0.566973 0.263081
O O3 0.631353 0.604155 0.098776
O O4 0.686642 0.501323 0.077722
O O5 0.459162 0.770824 0.290424
O O6 0.413620 0.693896 0.436936
O O7 0.399767 0.807257 0.467060
O O8 0.355190 0.752628 0.286068
O O9 0.500000 0.500000 0.194473
O O10 0.441982 0.592527 0.151484
O O11 0.448388 0.553646 0.363664
O O12 0.260954 0.569624 0.938612
O O13 0.279517 0.641870 0.765499
O O14 0.720232 0.041071 0.377290
O O15 0.884015 0.415673 0.380995
O O16 0.799023 0.353173 0.310431
O O17 0.000000 0.500000 0.035886
#
# Coordination Sequence:
#
# PCOD8187352 Si02
#       8
#    16  16  16  16  16  16  16  16
#     4  11  24  41  64  96 129 171 215 269 329 386
#     4  11  21  43  64  94 128 164 219 262 325 387
#     4  11  24  40  62  93 131 170 216 264 325 388
#     4  12  23  42  66  92 131 172 218 269 329 384
#     4  11  22  39  68  93 123 167 219 266 319 392
#     4  10  22  40  66  93 128 167 214 265 322 387
#     4  10  22  40  63  95 127 165 213 270 312 394
#     4  10  24  42  60  93 132 167 210 269 321 387
#
# _framework density 20.173501999999999
#
# number of rings (size 3 to 8) (size 9 to 14) (size 15 to 20)
#    0.000    1.250    3.750    1.500    1.750    2.000 
#    2.250    6.250    0.000    0.000    0.000    0.000 
#    0.000    0.000    0.000    0.000    0.000    0.000 
#
# Total GULP energy -396893.410450 kJ/mol
# GULP energy per Si atom -12402.919077 kJ/mol
# Density = 2.012759 g / cm^3
# Si number density = 20.173502 Si / 1000 Ang^3
#
#
#
# Elastic Constant Matrix: (Units=GPa)
#
#
# Indices 1 2 3 4 5 6 
#
# 1 127.4866 35.9828 38.2949 0.0000 0.0000 0.0000
# 2 35.9828 84.5445 38.5536 -0.0001 0.0000 0.0000
# 3 38.2949 38.5536 76.0175 -0.0003 0.0002 0.0001
# 4 0.0000 -0.0001 -0.0003 26.8502 0.0001 0.0000
# 5 0.0000 0.0000 0.0002 0.0001 33.2981 0.0000
# 6 0.0000 0.0000 0.0001 0.0000 0.0000 37.8488
#
#
#
# Elastic Compliance Matrix: (Units=1/GPa)
#
#
# Indices 1 2 3 4 5 6 
#
# 1 0.009618 -0.002451 -0.003602 0.000000 0.000000 0.000000
# 2 -0.002451 0.016011 -0.006886 0.000000 0.000000 0.000000
# 3 -0.003602 -0.006886 0.018462 0.000000 0.000000 0.000000
# 4 0.000000 0.000000 0.000000 0.037244 0.000000 0.000000
# 5 0.000000 0.000000 0.000000 0.000000 0.030032 0.000000
# 6 0.000000 0.000000 0.000000 0.000000 0.000000 0.026421
#
#
# Mechanical properties :
#
#
# Convention : Reuss Voigt Hill
#
# Bulk Modulus (GPa) = 54.90476 57.07903 55.99190
# Shear Modulus (GPa) = 29.45764 31.28057 30.36911
#
# Velocity S-wave (km/s) = 3.82542 3.94201 3.88415
# Velocity P-wave (km/s) = 6.84011 7.00534 6.92322
#
# Compressibility (1/GPa) = 0.01821336
#
# Stress axis : x y z
#
# Youngs Moduli (GPa) = 103.97505 62.45651 54.16618
#
# Poissons Ratio (x) = 0.15306 0.19511
# Poissons Ratio (y) = 0.25482 0.37297
# Poissons Ratio (z) = 0.37453 0.43006
#
# Static dielectric constant tensor:
#      x y z
#    x 3.741460 0.000000 0.000000 
#    y 0.000000 3.560470 0.000000 
#    z 0.000000 0.000000 3.755330 
# 
# 
# High freq. dielectric constant tensor:
#      x y z
#    x 1.791310 0.000000 0.000000 
#    y 0.000000 1.782470 0.000000 
#    z 0.000000 0.000000 1.796360 
# 
# From -- ./inp_files/7691.got.cif
#   From: 2010.06.25/outbox.cif.g09.slc.cpg/sg43_4_cif.got.tgz:7691.got - 2010.06.26 16:48:59.
