data_PCOD8187311
_publ_section_title
;
Structure prediction by ZEFSAII (Michael W. Deem and Ramdas Pophale) SiO2 
 PCOD8187311
Probable space group: F D D 2
;
_chemical_formula_sum "Si O2"
_cell_formula_units_Z 96
_cell_length_a 8.982123
_cell_length_b 18.635895
_cell_length_c 24.979761
_cell_angle_alpha 90.000000
_cell_angle_beta 90.000000
_cell_angle_gamma 90.000000
_cell_volume 4181.359723
_symmetry_space_group_name_H-M "F D D 2"
_symmetry_group_IT_number 43
_symmetry_cell_setting 'orthorhombic'
loop_
_space_group_symop_operation_xyz
x,y,z
-x,-y,z
1/4-x,1/4+y,1/4+z
1/4+x,1/4-y,1/4+z
x,1/2+y,1/2+z
-x,1/2-y,1/2+z
1/4-x,3/4+y,3/4+z
1/4+x,3/4-y,3/4+z
1/2+x,y,1/2+z
1/2-x,-y,1/2+z
3/4-x,1/4+y,3/4+z
3/4+x,1/4-y,3/4+z
1/2+x,1/2+y,z
1/2-x,1/2-y,z
3/4-x,3/4+y,1/4+z
3/4+x,3/4-y,1/4+z
loop_
_atom_site_type_symbol
_atom_site_label
_atom_site_fract_x
_atom_site_fract_y
_atom_site_fract_z
Si Si1 0.659788 0.180019 0.732060
Si Si2 0.000000 0.500000 0.868939
Si Si3 0.253021 0.377936 0.124023
Si Si4 0.227443 0.440725 0.302163
Si Si5 0.831809 0.482178 0.058136
Si Si6 0.324092 0.126519 0.893935
Si Si7 0.000000 0.000000 0.725716
O O1 0.750000 0.250000 0.714262
O O2 0.663441 0.122679 0.682527
O O3 0.731490 0.138844 0.781922
O O4 0.500793 0.210492 0.752911
O O5 0.868881 0.477062 0.829025
O O6 0.933672 0.560688 0.908830
O O7 0.342687 0.318778 0.092454
O O8 0.248309 0.455057 0.093526
O O9 0.085913 0.346402 0.125777
O O10 0.155760 0.490288 0.256277
O O11 0.835577 0.413858 0.096502
O O12 0.000000 0.500000 0.041638
O O13 0.285680 0.179575 0.941854
#
# Coordination Sequence:
#
# PCOD8187311 Si02
#       7
#    16   8  16  16  16  16   8
#     4  12  24  44  75 109 141 193 247 298 373 443
#     4  12  28  46  68 113 152 183 242 328 360 426
#     4  11  24  46  74 105 146 194 248 302 369 452
#     4  12  26  48  72 105 150 190 244 307 366 446
#     4  10  21  46  77 102 146 194 244 310 367 446
#     4  11  22  46  76 107 146 189 248 302 372 450
#     4  12  24  48  80 103 140 211 244 294 388 456
#
# _framework density 22.959038
#
# number of rings (size 3 to 8) (size 9 to 14) (size 15 to 20)
#    0.000    0.667    7.500    1.000    3.500    0.000 
#    4.500    0.000    0.000    0.000    0.000    0.000 
#    0.000    0.000    0.000    0.000    0.000    0.000 
#
# Total GULP energy -297367.798418 kJ/mol
# GULP energy per Si atom -12390.324934 kJ/mol
# Density = 2.290678 g / cm^3
# Si number density = 22.959038 Si / 1000 Ang^3
#
#
#
# Elastic Constant Matrix: (Units=GPa)
#
#
# Indices 1 2 3 4 5 6 
#
# 1 153.1547 79.4033 67.1246 0.0000 0.0000 0.0000
# 2 79.4033 115.1396 42.9842 0.0000 0.0000 0.0000
# 3 67.1246 42.9842 96.9794 0.0000 0.0000 0.0000
# 4 0.0000 0.0000 0.0000 6.0439 0.0000 0.0000
# 5 0.0000 0.0000 0.0000 0.0000 49.2172 0.0000
# 6 0.0000 0.0000 0.0000 0.0000 0.0000 51.6428
#
#
#
# Elastic Compliance Matrix: (Units=1/GPa)
#
#
# Indices 1 2 3 4 5 6 
#
# 1 0.012340 -0.006376 -0.005715 0.000000 0.000000 0.000000
# 2 -0.006376 0.013702 -0.001660 0.000000 0.000000 0.000000
# 3 -0.005715 -0.001660 0.015003 0.000000 0.000000 0.000000
# 4 0.000000 0.000000 0.000000 0.165457 0.000000 0.000000
# 5 0.000000 0.000000 0.000000 0.000000 0.020318 0.000000
# 6 0.000000 0.000000 0.000000 0.000000 0.000000 0.019364
#
#
# Mechanical properties :
#
#
# Convention : Reuss Voigt Hill
#
# Bulk Modulus (GPa) = 73.84096 82.69977 78.27036
# Shear Modulus (GPa) = 17.97271 33.09822 25.53547
#
# Velocity S-wave (km/s) = 2.80092 3.80099 3.33861
# Velocity P-wave (km/s) = 6.53392 7.44057 7.00193
#
# Compressibility (1/GPa) = 0.01354262
#
# Stress axis : x y z
#
# Youngs Moduli (GPa) = 81.03752 72.98162 66.65476
#
# Poissons Ratio (x) = 0.46536 0.38093
# Poissons Ratio (y) = 0.51673 0.11063
# Poissons Ratio (z) = 0.46312 0.12113
#
# Static dielectric constant tensor:
#      x y z
#    x 4.460340 0.000000 0.000000 
#    y 0.000000 4.207510 0.000000 
#    z 0.000000 0.000000 4.145330 
# 
# 
# High freq. dielectric constant tensor:
#      x y z
#    x 1.912860 0.000000 0.000000 
#    y 0.000000 1.914690 0.000000 
#    z 0.000000 0.000000 1.901560 
# 
# From -- ./inp_files/24245.got.cif
#   From: 2010.06.25/outbox.cif.g09.slc.cpg/sg43_13_cif.got.tgz:24245.got - 2010.06.26 16:48:59.
