data_PCOD8187973
_publ_section_title
;
Structure prediction by ZEFSAII (Michael W. Deem and Ramdas Pophale) SiO2 
 PCOD8187973
Probable space group: I M M 2
;
_chemical_formula_sum "Si O2"
_cell_formula_units_Z 64
_cell_length_a 8.979822
_cell_length_b 30.962749
_cell_length_c 12.068920
_cell_angle_alpha 90.000000
_cell_angle_beta 90.000000
_cell_angle_gamma 90.000000
_cell_volume 3355.642211
_symmetry_space_group_name_H-M "I M M 2"
_symmetry_group_IT_number 44
_symmetry_cell_setting 'orthorhombic'
loop_
_space_group_symop_operation_xyz
x,y,z
-x,-y,z
-x,y,z
x,-y,z
1/2+x,1/2+y,1/2+z
1/2-x,1/2-y,1/2+z
1/2-x,1/2+y,1/2+z
1/2+x,1/2-y,1/2+z
loop_
_atom_site_type_symbol
_atom_site_label
_atom_site_fract_x
_atom_site_fract_y
_atom_site_fract_z
Si Si1 0.322868 0.373930 0.544000
Si Si2 0.824432 0.167147 0.662044
Si Si3 0.176360 0.047653 0.896775
Si Si4 0.176676 0.876948 0.295915
Si Si5 0.323052 0.703328 0.390863
Si Si6 0.676955 0.429749 0.151889
Si Si7 0.329322 0.951921 0.432835
Si Si8 0.824675 0.206355 0.434260
O O1 0.500000 0.375758 0.541609
O O2 0.256659 0.415218 0.476871
O O3 0.264397 0.375122 0.669752
O O4 0.268253 0.329337 0.487203
O O5 0.757184 0.185788 0.775176
O O6 0.766393 0.119216 0.640506
O O7 0.776256 0.196804 0.559914
O O8 0.000000 0.164822 0.674539
O O9 0.232242 0.052845 0.770712
O O10 0.000000 0.052665 0.896575
O O11 0.224284 0.000000 0.940062
O O12 0.244474 0.918634 0.354289
O O13 0.228016 0.832980 0.356094
O O14 0.000000 0.881770 0.302571
O O15 0.500000 0.706241 0.389903
O O16 0.259319 0.750643 0.402892
O O17 0.500000 0.434821 0.138042
O O18 0.756892 0.455385 0.054314
O O19 0.500000 0.937176 0.443201
O O20 0.317296 0.000000 0.380497
O O21 0.000000 0.213561 0.422622
#
# Coordination Sequence:
#
# PCOD8187973 Si02
#       8
#     8   8   8   8   8   8   8   8
#     4   9  18  33  53  80 113 142 177 228 275 317
#     4   9  17  33  56  78 107 144 178 221 270 319
#     4   9  16  27  50  84 113 137 174 226 276 320
#     4  10  21  38  59  80 107 145 186 228 270 318
#     4  10  20  35  56  80 108 144 181 219 273 330
#     4  10  17  33  59  84 109 142 182 221 269 326
#     4  11  24  39  55  80 114 146 178 224 276 323
#     4  10  21  36  53  78 111 142 181 230 270 310
#
# _framework density 19.072355999999999
#
# number of rings (size 3 to 8) (size 9 to 14) (size 15 to 20)
#    0.000    2.250    2.500    0.750    1.750    2.500 
#    0.000    2.500    0.000    0.750    0.000    1.750 
#    0.000    0.000    0.000    0.000    0.000    0.000 
#
# Total GULP energy -396726.678156 kJ/mol
# GULP energy per Si atom -12397.708692 kJ/mol
# Density = 1.902895 g / cm^3
# Si number density = 19.072356 Si / 1000 Ang^3
#
#
#
# Elastic Constant Matrix: (Units=GPa)
#
#
# Indices 1 2 3 4 5 6 
#
# 1 27.7155 29.1531 27.5644 -0.0002 0.0001 0.0002
# 2 29.1531 147.0629 64.6844 -0.0009 0.0003 0.0003
# 3 27.5644 64.6844 147.9557 0.0005 0.0005 0.0005
# 4 -0.0002 -0.0009 0.0005 28.5073 0.0003 0.0004
# 5 0.0001 0.0003 0.0005 0.0003 10.0362 -0.0001
# 6 0.0002 0.0003 0.0005 0.0004 -0.0001 21.9056
#
#
#
# Elastic Compliance Matrix: (Units=1/GPa)
#
#
# Indices 1 2 3 4 5 6 
#
# 1 0.049707 -0.007157 -0.006132 0.000000 0.000000 0.000000
# 2 -0.007157 0.009449 -0.002798 0.000000 0.000000 0.000000
# 3 -0.006132 -0.002798 0.009124 0.000000 0.000000 0.000000
# 4 0.000000 0.000000 0.000000 0.035079 -0.000001 -0.000001
# 5 0.000000 0.000000 0.000000 -0.000001 0.099639 0.000000
# 6 0.000000 0.000000 0.000000 -0.000001 0.000000 0.045651
#
#
# Mechanical properties :
#
#
# Convention : Reuss Voigt Hill
#
# Bulk Modulus (GPa) = 27.69455 62.83753 45.26604
# Shear Modulus (GPa) = 17.07318 25.51198 21.29258
#
# Velocity S-wave (km/s) = 2.99520 3.66135 3.34490
# Velocity P-wave (km/s) = 5.14917 7.13389 6.22119
#
# Compressibility (1/GPa) = 0.03610819
#
# Stress axis : x y z
#
# Youngs Moduli (GPa) = 20.11784 105.83042 109.59813
#
# Poissons Ratio (x) = 0.75740 0.67202
# Poissons Ratio (y) = 0.14398 0.30662
# Poissons Ratio (z) = 0.12336 0.29608
#
# Static dielectric constant tensor:
#      x y z
#    x 2.996200 0.000000 0.000000 
#    y 0.000000 3.622450 0.000000 
#    z 0.000000 0.000000 3.810880 
# 
# 
# High freq. dielectric constant tensor:
#      x y z
#    x 1.688960 0.000000 0.000000 
#    y 0.000000 1.758670 0.000000 
#    z 0.000000 0.000000 1.750460 
# 
# From -- ./inp_files/11477.got.cif
#   From: 2010.03.12/outbox.cif.g09.slc.cpg/sg44_6_cif.got.tgz:11477.got - 2010.04.14 02:36:11.
