data_PCOD8187907
_publ_section_title
;
Structure prediction by ZEFSAII (Michael W. Deem and Ramdas Pophale) SiO2 
 PCOD8187907
Probable space group: I M M 2
;
_chemical_formula_sum "Si O2"
_cell_formula_units_Z 64
_cell_length_a 9.146728
_cell_length_b 27.681817
_cell_length_c 14.718222
_cell_angle_alpha 90.000000
_cell_angle_beta 90.000000
_cell_angle_gamma 90.000000
_cell_volume 3726.625119
_symmetry_space_group_name_H-M "I M M 2"
_symmetry_group_IT_number 44
_symmetry_cell_setting 'orthorhombic'
loop_
_space_group_symop_operation_xyz
x,y,z
-x,-y,z
-x,y,z
x,-y,z
1/2+x,1/2+y,1/2+z
1/2-x,1/2-y,1/2+z
1/2-x,1/2+y,1/2+z
1/2+x,1/2-y,1/2+z
loop_
_atom_site_type_symbol
_atom_site_label
_atom_site_fract_x
_atom_site_fract_y
_atom_site_fract_z
Si Si1 0.326136 0.553336 0.572290
Si Si2 0.827151 0.824665 0.762363
Si Si3 0.327570 0.218095 0.264616
Si Si4 0.667816 0.218256 0.059765
Si Si5 0.330344 0.331091 0.061991
Si Si6 0.172578 0.139329 0.950371
Si Si7 0.332647 0.556440 0.777186
Si Si8 0.826175 0.366604 0.891763
O O1 0.500000 0.551852 0.567529
O O2 0.264769 0.500000 0.547114
O O3 0.261150 0.592260 0.500842
O O4 0.278830 0.567589 0.674365
O O5 0.761510 0.771387 0.784952
O O6 0.773265 0.843809 0.664213
O O7 0.784414 0.861677 0.843191
O O8 0.000000 0.817840 0.753750
O O9 0.500000 0.219237 0.277183
O O10 0.287259 0.203327 0.161860
O O11 0.262108 0.178486 0.333435
O O12 0.500000 0.204986 0.041055
O O13 0.696196 0.274659 0.043264
O O14 0.768209 0.188719 0.991660
O O15 0.500000 0.344682 0.049709
O O16 0.235061 0.362959 0.993590
O O17 0.000000 0.140295 0.962567
O O18 0.500000 0.573313 0.789933
O O19 0.317490 0.500000 0.797996
O O20 0.229397 0.584107 0.847107
O O21 0.000000 0.367474 0.894680
#
# Coordination Sequence:
#
# PCOD8187907 Si02
#       8
#     8   8   8   8   8   8   8   8
#     4   8  15  28  46  70  97 120 145 183 230 275
#     4   8  15  28  44  62  87 121 156 186 219 262
#     4   8  15  27  41  61  92 123 147 177 224 276
#     4   9  17  29  44  63  90 123 153 182 221 272
#     4   9  18  32  46  60  87 127 160 183 217 270
#     4  10  17  26  46  70  89 115 152 193 233 269
#     4   9  18  33  50  67  92 124 151 178 221 279
#     4  11  20  29  47  72  94 117 150 194 235 268
#
# _framework density 17.173715000000001
#
# number of rings (size 3 to 8) (size 9 to 14) (size 15 to 20)
#    0.000    3.000    0.000    4.125    0.000    1.750 
#    0.000    1.250    0.000    4.125    0.000    3.500 
#    0.000    0.000    0.000    0.000    0.000    0.000 
#
# Total GULP energy -396636.834518 kJ/mol
# GULP energy per Si atom -12394.901079 kJ/mol
# Density = 1.713463 g / cm^3
# Si number density = 17.173715 Si / 1000 Ang^3
#
#
#
# Elastic Constant Matrix: (Units=GPa)
#
#
# Indices 1 2 3 4 5 6 
#
# 1 35.5796 28.8092 37.8517 -0.0001 0.0000 0.0000
# 2 28.8092 75.6924 68.9335 0.0000 0.0000 0.0000
# 3 37.8517 68.9335 138.5523 -0.0002 -0.0002 -0.0001
# 4 -0.0001 0.0000 -0.0002 27.7351 0.0000 0.0000
# 5 0.0000 0.0000 -0.0002 0.0000 16.8480 0.0000
# 6 0.0000 0.0000 -0.0001 0.0000 0.0000 20.3605
#
#
#
# Elastic Compliance Matrix: (Units=1/GPa)
#
#
# Indices 1 2 3 4 5 6 
#
# 1 0.043794 -0.010555 -0.006713 0.000000 0.000000 0.000000
# 2 -0.010555 0.026701 -0.010401 0.000000 0.000000 0.000000
# 3 -0.006713 -0.010401 0.014226 0.000000 0.000000 0.000000
# 4 0.000000 0.000000 0.000000 0.036055 0.000000 0.000000
# 5 0.000000 0.000000 0.000000 0.000000 0.059354 0.000000
# 6 0.000000 0.000000 0.000000 0.000000 0.000000 0.049115
#
#
# Mechanical properties :
#
#
# Convention : Reuss Voigt Hill
#
# Bulk Modulus (GPa) = 34.03254 57.89033 45.96144
# Shear Modulus (GPa) = 16.98503 20.60405 18.79454
#
# Velocity S-wave (km/s) = 3.14827 3.46749 3.31173
# Velocity P-wave (km/s) = 5.75110 7.05784 6.43771
#
# Compressibility (1/GPa) = 0.02938364
#
# Stress axis : x y z
#
# Youngs Moduli (GPa) = 22.83414 37.45228 70.29337
#
# Poissons Ratio (x) = 0.39530 0.47188
# Poissons Ratio (y) = 0.24101 0.73110
# Poissons Ratio (z) = 0.15328 0.38953
#
# Static dielectric constant tensor:
#      x y z
#    x 2.801960 0.000000 0.000000 
#    y 0.000000 3.222030 0.000000 
#    z 0.000000 0.000000 3.414380 
# 
# 
# High freq. dielectric constant tensor:
#      x y z
#    x 1.624880 0.000000 0.000000 
#    y 0.000000 1.643840 0.000000 
#    z 0.000000 0.000000 1.668680 
# 
# From -- ./inp_files/17133.got.cif
#   From: 2010.03.12/outbox.cif.g09.slc.cpg/sg44_9_cif.got.tgz:17133.got - 2010.04.14 02:36:11.
