data_PCOD8187781
_publ_section_title
;
Structure prediction by ZEFSAII (Michael W. Deem and Ramdas Pophale) SiO2 
 PCOD8187781
Probable space group: F D D 2
;
_chemical_formula_sum "Si O2"
_cell_formula_units_Z 56
_cell_length_a 9.989602
_cell_length_b 16.695794
_cell_length_c 13.125318
_cell_angle_alpha 90.000000
_cell_angle_beta 90.000000
_cell_angle_gamma 90.000000
_cell_volume 2189.097462
_symmetry_space_group_name_H-M "F D D 2"
_symmetry_group_IT_number 43
_symmetry_cell_setting 'orthorhombic'
loop_
_space_group_symop_operation_xyz
x,y,z
-x,-y,z
1/4-x,1/4+y,1/4+z
1/4+x,1/4-y,1/4+z
x,1/2+y,1/2+z
-x,1/2-y,1/2+z
1/4-x,3/4+y,3/4+z
1/4+x,3/4-y,3/4+z
1/2+x,y,1/2+z
1/2-x,-y,1/2+z
3/4-x,1/4+y,3/4+z
3/4+x,1/4-y,3/4+z
1/2+x,1/2+y,z
1/2-x,1/2-y,z
3/4-x,3/4+y,1/4+z
3/4+x,3/4-y,1/4+z
loop_
_atom_site_type_symbol
_atom_site_label
_atom_site_fract_x
_atom_site_fract_y
_atom_site_fract_z
Si Si1 0.750000 0.750000 0.512720
Si Si2 0.602472 0.278653 0.743216
Si Si3 0.796608 0.102556 0.127848
Si Si4 0.683310 0.327937 0.524910
O O1 0.838837 0.689800 0.583756
O O2 0.845493 0.806694 0.446639
O O3 0.750000 0.250000 0.778678
O O4 0.510153 0.204383 0.779923
O O5 0.601281 0.298750 0.623891
O O6 0.549675 0.357739 0.803394
O O7 0.663516 0.118284 0.193314
O O8 0.750000 0.250000 0.473936
#
# Coordination Sequence:
#
# PCOD8187781 Si02
#       4
#     8  16  16  16
#     4  12  32  50  86 112 174 216 284 346 426 498
#     4  11  26  48  81 115 166 218 283 345 425 497
#     4  12  29  51  80 120 167 213 283 345 426 496
#     4  11  26  47  81 117 166 216 280 347 428 500
#
# _framework density 25.581319000000001
#
# number of rings (size 3 to 8) (size 9 to 14) (size 15 to 20)
#    0.000    0.571    1.429    3.429   20.000    0.000 
#    2.571    0.000    0.000    0.000    0.000    0.000 
#    0.000    0.000    0.000    0.000    0.000    0.000 
#
# Total GULP energy -173471.583790 kJ/mol
# GULP energy per Si atom -12390.827414 kJ/mol
# Density = 2.552309 g / cm^3
# Si number density = 25.581319 Si / 1000 Ang^3
#
#
#
# Elastic Constant Matrix: (Units=GPa)
#
#
# Indices 1 2 3 4 5 6 
#
# 1 88.8439 63.3500 51.8435 0.0000 0.0000 0.0000
# 2 63.3500 230.7057 72.2241 0.0000 0.0000 0.0000
# 3 51.8435 72.2241 140.2965 0.0000 0.0000 0.0000
# 4 0.0000 0.0000 0.0000 36.8592 0.0000 0.0000
# 5 0.0000 0.0000 0.0000 0.0000 30.8476 0.0000
# 6 0.0000 0.0000 0.0000 0.0000 0.0000 50.1459
#
#
#
# Elastic Compliance Matrix: (Units=1/GPa)
#
#
# Indices 1 2 3 4 5 6 
#
# 1 0.015938 -0.003019 -0.004335 0.000000 0.000000 0.000000
# 2 -0.003019 0.005739 -0.001839 0.000000 0.000000 0.000000
# 3 -0.004335 -0.001839 0.009676 0.000000 0.000000 0.000000
# 4 0.000000 0.000000 0.000000 0.027130 0.000000 0.000000
# 5 0.000000 0.000000 0.000000 0.000000 0.032417 0.000000
# 6 0.000000 0.000000 0.000000 0.000000 0.000000 0.019942
#
#
# Mechanical properties :
#
#
# Convention : Reuss Voigt Hill
#
# Bulk Modulus (GPa) = 77.11834 92.74238 84.93036
# Shear Modulus (GPa) = 37.43829 41.73245 39.58537
#
# Velocity S-wave (km/s) = 3.82972 4.04340 3.93801
# Velocity P-wave (km/s) = 7.05461 7.62439 7.34503
#
# Compressibility (1/GPa) = 0.01296708
#
# Stress axis : x y z
#
# Youngs Moduli (GPa) = 62.74121 174.23800 103.34405
#
# Poissons Ratio (x) = 0.52609 0.44803
# Poissons Ratio (y) = 0.18944 0.19003
# Poissons Ratio (z) = 0.27201 0.32039
#
# Static dielectric constant tensor:
#      x y z
#    x 4.456700 0.000000 0.000000 
#    y 0.000000 5.136710 0.000000 
#    z 0.000000 0.000000 4.816930 
# 
# 
# High freq. dielectric constant tensor:
#      x y z
#    x 2.002300 0.000000 0.000000 
#    y 0.000000 2.043610 0.000000 
#    z 0.000000 0.000000 2.031740 
# 
# From -- ./inp_files/9320.got.cif
#   From: 2010.06.25/outbox.cif.g09.slc.cpg/sg43_5_cif.got.tgz:9320.got - 2010.06.26 16:48:59.
