data_PCOD8187962
_publ_section_title
;
Structure prediction by ZEFSAII (Michael W. Deem and Ramdas Pophale) SiO2 
 PCOD8187962
Probable space group: I M M 2
;
_chemical_formula_sum "Si O2"
_cell_formula_units_Z 64
_cell_length_a 9.138517
_cell_length_b 31.001197
_cell_length_c 12.011583
_cell_angle_alpha 90.000000
_cell_angle_beta 90.000000
_cell_angle_gamma 90.000000
_cell_volume 3402.941111
_symmetry_space_group_name_H-M "I M M 2"
_symmetry_group_IT_number 44
_symmetry_cell_setting 'orthorhombic'
loop_
_space_group_symop_operation_xyz
x,y,z
-x,-y,z
-x,y,z
x,-y,z
1/2+x,1/2+y,1/2+z
1/2-x,1/2-y,1/2+z
1/2-x,1/2+y,1/2+z
1/2+x,1/2-y,1/2+z
loop_
_atom_site_type_symbol
_atom_site_label
_atom_site_fract_x
_atom_site_fract_y
_atom_site_fract_z
Si Si1 0.169771 0.046351 0.354240
Si Si2 0.825925 0.127520 0.972997
Si Si3 0.829412 0.206333 0.379134
Si Si4 0.831178 0.081690 0.588812
Si Si5 0.327530 0.830926 0.580162
Si Si6 0.325818 0.371613 0.725931
Si Si7 0.669677 0.196059 0.825237
Si Si8 0.826326 0.047902 0.826251
O O1 0.188864 0.048800 0.487361
O O2 0.242264 0.086436 0.288479
O O3 0.000000 0.046714 0.323096
O O4 0.237744 0.000000 0.316797
O O5 0.762857 0.169767 0.914461
O O6 0.768046 0.083632 0.913499
O O7 0.000000 0.130012 0.966422
O O8 0.768392 0.127865 0.099501
O O9 0.742345 0.202541 0.494086
O O10 0.771397 0.171477 0.288854
O O11 0.796732 0.253476 0.332544
O O12 0.000000 0.198789 0.403463
O O13 0.734012 0.122142 0.555086
O O14 0.772561 0.060122 0.702212
O O15 0.000000 0.096279 0.601749
O O16 0.500000 0.830152 0.564895
O O17 0.279105 0.817805 0.703366
O O18 0.500000 0.372845 0.727950
O O19 0.500000 0.185776 0.846154
O O20 0.000000 0.046701 0.828493
O O21 0.765467 0.000000 0.856801
#
# Coordination Sequence:
#
# PCOD8187962 Si02
#       8
#     8   8   8   8   8   8   8   8
#     4   9  16  27  49  80 108 136 174 221 270 318
#     4  10  20  34  56  81 108 144 183 225 270 319
#     4  10  21  39  58  77 106 144 180 218 270 324
#     4  10  17  31  54  79 108 144 179 218 268 325
#     4  11  22  36  57  84 110 138 175 226 272 313
#     4   9  18  32  52  78 107 138 176 222 268 315
#     4  10  23  39  56  79 110 144 177 221 271 321
#     4   9  17  29  49  81 113 139 178 231 274 312
#
# _framework density 18.807259999999999
#
# number of rings (size 3 to 8) (size 9 to 14) (size 15 to 20)
#    0.000    2.250    2.500    0.750    1.750    3.000 
#    0.000    3.125    0.000    2.625    0.000    0.000 
#    0.000    0.000    0.000    0.000    0.000    0.000 
#
# Total GULP energy -396747.839658 kJ/mol
# GULP energy per Si atom -12398.369989 kJ/mol
# Density = 1.876445 g / cm^3
# Si number density = 18.807260 Si / 1000 Ang^3
#
#
#
# Elastic Constant Matrix: (Units=GPa)
#
#
# Indices 1 2 3 4 5 6 
#
# 1 25.5495 22.8088 24.6877 -0.0004 0.0000 0.0000
# 2 22.8088 136.6393 57.0706 -0.0002 -0.0002 0.0000
# 3 24.6877 57.0706 133.0914 -0.0013 -0.0003 0.0001
# 4 -0.0004 -0.0002 -0.0013 18.8015 -0.0001 0.0001
# 5 0.0000 -0.0002 -0.0003 -0.0001 17.5226 -0.0001
# 6 0.0000 0.0000 0.0001 0.0001 -0.0001 18.5376
#
#
#
# Elastic Compliance Matrix: (Units=1/GPa)
#
#
# Indices 1 2 3 4 5 6 
#
# 1 0.050921 -0.005549 -0.007066 0.000000 0.000000 0.000000
# 2 -0.005549 0.009520 -0.003053 0.000000 0.000000 0.000000
# 3 -0.007066 -0.003053 0.010134 0.000001 0.000000 0.000000
# 4 0.000000 0.000000 0.000001 0.053187 0.000000 0.000000
# 5 0.000000 0.000000 0.000000 0.000000 0.057069 0.000000
# 6 0.000000 0.000000 0.000000 0.000000 0.000000 0.053945
#
#
# Mechanical properties :
#
#
# Convention : Reuss Voigt Hill
#
# Bulk Modulus (GPa) = 25.48504 56.04605 40.76554
# Shear Modulus (GPa) = 17.90890 23.68655 20.79772
#
# Velocity S-wave (km/s) = 3.08918 3.55270 3.32902
# Velocity P-wave (km/s) = 5.12875 6.83329 6.04144
#
# Compressibility (1/GPa) = 0.03923871
#
# Stress axis : x y z
#
# Youngs Moduli (GPa) = 19.63819 105.04296 98.68248
#
# Poissons Ratio (x) = 0.58286 0.69732
# Poissons Ratio (y) = 0.10897 0.30127
# Poissons Ratio (z) = 0.13877 0.32069
#
# Static dielectric constant tensor:
#      x y z
#    x 2.986330 0.000000 0.000000 
#    y 0.000000 3.672840 0.000000 
#    z 0.000000 0.000000 3.642590 
# 
# 
# High freq. dielectric constant tensor:
#      x y z
#    x 1.676870 0.000000 0.000000 
#    y 0.000000 1.745030 0.000000 
#    z 0.000000 0.000000 1.738620 
# 
# From -- ./inp_files/11409.got.cif
#   From: 2010.03.12/outbox.cif.g09.slc.cpg/sg44_6_cif.got.tgz:11409.got - 2010.04.14 02:36:11.
