data_PCOD8187855
_publ_section_title
;
Structure prediction by ZEFSAII (Michael W. Deem and Ramdas Pophale) SiO2 
 PCOD8187855
Probable space group: F D D 2
;
_chemical_formula_sum "Si O2"
_cell_formula_units_Z 56
_cell_length_a 29.893929
_cell_length_b 14.435229
_cell_length_c 4.715726
_cell_angle_alpha 90.000000
_cell_angle_beta 90.000000
_cell_angle_gamma 90.000000
_cell_volume 2034.957014
_symmetry_space_group_name_H-M "F D D 2"
_symmetry_group_IT_number 43
_symmetry_cell_setting 'orthorhombic'
loop_
_space_group_symop_operation_xyz
x,y,z
-x,-y,z
1/4-x,1/4+y,1/4+z
1/4+x,1/4-y,1/4+z
x,1/2+y,1/2+z
-x,1/2-y,1/2+z
1/4-x,3/4+y,3/4+z
1/4+x,3/4-y,3/4+z
1/2+x,y,1/2+z
1/2-x,-y,1/2+z
3/4-x,1/4+y,3/4+z
3/4+x,1/4-y,3/4+z
1/2+x,1/2+y,z
1/2-x,1/2-y,z
3/4-x,3/4+y,1/4+z
3/4+x,3/4-y,1/4+z
loop_
_atom_site_type_symbol
_atom_site_label
_atom_site_fract_x
_atom_site_fract_y
_atom_site_fract_z
Si Si1 0.142723 0.474537 0.586740
Si Si2 0.500000 0.500000 0.890955
Si Si3 0.979871 0.197693 0.072403
Si Si4 0.411693 0.970527 0.050877
O O1 0.178863 0.548179 0.709088
O O2 0.164857 0.374009 0.611665
O O3 0.128053 0.513673 0.281345
O O4 0.099769 0.460826 0.793514
O O5 0.495349 0.590705 0.085919
O O6 0.458770 0.491344 0.680784
O O7 0.015222 0.256213 0.880781
#
# Coordination Sequence:
#
# PCOD8187855 Si02
#       4
#    16   8  16  16
#     4  12  26  51  75 114 158 207 264 326 395 480
#     4  12  28  50  80 116 158 206 260 330 404 466
#     4  12  27  49  79 112 158 200 262 325 389 477
#     4  12  27  48  78 112 157 206 264 327 400 474
#
# _framework density 27.519009
#
# number of rings (size 3 to 8) (size 9 to 14) (size 15 to 20)
#    0.000    0.000    2.857    6.857    4.000    4.571 
#    0.000    0.000    0.000    0.000    0.000    0.000 
#    0.000    0.000    0.000    0.000    0.000    0.000 
#
# Total GULP energy -173521.861951 kJ/mol
# GULP energy per Si atom -12394.418711 kJ/mol
# Density = 2.745637 g / cm^3
# Si number density = 27.519009 Si / 1000 Ang^3
#
#
#
# Elastic Constant Matrix: (Units=GPa)
#
#
# Indices 1 2 3 4 5 6 
#
# 1 78.0719 17.2984 -13.5012 0.0007 0.0010 0.0003
# 2 17.2984 174.0018 28.8290 0.0005 0.0003 0.0001
# 3 -13.5012 28.8290 82.7556 0.0014 0.0002 0.0003
# 4 0.0007 0.0005 0.0014 41.1356 0.0004 0.0002
# 5 0.0010 0.0003 0.0002 0.0004 38.8590 -0.0003
# 6 0.0003 0.0001 0.0003 0.0002 -0.0003 37.8442
#
#
#
# Elastic Compliance Matrix: (Units=1/GPa)
#
#
# Indices 1 2 3 4 5 6 
#
# 1 0.013714 -0.001840 0.002879 0.000000 0.000000 0.000000
# 2 -0.001840 0.006346 -0.002511 0.000000 0.000000 0.000000
# 3 0.002879 -0.002511 0.013428 0.000000 0.000000 0.000000
# 4 0.000000 0.000000 0.000000 0.024310 0.000000 0.000000
# 5 0.000000 0.000000 0.000000 0.000000 0.025734 0.000000
# 6 0.000000 0.000000 0.000000 0.000000 0.000000 0.026424
#
#
# Mechanical properties :
#
#
# Convention : Reuss Voigt Hill
#
# Bulk Modulus (GPa) = 32.74086 44.45352 38.59719
# Shear Modulus (GPa) = 40.62300 43.71462 42.16881
#
# Velocity S-wave (km/s) = 3.84628 3.98995 3.91877
# Velocity P-wave (km/s) = 5.62570 6.11679 5.87638
#
# Compressibility (1/GPa) = 0.03054288
#
# Stress axis : x y z
#
# Youngs Moduli (GPa) = 72.91684 157.57841 74.47055
#
# Poissons Ratio (x) = 0.29000 -0.21436
# Poissons Ratio (y) = 0.13419 0.18699
# Poissons Ratio (z) = -0.20989 0.39567
#
# Static dielectric constant tensor:
#      x y z
#    x 5.340660 0.000000 0.000000 
#    y 0.000000 5.483970 0.000000 
#    z 0.000000 0.000000 5.016970 
# 
# 
# High freq. dielectric constant tensor:
#      x y z
#    x 2.127600 0.000000 0.000000 
#    y 0.000000 2.115300 0.000000 
#    z 0.000000 0.000000 2.114330 
# 
# From -- ./inp_files/312.got.cif
#   From: 2010.06.25/outbox.cif.g09.slc.cpg/sg43_1_cif.got.tgz:312.got - 2010.06.26 16:48:59.
