data_PCOD8187134
_publ_section_title
;
Structure prediction by ZEFSAII (Michael W. Deem and Ramdas Pophale) SiO2 
 PCOD8187134
Probable space group: F D D 2
;
_chemical_formula_sum "Si O2"
_cell_formula_units_Z 96
_cell_length_a 22.161813
_cell_length_b 15.028576
_cell_length_c 12.287265
_cell_angle_alpha 90.000000
_cell_angle_beta 90.000000
_cell_angle_gamma 90.000000
_cell_volume 4092.402514
_symmetry_space_group_name_H-M "F D D 2"
_symmetry_group_IT_number 43
_symmetry_cell_setting 'orthorhombic'
loop_
_space_group_symop_operation_xyz
x,y,z
-x,-y,z
1/4-x,1/4+y,1/4+z
1/4+x,1/4-y,1/4+z
x,1/2+y,1/2+z
-x,1/2-y,1/2+z
1/4-x,3/4+y,3/4+z
1/4+x,3/4-y,3/4+z
1/2+x,y,1/2+z
1/2-x,-y,1/2+z
3/4-x,1/4+y,3/4+z
3/4+x,1/4-y,3/4+z
1/2+x,1/2+y,z
1/2-x,1/2-y,z
3/4-x,3/4+y,1/4+z
3/4+x,3/4-y,1/4+z
loop_
_atom_site_type_symbol
_atom_site_label
_atom_site_fract_x
_atom_site_fract_y
_atom_site_fract_z
Si Si1 0.699016 0.806329 0.532740
Si Si2 0.679181 0.265046 0.341841
Si Si3 0.128080 0.468242 0.517696
Si Si4 0.612151 0.664854 0.029745
Si Si5 0.599224 0.217314 0.131811
Si Si6 0.488341 0.133401 0.577018
O O1 0.750000 0.750000 0.600971
O O2 0.675690 0.901796 0.580604
O O3 0.640061 0.741614 0.524919
O O4 0.726170 0.825305 0.415711
O O5 0.750000 0.250000 0.324003
O O6 0.654777 0.203314 0.437651
O O7 0.642435 0.243346 0.232861
O O8 0.668794 0.365552 0.380800
O O9 0.136544 0.566809 0.564153
O O10 0.139245 0.474563 0.388038
O O11 0.060473 0.430931 0.525150
O O12 0.541405 0.659529 0.990118
O O13 0.539567 0.277971 0.131938
#
# Coordination Sequence:
#
# PCOD8187134 Si02
#       6
#    16  16  16  16  16  16
#     4  10  20  40  69 101 137 172 233 293 358 415
#     4  12  29  46  71 101 153 194 243 287 368 445
#     4  10  22  40  72 104 135 182 235 303 356 424
#     4  11  24  44  67 101 143 185 236 288 366 429
#     4  11  26  47  71 106 140 194 239 302 362 435
#     4  10  22  43  76 103 135 172 244 306 361 414
#
# _framework density 23.458103000000001
#
# number of rings (size 3 to 8) (size 9 to 14) (size 15 to 20)
#    0.000    1.333    0.000    5.000    7.000    8.000 
#    3.000    0.000    0.000    0.000    0.000    0.000 
#    0.000    0.000    0.000    0.000    0.000    0.000 
#
# Total GULP energy -297320.398298 kJ/mol
# GULP energy per Si atom -12388.349929 kJ/mol
# Density = 2.340471 g / cm^3
# Si number density = 23.458103 Si / 1000 Ang^3
#
#
#
# Elastic Constant Matrix: (Units=GPa)
#
#
# Indices 1 2 3 4 5 6 
#
# 1 133.2563 63.2603 43.8659 0.0000 0.0000 0.0000
# 2 63.2603 156.5941 32.0314 0.0000 0.0000 0.0000
# 3 43.8659 32.0314 46.3131 0.0000 0.0000 0.0000
# 4 0.0000 0.0000 0.0000 27.6700 0.0000 0.0000
# 5 0.0000 0.0000 0.0000 0.0000 38.8181 0.0000
# 6 0.0000 0.0000 0.0000 0.0000 0.0000 42.1073
#
#
#
# Elastic Compliance Matrix: (Units=1/GPa)
#
#
# Indices 1 2 3 4 5 6 
#
# 1 0.011955 -0.002928 -0.009299 0.000000 0.000000 0.000000
# 2 -0.002928 0.008155 -0.002867 0.000000 0.000000 0.000000
# 3 -0.009299 -0.002867 0.032383 0.000000 0.000000 0.000000
# 4 0.000000 0.000000 0.000000 0.036140 0.000000 0.000000
# 5 0.000000 0.000000 0.000000 0.000000 0.025761 0.000000
# 6 0.000000 0.000000 0.000000 0.000000 0.000000 0.023749
#
#
# Mechanical properties :
#
#
# Convention : Reuss Voigt Hill
#
# Bulk Modulus (GPa) = 44.83169 68.27540 56.55354
# Shear Modulus (GPa) = 28.44700 34.85281 31.64991
#
# Velocity S-wave (km/s) = 3.48612 3.85872 3.67714
# Velocity P-wave (km/s) = 5.94617 7.00153 6.49532
#
# Compressibility (1/GPa) = 0.02230565
#
# Stress axis : x y z
#
# Youngs Moduli (GPa) = 83.64663 122.62221 30.88075
#
# Poissons Ratio (x) = 0.35898 0.28715
# Poissons Ratio (y) = 0.24488 0.08855
# Poissons Ratio (z) = 0.77780 0.35162
#
# Static dielectric constant tensor:
#      x y z
#    x 5.360420 0.000000 0.000000 
#    y 0.000000 4.474560 0.000000 
#    z 0.000000 0.000000 4.022870 
# 
# 
# High freq. dielectric constant tensor:
#      x y z
#    x 1.950190 0.000000 0.000000 
#    y 0.000000 1.943110 0.000000 
#    z 0.000000 0.000000 1.902780 
# 
# From -- ./inp_files/10911.got.cif
#   From: 2010.06.25/outbox.cif.g09.slc.cpg/sg43_6_cif.got.tgz:10911.got - 2010.06.26 16:48:59.
