data_PCOD8187847
_publ_section_title
;
Structure prediction by ZEFSAII (Michael W. Deem and Ramdas Pophale) SiO2 
 PCOD8187847
Probable space group: F D D 2
;
_chemical_formula_sum "Si O2"
_cell_formula_units_Z 72
_cell_length_a 13.115363
_cell_length_b 16.700816
_cell_length_c 14.720878
_cell_angle_alpha 90.000000
_cell_angle_beta 90.000000
_cell_angle_gamma 90.000000
_cell_volume 3224.420844
_symmetry_space_group_name_H-M "F D D 2"
_symmetry_group_IT_number 43
_symmetry_cell_setting 'orthorhombic'
loop_
_space_group_symop_operation_xyz
x,y,z
-x,-y,z
1/4-x,1/4+y,1/4+z
1/4+x,1/4-y,1/4+z
x,1/2+y,1/2+z
-x,1/2-y,1/2+z
1/4-x,3/4+y,3/4+z
1/4+x,3/4-y,3/4+z
1/2+x,y,1/2+z
1/2-x,-y,1/2+z
3/4-x,1/4+y,3/4+z
3/4+x,1/4-y,3/4+z
1/2+x,1/2+y,z
1/2-x,1/2-y,z
3/4-x,3/4+y,1/4+z
3/4+x,3/4-y,1/4+z
loop_
_atom_site_type_symbol
_atom_site_label
_atom_site_fract_x
_atom_site_fract_y
_atom_site_fract_z
Si Si1 0.812785 0.829999 0.572500
Si Si2 0.822509 0.036687 0.139569
Si Si3 0.462464 0.868748 0.383596
Si Si4 0.494157 0.906260 0.180193
Si Si5 0.500000 0.000000 0.518597
O O1 0.750000 0.750000 0.598107
O O2 0.725070 0.896935 0.572964
O O3 0.872500 0.825297 0.477248
O O4 0.894210 0.857296 0.648555
O O5 0.734937 0.972744 0.164650
O O6 0.903465 0.986048 0.082681
O O7 0.341364 0.884607 0.382384
O O8 0.256516 0.855917 0.537028
O O9 0.518968 0.922375 0.457904
O O10 0.500000 0.000000 0.154069
#
# Coordination Sequence:
#
# PCOD8187847 Si02
#       5
#    16  16  16  16   8
#     4  12  28  48  76 113 157 200 256 317 390 467
#     4  12  27  49  73 110 150 201 254 316 392 459
#     4  12  26  47  75 107 148 197 255 314 384 463
#     4  12  26  48  77 112 147 202 255 321 387 463
#     4  12  26  46  74 100 146 194 254 310 376 466
#
# _framework density 22.329591000000001
#
# number of rings (size 3 to 8) (size 9 to 14) (size 15 to 20)
#    0.000    0.000    6.667    2.667    3.111    1.778 
#    0.000    0.000    0.000    0.000    0.000    0.000 
#    0.000    0.000    0.000    0.000    0.000    0.000 
#
# Total GULP energy -223210.070459 kJ/mol
# GULP energy per Si atom -12400.559470 kJ/mol
# Density = 2.227877 g / cm^3
# Si number density = 22.329591 Si / 1000 Ang^3
#
#
#
# Elastic Constant Matrix: (Units=GPa)
#
#
# Indices 1 2 3 4 5 6 
#
# 1 121.1409 42.2316 33.2406 0.0000 0.0000 0.0000
# 2 42.2316 123.2843 37.6021 0.0000 0.0000 0.0000
# 3 33.2406 37.6021 115.5032 0.0000 0.0000 0.0000
# 4 0.0000 0.0000 0.0000 30.2881 0.0000 0.0000
# 5 0.0000 0.0000 0.0000 0.0000 38.8698 0.0000
# 6 0.0000 0.0000 0.0000 0.0000 0.0000 48.3962
#
#
#
# Elastic Compliance Matrix: (Units=1/GPa)
#
#
# Indices 1 2 3 4 5 6 
#
# 1 0.009738 -0.002755 -0.001906 0.000000 0.000000 0.000000
# 2 -0.002755 0.009785 -0.002393 0.000000 0.000000 0.000000
# 3 -0.001906 -0.002393 0.009985 0.000000 0.000000 0.000000
# 4 0.000000 0.000000 0.000000 0.033016 0.000000 0.000000
# 5 0.000000 0.000000 0.000000 0.000000 0.025727 0.000000
# 6 0.000000 0.000000 0.000000 0.000000 0.000000 0.020663
#
#
# Mechanical properties :
#
#
# Convention : Reuss Voigt Hill
#
# Bulk Modulus (GPa) = 64.92693 65.11966 65.02330
# Shear Modulus (GPa) = 39.01559 39.96775 39.49167
#
# Velocity S-wave (km/s) = 4.18456 4.23531 4.21001
# Velocity P-wave (km/s) = 7.24480 7.28995 7.26741
#
# Compressibility (1/GPa) = 0.01540193
#
# Stress axis : x y z
#
# Youngs Moduli (GPa) = 102.68977 102.20039 100.14858
#
# Poissons Ratio (x) = 0.28152 0.19086
# Poissons Ratio (y) = 0.28287 0.23962
# Poissons Ratio (z) = 0.19570 0.24453
#
# Static dielectric constant tensor:
#      x y z
#    x 4.263130 0.000000 0.000000 
#    y 0.000000 4.097860 0.000000 
#    z 0.000000 0.000000 3.890220 
# 
# 
# High freq. dielectric constant tensor:
#      x y z
#    x 1.900570 0.000000 0.000000 
#    y 0.000000 1.885560 0.000000 
#    z 0.000000 0.000000 1.875790 
# 
# From -- ./inp_files/13729.got.cif
#   From: 2010.06.25/outbox.cif.g09.slc.cpg/sg43_7_cif.got.tgz:13729.got - 2010.06.26 16:48:59.
