data_PCOD8187210
_publ_section_title
;
Structure prediction by ZEFSAII (Michael W. Deem and Ramdas Pophale) SiO2 
 PCOD8187210
Probable space group: F D D 2
;
_chemical_formula_sum "Si O2"
_cell_formula_units_Z 120
_cell_length_a 14.042208
_cell_length_b 23.060599
_cell_length_c 18.484939
_cell_angle_alpha 90.000000
_cell_angle_beta 90.000000
_cell_angle_gamma 90.000000
_cell_volume 5985.824885
_symmetry_space_group_name_H-M "F D D 2"
_symmetry_group_IT_number 43
_symmetry_cell_setting 'orthorhombic'
loop_
_space_group_symop_operation_xyz
x,y,z
-x,-y,z
1/4-x,1/4+y,1/4+z
1/4+x,1/4-y,1/4+z
x,1/2+y,1/2+z
-x,1/2-y,1/2+z
1/4-x,3/4+y,3/4+z
1/4+x,3/4-y,3/4+z
1/2+x,y,1/2+z
1/2-x,-y,1/2+z
3/4-x,1/4+y,3/4+z
3/4+x,1/4-y,3/4+z
1/2+x,1/2+y,z
1/2-x,1/2-y,z
3/4-x,3/4+y,1/4+z
3/4+x,3/4-y,1/4+z
loop_
_atom_site_type_symbol
_atom_site_label
_atom_site_fract_x
_atom_site_fract_y
_atom_site_fract_z
Si Si1 0.642420 0.758213 0.759490
Si Si2 0.101901 0.483115 0.640294
Si Si3 0.404689 0.414550 0.893899
Si Si4 0.000000 0.500000 0.500637
Si Si5 0.627136 0.823174 0.985588
Si Si6 0.080833 0.638345 0.992025
Si Si7 0.200067 0.967365 0.652592
Si Si8 0.061949 0.172793 0.645925
O O1 0.750000 0.750000 0.786826
O O2 0.623751 0.824849 0.739209
O O3 0.571233 0.739930 0.822517
O O4 0.623248 0.719065 0.689675
O O5 0.088047 0.480545 0.552778
O O6 0.131263 0.420542 0.670758
O O7 0.184997 0.528957 0.661388
O O8 0.000000 0.500000 0.676370
O O9 0.472791 0.446562 0.949938
O O10 0.436423 0.426174 0.810749
O O11 0.412568 0.347097 0.914192
O O12 0.298575 0.440711 0.898434
O O13 0.602622 0.757794 0.961719
O O14 0.688328 0.856493 0.925378
O O15 0.533764 0.863889 0.993048
O O16 0.108344 0.672208 0.065895
#
# Coordination Sequence:
#
# PCOD8187210 Si02
#       8
#    16  16  16   8  16  16  16  16
#     4  12  21  36  65  99 125 166 207 261 335 387
#     4   9  23  48  62  86 128 169 226 273 314 391
#     4  11  24  42  63  93 130 172 214 270 329 396
#     4  10  24  48  62  90 128 172 234 268 312 392
#     4  10  21  38  63  95 129 159 212 263 324 396
#     4  10  21  41  60  93 126 165 207 267 325 379
#     4  11  22  41  68  92 130 172 210 269 338 387
#     4  11  21  38  63  96 137 158 214 270 323 402
#
# _framework density 20.047360999999999
#
# number of rings (size 3 to 8) (size 9 to 14) (size 15 to 20)
#    0.400    1.067    4.000    1.600    0.000    1.600 
#   12.000    0.000    0.000    0.000    0.000    0.000 
#    0.000    0.000    0.000    0.000    0.000    0.000 
#
# Total GULP energy -371942.494624 kJ/mol
# GULP energy per Si atom -12398.083154 kJ/mol
# Density = 2.000173 g / cm^3
# Si number density = 20.047361 Si / 1000 Ang^3
#
#
#
# Elastic Constant Matrix: (Units=GPa)
#
#
# Indices 1 2 3 4 5 6 
#
# 1 54.8099 16.4279 8.5441 0.0000 0.0000 0.0000
# 2 16.4279 123.6638 46.0939 0.0000 0.0000 0.0000
# 3 8.5441 46.0939 102.8843 0.0000 0.0000 0.0000
# 4 0.0000 0.0000 0.0000 32.8020 0.0000 0.0000
# 5 0.0000 0.0000 0.0000 0.0000 28.6860 0.0000
# 6 0.0000 0.0000 0.0000 0.0000 0.0000 22.8260
#
#
#
# Elastic Compliance Matrix: (Units=1/GPa)
#
#
# Indices 1 2 3 4 5 6 
#
# 1 0.019026 -0.002327 -0.000537 0.000000 0.000000 0.000000
# 2 -0.002327 0.009992 -0.004283 0.000000 0.000000 0.000000
# 3 -0.000537 -0.004283 0.011683 0.000000 0.000000 0.000000
# 4 0.000000 0.000000 0.000000 0.030486 0.000000 0.000000
# 5 0.000000 0.000000 0.000000 0.000000 0.034860 0.000000
# 6 0.000000 0.000000 0.000000 0.000000 0.000000 0.043810
#
#
# Mechanical properties :
#
#
# Convention : Reuss Voigt Hill
#
# Bulk Modulus (GPa) = 37.87068 47.05443 42.46256
# Shear Modulus (GPa) = 28.90917 30.88226 29.89572
#
# Velocity S-wave (km/s) = 3.80154 3.92913 3.86587
# Velocity P-wave (km/s) = 6.18066 6.64129 6.41511
#
# Compressibility (1/GPa) = 0.02640565
#
# Stress axis : x y z
#
# Youngs Moduli (GPa) = 52.55915 100.07844 85.59208
#
# Poissons Ratio (x) = 0.23290 0.04600
# Poissons Ratio (y) = 0.12231 0.36662
# Poissons Ratio (z) = 0.02825 0.42868
#
# Static dielectric constant tensor:
#      x y z
#    x 3.554810 0.000000 0.000000 
#    y 0.000000 3.502890 0.000000 
#    z 0.000000 0.000000 3.706720 
# 
# 
# High freq. dielectric constant tensor:
#      x y z
#    x 1.772970 0.000000 0.000000 
#    y 0.000000 1.775270 0.000000 
#    z 0.000000 0.000000 1.785780 
# 
# From -- ./inp_files/14884.got.cif
#   From: 2010.06.25/outbox.cif.g09.slc.cpg/sg43_8_cif.got.tgz:14884.got - 2010.06.26 16:48:59.
