data_PCOD8187021
_publ_section_title
;
Structure prediction by ZEFSAII (Michael W. Deem and Ramdas Pophale) SiO2 
 PCOD8187021
Probable space group: F D D 2
;
_chemical_formula_sum "Si O2"
_cell_formula_units_Z 112
_cell_length_a 10.525151
_cell_length_b 31.567225
_cell_length_c 15.161177
_cell_angle_alpha 90.000000
_cell_angle_beta 90.000000
_cell_angle_gamma 90.000000
_cell_volume 5037.298174
_symmetry_space_group_name_H-M "F D D 2"
_symmetry_group_IT_number 43
_symmetry_cell_setting 'orthorhombic'
loop_
_space_group_symop_operation_xyz
x,y,z
-x,-y,z
1/4-x,1/4+y,1/4+z
1/4+x,1/4-y,1/4+z
x,1/2+y,1/2+z
-x,1/2-y,1/2+z
1/4-x,3/4+y,3/4+z
1/4+x,3/4-y,3/4+z
1/2+x,y,1/2+z
1/2-x,-y,1/2+z
3/4-x,1/4+y,3/4+z
3/4+x,1/4-y,3/4+z
1/2+x,1/2+y,z
1/2-x,1/2-y,z
3/4-x,3/4+y,1/4+z
3/4+x,3/4-y,1/4+z
loop_
_atom_site_type_symbol
_atom_site_label
_atom_site_fract_x
_atom_site_fract_y
_atom_site_fract_z
Si Si1 0.966868 0.909038 0.421240
Si Si2 0.030414 0.229478 0.518217
Si Si3 0.073238 0.069223 0.869122
Si Si4 0.466637 0.089780 0.721091
Si Si5 0.929665 0.708377 0.370265
Si Si6 0.250000 0.750000 0.151689
Si Si7 0.250000 0.250000 0.243429
Si Si8 0.272343 0.108635 0.999269
O O1 0.966883 0.910750 0.315656
O O2 0.090437 0.883968 0.455445
O O3 0.836305 0.886795 0.450781
O O4 0.975617 0.957437 0.458954
O O5 0.095591 0.191138 0.465536
O O6 0.002841 0.268326 0.451784
O O7 0.125244 0.244883 0.593131
O O8 0.900111 0.215293 0.562578
O O9 0.989608 0.098658 0.804331
O O10 0.167406 0.100151 0.924268
O O11 0.981793 0.042542 0.934068
O O12 0.568494 0.074140 0.649647
O O13 0.873222 0.744151 0.304809
O O14 0.031689 0.681103 0.316222
#
# Coordination Sequence:
#
# PCOD8187021 Si02
#       8
#    16  16  16  16  16   8   8  16
#     4  11  21  42  62  91 124 167 208 260 318 372
#     4  11  18  41  68  87 123 168 204 263 307 371
#     4  11  24  43  66  87 129 166 206 256 323 377
#     4  11  21  39  65  91 124 165 211 257 308 385
#     4  11  22  42  65  92 127 163 214 263 316 372
#     4  10  19  38  64  87 118 158 216 246 305 366
#     4  10  23  42  62  91 124 162 202 256 317 376
#     4  11  23  41  62  92 129 165 198 267 318 373
#
# _framework density 22.234141000000001
#
# number of rings (size 3 to 8) (size 9 to 14) (size 15 to 20)
#    0.000    1.143    8.571    0.000    0.000    3.429 
#    7.714    0.000    0.000    0.000    0.000    0.000 
#    0.000    0.000    0.000    0.000    0.000    0.000 
#
# Total GULP energy -347155.732527 kJ/mol
# GULP energy per Si atom -12398.419019 kJ/mol
# Density = 2.218354 g / cm^3
# Si number density = 22.234141 Si / 1000 Ang^3
#
#
#
# Elastic Constant Matrix: (Units=GPa)
#
#
# Indices 1 2 3 4 5 6 
#
# 1 50.6437 27.9417 24.9764 0.0000 0.0000 0.0000
# 2 27.9417 110.7145 41.3602 0.0000 0.0000 0.0000
# 3 24.9764 41.3602 70.8926 0.0000 0.0000 0.0000
# 4 0.0000 0.0000 0.0000 63.3973 0.0000 0.0000
# 5 0.0000 0.0000 0.0000 0.0000 9.3632 0.0000
# 6 0.0000 0.0000 0.0000 0.0000 0.0000 43.2103
#
#
#
# Elastic Compliance Matrix: (Units=1/GPa)
#
#
# Indices 1 2 3 4 5 6 
#
# 1 0.025138 -0.003882 -0.006592 0.000000 0.000000 0.000000
# 2 -0.003882 0.012149 -0.005720 0.000000 0.000000 0.000000
# 3 -0.006592 -0.005720 0.019766 0.000000 0.000000 0.000000
# 4 0.000000 0.000000 0.000000 0.015774 0.000000 0.000000
# 5 0.000000 0.000000 0.000000 0.000000 0.106801 0.000000
# 6 0.000000 0.000000 0.000000 0.000000 0.000000 0.023143
#
#
# Mechanical properties :
#
#
# Convention : Reuss Voigt Hill
#
# Bulk Modulus (GPa) = 40.54334 46.75640 43.64987
# Shear Modulus (GPa) = 20.54405 32.39231 26.46818
#
# Velocity S-wave (km/s) = 3.04301 3.82104 3.45400
# Velocity P-wave (km/s) = 5.53361 6.36725 5.96501
#
# Compressibility (1/GPa) = 0.02466497
#
# Stress axis : x y z
#
# Youngs Moduli (GPa) = 39.77964 82.31211 50.59287
#
# Poissons Ratio (x) = 0.31952 0.33350
# Poissons Ratio (y) = 0.15442 0.28941
# Poissons Ratio (z) = 0.26222 0.47085
#
# Static dielectric constant tensor:
#      x y z
#    x 3.481240 0.000000 0.000000 
#    y 0.000000 3.892990 0.000000 
#    z 0.000000 0.000000 4.076050 
# 
# 
# High freq. dielectric constant tensor:
#      x y z
#    x 1.837630 0.000000 0.000000 
#    y 0.000000 1.883520 0.000000 
#    z 0.000000 0.000000 1.875410 
# 
# From -- ./inp_files/9806.got.cif
#   From: 2010.06.25/outbox.cif.g09.slc.cpg/sg43_5_cif.got.tgz:9806.got - 2010.06.26 16:48:59.
