data_PCOD8187655
_publ_section_title
;
Structure prediction by ZEFSAII (Michael W. Deem and Ramdas Pophale) SiO2 
 PCOD8187655
Probable space group: F D D 2
;
_chemical_formula_sum "Si O2"
_cell_formula_units_Z 96
_cell_length_a 13.176459
_cell_length_b 13.627895
_cell_length_c 24.994962
_cell_angle_alpha 90.000000
_cell_angle_beta 90.000000
_cell_angle_gamma 90.000000
_cell_volume 4488.280333
_symmetry_space_group_name_H-M "F D D 2"
_symmetry_group_IT_number 43
_symmetry_cell_setting 'orthorhombic'
loop_
_space_group_symop_operation_xyz
x,y,z
-x,-y,z
1/4-x,1/4+y,1/4+z
1/4+x,1/4-y,1/4+z
x,1/2+y,1/2+z
-x,1/2-y,1/2+z
1/4-x,3/4+y,3/4+z
1/4+x,3/4-y,3/4+z
1/2+x,y,1/2+z
1/2-x,-y,1/2+z
3/4-x,1/4+y,3/4+z
3/4+x,1/4-y,3/4+z
1/2+x,1/2+y,z
1/2-x,1/2-y,z
3/4-x,3/4+y,1/4+z
3/4+x,3/4-y,1/4+z
loop_
_atom_site_type_symbol
_atom_site_label
_atom_site_fract_x
_atom_site_fract_y
_atom_site_fract_z
Si Si1 0.409278 0.918304 0.538360
Si Si2 0.251250 0.469057 0.600662
Si Si3 0.648324 0.679562 0.925662
Si Si4 0.973546 0.233664 0.600858
Si Si5 0.349774 0.687267 0.162681
Si Si6 0.427657 0.406588 0.528383
O O1 0.301871 0.960472 0.557983
O O2 0.382198 0.865555 0.482687
O O3 0.431048 0.840003 0.585576
O O4 0.500000 0.000000 0.532340
O O5 0.300246 0.511231 0.655136
O O6 0.161589 0.396685 0.618592
O O7 0.338808 0.410597 0.571089
O O8 0.750000 0.750000 0.928158
O O9 0.651043 0.593120 0.881011
O O10 0.060527 0.242452 0.645325
O O11 0.008076 0.189209 0.543939
O O12 0.250000 0.750000 0.169195
O O13 0.372820 0.641245 0.220687
O O14 0.500000 0.500000 0.533364
#
# Coordination Sequence:
#
# PCOD8187655 Si02
#       6
#    16  16  16  16  16  16
#     4  12  30  46  67 108 150 188 231 288 371 428
#     4  12  23  46  68 101 142 175 232 292 347 424
#     4  12  26  48  77 107 133 187 252 292 349 424
#     4  12  23  46  68 101 142 175 232 292 347 424
#     4  11  22  39  70  97 130 178 224 287 350 409
#     4  11  22  43  70 100 129 175 237 291 340 407
#
# _framework density 21.389037999999999
#
# number of rings (size 3 to 8) (size 9 to 14) (size 15 to 20)
#    0.000    0.333    6.667    2.000    4.667    2.667 
#    0.000    1.667    0.000    0.000    0.000    0.000 
#    0.000    0.000    0.000    0.000    0.000    0.000 
#
# Total GULP energy -297451.598566 kJ/mol
# GULP energy per Si atom -12393.816607 kJ/mol
# Density = 2.134036 g / cm^3
# Si number density = 21.389038 Si / 1000 Ang^3
#
#
#
# Elastic Constant Matrix: (Units=GPa)
#
#
# Indices 1 2 3 4 5 6 
#
# 1 59.6483 16.2499 14.6679 0.0000 0.0000 0.0000
# 2 16.2499 77.4865 23.7272 0.0000 0.0000 0.0000
# 3 14.6679 23.7272 119.4704 0.0000 0.0000 0.0000
# 4 0.0000 0.0000 0.0000 52.0515 0.0000 0.0000
# 5 0.0000 0.0000 0.0000 0.0000 19.5580 0.0000
# 6 0.0000 0.0000 0.0000 0.0000 0.0000 19.3248
#
#
#
# Elastic Compliance Matrix: (Units=1/GPa)
#
#
# Indices 1 2 3 4 5 6 
#
# 1 0.018049 -0.003308 -0.001559 0.000000 0.000000 0.000000
# 2 -0.003308 0.014347 -0.002443 0.000000 0.000000 0.000000
# 3 -0.001559 -0.002443 0.009047 0.000000 0.000000 0.000000
# 4 0.000000 0.000000 0.000000 0.019212 0.000000 0.000000
# 5 0.000000 0.000000 0.000000 0.000000 0.051130 0.000000
# 6 0.000000 0.000000 0.000000 0.000000 0.000000 0.051747
#
#
# Mechanical properties :
#
#
# Convention : Reuss Voigt Hill
#
# Bulk Modulus (GPa) = 37.28094 40.65504 38.96799
# Shear Modulus (GPa) = 26.72454 31.65087 29.18770
#
# Velocity S-wave (km/s) = 3.53859 3.85095 3.69807
# Velocity P-wave (km/s) = 5.84494 6.23071 6.04090
#
# Compressibility (1/GPa) = 0.02682336
#
# Stress axis : x y z
#
# Youngs Moduli (GPa) = 55.40330 69.69933 110.53468
#
# Poissons Ratio (x) = 0.23055 0.17233
# Poissons Ratio (y) = 0.18326 0.27007
# Poissons Ratio (z) = 0.08638 0.17030
#
# Static dielectric constant tensor:
#      x y z
#    x 3.826120 0.000000 0.000000 
#    y 0.000000 3.935020 0.000000 
#    z 0.000000 0.000000 4.055670 
# 
# 
# High freq. dielectric constant tensor:
#      x y z
#    x 1.833850 0.000000 0.000000 
#    y 0.000000 1.845860 0.000000 
#    z 0.000000 0.000000 1.855890 
# 
# From -- ./inp_files/17575.got.cif
#   From: 2010.06.25/outbox.cif.g09.slc.cpg/sg43_9_cif.got.tgz:17575.got - 2010.06.26 16:48:59.
