data_PCOD8187763
_publ_section_title
;
Structure prediction by ZEFSAII (Michael W. Deem and Ramdas Pophale) SiO2 
 PCOD8187763
Probable space group: F D D 2
;
_chemical_formula_sum "Si O2"
_cell_formula_units_Z 88
_cell_length_a 31.503025
_cell_length_b 22.353483
_cell_length_c 5.218026
_cell_angle_alpha 90.000000
_cell_angle_beta 90.000000
_cell_angle_gamma 90.000000
_cell_volume 3674.546087
_symmetry_space_group_name_H-M "F D D 2"
_symmetry_group_IT_number 43
_symmetry_cell_setting 'orthorhombic'
loop_
_space_group_symop_operation_xyz
x,y,z
-x,-y,z
1/4-x,1/4+y,1/4+z
1/4+x,1/4-y,1/4+z
x,1/2+y,1/2+z
-x,1/2-y,1/2+z
1/4-x,3/4+y,3/4+z
1/4+x,3/4-y,3/4+z
1/2+x,y,1/2+z
1/2-x,-y,1/2+z
3/4-x,1/4+y,3/4+z
3/4+x,1/4-y,3/4+z
1/2+x,1/2+y,z
1/2-x,1/2-y,z
3/4-x,3/4+y,1/4+z
3/4+x,3/4-y,1/4+z
loop_
_atom_site_type_symbol
_atom_site_label
_atom_site_fract_x
_atom_site_fract_y
_atom_site_fract_z
Si Si1 0.042748 0.895520 0.503020
Si Si2 0.500000 0.000000 0.683347
Si Si3 0.422176 0.514077 0.896223
Si Si4 0.135009 0.352243 0.969534
Si Si5 0.739901 0.468184 0.170582
Si Si6 0.594623 0.668314 0.250348
O O1 0.020464 0.944044 0.324304
O O2 0.085862 0.864550 0.402856
O O3 0.009122 0.842721 0.537332
O O4 0.053660 0.930991 0.760395
O O5 0.459585 0.974805 0.525192
O O6 0.394431 0.468573 0.726430
O O7 0.386993 0.544185 0.079250
O O8 0.150191 0.387705 0.222836
O O9 0.162667 0.370522 0.724421
O O10 0.732023 0.507231 0.429578
O O11 0.695617 0.461688 0.016462
#
# Coordination Sequence:
#
# PCOD8187763 Si02
#       6
#    16   8  16  16  16  16
#     4  11  27  47  73 113 150 195 260 310 380 452
#     4  12  24  46  74 114 150 198 250 326 368 460
#     4  11  26  44  75 107 150 199 248 315 373 449
#     4  11  25  45  73 104 148 193 247 306 377 446
#     4  12  28  48  76 107 152 200 249 311 371 451
#     4  11  25  47  69 107 142 195 249 302 377 450
#
# _framework density 23.948537000000002
#
# number of rings (size 3 to 8) (size 9 to 14) (size 15 to 20)
#    0.000    0.727    1.818    3.818   10.182    2.909 
#    0.000    0.000    0.000    0.000    0.000    0.000 
#    0.000    0.000    0.000    0.000    0.000    0.000 
#
# Total GULP energy -272539.183642 kJ/mol
# GULP energy per Si atom -12388.144711 kJ/mol
# Density = 2.389403 g / cm^3
# Si number density = 23.948537 Si / 1000 Ang^3
#
#
#
# Elastic Constant Matrix: (Units=GPa)
#
#
# Indices 1 2 3 4 5 6 
#
# 1 148.4320 68.8684 38.8104 0.0047 0.0568 0.0416
# 2 68.8684 121.4401 40.3408 0.0364 -0.0443 0.0321
# 3 38.8104 40.3408 114.1641 0.0679 0.0153 0.0708
# 4 0.0047 0.0364 0.0679 30.9138 0.0542 0.0526
# 5 0.0568 -0.0443 0.0153 0.0542 2.0244 -0.0137
# 6 0.0416 0.0321 0.0708 0.0526 -0.0137 35.9377
#
#
#
# Elastic Compliance Matrix: (Units=1/GPa)
#
#
# Indices 1 2 3 4 5 6 
#
# 1 0.009359 -0.004816 -0.001480 0.000008 -0.000357 -0.000004
# 2 -0.004816 0.011808 -0.002535 -0.000008 0.000413 0.000000
# 3 -0.001480 -0.002535 0.010158 -0.000019 -0.000090 -0.000016
# 4 0.000008 -0.000008 -0.000019 0.032350 -0.000866 -0.000048
# 5 -0.000357 0.000413 -0.000090 -0.000866 0.494022 0.000190
# 6 -0.000004 0.000000 -0.000016 -0.000048 0.000190 0.027826
#
#
# Mechanical properties :
#
#
# Convention : Reuss Voigt Hill
#
# Bulk Modulus (GPa) = 73.19019 75.56391 74.37705
# Shear Modulus (GPa) = 8.22723 29.50961 18.86842
#
# Velocity S-wave (km/s) = 1.85549 3.51409 2.80995
# Velocity P-wave (km/s) = 5.93450 6.93442 6.45385
#
# Compressibility (1/GPa) = 0.01366303
#
# Stress axis : x y z
#
# Youngs Moduli (GPa) = 106.85443 84.68911 98.44201
#
# Poissons Ratio (x) = 0.40785 0.14567
# Poissons Ratio (y) = 0.51459 0.24958
# Poissons Ratio (z) = 0.15811 0.21471
#
# Static dielectric constant tensor:
#      x y z
#    x 5.494760 0.000020 -0.000580 
#    y 0.000020 4.440170 -0.000140 
#    z -0.000580 -0.000140 4.114990 
# 
# 
# High freq. dielectric constant tensor:
#      x y z
#    x 1.970180 0.000000 0.000000 
#    y 0.000000 1.953680 -0.000010 
#    z 0.000000 -0.000010 1.940720 
# 
# From -- ./inp_files/1040.got.cif
#   From: 2010.06.25/outbox.cif.g09.slc.cpg/sg43_1_cif.got.tgz:1040.got - 2010.06.26 16:48:59.
