data_PCOD8187115
_publ_section_title
;
Structure prediction by ZEFSAII (Michael W. Deem and Ramdas Pophale) SiO2 
 PCOD8187115
Probable space group: F D D 2
;
_chemical_formula_sum "Si O2"
_cell_formula_units_Z 128
_cell_length_a 24.805910
_cell_length_b 10.802995
_cell_length_c 23.691849
_cell_angle_alpha 90.000000
_cell_angle_beta 90.000000
_cell_angle_gamma 90.000000
_cell_volume 6348.897195
_symmetry_space_group_name_H-M "F D D 2"
_symmetry_group_IT_number 43
_symmetry_cell_setting 'orthorhombic'
loop_
_space_group_symop_operation_xyz
x,y,z
-x,-y,z
1/4-x,1/4+y,1/4+z
1/4+x,1/4-y,1/4+z
x,1/2+y,1/2+z
-x,1/2-y,1/2+z
1/4-x,3/4+y,3/4+z
1/4+x,3/4-y,3/4+z
1/2+x,y,1/2+z
1/2-x,-y,1/2+z
3/4-x,1/4+y,3/4+z
3/4+x,1/4-y,3/4+z
1/2+x,1/2+y,z
1/2-x,1/2-y,z
3/4-x,3/4+y,1/4+z
3/4+x,3/4-y,1/4+z
loop_
_atom_site_type_symbol
_atom_site_label
_atom_site_fract_x
_atom_site_fract_y
_atom_site_fract_z
Si Si1 0.196673 0.818591 0.231740
Si Si2 0.682963 0.883235 0.236332
Si Si3 0.636288 0.211343 0.651995
Si Si4 0.710261 0.368338 0.353308
Si Si5 0.473393 0.369405 0.111322
Si Si6 0.979751 0.217991 0.905255
Si Si7 0.138771 0.868966 0.460225
Si Si8 0.454233 0.395774 0.818029
O O1 0.250000 0.750000 0.251423
O O2 0.181351 0.881939 0.291752
O O3 0.146993 0.741307 0.208616
O O4 0.215813 0.899102 0.179036
O O5 0.646753 0.770430 0.213541
O O6 0.696921 0.859140 0.300632
O O7 0.738979 0.887277 0.202274
O O8 0.649714 0.008945 0.229644
O O9 0.574967 0.166557 0.653127
O O10 0.673066 0.093005 0.641008
O O11 0.650967 0.311278 0.602954
O O12 0.750000 0.250000 0.359026
O O13 0.737010 0.502170 0.364093
O O14 0.663392 0.345261 0.398899
O O15 0.500000 0.500000 0.130773
O O16 0.018549 0.222771 0.849762
O O17 0.187282 0.888467 0.504859
O O18 0.500000 0.500000 0.817875
#
# Coordination Sequence:
#
# PCOD8187115 Si02
#       8
#    16  16  16  16  16  16  16  16
#     4  11  23  39  62  91 125 169 215 259 313 396
#     4  11  20  39  67  93 117 169 219 259 310 393
#     4  10  22  37  65  90 122 166 207 261 315 378
#     4  11  25  43  64  96 133 170 217 275 328 390
#     4  12  24  42  65  98 132 165 216 274 329 384
#     4  10  20  40  61  87 125 158 215 257 308 380
#     4  12  23  37  67  94 129 167 211 267 330 380
#     4   9  20  38  63  96 121 157 215 270 311 374
#
# _framework density 20.160981
#
# number of rings (size 3 to 8) (size 9 to 14) (size 15 to 20)
#    0.000    1.250    3.750    3.750    5.250    0.000 
#    0.000    0.000    0.000    0.750    0.000    0.000 
#    0.000    0.000    0.000    0.000    0.000    0.000 
#
# Total GULP energy -396651.038777 kJ/mol
# GULP energy per Si atom -12395.344962 kJ/mol
# Density = 2.011509 g / cm^3
# Si number density = 20.160981 Si / 1000 Ang^3
#
#
#
# Elastic Constant Matrix: (Units=GPa)
#
#
# Indices 1 2 3 4 5 6 
#
# 1 85.3300 35.7593 21.7853 0.0000 0.0000 0.0000
# 2 35.7593 90.9341 14.1746 0.0000 0.0000 0.0000
# 3 21.7853 14.1746 70.8069 0.0000 0.0000 0.0000
# 4 0.0000 0.0000 0.0000 27.1200 0.0000 0.0000
# 5 0.0000 0.0000 0.0000 0.0000 27.2031 0.0000
# 6 0.0000 0.0000 0.0000 0.0000 0.0000 33.9177
#
#
#
# Elastic Compliance Matrix: (Units=1/GPa)
#
#
# Indices 1 2 3 4 5 6 
#
# 1 0.014829 -0.005285 -0.003504 0.000000 0.000000 0.000000
# 2 -0.005285 0.013235 -0.001023 0.000000 0.000000 0.000000
# 3 -0.003504 -0.001023 0.015406 0.000000 0.000000 0.000000
# 4 0.000000 0.000000 0.000000 0.036873 0.000000 0.000000
# 5 0.000000 0.000000 0.000000 0.000000 0.036761 0.000000
# 6 0.000000 0.000000 0.000000 0.000000 0.000000 0.029483
#
#
# Mechanical properties :
#
#
# Convention : Reuss Voigt Hill
#
# Bulk Modulus (GPa) = 41.93946 43.38994 42.66470
# Shear Modulus (GPa) = 28.70923 29.33827 29.02375
#
# Velocity S-wave (km/s) = 3.77769 3.81885 3.79832
# Velocity P-wave (km/s) = 6.31469 6.40416 6.35958
#
# Compressibility (1/GPa) = 0.02384389
#
# Stress axis : x y z
#
# Youngs Moduli (GPa) = 67.43669 75.55834 64.90982
#
# Poissons Ratio (x) = 0.39933 0.22747
# Poissons Ratio (y) = 0.35641 0.06643
# Poissons Ratio (z) = 0.23632 0.07732
#
# Static dielectric constant tensor:
#      x y z
#    x 3.584590 0.000000 0.000000 
#    y 0.000000 3.607610 0.000000 
#    z 0.000000 0.000000 3.754700 
# 
# 
# High freq. dielectric constant tensor:
#      x y z
#    x 1.788420 0.000000 0.000000 
#    y 0.000000 1.772660 0.000000 
#    z 0.000000 0.000000 1.783050 
# 
# From -- ./inp_files/21329.got.cif
#   From: 2010.06.25/outbox.cif.g09.slc.cpg/sg43_11_cif.got.tgz:21329.got - 2010.06.26 16:48:59.
