data_PCOD8187403
_publ_section_title
;
Structure prediction by ZEFSAII (Michael W. Deem and Ramdas Pophale) SiO2 
 PCOD8187403
Probable space group: F D D 2
;
_chemical_formula_sum "Si O2"
_cell_formula_units_Z 96
_cell_length_a 16.646257
_cell_length_b 10.903767
_cell_length_c 22.474796
_cell_angle_alpha 90.000000
_cell_angle_beta 90.000000
_cell_angle_gamma 90.000000
_cell_volume 4079.330724
_symmetry_space_group_name_H-M "F D D 2"
_symmetry_group_IT_number 43
_symmetry_cell_setting 'orthorhombic'
loop_
_space_group_symop_operation_xyz
x,y,z
-x,-y,z
1/4-x,1/4+y,1/4+z
1/4+x,1/4-y,1/4+z
x,1/2+y,1/2+z
-x,1/2-y,1/2+z
1/4-x,3/4+y,3/4+z
1/4+x,3/4-y,3/4+z
1/2+x,y,1/2+z
1/2-x,-y,1/2+z
3/4-x,1/4+y,3/4+z
3/4+x,1/4-y,3/4+z
1/2+x,1/2+y,z
1/2-x,1/2-y,z
3/4-x,3/4+y,1/4+z
3/4+x,3/4-y,1/4+z
loop_
_atom_site_type_symbol
_atom_site_label
_atom_site_fract_x
_atom_site_fract_y
_atom_site_fract_z
Si Si1 0.701332 0.990652 0.348260
Si Si2 0.516491 0.137594 0.482057
Si Si3 0.196367 0.630581 0.939829
Si Si4 0.581817 0.783106 0.372887
Si Si5 0.341825 0.773482 0.403056
Si Si6 0.451671 0.627217 0.322737
O O1 0.753827 0.977930 0.287802
O O2 0.752178 0.977772 0.409416
O O3 0.638179 0.879489 0.339465
O O4 0.658662 0.122180 0.351432
O O5 0.451067 0.151109 0.431258
O O6 0.605292 0.174466 0.457788
O O7 0.500000 0.000000 0.505183
O O8 0.250000 0.750000 0.945000
O O9 0.124266 0.658131 0.894709
O O10 0.165795 0.603285 0.006567
O O11 0.513045 0.740979 0.328168
O O12 0.250000 0.750000 0.424108
O O13 0.381367 0.650762 0.372480
O O14 0.500000 0.500000 0.333191
#
# Coordination Sequence:
#
# PCOD8187403 Si02
#       6
#    16  16  16  16  16  16
#     4  11  24  41  70 102 132 173 233 281 347 400
#     4  11  23  45  71  98 138 179 228 285 341 416
#     4   9  21  38  65  99 126 166 222 277 328 399
#     4  10  22  42  68  97 128 179 230 276 334 410
#     4  11  27  46  66 103 140 182 225 288 346 406
#     4  10  24  44  69  96 136 179 223 278 341 410
#
# _framework density 23.533273000000001
#
# number of rings (size 3 to 8) (size 9 to 14) (size 15 to 20)
#    0.000    1.667    1.667    1.500    7.000    5.333 
#    6.000    0.000    0.000    0.000    0.000    0.000 
#    0.000    0.000    0.000    0.000    0.000    0.000 
#
# Total GULP energy -297443.513993 kJ/mol
# GULP energy per Si atom -12393.479750 kJ/mol
# Density = 2.347971 g / cm^3
# Si number density = 23.533273 Si / 1000 Ang^3
#
#
#
# Elastic Constant Matrix: (Units=GPa)
#
#
# Indices 1 2 3 4 5 6 
#
# 1 86.6333 9.1801 8.5444 0.0000 0.0000 0.0000
# 2 9.1801 86.7582 21.9436 0.0000 0.0000 0.0000
# 3 8.5444 21.9436 94.3349 0.0000 0.0000 0.0000
# 4 0.0000 0.0000 0.0000 25.7752 0.0000 0.0000
# 5 0.0000 0.0000 0.0000 0.0000 13.0651 0.0000
# 6 0.0000 0.0000 0.0000 0.0000 0.0000 32.7626
#
#
#
# Elastic Compliance Matrix: (Units=1/GPa)
#
#
# Indices 1 2 3 4 5 6 
#
# 1 0.011734 -0.001034 -0.000822 0.000000 0.000000 0.000000
# 2 -0.001034 0.012338 -0.002776 0.000000 0.000000 0.000000
# 3 -0.000822 -0.002776 0.011321 0.000000 0.000000 0.000000
# 4 0.000000 0.000000 0.000000 0.038797 0.000000 0.000000
# 5 0.000000 0.000000 0.000000 0.000000 0.076540 0.000000
# 6 0.000000 0.000000 0.000000 0.000000 0.000000 0.030523
#
#
# Mechanical properties :
#
#
# Convention : Reuss Voigt Hill
#
# Bulk Modulus (GPa) = 38.27351 38.56251 38.41801
# Shear Modulus (GPa) = 25.09722 29.52447 27.31085
#
# Velocity S-wave (km/s) = 3.26921 3.54585 3.41034
# Velocity P-wave (km/s) = 5.52713 5.76073 5.64514
#
# Compressibility (1/GPa) = 0.02612773
#
# Stress axis : x y z
#
# Youngs Moduli (GPa) = 85.22586 81.05132 88.33274
#
# Poissons Ratio (x) = 0.08377 0.07264
# Poissons Ratio (y) = 0.08809 0.24524
# Poissons Ratio (z) = 0.07009 0.22503
#
# Static dielectric constant tensor:
#      x y z
#    x 4.363330 0.000000 0.000000 
#    y 0.000000 4.196450 0.000000 
#    z 0.000000 0.000000 4.100010 
# 
# 
# High freq. dielectric constant tensor:
#      x y z
#    x 1.929030 0.000000 0.000000 
#    y 0.000000 1.927770 0.000000 
#    z 0.000000 0.000000 1.927800 
# 
# From -- ./inp_files/21059.got.cif
#   From: 2010.06.25/outbox.cif.g09.slc.cpg/sg43_11_cif.got.tgz:21059.got - 2010.06.26 16:48:59.
