data_PCOD8187047
_publ_section_title
;
Structure prediction by ZEFSAII (Michael W. Deem and Ramdas Pophale) SiO2 
 PCOD8187047
Probable space group: F D D 2
;
_chemical_formula_sum "Si O2"
_cell_formula_units_Z 96
_cell_length_a 9.847743
_cell_length_b 31.157969
_cell_length_c 17.005308
_cell_angle_alpha 90.000000
_cell_angle_beta 90.000000
_cell_angle_gamma 90.000000
_cell_volume 5217.835093
_symmetry_space_group_name_H-M "F D D 2"
_symmetry_group_IT_number 43
_symmetry_cell_setting 'orthorhombic'
loop_
_space_group_symop_operation_xyz
x,y,z
-x,-y,z
1/4-x,1/4+y,1/4+z
1/4+x,1/4-y,1/4+z
x,1/2+y,1/2+z
-x,1/2-y,1/2+z
1/4-x,3/4+y,3/4+z
1/4+x,3/4-y,3/4+z
1/2+x,y,1/2+z
1/2-x,-y,1/2+z
3/4-x,1/4+y,3/4+z
3/4+x,1/4-y,3/4+z
1/2+x,1/2+y,z
1/2-x,1/2-y,z
3/4-x,3/4+y,1/4+z
3/4+x,3/4-y,1/4+z
loop_
_atom_site_type_symbol
_atom_site_label
_atom_site_fract_x
_atom_site_fract_y
_atom_site_fract_z
Si Si1 0.635038 0.878260 0.678050
Si Si2 0.478250 0.545202 0.384191
Si Si3 0.725703 0.543604 0.276058
Si Si4 0.726318 0.201871 0.631016
Si Si5 0.270338 0.950397 0.276951
Si Si6 0.904847 0.118629 0.996832
O O1 0.729524 0.836032 0.685783
O O2 0.726549 0.917028 0.710673
O O3 0.505157 0.870097 0.731586
O O4 0.583016 0.888396 0.590408
O O5 0.500000 0.500000 0.431714
O O6 0.571888 0.541377 0.306834
O O7 0.324324 0.550444 0.354423
O O8 0.823898 0.552575 0.349707
O O9 0.766786 0.498195 0.236386
O O10 0.726717 0.586002 0.220511
O O11 0.750000 0.250000 0.663123
O O12 0.737830 0.168853 0.703368
O O13 0.829269 0.190466 0.559769
#
# Coordination Sequence:
#
# PCOD8187047 Si02
#       6
#    16  16  16  16  16  16
#     4  11  20  36  61  86 110 149 193 239 274 337
#     4   9  17  33  57  78 108 149 188 217 274 342
#     4   9  18  36  59  79 115 151 188 220 287 342
#     4  10  21  38  58  85 116 153 186 234 289 341
#     4  10  20  35  60  85 108 153 193 223 281 348
#     4  11  20  38  59  83 115 147 189 238 282 331
#
# _framework density 18.398434999999999
#
# number of rings (size 3 to 8) (size 9 to 14) (size 15 to 20)
#    0.000    2.000    6.667    0.000    0.000    1.333 
#    3.000    0.000    3.667    0.000    0.000    0.000 
#    0.000    0.000    0.000    0.000    0.000    0.000 
#
# Total GULP energy -297411.309310 kJ/mol
# GULP energy per Si atom -12392.137888 kJ/mol
# Density = 1.835656 g / cm^3
# Si number density = 18.398435 Si / 1000 Ang^3
#
#
#
# Elastic Constant Matrix: (Units=GPa)
#
#
# Indices 1 2 3 4 5 6 
#
# 1 52.2914 26.0416 10.4419 0.0000 0.0000 0.0000
# 2 26.0416 187.9580 45.6146 0.0000 0.0000 0.0000
# 3 10.4419 45.6146 40.7332 0.0000 0.0000 0.0000
# 4 0.0000 0.0000 0.0000 34.4233 0.0000 0.0000
# 5 0.0000 0.0000 0.0000 0.0000 20.7258 0.0000
# 6 0.0000 0.0000 0.0000 0.0000 0.0000 27.7069
#
#
#
# Elastic Compliance Matrix: (Units=1/GPa)
#
#
# Indices 1 2 3 4 5 6 
#
# 1 0.020785 -0.002179 -0.002888 0.000000 0.000000 0.000000
# 2 -0.002179 0.007534 -0.007879 0.000000 0.000000 0.000000
# 3 -0.002888 -0.007879 0.034113 0.000000 0.000000 0.000000
# 4 0.000000 0.000000 0.000000 0.029050 0.000000 0.000000
# 5 0.000000 0.000000 0.000000 0.000000 0.048249 0.000000
# 6 0.000000 0.000000 0.000000 0.000000 0.000000 0.036092
#
#
# Mechanical properties :
#
#
# Convention : Reuss Voigt Hill
#
# Bulk Modulus (GPa) = 27.36633 49.46431 38.41532
# Shear Modulus (GPa) = 23.37584 29.83016 26.60300
#
# Velocity S-wave (km/s) = 3.56832 4.03096 3.80667
# Velocity P-wave (km/s) = 5.64657 6.97196 6.34398
#
# Compressibility (1/GPa) = 0.03654126
#
# Stress axis : x y z
#
# Youngs Moduli (GPa) = 48.11058 132.72766 29.31427
#
# Poissons Ratio (x) = 0.28920 0.08467
# Poissons Ratio (y) = 0.10483 0.23095
# Poissons Ratio (z) = 0.13896 1.04570
#
# Static dielectric constant tensor:
#      x y z
#    x 3.384640 0.000000 0.000000 
#    y 0.000000 4.013580 0.000000 
#    z 0.000000 0.000000 2.834480 
# 
# 
# High freq. dielectric constant tensor:
#      x y z
#    x 1.721710 0.000000 0.000000 
#    y 0.000000 1.741490 0.000000 
#    z 0.000000 0.000000 1.649860 
# 
# From -- ./inp_files/13395.got.cif
#   From: 2010.06.25/outbox.cif.g09.slc.cpg/sg43_7_cif.got.tgz:13395.got - 2010.06.26 16:48:59.
