data_PCOD8187574
_publ_section_title
;
Structure prediction by ZEFSAII (Michael W. Deem and Ramdas Pophale) SiO2 
 PCOD8187574
Probable space group: F D D 2
;
_chemical_formula_sum "Si O2"
_cell_formula_units_Z 72
_cell_length_a 7.585199
_cell_length_b 17.892137
_cell_length_c 19.661708
_cell_angle_alpha 90.000000
_cell_angle_beta 90.000000
_cell_angle_gamma 90.000000
_cell_volume 2668.396953
_symmetry_space_group_name_H-M "F D D 2"
_symmetry_group_IT_number 43
_symmetry_cell_setting 'orthorhombic'
loop_
_space_group_symop_operation_xyz
x,y,z
-x,-y,z
1/4-x,1/4+y,1/4+z
1/4+x,1/4-y,1/4+z
x,1/2+y,1/2+z
-x,1/2-y,1/2+z
1/4-x,3/4+y,3/4+z
1/4+x,3/4-y,3/4+z
1/2+x,y,1/2+z
1/2-x,-y,1/2+z
3/4-x,1/4+y,3/4+z
3/4+x,1/4-y,3/4+z
1/2+x,1/2+y,z
1/2-x,1/2-y,z
3/4-x,3/4+y,1/4+z
3/4+x,3/4-y,1/4+z
loop_
_atom_site_type_symbol
_atom_site_label
_atom_site_fract_x
_atom_site_fract_y
_atom_site_fract_z
Si Si1 0.331933 0.450617 0.193810
Si Si2 0.114601 0.585644 0.140824
Si Si3 0.312208 0.973681 0.434364
Si Si4 0.000000 0.000000 0.525832
Si Si5 0.222636 0.096013 0.341929
O O1 0.500000 0.500000 0.215119
O O2 0.168447 0.505570 0.174316
O O3 0.380246 0.400258 0.127143
O O4 0.282354 0.398876 0.259654
O O5 0.285953 0.635471 0.126793
O O6 0.973268 0.634042 0.184952
O O7 0.004312 0.573907 0.072060
O O8 0.177438 0.010838 0.485315
O O9 0.500000 0.000000 0.462687
O O10 0.275850 0.010589 0.360301
#
# Coordination Sequence:
#
# PCOD8187574 Si02
#       5
#    16  16  16   8  16
#     4  10  24  45  82 125 172 226 293 358 446 524
#     4  11  26  50  80 119 168 227 275 359 430 518
#     4  12  28  51  85 122 165 228 284 350 430 526
#     4  12  28  54  80 120 172 214 280 356 436 510
#     4  11  23  49  83 124 166 225 287 360 429 526
#
# _framework density 26.982495
#
# number of rings (size 3 to 8) (size 9 to 14) (size 15 to 20)
#    0.000    0.889    2.222    2.667    9.333    4.444 
#    2.000    0.000    0.000    0.000    0.000    0.000 
#    0.000    0.000    0.000    0.000    0.000    0.000 
#
# Total GULP energy -223114.492241 kJ/mol
# GULP energy per Si atom -12395.249569 kJ/mol
# Density = 2.692108 g / cm^3
# Si number density = 26.982495 Si / 1000 Ang^3
#
#
#
# Elastic Constant Matrix: (Units=GPa)
#
#
# Indices 1 2 3 4 5 6 
#
# 1 187.6839 54.6994 78.6208 0.0000 0.0000 0.0000
# 2 54.6994 175.4705 59.3634 0.0000 0.0000 0.0000
# 3 78.6208 59.3634 148.1078 0.0000 0.0000 0.0000
# 4 0.0000 0.0000 0.0000 -86.7350 0.0000 0.0000
# 5 0.0000 0.0000 0.0000 0.0000 -0.9514 0.0000
# 6 0.0000 0.0000 0.0000 0.0000 0.0000 41.5644
#
#
#
# Elastic Compliance Matrix: (Units=1/GPa)
#
#
# Indices 1 2 3 4 5 6 
#
# 1 0.007022 -0.001074 -0.003297 0.000000 0.000000 0.000000
# 2 -0.001074 0.006757 -0.002138 0.000000 0.000000 0.000000
# 3 -0.003297 -0.002138 0.009359 0.000000 0.000000 0.000000
# 4 0.000000 0.000000 0.000000 -0.011529 0.000000 0.000000
# 5 0.000000 0.000000 0.000000 0.000000 -1.051093 0.000000
# 6 0.000000 0.000000 0.000000 0.000000 0.000000 0.024059
#
#
# Mechanical properties :
#
#
# Convention : Reuss Voigt Hill
#
# Bulk Modulus (GPa) = 98.81476 99.62549 99.22012
# Shear Modulus (GPa) = -5.00484 12.01418 3.50467
#
# Velocity S-wave (km/s) = -1.36341 2.11240 1.14092
# Velocity P-wave (km/s) = 5.85003 6.55378 6.21188
#
# Compressibility (1/GPa) = 0.01011995
#
# Stress axis : x y z
#
# Youngs Moduli (GPa) = 142.40450 147.99319 106.84532
#
# Poissons Ratio (x) = 0.15887 0.35231
# Poissons Ratio (y) = 0.15287 0.22848
# Poissons Ratio (z) = 0.46956 0.31648
#
# Static dielectric constant tensor:
#      x y z
#    x 5.243750 0.000000 0.000000 
#    y 0.000000 13.434030 0.000000 
#    z 0.000000 0.000000 4.634550 
# 
# 
# High freq. dielectric constant tensor:
#      x y z
#    x 2.115010 0.000000 0.000000 
#    y 0.000000 2.096470 0.000000 
#    z 0.000000 0.000000 2.069350 
# 
# From -- ./inp_files/16167.got.cif
#   From: 2010.06.25/outbox.cif.g09.slc.cpg/sg43_9_cif.got.tgz:16167.got - 2010.06.26 16:48:59.
