data_PCOD8187649
_publ_section_title
;
Structure prediction by ZEFSAII (Michael W. Deem and Ramdas Pophale) SiO2 
 PCOD8187649
Probable space group: F D D 2
;
_chemical_formula_sum "Si O2"
_cell_formula_units_Z 120
_cell_length_a 24.330413
_cell_length_b 8.413128
_cell_length_c 25.860093
_cell_angle_alpha 90.000000
_cell_angle_beta 90.000000
_cell_angle_gamma 90.000000
_cell_volume 5293.428604
_symmetry_space_group_name_H-M "F D D 2"
_symmetry_group_IT_number 43
_symmetry_cell_setting 'orthorhombic'
loop_
_space_group_symop_operation_xyz
x,y,z
-x,-y,z
1/4-x,1/4+y,1/4+z
1/4+x,1/4-y,1/4+z
x,1/2+y,1/2+z
-x,1/2-y,1/2+z
1/4-x,3/4+y,3/4+z
1/4+x,3/4-y,3/4+z
1/2+x,y,1/2+z
1/2-x,-y,1/2+z
3/4-x,1/4+y,3/4+z
3/4+x,1/4-y,3/4+z
1/2+x,1/2+y,z
1/2-x,1/2-y,z
3/4-x,3/4+y,1/4+z
3/4+x,3/4-y,1/4+z
loop_
_atom_site_type_symbol
_atom_site_label
_atom_site_fract_x
_atom_site_fract_y
_atom_site_fract_z
Si Si1 0.500000 0.500000 0.238580
Si Si2 0.364134 0.935835 0.603205
Si Si3 0.116708 0.332565 0.179051
Si Si4 0.650862 0.601508 0.435345
Si Si5 0.805883 0.157448 0.765742
Si Si6 0.193216 0.830674 0.372961
Si Si7 0.809366 0.784858 0.760382
Si Si8 0.280906 0.914720 0.520200
O O1 0.558506 0.488383 0.208119
O O2 0.497375 0.667471 0.270812
O O3 0.391030 0.788607 0.632499
O O4 0.404218 0.991114 0.557041
O O5 0.305954 0.893708 0.577468
O O6 0.356595 0.072758 0.646027
O O7 0.176306 0.317738 0.205977
O O8 0.109228 0.500085 0.150581
O O9 0.074101 0.312725 0.225043
O O10 0.693330 0.502103 0.399807
O O11 0.613537 0.504696 0.476571
O O12 0.750000 0.250000 0.773738
O O13 0.807541 0.968812 0.777576
O O14 0.250000 0.750000 0.389900
O O15 0.186479 0.828236 0.311038
O O16 0.750000 0.750000 0.732967
O O17 0.250000 0.750000 0.508045
#
# Coordination Sequence:
#
# PCOD8187649 Si02
#       8
#     8  16  16  16  16  16  16  16
#     4  12  26  44  84 108 150 194 252 320 372 448
#     4  11  27  44  70 104 144 189 242 304 375 445
#     4  11  21  46  69  99 138 185 236 301 370 432
#     4  12  27  47  71 111 150 187 253 310 368 454
#     4  11  26  43  71 101 141 189 244 303 370 451
#     4  11  24  42  76 101 137 190 240 300 369 436
#     4  11  27  47  69 105 148 195 242 305 371 448
#     4  11  26  48  72 108 147 189 245 309 374 445
#
# _framework density 22.669616999999999
#
# number of rings (size 3 to 8) (size 9 to 14) (size 15 to 20)
#    0.000    0.800    4.000    2.000   10.267    0.533 
#    1.200    0.000    0.000    0.000    0.000    0.000 
#    0.000    0.000    0.000    0.000    0.000    0.000 
#
# Total GULP energy -371654.442344 kJ/mol
# GULP energy per Si atom -12388.481411 kJ/mol
# Density = 2.261802 g / cm^3
# Si number density = 22.669617 Si / 1000 Ang^3
#
#
#
# Elastic Constant Matrix: (Units=GPa)
#
#
# Indices 1 2 3 4 5 6 
#
# 1 81.6952 31.9566 47.0480 0.0000 0.0000 -0.0001
# 2 31.9566 125.5489 37.6576 0.0001 0.0000 -0.0002
# 3 47.0480 37.6576 110.9441 0.0000 0.0000 0.0000
# 4 0.0000 0.0001 0.0000 26.0546 0.0000 0.0000
# 5 0.0000 0.0000 0.0000 0.0000 21.1772 0.0000
# 6 -0.0001 -0.0002 0.0000 0.0000 0.0000 36.6962
#
#
#
# Elastic Compliance Matrix: (Units=1/GPa)
#
#
# Indices 1 2 3 4 5 6 
#
# 1 0.016813 -0.002384 -0.006321 0.000000 0.000000 0.000000
# 2 -0.002384 0.009206 -0.002114 0.000000 0.000000 0.000000
# 3 -0.006321 -0.002114 0.012412 0.000000 0.000000 0.000000
# 4 0.000000 0.000000 0.000000 0.038381 0.000000 0.000000
# 5 0.000000 0.000000 0.000000 0.000000 0.047221 0.000000
# 6 0.000000 0.000000 0.000000 0.000000 0.000000 0.027251
#
#
# Mechanical properties :
#
#
# Convention : Reuss Voigt Hill
#
# Bulk Modulus (GPa) = 59.54604 61.27917 60.41261
# Shear Modulus (GPa) = 28.00845 30.22067 29.11456
#
# Velocity S-wave (km/s) = 3.51879 3.65511 3.58760
# Velocity P-wave (km/s) = 6.54470 6.70099 6.62330
#
# Compressibility (1/GPa) = 0.01679373
#
# Stress axis : x y z
#
# Youngs Moduli (GPa) = 59.47706 108.62730 80.57006
#
# Poissons Ratio (x) = 0.25893 0.50928
# Poissons Ratio (y) = 0.14177 0.17031
# Poissons Ratio (z) = 0.37595 0.22962
#
# Static dielectric constant tensor:
#      x y z
#    x 4.104460 0.000000 0.000000 
#    y 0.000000 4.250270 0.000000 
#    z 0.000000 0.000000 4.201750 
# 
# 
# High freq. dielectric constant tensor:
#      x y z
#    x 1.880540 0.000000 0.000000 
#    y 0.000000 1.902110 0.000000 
#    z 0.000000 0.000000 1.897080 
# 
# From -- ./inp_files/26614.got.cif
#   From: 2010.06.25/outbox.cif.g09.slc.cpg/sg43_14_cif.got.tgz:26614.got - 2010.06.26 16:48:59.
