data_PCOD8187183
_publ_section_title
;
Structure prediction by ZEFSAII (Michael W. Deem and Ramdas Pophale) SiO2 
 PCOD8187183
Probable space group: F D D 2
;
_chemical_formula_sum "Si O2"
_cell_formula_units_Z 120
_cell_length_a 8.317616
_cell_length_b 25.225936
_cell_length_c 25.852189
_cell_angle_alpha 90.000000
_cell_angle_beta 90.000000
_cell_angle_gamma 90.000000
_cell_volume 5424.297219
_symmetry_space_group_name_H-M "F D D 2"
_symmetry_group_IT_number 43
_symmetry_cell_setting 'orthorhombic'
loop_
_space_group_symop_operation_xyz
x,y,z
-x,-y,z
1/4-x,1/4+y,1/4+z
1/4+x,1/4-y,1/4+z
x,1/2+y,1/2+z
-x,1/2-y,1/2+z
1/4-x,3/4+y,3/4+z
1/4+x,3/4-y,3/4+z
1/2+x,y,1/2+z
1/2-x,-y,1/2+z
3/4-x,1/4+y,3/4+z
3/4+x,1/4-y,3/4+z
1/2+x,1/2+y,z
1/2-x,1/2-y,z
3/4-x,3/4+y,1/4+z
3/4+x,3/4-y,1/4+z
loop_
_atom_site_type_symbol
_atom_site_label
_atom_site_fract_x
_atom_site_fract_y
_atom_site_fract_z
Si Si1 0.007074 0.888377 0.760680
Si Si2 0.750000 0.250000 0.340495
Si Si3 0.999472 0.178991 0.575635
Si Si4 0.094768 0.785075 0.806231
Si Si5 0.482575 0.298807 0.073096
Si Si6 0.509381 0.602933 0.143009
Si Si7 0.749744 0.192250 0.996481
Si Si8 0.135241 0.597324 0.149112
O O1 0.903482 0.892079 0.814118
O O2 0.910143 0.897107 0.708634
O O3 0.088391 0.830419 0.761939
O O4 0.134597 0.935508 0.770866
O O5 0.582349 0.243583 0.307401
O O6 0.725628 0.301580 0.375439
O O7 0.947597 0.238871 0.591536
O O8 0.074629 0.178098 0.517797
O O9 0.101486 0.153439 0.621577
O O10 0.250000 0.750000 0.790161
O O11 0.134154 0.811027 0.861748
O O12 0.460570 0.337795 0.122094
O O13 0.661820 0.305303 0.051892
O O14 0.560974 0.600271 0.203775
O O15 0.322987 0.584328 0.141149
O O16 0.750000 0.250000 0.969186
#
# Coordination Sequence:
#
# PCOD8187183 Si02
#       8
#    16   8  16  16  16  16  16  16
#     4  11  25  42  66 101 135 179 227 281 347 416
#     4  12  26  42  74  98 136 178 234 298 340 404
#     4  11  22  44  63  96 134 172 225 275 345 409
#     4  11  24  46  69 102 142 181 228 288 353 412
#     4  10  24  40  64  94 137 179 223 283 337 420
#     4  11  22  40  67 101 134 177 229 287 344 412
#     4  10  21  36  65  94 127 175 228 276 334 408
#     4  12  25  41  68 102 134 177 230 290 345 411
#
# _framework density 22.122682999999999
#
# number of rings (size 3 to 8) (size 9 to 14) (size 15 to 20)
#    0.000    1.067    5.333    0.800    3.733    0.000 
#    0.000    6.667    0.000    0.000    0.000    0.000 
#    0.000    0.000    0.000    0.000    0.000    0.000 
#
# Total GULP energy -371681.933465 kJ/mol
# GULP energy per Si atom -12389.397782 kJ/mol
# Density = 2.207233 g / cm^3
# Si number density = 22.122683 Si / 1000 Ang^3
#
#
#
# Elastic Constant Matrix: (Units=GPa)
#
#
# Indices 1 2 3 4 5 6 
#
# 1 100.9839 35.5329 14.6504 0.0000 0.0000 0.0000
# 2 35.5329 118.3204 44.0142 0.0000 0.0000 0.0000
# 3 14.6504 44.0142 70.1094 0.0000 0.0000 0.0000
# 4 0.0000 0.0000 0.0000 12.5239 0.0000 0.0000
# 5 0.0000 0.0000 0.0000 0.0000 18.7740 0.0000
# 6 0.0000 0.0000 0.0000 0.0000 0.0000 35.2283
#
#
#
# Elastic Compliance Matrix: (Units=1/GPa)
#
#
# Indices 1 2 3 4 5 6 
#
# 1 0.011077 -0.003217 -0.000295 0.000000 0.000000 0.000000
# 2 -0.003217 0.011961 -0.006837 0.000000 0.000000 0.000000
# 3 -0.000295 -0.006837 0.018617 0.000000 0.000000 0.000000
# 4 0.000000 0.000000 0.000000 0.079848 0.000000 0.000000
# 5 0.000000 0.000000 0.000000 0.000000 0.053265 0.000000
# 6 0.000000 0.000000 0.000000 0.000000 0.000000 0.028386
#
#
# Mechanical properties :
#
#
# Convention : Reuss Voigt Hill
#
# Bulk Modulus (GPa) = 47.71517 53.08986 50.40252
# Shear Modulus (GPa) = 21.66022 26.31964 23.98993
#
# Velocity S-wave (km/s) = 3.13244 3.45296 3.29660
# Velocity P-wave (km/s) = 5.89052 6.32039 6.10924
#
# Compressibility (1/GPa) = 0.02095769
#
# Stress axis : x y z
#
# Youngs Moduli (GPa) = 90.27475 83.60585 53.71380
#
# Poissons Ratio (x) = 0.26894 0.01586
# Poissons Ratio (y) = 0.29040 0.36723
# Poissons Ratio (z) = 0.02666 0.57159
#
# Static dielectric constant tensor:
#      x y z
#    x 4.491180 0.000000 0.000000 
#    y 0.000000 4.142510 0.000000 
#    z 0.000000 0.000000 3.554960 
# 
# 
# High freq. dielectric constant tensor:
#      x y z
#    x 1.891790 0.000000 0.000000 
#    y 0.000000 1.868930 0.000000 
#    z 0.000000 0.000000 1.842380 
# 
# From -- ./inp_files/20441.got.cif
#   From: 2010.06.25/outbox.cif.g09.slc.cpg/sg43_11_cif.got.tgz:20441.got - 2010.06.26 16:48:59.
