data_PCOD8187085
_publ_section_title
;
Structure prediction by ZEFSAII (Michael W. Deem and Ramdas Pophale) SiO2 
 PCOD8187085
Probable space group: F D D 2
;
_chemical_formula_sum "Si O2"
_cell_formula_units_Z 104
_cell_length_a 19.266625
_cell_length_b 9.519921
_cell_length_c 26.080230
_cell_angle_alpha 90.000000
_cell_angle_beta 90.000000
_cell_angle_gamma 90.000000
_cell_volume 4783.550972
_symmetry_space_group_name_H-M "F D D 2"
_symmetry_group_IT_number 43
_symmetry_cell_setting 'orthorhombic'
loop_
_space_group_symop_operation_xyz
x,y,z
-x,-y,z
1/4-x,1/4+y,1/4+z
1/4+x,1/4-y,1/4+z
x,1/2+y,1/2+z
-x,1/2-y,1/2+z
1/4-x,3/4+y,3/4+z
1/4+x,3/4-y,3/4+z
1/2+x,y,1/2+z
1/2-x,-y,1/2+z
3/4-x,1/4+y,3/4+z
3/4+x,1/4-y,3/4+z
1/2+x,1/2+y,z
1/2-x,1/2-y,z
3/4-x,3/4+y,1/4+z
3/4+x,3/4-y,1/4+z
loop_
_atom_site_type_symbol
_atom_site_label
_atom_site_fract_x
_atom_site_fract_y
_atom_site_fract_z
Si Si1 0.483780 0.650586 0.457260
Si Si2 0.770169 0.546161 0.986838
Si Si3 0.140510 0.932748 0.146834
Si Si4 0.103994 0.113965 0.646082
Si Si5 0.846607 0.344478 0.303971
Si Si6 0.500000 0.000000 0.695592
Si Si7 0.437634 0.587810 0.824979
O O1 0.500000 0.500000 0.432276
O O2 0.557397 0.724666 0.444591
O O3 0.416902 0.714359 0.427101
O O4 0.470083 0.631396 0.518339
O O5 0.786154 0.618983 0.932136
O O6 0.745282 0.386921 0.980928
O O7 0.841551 0.535919 0.018806
O O8 0.710846 0.635085 0.015771
O O9 0.130468 0.770005 0.131356
O O10 0.066943 0.999748 0.159459
O O11 0.174317 0.010419 0.098438
O O12 0.080472 0.022102 0.597210
O O13 0.868706 0.493245 0.328573
O O14 0.500000 0.500000 0.852421
#
# Coordination Sequence:
#
# PCOD8187085 Si02
#       7
#    16  16  16  16  16   8  16
#     4   9  18  37  61  88 124 156 211 264 308 384
#     4   9  20  38  63  90 128 167 214 265 324 391
#     4  10  21  41  65  89 126 170 220 264 319 397
#     4   9  19  38  67  92 122 167 215 261 330 379
#     4  10  20  38  61  95 124 161 217 267 321 386
#     4  10  22  42  62  90 122 174 218 266 332 380
#     4  10  21  40  59  95 132 166 216 261 326 390
#
# _framework density 21.741171000000001
#
# number of rings (size 3 to 8) (size 9 to 14) (size 15 to 20)
#    0.000    2.462    0.000    2.769    2.154    0.000 
#   19.385    0.000    0.000    0.000    0.000    0.000 
#    0.000    0.000    0.000    0.000    0.000    0.000 
#
# Total GULP energy -322102.382101 kJ/mol
# GULP energy per Si atom -12388.553158 kJ/mol
# Density = 2.169169 g / cm^3
# Si number density = 21.741171 Si / 1000 Ang^3
#
#
#
# Elastic Constant Matrix: (Units=GPa)
#
#
# Indices 1 2 3 4 5 6 
#
# 1 98.7376 36.9195 46.1630 0.0000 0.0000 0.0000
# 2 36.9195 105.1027 63.3826 0.0000 0.0000 0.0000
# 3 46.1630 63.3826 127.9217 0.0000 0.0000 0.0000
# 4 0.0000 0.0000 0.0000 42.0061 0.0000 0.0000
# 5 0.0000 0.0000 0.0000 0.0000 21.7350 0.0000
# 6 0.0000 0.0000 0.0000 0.0000 0.0000 29.5066
#
#
#
# Elastic Compliance Matrix: (Units=1/GPa)
#
#
# Indices 1 2 3 4 5 6 
#
# 1 0.012594 -0.002400 -0.003355 0.000000 0.000000 0.000000
# 2 -0.002400 0.014026 -0.006084 0.000000 0.000000 0.000000
# 3 -0.003355 -0.006084 0.012042 0.000000 0.000000 0.000000
# 4 0.000000 0.000000 0.000000 0.023806 0.000000 0.000000
# 5 0.000000 0.000000 0.000000 0.000000 0.046009 0.000000
# 6 0.000000 0.000000 0.000000 0.000000 0.000000 0.033891
#
#
# Mechanical properties :
#
#
# Convention : Reuss Voigt Hill
#
# Bulk Modulus (GPa) = 66.73737 69.41025 68.07381
# Shear Modulus (GPa) = 29.23255 31.00268 30.11761
#
# Velocity S-wave (km/s) = 3.67082 3.78032 3.72597
# Velocity P-wave (km/s) = 6.98065 7.14489 7.06325
#
# Compressibility (1/GPa) = 0.01498411
#
# Stress axis : x y z
#
# Youngs Moduli (GPa) = 79.40149 71.29402 83.03953
#
# Poissons Ratio (x) = 0.17114 0.27864
# Poissons Ratio (y) = 0.19060 0.50518
# Poissons Ratio (z) = 0.26643 0.43372
#
# Static dielectric constant tensor:
#      x y z
#    x 4.106240 0.000000 0.000000 
#    y 0.000000 3.837070 0.000000 
#    z 0.000000 0.000000 3.729770 
# 
# 
# High freq. dielectric constant tensor:
#      x y z
#    x 1.858120 0.000000 0.000000 
#    y 0.000000 1.843510 0.000000 
#    z 0.000000 0.000000 1.833140 
# 
# From -- ./inp_files/26361.got.cif
#   From: 2010.06.25/outbox.cif.g09.slc.cpg/sg43_14_cif.got.tgz:26361.got - 2010.06.26 16:48:59.
