data_PCOD8187685
_publ_section_title
;
Structure prediction by ZEFSAII (Michael W. Deem and Ramdas Pophale) SiO2 
 PCOD8187685
Probable space group: F D D 2
;
_chemical_formula_sum "Si O2"
_cell_formula_units_Z 96
_cell_length_a 13.963641
_cell_length_b 25.041199
_cell_length_c 12.096981
_cell_angle_alpha 90.000000
_cell_angle_beta 90.000000
_cell_angle_gamma 90.000000
_cell_volume 4229.906745
_symmetry_space_group_name_H-M "F D D 2"
_symmetry_group_IT_number 43
_symmetry_cell_setting 'orthorhombic'
loop_
_space_group_symop_operation_xyz
x,y,z
-x,-y,z
1/4-x,1/4+y,1/4+z
1/4+x,1/4-y,1/4+z
x,1/2+y,1/2+z
-x,1/2-y,1/2+z
1/4-x,3/4+y,3/4+z
1/4+x,3/4-y,3/4+z
1/2+x,y,1/2+z
1/2-x,-y,1/2+z
3/4-x,1/4+y,3/4+z
3/4+x,1/4-y,3/4+z
1/2+x,1/2+y,z
1/2-x,1/2-y,z
3/4-x,3/4+y,1/4+z
3/4+x,3/4-y,1/4+z
loop_
_atom_site_type_symbol
_atom_site_label
_atom_site_fract_x
_atom_site_fract_y
_atom_site_fract_z
Si Si1 0.466765 0.594224 0.685990
Si Si2 0.578704 0.683829 0.354001
Si Si3 0.083892 0.813314 0.528497
Si Si4 0.179392 0.449045 0.349063
Si Si5 0.359802 0.186371 0.605486
Si Si6 0.250000 0.250000 0.437424
Si Si7 0.000000 0.000000 0.530986
O O1 0.464434 0.649677 0.620589
O O2 0.571897 0.592968 0.737220
O O3 0.386509 0.593142 0.782626
O O4 0.447441 0.544057 0.606016
O O5 0.486297 0.699879 0.426028
O O6 0.557065 0.680772 0.224772
O O7 0.607198 0.624766 0.394115
O O8 0.663574 0.726901 0.365083
O O9 0.115000 0.758048 0.586404
O O10 0.287405 0.450254 0.302655
O O11 0.282369 0.199673 0.511436
O O12 0.335254 0.223419 0.710808
#
# Coordination Sequence:
#
# PCOD8187685 Si02
#       7
#    16  16  16  16  16   8   8
#     4  12  28  48  76 109 147 193 251 308 383 452
#     4  12  27  46  75 105 149 191 246 310 377 451
#     4  12  28  50  77 106 144 204 249 310 379 458
#     4  12  28  46  73 107 151 188 246 312 374 439
#     4  11  25  44  75 110 141 195 244 301 366 455
#     4  11  26  45  72 110 144 191 246 301 372 440
#     4  11  22  47  78 106 150 185 252 297 368 466
#
# _framework density 22.695536000000001
#
# number of rings (size 3 to 8) (size 9 to 14) (size 15 to 20)
#    0.000    0.333    5.000    2.000    9.333    1.333 
#    0.000    0.000    0.000    0.000    0.000    0.000 
#    0.000    0.000    0.000    0.000    0.000    0.000 
#
# Total GULP energy -297719.665293 kJ/mol
# GULP energy per Si atom -12404.986054 kJ/mol
# Density = 2.264388 g / cm^3
# Si number density = 22.695536 Si / 1000 Ang^3
#
#
#
# Elastic Constant Matrix: (Units=GPa)
#
#
# Indices 1 2 3 4 5 6 
#
# 1 134.5014 6.5370 39.5726 0.0000 0.0000 0.0000
# 2 6.5370 77.7075 18.6785 0.0000 0.0000 0.0000
# 3 39.5726 18.6785 104.5767 0.0000 0.0000 0.0000
# 4 0.0000 0.0000 0.0000 37.3043 0.0000 0.0000
# 5 0.0000 0.0000 0.0000 0.0000 36.4833 0.0000
# 6 0.0000 0.0000 0.0000 0.0000 0.0000 32.1343
#
#
#
# Elastic Compliance Matrix: (Units=1/GPa)
#
#
# Indices 1 2 3 4 5 6 
#
# 1 0.008367 0.000060 -0.003177 0.000000 0.000000 0.000000
# 2 0.000060 0.013446 -0.002424 0.000000 0.000000 0.000000
# 3 -0.003177 -0.002424 0.011197 0.000000 0.000000 0.000000
# 4 0.000000 0.000000 0.000000 0.026807 0.000000 0.000000
# 5 0.000000 0.000000 0.000000 0.000000 0.027410 0.000000
# 6 0.000000 0.000000 0.000000 0.000000 0.000000 0.031119
#
#
# Mechanical properties :
#
#
# Convention : Reuss Voigt Hill
#
# Bulk Modulus (GPa) = 45.60358 49.59576 47.59967
# Shear Modulus (GPa) = 36.56625 37.98419 37.27522
#
# Velocity S-wave (km/s) = 4.01829 4.09545 4.05705
# Velocity P-wave (km/s) = 6.45493 6.65310 6.55476
#
# Compressibility (1/GPa) = 0.02192810
#
# Stress axis : x y z
#
# Youngs Moduli (GPa) = 119.52298 74.36897 89.30618
#
# Poissons Ratio (x) = -0.00444 0.28369
# Poissons Ratio (y) = -0.00714 0.21650
# Poissons Ratio (z) = 0.37968 0.18029
#
# Static dielectric constant tensor:
#      x y z
#    x 3.962100 0.000000 0.000000 
#    y 0.000000 4.029190 0.000000 
#    z 0.000000 0.000000 4.071980 
# 
# 
# High freq. dielectric constant tensor:
#      x y z
#    x 1.901430 0.000000 0.000000 
#    y 0.000000 1.899470 0.000000 
#    z 0.000000 0.000000 1.897040 
# 
# From -- ./inp_files/6278.got.cif
#   From: 2010.06.25/outbox.cif.g09.slc.cpg/sg43_4_cif.got.tgz:6278.got - 2010.06.26 16:48:59.
