data_PCOD8187893
_publ_section_title
;
Structure prediction by ZEFSAII (Michael W. Deem and Ramdas Pophale) SiO2 
 PCOD8187893
Probable space group: I M M 2
;
_chemical_formula_sum "Si O2"
_cell_formula_units_Z 56
_cell_length_a 9.001108
_cell_length_b 22.799332
_cell_length_c 17.528764
_cell_angle_alpha 90.000000
_cell_angle_beta 90.000000
_cell_angle_gamma 90.000000
_cell_volume 3597.239796
_symmetry_space_group_name_H-M "I M M 2"
_symmetry_group_IT_number 44
_symmetry_cell_setting 'orthorhombic'
loop_
_space_group_symop_operation_xyz
x,y,z
-x,-y,z
-x,y,z
x,-y,z
1/2+x,1/2+y,1/2+z
1/2-x,1/2-y,1/2+z
1/2-x,1/2+y,1/2+z
1/2+x,1/2-y,1/2+z
loop_
_atom_site_type_symbol
_atom_site_label
_atom_site_fract_x
_atom_site_fract_y
_atom_site_fract_z
Si Si1 0.666867 0.316499 0.142020
Si Si2 0.671847 0.719405 0.439235
Si Si3 0.825359 0.344043 0.742413
Si Si4 0.673229 0.150686 0.497406
Si Si5 0.323903 0.065263 0.366527
Si Si6 0.176216 0.723801 0.285033
Si Si7 0.335333 0.814797 0.080359
O O1 0.500000 0.338901 0.157432
O O2 0.760461 0.319694 0.220087
O O3 0.666931 0.250343 0.113278
O O4 0.741092 0.357002 0.077214
O O5 0.500000 0.708353 0.422100
O O6 0.705807 0.786982 0.458174
O O7 0.767326 0.700066 0.366377
O O8 0.720251 0.678708 0.510892
O O9 0.776210 0.401649 0.788947
O O10 0.732915 0.289788 0.774438
O O11 0.791339 0.355932 0.652575
O O12 0.000000 0.329305 0.754582
O O13 0.500000 0.143841 0.514831
O O14 0.733785 0.100725 0.440323
O O15 0.500000 0.061819 0.370464
O O16 0.254071 0.000000 0.366226
O O17 0.000000 0.722669 0.281654
O O18 0.500000 0.830513 0.050201
#
# Coordination Sequence:
#
# PCOD8187893 Si02
#       7
#     8   8   8   8   8   8   8
#     4   9  17  28  41  57  80 109 140 172 211 256
#     4  10  17  26  40  58  83 111 140 172 208 252
#     4   9  16  29  43  58  82 112 144 179 214 247
#     4   9  16  27  42  59  82 111 145 180 212 247
#     4   9  16  27  45  66  86 113 150 186 216 246
#     4  11  19  26  40  61  84 110 141 172 209 256
#     4   8  15  25  38  56  79 106 138 172 207 250
#
# _framework density 15.567491
#
# number of rings (size 3 to 8) (size 9 to 14) (size 15 to 20)
#    0.000    2.714    1.429    3.000    0.000    4.000 
#    0.000    0.000    0.000    1.714    0.000    0.000 
#    0.000    1.143    0.000    9.714    0.000    2.714 
#
# Total GULP energy -347087.687630 kJ/mol
# GULP energy per Si atom -12395.988844 kJ/mol
# Density = 1.553206 g / cm^3
# Si number density = 15.567491 Si / 1000 Ang^3
#
#
#
# Elastic Constant Matrix: (Units=GPa)
#
#
# Indices 1 2 3 4 5 6 
#
# 1 84.5424 17.9810 61.5252 0.0000 0.0000 0.0000
# 2 17.9810 52.4008 48.0950 0.0000 0.0000 0.0000
# 3 61.5252 48.0950 146.2306 0.0000 0.0000 0.0000
# 4 0.0000 0.0000 0.0000 16.4150 0.0000 0.0000
# 5 0.0000 0.0000 0.0000 0.0000 29.9018 0.0000
# 6 0.0000 0.0000 0.0000 0.0000 0.0000 8.5753
#
#
#
# Elastic Compliance Matrix: (Units=1/GPa)
#
#
# Indices 1 2 3 4 5 6 
#
# 1 0.017089 0.001053 -0.007536 0.000000 0.000000 0.000000
# 2 0.001053 0.027400 -0.009455 0.000000 0.000000 0.000000
# 3 -0.007536 -0.009455 0.013119 0.000000 0.000000 0.000000
# 4 0.000000 0.000000 0.000000 0.060920 0.000000 0.000000
# 5 0.000000 0.000000 0.000000 0.000000 0.033443 0.000000
# 6 0.000000 0.000000 0.000000 0.000000 0.000000 0.116613
#
#
# Mechanical properties :
#
#
# Convention : Reuss Voigt Hill
#
# Bulk Modulus (GPa) = 38.86224 59.81959 49.34092
# Shear Modulus (GPa) = 16.17921 21.34993 18.76457
#
# Velocity S-wave (km/s) = 3.22731 3.70732 3.47561
# Velocity P-wave (km/s) = 6.23741 7.53890 6.91882
#
# Compressibility (1/GPa) = 0.02573192
#
# Stress axis : x y z
#
# Youngs Moduli (GPa) = 58.51723 36.49578 76.22441
#
# Poissons Ratio (x) = -0.03844 0.57446
# Poissons Ratio (y) = -0.06163 0.72071
# Poissons Ratio (z) = 0.44101 0.34507
#
# Static dielectric constant tensor:
#      x y z
#    x 2.928830 0.000000 0.000000 
#    y 0.000000 2.640410 0.000000 
#    z 0.000000 0.000000 3.313890 
# 
# 
# High freq. dielectric constant tensor:
#      x y z
#    x 1.591510 0.000000 0.000000 
#    y 0.000000 1.524550 0.000000 
#    z 0.000000 0.000000 1.613930 
# 
# From -- ./inp_files/20658.got.cif
#   From: 2010.03.12/outbox.cif.g09.slc.cpg/sg44_11_cif.got.tgz:20658.got - 2010.04.14 02:36:11.
