data_PCOD8187871
_publ_section_title
;
Structure prediction by ZEFSAII (Michael W. Deem and Ramdas Pophale) SiO2 
 PCOD8187871
Probable space group: I M M 2
;
_chemical_formula_sum "Si O2"
_cell_formula_units_Z 56
_cell_length_a 28.673951
_cell_length_b 28.673827
_cell_length_c 5.319084
_cell_angle_alpha 90.000000
_cell_angle_beta 90.000000
_cell_angle_gamma 90.000000
_cell_volume 4373.307835
_symmetry_space_group_name_H-M "I M M 2"
_symmetry_group_IT_number 44
_symmetry_cell_setting 'orthorhombic'
loop_
_space_group_symop_operation_xyz
x,y,z
-x,-y,z
-x,y,z
x,-y,z
1/2+x,1/2+y,1/2+z
1/2-x,1/2-y,1/2+z
1/2-x,1/2+y,1/2+z
1/2+x,1/2-y,1/2+z
loop_
_atom_site_type_symbol
_atom_site_label
_atom_site_fract_x
_atom_site_fract_y
_atom_site_fract_z
Si Si1 0.228657 0.728657 0.593200
Si Si2 0.185684 0.883988 0.609273
Si Si3 0.716871 0.639847 0.609257
Si Si4 0.116012 0.814316 0.109273
Si Si5 0.053860 0.094237 0.110294
Si Si6 0.594237 0.553860 0.110294
Si Si7 0.860152 0.216871 0.609257
O O1 0.245853 0.745853 0.322425
O O2 0.238071 0.673351 0.612114
O O3 0.173351 0.738070 0.612114
O O4 0.216510 0.892904 0.358140
O O5 0.141404 0.917033 0.610700
O O6 0.170747 0.830027 0.606364
O O7 0.216801 0.892699 0.859445
O O8 0.669973 0.670746 0.606364
O O9 0.082966 0.858596 0.110700
O O10 0.107301 0.783199 0.359445
O O11 0.107096 0.783490 0.858140
O O12 0.064844 0.064759 0.360097
O O13 0.000000 0.107862 0.110584
O O14 0.064759 0.064844 0.860097
O O15 0.607863 0.500000 0.110584
#
# Coordination Sequence:
#
# PCOD8187871 Si02
#       7
#     8   8   8   8   8   8   8
#     4  12  16  20  34  62  72  88 108 120 136 180
#     4  10  16  29  41  51  67  93 104 125 166 208
#     4  10  16  25  41  53  75  90 104 122 150 202
#     4  10  16  29  41  51  67  93 104 125 166 208
#     4  12  23  35  47  56  66  83 114 148 192 233
#     4  12  23  35  47  56  66  83 114 148 192 233
#     4  10  16  25  41  53  75  90 104 122 150 202
#
# _framework density 12.804952999999999
#
# number of rings (size 3 to 8) (size 9 to 14) (size 15 to 20)
#    0.000    1.143   11.429    0.857    0.000    1.714 
#    0.000    0.000    0.000    0.000    0.000    0.000 
#    0.000    0.000    0.000    0.000    0.000    0.000 
#
# Total GULP energy -346992.282021 kJ/mol
# GULP energy per Si atom -12392.581501 kJ/mol
# Density = 1.277581 g / cm^3
# Si number density = 12.804953 Si / 1000 Ang^3
#
#
#
# Elastic Constant Matrix: (Units=GPa)
#
#
# Indices 1 2 3 4 5 6 
#
# 1 34.2911 34.6117 20.2923 0.0000 0.0000 0.0000
# 2 34.6117 34.2901 20.2919 0.0000 0.0000 0.0000
# 3 20.2923 20.2919 138.8701 0.0000 0.0000 0.0000
# 4 0.0000 0.0000 0.0000 11.0624 0.0000 0.0000
# 5 0.0000 0.0000 0.0000 0.0000 11.0629 0.0000
# 6 0.0000 0.0000 0.0000 0.0000 0.0000 5.4897
#
#
#
# Elastic Compliance Matrix: (Units=1/GPa)
#
#
# Indices 1 2 3 4 5 6 
#
# 1 -1.549194 1.565094 -0.002319 0.000000 0.000000 0.000000
# 2 1.565094 -1.549235 -0.002322 0.000000 0.000000 0.000000
# 3 -0.002319 -0.002322 0.007879 0.000000 0.000000 0.000000
# 4 0.000000 0.000000 0.000000 0.090396 0.000000 0.000000
# 5 0.000000 0.000000 0.000000 0.000000 0.090392 0.000000
# 6 0.000000 0.000000 0.000000 0.000000 0.000000 0.182160
#
#
# Mechanical properties :
#
#
# Convention : Reuss Voigt Hill
#
# Bulk Modulus (GPa) = 32.94082 39.76035 36.35059
# Shear Modulus (GPa) = -0.85640 14.34004 6.74182
#
# Velocity S-wave (km/s) = -0.81869 3.35009 2.29705
# Velocity P-wave (km/s) = 4.98871 6.78840 5.95691
#
# Compressibility (1/GPa) = 0.03035747
#
# Stress axis : x y z
#
# Youngs Moduli (GPa) = -0.64550 -0.64548 126.91786
#
# Poissons Ratio (x) = 1.01024 0.29429
# Poissons Ratio (y) = 1.01026 0.29472
# Poissons Ratio (z) = -0.00150 -0.00150
#
# Static dielectric constant tensor:
#      x y z
#    x 2.332470 0.000000 0.000000 
#    y 0.000000 2.332470 0.000000 
#    z 0.000000 0.000000 4.575690 
# 
# 
# High freq. dielectric constant tensor:
#      x y z
#    x 1.438130 0.000000 0.000000 
#    y 0.000000 1.438130 0.000000 
#    z 0.000000 0.000000 1.530820 
# 
# From -- ./inp_files/2861.got.cif
#   From: 2010.03.12/outbox.cif.g09.slc.cpg/sg44_2_cif.got.tgz:2861.got - 2010.04.14 02:36:11.
