data_PCOD8187670
_publ_section_title
;
Structure prediction by ZEFSAII (Michael W. Deem and Ramdas Pophale) SiO2 
 PCOD8187670
Probable space group: F D D 2
;
_chemical_formula_sum "Si O2"
_cell_formula_units_Z 96
_cell_length_a 10.711564
_cell_length_b 25.498576
_cell_length_c 15.112252
_cell_angle_alpha 90.000000
_cell_angle_beta 90.000000
_cell_angle_gamma 90.000000
_cell_volume 4127.603778
_symmetry_space_group_name_H-M "F D D 2"
_symmetry_group_IT_number 43
_symmetry_cell_setting 'orthorhombic'
loop_
_space_group_symop_operation_xyz
x,y,z
-x,-y,z
1/4-x,1/4+y,1/4+z
1/4+x,1/4-y,1/4+z
x,1/2+y,1/2+z
-x,1/2-y,1/2+z
1/4-x,3/4+y,3/4+z
1/4+x,3/4-y,3/4+z
1/2+x,y,1/2+z
1/2-x,-y,1/2+z
3/4-x,1/4+y,3/4+z
3/4+x,1/4-y,3/4+z
1/2+x,1/2+y,z
1/2-x,1/2-y,z
3/4-x,3/4+y,1/4+z
3/4+x,3/4-y,1/4+z
loop_
_atom_site_type_symbol
_atom_site_label
_atom_site_fract_x
_atom_site_fract_y
_atom_site_fract_z
Si Si1 0.324245 0.381941 0.101850
Si Si2 0.910016 0.453842 0.751211
Si Si3 0.903985 0.170920 0.660784
Si Si4 0.081556 0.050600 0.538710
Si Si5 0.929386 0.107239 0.388751
Si Si6 0.281131 0.529616 0.897483
O O1 0.344273 0.431358 0.164488
O O2 0.178127 0.364848 0.094075
O O3 0.397571 0.334130 0.145242
O O4 0.375806 0.396162 0.006215
O O5 0.802045 0.478300 0.810665
O O6 0.000000 0.500000 0.719120
O O7 0.986813 0.409939 0.805386
O O8 0.867874 0.232360 0.654853
O O9 0.049682 0.173480 0.638168
O O10 0.140079 0.081216 0.624131
O O11 0.194462 0.026747 0.483580
O O12 0.004007 0.093231 0.479041
O O13 0.000000 0.000000 0.569796
#
# Coordination Sequence:
#
# PCOD8187670 Si02
#       6
#    16  16  16  16  16  16
#     4  12  26  44  69 106 144 180 233 299 356 418
#     4  11  22  46  75  99 133 187 245 280 340 434
#     4  12  25  45  68 102 145 182 228 295 363 416
#     4  11  22  43  73 100 132 180 241 279 338 421
#     4  11  22  43  72  96 134 184 226 288 341 412
#     4  11  22  46  70  98 139 187 228 295 353 411
#
# _framework density 23.258046
#
# number of rings (size 3 to 8) (size 9 to 14) (size 15 to 20)
#    0.000    0.667    6.667    2.500    0.000    1.333 
#    3.000    3.333    0.000    0.000    0.000    0.000 
#    0.000    0.000    0.000    0.000    0.000    0.000 
#
# Total GULP energy -297532.058358 kJ/mol
# GULP energy per Si atom -12397.169098 kJ/mol
# Density = 2.320511 g / cm^3
# Si number density = 23.258046 Si / 1000 Ang^3
#
#
#
# Elastic Constant Matrix: (Units=GPa)
#
#
# Indices 1 2 3 4 5 6 
#
# 1 65.5419 11.8104 8.5791 0.0000 0.0000 0.0000
# 2 11.8104 138.6429 38.8062 0.0000 0.0000 0.0000
# 3 8.5791 38.8062 39.4175 0.0000 0.0000 0.0000
# 4 0.0000 0.0000 0.0000 26.4659 0.0000 0.0000
# 5 0.0000 0.0000 0.0000 0.0000 8.1382 0.0000
# 6 0.0000 0.0000 0.0000 0.0000 0.0000 47.5209
#
#
#
# Elastic Compliance Matrix: (Units=1/GPa)
#
#
# Indices 1 2 3 4 5 6 
#
# 1 0.015733 -0.000527 -0.002905 0.000000 0.000000 0.000000
# 2 -0.000527 0.009974 -0.009705 0.000000 0.000000 0.000000
# 3 -0.002905 -0.009705 0.035556 0.000000 0.000000 0.000000
# 4 0.000000 0.000000 0.000000 0.037784 0.000000 0.000000
# 5 0.000000 0.000000 0.000000 0.000000 0.122877 0.000000
# 6 0.000000 0.000000 0.000000 0.000000 0.000000 0.021043
#
#
# Mechanical properties :
#
#
# Convention : Reuss Voigt Hill
#
# Bulk Modulus (GPa) = 28.58072 40.22153 34.40112
# Shear Modulus (GPa) = 17.79963 28.71878 23.25920
#
# Velocity S-wave (km/s) = 2.76943 3.51777 3.16579
# Velocity P-wave (km/s) = 4.74779 5.81642 5.30906
#
# Compressibility (1/GPa) = 0.03498862
#
# Stress axis : x y z
#
# Youngs Moduli (GPa) = 63.56203 100.26067 28.12473
#
# Poissons Ratio (x) = 0.05284 0.08171
# Poissons Ratio (y) = 0.03350 0.27294
# Poissons Ratio (z) = 0.18467 0.97299
#
# Static dielectric constant tensor:
#      x y z
#    x 4.492540 0.000000 0.000000 
#    y 0.000000 4.243000 0.000000 
#    z 0.000000 0.000000 3.925040 
# 
# 
# High freq. dielectric constant tensor:
#      x y z
#    x 1.928390 0.000000 0.000000 
#    y 0.000000 1.929610 0.000000 
#    z 0.000000 0.000000 1.897940 
# 
# From -- ./inp_files/13309.got.cif
#   From: 2010.06.25/outbox.cif.g09.slc.cpg/sg43_7_cif.got.tgz:13309.got - 2010.06.26 16:48:59.
