data_PCOD8187372
_publ_section_title
;
Structure prediction by ZEFSAII (Michael W. Deem and Ramdas Pophale) SiO2 
 PCOD8187372
Probable space group: F D D 2
;
_chemical_formula_sum "Si O2"
_cell_formula_units_Z 64
_cell_length_a 12.004779
_cell_length_b 20.729552
_cell_length_c 12.069616
_cell_angle_alpha 90.000000
_cell_angle_beta 90.000000
_cell_angle_gamma 90.000000
_cell_volume 3003.568485
_symmetry_space_group_name_H-M "F D D 2"
_symmetry_group_IT_number 43
_symmetry_cell_setting 'orthorhombic'
loop_
_space_group_symop_operation_xyz
x,y,z
-x,-y,z
1/4-x,1/4+y,1/4+z
1/4+x,1/4-y,1/4+z
x,1/2+y,1/2+z
-x,1/2-y,1/2+z
1/4-x,3/4+y,3/4+z
1/4+x,3/4-y,3/4+z
1/2+x,y,1/2+z
1/2-x,-y,1/2+z
3/4-x,1/4+y,3/4+z
3/4+x,1/4-y,3/4+z
1/2+x,1/2+y,z
1/2-x,1/2-y,z
3/4-x,3/4+y,1/4+z
3/4+x,3/4-y,1/4+z
loop_
_atom_site_type_symbol
_atom_site_label
_atom_site_fract_x
_atom_site_fract_y
_atom_site_fract_z
Si Si1 0.327327 0.809813 0.804260
Si Si2 0.244820 0.820915 0.389680
Si Si3 0.489963 0.688025 0.484761
Si Si4 0.430268 0.318330 0.069355
O O1 0.250000 0.750000 0.837561
O O2 0.350036 0.809290 0.673934
O O3 0.264192 0.873843 0.841771
O O4 0.443747 0.806008 0.869883
O O5 0.250000 0.750000 0.331670
O O6 0.218280 0.876012 0.301384
O O7 0.141362 0.820915 0.472096
O O8 0.356204 0.834034 0.460667
O O9 0.505513 0.754252 0.553411
#
# Coordination Sequence:
#
# PCOD8187372 Si02
#       4
#    16  16  16  16
#     4  12  24  41  64  95 128 166 215 271 329 393
#     4  10  22  41  63  89 122 166 210 255 318 388
#     4  11  24  40  63  93 124 162 210 264 321 386
#     4  11  23  42  65  91 127 172 215 264 326 397
#
# _framework density 21.307988999999999
#
# number of rings (size 3 to 8) (size 9 to 14) (size 15 to 20)
#    0.000    1.000    0.000    8.250    0.000    8.000 
#    0.000    1.250    0.000    0.000    0.000    0.000 
#    0.000    0.000    0.000    0.000    0.000    0.000 
#
# Total GULP energy -198462.752502 kJ/mol
# GULP energy per Si atom -12403.922031 kJ/mol
# Density = 2.125949 g / cm^3
# Si number density = 21.307989 Si / 1000 Ang^3
#
#
#
# Elastic Constant Matrix: (Units=GPa)
#
#
# Indices 1 2 3 4 5 6 
#
# 1 75.7804 39.6260 13.9802 0.0000 0.0000 0.0000
# 2 39.6260 174.3154 40.3059 0.0000 0.0000 0.0000
# 3 13.9802 40.3059 79.5989 0.0000 0.0000 0.0000
# 4 0.0000 0.0000 0.0000 28.4830 0.0000 0.0000
# 5 0.0000 0.0000 0.0000 0.0000 37.0977 0.0000
# 6 0.0000 0.0000 0.0000 0.0000 0.0000 31.5116
#
#
#
# Elastic Compliance Matrix: (Units=1/GPa)
#
#
# Indices 1 2 3 4 5 6 
#
# 1 0.015051 -0.003183 -0.001032 0.000000 0.000000 0.000000
# 2 -0.003183 0.007171 -0.003072 0.000000 0.000000 0.000000
# 3 -0.001032 -0.003072 0.014300 0.000000 0.000000 0.000000
# 4 0.000000 0.000000 0.000000 0.035109 0.000000 0.000000
# 5 0.000000 0.000000 0.000000 0.000000 0.026956 0.000000
# 6 0.000000 0.000000 0.000000 0.000000 0.000000 0.031734
#
#
# Mechanical properties :
#
#
# Convention : Reuss Voigt Hill
#
# Bulk Modulus (GPa) = 45.56217 57.50209 51.53213
# Shear Modulus (GPa) = 32.84962 35.13728 33.99345
#
# Velocity S-wave (km/s) = 3.93065 4.06522 3.99850
# Velocity P-wave (km/s) = 6.48299 7.00567 6.74939
#
# Compressibility (1/GPa) = 0.02194803
#
# Stress axis : x y z
#
# Youngs Moduli (GPa) = 66.44220 139.45938 69.93163
#
# Poissons Ratio (x) = 0.44387 0.07215
# Poissons Ratio (y) = 0.21147 0.21482
# Poissons Ratio (z) = 0.06855 0.42840
#
# Static dielectric constant tensor:
#      x y z
#    x 3.759420 0.000000 0.000000 
#    y 0.000000 4.325750 0.000000 
#    z 0.000000 0.000000 3.497830 
# 
# 
# High freq. dielectric constant tensor:
#      x y z
#    x 1.840230 0.000000 0.000000 
#    y 0.000000 1.858840 0.000000 
#    z 0.000000 0.000000 1.821810 
# 
# From -- ./inp_files/5474.got.cif
#   From: 2010.06.25/outbox.cif.g09.slc.cpg/sg43_3_cif.got.tgz:5474.got - 2010.06.26 16:48:59.
