data_PCOD8187007
_publ_section_title
;
Structure prediction by ZEFSAII (Michael W. Deem and Ramdas Pophale) SiO2 
 PCOD8187007
Probable space group: F D D 2
;
_chemical_formula_sum "Si O2"
_cell_formula_units_Z 88
_cell_length_a 27.110391
_cell_length_b 11.124359
_cell_length_c 13.686855
_cell_angle_alpha 90.000000
_cell_angle_beta 90.000000
_cell_angle_gamma 90.000000
_cell_volume 4127.760049
_symmetry_space_group_name_H-M "F D D 2"
_symmetry_group_IT_number 43
_symmetry_cell_setting 'orthorhombic'
loop_
_space_group_symop_operation_xyz
x,y,z
-x,-y,z
1/4-x,1/4+y,1/4+z
1/4+x,1/4-y,1/4+z
x,1/2+y,1/2+z
-x,1/2-y,1/2+z
1/4-x,3/4+y,3/4+z
1/4+x,3/4-y,3/4+z
1/2+x,y,1/2+z
1/2-x,-y,1/2+z
3/4-x,1/4+y,3/4+z
3/4+x,1/4-y,3/4+z
1/2+x,1/2+y,z
1/2-x,1/2-y,z
3/4-x,3/4+y,1/4+z
3/4+x,3/4-y,1/4+z
loop_
_atom_site_type_symbol
_atom_site_label
_atom_site_fract_x
_atom_site_fract_y
_atom_site_fract_z
Si Si1 0.182992 0.061933 0.371070
Si Si2 0.693522 0.256500 0.705931
Si Si3 0.347697 0.056554 0.357243
Si Si4 0.087117 0.500535 0.774362
Si Si5 0.984681 0.628691 0.101419
Si Si6 0.750000 0.750000 0.665866
O O1 0.195931 0.159794 0.291147
O O2 0.171548 0.123047 0.474259
O O3 0.137353 0.983715 0.334038
O O4 0.228681 0.977642 0.393014
O O5 0.750000 0.250000 0.664943
O O6 0.656817 0.221489 0.615510
O O7 0.671974 0.379669 0.757083
O O8 0.336736 0.141180 0.448650
O O9 0.320140 0.928448 0.373504
O O10 0.045763 0.535917 0.850650
O O11 0.000000 0.500000 0.150442
O O12 0.989206 0.616186 0.983704
#
# Coordination Sequence:
#
# PCOD8187007 Si02
#       6
#    16  16  16  16  16   8
#     4  10  19  37  63  93 123 158 216 268 322 379
#     4  10  20  39  71  93 124 167 216 277 320 383
#     4  10  21  41  66  93 128 163 222 268 323 386
#     4  10  20  36  68  95 115 164 219 268 319 392
#     4  10  22  39  58  85 139 168 203 266 323 383
#     4  10  22  36  58  92 122 170 206 250 336 374
#
# _framework density 21.319068999999999
#
# number of rings (size 3 to 8) (size 9 to 14) (size 15 to 20)
#    0.545    1.455    1.818    2.182    2.545    1.455 
#    3.273    0.909    0.000    0.000    0.000    0.000 
#    0.000    0.000    0.000    0.000    0.000    0.000 
#
# Total GULP energy -272576.740736 kJ/mol
# GULP energy per Si atom -12389.851852 kJ/mol
# Density = 2.127055 g / cm^3
# Si number density = 21.319069 Si / 1000 Ang^3
#
#
#
# Elastic Constant Matrix: (Units=GPa)
#
#
# Indices 1 2 3 4 5 6 
#
# 1 167.8864 48.4231 36.2210 0.0000 0.0000 0.0000
# 2 48.4231 100.9338 15.1920 0.0000 0.0000 0.0000
# 3 36.2210 15.1920 53.4884 0.0000 0.0000 0.0000
# 4 0.0000 0.0000 0.0000 18.1106 0.0000 0.0000
# 5 0.0000 0.0000 0.0000 0.0000 30.6354 0.0000
# 6 0.0000 0.0000 0.0000 0.0000 0.0000 38.3425
#
#
#
# Elastic Compliance Matrix: (Units=1/GPa)
#
#
# Indices 1 2 3 4 5 6 
#
# 1 0.007794 -0.003076 -0.004404 0.000000 0.000000 0.000000
# 2 -0.003076 0.011564 -0.001201 0.000000 0.000000 0.000000
# 3 -0.004404 -0.001201 0.022019 0.000000 0.000000 0.000000
# 4 0.000000 0.000000 0.000000 0.055216 0.000000 0.000000
# 5 0.000000 0.000000 0.000000 0.000000 0.032642 0.000000
# 6 0.000000 0.000000 0.000000 0.000000 0.000000 0.026081
#
#
# Mechanical properties :
#
#
# Convention : Reuss Voigt Hill
#
# Bulk Modulus (GPa) = 41.64264 57.99787 49.82025
# Shear Modulus (GPa) = 27.67263 32.24920 29.96092
#
# Velocity S-wave (km/s) = 3.60672 3.89355 3.75288
# Velocity P-wave (km/s) = 6.07618 6.89034 6.49603
#
# Compressibility (1/GPa) = 0.02401385
#
# Stress axis : x y z
#
# Youngs Moduli (GPa) = 128.30634 86.47430 45.41499
#
# Poissons Ratio (x) = 0.26601 0.20001
# Poissons Ratio (y) = 0.39470 0.05456
# Poissons Ratio (z) = 0.56507 0.10389
#
# Static dielectric constant tensor:
#      x y z
#    x 3.950120 0.000000 0.000000 
#    y 0.000000 3.791840 0.000000 
#    z 0.000000 0.000000 3.594070 
# 
# 
# High freq. dielectric constant tensor:
#      x y z
#    x 1.850140 0.000000 0.000000 
#    y 0.000000 1.828070 0.000000 
#    z 0.000000 0.000000 1.808780 
# 
# From -- ./inp_files/9671.got.cif
#   From: 2010.06.25/outbox.cif.g09.slc.cpg/sg43_5_cif.got.tgz:9671.got - 2010.06.26 16:48:59.
