data_PCOD8187176
_publ_section_title
;
Structure prediction by ZEFSAII (Michael W. Deem and Ramdas Pophale) SiO2 
 PCOD8187176
Probable space group: F D D 2
;
_chemical_formula_sum "Si O2"
_cell_formula_units_Z 120
_cell_length_a 10.657388
_cell_length_b 16.531750
_cell_length_c 33.175129
_cell_angle_alpha 90.000000
_cell_angle_beta 90.000000
_cell_angle_gamma 90.000000
_cell_volume 5844.969195
_symmetry_space_group_name_H-M "F D D 2"
_symmetry_group_IT_number 43
_symmetry_cell_setting 'orthorhombic'
loop_
_space_group_symop_operation_xyz
x,y,z
-x,-y,z
1/4-x,1/4+y,1/4+z
1/4+x,1/4-y,1/4+z
x,1/2+y,1/2+z
-x,1/2-y,1/2+z
1/4-x,3/4+y,3/4+z
1/4+x,3/4-y,3/4+z
1/2+x,y,1/2+z
1/2-x,-y,1/2+z
3/4-x,1/4+y,3/4+z
3/4+x,1/4-y,3/4+z
1/2+x,1/2+y,z
1/2-x,1/2-y,z
3/4-x,3/4+y,1/4+z
3/4+x,3/4-y,1/4+z
loop_
_atom_site_type_symbol
_atom_site_label
_atom_site_fract_x
_atom_site_fract_y
_atom_site_fract_z
Si Si1 0.933487 0.419664 0.005240
Si Si2 0.445620 0.676751 0.572210
Si Si3 0.381103 0.443413 0.348993
Si Si4 0.479267 0.593210 0.649442
Si Si5 0.707099 0.941534 0.209847
Si Si6 0.000000 0.500000 0.271798
Si Si7 0.938743 0.410774 0.761664
Si Si8 0.500894 0.640311 0.420510
O O1 0.782895 0.414004 0.001849
O O2 0.000000 0.500000 0.023361
O O3 0.960656 0.345637 0.035846
O O4 0.988744 0.410652 0.961031
O O5 0.501029 0.755234 0.596208
O O6 0.430262 0.604907 0.604263
O O7 0.308698 0.684868 0.552492
O O8 0.500000 0.500000 0.354306
O O9 0.390960 0.395141 0.307026
O O10 0.390647 0.381822 0.387440
O O11 0.500000 0.500000 0.659549
O O12 0.371341 0.620933 0.681343
O O13 0.613594 0.636956 0.654184
O O14 0.825471 0.898616 0.230179
O O15 0.613807 0.967564 0.245478
O O16 0.757884 0.015257 0.182044
O O17 0.000000 0.500000 0.755812
#
# Coordination Sequence:
#
# PCOD8187176 Si02
#       8
#    16  16  16  16  16   8  16  16
#     4  12  23  36  63  97 121 156 213 277 327 395
#     4  12  22  39  59  90 124 164 218 267 330 398
#     4  11  19  33  61  87 121 158 200 273 322 384
#     4  10  21  36  58  88 122 160 206 265 323 384
#     4  11  20  39  64  88 121 178 216 264 324 423
#     4  12  20  40  66  86 116 182 230 248 328 442
#     4  11  19  40  61  89 125 170 215 262 334 409
#     4  11  19  35  60  93 121 155 213 265 326 389
#
# _framework density 20.530477000000001
#
# number of rings (size 3 to 8) (size 9 to 14) (size 15 to 20)
#    0.000    0.800   10.000    0.800    0.000    1.067 
#    2.400    0.000    0.000    2.400    0.000    0.000 
#    0.000    0.000    0.000    0.000    0.000    0.000 
#
# Total GULP energy -371720.608656 kJ/mol
# GULP energy per Si atom -12390.686955 kJ/mol
# Density = 2.048375 g / cm^3
# Si number density = 20.530477 Si / 1000 Ang^3
#
#
#
# Elastic Constant Matrix: (Units=GPa)
#
#
# Indices 1 2 3 4 5 6 
#
# 1 101.7978 34.6694 50.8238 0.0000 0.0000 0.0000
# 2 34.6694 39.8316 25.5646 0.0000 0.0000 0.0000
# 3 50.8238 25.5646 148.0656 0.0000 0.0000 0.0000
# 4 0.0000 0.0000 0.0000 16.8343 0.0000 0.0000
# 5 0.0000 0.0000 0.0000 0.0000 28.3220 0.0000
# 6 0.0000 0.0000 0.0000 0.0000 0.0000 29.9064
#
#
#
# Elastic Compliance Matrix: (Units=1/GPa)
#
#
# Indices 1 2 3 4 5 6 
#
# 1 0.015286 -0.011176 -0.003317 0.000000 0.000000 0.000000
# 2 -0.011176 0.036405 -0.002450 0.000000 0.000000 0.000000
# 3 -0.003317 -0.002450 0.008315 0.000000 0.000000 0.000000
# 4 0.000000 0.000000 0.000000 0.059403 0.000000 0.000000
# 5 0.000000 0.000000 0.000000 0.000000 0.035308 0.000000
# 6 0.000000 0.000000 0.000000 0.000000 0.000000 0.033438
#
#
# Mechanical properties :
#
#
# Convention : Reuss Voigt Hill
#
# Bulk Modulus (GPa) = 38.28298 56.86783 47.57541
# Shear Modulus (GPa) = 21.66881 26.92168 24.29525
#
# Velocity S-wave (km/s) = 3.25229 3.62512 3.44375
# Velocity P-wave (km/s) = 5.72630 6.72914 6.24788
#
# Compressibility (1/GPa) = 0.02612127
#
# Stress axis : x y z
#
# Youngs Moduli (GPa) = 65.42081 27.46874 120.25923
#
# Poissons Ratio (x) = 0.30698 0.39894
# Poissons Ratio (y) = 0.73111 0.29458
# Poissons Ratio (z) = 0.21702 0.06729
#
# Static dielectric constant tensor:
#      x y z
#    x 4.008500 0.000000 0.000000 
#    y 0.000000 3.313080 0.000000 
#    z 0.000000 0.000000 4.055450 
# 
# 
# High freq. dielectric constant tensor:
#      x y z
#    x 1.796540 0.000000 0.000000 
#    y 0.000000 1.747520 0.000000 
#    z 0.000000 0.000000 1.825500 
# 
# From -- ./inp_files/28763.got.cif
#   From: 2010.06.25/outbox.cif.g09.slc.cpg/sg43_15_cif.got.tgz:28763.got - 2010.06.26 16:48:59.
