data_PCOD8187650
_publ_section_title
;
Structure prediction by ZEFSAII (Michael W. Deem and Ramdas Pophale) SiO2 
 PCOD8187650
Probable space group: F D D 2
;
_chemical_formula_sum "Si O2"
_cell_formula_units_Z 64
_cell_length_a 17.553115
_cell_length_b 6.523699
_cell_length_c 26.083236
_cell_angle_alpha 90.000000
_cell_angle_beta 90.000000
_cell_angle_gamma 90.000000
_cell_volume 2986.823666
_symmetry_space_group_name_H-M "F D D 2"
_symmetry_group_IT_number 43
_symmetry_cell_setting 'orthorhombic'
loop_
_space_group_symop_operation_xyz
x,y,z
-x,-y,z
1/4-x,1/4+y,1/4+z
1/4+x,1/4-y,1/4+z
x,1/2+y,1/2+z
-x,1/2-y,1/2+z
1/4-x,3/4+y,3/4+z
1/4+x,3/4-y,3/4+z
1/2+x,y,1/2+z
1/2-x,-y,1/2+z
3/4-x,1/4+y,3/4+z
3/4+x,1/4-y,3/4+z
1/2+x,1/2+y,z
1/2-x,1/2-y,z
3/4-x,3/4+y,1/4+z
3/4+x,3/4-y,1/4+z
loop_
_atom_site_type_symbol
_atom_site_label
_atom_site_fract_x
_atom_site_fract_y
_atom_site_fract_z
Si Si1 0.090552 0.979926 0.390210
Si Si2 0.823731 0.128174 0.573976
Si Si3 0.839728 0.763745 0.299954
Si Si4 0.922139 0.581343 0.733219
O O1 0.110223 0.747319 0.371873
O O2 0.128153 0.144361 0.352520
O O3 0.125621 0.019891 0.445854
O O4 0.000000 0.000000 0.391665
O O5 0.750000 0.250000 0.593623
O O6 0.883929 0.278258 0.547591
O O7 0.798814 0.959885 0.532141
O O8 0.750000 0.750000 0.299390
O O9 0.868268 0.893442 0.250937
O O10 0.000000 0.500000 0.706648
#
# Coordination Sequence:
#
# PCOD8187650 Si02
#       4
#    16  16  16  16
#     4  11  24  42  67 100 135 173 227 277 333 402
#     4  11  21  46  70  92 133 185 216 275 340 392
#     4  11  24  44  69  98 136 175 224 280 335 397
#     4  11  24  43  67 100 135 176 228 276 332 401
#
# _framework density 21.427444000000001
#
# number of rings (size 3 to 8) (size 9 to 14) (size 15 to 20)
#    0.000    1.000    5.000    2.250    3.500    5.000 
#    4.500    0.000    0.000    0.000    0.000    0.000 
#    0.000    0.000    0.000    0.000    0.000    0.000 
#
# Total GULP energy -198427.725815 kJ/mol
# GULP energy per Si atom -12401.732863 kJ/mol
# Density = 2.137867 g / cm^3
# Si number density = 21.427444 Si / 1000 Ang^3
#
#
#
# Elastic Constant Matrix: (Units=GPa)
#
#
# Indices 1 2 3 4 5 6 
#
# 1 166.5308 54.6293 41.7411 0.0002 -0.0001 -0.0011
# 2 54.6293 142.5716 49.4605 0.0004 -0.0003 -0.0017
# 3 41.7411 49.4605 98.1771 0.0000 0.0000 0.0000
# 4 0.0002 0.0004 0.0000 34.9988 -0.0001 -0.0002
# 5 -0.0001 -0.0003 0.0000 -0.0001 24.7166 0.0001
# 6 -0.0011 -0.0017 0.0000 -0.0002 0.0001 36.5256
#
#
#
# Elastic Compliance Matrix: (Units=1/GPa)
#
#
# Indices 1 2 3 4 5 6 
#
# 1 0.007185 -0.002052 -0.002021 0.000000 0.000000 0.000000
# 2 -0.002052 0.009085 -0.003705 0.000000 0.000000 0.000000
# 3 -0.002021 -0.003705 0.012911 0.000000 0.000000 0.000000
# 4 0.000000 0.000000 0.000000 0.028572 0.000000 0.000000
# 5 0.000000 0.000000 0.000000 0.000000 0.040459 0.000000
# 6 0.000000 0.000000 0.000000 0.000000 0.000000 0.027378
#
#
# Mechanical properties :
#
#
# Convention : Reuss Voigt Hill
#
# Bulk Modulus (GPa) = 73.38761 77.66013 75.52387
# Shear Modulus (GPa) = 34.32003 36.67811 35.49907
#
# Velocity S-wave (km/s) = 4.00645 4.14180 4.07469
# Velocity P-wave (km/s) = 7.46498 7.69381 7.58026
#
# Compressibility (1/GPa) = 0.01362628
#
# Stress axis : x y z
#
# Youngs Moduli (GPa) = 139.18812 110.06577 77.45140
#
# Poissons Ratio (x) = 0.22583 0.15652
# Poissons Ratio (y) = 0.28559 0.28694
# Poissons Ratio (z) = 0.28128 0.40777
#
# Static dielectric constant tensor:
#      x y z
#    x 3.817620 0.000010 0.000000 
#    y 0.000010 4.623510 0.000000 
#    z 0.000000 0.000000 3.695900 
# 
# 
# High freq. dielectric constant tensor:
#      x y z
#    x 1.844890 0.000000 0.000000 
#    y 0.000000 1.857550 0.000000 
#    z 0.000000 0.000000 1.824280 
# 
# From -- ./inp_files/19330.got.cif
#   From: 2010.06.25/outbox.cif.g09.slc.cpg/sg43_10_cif.got.tgz:19330.got - 2010.06.26 16:48:59.
