data_PCOD8187796
_publ_section_title
;
Structure prediction by ZEFSAII (Michael W. Deem and Ramdas Pophale) SiO2 
 PCOD8187796
Probable space group: F D D 2
;
_chemical_formula_sum "Si O2"
_cell_formula_units_Z 120
_cell_length_a 20.538516
_cell_length_b 29.169162
_cell_length_c 9.880796
_cell_angle_alpha 90.000000
_cell_angle_beta 90.000000
_cell_angle_gamma 90.000000
_cell_volume 5919.498925
_symmetry_space_group_name_H-M "F D D 2"
_symmetry_group_IT_number 43
_symmetry_cell_setting 'orthorhombic'
loop_
_space_group_symop_operation_xyz
x,y,z
-x,-y,z
1/4-x,1/4+y,1/4+z
1/4+x,1/4-y,1/4+z
x,1/2+y,1/2+z
-x,1/2-y,1/2+z
1/4-x,3/4+y,3/4+z
1/4+x,3/4-y,3/4+z
1/2+x,y,1/2+z
1/2-x,-y,1/2+z
3/4-x,1/4+y,3/4+z
3/4+x,1/4-y,3/4+z
1/2+x,1/2+y,z
1/2-x,1/2-y,z
3/4-x,3/4+y,1/4+z
3/4+x,3/4-y,1/4+z
loop_
_atom_site_type_symbol
_atom_site_label
_atom_site_fract_x
_atom_site_fract_y
_atom_site_fract_z
Si Si1 0.715278 0.041054 0.355870
Si Si2 0.864354 0.696241 0.333666
Si Si3 0.806888 0.106121 0.729996
Si Si4 0.750000 0.750000 0.200534
Si Si5 0.673586 0.706040 0.963084
Si Si6 0.698030 0.046277 0.834147
Si Si7 0.724767 0.867606 0.925801
Si Si8 0.123583 0.046259 0.607192
O O1 0.677590 0.037467 0.498754
O O2 0.765524 0.083168 0.358818
O O3 0.659572 0.049665 0.248740
O O4 0.756178 0.997222 0.314210
O O5 0.848962 0.642482 0.315482
O O6 0.798512 0.722816 0.297999
O O7 0.884423 0.705762 0.488509
O O8 0.848594 0.059217 0.725987
O O9 0.739025 0.092542 0.802768
O O10 0.791869 0.127413 0.583868
O O11 0.706792 0.716540 0.107582
O O12 0.711545 0.663377 0.898572
O O13 0.673764 0.751447 0.867188
O O14 0.674689 0.044833 0.987478
O O15 0.667421 0.842731 0.844131
#
# Coordination Sequence:
#
# PCOD8187796 Si02
#       8
#    16  16  16   8  16  16  16  16
#     4  12  22  43  70  94 130 180 223 269 325 405
#     4  12  24  44  69 101 131 178 228 269 329 404
#     4  12  21  41  73  97 129 176 220 278 324 398
#     4  12  22  42  68 100 128 180 230 264 326 406
#     4  12  19  39  71  97 127 170 224 277 315 394
#     4  12  27  43  64 102 142 170 217 283 343 379
#     4  12  22  41  70  99 127 176 232 265 323 400
#     4  12  24  42  65 100 134 172 223 272 335 396
#
# _framework density 20.271986999999999
#
# number of rings (size 3 to 8) (size 9 to 14) (size 15 to 20)
#    0.000    0.000    9.333    1.600    0.000    1.067 
#    4.800    0.000    0.000    0.000    0.000    0.000 
#    0.000    0.000    0.000    0.000    0.000    0.000 
#
# Total GULP energy -372074.935635 kJ/mol
# GULP energy per Si atom -12402.497854 kJ/mol
# Density = 2.022585 g / cm^3
# Si number density = 20.271987 Si / 1000 Ang^3
#
#
#
# Elastic Constant Matrix: (Units=GPa)
#
#
# Indices 1 2 3 4 5 6 
#
# 1 91.0732 40.8065 13.3613 0.0000 -0.0001 -0.0002
# 2 40.8065 100.1554 18.1653 0.0000 0.0000 0.0000
# 3 13.3613 18.1653 38.4665 0.0001 -0.0002 -0.0007
# 4 0.0000 0.0000 0.0001 19.9188 -0.0001 -0.0001
# 5 -0.0001 0.0000 -0.0002 -0.0001 31.3262 0.0003
# 6 -0.0002 0.0000 -0.0007 -0.0001 0.0003 22.6961
#
#
#
# Elastic Compliance Matrix: (Units=1/GPa)
#
#
# Indices 1 2 3 4 5 6 
#
# 1 0.013617 -0.005129 -0.002308 0.000000 0.000000 0.000000
# 2 -0.005129 0.012852 -0.004287 0.000000 0.000000 0.000000
# 3 -0.002308 -0.004287 0.028823 0.000000 0.000000 0.000001
# 4 0.000000 0.000000 0.000000 0.050204 0.000000 0.000000
# 5 0.000000 0.000000 0.000000 0.000000 0.031922 0.000000
# 6 0.000000 0.000000 0.000001 0.000000 0.000000 0.044060
#
#
# Mechanical properties :
#
#
# Convention : Reuss Voigt Hill
#
# Bulk Modulus (GPa) = 31.40415 41.59570 36.49993
# Shear Modulus (GPa) = 23.19736 25.27902 24.23819
#
# Velocity S-wave (km/s) = 3.38643 3.53511 3.46157
# Velocity P-wave (km/s) = 5.55118 6.10131 5.83273
#
# Compressibility (1/GPa) = 0.03184293
#
# Stress axis : x y z
#
# Youngs Moduli (GPa) = 73.43738 77.80868 34.69465
#
# Poissons Ratio (x) = 0.39912 0.08006
# Poissons Ratio (y) = 0.37670 0.14875
# Poissons Ratio (z) = 0.16946 0.33360
#
# Static dielectric constant tensor:
#      x y z
#    x 3.806510 0.000000 0.000000 
#    y 0.000000 4.016690 0.000000 
#    z 0.000000 0.000000 3.343450 
# 
# 
# High freq. dielectric constant tensor:
#      x y z
#    x 1.807990 0.000000 0.000000 
#    y 0.000000 1.806470 0.000000 
#    z 0.000000 0.000000 1.761120 
# 
# From -- ./inp_files/3896.got.cif
#   From: 2010.06.25/outbox.cif.g09.slc.cpg/sg43_2_cif.got.tgz:3896.got - 2010.06.26 16:48:59.
