data_PCOD8187092
_publ_section_title
;
Structure prediction by ZEFSAII (Michael W. Deem and Ramdas Pophale) SiO2 
 PCOD8187092
Probable space group: F D D 2
;
_chemical_formula_sum "Si O2"
_cell_formula_units_Z 120
_cell_length_a 24.681185
_cell_length_b 25.605295
_cell_length_c 9.603562
_cell_angle_alpha 90.000000
_cell_angle_beta 90.000000
_cell_angle_gamma 90.000000
_cell_volume 6069.153693
_symmetry_space_group_name_H-M "F D D 2"
_symmetry_group_IT_number 43
_symmetry_cell_setting 'orthorhombic'
loop_
_space_group_symop_operation_xyz
x,y,z
-x,-y,z
1/4-x,1/4+y,1/4+z
1/4+x,1/4-y,1/4+z
x,1/2+y,1/2+z
-x,1/2-y,1/2+z
1/4-x,3/4+y,3/4+z
1/4+x,3/4-y,3/4+z
1/2+x,y,1/2+z
1/2-x,-y,1/2+z
3/4-x,1/4+y,3/4+z
3/4+x,1/4-y,3/4+z
1/2+x,1/2+y,z
1/2-x,1/2-y,z
3/4-x,3/4+y,1/4+z
3/4+x,3/4-y,1/4+z
loop_
_atom_site_type_symbol
_atom_site_label
_atom_site_fract_x
_atom_site_fract_y
_atom_site_fract_z
Si Si1 0.750000 0.250000 0.424460
Si Si2 0.720335 0.953055 0.582719
Si Si3 0.410779 0.810710 0.550430
Si Si4 0.770499 0.563289 0.062738
Si Si5 0.316198 0.377413 0.648040
Si Si6 0.884816 0.975453 0.587218
Si Si7 0.895494 0.295131 0.097688
Si Si8 0.555837 0.897395 0.219845
O O1 0.799875 0.227953 0.333668
O O2 0.728757 0.199437 0.512447
O O3 0.678599 0.950570 0.456132
O O4 0.757651 0.900675 0.599837
O O5 0.682117 0.965355 0.713444
O O6 0.761146 0.000838 0.559226
O O7 0.463171 0.831966 0.467597
O O8 0.388875 0.761726 0.460370
O O9 0.362893 0.852668 0.550541
O O10 0.716926 0.593100 0.022408
O O11 0.817840 0.578991 0.954943
O O12 0.364027 0.418644 0.625833
O O13 0.339716 0.327108 0.562411
O O14 0.312480 0.355445 0.804090
O O15 0.867246 0.991347 0.430126
#
# Coordination Sequence:
#
# PCOD8187092 Si02
#       8
#     8  16  16  16  16  16  16  16
#     4  10  20  38  64  94 122 160 212 260 312 376
#     4  12  24  39  64  92 130 166 208 273 317 377
#     4  10  22  40  56  95 124 153 215 257 315 371
#     4  11  20  40  65  90 118 164 216 254 313 376
#     4  12  21  37  65  92 126 164 212 260 317 373
#     4  10  21  38  64  88 121 161 210 266 301 386
#     4  11  22  39  60  97 120 160 216 255 320 377
#     4  11  22  39  66  95 125 169 209 266 311 387
#
# _framework density 19.772113000000001
#
# number of rings (size 3 to 8) (size 9 to 14) (size 15 to 20)
#    0.000    1.067    8.000    2.400    0.000    1.067 
#    0.000    0.000    0.000    3.200    0.000    0.000 
#    0.000    0.000    0.000    0.000    0.000    0.000 
#
# Total GULP energy -371653.633396 kJ/mol
# GULP energy per Si atom -12388.454447 kJ/mol
# Density = 1.972711 g / cm^3
# Si number density = 19.772113 Si / 1000 Ang^3
#
#
#
# Elastic Constant Matrix: (Units=GPa)
#
#
# Indices 1 2 3 4 5 6 
#
# 1 105.4971 22.6500 39.3514 -0.0013 0.0015 0.0008
# 2 22.6500 58.5291 12.9977 -0.0024 0.0023 0.0016
# 3 39.3514 12.9977 90.0903 -0.0007 -0.0021 0.0003
# 4 -0.0013 -0.0024 -0.0007 17.5051 -0.0009 0.0004
# 5 0.0015 0.0023 -0.0021 -0.0009 21.0357 0.0012
# 6 0.0008 0.0016 0.0003 0.0004 0.0012 33.9659
#
#
#
# Elastic Compliance Matrix: (Units=1/GPa)
#
#
# Indices 1 2 3 4 5 6 
#
# 1 0.012016 -0.003600 -0.004729 0.000000 -0.000001 0.000000
# 2 -0.003600 0.018729 -0.001130 0.000002 -0.000002 -0.000001
# 3 -0.004729 -0.001130 0.013329 0.000000 0.000002 0.000000
# 4 0.000000 0.000002 0.000000 0.057126 0.000002 -0.000001
# 5 -0.000001 -0.000002 0.000002 0.000002 0.047538 -0.000002
# 6 0.000000 -0.000001 0.000000 -0.000001 -0.000002 0.029441
#
#
# Mechanical properties :
#
#
# Convention : Reuss Voigt Hill
#
# Bulk Modulus (GPa) = 39.75108 44.90162 42.32635
# Shear Modulus (GPa) = 24.33295 26.44249 25.38772
#
# Velocity S-wave (km/s) = 3.51190 3.66096 3.58721
# Velocity P-wave (km/s) = 6.04920 6.37410 6.21377
#
# Compressibility (1/GPa) = 0.02515655
#
# Stress axis : x y z
#
# Youngs Moduli (GPa) = 83.22365 53.39173 75.02628
#
# Poissons Ratio (x) = 0.19220 0.35481
# Poissons Ratio (y) = 0.29959 0.08476
# Poissons Ratio (z) = 0.39358 0.06032
#
# Static dielectric constant tensor:
#      x y z
#    x 3.963940 0.000000 0.000000 
#    y 0.000000 3.576210 0.000010 
#    z 0.000000 0.000010 3.437720 
# 
# 
# High freq. dielectric constant tensor:
#      x y z
#    x 1.791750 0.000000 0.000000 
#    y 0.000000 1.759790 0.000000 
#    z 0.000000 0.000000 1.740930 
# 
# From -- ./inp_files/3908.got.cif
#   From: 2010.06.25/outbox.cif.g09.slc.cpg/sg43_2_cif.got.tgz:3908.got - 2010.06.26 16:48:59.
