data_PCOD8187766
_publ_section_title
;
Structure prediction by ZEFSAII (Michael W. Deem and Ramdas Pophale) SiO2 
 PCOD8187766
Probable space group: F D D 2
;
_chemical_formula_sum "Si O2"
_cell_formula_units_Z 104
_cell_length_a 12.473961
_cell_length_b 20.232861
_cell_length_c 18.298432
_cell_angle_alpha 90.000000
_cell_angle_beta 90.000000
_cell_angle_gamma 90.000000
_cell_volume 4618.229980
_symmetry_space_group_name_H-M "F D D 2"
_symmetry_group_IT_number 43
_symmetry_cell_setting 'orthorhombic'
loop_
_space_group_symop_operation_xyz
x,y,z
-x,-y,z
1/4-x,1/4+y,1/4+z
1/4+x,1/4-y,1/4+z
x,1/2+y,1/2+z
-x,1/2-y,1/2+z
1/4-x,3/4+y,3/4+z
1/4+x,3/4-y,3/4+z
1/2+x,y,1/2+z
1/2-x,-y,1/2+z
3/4-x,1/4+y,3/4+z
3/4+x,1/4-y,3/4+z
1/2+x,1/2+y,z
1/2-x,1/2-y,z
3/4-x,3/4+y,1/4+z
3/4+x,3/4-y,1/4+z
loop_
_atom_site_type_symbol
_atom_site_label
_atom_site_fract_x
_atom_site_fract_y
_atom_site_fract_z
Si Si1 0.855559 0.211069 0.417760
Si Si2 0.332490 0.122171 0.510503
Si Si3 0.738640 0.014552 0.556431
Si Si4 0.250000 0.750000 0.085991
Si Si5 0.562178 0.186411 0.164621
Si Si6 0.690469 0.863520 0.338861
Si Si7 0.881564 0.495038 0.328825
O O1 0.750000 0.250000 0.394913
O O2 0.846102 0.136340 0.387242
O O3 0.869155 0.203582 0.504311
O O4 0.955204 0.252381 0.384652
O O5 0.268415 0.186128 0.536683
O O6 0.340899 0.131632 0.424105
O O7 0.437513 0.108256 0.560842
O O8 0.263564 0.056495 0.518253
O O9 0.810098 0.060451 0.502828
O O10 0.622680 0.048579 0.562787
O O11 0.353629 0.760158 0.135817
O O12 0.445024 0.208121 0.135740
O O13 0.650705 0.931510 0.303413
O O14 0.000000 0.500000 0.364535
#
# Coordination Sequence:
#
# PCOD8187766 Si02
#       7
#    16  16  16   8  16  16  16
#     4  11  27  46  71 109 142 194 241 300 371 443
#     4  12  26  48  73 111 145 198 249 309 376 449
#     4  12  26  45  76 108 142 194 245 306 368 453
#     4  12  26  50  72 106 154 190 246 306 370 452
#     4  12  27  48  75 106 148 194 244 304 372 448
#     4  12  27  47  75 108 149 191 256 311 381 447
#     4  11  25  47  71 103 148 190 241 308 374 435
#
# _framework density 22.519451
#
# number of rings (size 3 to 8) (size 9 to 14) (size 15 to 20)
#    0.000    0.308    4.615    3.231    9.692    0.000 
#    0.000    0.000    0.000    0.000    0.000    0.000 
#    0.000    0.000    0.000    0.000    0.000    0.000 
#
# Total GULP energy -322314.911240 kJ/mol
# GULP energy per Si atom -12396.727355 kJ/mol
# Density = 2.246820 g / cm^3
# Si number density = 22.519451 Si / 1000 Ang^3
#
#
#
# Elastic Constant Matrix: (Units=GPa)
#
#
# Indices 1 2 3 4 5 6 
#
# 1 103.6246 21.5259 36.8020 0.0000 0.0000 0.0000
# 2 21.5259 120.8797 23.0407 0.0000 0.0000 0.0000
# 3 36.8020 23.0407 96.4252 0.0000 0.0000 0.0000
# 4 0.0000 0.0000 0.0000 28.3613 0.0000 0.0000
# 5 0.0000 0.0000 0.0000 0.0000 28.3523 0.0000
# 6 0.0000 0.0000 0.0000 0.0000 0.0000 43.0509
#
#
#
# Elastic Compliance Matrix: (Units=1/GPa)
#
#
# Indices 1 2 3 4 5 6 
#
# 1 0.011341 -0.001252 -0.004029 0.000000 0.000000 0.000000
# 2 -0.001252 0.008806 -0.001626 0.000000 0.000000 0.000000
# 3 -0.004029 -0.001626 0.012297 0.000000 0.000000 0.000000
# 4 0.000000 0.000000 0.000000 0.035259 0.000000 0.000000
# 5 0.000000 0.000000 0.000000 0.000000 0.035271 0.000000
# 6 0.000000 0.000000 0.000000 0.000000 0.000000 0.023228
#
#
# Mechanical properties :
#
#
# Convention : Reuss Voigt Hill
#
# Bulk Modulus (GPa) = 53.67918 53.74072 53.70995
# Shear Modulus (GPa) = 34.19345 35.92363 35.05854
#
# Velocity S-wave (km/s) = 3.90089 3.99836 3.94993
# Velocity P-wave (km/s) = 6.64664 6.72546 6.68616
#
# Compressibility (1/GPa) = 0.01862920
#
# Stress axis : x y z
#
# Youngs Moduli (GPa) = 88.17357 113.56449 81.31882
#
# Poissons Ratio (x) = 0.14213 0.32767
# Poissons Ratio (y) = 0.11035 0.13226
# Poissons Ratio (z) = 0.35529 0.18470
#
# Static dielectric constant tensor:
#      x y z
#    x 4.034360 0.000000 0.000000 
#    y 0.000000 4.283030 0.000000 
#    z 0.000000 0.000000 4.000670 
# 
# 
# High freq. dielectric constant tensor:
#      x y z
#    x 1.884790 0.000000 0.000000 
#    y 0.000000 1.911390 0.000000 
#    z 0.000000 0.000000 1.887650 
# 
# From -- ./inp_files/13890.got.cif
#   From: 2010.06.25/outbox.cif.g09.slc.cpg/sg43_7_cif.got.tgz:13890.got - 2010.06.26 16:48:59.
