data_PCOD8187659
_publ_section_title
;
Structure prediction by ZEFSAII (Michael W. Deem and Ramdas Pophale) SiO2 
 PCOD8187659
Probable space group: F D D 2
;
_chemical_formula_sum "Si O2"
_cell_formula_units_Z 96
_cell_length_a 23.932427
_cell_length_b 18.539798
_cell_length_c 9.890039
_cell_angle_alpha 90.000000
_cell_angle_beta 90.000000
_cell_angle_gamma 90.000000
_cell_volume 4388.233667
_symmetry_space_group_name_H-M "F D D 2"
_symmetry_group_IT_number 43
_symmetry_cell_setting 'orthorhombic'
loop_
_space_group_symop_operation_xyz
x,y,z
-x,-y,z
1/4-x,1/4+y,1/4+z
1/4+x,1/4-y,1/4+z
x,1/2+y,1/2+z
-x,1/2-y,1/2+z
1/4-x,3/4+y,3/4+z
1/4+x,3/4-y,3/4+z
1/2+x,y,1/2+z
1/2-x,-y,1/2+z
3/4-x,1/4+y,3/4+z
3/4+x,1/4-y,3/4+z
1/2+x,1/2+y,z
1/2-x,1/2-y,z
3/4-x,3/4+y,1/4+z
3/4+x,3/4-y,1/4+z
loop_
_atom_site_type_symbol
_atom_site_label
_atom_site_fract_x
_atom_site_fract_y
_atom_site_fract_z
Si Si1 0.227178 0.925003 0.751860
Si Si2 0.260355 0.332656 0.709439
Si Si3 0.702619 0.310364 0.965741
Si Si4 0.045912 0.622516 0.213467
Si Si5 0.908050 0.734019 0.609301
Si Si6 0.847392 0.943959 0.666617
O O1 0.233661 0.898562 0.598305
O O2 0.288709 0.937739 0.810093
O O3 0.190835 0.998544 0.746193
O O4 0.195323 0.863916 0.837986
O O5 0.250000 0.250000 0.669384
O O6 0.219548 0.364575 0.591941
O O7 0.251508 0.340667 0.868010
O O8 0.321354 0.363735 0.679304
O O9 0.750000 0.250000 0.927938
O O10 0.642781 0.274351 0.003094
O O11 0.073590 0.683428 0.118585
O O12 0.092844 0.561367 0.241944
O O13 0.890389 0.710913 0.760442
#
# Coordination Sequence:
#
# PCOD8187659 Si02
#       6
#    16  16  16  16  16  16
#     4  11  26  45  68 106 139 178 236 293 353 409
#     4  11  22  40  69  96 131 177 232 277 338 422
#     4  11  24  45  71 103 135 183 238 279 342 426
#     4  11  24  44  68 100 135 181 230 292 347 411
#     4  11  23  45  73  97 138 188 231 290 349 424
#     4  11  23  45  70  98 138 181 236 278 355 421
#
# _framework density 21.876684000000001
#
# number of rings (size 3 to 8) (size 9 to 14) (size 15 to 20)
#    0.000    1.000    5.000    2.000    2.333    2.000 
#    6.000    0.000    0.000    0.000    0.000    0.000 
#    0.000    0.000    0.000    0.000    0.000    0.000 
#
# Total GULP energy -297348.194505 kJ/mol
# GULP energy per Si atom -12389.508104 kJ/mol
# Density = 2.182689 g / cm^3
# Si number density = 21.876684 Si / 1000 Ang^3
#
#
#
# Elastic Constant Matrix: (Units=GPa)
#
#
# Indices 1 2 3 4 5 6 
#
# 1 71.5365 14.0563 11.2444 0.0000 0.0000 0.0000
# 2 14.0563 73.1555 29.6403 0.0001 0.0000 0.0000
# 3 11.2444 29.6403 79.2659 0.0003 -0.0001 -0.0001
# 4 0.0000 0.0001 0.0003 38.6375 0.0000 0.0000
# 5 0.0000 0.0000 -0.0001 0.0000 31.8813 0.0000
# 6 0.0000 0.0000 -0.0001 0.0000 0.0000 26.9030
#
#
#
# Elastic Compliance Matrix: (Units=1/GPa)
#
#
# Indices 1 2 3 4 5 6 
#
# 1 0.014625 -0.002321 -0.001207 0.000000 0.000000 0.000000
# 2 -0.002321 0.016479 -0.005833 0.000000 0.000000 0.000000
# 3 -0.001207 -0.005833 0.014968 0.000000 0.000000 0.000000
# 4 0.000000 0.000000 0.000000 0.025882 0.000000 0.000000
# 5 0.000000 0.000000 0.000000 0.000000 0.031366 0.000000
# 6 0.000000 0.000000 0.000000 0.000000 0.000000 0.037171
#
#
# Mechanical properties :
#
#
# Convention : Reuss Voigt Hill
#
# Bulk Modulus (GPa) = 36.56256 37.09332 36.82794
# Shear Modulus (GPa) = 29.70398 30.75216 30.22807
#
# Velocity S-wave (km/s) = 3.68882 3.75334 3.72122
# Velocity P-wave (km/s) = 5.90699 5.98129 5.94426
#
# Compressibility (1/GPa) = 0.02735039
#
# Stress axis : x y z
#
# Youngs Moduli (GPa) = 68.37779 60.68424 66.80918
#
# Poissons Ratio (x) = 0.14086 0.08062
# Poissons Ratio (y) = 0.15871 0.38968
# Poissons Ratio (z) = 0.08251 0.35395
#
# Static dielectric constant tensor:
#      x y z
#    x 3.871700 0.000000 0.000000 
#    y 0.000000 4.040730 0.000000 
#    z 0.000000 0.000000 3.860390 
# 
# 
# High freq. dielectric constant tensor:
#      x y z
#    x 1.858730 0.000000 0.000000 
#    y 0.000000 1.858340 0.000000 
#    z 0.000000 0.000000 1.859990 
# 
# From -- ./inp_files/3304.got.cif
#   From: 2010.06.25/outbox.cif.g09.slc.cpg/sg43_2_cif.got.tgz:3304.got - 2010.06.26 16:48:59.
