data_PCOD8187369
_publ_section_title
;
Structure prediction by ZEFSAII (Michael W. Deem and Ramdas Pophale) SiO2 
 PCOD8187369
Probable space group: F D D 2
;
_chemical_formula_sum "Si O2"
_cell_formula_units_Z 80
_cell_length_a 10.584124
_cell_length_b 14.308646
_cell_length_c 24.012995
_cell_angle_alpha 90.000000
_cell_angle_beta 90.000000
_cell_angle_gamma 90.000000
_cell_volume 3636.635626
_symmetry_space_group_name_H-M "F D D 2"
_symmetry_group_IT_number 43
_symmetry_cell_setting 'orthorhombic'
loop_
_space_group_symop_operation_xyz
x,y,z
-x,-y,z
1/4-x,1/4+y,1/4+z
1/4+x,1/4-y,1/4+z
x,1/2+y,1/2+z
-x,1/2-y,1/2+z
1/4-x,3/4+y,3/4+z
1/4+x,3/4-y,3/4+z
1/2+x,y,1/2+z
1/2-x,-y,1/2+z
3/4-x,1/4+y,3/4+z
3/4+x,1/4-y,3/4+z
1/2+x,1/2+y,z
1/2-x,1/2-y,z
3/4-x,3/4+y,1/4+z
3/4+x,3/4-y,1/4+z
loop_
_atom_site_type_symbol
_atom_site_label
_atom_site_fract_x
_atom_site_fract_y
_atom_site_fract_z
Si Si1 0.978468 0.724620 0.184200
Si Si2 0.771532 0.525380 0.319572
Si Si3 0.250000 0.619075 0.626886
Si Si4 0.599337 0.581145 0.227591
Si Si5 0.150663 0.668855 0.276181
O O1 0.843745 0.681716 0.165258
O O2 0.963423 0.818097 0.220831
O O3 0.053037 0.750000 0.126886
O O4 0.058275 0.655784 0.223048
O O5 0.906255 0.568284 0.338514
O O6 0.691725 0.594216 0.280724
O O7 0.786577 0.431903 0.282941
O O8 0.172271 0.555010 0.670044
O O9 0.327729 0.555010 0.583728
O O10 0.500000 0.500000 0.240491
O O11 0.250000 0.750000 0.263281
#
# Coordination Sequence:
#
# PCOD8187369 Si02
#       5
#    16  16  16  16  16
#     4  10  22  41  60  86 122 159 199 243 297 362
#     4  10  22  41  60  86 122 159 199 243 297 362
#     4  10  23  42  62  86 121 164 203 238 296 372
#     4  11  22  37  60  90 119 156 201 248 299 347
#     4  11  22  37  60  90 119 156 201 248 299 347
#
# _framework density 21.998353999999999
#
# number of rings (size 3 to 8) (size 9 to 14) (size 15 to 20)
#    0.000    1.600    0.000    7.800    0.000    7.200 
#    0.000    0.000    0.000    0.000    0.000    0.000 
#    0.000    0.000    0.000    0.000    0.000    0.000 
#
# Total GULP energy -247817.840796 kJ/mol
# GULP energy per Si atom -12390.892040 kJ/mol
# Density = 2.194828 g / cm^3
# Si number density = 21.998354 Si / 1000 Ang^3
#
#
#
# Elastic Constant Matrix: (Units=GPa)
#
#
# Indices 1 2 3 4 5 6 
#
# 1 86.3774 37.7948 51.1156 0.0000 0.0000 0.0000
# 2 37.7948 75.5045 43.2700 0.0000 0.0000 0.0000
# 3 51.1156 43.2700 140.7145 0.0000 0.0000 0.0000
# 4 0.0000 0.0000 0.0000 31.6618 0.0000 0.0000
# 5 0.0000 0.0000 0.0000 0.0000 46.4624 0.0000
# 6 0.0000 0.0000 0.0000 0.0000 0.0000 5.2991
#
#
#
# Elastic Compliance Matrix: (Units=1/GPa)
#
#
# Indices 1 2 3 4 5 6 
#
# 1 0.016674 -0.005918 -0.004237 0.000000 0.000000 0.000000
# 2 -0.005918 0.018178 -0.003440 0.000000 0.000000 0.000000
# 3 -0.004237 -0.003440 0.009704 0.000000 0.000000 0.000000
# 4 0.000000 0.000000 0.000000 0.031584 0.000000 0.000000
# 5 0.000000 0.000000 0.000000 0.000000 0.021523 0.000000
# 6 0.000000 0.000000 0.000000 0.000000 0.000000 0.188710
#
#
# Mechanical properties :
#
#
# Convention : Reuss Voigt Hill
#
# Bulk Modulus (GPa) = 57.58685 62.99525 60.29105
# Shear Modulus (GPa) = 15.65676 28.04575 21.85126
#
# Velocity S-wave (km/s) = 2.67071 3.57445 3.15511
# Velocity P-wave (km/s) = 5.97870 6.76270 6.38275
#
# Compressibility (1/GPa) = 0.01736508
#
# Stress axis : x y z
#
# Youngs Moduli (GPa) = 59.97344 55.01144 103.05521
#
# Poissons Ratio (x) = 0.32557 0.43666
# Poissons Ratio (y) = 0.35494 0.35450
# Poissons Ratio (z) = 0.25411 0.18924
#
# Static dielectric constant tensor:
#      x y z
#    x 3.918090 0.000000 0.000000 
#    y 0.000000 3.621500 0.000000 
#    z 0.000000 0.000000 4.461360 
# 
# 
# High freq. dielectric constant tensor:
#      x y z
#    x 1.854880 0.000000 0.000000 
#    y 0.000000 1.842090 0.000000 
#    z 0.000000 0.000000 1.886500 
# 
# From -- ./inp_files/20925.got.cif
#   From: 2010.06.25/outbox.cif.g09.slc.cpg/sg43_11_cif.got.tgz:20925.got - 2010.06.26 16:48:59.
