data_PCOD8187710
_publ_section_title
;
Structure prediction by ZEFSAII (Michael W. Deem and Ramdas Pophale) SiO2 
 PCOD8187710
Probable space group: F D D 2
;
_chemical_formula_sum "Si O2"
_cell_formula_units_Z 120
_cell_length_a 25.925030
_cell_length_b 24.174686
_cell_length_c 8.787229
_cell_angle_alpha 90.000000
_cell_angle_beta 90.000000
_cell_angle_gamma 90.000000
_cell_volume 5507.215284
_symmetry_space_group_name_H-M "F D D 2"
_symmetry_group_IT_number 43
_symmetry_cell_setting 'orthorhombic'
loop_
_space_group_symop_operation_xyz
x,y,z
-x,-y,z
1/4-x,1/4+y,1/4+z
1/4+x,1/4-y,1/4+z
x,1/2+y,1/2+z
-x,1/2-y,1/2+z
1/4-x,3/4+y,3/4+z
1/4+x,3/4-y,3/4+z
1/2+x,y,1/2+z
1/2-x,-y,1/2+z
3/4-x,1/4+y,3/4+z
3/4+x,1/4-y,3/4+z
1/2+x,1/2+y,z
1/2-x,1/2-y,z
3/4-x,3/4+y,1/4+z
3/4+x,3/4-y,1/4+z
loop_
_atom_site_type_symbol
_atom_site_label
_atom_site_fract_x
_atom_site_fract_y
_atom_site_fract_z
Si Si1 0.033970 0.104088 0.881540
Si Si2 0.817499 0.416695 0.057851
Si Si3 0.579554 0.597456 0.199918
Si Si4 0.750000 0.250000 0.438470
Si Si5 0.392207 0.838710 0.163623
Si Si6 0.443226 0.681612 0.954448
Si Si7 0.591017 0.519045 0.479247
Si Si8 0.291069 0.558526 0.148353
O O1 0.086624 0.129610 0.812485
O O2 0.010685 0.053006 0.790123
O O3 0.990902 0.151841 0.874578
O O4 0.046176 0.082401 0.051389
O O5 0.833510 0.354731 0.108294
O O6 0.771336 0.439580 0.161786
O O7 0.800204 0.424797 0.884948
O O8 0.875165 0.441396 0.089512
O O9 0.639939 0.597888 0.156752
O O10 0.568761 0.551780 0.331964
O O11 0.561647 0.659300 0.248752
O O12 0.702174 0.238743 0.327077
O O13 0.386028 0.773448 0.184868
O O14 0.436343 0.844997 0.035823
O O15 0.441187 0.745068 0.898230
#
# Coordination Sequence:
#
# PCOD8187710 Si02
#       8
#    16  16  16   8  16  16  16  16
#     4  12  28  46  69 114 148 180 240 309 365 421
#     4  11  23  44  71 104 138 187 242 283 352 435
#     4  11  25  47  72 106 142 190 242 291 362 432
#     4  12  28  48  74 106 148 190 236 308 368 422
#     4  12  25  45  72 103 144 187 242 295 361 432
#     4  11  25  45  72 107 143 190 239 295 361 435
#     4  11  25  49  70 104 141 198 242 282 360 448
#     4  12  23  46  75 100 140 195 238 295 354 446
#
# _framework density 21.789597000000001
#
# number of rings (size 3 to 8) (size 9 to 14) (size 15 to 20)
#    0.000    0.533    8.000    0.800    5.600    2.667 
#    0.000    0.000    0.000    0.000    0.000    0.000 
#    0.000    0.000    0.000    0.000    0.000    0.000 
#
# Total GULP energy -371842.872671 kJ/mol
# GULP energy per Si atom -12394.762422 kJ/mol
# Density = 2.174000 g / cm^3
# Si number density = 21.789597 Si / 1000 Ang^3
#
#
#
# Elastic Constant Matrix: (Units=GPa)
#
#
# Indices 1 2 3 4 5 6 
#
# 1 134.0331 44.9926 52.0388 0.0040 -0.0025 -0.0013
# 2 44.9926 110.7550 54.8107 0.0108 -0.0031 -0.0035
# 3 52.0388 54.8107 108.6706 0.0277 -0.0183 -0.0087
# 4 0.0040 0.0108 0.0277 28.4228 -0.0063 -0.0046
# 5 -0.0025 -0.0031 -0.0183 -0.0063 37.5663 0.0017
# 6 -0.0013 -0.0035 -0.0087 -0.0046 0.0017 40.9880
#
#
#
# Elastic Compliance Matrix: (Units=1/GPa)
#
#
# Indices 1 2 3 4 5 6 
#
# 1 0.009534 -0.002150 -0.003481 0.000003 -0.000001 -0.000001
# 2 -0.002150 0.012517 -0.005284 0.000001 -0.000002 0.000000
# 3 -0.003481 -0.005284 0.013534 -0.000011 0.000006 0.000002
# 4 0.000003 0.000001 -0.000011 0.035183 0.000006 0.000004
# 5 -0.000001 -0.000002 0.000006 0.000006 0.026620 -0.000001
# 6 -0.000001 0.000000 0.000002 0.000004 -0.000001 0.024397
#
#
# Mechanical properties :
#
#
# Convention : Reuss Voigt Hill
#
# Bulk Modulus (GPa) = 72.69892 73.01586 72.85739
# Shear Modulus (GPa) = 33.73802 34.83654 34.28728
#
# Velocity S-wave (km/s) = 3.93918 4.00280 3.97112
# Velocity P-wave (km/s) = 7.35704 7.41252 7.38483
#
# Compressibility (1/GPa) = 0.01375536
#
# Stress axis : x y z
#
# Youngs Moduli (GPa) = 104.88539 79.88945 73.88811
#
# Poissons Ratio (x) = 0.17180 0.25720
# Poissons Ratio (y) = 0.22555 0.39040
# Poissons Ratio (z) = 0.36510 0.42211
#
# Static dielectric constant tensor:
#      x y z
#    x 4.027950 0.000000 0.000000 
#    y 0.000000 3.919390 -0.000010 
#    z 0.000000 -0.000010 3.878790 
# 
# 
# High freq. dielectric constant tensor:
#      x y z
#    x 1.867700 0.000000 0.000000 
#    y 0.000000 1.863510 0.000000 
#    z 0.000000 0.000000 1.847710 
# 
# From -- ./inp_files/3873.got.cif
#   From: 2010.06.25/outbox.cif.g09.slc.cpg/sg43_2_cif.got.tgz:3873.got - 2010.06.26 16:48:59.
